PPY.pdb
     RDKit          3D

 27 29  0  0  1  0  0  0  0  0999 V2000
    5.4727  -18.3796   22.1258 N   0  0  0  0  0  0  0  0  0  0  0  0
    4.0974  -18.7126   21.6632 C   0  0  0  0  0  0  0  0  0  0  0  0
    3.7303  -17.4097   20.9713 C   0  0  0  0  0  0  0  0  0  0  0  0
    4.9979  -17.0223   20.2601 C   0  0  0  0  0  0  0  0  0  0  0  0
    6.0630  -17.8255   20.9197 C   0  0  1  0  0  0  0  0  0  0  0  0
    7.2783  -17.0399   21.1720 C   0  0  0  0  0  0  0  0  0  0  0  0
    8.4087  -17.6800   21.1287 O   0  0  0  0  0  0  0  0  0  0  0  0
    7.3727  -15.6604   21.4618 N   0  0  0  0  0  0  0  0  0  0  0  0
    6.2931  -14.7496   21.7085 C   0  0  0  0  0  0  0  0  0  0  0  0
    6.9570  -13.5367   22.3849 C   0  0  0  0  0  0  0  0  0  0  0  0
    8.2853  -13.4840   21.6410 C   0  0  0  0  0  0  0  0  0  0  0  0
    8.6211  -14.9481   21.5693 C   0  0  1  0  0  0  0  0  0  0  0  0
    9.2965  -15.2630   22.8829 C   0  0  0  0  0  0  0  0  0  0  0  0
   10.4752  -14.8730   23.0977 O   0  0  0  0  0  0  0  0  0  0  0  0
    6.2452  -10.7307   26.5673 O   0  0  0  0  0  0  0  0  0  0  0  0
    6.6787  -12.0625   26.5018 C   0  0  0  0  0  0  0  0  0  0  0  0
    8.0328  -12.2819   26.5056 C   0  0  0  0  0  0  0  0  0  0  0  0
    8.4906  -13.5806   26.4415 C   0  0  0  0  0  0  0  0  0  0  0  0
    7.6356  -14.6511   26.3746 C   0  0  0  0  0  0  0  0  0  0  0  0
    8.1238  -16.0484   26.3069 C   0  0  0  0  0  0  0  0  0  0  0  0
    9.2108  -16.1195   25.2510 C   0  0  2  0  0  0  0  0  0  0  0  0
    8.6591  -15.9937   23.9159 N   0  0  0  0  0  0  0  0  0  0  0  0
    9.9629  -17.3925   25.3079 C   0  0  0  0  0  0  0  0  0  0  0  0
    9.9502  -18.3213   24.2583 O   0  0  0  0  0  0  0  0  0  0  0  0
    6.2692  -14.3941   26.3725 C   0  0  0  0  0  0  0  0  0  0  0  0
    5.8056  -13.1140   26.4355 C   0  0  0  0  0  0  0  0  0  0  0  0
   10.6562  -17.7082   26.3081 O   0  0  0  0  0  0  0  0  0  0  0  0
  1  2  1  0
  2  3  1  0
  4  3  1  0
  5  4  1  0
  5  1  1  0
  6  7  2  0
  5  6  1  1
  8  6  1  0
  9  8  1  0
 10  9  1  0
 11 10  1  0
 11 12  1  0
 12  8  1  0
 12 13  1  1
 14 13  2  0
 16 15  1  0
 17 16  2  0
 18 17  1  0
 19 25  1  0
 19 18  2  0
 20 19  1  0
 21 20  1  1
 21 22  1  0
 22 13  1  0
 23 21  1  0
 24 23  1  0
 25 26  2  0
 26 16  1  0
 27 23  2  0
M  END
$$$$
