PPY.pdb
     RDKit          3D

 27 29  0  0  1  0  0  0  0  0999 V2000
    8.7169  -14.9773   18.3323 N   0  0  0  0  0  0  0  0  0  0  0  0
    8.6684  -14.0568   17.1633 C   0  0  0  0  0  0  0  0  0  0  0  0
    7.4655  -13.2096   17.5458 C   0  0  0  0  0  0  0  0  0  0  0  0
    7.6423  -12.9987   19.0245 C   0  0  0  0  0  0  0  0  0  0  0  0
    8.6111  -14.0478   19.4436 C   0  0  1  0  0  0  0  0  0  0  0  0
    8.2258  -14.6897   20.7074 C   0  0  0  0  0  0  0  0  0  0  0  0
    8.1440  -13.9219   21.7530 O   0  0  0  0  0  0  0  0  0  0  0  0
    7.9325  -16.0534   20.9314 N   0  0  0  0  0  0  0  0  0  0  0  0
    8.0884  -17.1379   20.0065 C   0  0  0  0  0  0  0  0  0  0  0  0
    8.0512  -18.4025   20.8833 C   0  0  0  0  0  0  0  0  0  0  0  0
    7.0222  -17.9964   21.9304 C   0  0  0  0  0  0  0  0  0  0  0  0
    7.4278  -16.5697   22.1788 C   0  0  1  0  0  0  0  0  0  0  0  0
    8.5343  -16.6468   23.2039 C   0  0  0  0  0  0  0  0  0  0  0  0
    9.6654  -17.0984   22.8811 O   0  0  0  0  0  0  0  0  0  0  0  0
    5.2284  -11.6116   26.6980 O   0  0  0  0  0  0  0  0  0  0  0  0
    6.3663  -12.3768   26.4054 C   0  0  0  0  0  0  0  0  0  0  0  0
    7.4704  -12.1860   27.1969 C   0  0  0  0  0  0  0  0  0  0  0  0
    8.6053  -12.9231   26.9342 C   0  0  0  0  0  0  0  0  0  0  0  0
    8.6601  -13.8351   25.9111 C   0  0  0  0  0  0  0  0  0  0  0  0
    9.8777  -14.6300   25.6265 C   0  0  0  0  0  0  0  0  0  0  0  0
    9.4697  -16.0832   25.4747 C   0  0  2  0  0  0  0  0  0  0  0  0
    8.3649  -16.2273   24.5465 N   0  0  0  0  0  0  0  0  0  0  0  0
    9.0563  -16.6851   26.7616 C   0  0  0  0  0  0  0  0  0  0  0  0
    9.9549  -16.8955   27.8167 O   0  0  0  0  0  0  0  0  0  0  0  0
    7.5239  -14.0041   25.1279 C   0  0  0  0  0  0  0  0  0  0  0  0
    6.3964  -13.2806   25.3786 C   0  0  0  0  0  0  0  0  0  0  0  0
    7.8698  -17.0415   26.9756 O   0  0  0  0  0  0  0  0  0  0  0  0
  1  2  1  0
  2  3  1  0
  4  3  1  0
  5  4  1  0
  5  1  1  0
  6  7  2  0
  5  6  1  1
  8  6  1  0
  9  8  1  0
 10  9  1  0
 11 10  1  0
 11 12  1  0
 12  8  1  0
 12 13  1  1
 14 13  2  0
 16 15  1  0
 17 16  2  0
 18 17  1  0
 19 25  1  0
 19 18  2  0
 20 19  1  0
 21 20  1  1
 21 22  1  0
 22 13  1  0
 23 21  1  0
 24 23  1  0
 25 26  2  0
 26 16  1  0
 27 23  2  0
M  END
$$$$
