PPY.pdb
     RDKit          3D

 27 29  0  0  1  0  0  0  0  0999 V2000
    8.8732  -15.0269   17.9078 N   0  0  0  0  0  0  0  0  0  0  0  0
    9.0240  -13.9272   16.9158 C   0  0  0  0  0  0  0  0  0  0  0  0
    7.7843  -13.1092   17.2399 C   0  0  0  0  0  0  0  0  0  0  0  0
    7.7224  -13.1488   18.7423 C   0  0  0  0  0  0  0  0  0  0  0  0
    8.5994  -14.2876   19.1278 C   0  0  1  0  0  0  0  0  0  0  0  0
    8.0082  -15.1119   20.1902 C   0  0  0  0  0  0  0  0  0  0  0  0
    7.5242  -14.4822   21.2191 O   0  0  0  0  0  0  0  0  0  0  0  0
    7.9014  -16.5199   20.2350 N   0  0  0  0  0  0  0  0  0  0  0  0
    8.5611  -17.4678   19.3852 C   0  0  0  0  0  0  0  0  0  0  0  0
    8.4434  -18.8071   20.1348 C   0  0  0  0  0  0  0  0  0  0  0  0
    7.0579  -18.6698   20.7530 C   0  0  0  0  0  0  0  0  0  0  0  0
    7.0912  -17.2317   21.1913 C   0  0  1  0  0  0  0  0  0  0  0  0
    7.7630  -17.2468   22.5439 C   0  0  0  0  0  0  0  0  0  0  0  0
    9.0060  -17.4337   22.6309 O   0  0  0  0  0  0  0  0  0  0  0  0
    8.3974  -11.6625   29.0980 O   0  0  0  0  0  0  0  0  0  0  0  0
    8.0769  -12.4381   27.9749 C   0  0  0  0  0  0  0  0  0  0  0  0
    6.7500  -12.5407   27.6419 C   0  0  0  0  0  0  0  0  0  0  0  0
    6.4026  -13.2969   26.5430 C   0  0  0  0  0  0  0  0  0  0  0  0
    7.3401  -13.9444   25.7792 C   0  0  0  0  0  0  0  0  0  0  0  0
    6.9705  -14.7571   24.5966 C   0  0  0  0  0  0  0  0  0  0  0  0
    7.5016  -16.1630   24.8035 C   0  0  2  0  0  0  0  0  0  0  0  0
    7.0516  -17.0571   23.7544 N   0  0  0  0  0  0  0  0  0  0  0  0
    7.0728  -16.7376   26.0978 C   0  0  0  0  0  0  0  0  0  0  0  0
    7.9230  -16.8033   27.2103 O   0  0  0  0  0  0  0  0  0  0  0  0
    8.6759  -13.8200   26.1439 C   0  0  0  0  0  0  0  0  0  0  0  0
    9.0308  -13.0748   27.2286 C   0  0  0  0  0  0  0  0  0  0  0  0
    5.9159  -17.2000   26.2667 O   0  0  0  0  0  0  0  0  0  0  0  0
  1  2  1  0
  2  3  1  0
  4  3  1  0
  5  4  1  0
  5  1  1  0
  6  7  2  0
  5  6  1  1
  8  6  1  0
  9  8  1  0
 10  9  1  0
 11 10  1  0
 11 12  1  0
 12  8  1  0
 12 13  1  1
 14 13  2  0
 16 15  1  0
 17 16  2  0
 18 17  1  0
 19 25  1  0
 19 18  2  0
 20 19  1  0
 21 20  1  6
 21 22  1  0
 22 13  1  0
 23 21  1  0
 24 23  1  0
 25 26  2  0
 26 16  1  0
 27 23  2  0
M  END
$$$$
