PPY.pdb
     RDKit          3D

 27 29  0  0  1  0  0  0  0  0999 V2000
    7.6001  -13.5316   18.9665 N   0  0  0  0  0  0  0  0  0  0  0  0
    8.4747  -12.8473   17.9750 C   0  0  0  0  0  0  0  0  0  0  0  0
    9.7830  -12.8267   18.7488 C   0  0  0  0  0  0  0  0  0  0  0  0
    9.8217  -14.1792   19.4061 C   0  0  0  0  0  0  0  0  0  0  0  0
    8.4185  -14.6707   19.3444 C   0  0  1  0  0  0  0  0  0  0  0  0
    7.9938  -15.3041   20.5999 C   0  0  0  0  0  0  0  0  0  0  0  0
    7.4496  -14.5302   21.4912 O   0  0  0  0  0  0  0  0  0  0  0  0
    8.1069  -16.6642   20.9647 N   0  0  0  0  0  0  0  0  0  0  0  0
    8.5463  -17.7507   20.1386 C   0  0  0  0  0  0  0  0  0  0  0  0
    8.8904  -18.8763   21.1305 C   0  0  0  0  0  0  0  0  0  0  0  0
    7.8107  -18.6703   22.1852 C   0  0  0  0  0  0  0  0  0  0  0  0
    7.7973  -17.1695   22.2786 C   0  0  1  0  0  0  0  0  0  0  0  0
    8.9013  -16.8246   23.2499 C   0  0  0  0  0  0  0  0  0  0  0  0
   10.1027  -17.0583   22.9509 O   0  0  0  0  0  0  0  0  0  0  0  0
    4.8547  -12.0895   26.8213 O   0  0  0  0  0  0  0  0  0  0  0  0
    6.0860  -12.6453   26.4462 C   0  0  0  0  0  0  0  0  0  0  0  0
    7.0312  -12.7959   27.4290 C   0  0  0  0  0  0  0  0  0  0  0  0
    8.2525  -13.3389   27.0917 C   0  0  0  0  0  0  0  0  0  0  0  0
    8.5461  -13.7299   25.8101 C   0  0  0  0  0  0  0  0  0  0  0  0
    9.8572  -14.3151   25.4440 C   0  0  0  0  0  0  0  0  0  0  0  0
    9.7107  -15.8248   25.4164 C   0  0  2  0  0  0  0  0  0  0  0  0
    8.6525  -16.2363   24.5145 N   0  0  0  0  0  0  0  0  0  0  0  0
    9.4035  -16.3810   26.7527 C   0  0  0  0  0  0  0  0  0  0  0  0
    8.2148  -17.0724   27.0245 O   0  0  0  0  0  0  0  0  0  0  0  0
    7.5662  -13.5636   24.8379 C   0  0  0  0  0  0  0  0  0  0  0  0
    6.3552  -13.0277   25.1603 C   0  0  0  0  0  0  0  0  0  0  0  0
   10.1983  -16.2604   27.7193 O   0  0  0  0  0  0  0  0  0  0  0  0
  1  2  1  0
  2  3  1  0
  4  3  1  0
  5  4  1  0
  5  1  1  0
  6  7  2  0
  5  6  1  1
  8  6  1  0
  9  8  1  0
 10  9  1  0
 11 10  1  0
 11 12  1  0
 12  8  1  0
 12 13  1  1
 14 13  2  0
 16 15  1  0
 17 16  2  0
 18 17  1  0
 19 25  1  0
 19 18  2  0
 20 19  1  0
 21 20  1  1
 21 22  1  0
 22 13  1  0
 23 21  1  0
 24 23  1  0
 25 26  2  0
 26 16  1  0
 27 23  2  0
M  END
$$$$
