PPY.pdb
     RDKit          3D

 27 29  0  0  1  0  0  0  0  0999 V2000
    8.5187  -16.8828   18.3082 N   0  0  0  0  0  0  0  0  0  0  0  0
    9.3835  -17.8834   17.6250 C   0  0  0  0  0  0  0  0  0  0  0  0
   10.1451  -18.4325   18.8206 C   0  0  0  0  0  0  0  0  0  0  0  0
    9.0923  -18.5308   19.8905 C   0  0  0  0  0  0  0  0  0  0  0  0
    7.9838  -17.6608   19.4122 C   0  0  1  0  0  0  0  0  0  0  0  0
    7.4183  -16.8360   20.4881 C   0  0  0  0  0  0  0  0  0  0  0  0
    6.7975  -17.4635   21.4422 O   0  0  0  0  0  0  0  0  0  0  0  0
    7.4631  -15.4297   20.6153 N   0  0  0  0  0  0  0  0  0  0  0  0
    6.3517  -14.5238   20.6306 C   0  0  0  0  0  0  0  0  0  0  0  0
    6.9220  -13.2217   21.2211 C   0  0  0  0  0  0  0  0  0  0  0  0
    8.3234  -13.2248   20.6241 C   0  0  0  0  0  0  0  0  0  0  0  0
    8.6831  -14.6778   20.7688 C   0  0  1  0  0  0  0  0  0  0  0  0
    9.2135  -14.8148   22.1763 C   0  0  0  0  0  0  0  0  0  0  0  0
   10.3352  -14.3278   22.4799 O   0  0  0  0  0  0  0  0  0  0  0  0
    6.3576  -10.6795   27.2546 O   0  0  0  0  0  0  0  0  0  0  0  0
    6.7128  -11.9681   26.8313 C   0  0  0  0  0  0  0  0  0  0  0  0
    8.0519  -12.2439   26.7183 C   0  0  0  0  0  0  0  0  0  0  0  0
    8.4332  -13.5020   26.3037 C   0  0  0  0  0  0  0  0  0  0  0  0
    7.5174  -14.4781   26.0036 C   0  0  0  0  0  0  0  0  0  0  0  0
    7.9235  -15.8319   25.5589 C   0  0  0  0  0  0  0  0  0  0  0  0
    9.0331  -15.6811   24.5355 C   0  0  2  0  0  0  0  0  0  0  0  0
    8.4984  -15.4800   23.2027 N   0  0  0  0  0  0  0  0  0  0  0  0
    9.9169  -16.8670   24.4905 C   0  0  0  0  0  0  0  0  0  0  0  0
   10.9786  -17.0483   25.3874 O   0  0  0  0  0  0  0  0  0  0  0  0
    6.1684  -14.1659   26.1285 C   0  0  0  0  0  0  0  0  0  0  0  0
    5.7800  -12.9251   26.5375 C   0  0  0  0  0  0  0  0  0  0  0  0
    9.7597  -17.7785   23.6389 O   0  0  0  0  0  0  0  0  0  0  0  0
  1  2  1  0
  2  3  1  0
  4  3  1  0
  5  4  1  0
  5  1  1  0
  6  7  2  0
  5  6  1  1
  8  6  1  0
  9  8  1  0
 10  9  1  0
 11 10  1  0
 11 12  1  0
 12  8  1  0
 12 13  1  1
 14 13  2  0
 16 15  1  0
 17 16  2  0
 18 17  1  0
 19 25  1  0
 19 18  2  0
 20 19  1  0
 21 20  1  1
 21 22  1  0
 22 13  1  0
 23 21  1  0
 24 23  1  0
 25 26  2  0
 26 16  1  0
 27 23  2  0
M  END
$$$$
