ETG.pdb
     RDKit          3D

 21 20  0  0  1  0  0  0  0  0999 V2000
    7.1436  -17.5529   17.5868 N   0  0  0  0  0  0  0  0  0  0  0  0
    8.3832  -17.2490   16.9193 C   0  0  1  0  0  0  0  0  0  0  0  0
    8.1771  -16.6012   15.5793 C   0  0  0  0  0  0  0  0  0  0  0  0
    9.4262  -16.3469   14.8043 C   0  0  0  0  0  0  0  0  0  0  0  0
    9.2337  -15.8177   13.4547 C   0  0  0  0  0  0  0  0  0  0  0  0
   10.2103  -15.6497   12.7023 O   0  0  0  0  0  0  0  0  0  0  0  0
    9.0747  -16.2101   17.7684 C   0  0  0  0  0  0  0  0  0  0  0  0
   10.2578  -15.8890   17.4983 O   0  0  0  0  0  0  0  0  0  0  0  0
    7.9553  -15.5106   13.0357 O   0  0  0  0  0  0  0  0  0  0  0  0
    7.7079  -12.9907   18.9567 C   0  0  0  0  0  0  0  0  0  0  0  0
    8.3297  -13.6016   20.1825 C   0  0  1  0  0  0  0  0  0  0  0  0
    7.2913  -14.2915   20.8706 O   0  0  0  0  0  0  0  0  0  0  0  0
    9.2689  -14.7178   19.7283 C   0  0  2  0  0  0  0  0  0  0  0  0
    8.4429  -15.5803   18.8603 N   0  0  0  0  0  0  0  0  0  0  0  0
    9.8526  -15.4965   20.8211 C   0  0  0  0  0  0  0  0  0  0  0  0
    9.1048  -16.3862   21.3725 O   0  0  0  0  0  0  0  0  0  0  0  0
   11.1390  -15.4064   21.3590 N   0  0  0  0  0  0  0  0  0  0  0  0
   11.5705  -16.2249   22.4810 C   0  0  0  0  0  0  0  0  0  0  0  0
   12.9794  -15.8737   22.8269 C   0  0  0  0  0  0  0  0  0  0  0  0
   13.6601  -15.0483   22.1783 O   0  0  0  0  0  0  0  0  0  0  0  0
   13.5606  -16.4874   23.9132 O   0  0  0  0  0  0  0  0  0  0  0  0
  2  1  1  1
  3  2  1  0
  4  3  1  0
  5  6  2  0
  5  4  1  0
  7  8  2  0
  7  2  1  0
  9  5  1  0
 11 10  1  6
 11 13  1  0
 12 11  1  0
 13 14  1  6
 13 15  1  0
 14  7  1  0
 15 17  1  0
 16 15  2  0
 17 18  1  0
 19 21  1  0
 19 18  1  0
 20 19  2  0
M  END
$$$$
