ETG.pdb
     RDKit          3D

 21 20  0  0  1  0  0  0  0  0999 V2000
    4.9915  -20.9930   19.4895 N   0  0  0  0  0  0  0  0  0  0  0  0
    6.1928  -21.5790   20.0260 C   0  0  1  0  0  0  0  0  0  0  0  0
    7.4388  -21.0434   19.3790 C   0  0  0  0  0  0  0  0  0  0  0  0
    7.2077  -20.1990   18.1711 C   0  0  0  0  0  0  0  0  0  0  0  0
    8.4130  -19.6864   17.5206 C   0  0  0  0  0  0  0  0  0  0  0  0
    8.8340  -18.5470   17.7900 O   0  0  0  0  0  0  0  0  0  0  0  0
    6.2666  -21.1416   21.4688 C   0  0  0  0  0  0  0  0  0  0  0  0
    5.9360  -19.9685   21.7692 O   0  0  0  0  0  0  0  0  0  0  0  0
    9.0691  -20.4870   16.6082 O   0  0  0  0  0  0  0  0  0  0  0  0
    4.2587  -21.9581   23.6927 C   0  0  0  0  0  0  0  0  0  0  0  0
    5.4776  -22.2020   24.5395 C   0  0  1  0  0  0  0  0  0  0  0  0
    5.8017  -23.5822   24.4066 O   0  0  0  0  0  0  0  0  0  0  0  0
    6.6578  -21.4867   23.8841 C   0  0  2  0  0  0  0  0  0  0  0  0
    6.6943  -22.0017   22.5009 N   0  0  0  0  0  0  0  0  0  0  0  0
    7.9422  -21.7086   24.5493 C   0  0  0  0  0  0  0  0  0  0  0  0
    8.9702  -21.8859   23.7966 O   0  0  0  0  0  0  0  0  0  0  0  0
    8.2124  -21.7536   25.9195 N   0  0  0  0  0  0  0  0  0  0  0  0
    9.5633  -21.8906   26.4403 C   0  0  0  0  0  0  0  0  0  0  0  0
    9.5161  -21.8574   27.9319 C   0  0  0  0  0  0  0  0  0  0  0  0
    8.4592  -21.6969   28.5818 O   0  0  0  0  0  0  0  0  0  0  0  0
   10.6930  -22.0110   28.6289 O   0  0  0  0  0  0  0  0  0  0  0  0
  2  1  1  6
  3  2  1  0
  4  3  1  0
  5  6  2  0
  5  4  1  0
  7  8  2  0
  7  2  1  0
  9  5  1  0
 11 10  1  6
 11 13  1  0
 12 11  1  0
 13 14  1  6
 13 15  1  0
 14  7  1  0
 15 17  1  0
 16 15  2  0
 17 18  1  0
 19 21  1  0
 19 18  1  0
 20 19  2  0
M  END
$$$$
