ETG.pdb
     RDKit          3D

 21 20  0  0  1  0  0  0  0  0999 V2000
    8.5040  -18.0215   16.6025 N   0  0  0  0  0  0  0  0  0  0  0  0
    7.6257  -17.8115   17.7246 C   0  0  1  0  0  0  0  0  0  0  0  0
    7.5815  -18.9903   18.6554 C   0  0  0  0  0  0  0  0  0  0  0  0
    8.8492  -19.7718   18.7421 C   0  0  0  0  0  0  0  0  0  0  0  0
    8.7945  -20.9705   19.5779 C   0  0  0  0  0  0  0  0  0  0  0  0
    8.1345  -21.9598   19.2122 O   0  0  0  0  0  0  0  0  0  0  0  0
    8.2303  -16.6852   18.5273 C   0  0  0  0  0  0  0  0  0  0  0  0
    9.4767  -16.5364   18.5287 O   0  0  0  0  0  0  0  0  0  0  0  0
    9.4854  -20.9818   20.7723 O   0  0  0  0  0  0  0  0  0  0  0  0
    7.8940  -12.3343   20.5705 C   0  0  0  0  0  0  0  0  0  0  0  0
    7.3008  -13.4586   19.7666 C   0  0  1  0  0  0  0  0  0  0  0  0
    7.5316  -13.1507   18.3956 O   0  0  0  0  0  0  0  0  0  0  0  0
    8.1476  -14.7074   20.0063 C   0  0  2  0  0  0  0  0  0  0  0  0
    7.4479  -15.7864   19.2812 N   0  0  0  0  0  0  0  0  0  0  0  0
    8.3155  -15.0605   21.4164 C   0  0  0  0  0  0  0  0  0  0  0  0
    7.2457  -15.2367   22.1088 O   0  0  0  0  0  0  0  0  0  0  0  0
    9.5036  -15.2385   22.1301 N   0  0  0  0  0  0  0  0  0  0  0  0
    9.5174  -15.6526   23.5241 C   0  0  0  0  0  0  0  0  0  0  0  0
   10.9328  -15.7699   23.9835 C   0  0  0  0  0  0  0  0  0  0  0  0
   11.9152  -15.6428   23.2194 O   0  0  0  0  0  0  0  0  0  0  0  0
   11.1711  -16.0308   25.3138 O   0  0  0  0  0  0  0  0  0  0  0  0
  2  1  1  6
  3  2  1  0
  4  3  1  0
  5  6  2  0
  5  4  1  0
  7  8  2  0
  7  2  1  0
  9  5  1  0
 11 10  1  1
 11 13  1  0
 12 11  1  0
 13 14  1  6
 13 15  1  0
 14  7  1  0
 15 17  1  0
 16 15  2  0
 17 18  1  0
 19 21  1  0
 19 18  1  0
 20 19  2  0
M  END
$$$$
