ETG.pdb
     RDKit          3D

 21 20  0  0  1  0  0  0  0  0999 V2000
    8.5946  -14.8257   14.6167 N   0  0  0  0  0  0  0  0  0  0  0  0
    8.2635  -15.6914   15.7192 C   0  0  1  0  0  0  0  0  0  0  0  0
    8.8011  -17.0837   15.5454 C   0  0  0  0  0  0  0  0  0  0  0  0
    9.4932  -17.3338   14.2478 C   0  0  0  0  0  0  0  0  0  0  0  0
   10.0134  -18.6879   14.0618 C   0  0  0  0  0  0  0  0  0  0  0  0
    9.6016  -19.3940   13.1239 O   0  0  0  0  0  0  0  0  0  0  0  0
    8.9779  -15.1298   16.9245 C   0  0  0  0  0  0  0  0  0  0  0  0
   10.1232  -14.6365   16.7810 O   0  0  0  0  0  0  0  0  0  0  0  0
   10.9640  -19.1629   14.9420 O   0  0  0  0  0  0  0  0  0  0  0  0
    7.5335  -12.6948   19.0752 C   0  0  0  0  0  0  0  0  0  0  0  0
    8.1544  -13.6489   20.0583 C   0  0  1  0  0  0  0  0  0  0  0  0
    7.1401  -14.5780   20.4268 O   0  0  0  0  0  0  0  0  0  0  0  0
    9.1740  -14.5030   19.3066 C   0  0  2  0  0  0  0  0  0  0  0  0
    8.4086  -15.1362   18.2145 N   0  0  0  0  0  0  0  0  0  0  0  0
    9.8326  -15.5187   20.1289 C   0  0  0  0  0  0  0  0  0  0  0  0
    9.3012  -16.6900   20.1523 O   0  0  0  0  0  0  0  0  0  0  0  0
   10.9855  -15.3896   20.9078 N   0  0  0  0  0  0  0  0  0  0  0  0
   11.4815  -16.4700   21.7455 C   0  0  0  0  0  0  0  0  0  0  0  0
   12.7504  -16.0354   22.4005 C   0  0  0  0  0  0  0  0  0  0  0  0
   13.2988  -14.9344   22.1717 O   0  0  0  0  0  0  0  0  0  0  0  0
   13.3486  -16.8869   23.3013 O   0  0  0  0  0  0  0  0  0  0  0  0
  2  1  1  6
  3  2  1  0
  4  3  1  0
  5  6  2  0
  5  4  1  0
  7  8  2  0
  7  2  1  0
  9  5  1  0
 11 10  1  6
 11 13  1  0
 12 11  1  0
 13 14  1  6
 13 15  1  0
 14  7  1  0
 15 17  1  0
 16 15  2  0
 17 18  1  0
 19 21  1  0
 19 18  1  0
 20 19  2  0
M  END
$$$$
