ETG.pdb
     RDKit          3D

 21 20  0  0  1  0  0  0  0  0999 V2000
   -0.1737  -24.7789   25.8581 N   0  0  0  0  0  0  0  0  0  0  0  0
   -1.2321  -25.3310   26.6640 C   0  0  1  0  0  0  0  0  0  0  0  0
   -0.8838  -25.3799   28.1249 C   0  0  0  0  0  0  0  0  0  0  0  0
    0.1904  -26.3509   28.4837 C   0  0  0  0  0  0  0  0  0  0  0  0
    0.3916  -26.5672   29.9159 C   0  0  0  0  0  0  0  0  0  0  0  0
   -0.4670  -27.1694   30.5853 O   0  0  0  0  0  0  0  0  0  0  0  0
   -2.3892  -24.3677   26.5565 C   0  0  0  0  0  0  0  0  0  0  0  0
   -2.1535  -23.1409   26.4337 O   0  0  0  0  0  0  0  0  0  0  0  0
    1.5454  -26.0929   30.5056 O   0  0  0  0  0  0  0  0  0  0  0  0
   -5.9919  -25.3785   25.0338 C   0  0  0  0  0  0  0  0  0  0  0  0
   -5.3656  -24.0111   25.0376 C   0  0  1  0  0  0  0  0  0  0  0  0
   -6.4306  -23.0703   24.9451 O   0  0  0  0  0  0  0  0  0  0  0  0
   -4.7818  -23.7638   26.4277 C   0  0  2  0  0  0  0  0  0  0  0  0
   -3.7337  -24.7911   26.5884 N   0  0  0  0  0  0  0  0  0  0  0  0
   -5.7572  -23.8500   27.5152 C   0  0  0  0  0  0  0  0  0  0  0  0
   -6.2493  -25.0105   27.7718 O   0  0  0  0  0  0  0  0  0  0  0  0
   -6.2370  -22.8233   28.3326 N   0  0  0  0  0  0  0  0  0  0  0  0
   -7.1945  -23.0643   29.4004 C   0  0  0  0  0  0  0  0  0  0  0  0
   -7.5571  -21.7618   30.0329 C   0  0  0  0  0  0  0  0  0  0  0  0
   -8.4763  -21.6389   30.8727 O   0  0  0  0  0  0  0  0  0  0  0  0
   -6.8459  -20.6388   29.6757 O   0  0  0  0  0  0  0  0  0  0  0  0
  2  1  1  6
  3  2  1  0
  4  3  1  0
  5  6  2  0
  5  4  1  0
  7  8  2  0
  7  2  1  0
  9  5  1  0
 11 10  1  1
 11 13  1  0
 12 11  1  0
 13 14  1  1
 13 15  1  0
 14  7  1  0
 15 17  1  0
 16 15  2  0
 17 18  1  0
 19 21  1  0
 19 18  1  0
 20 19  2  0
M  END
$$$$
