ETG.pdb
     RDKit          3D

 21 20  0  0  1  0  0  0  0  0999 V2000
    9.3855  -19.3173   20.9462 N   0  0  0  0  0  0  0  0  0  0  0  0
   10.6809  -19.4847   21.5530 C   0  0  1  0  0  0  0  0  0  0  0  0
   11.8081  -19.2765   20.5815 C   0  0  0  0  0  0  0  0  0  0  0  0
   11.5306  -18.2900   19.4974 C   0  0  0  0  0  0  0  0  0  0  0  0
   12.6140  -18.0890   18.5359 C   0  0  0  0  0  0  0  0  0  0  0  0
   13.2977  -17.0501   18.5704 O   0  0  0  0  0  0  0  0  0  0  0  0
   10.8151  -18.3781   22.5708 C   0  0  0  0  0  0  0  0  0  0  0  0
   11.9273  -18.1840   23.1193 O   0  0  0  0  0  0  0  0  0  0  0  0
   12.8606  -19.0687   17.5960 O   0  0  0  0  0  0  0  0  0  0  0  0
    8.1971  -15.7575   22.4175 C   0  0  0  0  0  0  0  0  0  0  0  0
    9.2192  -15.2697   23.4072 C   0  0  1  0  0  0  0  0  0  0  0  0
    8.5014  -14.8122   24.5487 O   0  0  0  0  0  0  0  0  0  0  0  0
    9.9905  -16.4827   23.9249 C   0  0  2  0  0  0  0  0  0  0  0  0
    9.7355  -17.5470   22.9339 N   0  0  0  0  0  0  0  0  0  0  0  0
    9.5957  -16.9216   25.2638 C   0  0  0  0  0  0  0  0  0  0  0  0
    8.4376  -17.4684   25.3846 O   0  0  0  0  0  0  0  0  0  0  0  0
   10.3197  -16.8284   26.4553 N   0  0  0  0  0  0  0  0  0  0  0  0
    9.8393  -17.4016   27.7026 C   0  0  0  0  0  0  0  0  0  0  0  0
   10.8202  -17.1007   28.7867 C   0  0  0  0  0  0  0  0  0  0  0  0
   11.8947  -16.4908   28.5902 O   0  0  0  0  0  0  0  0  0  0  0  0
   10.5299  -17.5140   30.0671 O   0  0  0  0  0  0  0  0  0  0  0  0
  2  1  1  6
  3  2  1  0
  4  3  1  0
  5  6  2  0
  5  4  1  0
  7  8  2  0
  7  2  1  0
  9  5  1  0
 11 10  1  6
 11 13  1  0
 12 11  1  0
 13 14  1  6
 13 15  1  0
 14  7  1  0
 15 17  1  0
 16 15  2  0
 17 18  1  0
 19 21  1  0
 19 18  1  0
 20 19  2  0
M  END
$$$$
