ETG.pdb
     RDKit          3D

 21 20  0  0  1  0  0  0  0  0999 V2000
    8.7043  -17.0504   16.4798 N   0  0  0  0  0  0  0  0  0  0  0  0
    7.8032  -16.9229   17.5962 C   0  0  1  0  0  0  0  0  0  0  0  0
    7.5282  -18.2361   18.2728 C   0  0  0  0  0  0  0  0  0  0  0  0
    7.6301  -19.4333   17.3886 C   0  0  0  0  0  0  0  0  0  0  0  0
    7.3494  -20.7167   18.0309 C   0  0  0  0  0  0  0  0  0  0  0  0
    7.0334  -20.7597   19.2335 O   0  0  0  0  0  0  0  0  0  0  0  0
    8.5218  -16.0819   18.6232 C   0  0  0  0  0  0  0  0  0  0  0  0
    9.7715  -15.9802   18.5635 O   0  0  0  0  0  0  0  0  0  0  0  0
    7.4417  -21.8712   17.2808 O   0  0  0  0  0  0  0  0  0  0  0  0
    7.5724  -12.6793   19.5640 C   0  0  0  0  0  0  0  0  0  0  0  0
    7.8310  -13.3581   20.8810 C   0  0  1  0  0  0  0  0  0  0  0  0
    6.5796  -13.8620   21.3370 O   0  0  0  0  0  0  0  0  0  0  0  0
    8.6525  -14.6172   20.6091 C   0  0  2  0  0  0  0  0  0  0  0  0
    7.8433  -15.4006   19.6545 N   0  0  0  0  0  0  0  0  0  0  0  0
    8.9521  -15.4108   21.8015 C   0  0  0  0  0  0  0  0  0  0  0  0
    7.9665  -16.0110   22.3700 O   0  0  0  0  0  0  0  0  0  0  0  0
   10.1885  -15.6126   22.4204 N   0  0  0  0  0  0  0  0  0  0  0  0
   10.3235  -16.3631   23.6588 C   0  0  0  0  0  0  0  0  0  0  0  0
   11.7684  -16.4427   24.0251 C   0  0  0  0  0  0  0  0  0  0  0  0
   12.6832  -15.9664   23.3170 O   0  0  0  0  0  0  0  0  0  0  0  0
   12.1134  -17.0711   25.2000 O   0  0  0  0  0  0  0  0  0  0  0  0
  2  1  1  6
  3  2  1  0
  4  3  1  0
  5  6  2  0
  5  4  1  0
  7  8  2  0
  7  2  1  0
  9  5  1  0
 11 10  1  6
 11 13  1  0
 12 11  1  0
 13 14  1  6
 13 15  1  0
 14  7  1  0
 15 17  1  0
 16 15  2  0
 17 18  1  0
 19 21  1  0
 19 18  1  0
 20 19  2  0
M  END
$$$$
