ETG.pdb
     RDKit          3D

 21 20  0  0  1  0  0  0  0  0999 V2000
   15.0063  -17.2584   20.1190 N   0  0  0  0  0  0  0  0  0  0  0  0
   15.0792  -15.9287   20.6678 C   0  0  1  0  0  0  0  0  0  0  0  0
   14.6651  -14.8713   19.6838 C   0  0  0  0  0  0  0  0  0  0  0  0
   15.3837  -14.9115   18.3771 C   0  0  0  0  0  0  0  0  0  0  0  0
   15.0322  -13.8524   17.4319 C   0  0  0  0  0  0  0  0  0  0  0  0
   14.1453  -13.0275   17.7165 O   0  0  0  0  0  0  0  0  0  0  0  0
   14.0547  -15.8737   21.7751 C   0  0  0  0  0  0  0  0  0  0  0  0
   13.9352  -14.8189   22.4450 O   0  0  0  0  0  0  0  0  0  0  0  0
   15.7000  -13.7871   16.2262 O   0  0  0  0  0  0  0  0  0  0  0  0
   10.6272  -16.0799   21.5169 C   0  0  0  0  0  0  0  0  0  0  0  0
   10.8940  -17.1026   22.5870 C   0  0  1  0  0  0  0  0  0  0  0  0
   11.0890  -18.3487   21.9260 O   0  0  0  0  0  0  0  0  0  0  0  0
   12.2600  -16.7984   23.1998 C   0  0  2  0  0  0  0  0  0  0  0  0
   13.2202  -16.9655   22.0908 N   0  0  0  0  0  0  0  0  0  0  0  0
   12.6207  -17.6599   24.3263 C   0  0  0  0  0  0  0  0  0  0  0  0
   13.6772  -18.3824   24.1979 O   0  0  0  0  0  0  0  0  0  0  0  0
   11.9625  -17.8079   25.5500 N   0  0  0  0  0  0  0  0  0  0  0  0
   12.4031  -18.7585   26.5585 C   0  0  0  0  0  0  0  0  0  0  0  0
   11.4973  -18.6685   27.7416 C   0  0  0  0  0  0  0  0  0  0  0  0
   10.5583  -17.8461   27.8261 O   0  0  0  0  0  0  0  0  0  0  0  0
   11.7037  -19.5325   28.7929 O   0  0  0  0  0  0  0  0  0  0  0  0
  2  1  1  6
  3  2  1  0
  4  3  1  0
  5  6  2  0
  5  4  1  0
  7  8  2  0
  7  2  1  0
  9  5  1  0
 11 10  1  6
 11 13  1  0
 12 11  1  0
 13 14  1  6
 13 15  1  0
 14  7  1  0
 15 17  1  0
 16 15  2  0
 17 18  1  0
 19 21  1  0
 19 18  1  0
 20 19  2  0
M  END
$$$$
