ETG.pdb
     RDKit          3D

 21 20  0  0  1  0  0  0  0  0999 V2000
   11.4483  -20.1558   21.0105 N   0  0  0  0  0  0  0  0  0  0  0  0
   12.6440  -19.3833   21.2296 C   0  0  1  0  0  0  0  0  0  0  0  0
   13.0003  -18.5191   20.0531 C   0  0  0  0  0  0  0  0  0  0  0  0
   13.2415  -19.2577   18.7797 C   0  0  0  0  0  0  0  0  0  0  0  0
   13.9263  -18.5009   17.7323 C   0  0  0  0  0  0  0  0  0  0  0  0
   13.2752  -17.9760   16.8111 O   0  0  0  0  0  0  0  0  0  0  0  0
   12.3267  -18.4261   22.3528 C   0  0  0  0  0  0  0  0  0  0  0  0
   13.1889  -17.5814   22.6976 O   0  0  0  0  0  0  0  0  0  0  0  0
   15.2999  -18.3819   17.7863 O   0  0  0  0  0  0  0  0  0  0  0  0
    9.9136  -15.8802   22.6178 C   0  0  0  0  0  0  0  0  0  0  0  0
    9.6435  -16.7260   23.8318 C   0  0  1  0  0  0  0  0  0  0  0  0
    8.7260  -17.7389   23.4319 O   0  0  0  0  0  0  0  0  0  0  0  0
   10.9191  -17.5001   24.1603 C   0  0  2  0  0  0  0  0  0  0  0  0
   11.0933  -18.4409   23.0359 N   0  0  0  0  0  0  0  0  0  0  0  0
   10.8756  -18.2218   25.4325 C   0  0  0  0  0  0  0  0  0  0  0  0
   10.7755  -19.5031   25.3774 O   0  0  0  0  0  0  0  0  0  0  0  0
   10.9308  -17.6999   26.7275 N   0  0  0  0  0  0  0  0  0  0  0  0
   10.8763  -18.5465   27.9087 C   0  0  0  0  0  0  0  0  0  0  0  0
   11.0118  -17.6936   29.1262 C   0  0  0  0  0  0  0  0  0  0  0  0
   11.2126  -16.4595   29.0808 O   0  0  0  0  0  0  0  0  0  0  0  0
   10.9113  -18.2926   30.3613 O   0  0  0  0  0  0  0  0  0  0  0  0
  2  1  1  6
  3  2  1  0
  4  3  1  0
  5  6  2  0
  5  4  1  0
  7  8  2  0
  7  2  1  0
  9  5  1  0
 11 10  1  6
 11 13  1  0
 12 11  1  0
 13 14  1  6
 13 15  1  0
 14  7  1  0
 15 17  1  0
 16 15  2  0
 17 18  1  0
 19 21  1  0
 19 18  1  0
 20 19  2  0
M  END
$$$$
