ETG.pdb
     RDKit          3D

 21 20  0  0  1  0  0  0  0  0999 V2000
    9.8620  -14.6422   15.1683 N   0  0  0  0  0  0  0  0  0  0  0  0
   10.1337  -15.7006   16.1067 C   0  0  1  0  0  0  0  0  0  0  0  0
   11.4949  -16.3083   15.9177 C   0  0  0  0  0  0  0  0  0  0  0  0
   11.7422  -16.8906   14.5667 C   0  0  0  0  0  0  0  0  0  0  0  0
   13.0616  -17.4900   14.3708 C   0  0  0  0  0  0  0  0  0  0  0  0
   14.0901  -16.8113   14.5431 O   0  0  0  0  0  0  0  0  0  0  0  0
   10.1650  -15.0557   17.4710 C   0  0  0  0  0  0  0  0  0  0  0  0
   10.9805  -14.1266   17.6892 O   0  0  0  0  0  0  0  0  0  0  0  0
   13.1420  -18.8148   13.9934 O   0  0  0  0  0  0  0  0  0  0  0  0
    7.8500  -13.0880   18.8761 C   0  0  0  0  0  0  0  0  0  0  0  0
    8.0486  -14.0747   19.9938 C   0  0  1  0  0  0  0  0  0  0  0  0
    7.1249  -15.1361   19.7748 O   0  0  0  0  0  0  0  0  0  0  0  0
    9.4130  -14.7349   19.8029 C   0  0  2  0  0  0  0  0  0  0  0  0
    9.3104  -15.4560   18.5187 N   0  0  0  0  0  0  0  0  0  0  0  0
    9.7950  -15.6513   20.8779 C   0  0  0  0  0  0  0  0  0  0  0  0
   10.1027  -16.8544   20.5421 O   0  0  0  0  0  0  0  0  0  0  0  0
    9.8752  -15.3938   22.2489 N   0  0  0  0  0  0  0  0  0  0  0  0
   10.2307  -16.4233   23.2127 C   0  0  0  0  0  0  0  0  0  0  0  0
   10.1330  -15.8559   24.5899 C   0  0  0  0  0  0  0  0  0  0  0  0
    9.8298  -14.6644   24.8215 O   0  0  0  0  0  0  0  0  0  0  0  0
   10.3887  -16.6832   25.6598 O   0  0  0  0  0  0  0  0  0  0  0  0
  2  1  1  6
  3  2  1  0
  4  3  1  0
  5  6  2  0
  5  4  1  0
  7  8  2  0
  7  2  1  0
  9  5  1  0
 11 10  1  6
 11 13  1  0
 12 11  1  0
 13 14  1  6
 13 15  1  0
 14  7  1  0
 15 17  1  0
 16 15  2  0
 17 18  1  0
 19 21  1  0
 19 18  1  0
 20 19  2  0
M  END
$$$$
