ETG.pdb
     RDKit          3D

 21 20  0  0  1  0  0  0  0  0999 V2000
    7.9978  -16.3191   15.4626 N   0  0  0  0  0  0  0  0  0  0  0  0
    7.3853  -16.4105   16.7629 C   0  0  1  0  0  0  0  0  0  0  0  0
    7.1997  -17.8303   17.2184 C   0  0  0  0  0  0  0  0  0  0  0  0
    8.2942  -18.7652   16.8267 C   0  0  0  0  0  0  0  0  0  0  0  0
    8.1178  -20.1541   17.2489 C   0  0  0  0  0  0  0  0  0  0  0  0
    7.0651  -20.5100   17.8085 O   0  0  0  0  0  0  0  0  0  0  0  0
    8.3661  -15.7994   17.7340 C   0  0  0  0  0  0  0  0  0  0  0  0
    9.5924  -15.8364   17.4685 O   0  0  0  0  0  0  0  0  0  0  0  0
    9.1359  -21.0557   17.0154 O   0  0  0  0  0  0  0  0  0  0  0  0
    7.6576  -12.5240   19.4277 C   0  0  0  0  0  0  0  0  0  0  0  0
    8.2875  -13.3976   20.4776 C   0  0  1  0  0  0  0  0  0  0  0  0
    7.2226  -14.0367   21.1744 O   0  0  0  0  0  0  0  0  0  0  0  0
    8.9999  -14.5480   19.7683 C   0  0  2  0  0  0  0  0  0  0  0  0
    7.9597  -15.1842   18.9359 N   0  0  0  0  0  0  0  0  0  0  0  0
    9.6077  -15.5278   20.6694 C   0  0  0  0  0  0  0  0  0  0  0  0
    8.9049  -16.5617   20.9725 O   0  0  0  0  0  0  0  0  0  0  0  0
   10.8748  -15.4956   21.2575 N   0  0  0  0  0  0  0  0  0  0  0  0
   11.3554  -16.5593   22.1250 C   0  0  0  0  0  0  0  0  0  0  0  0
   12.7490  -16.2436   22.5568 C   0  0  0  0  0  0  0  0  0  0  0  0
   13.3764  -15.2340   22.1666 O   0  0  0  0  0  0  0  0  0  0  0  0
   13.3768  -17.1049   23.4277 O   0  0  0  0  0  0  0  0  0  0  0  0
  2  1  1  6
  3  2  1  0
  4  3  1  0
  5  6  2  0
  5  4  1  0
  7  8  2  0
  7  2  1  0
  9  5  1  0
 11 10  1  6
 11 13  1  0
 12 11  1  0
 13 14  1  1
 13 15  1  0
 14  7  1  0
 15 17  1  0
 16 15  2  0
 17 18  1  0
 19 21  1  0
 19 18  1  0
 20 19  2  0
M  END
$$$$
