ETG.pdb
     RDKit          3D

 21 20  0  0  1  0  0  0  0  0999 V2000
    3.7347  -20.3034   19.2411 N   0  0  0  0  0  0  0  0  0  0  0  0
    3.4242  -19.7153   20.5186 C   0  0  1  0  0  0  0  0  0  0  0  0
    2.8339  -20.7037   21.4843 C   0  0  0  0  0  0  0  0  0  0  0  0
    3.0375  -22.1364   21.1220 C   0  0  0  0  0  0  0  0  0  0  0  0
    2.4176  -23.1082   22.0219 C   0  0  0  0  0  0  0  0  0  0  0  0
    1.3508  -23.6644   21.7046 O   0  0  0  0  0  0  0  0  0  0  0  0
    4.7436  -19.2993   21.1223 C   0  0  0  0  0  0  0  0  0  0  0  0
    5.7140  -20.0942   21.0770 O   0  0  0  0  0  0  0  0  0  0  0  0
    3.0360  -23.3938   23.2219 O   0  0  0  0  0  0  0  0  0  0  0  0
    5.7563  -15.3411   22.2204 C   0  0  0  0  0  0  0  0  0  0  0  0
    6.6521  -16.3990   21.6367 C   0  0  1  0  0  0  0  0  0  0  0  0
    7.9635  -16.1466   22.1310 O   0  0  0  0  0  0  0  0  0  0  0  0
    6.2760  -17.7374   22.2704 C   0  0  2  0  0  0  0  0  0  0  0  0
    4.9334  -18.0458   21.7395 N   0  0  0  0  0  0  0  0  0  0  0  0
    6.2607  -17.7284   23.7336 C   0  0  0  0  0  0  0  0  0  0  0  0
    5.2037  -17.2712   24.3068 O   0  0  0  0  0  0  0  0  0  0  0  0
    7.2570  -18.1591   24.6137 N   0  0  0  0  0  0  0  0  0  0  0  0
    7.1093  -18.0690   26.0577 C   0  0  0  0  0  0  0  0  0  0  0  0
    8.3509  -18.5831   26.7074 C   0  0  0  0  0  0  0  0  0  0  0  0
    9.3392  -19.0015   26.0644 O   0  0  0  0  0  0  0  0  0  0  0  0
    8.4136  -18.5984   28.0823 O   0  0  0  0  0  0  0  0  0  0  0  0
  2  1  1  6
  3  2  1  0
  4  3  1  0
  5  6  2  0
  5  4  1  0
  7  8  2  0
  7  2  1  0
  9  5  1  0
 11 10  1  1
 11 13  1  0
 12 11  1  0
 13 14  1  6
 13 15  1  0
 14  7  1  0
 15 17  1  0
 16 15  2  0
 17 18  1  0
 19 21  1  0
 19 18  1  0
 20 19  2  0
M  END
$$$$
