DGG.pdb
     RDKit          3D

 17 16  0  0  1  0  0  0  0  0999 V2000
    8.6511  -16.5356   20.0341 N   0  0  0  0  0  0  0  0  0  0  0  0
    7.2785  -16.8286   20.3557 C   0  0  1  0  0  0  0  0  0  0  0  0
    7.0919  -18.2673   20.7930 C   0  0  0  0  0  0  0  0  0  0  0  0
    5.8756  -18.8667   20.2268 C   0  0  0  0  0  0  0  0  0  0  0  0
    5.4966  -18.5151   19.0853 O   0  0  0  0  0  0  0  0  0  0  0  0
    6.7772  -15.8820   21.3837 C   0  0  0  0  0  0  0  0  0  0  0  0
    5.6909  -15.2644   21.1854 O   0  0  0  0  0  0  0  0  0  0  0  0
    5.1478  -19.8006   20.9189 O   0  0  0  0  0  0  0  0  0  0  0  0
    7.4604  -15.6326   22.5878 N   0  0  0  0  0  0  0  0  0  0  0  0
    6.9385  -14.7827   23.6401 C   0  0  0  0  0  0  0  0  0  0  0  0
    6.9034  -15.4920   24.9402 C   0  0  0  0  0  0  0  0  0  0  0  0
    6.5195  -14.8581   25.9499 O   0  0  0  0  0  0  0  0  0  0  0  0
    7.2887  -16.8473   25.0574 N   0  0  0  0  0  0  0  0  0  0  0  0
    7.3062  -17.4494   26.3771 C   0  0  0  0  0  0  0  0  0  0  0  0
    8.6845  -17.6488   26.8496 C   0  0  0  0  0  0  0  0  0  0  0  0
    8.9715  -18.6938   27.7058 O   0  0  0  0  0  0  0  0  0  0  0  0
    9.5989  -16.8840   26.4855 O   0  0  0  0  0  0  0  0  0  0  0  0
  2  1  1  1
  2  3  1  0
  3  4  1  0
  4  8  1  0
  4  5  2  0
  6  7  2  0
  6  2  1  0
  9  6  1  0
 10 11  1  0
 10  9  1  0
 11 13  1  0
 12 11  2  0
 13 14  1  0
 14 15  1  0
 15 17  2  0
 15 16  1  0
M  END
$$$$
