DGG.pdb
     RDKit          3D

 17 16  0  0  1  0  0  0  0  0999 V2000
    5.0173  -19.5696   23.5155 N   0  0  0  0  0  0  0  0  0  0  0  0
    5.0656  -18.6117   22.4415 C   0  0  1  0  0  0  0  0  0  0  0  0
    3.6818  -18.2413   21.9478 C   0  0  0  0  0  0  0  0  0  0  0  0
    2.9946  -19.3767   21.3169 C   0  0  0  0  0  0  0  0  0  0  0  0
    3.6357  -20.4297   21.0928 O   0  0  0  0  0  0  0  0  0  0  0  0
    5.8306  -17.4094   22.8579 C   0  0  0  0  0  0  0  0  0  0  0  0
    6.1373  -16.5362   21.9952 O   0  0  0  0  0  0  0  0  0  0  0  0
    1.6699  -19.3090   20.9688 O   0  0  0  0  0  0  0  0  0  0  0  0
    6.2388  -17.1880   24.1858 N   0  0  0  0  0  0  0  0  0  0  0  0
    6.8411  -15.9496   24.6394 C   0  0  0  0  0  0  0  0  0  0  0  0
    8.2640  -16.1424   25.0037 C   0  0  0  0  0  0  0  0  0  0  0  0
    8.5425  -16.3646   26.2045 O   0  0  0  0  0  0  0  0  0  0  0  0
    9.2932  -16.0808   24.0364 N   0  0  0  0  0  0  0  0  0  0  0  0
   10.6612  -16.2980   24.4675 C   0  0  0  0  0  0  0  0  0  0  0  0
   11.6018  -16.1263   23.3501 C   0  0  0  0  0  0  0  0  0  0  0  0
   12.9585  -16.2646   23.5684 O   0  0  0  0  0  0  0  0  0  0  0  0
   11.1880  -15.8567   22.2057 O   0  0  0  0  0  0  0  0  0  0  0  0
  2  1  1  1
  2  3  1  0
  3  4  1  0
  4  8  1  0
  4  5  2  0
  6  7  2  0
  6  2  1  0
  9  6  1  0
 10 11  1  0
 10  9  1  0
 11 13  1  0
 12 11  2  0
 13 14  1  0
 14 15  1  0
 15 17  2  0
 15 16  1  0
M  END
$$$$
