DGG.pdb
     RDKit          3D

 17 16  0  0  1  0  0  0  0  0999 V2000
   -5.9971  -23.4609   30.7889 N   0  0  0  0  0  0  0  0  0  0  0  0
   -6.5116  -23.4055   29.4452 C   0  0  1  0  0  0  0  0  0  0  0  0
   -6.8562  -21.9905   29.0266 C   0  0  0  0  0  0  0  0  0  0  0  0
   -7.8453  -21.3721   29.9202 C   0  0  0  0  0  0  0  0  0  0  0  0
   -9.0452  -21.7237   29.8384 O   0  0  0  0  0  0  0  0  0  0  0  0
   -5.5519  -24.0301   28.5002 C   0  0  0  0  0  0  0  0  0  0  0  0
   -5.8957  -24.2201   27.2976 O   0  0  0  0  0  0  0  0  0  0  0  0
   -7.4845  -20.4206   30.8395 O   0  0  0  0  0  0  0  0  0  0  0  0
   -4.2574  -24.4281   28.8807 N   0  0  0  0  0  0  0  0  0  0  0  0
   -3.3399  -25.1138   27.9919 C   0  0  0  0  0  0  0  0  0  0  0  0
   -3.5027  -26.5838   28.0763 C   0  0  0  0  0  0  0  0  0  0  0  0
   -2.6684  -27.3065   27.4843 O   0  0  0  0  0  0  0  0  0  0  0  0
   -4.5643  -27.1731   28.8006 N   0  0  0  0  0  0  0  0  0  0  0  0
   -4.6337  -28.6203   28.8710 C   0  0  0  0  0  0  0  0  0  0  0  0
   -4.2726  -29.1028   30.2125 C   0  0  0  0  0  0  0  0  0  0  0  0
   -5.2547  -29.2666   31.1697 O   0  0  0  0  0  0  0  0  0  0  0  0
   -3.0879  -29.3665   30.4964 O   0  0  0  0  0  0  0  0  0  0  0  0
  2  1  1  1
  2  3  1  0
  3  4  1  0
  4  8  1  0
  4  5  2  0
  6  7  2  0
  6  2  1  0
  9  6  1  0
 10 11  1  0
 10  9  1  0
 11 13  1  0
 12 11  2  0
 13 14  1  0
 14 15  1  0
 15 17  2  0
 15 16  1  0
M  END
$$$$
