DGG.pdb
     RDKit          3D

 17 16  0  0  1  0  0  0  0  0999 V2000
    8.2168  -17.7085   18.3980 N   0  0  0  0  0  0  0  0  0  0  0  0
    9.1923  -16.8031   17.8485 C   0  0  1  0  0  0  0  0  0  0  0  0
    8.6059  -15.9295   16.7581 C   0  0  0  0  0  0  0  0  0  0  0  0
    8.5020  -16.6375   15.4747 C   0  0  0  0  0  0  0  0  0  0  0  0
    9.1113  -17.7221   15.3252 O   0  0  0  0  0  0  0  0  0  0  0  0
    9.8009  -15.9850   18.9276 C   0  0  0  0  0  0  0  0  0  0  0  0
   10.3156  -14.8643   18.6451 O   0  0  0  0  0  0  0  0  0  0  0  0
    7.7543  -16.1381   14.4391 O   0  0  0  0  0  0  0  0  0  0  0  0
    9.8350  -16.3999   20.2714 N   0  0  0  0  0  0  0  0  0  0  0  0
   10.4225  -15.6099   21.3356 C   0  0  0  0  0  0  0  0  0  0  0  0
   10.3402  -16.3113   22.6379 C   0  0  0  0  0  0  0  0  0  0  0  0
    9.4127  -16.0000   23.4201 O   0  0  0  0  0  0  0  0  0  0  0  0
   11.2738  -17.3073   23.0053 N   0  0  0  0  0  0  0  0  0  0  0  0
   11.0821  -18.0046   24.2628 C   0  0  0  0  0  0  0  0  0  0  0  0
   11.9822  -17.4804   25.3011 C   0  0  0  0  0  0  0  0  0  0  0  0
   11.9473  -18.0168   26.5734 O   0  0  0  0  0  0  0  0  0  0  0  0
   12.7779  -16.5557   25.0458 O   0  0  0  0  0  0  0  0  0  0  0  0
  2  1  1  1
  2  3  1  0
  3  4  1  0
  4  8  1  0
  4  5  2  0
  6  7  2  0
  6  2  1  0
  9  6  1  0
 10 11  1  0
 10  9  1  0
 11 13  1  0
 12 11  2  0
 13 14  1  0
 14 15  1  0
 15 17  2  0
 15 16  1  0
M  END
$$$$
