DGG.pdb
     RDKit          3D

 17 16  0  0  1  0  0  0  0  0999 V2000
   -5.4696  -24.4061   25.3672 N   0  0  0  0  0  0  0  0  0  0  0  0
   -6.5611  -23.6853   24.7653 C   0  0  1  0  0  0  0  0  0  0  0  0
   -7.1227  -24.4087   23.5581 C   0  0  0  0  0  0  0  0  0  0  0  0
   -6.1361  -24.5328   22.4762 C   0  0  0  0  0  0  0  0  0  0  0  0
   -5.0071  -25.0121   22.7321 O   0  0  0  0  0  0  0  0  0  0  0  0
   -7.6174  -23.4148   25.7729 C   0  0  0  0  0  0  0  0  0  0  0  0
   -8.1709  -24.3827   26.3707 O   0  0  0  0  0  0  0  0  0  0  0  0
   -6.4236  -24.1362   21.1952 O   0  0  0  0  0  0  0  0  0  0  0  0
   -8.0414  -22.1145   26.1024 N   0  0  0  0  0  0  0  0  0  0  0  0
   -9.0748  -21.8360   27.0803 C   0  0  0  0  0  0  0  0  0  0  0  0
   -8.5657  -21.9886   28.4630 C   0  0  0  0  0  0  0  0  0  0  0  0
   -9.2932  -21.6039   29.4073 O   0  0  0  0  0  0  0  0  0  0  0  0
   -7.2960  -22.5506   28.7292 N   0  0  0  0  0  0  0  0  0  0  0  0
   -6.9042  -22.7501   30.1116 C   0  0  0  0  0  0  0  0  0  0  0  0
   -6.9575  -24.1738   30.4765 C   0  0  0  0  0  0  0  0  0  0  0  0
   -6.3302  -24.6108   31.6267 O   0  0  0  0  0  0  0  0  0  0  0  0
   -7.5636  -24.9926   29.7583 O   0  0  0  0  0  0  0  0  0  0  0  0
  2  1  1  1
  2  3  1  0
  3  4  1  0
  4  8  1  0
  4  5  2  0
  6  7  2  0
  6  2  1  0
  9  6  1  0
 10 11  1  0
 10  9  1  0
 11 13  1  0
 12 11  2  0
 13 14  1  0
 14 15  1  0
 15 17  2  0
 15 16  1  0
M  END
$$$$
