DGG.pdb
     RDKit          3D

 17 16  0  0  1  0  0  0  0  0999 V2000
    3.2523  -20.6648   21.8181 N   0  0  0  0  0  0  0  0  0  0  0  0
    3.2198  -19.5061   20.9638 C   0  0  1  0  0  0  0  0  0  0  0  0
    1.8446  -18.8714   20.9193 C   0  0  0  0  0  0  0  0  0  0  0  0
    0.8704  -19.7062   20.2027 C   0  0  0  0  0  0  0  0  0  0  0  0
    0.9392  -19.7887   18.9543 O   0  0  0  0  0  0  0  0  0  0  0  0
    4.2535  -18.5270   21.3846 C   0  0  0  0  0  0  0  0  0  0  0  0
    4.2856  -17.3836   20.8440 O   0  0  0  0  0  0  0  0  0  0  0  0
   -0.1103  -20.3953   20.8691 O   0  0  0  0  0  0  0  0  0  0  0  0
    5.2156  -18.8110   22.3708 N   0  0  0  0  0  0  0  0  0  0  0  0
    6.1593  -17.8304   22.8706 C   0  0  0  0  0  0  0  0  0  0  0  0
    6.1123  -17.7394   24.3485 C   0  0  0  0  0  0  0  0  0  0  0  0
    5.2127  -17.0411   24.8700 O   0  0  0  0  0  0  0  0  0  0  0  0
    7.0487  -18.4150   25.1643 N   0  0  0  0  0  0  0  0  0  0  0  0
    7.3196  -17.8876   26.4882 C   0  0  0  0  0  0  0  0  0  0  0  0
    8.6663  -18.2650   26.9429 C   0  0  0  0  0  0  0  0  0  0  0  0
    9.0304  -18.0535   28.2583 O   0  0  0  0  0  0  0  0  0  0  0  0
    9.4850  -18.7746   26.1532 O   0  0  0  0  0  0  0  0  0  0  0  0
  2  1  1  1
  2  3  1  0
  3  4  1  0
  4  8  1  0
  4  5  2  0
  6  7  2  0
  6  2  1  0
  9  6  1  0
 10 11  1  0
 10  9  1  0
 11 13  1  0
 12 11  2  0
 13 14  1  0
 14 15  1  0
 15 17  2  0
 15 16  1  0
M  END
$$$$
