DGG.pdb
     RDKit          3D

 17 16  0  0  1  0  0  0  0  0999 V2000
    7.8181  -17.5639   20.0602 N   0  0  0  0  0  0  0  0  0  0  0  0
    8.5127  -16.4136   19.5428 C   0  0  1  0  0  0  0  0  0  0  0  0
    8.0758  -16.0728   18.1325 C   0  0  0  0  0  0  0  0  0  0  0  0
    8.6394  -16.9960   17.1379 C   0  0  0  0  0  0  0  0  0  0  0  0
    8.2818  -18.1969   17.1486 O   0  0  0  0  0  0  0  0  0  0  0  0
    8.3425  -15.2555   20.4561 C   0  0  0  0  0  0  0  0  0  0  0  0
    9.1780  -14.3061   20.4210 O   0  0  0  0  0  0  0  0  0  0  0  0
    9.5463  -16.5729   16.2002 O   0  0  0  0  0  0  0  0  0  0  0  0
    7.2811  -15.1585   21.3742 N   0  0  0  0  0  0  0  0  0  0  0  0
    7.1058  -14.0366   22.2756 C   0  0  0  0  0  0  0  0  0  0  0  0
    7.7039  -14.3111   23.6028 C   0  0  0  0  0  0  0  0  0  0  0  0
    7.1716  -13.7916   24.6106 O   0  0  0  0  0  0  0  0  0  0  0  0
    8.8442  -15.1343   23.7477 N   0  0  0  0  0  0  0  0  0  0  0  0
    9.2467  -15.5289   25.0843 C   0  0  0  0  0  0  0  0  0  0  0  0
   10.6209  -16.0528   25.0901 C   0  0  0  0  0  0  0  0  0  0  0  0
   11.2091  -16.4219   26.2840 O   0  0  0  0  0  0  0  0  0  0  0  0
   11.2626  -16.1679   24.0278 O   0  0  0  0  0  0  0  0  0  0  0  0
  2  1  1  1
  2  3  1  0
  3  4  1  0
  4  8  1  0
  4  5  2  0
  6  7  2  0
  6  2  1  0
  9  6  1  0
 10 11  1  0
 10  9  1  0
 11 13  1  0
 12 11  2  0
 13 14  1  0
 14 15  1  0
 15 17  2  0
 15 16  1  0
M  END
$$$$
