DGG.pdb
     RDKit          3D

 17 16  0  0  1  0  0  0  0  0999 V2000
   13.4466  -17.0167   21.2224 N   0  0  0  0  0  0  0  0  0  0  0  0
   13.8062  -18.4075   21.1245 C   0  0  1  0  0  0  0  0  0  0  0  0
   15.2803  -18.6335   21.3930 C   0  0  0  0  0  0  0  0  0  0  0  0
   16.1358  -17.8595   20.4829 C   0  0  0  0  0  0  0  0  0  0  0  0
   16.6889  -16.8171   20.9042 O   0  0  0  0  0  0  0  0  0  0  0  0
   12.9604  -19.2231   22.0319 C   0  0  0  0  0  0  0  0  0  0  0  0
   12.7328  -20.4353   21.7499 O   0  0  0  0  0  0  0  0  0  0  0  0
   16.3417  -18.2525   19.1852 O   0  0  0  0  0  0  0  0  0  0  0  0
   12.3893  -18.7078   23.2097 N   0  0  0  0  0  0  0  0  0  0  0  0
   11.5754  -19.4970   24.1134 C   0  0  0  0  0  0  0  0  0  0  0  0
   11.7724  -19.0807   25.5214 C   0  0  0  0  0  0  0  0  0  0  0  0
   12.9256  -18.7555   25.8865 O   0  0  0  0  0  0  0  0  0  0  0  0
   10.7002  -19.0452   26.4423 N   0  0  0  0  0  0  0  0  0  0  0  0
   10.8721  -18.3002   27.6751 C   0  0  0  0  0  0  0  0  0  0  0  0
   11.3428  -19.1741   28.7603 C   0  0  0  0  0  0  0  0  0  0  0  0
   11.6074  -20.5050   28.5031 O   0  0  0  0  0  0  0  0  0  0  0  0
   11.5060  -18.7267   29.9121 O   0  0  0  0  0  0  0  0  0  0  0  0
  2  1  1  1
  2  3  1  0
  3  4  1  0
  4  8  1  0
  4  5  2  0
  6  7  2  0
  6  2  1  0
  9  6  1  0
 10 11  1  0
 10  9  1  0
 11 13  1  0
 12 11  2  0
 13 14  1  0
 14 15  1  0
 15 17  2  0
 15 16  1  0
M  END
$$$$
