DGG.pdb
     RDKit          3D

 17 16  0  0  1  0  0  0  0  0999 V2000
   14.2490  -22.0853   24.9426 N   0  0  0  0  0  0  0  0  0  0  0  0
   14.7421  -20.7456   25.1311 C   0  0  1  0  0  0  0  0  0  0  0  0
   14.3195  -19.8212   24.0073 C   0  0  0  0  0  0  0  0  0  0  0  0
   15.3536  -19.6984   22.9705 C   0  0  0  0  0  0  0  0  0  0  0  0
   16.4327  -20.3200   23.1085 O   0  0  0  0  0  0  0  0  0  0  0  0
   14.3144  -20.2207   26.4524 C   0  0  0  0  0  0  0  0  0  0  0  0
   15.0948  -19.4706   27.1073 O   0  0  0  0  0  0  0  0  0  0  0  0
   15.1636  -18.9200   21.8575 O   0  0  0  0  0  0  0  0  0  0  0  0
   13.0639  -20.5202   27.0229 N   0  0  0  0  0  0  0  0  0  0  0  0
   12.5873  -19.9272   28.2571 C   0  0  0  0  0  0  0  0  0  0  0  0
   13.1613  -20.6082   29.4408 C   0  0  0  0  0  0  0  0  0  0  0  0
   12.6242  -21.6705   29.8306 O   0  0  0  0  0  0  0  0  0  0  0  0
   14.2842  -20.0884   30.1248 N   0  0  0  0  0  0  0  0  0  0  0  0
   14.8902  -20.8918   31.1696 C   0  0  0  0  0  0  0  0  0  0  0  0
   14.0266  -20.9527   32.3585 C   0  0  0  0  0  0  0  0  0  0  0  0
   14.4191  -21.6968   33.4538 O   0  0  0  0  0  0  0  0  0  0  0  0
   12.9421  -20.3391   32.3893 O   0  0  0  0  0  0  0  0  0  0  0  0
  2  1  1  6
  2  3  1  0
  3  4  1  0
  4  8  1  0
  4  5  2  0
  6  7  2  0
  6  2  1  0
  9  6  1  0
 10 11  1  0
 10  9  1  0
 11 13  1  0
 12 11  2  0
 13 14  1  0
 14 15  1  0
 15 17  2  0
 15 16  1  0
M  END
$$$$
