DGG.pdb
     RDKit          3D

 17 16  0  0  1  0  0  0  0  0999 V2000
    7.5620  -19.0570   21.4166 N   0  0  0  0  0  0  0  0  0  0  0  0
    8.7501  -18.4281   21.9325 C   0  0  1  0  0  0  0  0  0  0  0  0
    9.4435  -17.5790   20.8864 C   0  0  0  0  0  0  0  0  0  0  0  0
   10.0402  -18.3918   19.8174 C   0  0  0  0  0  0  0  0  0  0  0  0
   10.0103  -19.6409   19.9119 O   0  0  0  0  0  0  0  0  0  0  0  0
    8.4277  -17.6349   23.1454 C   0  0  0  0  0  0  0  0  0  0  0  0
    9.3603  -17.0682   23.7855 O   0  0  0  0  0  0  0  0  0  0  0  0
   10.6277  -17.8143   18.7211 O   0  0  0  0  0  0  0  0  0  0  0  0
    7.1153  -17.4788   23.6272 N   0  0  0  0  0  0  0  0  0  0  0  0
    6.7975  -16.8131   24.8754 C   0  0  0  0  0  0  0  0  0  0  0  0
    6.9445  -17.7301   26.0296 C   0  0  0  0  0  0  0  0  0  0  0  0
    5.9768  -18.4679   26.3263 O   0  0  0  0  0  0  0  0  0  0  0  0
    8.1369  -17.7848   26.7873 N   0  0  0  0  0  0  0  0  0  0  0  0
    8.1904  -18.6788   27.9285 C   0  0  0  0  0  0  0  0  0  0  0  0
    9.4849  -18.5785   28.6191 C   0  0  0  0  0  0  0  0  0  0  0  0
    9.7283  -19.3539   29.7358 O   0  0  0  0  0  0  0  0  0  0  0  0
   10.3671  -17.8001   28.2076 O   0  0  0  0  0  0  0  0  0  0  0  0
  2  1  1  6
  2  3  1  0
  3  4  1  0
  4  8  1  0
  4  5  2  0
  6  7  2  0
  6  2  1  0
  9  6  1  0
 10 11  1  0
 10  9  1  0
 11 13  1  0
 12 11  2  0
 13 14  1  0
 14 15  1  0
 15 17  2  0
 15 16  1  0
M  END
$$$$
