DGG.pdb
     RDKit          3D

 17 16  0  0  1  0  0  0  0  0999 V2000
   -3.4856  -26.1593   27.9602 N   0  0  0  0  0  0  0  0  0  0  0  0
   -2.4624  -25.3068   27.4128 C   0  0  1  0  0  0  0  0  0  0  0  0
   -2.0758  -25.7146   26.0056 C   0  0  0  0  0  0  0  0  0  0  0  0
   -1.5161  -27.0724   25.9547 C   0  0  0  0  0  0  0  0  0  0  0  0
   -0.7478  -27.4503   26.8696 O   0  0  0  0  0  0  0  0  0  0  0  0
   -2.8929  -23.8869   27.4649 C   0  0  0  0  0  0  0  0  0  0  0  0
   -2.1301  -22.9872   27.0074 O   0  0  0  0  0  0  0  0  0  0  0  0
   -1.8157  -27.9331   24.9299 O   0  0  0  0  0  0  0  0  0  0  0  0
   -4.1272  -23.4842   28.0065 N   0  0  0  0  0  0  0  0  0  0  0  0
   -4.5603  -22.1018   28.0639 C   0  0  0  0  0  0  0  0  0  0  0  0
   -5.9288  -21.9868   28.6193 C   0  0  0  0  0  0  0  0  0  0  0  0
   -6.3876  -20.8405   28.8300 O   0  0  0  0  0  0  0  0  0  0  0  0
   -6.7107  -23.1283   28.9101 N   0  0  0  0  0  0  0  0  0  0  0  0
   -8.0583  -22.9342   29.4104 C   0  0  0  0  0  0  0  0  0  0  0  0
   -8.0821  -22.9344   30.8809 C   0  0  0  0  0  0  0  0  0  0  0  0
   -9.2917  -22.9141   31.5472 O   0  0  0  0  0  0  0  0  0  0  0  0
   -7.0209  -22.9528   31.5345 O   0  0  0  0  0  0  0  0  0  0  0  0
  2  1  1  6
  2  3  1  0
  3  4  1  0
  4  8  1  0
  4  5  2  0
  6  7  2  0
  6  2  1  0
  9  6  1  0
 10 11  1  0
 10  9  1  0
 11 13  1  0
 12 11  2  0
 13 14  1  0
 14 15  1  0
 15 17  2  0
 15 16  1  0
M  END
$$$$
