DGG.pdb
     RDKit          3D

 17 16  0  0  1  0  0  0  0  0999 V2000
    9.7786  -12.5248   18.7288 N   0  0  0  0  0  0  0  0  0  0  0  0
    8.4131  -12.9625   18.8598 C   0  0  1  0  0  0  0  0  0  0  0  0
    7.9017  -13.6160   17.5920 C   0  0  0  0  0  0  0  0  0  0  0  0
    8.8051  -14.6681   17.1059 C   0  0  0  0  0  0  0  0  0  0  0  0
    9.8520  -14.9177   17.7476 O   0  0  0  0  0  0  0  0  0  0  0  0
    8.2722  -13.8669   20.0287 C   0  0  0  0  0  0  0  0  0  0  0  0
    7.1170  -14.1857   20.4343 O   0  0  0  0  0  0  0  0  0  0  0  0
    8.5281  -15.3810   15.9676 O   0  0  0  0  0  0  0  0  0  0  0  0
    9.3769  -14.3966   20.7200 N   0  0  0  0  0  0  0  0  0  0  0  0
    9.2542  -15.2761   21.8659 C   0  0  0  0  0  0  0  0  0  0  0  0
   10.5827  -15.6832   22.3796 C   0  0  0  0  0  0  0  0  0  0  0  0
   10.6536  -16.1327   23.5466 O   0  0  0  0  0  0  0  0  0  0  0  0
   11.7498  -15.5746   21.5890 N   0  0  0  0  0  0  0  0  0  0  0  0
   13.0383  -15.7576   22.2297 C   0  0  0  0  0  0  0  0  0  0  0  0
   14.0873  -14.9952   21.5359 C   0  0  0  0  0  0  0  0  0  0  0  0
   13.7421  -14.1076   20.5356 O   0  0  0  0  0  0  0  0  0  0  0  0
   15.2870  -15.1411   21.8408 O   0  0  0  0  0  0  0  0  0  0  0  0
  2  1  1  6
  2  3  1  0
  3  4  1  0
  4  8  1  0
  4  5  2  0
  6  7  2  0
  6  2  1  0
  9  6  1  0
 10 11  1  0
 10  9  1  0
 11 13  1  0
 12 11  2  0
 13 14  1  0
 14 15  1  0
 15 17  2  0
 15 16  1  0
M  END
$$$$
