DGG.pdb
     RDKit          3D

 17 16  0  0  1  0  0  0  0  0999 V2000
    8.5109  -15.6437   19.5766 N   0  0  0  0  0  0  0  0  0  0  0  0
    7.7489  -16.5049   20.4432 C   0  0  1  0  0  0  0  0  0  0  0  0
    8.5533  -17.7038   20.9030 C   0  0  0  0  0  0  0  0  0  0  0  0
    9.3439  -18.2933   19.8137 C   0  0  0  0  0  0  0  0  0  0  0  0
    8.7511  -18.7641   18.8152 O   0  0  0  0  0  0  0  0  0  0  0  0
    7.2183  -15.7355   21.5967 C   0  0  0  0  0  0  0  0  0  0  0  0
    6.4134  -16.2912   22.3992 O   0  0  0  0  0  0  0  0  0  0  0  0
   10.7136  -18.3393   19.8659 O   0  0  0  0  0  0  0  0  0  0  0  0
    7.5711  -14.3969   21.8471 N   0  0  0  0  0  0  0  0  0  0  0  0
    7.0264  -13.6198   22.9431 C   0  0  0  0  0  0  0  0  0  0  0  0
    7.7725  -13.8611   24.1999 C   0  0  0  0  0  0  0  0  0  0  0  0
    7.4968  -13.1547   25.1968 O   0  0  0  0  0  0  0  0  0  0  0  0
    8.7719  -14.8571   24.2908 N   0  0  0  0  0  0  0  0  0  0  0  0
    9.3627  -15.1274   25.5877 C   0  0  0  0  0  0  0  0  0  0  0  0
    9.1736  -16.5342   25.9726 C   0  0  0  0  0  0  0  0  0  0  0  0
    9.7470  -17.0100   27.1355 O   0  0  0  0  0  0  0  0  0  0  0  0
    8.5004  -17.3039   25.2600 O   0  0  0  0  0  0  0  0  0  0  0  0
  2  1  1  1
  2  3  1  0
  3  4  1  0
  4  8  1  0
  4  5  2  0
  6  7  2  0
  6  2  1  0
  9  6  1  0
 10 11  1  0
 10  9  1  0
 11 13  1  0
 12 11  2  0
 13 14  1  0
 14 15  1  0
 15 17  2  0
 15 16  1  0
M  END
$$$$
