DGG.pdb
     RDKit          3D

 17 16  0  0  1  0  0  0  0  0999 V2000
   12.0792  -16.1408   21.1996 N   0  0  0  0  0  0  0  0  0  0  0  0
   10.9616  -16.2851   22.0958 C   0  0  1  0  0  0  0  0  0  0  0  0
   10.1422  -17.5220   21.7879 C   0  0  0  0  0  0  0  0  0  0  0  0
   10.3893  -18.0283   20.4307 C   0  0  0  0  0  0  0  0  0  0  0  0
   11.4981  -17.8085   19.8901 O   0  0  0  0  0  0  0  0  0  0  0  0
   11.4282  -16.2832   23.5052 C   0  0  0  0  0  0  0  0  0  0  0  0
   10.6076  -16.5384   24.4338 O   0  0  0  0  0  0  0  0  0  0  0  0
    9.4349  -18.7347   19.7445 O   0  0  0  0  0  0  0  0  0  0  0  0
   12.7594  -16.0071   23.8669 N   0  0  0  0  0  0  0  0  0  0  0  0
   13.4350  -16.6520   24.9758 C   0  0  0  0  0  0  0  0  0  0  0  0
   14.8489  -16.2204   25.0719 C   0  0  0  0  0  0  0  0  0  0  0  0
   15.6437  -16.9378   25.7218 O   0  0  0  0  0  0  0  0  0  0  0  0
   15.3071  -15.0344   24.4535 N   0  0  0  0  0  0  0  0  0  0  0  0
   16.0524  -15.1445   23.2139 C   0  0  0  0  0  0  0  0  0  0  0  0
   17.3355  -15.8309   23.4270 C   0  0  0  0  0  0  0  0  0  0  0  0
   17.6758  -16.9100   22.6350 O   0  0  0  0  0  0  0  0  0  0  0  0
   18.1213  -15.4494   24.3161 O   0  0  0  0  0  0  0  0  0  0  0  0
  2  1  1  6
  2  3  1  0
  3  4  1  0
  4  8  1  0
  4  5  2  0
  6  7  2  0
  6  2  1  0
  9  6  1  0
 10 11  1  0
 10  9  1  0
 11 13  1  0
 12 11  2  0
 13 14  1  0
 14 15  1  0
 15 17  2  0
 15 16  1  0
M  END
$$$$
