DGG.pdb
     RDKit          3D

 17 16  0  0  1  0  0  0  0  0999 V2000
    6.3923  -17.6013   20.0439 N   0  0  0  0  0  0  0  0  0  0  0  0
    5.8287  -18.8472   20.4948 C   0  0  1  0  0  0  0  0  0  0  0  0
    5.9653  -19.9418   19.4559 C   0  0  0  0  0  0  0  0  0  0  0  0
    5.4705  -19.5214   18.1377 C   0  0  0  0  0  0  0  0  0  0  0  0
    4.4537  -18.7922   18.0718 O   0  0  0  0  0  0  0  0  0  0  0  0
    6.4377  -19.2500   21.7875 C   0  0  0  0  0  0  0  0  0  0  0  0
    5.8905  -20.1577   22.4783 O   0  0  0  0  0  0  0  0  0  0  0  0
    6.0961  -19.9089   16.9804 O   0  0  0  0  0  0  0  0  0  0  0  0
    7.6127  -18.6635   22.2919 N   0  0  0  0  0  0  0  0  0  0  0  0
    8.3072  -19.1518   23.4671 C   0  0  0  0  0  0  0  0  0  0  0  0
    7.8610  -18.4460   24.6907 C   0  0  0  0  0  0  0  0  0  0  0  0
    7.6323  -17.2169   24.6148 O   0  0  0  0  0  0  0  0  0  0  0  0
    7.6922  -19.1245   25.9196 N   0  0  0  0  0  0  0  0  0  0  0  0
    7.6083  -18.3398   27.1368 C   0  0  0  0  0  0  0  0  0  0  0  0
    8.7261  -18.6464   28.0421 C   0  0  0  0  0  0  0  0  0  0  0  0
    9.7513  -19.4662   27.6127 O   0  0  0  0  0  0  0  0  0  0  0  0
    8.7591  -18.1739   29.1950 O   0  0  0  0  0  0  0  0  0  0  0  0
  2  1  1  6
  2  3  1  0
  3  4  1  0
  4  8  1  0
  4  5  2  0
  6  7  2  0
  6  2  1  0
  9  6  1  0
 10 11  1  0
 10  9  1  0
 11 13  1  0
 12 11  2  0
 13 14  1  0
 14 15  1  0
 15 17  2  0
 15 16  1  0
M  END
$$$$
