DGG.pdb
     RDKit          3D

 17 16  0  0  1  0  0  0  0  0999 V2000
   10.1777  -17.9484   21.5588 N   0  0  0  0  0  0  0  0  0  0  0  0
    9.4938  -16.9356   20.7975 C   0  0  1  0  0  0  0  0  0  0  0  0
    8.9361  -17.4809   19.4984 C   0  0  0  0  0  0  0  0  0  0  0  0
    9.9774  -18.0891   18.6587 C   0  0  0  0  0  0  0  0  0  0  0  0
   10.5926  -19.0950   19.0826 O   0  0  0  0  0  0  0  0  0  0  0  0
    8.4307  -16.3039   21.6190 C   0  0  0  0  0  0  0  0  0  0  0  0
    7.5482  -17.0301   22.1617 O   0  0  0  0  0  0  0  0  0  0  0  0
   10.2898  -17.5809   17.4238 O   0  0  0  0  0  0  0  0  0  0  0  0
    8.3534  -14.9149   21.8282 N   0  0  0  0  0  0  0  0  0  0  0  0
    7.3185  -14.2842   22.6239 C   0  0  0  0  0  0  0  0  0  0  0  0
    7.6989  -14.2224   24.0543 C   0  0  0  0  0  0  0  0  0  0  0  0
    6.9716  -13.5628   24.8321 O   0  0  0  0  0  0  0  0  0  0  0  0
    8.8478  -14.8832   24.5465 N   0  0  0  0  0  0  0  0  0  0  0  0
    9.0970  -14.8649   25.9754 C   0  0  0  0  0  0  0  0  0  0  0  0
    9.7482  -16.1081   26.4150 C   0  0  0  0  0  0  0  0  0  0  0  0
   10.0994  -16.2664   27.7413 O   0  0  0  0  0  0  0  0  0  0  0  0
    9.9876  -17.0227   25.6027 O   0  0  0  0  0  0  0  0  0  0  0  0
  2  1  1  1
  2  3  1  0
  3  4  1  0
  4  8  1  0
  4  5  2  0
  6  7  2  0
  6  2  1  0
  9  6  1  0
 10 11  1  0
 10  9  1  0
 11 13  1  0
 12 11  2  0
 13 14  1  0
 14 15  1  0
 15 17  2  0
 15 16  1  0
M  END
$$$$
