LQY.pdb
     RDKit          3D

 30 30  0  0  1  0  0  0  0  0999 V2000
    8.6417  -12.9225   19.1184 C   0  0  0  0  0  0  0  0  0  0  0  0
    7.4443  -13.1865   19.9800 C   0  0  2  0  0  0  0  0  0  0  0  0
    6.8912  -11.8801   20.5128 C   0  0  0  0  0  0  0  0  0  0  0  0
    7.7403  -14.1045   21.1400 C   0  0  0  0  0  0  0  0  0  0  0  0
    8.3140  -15.4104   20.6584 C   0  0  2  0  0  0  0  0  0  0  0  0
    7.2873  -16.1686   19.9778 N   0  0  0  0  0  0  0  0  0  0  0  0
    8.8937  -16.2231   21.7198 C   0  0  0  0  0  0  0  0  0  0  0  0
    8.1300  -16.9391   22.4220 O   0  0  0  0  0  0  0  0  0  0  0  0
   14.1806  -19.1531   21.7953 N   0  0  0  0  0  0  0  0  0  0  0  0
   13.7460  -19.4218   23.1338 C   0  0  0  0  0  0  0  0  0  0  0  0
   14.2747  -20.3434   23.7999 O   0  0  0  0  0  0  0  0  0  0  0  0
   12.6669  -18.6218   23.7605 C   0  0  0  0  0  0  0  0  0  0  0  0
   12.2060  -17.5699   22.8124 C   0  0  0  0  0  0  0  0  0  0  0  0
   10.7621  -17.1626   23.0430 C   0  0  2  0  0  0  0  0  0  0  0  0
   10.2776  -16.2743   22.0331 N   0  0  0  0  0  0  0  0  0  0  0  0
   10.5802  -16.6058   24.4179 C   0  0  0  0  0  0  0  0  0  0  0  0
   11.0448  -15.4794   24.7539 O   0  0  0  0  0  0  0  0  0  0  0  0
    6.6438  -11.3475   25.7380 O   0  0  0  0  0  0  0  0  0  0  0  0
    7.0574  -12.6317   26.0880 C   0  0  0  0  0  0  0  0  0  0  0  0
    6.4230  -13.7522   25.5733 C   0  0  0  0  0  0  0  0  0  0  0  0
    6.8263  -15.0328   25.9148 C   0  0  0  0  0  0  0  0  0  0  0  0
    7.8744  -15.1952   26.7795 C   0  0  0  0  0  0  0  0  0  0  0  0
    8.3800  -16.5065   27.2030 C   0  0  0  0  0  0  0  0  0  0  0  0
    9.7984  -16.7941   26.7865 C   0  0  2  0  0  0  0  0  0  0  0  0
    9.8742  -17.3076   25.4316 N   0  0  0  0  0  0  0  0  0  0  0  0
   10.3681  -17.8272   27.6862 C   0  0  0  0  0  0  0  0  0  0  0  0
   10.8656  -19.0382   27.2618 O   0  0  0  0  0  0  0  0  0  0  0  0
    8.5056  -14.0692   27.2916 C   0  0  0  0  0  0  0  0  0  0  0  0
    8.1095  -12.7937   26.9561 C   0  0  0  0  0  0  0  0  0  0  0  0
   10.3955  -17.5739   28.9178 O   0  0  0  0  0  0  0  0  0  0  0  0
  2  1  1  1
  2  3  1  0
  4  2  1  0
  5  6  1  1
  5  4  1  0
  7  8  2  0
  7  5  1  0
  9 10  1  0
 10 12  1  0
 11 10  2  0
 12 13  1  0
 14 15  1  0
 14 13  1  6
 15  7  1  0
 16 14  1  0
 17 16  2  0
 19 29  2  0
 19 18  1  0
 20 19  1  0
 21 22  1  0
 21 20  2  0
 22 28  2  0
 24 23  1  1
 23 22  1  0
 24 25  1  0
 25 16  1  0
 26 27  1  0
 26 24  1  0
 28 29  1  0
 30 26  2  0
M  END
$$$$
