LQY.pdb
     RDKit          3D

 30 30  0  0  1  0  0  0  0  0999 V2000
    9.0115  -12.4653   19.6198 C   0  0  0  0  0  0  0  0  0  0  0  0
    7.8089  -13.3046   19.9277 C   0  0  2  0  0  0  0  0  0  0  0  0
    6.5548  -12.4562   19.8640 C   0  0  0  0  0  0  0  0  0  0  0  0
    7.8827  -13.9721   21.2787 C   0  0  0  0  0  0  0  0  0  0  0  0
    9.1606  -14.7551   21.4216 C   0  0  2  0  0  0  0  0  0  0  0  0
    9.3613  -15.5729   20.2456 N   0  0  0  0  0  0  0  0  0  0  0  0
    9.2027  -15.5966   22.6103 C   0  0  0  0  0  0  0  0  0  0  0  0
    8.5219  -15.2605   23.6165 O   0  0  0  0  0  0  0  0  0  0  0  0
   10.4120  -21.4466   23.2059 N   0  0  0  0  0  0  0  0  0  0  0  0
   10.4490  -21.1067   24.5973 C   0  0  0  0  0  0  0  0  0  0  0  0
   10.3556  -22.0006   25.4718 O   0  0  0  0  0  0  0  0  0  0  0  0
   10.5978  -19.6982   25.0347 C   0  0  0  0  0  0  0  0  0  0  0  0
   10.7655  -18.8179   23.8454 C   0  0  0  0  0  0  0  0  0  0  0  0
    9.9731  -17.5276   23.9527 C   0  0  2  0  0  0  0  0  0  0  0  0
    9.9645  -16.7890   22.7288 N   0  0  0  0  0  0  0  0  0  0  0  0
   10.4518  -16.7045   25.1045 C   0  0  0  0  0  0  0  0  0  0  0  0
   11.4189  -15.8977   24.9983 O   0  0  0  0  0  0  0  0  0  0  0  0
    5.8819  -11.9852   24.9821 O   0  0  0  0  0  0  0  0  0  0  0  0
    6.7033  -12.7828   25.7771 C   0  0  0  0  0  0  0  0  0  0  0  0
    7.9165  -12.3086   26.2528 C   0  0  0  0  0  0  0  0  0  0  0  0
    8.7402  -13.0931   27.0436 C   0  0  0  0  0  0  0  0  0  0  0  0
    8.3472  -14.3645   27.3623 C   0  0  0  0  0  0  0  0  0  0  0  0
    9.1442  -15.2747   28.1936 C   0  0  0  0  0  0  0  0  0  0  0  0
   10.2965  -15.9283   27.4774 C   0  0  2  0  0  0  0  0  0  0  0  0
    9.8497  -16.7778   26.3894 N   0  0  0  0  0  0  0  0  0  0  0  0
   11.0392  -16.7850   28.4344 C   0  0  0  0  0  0  0  0  0  0  0  0
   11.6785  -16.3186   29.5604 O   0  0  0  0  0  0  0  0  0  0  0  0
    7.1312  -14.8337   26.8829 C   0  0  0  0  0  0  0  0  0  0  0  0
    6.3081  -14.0589   26.0965 C   0  0  0  0  0  0  0  0  0  0  0  0
   11.0842  -18.0190   28.1954 O   0  0  0  0  0  0  0  0  0  0  0  0
  2  1  1  1
  2  3  1  0
  4  2  1  0
  5  6  1  6
  5  4  1  0
  7  8  2  0
  7  5  1  0
  9 10  1  0
 10 12  1  0
 11 10  2  0
 12 13  1  0
 14 15  1  0
 14 13  1  6
 15  7  1  0
 16 14  1  0
 17 16  2  0
 19 29  2  0
 19 18  1  0
 20 19  1  0
 21 22  1  0
 21 20  2  0
 22 28  2  0
 24 23  1  1
 23 22  1  0
 24 25  1  0
 25 16  1  0
 26 27  1  0
 26 24  1  0
 28 29  1  0
 30 26  2  0
M  END
$$$$
