LQY.pdb
     RDKit          3D

 30 30  0  0  1  0  0  0  0  0999 V2000
   16.1862  -18.8789   17.2648 C   0  0  0  0  0  0  0  0  0  0  0  0
   15.8023  -17.4833   16.8765 C   0  0  2  0  0  0  0  0  0  0  0  0
   17.0283  -16.7153   16.4248 C   0  0  0  0  0  0  0  0  0  0  0  0
   15.1289  -16.7224   17.9916 C   0  0  0  0  0  0  0  0  0  0  0  0
   13.9585  -17.4953   18.5386 C   0  0  2  0  0  0  0  0  0  0  0  0
   12.8910  -17.5124   17.5626 N   0  0  0  0  0  0  0  0  0  0  0  0
   13.4520  -16.9761   19.8022 C   0  0  0  0  0  0  0  0  0  0  0  0
   13.4544  -15.7298   19.9911 O   0  0  0  0  0  0  0  0  0  0  0  0
    9.5228  -19.2460   23.8802 N   0  0  0  0  0  0  0  0  0  0  0  0
    9.7904  -19.6745   22.5394 C   0  0  0  0  0  0  0  0  0  0  0  0
    9.3493  -20.7725   22.1240 O   0  0  0  0  0  0  0  0  0  0  0  0
   10.5904  -18.8355   21.6158 C   0  0  0  0  0  0  0  0  0  0  0  0
   10.9694  -17.5643   22.2926 C   0  0  0  0  0  0  0  0  0  0  0  0
   12.4139  -17.1719   22.0401 C   0  0  2  0  0  0  0  0  0  0  0  0
   12.9455  -17.7774   20.8594 N   0  0  0  0  0  0  0  0  0  0  0  0
   13.2571  -17.4464   23.2431 C   0  0  0  0  0  0  0  0  0  0  0  0
   13.5113  -18.6219   23.6317 O   0  0  0  0  0  0  0  0  0  0  0  0
    9.6229  -15.0548   30.4648 O   0  0  0  0  0  0  0  0  0  0  0  0
   10.1868  -15.1852   29.1968 C   0  0  0  0  0  0  0  0  0  0  0  0
   10.6534  -14.0778   28.5046 C   0  0  0  0  0  0  0  0  0  0  0  0
   11.2155  -14.1966   27.2439 C   0  0  0  0  0  0  0  0  0  0  0  0
   11.3123  -15.4347   26.6693 C   0  0  0  0  0  0  0  0  0  0  0  0
   11.8919  -15.6687   25.3411 C   0  0  0  0  0  0  0  0  0  0  0  0
   13.3317  -16.1099   25.3562 C   0  0  2  0  0  0  0  0  0  0  0  0
   13.8248  -16.4039   24.0237 N   0  0  0  0  0  0  0  0  0  0  0  0
   13.4500  -17.3524   26.1583 C   0  0  0  0  0  0  0  0  0  0  0  0
   13.0386  -18.5946   25.7318 O   0  0  0  0  0  0  0  0  0  0  0  0
   10.8433  -16.5397   27.3675 C   0  0  0  0  0  0  0  0  0  0  0  0
   10.2836  -16.4284   28.6208 C   0  0  0  0  0  0  0  0  0  0  0  0
   13.9610  -17.2581   27.3036 O   0  0  0  0  0  0  0  0  0  0  0  0
  2  1  1  1
  2  3  1  0
  4  2  1  0
  5  6  1  6
  5  4  1  0
  7  8  2  0
  7  5  1  0
  9 10  1  0
 10 12  1  0
 11 10  2  0
 12 13  1  0
 14 15  1  0
 14 13  1  1
 15  7  1  0
 16 14  1  0
 17 16  2  0
 19 29  2  0
 19 18  1  0
 20 19  1  0
 21 22  1  0
 21 20  2  0
 22 28  2  0
 24 23  1  6
 23 22  1  0
 24 25  1  0
 25 16  1  0
 26 27  1  0
 26 24  1  0
 28 29  1  0
 30 26  2  0
M  END
$$$$
