LQY.pdb
     RDKit          3D

 30 30  0  0  1  0  0  0  0  0999 V2000
    8.4547  -13.0676   17.7295 C   0  0  0  0  0  0  0  0  0  0  0  0
    7.4986  -13.3686   18.8435 C   0  0  2  0  0  0  0  0  0  0  0  0
    7.0710  -12.0823   19.5211 C   0  0  0  0  0  0  0  0  0  0  0  0
    8.0721  -14.3030   19.8798 C   0  0  0  0  0  0  0  0  0  0  0  0
    8.4822  -15.6103   19.2558 C   0  0  2  0  0  0  0  0  0  0  0  0
    7.3095  -16.3032   18.7691 N   0  0  0  0  0  0  0  0  0  0  0  0
    9.2222  -16.4836   20.1572 C   0  0  0  0  0  0  0  0  0  0  0  0
    8.5938  -17.0925   21.0645 O   0  0  0  0  0  0  0  0  0  0  0  0
   12.4959  -20.8330   21.4102 N   0  0  0  0  0  0  0  0  0  0  0  0
   11.9495  -20.3674   20.1703 C   0  0  0  0  0  0  0  0  0  0  0  0
   11.0544  -21.0226   19.5854 O   0  0  0  0  0  0  0  0  0  0  0  0
   12.4257  -19.1072   19.5522 C   0  0  0  0  0  0  0  0  0  0  0  0
   12.5983  -18.0662   20.6030 C   0  0  0  0  0  0  0  0  0  0  0  0
   11.2777  -17.4980   21.0901 C   0  0  2  0  0  0  0  0  0  0  0  0
   10.6228  -16.7085   20.0945 N   0  0  0  0  0  0  0  0  0  0  0  0
   11.4610  -16.7508   22.3713 C   0  0  0  0  0  0  0  0  0  0  0  0
   12.0722  -15.6457   22.4235 O   0  0  0  0  0  0  0  0  0  0  0  0
   10.8443  -14.5105   30.9223 O   0  0  0  0  0  0  0  0  0  0  0  0
   10.6227  -14.9533   29.6194 C   0  0  0  0  0  0  0  0  0  0  0  0
   10.3622  -14.0567   28.5941 C   0  0  0  0  0  0  0  0  0  0  0  0
   10.1405  -14.4865   27.2959 C   0  0  0  0  0  0  0  0  0  0  0  0
   10.1795  -15.8261   27.0196 C   0  0  0  0  0  0  0  0  0  0  0  0
    9.9605  -16.3839   25.6796 C   0  0  0  0  0  0  0  0  0  0  0  0
   11.2092  -16.5265   24.8499 C   0  0  2  0  0  0  0  0  0  0  0  0
   10.9601  -17.2361   23.6091 N   0  0  0  0  0  0  0  0  0  0  0  0
   12.2131  -17.3068   25.6145 C   0  0  0  0  0  0  0  0  0  0  0  0
   12.1431  -18.6645   25.8286 O   0  0  0  0  0  0  0  0  0  0  0  0
   10.4408  -16.7190   28.0506 C   0  0  0  0  0  0  0  0  0  0  0  0
   10.6620  -16.2982   29.3430 C   0  0  0  0  0  0  0  0  0  0  0  0
   13.1912  -16.6803   26.0969 O   0  0  0  0  0  0  0  0  0  0  0  0
  2  1  1  6
  2  3  1  0
  4  2  1  0
  5  6  1  1
  5  4  1  0
  7  8  2  0
  7  5  1  0
  9 10  1  0
 10 12  1  0
 11 10  2  0
 12 13  1  0
 14 15  1  0
 14 13  1  6
 15  7  1  0
 16 14  1  0
 17 16  2  0
 19 29  2  0
 19 18  1  0
 20 19  1  0
 21 22  1  0
 21 20  2  0
 22 28  2  0
 24 23  1  1
 23 22  1  0
 24 25  1  0
 25 16  1  0
 26 27  1  0
 26 24  1  0
 28 29  1  0
 30 26  2  0
M  END
$$$$
