LQY.pdb
     RDKit          3D

 30 30  0  0  1  0  0  0  0  0999 V2000
    8.4502  -11.9493   18.8390 C   0  0  0  0  0  0  0  0  0  0  0  0
    7.5388  -13.0828   18.4783 C   0  0  2  0  0  0  0  0  0  0  0  0
    6.0939  -12.6351   18.5695 C   0  0  0  0  0  0  0  0  0  0  0  0
    7.7326  -14.2989   19.3499 C   0  0  0  0  0  0  0  0  0  0  0  0
    9.1889  -14.6704   19.4372 C   0  0  2  0  0  0  0  0  0  0  0  0
    9.6791  -15.0197   18.1219 N   0  0  0  0  0  0  0  0  0  0  0  0
    9.4609  -15.7629   20.3620 C   0  0  0  0  0  0  0  0  0  0  0  0
    8.8559  -15.7873   21.4675 O   0  0  0  0  0  0  0  0  0  0  0  0
   13.2600  -20.5882   19.3073 N   0  0  0  0  0  0  0  0  0  0  0  0
   11.9208  -20.5479   18.7996 C   0  0  0  0  0  0  0  0  0  0  0  0
   11.6059  -21.2160   17.7861 O   0  0  0  0  0  0  0  0  0  0  0  0
   10.8807  -19.7204   19.4559 C   0  0  0  0  0  0  0  0  0  0  0  0
   11.4839  -18.9559   20.5825 C   0  0  0  0  0  0  0  0  0  0  0  0
   10.5811  -17.8461   21.0898 C   0  0  2  0  0  0  0  0  0  0  0  0
   10.3712  -16.8238   20.1129 N   0  0  0  0  0  0  0  0  0  0  0  0
   11.0913  -17.2950   22.3819 C   0  0  0  0  0  0  0  0  0  0  0  0
   12.1283  -16.5750   22.4428 O   0  0  0  0  0  0  0  0  0  0  0  0
   10.8252  -14.1415   30.6753 O   0  0  0  0  0  0  0  0  0  0  0  0
   10.5797  -14.6423   29.3980 C   0  0  0  0  0  0  0  0  0  0  0  0
   10.8581  -15.9637   29.0824 C   0  0  0  0  0  0  0  0  0  0  0  0
   10.6178  -16.4712   27.8160 C   0  0  0  0  0  0  0  0  0  0  0  0
   10.0938  -15.6499   26.8551 C   0  0  0  0  0  0  0  0  0  0  0  0
    9.8008  -16.0889   25.4854 C   0  0  0  0  0  0  0  0  0  0  0  0
   10.8898  -16.9086   24.8450 C   0  0  2  0  0  0  0  0  0  0  0  0
   10.4426  -17.5460   23.6208 N   0  0  0  0  0  0  0  0  0  0  0  0
   11.3020  -17.9834   25.7811 C   0  0  0  0  0  0  0  0  0  0  0  0
   11.0792  -19.3250   25.5703 O   0  0  0  0  0  0  0  0  0  0  0  0
    9.8172  -14.3277   27.1772 C   0  0  0  0  0  0  0  0  0  0  0  0
   10.0537  -13.8171   28.4341 C   0  0  0  0  0  0  0  0  0  0  0  0
   11.8941  -17.6394   26.8361 O   0  0  0  0  0  0  0  0  0  0  0  0
  2  1  1  1
  2  3  1  0
  4  2  1  0
  5  6  1  6
  5  4  1  0
  7  8  2  0
  7  5  1  0
  9 10  1  0
 10 12  1  0
 11 10  2  0
 12 13  1  0
 14 15  1  0
 14 13  1  6
 15  7  1  0
 16 14  1  0
 17 16  2  0
 19 29  2  0
 19 18  1  0
 20 19  1  0
 21 22  1  0
 21 20  2  0
 22 28  2  0
 24 23  1  1
 23 22  1  0
 24 25  1  0
 25 16  1  0
 26 27  1  0
 26 24  1  0
 28 29  1  0
 30 26  2  0
M  END
$$$$
