LQY.pdb
     RDKit          3D

 30 30  0  0  1  0  0  0  0  0999 V2000
    9.4924  -12.5419   19.0051 C   0  0  0  0  0  0  0  0  0  0  0  0
    8.0488  -12.9409   19.0566 C   0  0  2  0  0  0  0  0  0  0  0  0
    7.1767  -11.7115   19.2137 C   0  0  0  0  0  0  0  0  0  0  0  0
    7.7412  -13.9078   20.1731 C   0  0  0  0  0  0  0  0  0  0  0  0
    8.6635  -15.0966   20.1233 C   0  0  2  0  0  0  0  0  0  0  0  0
    8.3577  -15.8981   18.9587 N   0  0  0  0  0  0  0  0  0  0  0  0
    8.6077  -15.9324   21.3154 C   0  0  0  0  0  0  0  0  0  0  0  0
    7.4996  -16.0895   21.8954 O   0  0  0  0  0  0  0  0  0  0  0  0
   11.7319  -21.1076   22.3807 N   0  0  0  0  0  0  0  0  0  0  0  0
   12.4795  -19.8985   22.5592 C   0  0  0  0  0  0  0  0  0  0  0  0
   13.7333  -19.9232   22.5694 O   0  0  0  0  0  0  0  0  0  0  0  0
   11.7935  -18.5963   22.7352 C   0  0  0  0  0  0  0  0  0  0  0  0
   10.3195  -18.8056   22.7683 C   0  0  0  0  0  0  0  0  0  0  0  0
    9.5469  -17.5146   22.9703 C   0  0  2  0  0  0  0  0  0  0  0  0
    9.7238  -16.5976   21.8881 N   0  0  0  0  0  0  0  0  0  0  0  0
    9.8779  -16.8985   24.2910 C   0  0  0  0  0  0  0  0  0  0  0  0
   10.8021  -16.0464   24.4226 O   0  0  0  0  0  0  0  0  0  0  0  0
    5.8673  -11.4094   25.2026 O   0  0  0  0  0  0  0  0  0  0  0  0
    6.4543  -12.5490   25.7498 C   0  0  0  0  0  0  0  0  0  0  0  0
    7.6735  -12.4799   26.4070 C   0  0  0  0  0  0  0  0  0  0  0  0
    8.2654  -13.6065   26.9543 C   0  0  0  0  0  0  0  0  0  0  0  0
    7.6323  -14.8146   26.8438 C   0  0  0  0  0  0  0  0  0  0  0  0
    8.1726  -16.0657   27.3894 C   0  0  0  0  0  0  0  0  0  0  0  0
    9.4391  -16.5410   26.7276 C   0  0  2  0  0  0  0  0  0  0  0  0
    9.1747  -17.2322   25.4796 N   0  0  0  0  0  0  0  0  0  0  0  0
   10.1277  -17.4977   27.6286 C   0  0  0  0  0  0  0  0  0  0  0  0
   10.3560  -18.8212   27.3282 O   0  0  0  0  0  0  0  0  0  0  0  0
    6.4117  -14.8774   26.1845 C   0  0  0  0  0  0  0  0  0  0  0  0
    5.8182  -13.7613   25.6383 C   0  0  0  0  0  0  0  0  0  0  0  0
   10.5271  -17.0645   28.7398 O   0  0  0  0  0  0  0  0  0  0  0  0
  2  1  1  1
  2  3  1  0
  4  2  1  0
  5  6  1  6
  5  4  1  0
  7  8  2  0
  7  5  1  0
  9 10  1  0
 10 12  1  0
 11 10  2  0
 12 13  1  0
 14 15  1  0
 14 13  1  6
 15  7  1  0
 16 14  1  0
 17 16  2  0
 19 29  2  0
 19 18  1  0
 20 19  1  0
 21 22  1  0
 21 20  2  0
 22 28  2  0
 24 23  1  1
 23 22  1  0
 24 25  1  0
 25 16  1  0
 26 27  1  0
 26 24  1  0
 28 29  1  0
 30 26  2  0
M  END
$$$$
