LQY.pdb
     RDKit          3D

 30 30  0  0  1  0  0  0  0  0999 V2000
    8.9425  -13.5613   17.8318 C   0  0  0  0  0  0  0  0  0  0  0  0
    7.7718  -13.8401   18.7248 C   0  0  2  0  0  0  0  0  0  0  0  0
    7.1420  -12.5374   19.1754 C   0  0  0  0  0  0  0  0  0  0  0  0
    8.1353  -14.6567   19.9402 C   0  0  0  0  0  0  0  0  0  0  0  0
    8.7081  -15.9900   19.5396 C   0  0  2  0  0  0  0  0  0  0  0  0
    7.6574  -16.8267   19.0029 N   0  0  0  0  0  0  0  0  0  0  0  0
    9.3783  -16.6908   20.6271 C   0  0  0  0  0  0  0  0  0  0  0  0
    8.6768  -17.2704   21.4993 O   0  0  0  0  0  0  0  0  0  0  0  0
   15.4844  -18.7645   20.9297 N   0  0  0  0  0  0  0  0  0  0  0  0
   14.2828  -18.7612   20.1493 C   0  0  0  0  0  0  0  0  0  0  0  0
   14.3381  -18.6785   18.8992 O   0  0  0  0  0  0  0  0  0  0  0  0
   12.9526  -18.8549   20.7965 C   0  0  0  0  0  0  0  0  0  0  0  0
   12.7976  -17.7543   21.7876 C   0  0  0  0  0  0  0  0  0  0  0  0
   11.3517  -17.3320   21.9757 C   0  0  2  0  0  0  0  0  0  0  0  0
   10.7867  -16.7751   20.7865 N   0  0  0  0  0  0  0  0  0  0  0  0
   11.2142  -16.4152   23.1479 C   0  0  0  0  0  0  0  0  0  0  0  0
   11.6074  -15.2145   23.1121 O   0  0  0  0  0  0  0  0  0  0  0  0
    6.0464  -11.3547   27.6618 O   0  0  0  0  0  0  0  0  0  0  0  0
    6.7491  -12.3055   26.9235 C   0  0  0  0  0  0  0  0  0  0  0  0
    7.9166  -12.8710   27.4134 C   0  0  0  0  0  0  0  0  0  0  0  0
    8.6225  -13.8167   26.6876 C   0  0  0  0  0  0  0  0  0  0  0  0
    8.1566  -14.2011   25.4597 C   0  0  0  0  0  0  0  0  0  0  0  0
    8.8275  -15.1951   24.6132 C   0  0  0  0  0  0  0  0  0  0  0  0
    9.9939  -15.8880   25.2669 C   0  0  2  0  0  0  0  0  0  0  0  0
   10.6334  -16.8363   24.3743 N   0  0  0  0  0  0  0  0  0  0  0  0
    9.5090  -16.6452   26.4470 C   0  0  0  0  0  0  0  0  0  0  0  0
    9.5842  -16.1933   27.7447 O   0  0  0  0  0  0  0  0  0  0  0  0
    6.9869  -13.6311   24.9746 C   0  0  0  0  0  0  0  0  0  0  0  0
    6.2807  -12.6907   25.6911 C   0  0  0  0  0  0  0  0  0  0  0  0
    8.9958  -17.7750   26.2415 O   0  0  0  0  0  0  0  0  0  0  0  0
  2  1  1  1
  2  3  1  0
  4  2  1  0
  5  6  1  1
  5  4  1  0
  7  8  2  0
  7  5  1  0
  9 10  1  0
 10 12  1  0
 11 10  2  0
 12 13  1  0
 14 15  1  0
 14 13  1  6
 15  7  1  0
 16 14  1  0
 17 16  2  0
 19 29  2  0
 19 18  1  0
 20 19  1  0
 21 22  1  0
 21 20  2  0
 22 28  2  0
 24 23  1  6
 23 22  1  0
 24 25  1  0
 25 16  1  0
 26 27  1  0
 26 24  1  0
 28 29  1  0
 30 26  2  0
M  END
$$$$
