LQY.pdb
     RDKit          3D

 30 30  0  0  1  0  0  0  0  0999 V2000
    9.0406  -12.8375   19.3406 C   0  0  0  0  0  0  0  0  0  0  0  0
    7.6541  -13.1240   19.8316 C   0  0  2  0  0  0  0  0  0  0  0  0
    7.0105  -11.8493   20.3394 C   0  0  0  0  0  0  0  0  0  0  0  0
    7.6158  -14.1632   20.9245 C   0  0  0  0  0  0  0  0  0  0  0  0
    8.2900  -15.4340   20.4810 C   0  0  2  0  0  0  0  0  0  0  0  0
    7.3933  -16.1867   19.6316 N   0  0  0  0  0  0  0  0  0  0  0  0
    8.7358  -16.2766   21.5828 C   0  0  0  0  0  0  0  0  0  0  0  0
    7.8911  -17.0042   22.1710 O   0  0  0  0  0  0  0  0  0  0  0  0
   14.1739  -19.1614   22.2023 N   0  0  0  0  0  0  0  0  0  0  0  0
   13.4076  -19.6818   23.2954 C   0  0  0  0  0  0  0  0  0  0  0  0
   13.8427  -20.6412   23.9756 O   0  0  0  0  0  0  0  0  0  0  0  0
   12.0894  -19.1022   23.6471 C   0  0  0  0  0  0  0  0  0  0  0  0
   11.7811  -17.9656   22.7356 C   0  0  0  0  0  0  0  0  0  0  0  0
   10.4457  -17.3121   23.0418 C   0  0  2  0  0  0  0  0  0  0  0  0
   10.0725  -16.3455   22.0570 N   0  0  0  0  0  0  0  0  0  0  0  0
   10.4376  -16.7416   24.4230 C   0  0  0  0  0  0  0  0  0  0  0  0
   11.1987  -15.7913   24.7623 O   0  0  0  0  0  0  0  0  0  0  0  0
    6.9109  -11.1940   25.4556 O   0  0  0  0  0  0  0  0  0  0  0  0
    7.2584  -12.4624   25.9173 C   0  0  0  0  0  0  0  0  0  0  0  0
    6.5222  -13.5810   25.5568 C   0  0  0  0  0  0  0  0  0  0  0  0
    6.8591  -14.8459   26.0102 C   0  0  0  0  0  0  0  0  0  0  0  0
    7.9430  -14.9945   26.8322 C   0  0  0  0  0  0  0  0  0  0  0  0
    8.3846  -16.2890   27.3651 C   0  0  0  0  0  0  0  0  0  0  0  0
    9.6974  -16.7778   26.8122 C   0  0  2  0  0  0  0  0  0  0  0  0
    9.5746  -17.2318   25.4396 N   0  0  0  0  0  0  0  0  0  0  0  0
   10.1658  -17.9297   27.6215 C   0  0  0  0  0  0  0  0  0  0  0  0
   10.4354  -19.1791   27.1113 O   0  0  0  0  0  0  0  0  0  0  0  0
    8.6762  -13.8706   27.1896 C   0  0  0  0  0  0  0  0  0  0  0  0
    8.3465  -12.6106   26.7424 C   0  0  0  0  0  0  0  0  0  0  0  0
   10.3253  -17.7461   28.8554 O   0  0  0  0  0  0  0  0  0  0  0  0
  2  1  1  1
  2  3  1  0
  4  2  1  0
  5  6  1  6
  5  4  1  0
  7  8  2  0
  7  5  1  0
  9 10  1  0
 10 12  1  0
 11 10  2  0
 12 13  1  0
 14 15  1  0
 14 13  1  6
 15  7  1  0
 16 14  1  0
 17 16  2  0
 19 29  2  0
 19 18  1  0
 20 19  1  0
 21 22  1  0
 21 20  2  0
 22 28  2  0
 24 23  1  1
 23 22  1  0
 24 25  1  0
 25 16  1  0
 26 27  1  0
 26 24  1  0
 28 29  1  0
 30 26  2  0
M  END
$$$$
