LQY.pdb
     RDKit          3D

 30 30  0  0  1  0  0  0  0  0999 V2000
    8.8192  -13.1101   18.8650 C   0  0  0  0  0  0  0  0  0  0  0  0
    7.5885  -13.3196   19.6940 C   0  0  2  0  0  0  0  0  0  0  0  0
    7.0624  -11.9866   20.1867 C   0  0  0  0  0  0  0  0  0  0  0  0
    7.8195  -14.2251   20.8784 C   0  0  0  0  0  0  0  0  0  0  0  0
    8.2162  -15.6061   20.4293 C   0  0  2  0  0  0  0  0  0  0  0  0
    7.0627  -16.2878   19.8842 N   0  0  0  0  0  0  0  0  0  0  0  0
    8.8059  -16.4191   21.4848 C   0  0  0  0  0  0  0  0  0  0  0  0
    8.0548  -17.1690   22.1649 O   0  0  0  0  0  0  0  0  0  0  0  0
   13.2739  -20.9407   22.0911 N   0  0  0  0  0  0  0  0  0  0  0  0
   13.4907  -19.8343   22.9752 C   0  0  0  0  0  0  0  0  0  0  0  0
   14.6524  -19.5257   23.3328 O   0  0  0  0  0  0  0  0  0  0  0  0
   12.3538  -19.0319   23.4860 C   0  0  0  0  0  0  0  0  0  0  0  0
   11.8407  -18.1438   22.4063 C   0  0  0  0  0  0  0  0  0  0  0  0
   10.6749  -17.2829   22.8578 C   0  0  2  0  0  0  0  0  0  0  0  0
   10.1867  -16.4351   21.8155 N   0  0  0  0  0  0  0  0  0  0  0  0
   11.0276  -16.5149   24.0904 C   0  0  0  0  0  0  0  0  0  0  0  0
   12.2183  -16.4151   24.5025 O   0  0  0  0  0  0  0  0  0  0  0  0
    6.0964  -10.9144   26.2459 O   0  0  0  0  0  0  0  0  0  0  0  0
    6.7000  -12.1643   26.3732 C   0  0  0  0  0  0  0  0  0  0  0  0
    8.0271  -12.2815   26.7581 C   0  0  0  0  0  0  0  0  0  0  0  0
    8.6364  -13.5189   26.8875 C   0  0  0  0  0  0  0  0  0  0  0  0
    7.9120  -14.6508   26.6296 C   0  0  0  0  0  0  0  0  0  0  0  0
    8.4619  -16.0074   26.7387 C   0  0  0  0  0  0  0  0  0  0  0  0
    9.8927  -16.1403   26.2878 C   0  0  2  0  0  0  0  0  0  0  0  0
   10.0471  -15.8500   24.8747 N   0  0  0  0  0  0  0  0  0  0  0  0
   10.3424  -17.5371   26.5067 C   0  0  0  0  0  0  0  0  0  0  0  0
    9.6770  -18.6492   26.0434 O   0  0  0  0  0  0  0  0  0  0  0  0
    6.5835  -14.5269   26.2445 C   0  0  0  0  0  0  0  0  0  0  0  0
    5.9721  -13.2999   26.1140 C   0  0  0  0  0  0  0  0  0  0  0  0
   11.4032  -17.7103   27.1598 O   0  0  0  0  0  0  0  0  0  0  0  0
  2  1  1  1
  2  3  1  0
  4  2  1  0
  5  6  1  1
  5  4  1  0
  7  8  2  0
  7  5  1  0
  9 10  1  0
 10 12  1  0
 11 10  2  0
 12 13  1  0
 14 15  1  0
 14 13  1  6
 15  7  1  0
 16 14  1  0
 17 16  2  0
 19 29  2  0
 19 18  1  0
 20 19  1  0
 21 22  1  0
 21 20  2  0
 22 28  2  0
 24 23  1  6
 23 22  1  0
 24 25  1  0
 25 16  1  0
 26 27  1  0
 26 24  1  0
 28 29  1  0
 30 26  2  0
M  END
$$$$
