LQY.pdb
     RDKit          3D

 30 30  0  0  1  0  0  0  0  0999 V2000
    8.9330  -13.5804   18.8639 C   0  0  0  0  0  0  0  0  0  0  0  0
    7.8019  -13.5879   19.8469 C   0  0  2  0  0  0  0  0  0  0  0  0
    7.3956  -12.1665   20.1803 C   0  0  0  0  0  0  0  0  0  0  0  0
    8.1332  -14.3172   21.1253 C   0  0  0  0  0  0  0  0  0  0  0  0
    8.4922  -15.7526   20.8471 C   0  0  2  0  0  0  0  0  0  0  0  0
    7.3740  -16.4173   20.2147 N   0  0  0  0  0  0  0  0  0  0  0  0
    8.8912  -16.4977   22.0339 C   0  0  0  0  0  0  0  0  0  0  0  0
    8.0761  -17.3154   22.5399 O   0  0  0  0  0  0  0  0  0  0  0  0
   12.3928  -20.8207   22.8399 N   0  0  0  0  0  0  0  0  0  0  0  0
   12.6842  -19.6767   22.0281 C   0  0  0  0  0  0  0  0  0  0  0  0
   13.5126  -19.7583   21.0901 O   0  0  0  0  0  0  0  0  0  0  0  0
   12.0175  -18.3760   22.2754 C   0  0  0  0  0  0  0  0  0  0  0  0
   11.1120  -18.4914   23.4520 C   0  0  0  0  0  0  0  0  0  0  0  0
   10.4610  -17.1717   23.8244 C   0  0  2  0  0  0  0  0  0  0  0  0
   10.1499  -16.3744   22.6794 N   0  0  0  0  0  0  0  0  0  0  0  0
   11.2947  -16.4297   24.8182 C   0  0  0  0  0  0  0  0  0  0  0  0
   12.4907  -16.7537   25.0676 O   0  0  0  0  0  0  0  0  0  0  0  0
    5.7263  -10.9122   26.1497 O   0  0  0  0  0  0  0  0  0  0  0  0
    6.4808  -12.0697   26.3337 C   0  0  0  0  0  0  0  0  0  0  0  0
    7.4653  -12.1339   27.3082 C   0  0  0  0  0  0  0  0  0  0  0  0
    8.2207  -13.2795   27.4991 C   0  0  0  0  0  0  0  0  0  0  0  0
    7.9896  -14.3719   26.7082 C   0  0  0  0  0  0  0  0  0  0  0  0
    8.7319  -15.6324   26.8303 C   0  0  0  0  0  0  0  0  0  0  0  0
   10.2291  -15.4751   26.8701 C   0  0  2  0  0  0  0  0  0  0  0  0
   10.7950  -15.3151   25.5438 N   0  0  0  0  0  0  0  0  0  0  0  0
   10.8292  -16.6943   27.4656 C   0  0  0  0  0  0  0  0  0  0  0  0
   11.1962  -16.8140   28.7866 O   0  0  0  0  0  0  0  0  0  0  0  0
    7.0024  -14.3014   25.7341 C   0  0  0  0  0  0  0  0  0  0  0  0
    6.2482  -13.1658   25.5393 C   0  0  0  0  0  0  0  0  0  0  0  0
   11.0124  -17.6812   26.7077 O   0  0  0  0  0  0  0  0  0  0  0  0
  2  1  1  6
  2  3  1  0
  4  2  1  0
  5  6  1  1
  5  4  1  0
  7  8  2  0
  7  5  1  0
  9 10  1  0
 10 12  1  0
 11 10  2  0
 12 13  1  0
 14 15  1  0
 14 13  1  6
 15  7  1  0
 16 14  1  0
 17 16  2  0
 19 29  2  0
 19 18  1  0
 20 19  1  0
 21 22  1  0
 21 20  2  0
 22 28  2  0
 24 23  1  6
 23 22  1  0
 24 25  1  0
 25 16  1  0
 26 27  1  0
 26 24  1  0
 28 29  1  0
 30 26  2  0
M  END
$$$$
