MFG.pdb
     RDKit          3D

 24 24  0  0  1  0  0  0  0  0999 V2000
   29.8532  -20.3264  -17.1108 C   0  0  0  0  0  0  0  0  0  0  0  0
   29.6418  -18.5110  -17.2058 S   0  0  0  0  0  0  0  0  0  0  0  0
   28.3226  -18.0448  -16.0447 C   0  0  0  0  0  0  0  0  0  0  0  0
   27.9579  -19.2393  -15.1533 C   0  0  0  0  0  0  0  0  0  0  0  0
   26.6984  -18.8503  -14.4176 C   0  0  2  0  0  0  0  0  0  0  0  0
   27.0494  -17.7810  -13.5204 N   0  0  0  0  0  0  0  0  0  0  0  0
   26.0965  -19.9650  -13.6771 C   0  0  0  0  0  0  0  0  0  0  0  0
   25.8372  -21.0767  -14.2152 O   0  0  0  0  0  0  0  0  0  0  0  0
   25.7863  -19.8136  -12.3096 N   0  0  0  0  0  0  0  0  0  0  0  0
   25.1374  -20.7928  -11.4914 C   0  0  1  0  0  0  0  0  0  0  0  0
   25.7850  -21.0814  -10.1909 C   0  0  0  0  0  0  0  0  0  0  0  0
   27.2219  -20.9885  -10.0828 C   0  0  0  0  0  0  0  0  0  0  0  0
   27.9326  -20.4725   -9.0313 C   0  0  0  0  0  0  0  0  0  0  0  0
   29.3099  -20.4245   -8.9968 C   0  0  0  0  0  0  0  0  0  0  0  0
   30.0391  -20.9181  -10.0709 C   0  0  0  0  0  0  0  0  0  0  0  0
   29.3408  -21.4405  -11.1362 C   0  0  0  0  0  0  0  0  0  0  0  0
   27.9725  -21.4768  -11.1465 C   0  0  0  0  0  0  0  0  0  0  0  0
   23.6561  -20.7068  -11.4451 C   0  0  0  0  0  0  0  0  0  0  0  0
   23.0765  -21.3774  -10.5585 O   0  0  0  0  0  0  0  0  0  0  0  0
   22.8479  -19.9422  -12.3091 N   0  0  0  0  0  0  0  0  0  0  0  0
   21.3828  -19.9507  -12.2127 C   0  0  0  0  0  0  0  0  0  0  0  0
   20.7676  -20.8561  -13.1800 C   0  0  0  0  0  0  0  0  0  0  0  0
   21.4798  -21.6236  -13.8664 O   0  0  0  0  0  0  0  0  0  0  0  0
   19.3998  -20.8938  -13.3659 O   0  0  0  0  0  0  0  0  0  0  0  0
  2  1  1  0
  3  2  1  0
  4  3  1  0
  5  7  1  0
  5  4  1  0
  5  6  1  1
  7  8  2  0
  9  7  1  0
  9 10  1  0
 10 11  1  1
 11 12  1  0
 12 17  2  0
 13 12  1  0
 13 14  2  0
 14 15  1  0
 15 16  2  0
 17 16  1  0
 18 20  1  0
 18 10  1  0
 19 18  2  0
 21 20  1  0
 22 24  1  0
 22 21  1  0
 23 22  2  0
M  END
$$$$
