MFG.pdb
     RDKit          3D

 24 24  0  0  1  0  0  0  0  0999 V2000
   19.1011   -6.8498  -21.8420 C   0  0  0  0  0  0  0  0  0  0  0  0
   19.1923   -6.4054  -20.0689 S   0  0  0  0  0  0  0  0  0  0  0  0
   18.2296   -7.6357  -19.1386 C   0  0  0  0  0  0  0  0  0  0  0  0
   18.1181   -7.2153  -17.6671 C   0  0  0  0  0  0  0  0  0  0  0  0
   19.4591   -7.5098  -17.0394 C   0  0  2  0  0  0  0  0  0  0  0  0
   19.5511   -8.9391  -16.8964 N   0  0  0  0  0  0  0  0  0  0  0  0
   19.6444   -6.8511  -15.7413 C   0  0  0  0  0  0  0  0  0  0  0  0
   18.9525   -7.1422  -14.7269 O   0  0  0  0  0  0  0  0  0  0  0  0
   20.6277   -5.8505  -15.5955 N   0  0  0  0  0  0  0  0  0  0  0  0
   20.9476   -5.1712  -14.3766 C   0  0  1  0  0  0  0  0  0  0  0  0
   22.1597   -5.6461  -13.6700 C   0  0  0  0  0  0  0  0  0  0  0  0
   22.2442   -7.0301  -13.2671 C   0  0  0  0  0  0  0  0  0  0  0  0
   21.6346   -7.6067  -12.1841 C   0  0  0  0  0  0  0  0  0  0  0  0
   21.7568   -8.9426  -11.8664 C   0  0  0  0  0  0  0  0  0  0  0  0
   22.5322   -9.7690  -12.6694 C   0  0  0  0  0  0  0  0  0  0  0  0
   23.1521   -9.2060  -13.7621 C   0  0  0  0  0  0  0  0  0  0  0  0
   23.0152   -7.8762  -14.0565 C   0  0  0  0  0  0  0  0  0  0  0  0
   20.7786   -3.6966  -14.4035 C   0  0  0  0  0  0  0  0  0  0  0  0
   21.7853   -3.0160  -14.7121 O   0  0  0  0  0  0  0  0  0  0  0  0
   19.5909   -2.9980  -14.1110 N   0  0  0  0  0  0  0  0  0  0  0  0
   19.5468   -1.5316  -14.0515 C   0  0  0  0  0  0  0  0  0  0  0  0
   18.1826   -1.0208  -13.9422 C   0  0  0  0  0  0  0  0  0  0  0  0
   17.2073   -1.7925  -14.0856 O   0  0  0  0  0  0  0  0  0  0  0  0
   17.9286    0.3112  -13.6809 O   0  0  0  0  0  0  0  0  0  0  0  0
  2  1  1  0
  3  2  1  0
  4  3  1  0
  5  7  1  0
  5  4  1  0
  5  6  1  1
  7  8  2  0
  9  7  1  0
  9 10  1  0
 10 11  1  6
 11 12  1  0
 12 17  2  0
 13 12  1  0
 13 14  2  0
 14 15  1  0
 15 16  2  0
 17 16  1  0
 18 20  1  0
 18 10  1  0
 19 18  2  0
 21 20  1  0
 22 24  1  0
 22 21  1  0
 23 22  2  0
M  END
$$$$
