MFG.pdb
     RDKit          3D

 24 24  0  0  1  0  0  0  0  0999 V2000
   25.6558  -17.1621  -16.2131 C   0  0  0  0  0  0  0  0  0  0  0  0
   27.4503  -17.1367  -16.5721 S   0  0  0  0  0  0  0  0  0  0  0  0
   28.2520  -18.3475  -15.4780 C   0  0  0  0  0  0  0  0  0  0  0  0
   27.1928  -19.2154  -14.7857 C   0  0  0  0  0  0  0  0  0  0  0  0
   27.9227  -20.0181  -13.7359 C   0  0  2  0  0  0  0  0  0  0  0  0
   28.7837  -20.9369  -14.4331 N   0  0  0  0  0  0  0  0  0  0  0  0
   27.0199  -20.7435  -12.8349 C   0  0  0  0  0  0  0  0  0  0  0  0
   26.6995  -21.9499  -13.0210 O   0  0  0  0  0  0  0  0  0  0  0  0
   26.4759  -20.0897  -11.7098 N   0  0  0  0  0  0  0  0  0  0  0  0
   25.5508  -20.6652  -10.7811 C   0  0  1  0  0  0  0  0  0  0  0  0
   25.7292  -20.2745   -9.3636 C   0  0  0  0  0  0  0  0  0  0  0  0
   27.0041  -20.5017   -8.7247 C   0  0  0  0  0  0  0  0  0  0  0  0
   28.0539  -21.2256   -9.2255 C   0  0  0  0  0  0  0  0  0  0  0  0
   29.2480  -21.3927   -8.5574 C   0  0  0  0  0  0  0  0  0  0  0  0
   29.4221  -20.8073   -7.3099 C   0  0  0  0  0  0  0  0  0  0  0  0
   28.3771  -20.0761   -6.7915 C   0  0  0  0  0  0  0  0  0  0  0  0
   27.2008  -19.9249   -7.4749 C   0  0  0  0  0  0  0  0  0  0  0  0
   24.1399  -20.7253  -11.2387 C   0  0  0  0  0  0  0  0  0  0  0  0
   23.4578  -19.6809  -11.1127 O   0  0  0  0  0  0  0  0  0  0  0  0
   23.5022  -21.8501  -11.7978 N   0  0  0  0  0  0  0  0  0  0  0  0
   23.5498  -22.1343  -13.2375 C   0  0  0  0  0  0  0  0  0  0  0  0
   22.3807  -21.6177  -13.9447 C   0  0  0  0  0  0  0  0  0  0  0  0
   21.3351  -21.3397  -13.3149 O   0  0  0  0  0  0  0  0  0  0  0  0
   22.3913  -21.4221  -15.3117 O   0  0  0  0  0  0  0  0  0  0  0  0
  2  1  1  0
  3  2  1  0
  4  3  1  0
  5  7  1  0
  5  4  1  0
  5  6  1  6
  7  8  2  0
  9  7  1  0
  9 10  1  0
 10 11  1  1
 11 12  1  0
 12 17  2  0
 13 12  1  0
 13 14  2  0
 14 15  1  0
 15 16  2  0
 17 16  1  0
 18 20  1  0
 18 10  1  0
 19 18  2  0
 21 20  1  0
 22 24  1  0
 22 21  1  0
 23 22  2  0
M  END
$$$$
