MFG.pdb
     RDKit          3D

 24 24  0  0  1  0  0  0  0  0999 V2000
   16.1381  -10.6061  -14.6090 C   0  0  0  0  0  0  0  0  0  0  0  0
   14.9871   -9.2164  -14.9147 S   0  0  0  0  0  0  0  0  0  0  0  0
   15.9051   -7.6685  -14.6552 C   0  0  0  0  0  0  0  0  0  0  0  0
   17.2891   -7.7597  -15.3115 C   0  0  0  0  0  0  0  0  0  0  0  0
   18.0176   -6.4900  -14.9426 C   0  0  2  0  0  0  0  0  0  0  0  0
   17.3179   -5.4046  -15.5783 N   0  0  0  0  0  0  0  0  0  0  0  0
   19.4284   -6.4975  -15.3460 C   0  0  0  0  0  0  0  0  0  0  0  0
   19.8058   -6.1649  -16.5033 O   0  0  0  0  0  0  0  0  0  0  0  0
   20.4207   -6.8875  -14.4227 N   0  0  0  0  0  0  0  0  0  0  0  0
   21.8217   -6.9851  -14.7004 C   0  0  1  0  0  0  0  0  0  0  0  0
   22.6651   -5.8907  -14.1666 C   0  0  0  0  0  0  0  0  0  0  0  0
   22.3510   -4.5248  -14.5143 C   0  0  0  0  0  0  0  0  0  0  0  0
   21.5072   -3.6814  -13.8410 C   0  0  0  0  0  0  0  0  0  0  0  0
   21.2620   -2.3821  -14.2313 C   0  0  0  0  0  0  0  0  0  0  0  0
   21.8901   -1.8771  -15.3624 C   0  0  0  0  0  0  0  0  0  0  0  0
   22.7416   -2.7113  -16.0513 C   0  0  0  0  0  0  0  0  0  0  0  0
   22.9686   -3.9980  -15.6432 C   0  0  0  0  0  0  0  0  0  0  0  0
   22.4061   -8.3435  -14.5695 C   0  0  0  0  0  0  0  0  0  0  0  0
   22.5445   -8.7917  -13.4069 O   0  0  0  0  0  0  0  0  0  0  0  0
   22.8195   -9.1685  -15.6338 N   0  0  0  0  0  0  0  0  0  0  0  0
   23.4720  -10.4637  -15.4045 C   0  0  0  0  0  0  0  0  0  0  0  0
   23.7714  -11.1634  -16.6513 C   0  0  0  0  0  0  0  0  0  0  0  0
   23.3385  -10.7235  -17.7405 O   0  0  0  0  0  0  0  0  0  0  0  0
   24.5309  -12.3166  -16.6683 O   0  0  0  0  0  0  0  0  0  0  0  0
  2  1  1  0
  3  2  1  0
  4  3  1  0
  5  7  1  0
  5  4  1  0
  5  6  1  6
  7  8  2  0
  9  7  1  0
  9 10  1  0
 10 11  1  1
 11 12  1  0
 12 17  2  0
 13 12  1  0
 13 14  2  0
 14 15  1  0
 15 16  2  0
 17 16  1  0
 18 20  1  0
 18 10  1  0
 19 18  2  0
 21 20  1  0
 22 24  1  0
 22 21  1  0
 23 22  2  0
M  END
$$$$
