MFG.pdb
     RDKit          3D

 24 24  0  0  1  0  0  0  0  0999 V2000
   26.0491  -17.0655  -16.8428 C   0  0  0  0  0  0  0  0  0  0  0  0
   27.8468  -16.8788  -16.5546 S   0  0  0  0  0  0  0  0  0  0  0  0
   28.3614  -18.1835  -15.3976 C   0  0  0  0  0  0  0  0  0  0  0  0
   27.1375  -18.9725  -14.9140 C   0  0  0  0  0  0  0  0  0  0  0  0
   27.6563  -20.0077  -13.9453 C   0  0  2  0  0  0  0  0  0  0  0  0
   28.4955  -20.9032  -14.6973 N   0  0  0  0  0  0  0  0  0  0  0  0
   26.5867  -20.7518  -13.2703 C   0  0  0  0  0  0  0  0  0  0  0  0
   26.2222  -21.9023  -13.6394 O   0  0  0  0  0  0  0  0  0  0  0  0
   25.9249  -20.1812  -12.1632 N   0  0  0  0  0  0  0  0  0  0  0  0
   24.8207  -20.7651  -11.4638 C   0  0  1  0  0  0  0  0  0  0  0  0
   24.7403  -20.4650  -10.0156 C   0  0  0  0  0  0  0  0  0  0  0  0
   25.9499  -20.4669   -9.2270 C   0  0  0  0  0  0  0  0  0  0  0  0
   26.2768  -19.5899   -8.2264 C   0  0  0  0  0  0  0  0  0  0  0  0
   27.4524  -19.6599   -7.5098 C   0  0  0  0  0  0  0  0  0  0  0  0
   28.3704  -20.6618   -7.7970 C   0  0  0  0  0  0  0  0  0  0  0  0
   28.0579  -21.5519   -8.7997 C   0  0  0  0  0  0  0  0  0  0  0  0
   26.8835  -21.4612   -9.4970 C   0  0  0  0  0  0  0  0  0  0  0  0
   23.5211  -20.7330  -12.1806 C   0  0  0  0  0  0  0  0  0  0  0  0
   23.1759  -19.6360  -12.6801 O   0  0  0  0  0  0  0  0  0  0  0  0
   22.6440  -21.8228  -12.3455 N   0  0  0  0  0  0  0  0  0  0  0  0
   21.4444  -21.7341  -13.1876 C   0  0  0  0  0  0  0  0  0  0  0  0
   20.2517  -21.3842  -12.4202 C   0  0  0  0  0  0  0  0  0  0  0  0
   20.3363  -21.1589  -11.1916 O   0  0  0  0  0  0  0  0  0  0  0  0
   19.0098  -21.2920  -13.0170 O   0  0  0  0  0  0  0  0  0  0  0  0
  2  1  1  0
  3  2  1  0
  4  3  1  0
  5  7  1  0
  5  4  1  0
  5  6  1  6
  7  8  2  0
  9  7  1  0
  9 10  1  0
 10 11  1  1
 11 12  1  0
 12 17  2  0
 13 12  1  0
 13 14  2  0
 14 15  1  0
 15 16  2  0
 17 16  1  0
 18 20  1  0
 18 10  1  0
 19 18  2  0
 21 20  1  0
 22 24  1  0
 22 21  1  0
 23 22  2  0
M  END
$$$$
