MFG.pdb
     RDKit          3D

 24 24  0  0  1  0  0  0  0  0999 V2000
   18.0055  -13.3753  -17.7561 C   0  0  0  0  0  0  0  0  0  0  0  0
   18.7766  -12.7326  -19.2864 S   0  0  0  0  0  0  0  0  0  0  0  0
   20.5608  -12.5638  -18.9799 C   0  0  0  0  0  0  0  0  0  0  0  0
   20.8036  -11.6713  -17.7556 C   0  0  0  0  0  0  0  0  0  0  0  0
   22.2933  -11.6828  -17.5114 C   0  0  2  0  0  0  0  0  0  0  0  0
   22.6343  -13.0057  -17.0582 N   0  0  0  0  0  0  0  0  0  0  0  0
   22.7242  -10.6780  -16.5328 C   0  0  0  0  0  0  0  0  0  0  0  0
   22.6454  -10.8652  -15.2872 O   0  0  0  0  0  0  0  0  0  0  0  0
   23.2508   -9.4468  -16.9758 N   0  0  0  0  0  0  0  0  0  0  0  0
   23.6525   -8.3629  -16.1312 C   0  0  1  0  0  0  0  0  0  0  0  0
   25.0818   -7.9810  -16.2042 C   0  0  0  0  0  0  0  0  0  0  0  0
   26.0895   -9.0151  -16.1883 C   0  0  0  0  0  0  0  0  0  0  0  0
   26.9590   -9.3273  -17.2000 C   0  0  0  0  0  0  0  0  0  0  0  0
   27.9029  -10.3277  -17.1080 C   0  0  0  0  0  0  0  0  0  0  0  0
   27.9986  -11.0732  -15.9399 C   0  0  0  0  0  0  0  0  0  0  0  0
   27.1324  -10.7728  -14.9129 C   0  0  0  0  0  0  0  0  0  0  0  0
   26.2035   -9.7741  -15.0289 C   0  0  0  0  0  0  0  0  0  0  0  0
   22.7049   -7.2223  -16.0610 C   0  0  0  0  0  0  0  0  0  0  0  0
   22.5589   -6.5413  -17.1034 O   0  0  0  0  0  0  0  0  0  0  0  0
   21.9603   -6.8385  -14.9285 N   0  0  0  0  0  0  0  0  0  0  0  0
   21.0564   -5.6815  -14.9487 C   0  0  0  0  0  0  0  0  0  0  0  0
   19.6817   -6.0561  -15.2706 C   0  0  0  0  0  0  0  0  0  0  0  0
   19.4075   -7.2361  -15.5864 O   0  0  0  0  0  0  0  0  0  0  0  0
   18.6547   -5.1335  -15.2373 O   0  0  0  0  0  0  0  0  0  0  0  0
  2  1  1  0
  3  2  1  0
  4  3  1  0
  5  7  1  0
  5  4  1  0
  5  6  1  1
  7  8  2  0
  9  7  1  0
  9 10  1  0
 10 11  1  6
 11 12  1  0
 12 17  2  0
 13 12  1  0
 13 14  2  0
 14 15  1  0
 15 16  2  0
 17 16  1  0
 18 20  1  0
 18 10  1  0
 19 18  2  0
 21 20  1  0
 22 24  1  0
 22 21  1  0
 23 22  2  0
M  END
$$$$
