MFG.pdb
     RDKit          3D

 24 24  0  0  1  0  0  0  0  0999 V2000
   26.4745  -15.9841  -15.3620 C   0  0  0  0  0  0  0  0  0  0  0  0
   27.7943  -16.8882  -16.2510 S   0  0  0  0  0  0  0  0  0  0  0  0
   28.4470  -18.1614  -15.1290 C   0  0  0  0  0  0  0  0  0  0  0  0
   27.2941  -18.9765  -14.5284 C   0  0  0  0  0  0  0  0  0  0  0  0
   27.9232  -19.9559  -13.5672 C   0  0  2  0  0  0  0  0  0  0  0  0
   28.7348  -20.8503  -14.3502 N   0  0  0  0  0  0  0  0  0  0  0  0
   26.9366  -20.7098  -12.7852 C   0  0  0  0  0  0  0  0  0  0  0  0
   26.5692  -21.8759  -13.0980 O   0  0  0  0  0  0  0  0  0  0  0  0
   26.3618  -20.1310  -11.6346 N   0  0  0  0  0  0  0  0  0  0  0  0
   25.2532  -20.6637  -10.9019 C   0  0  1  0  0  0  0  0  0  0  0  0
   25.1590  -20.2535   -9.4817 C   0  0  0  0  0  0  0  0  0  0  0  0
   26.3509  -20.2565   -8.6665 C   0  0  0  0  0  0  0  0  0  0  0  0
   26.7320  -19.2939   -7.7691 C   0  0  0  0  0  0  0  0  0  0  0  0
   27.8855  -19.3703   -7.0181 C   0  0  0  0  0  0  0  0  0  0  0  0
   28.7225  -20.4697   -7.1593 C   0  0  0  0  0  0  0  0  0  0  0  0
   28.3548  -21.4467   -8.0568 C   0  0  0  0  0  0  0  0  0  0  0  0
   27.2038  -21.3475   -8.7911 C   0  0  0  0  0  0  0  0  0  0  0  0
   23.9600  -20.6916  -11.6302 C   0  0  0  0  0  0  0  0  0  0  0  0
   23.6068  -19.6320  -12.1997 O   0  0  0  0  0  0  0  0  0  0  0  0
   23.0971  -21.8001  -11.7346 N   0  0  0  0  0  0  0  0  0  0  0  0
   21.8691  -21.7557  -12.5384 C   0  0  0  0  0  0  0  0  0  0  0  0
   20.7326  -21.2279  -11.7878 C   0  0  0  0  0  0  0  0  0  0  0  0
   20.9142  -20.3904  -10.8751 O   0  0  0  0  0  0  0  0  0  0  0  0
   19.4393  -21.6302  -12.0570 O   0  0  0  0  0  0  0  0  0  0  0  0
  2  1  1  0
  3  2  1  0
  4  3  1  0
  5  7  1  0
  5  4  1  0
  5  6  1  6
  7  8  2  0
  9  7  1  0
  9 10  1  0
 10 11  1  1
 11 12  1  0
 12 17  2  0
 13 12  1  0
 13 14  2  0
 14 15  1  0
 15 16  2  0
 17 16  1  0
 18 20  1  0
 18 10  1  0
 19 18  2  0
 21 20  1  0
 22 24  1  0
 22 21  1  0
 23 22  2  0
M  END
$$$$
