MFG.pdb
     RDKit          3D

 24 24  0  0  1  0  0  0  0  0999 V2000
   21.4560  -20.7553  -13.9886 C   0  0  0  0  0  0  0  0  0  0  0  0
   22.6261  -19.5551  -14.7235 S   0  0  0  0  0  0  0  0  0  0  0  0
   24.3058  -20.0427  -14.2265 C   0  0  0  0  0  0  0  0  0  0  0  0
   24.3355  -20.3827  -12.7306 C   0  0  0  0  0  0  0  0  0  0  0  0
   25.7743  -20.6931  -12.3950 C   0  0  2  0  0  0  0  0  0  0  0  0
   26.1902  -21.7557  -13.2722 N   0  0  0  0  0  0  0  0  0  0  0  0
   25.9680  -21.0796  -10.9927 C   0  0  0  0  0  0  0  0  0  0  0  0
   25.7161  -22.2406  -10.5670 O   0  0  0  0  0  0  0  0  0  0  0  0
   26.4539  -20.1352  -10.0646 N   0  0  0  0  0  0  0  0  0  0  0  0
   26.6584  -20.3724   -8.6677 C   0  0  1  0  0  0  0  0  0  0  0  0
   27.7416  -19.5887   -8.0301 C   0  0  0  0  0  0  0  0  0  0  0  0
   27.9790  -19.7370   -6.6135 C   0  0  0  0  0  0  0  0  0  0  0  0
   28.6821  -20.7410   -6.0014 C   0  0  0  0  0  0  0  0  0  0  0  0
   28.8736  -20.8116   -4.6380 C   0  0  0  0  0  0  0  0  0  0  0  0
   28.3365  -19.8263   -3.8195 C   0  0  0  0  0  0  0  0  0  0  0  0
   27.6269  -18.8097   -4.4181 C   0  0  0  0  0  0  0  0  0  0  0  0
   27.4506  -18.7620   -5.7747 C   0  0  0  0  0  0  0  0  0  0  0  0
   25.4236  -20.5062   -7.8547 C   0  0  0  0  0  0  0  0  0  0  0  0
   24.5489  -19.6201   -8.0018 O   0  0  0  0  0  0  0  0  0  0  0  0
   25.1511  -21.5368   -6.9339 N   0  0  0  0  0  0  0  0  0  0  0  0
   23.9723  -21.5053   -6.0590 C   0  0  0  0  0  0  0  0  0  0  0  0
   22.7477  -21.8766   -6.7634 C   0  0  0  0  0  0  0  0  0  0  0  0
   22.7823  -22.1562   -7.9832 O   0  0  0  0  0  0  0  0  0  0  0  0
   21.5294  -21.9302   -6.1154 O   0  0  0  0  0  0  0  0  0  0  0  0
  2  1  1  0
  3  2  1  0
  4  3  1  0
  5  7  1  0
  5  4  1  0
  5  6  1  6
  7  8  2  0
  9  7  1  0
  9 10  1  0
 10 11  1  1
 11 12  1  0
 12 17  2  0
 13 12  1  0
 13 14  2  0
 14 15  1  0
 15 16  2  0
 17 16  1  0
 18 20  1  0
 18 10  1  0
 19 18  2  0
 21 20  1  0
 22 24  1  0
 22 21  1  0
 23 22  2  0
M  END
$$$$
