MFG.pdb
     RDKit          3D

 24 24  0  0  1  0  0  0  0  0999 V2000
   15.0513   -9.3084  -21.4906 C   0  0  0  0  0  0  0  0  0  0  0  0
   15.9316  -10.6603  -22.3550 S   0  0  0  0  0  0  0  0  0  0  0  0
   17.2030  -11.3049  -21.2262 C   0  0  0  0  0  0  0  0  0  0  0  0
   17.0224  -10.7000  -19.8277 C   0  0  0  0  0  0  0  0  0  0  0  0
   18.1325  -11.2653  -18.9749 C   0  0  2  0  0  0  0  0  0  0  0  0
   17.7634  -12.6175  -18.6475 N   0  0  0  0  0  0  0  0  0  0  0  0
   18.3726  -10.4887  -17.7533 C   0  0  0  0  0  0  0  0  0  0  0  0
   17.7570  -10.7117  -16.6745 O   0  0  0  0  0  0  0  0  0  0  0  0
   19.3237   -9.4472  -17.7588 N   0  0  0  0  0  0  0  0  0  0  0  0
   19.5483   -8.5214  -16.6903 C   0  0  1  0  0  0  0  0  0  0  0  0
   20.9133   -8.5155  -16.1152 C   0  0  0  0  0  0  0  0  0  0  0  0
   21.2383   -7.5624  -15.0802 C   0  0  0  0  0  0  0  0  0  0  0  0
   21.7261   -6.2946  -15.2579 C   0  0  0  0  0  0  0  0  0  0  0  0
   22.0067   -5.4363  -14.2163 C   0  0  0  0  0  0  0  0  0  0  0  0
   21.7928   -5.8537  -12.9090 C   0  0  0  0  0  0  0  0  0  0  0  0
   21.3028   -7.1250  -12.7120 C   0  0  0  0  0  0  0  0  0  0  0  0
   21.0319   -7.9586  -13.7635 C   0  0  0  0  0  0  0  0  0  0  0  0
   18.9413   -7.1786  -16.8699 C   0  0  0  0  0  0  0  0  0  0  0  0
   19.1777   -6.5894  -17.9510 O   0  0  0  0  0  0  0  0  0  0  0  0
   18.1281   -6.5102  -15.9339 N   0  0  0  0  0  0  0  0  0  0  0  0
   17.6019   -5.1625  -16.1844 C   0  0  0  0  0  0  0  0  0  0  0  0
   18.5608   -4.1177  -15.8342 C   0  0  0  0  0  0  0  0  0  0  0  0
   18.8360   -3.2138  -16.6555 O   0  0  0  0  0  0  0  0  0  0  0  0
   19.1860   -4.0939  -14.6031 O   0  0  0  0  0  0  0  0  0  0  0  0
  2  1  1  0
  3  2  1  0
  4  3  1  0
  5  7  1  0
  5  4  1  0
  5  6  1  1
  7  8  2  0
  9  7  1  0
  9 10  1  0
 10 11  1  6
 11 12  1  0
 12 17  2  0
 13 12  1  0
 13 14  2  0
 14 15  1  0
 15 16  2  0
 17 16  1  0
 18 20  1  0
 18 10  1  0
 19 18  2  0
 21 20  1  0
 22 24  1  0
 22 21  1  0
 23 22  2  0
M  END
$$$$
