CVC.pdb
     RDKit          3D

 20 19  0  0  1  0  0  0  0  0999 V2000
   24.5520  -13.3088  -17.7477 N   0  0  0  0  0  0  0  0  0  0  0  0
   24.3626  -12.4756  -16.5755 C   0  0  1  0  0  0  0  0  0  0  0  0
   25.7222  -11.9907  -16.1464 C   0  0  0  0  0  0  0  0  0  0  0  0
   26.5967  -13.4398  -15.4393 S   0  0  0  0  0  0  0  0  0  0  0  0
   23.4038  -11.3867  -16.8213 C   0  0  0  0  0  0  0  0  0  0  0  0
   23.3820  -10.8111  -17.9309 O   0  0  0  0  0  0  0  0  0  0  0  0
   19.7267  -11.4317  -16.9026 C   0  0  0  0  0  0  0  0  0  0  0  0
   20.1944  -10.4352  -15.8785 C   0  0  2  0  0  0  0  0  0  0  0  0
   19.1525   -9.3601  -15.6699 C   0  0  0  0  0  0  0  0  0  0  0  0
   21.5679   -9.8733  -16.1231 C   0  0  2  0  0  0  0  0  0  0  0  0
   22.4945  -10.9592  -15.8414 N   0  0  0  0  0  0  0  0  0  0  0  0
   21.9007   -8.6563  -15.3840 C   0  0  0  0  0  0  0  0  0  0  0  0
   22.0339   -8.6693  -14.1058 O   0  0  0  0  0  0  0  0  0  0  0  0
   22.1074   -7.3817  -15.9647 N   0  0  0  0  0  0  0  0  0  0  0  0
   22.4686   -6.2087  -15.1530 C   0  0  1  0  0  0  0  0  0  0  0  0
   23.0436   -5.1173  -16.0306 C   0  0  0  0  0  0  0  0  0  0  0  0
   23.4493   -3.6831  -15.0078 S   0  0  0  0  0  0  0  0  0  0  0  0
   21.2317   -5.7447  -14.4749 C   0  0  0  0  0  0  0  0  0  0  0  0
   20.1112   -5.7480  -15.0748 O   0  0  0  0  0  0  0  0  0  0  0  0
   21.2189   -5.2865  -13.1682 O   0  0  0  0  0  0  0  0  0  0  0  0
  2  1  1  6
  2  3  1  0
  4  3  1  0
  5  2  1  0
  6  5  2  0
  8  7  1  6
  8 10  1  0
  9  8  1  0
 10 12  1  0
 10 11  1  1
 11  5  1  0
 12 14  1  0
 13 12  2  0
 14 15  1  0
 15 16  1  6
 17 16  1  0
 18 15  1  0
 19 18  2  0
 20 18  1  0
M  END
$$$$
