CVC.pdb
     RDKit          3D

 20 19  0  0  1  0  0  0  0  0999 V2000
   19.7337  -15.0681  -17.0629 N   0  0  0  0  0  0  0  0  0  0  0  0
   19.2162  -13.7452  -17.3561 C   0  0  1  0  0  0  0  0  0  0  0  0
   17.7342  -13.7750  -17.0904 C   0  0  0  0  0  0  0  0  0  0  0  0
   16.9645  -14.6457  -18.5096 S   0  0  0  0  0  0  0  0  0  0  0  0
   19.9242  -12.6965  -16.6048 C   0  0  0  0  0  0  0  0  0  0  0  0
   20.2483  -12.8914  -15.4132 O   0  0  0  0  0  0  0  0  0  0  0  0
   21.5339   -9.2921  -18.6131 C   0  0  0  0  0  0  0  0  0  0  0  0
   22.0768   -9.9738  -17.3879 C   0  0  2  0  0  0  0  0  0  0  0  0
   23.0850  -11.0324  -17.7727 C   0  0  0  0  0  0  0  0  0  0  0  0
   21.0334  -10.4854  -16.4332 C   0  0  2  0  0  0  0  0  0  0  0  0
   20.2573  -11.4617  -17.1827 N   0  0  0  0  0  0  0  0  0  0  0  0
   20.1882   -9.4698  -15.8071 C   0  0  0  0  0  0  0  0  0  0  0  0
   19.2478   -8.8895  -16.4634 O   0  0  0  0  0  0  0  0  0  0  0  0
   20.3013   -9.0299  -14.4661 N   0  0  0  0  0  0  0  0  0  0  0  0
   19.4080   -8.0020  -13.9088 C   0  0  1  0  0  0  0  0  0  0  0  0
   19.0372   -8.3435  -12.4812 C   0  0  0  0  0  0  0  0  0  0  0  0
   18.0590   -6.9943  -11.7813 S   0  0  0  0  0  0  0  0  0  0  0  0
   20.1332   -6.7076  -13.9711 C   0  0  0  0  0  0  0  0  0  0  0  0
   21.3933   -6.6508  -13.8151 O   0  0  0  0  0  0  0  0  0  0  0  0
   19.4951   -5.5000  -14.1991 O   0  0  0  0  0  0  0  0  0  0  0  0
  2  1  1  1
  2  3  1  0
  4  3  1  0
  5  2  1  0
  6  5  2  0
  8  7  1  6
  8 10  1  0
  9  8  1  0
 10 12  1  0
 10 11  1  6
 11  5  1  0
 12 14  1  0
 13 12  2  0
 14 15  1  0
 15 16  1  1
 17 16  1  0
 18 15  1  0
 19 18  2  0
 20 18  1  0
M  END
$$$$
