CVC.pdb
     RDKit          3D

 20 19  0  0  1  0  0  0  0  0999 V2000
   29.8993  -10.0677  -18.4291 N   0  0  0  0  0  0  0  0  0  0  0  0
   30.8599   -9.0031  -18.6479 C   0  0  1  0  0  0  0  0  0  0  0  0
   30.1486   -7.9041  -19.3924 C   0  0  0  0  0  0  0  0  0  0  0  0
   29.8752   -8.5188  -21.0989 S   0  0  0  0  0  0  0  0  0  0  0  0
   31.4800   -8.5524  -17.3917 C   0  0  0  0  0  0  0  0  0  0  0  0
   30.8068   -8.5184  -16.3389 O   0  0  0  0  0  0  0  0  0  0  0  0
   35.6330   -8.6345  -16.9435 C   0  0  0  0  0  0  0  0  0  0  0  0
   34.5889   -8.7098  -15.8642 C   0  0  2  0  0  0  0  0  0  0  0  0
   34.1683  -10.1431  -15.6321 C   0  0  0  0  0  0  0  0  0  0  0  0
   33.4184   -7.7838  -16.0499 C   0  0  2  0  0  0  0  0  0  0  0  0
   32.8233   -8.1511  -17.3259 N   0  0  0  0  0  0  0  0  0  0  0  0
   33.7161   -6.3546  -15.9693 C   0  0  0  0  0  0  0  0  0  0  0  0
   34.2317   -5.7249  -16.9640 O   0  0  0  0  0  0  0  0  0  0  0  0
   33.4793   -5.5359  -14.8386 N   0  0  0  0  0  0  0  0  0  0  0  0
   33.7175   -4.0842  -14.8683 C   0  0  1  0  0  0  0  0  0  0  0  0
   32.5943   -3.3512  -14.1659 C   0  0  0  0  0  0  0  0  0  0  0  0
   32.9867   -1.5882  -14.0956 S   0  0  0  0  0  0  0  0  0  0  0  0
   35.0152   -3.8369  -14.1902 C   0  0  0  0  0  0  0  0  0  0  0  0
   35.7814   -2.8925  -14.5594 O   0  0  0  0  0  0  0  0  0  0  0  0
   35.4668   -4.6055  -13.1306 O   0  0  0  0  0  0  0  0  0  0  0  0
  2  1  1  1
  2  3  1  0
  4  3  1  0
  5  2  1  0
  6  5  2  0
  8  7  1  6
  8 10  1  0
  9  8  1  0
 10 12  1  0
 10 11  1  6
 11  5  1  0
 12 14  1  0
 13 12  2  0
 14 15  1  0
 15 16  1  1
 17 16  1  0
 18 15  1  0
 19 18  2  0
 20 18  1  0
M  END
$$$$
