CVC.pdb
     RDKit          3D

 20 19  0  0  1  0  0  0  0  0999 V2000
   17.7840  -12.7202  -16.9098 N   0  0  0  0  0  0  0  0  0  0  0  0
   17.6127  -11.4901  -16.1605 C   0  0  1  0  0  0  0  0  0  0  0  0
   17.7001  -11.8403  -14.6985 C   0  0  0  0  0  0  0  0  0  0  0  0
   16.0286  -12.4018  -14.1931 S   0  0  0  0  0  0  0  0  0  0  0  0
   18.5737  -10.4545  -16.5725 C   0  0  0  0  0  0  0  0  0  0  0  0
   19.7465  -10.7714  -16.8672 O   0  0  0  0  0  0  0  0  0  0  0  0
   17.3483   -6.7956  -18.0980 C   0  0  0  0  0  0  0  0  0  0  0  0
   18.7109   -7.4172  -18.2304 C   0  0  2  0  0  0  0  0  0  0  0  0
   18.7715   -8.3077  -19.4503 C   0  0  0  0  0  0  0  0  0  0  0  0
   19.2200   -8.0971  -16.9892 C   0  0  2  0  0  0  0  0  0  0  0  0
   18.2203   -9.0984  -16.6495 N   0  0  0  0  0  0  0  0  0  0  0  0
   19.5290   -7.2193  -15.8615 C   0  0  0  0  0  0  0  0  0  0  0  0
   18.5974   -6.7332  -15.1215 O   0  0  0  0  0  0  0  0  0  0  0  0
   20.8310   -6.8232  -15.4707 N   0  0  0  0  0  0  0  0  0  0  0  0
   21.0539   -5.8385  -14.4003 C   0  0  1  0  0  0  0  0  0  0  0  0
   22.1932   -6.2802  -13.5065 C   0  0  0  0  0  0  0  0  0  0  0  0
   22.4773   -5.0230  -12.2392 S   0  0  0  0  0  0  0  0  0  0  0  0
   21.3665   -4.5418  -15.0529 C   0  0  0  0  0  0  0  0  0  0  0  0
   21.9542   -4.4963  -16.1789 O   0  0  0  0  0  0  0  0  0  0  0  0
   21.0438   -3.3197  -14.4872 O   0  0  0  0  0  0  0  0  0  0  0  0
  2  1  1  6
  2  3  1  0
  4  3  1  0
  5  2  1  0
  6  5  2  0
  8  7  1  1
  8 10  1  0
  9  8  1  0
 10 12  1  0
 10 11  1  1
 11  5  1  0
 12 14  1  0
 13 12  2  0
 14 15  1  0
 15 16  1  1
 17 16  1  0
 18 15  1  0
 19 18  2  0
 20 18  1  0
M  END
$$$$
