CVC.pdb
     RDKit          3D

 20 19  0  0  1  0  0  0  0  0999 V2000
   14.7958  -12.8826  -10.8482 N   0  0  0  0  0  0  0  0  0  0  0  0
   14.3153  -11.5525  -11.1706 C   0  0  1  0  0  0  0  0  0  0  0  0
   13.0286  -11.3460  -10.4159 C   0  0  0  0  0  0  0  0  0  0  0  0
   11.8136  -12.5274  -11.1179 S   0  0  0  0  0  0  0  0  0  0  0  0
   15.3265  -10.5189  -10.8968 C   0  0  0  0  0  0  0  0  0  0  0  0
   16.0257  -10.5864   -9.8627 O   0  0  0  0  0  0  0  0  0  0  0  0
   18.1753   -9.7693  -12.9671 C   0  0  0  0  0  0  0  0  0  0  0  0
   17.4812   -8.4642  -12.6923 C   0  0  2  0  0  0  0  0  0  0  0  0
   18.4762   -7.3263  -12.6807 C   0  0  0  0  0  0  0  0  0  0  0  0
   16.5861   -8.4653  -11.4837 C   0  0  2  0  0  0  0  0  0  0  0  0
   15.5423   -9.4388  -11.7665 N   0  0  0  0  0  0  0  0  0  0  0  0
   16.0400   -7.1666  -11.0925 C   0  0  0  0  0  0  0  0  0  0  0  0
   15.2482   -6.5164  -11.8684 O   0  0  0  0  0  0  0  0  0  0  0  0
   16.3064   -6.5064   -9.8686 N   0  0  0  0  0  0  0  0  0  0  0  0
   15.6733   -5.2232   -9.5255 C   0  0  1  0  0  0  0  0  0  0  0  0
   15.6464   -5.0336   -8.0237 C   0  0  0  0  0  0  0  0  0  0  0  0
   14.6771   -6.3621   -7.2734 S   0  0  0  0  0  0  0  0  0  0  0  0
   16.4669   -4.1518  -10.1792 C   0  0  0  0  0  0  0  0  0  0  0  0
   17.6733   -4.3462  -10.5286 O   0  0  0  0  0  0  0  0  0  0  0  0
   15.9532   -2.8938  -10.4459 O   0  0  0  0  0  0  0  0  0  0  0  0
  2  1  1  1
  2  3  1  0
  4  3  1  0
  5  2  1  0
  6  5  2  0
  8  7  1  1
  8 10  1  0
  9  8  1  0
 10 12  1  0
 10 11  1  6
 11  5  1  0
 12 14  1  0
 13 12  2  0
 14 15  1  0
 15 16  1  1
 17 16  1  0
 18 15  1  0
 19 18  2  0
 20 18  1  0
M  END
$$$$
