CVC.pdb
     RDKit          3D

 20 19  0  0  1  0  0  0  0  0999 V2000
   21.5020   -9.8985  -16.3194 N   0  0  0  0  0  0  0  0  0  0  0  0
   21.7087   -8.7824  -15.4164 C   0  0  1  0  0  0  0  0  0  0  0  0
   23.1370   -8.8473  -14.9437 C   0  0  0  0  0  0  0  0  0  0  0  0
   23.2279  -10.2265  -13.7377 S   0  0  0  0  0  0  0  0  0  0  0  0
   21.3563   -7.4962  -16.0388 C   0  0  0  0  0  0  0  0  0  0  0  0
   21.7794   -7.2179  -17.1818 O   0  0  0  0  0  0  0  0  0  0  0  0
   17.7372   -5.7537  -15.3190 C   0  0  0  0  0  0  0  0  0  0  0  0
   18.6861   -5.5911  -16.4739 C   0  0  2  0  0  0  0  0  0  0  0  0
   18.5316   -6.7329  -17.4523 C   0  0  0  0  0  0  0  0  0  0  0  0
   20.1189   -5.3480  -16.0866 C   0  0  2  0  0  0  0  0  0  0  0  0
   20.5486   -6.5504  -15.3888 N   0  0  0  0  0  0  0  0  0  0  0  0
   20.3732   -4.1363  -15.3088 C   0  0  0  0  0  0  0  0  0  0  0  0
   20.2003   -4.1142  -14.0354 O   0  0  0  0  0  0  0  0  0  0  0  0
   20.8211   -2.9043  -15.8436 N   0  0  0  0  0  0  0  0  0  0  0  0
   21.0201   -1.7174  -14.9969 C   0  0  1  0  0  0  0  0  0  0  0  0
   21.9200   -0.7183  -15.6927 C   0  0  0  0  0  0  0  0  0  0  0  0
   22.2354    0.6727  -14.5823 S   0  0  0  0  0  0  0  0  0  0  0  0
   19.6804   -1.1313  -14.7383 C   0  0  0  0  0  0  0  0  0  0  0  0
   19.3760   -0.6627  -13.5968 O   0  0  0  0  0  0  0  0  0  0  0  0
   18.6934   -1.0586  -15.7069 O   0  0  0  0  0  0  0  0  0  0  0  0
  2  1  1  6
  2  3  1  0
  4  3  1  0
  5  2  1  0
  6  5  2  0
  8  7  1  1
  8 10  1  0
  9  8  1  0
 10 12  1  0
 10 11  1  1
 11  5  1  0
 12 14  1  0
 13 12  2  0
 14 15  1  0
 15 16  1  6
 17 16  1  0
 18 15  1  0
 19 18  2  0
 20 18  1  0
M  END
$$$$
