CVC.pdb
     RDKit          3D

 20 19  0  0  1  0  0  0  0  0999 V2000
   28.3915  -20.9281  -11.0752 N   0  0  0  0  0  0  0  0  0  0  0  0
   27.1702  -21.6899  -11.2544 C   0  0  1  0  0  0  0  0  0  0  0  0
   26.6419  -22.0181   -9.8829 C   0  0  0  0  0  0  0  0  0  0  0  0
   26.3336  -20.4169   -9.0428 S   0  0  0  0  0  0  0  0  0  0  0  0
   26.1975  -20.9823  -12.1022 C   0  0  0  0  0  0  0  0  0  0  0  0
   26.2173  -19.7341  -12.1686 O   0  0  0  0  0  0  0  0  0  0  0  0
   25.9188  -20.8095  -15.5491 C   0  0  0  0  0  0  0  0  0  0  0  0
   24.5598  -21.2473  -15.0778 C   0  0  2  0  0  0  0  0  0  0  0  0
   23.4875  -20.7613  -16.0260 C   0  0  0  0  0  0  0  0  0  0  0  0
   24.2539  -20.9251  -13.6409 C   0  0  2  0  0  0  0  0  0  0  0  0
   25.2291  -21.6651  -12.8543 N   0  0  0  0  0  0  0  0  0  0  0  0
   22.8819  -21.1839  -13.2067 C   0  0  0  0  0  0  0  0  0  0  0  0
   22.4848  -22.3745  -12.9297 O   0  0  0  0  0  0  0  0  0  0  0  0
   21.8787  -20.1978  -13.0464 N   0  0  0  0  0  0  0  0  0  0  0  0
   20.5509  -20.5231  -12.5023 C   0  0  1  0  0  0  0  0  0  0  0  0
   20.0570  -19.4028  -11.6119 C   0  0  0  0  0  0  0  0  0  0  0  0
   18.4211  -19.8285  -10.9717 S   0  0  0  0  0  0  0  0  0  0  0  0
   19.6384  -20.7216  -13.6570 C   0  0  0  0  0  0  0  0  0  0  0  0
   19.7804  -20.0559  -14.7303 O   0  0  0  0  0  0  0  0  0  0  0  0
   18.5924  -21.6288  -13.6396 O   0  0  0  0  0  0  0  0  0  0  0  0
  2  1  1  1
  2  3  1  0
  4  3  1  0
  5  2  1  0
  6  5  2  0
  8  7  1  6
  8 10  1  0
  9  8  1  0
 10 12  1  0
 10 11  1  1
 11  5  1  0
 12 14  1  0
 13 12  2  0
 14 15  1  0
 15 16  1  1
 17 16  1  0
 18 15  1  0
 19 18  2  0
 20 18  1  0
M  END
$$$$
