CVC.pdb
     RDKit          3D

 20 19  0  0  1  0  0  0  0  0999 V2000
   18.2289  -11.8443  -17.2036 N   0  0  0  0  0  0  0  0  0  0  0  0
   17.7650  -10.9086  -16.1971 C   0  0  1  0  0  0  0  0  0  0  0  0
   18.1785  -11.4528  -14.8552 C   0  0  0  0  0  0  0  0  0  0  0  0
   17.0175  -12.8175  -14.4625 S   0  0  0  0  0  0  0  0  0  0  0  0
   18.2496   -9.5420  -16.4487 C   0  0  0  0  0  0  0  0  0  0  0  0
   19.4191   -9.3571  -16.8500 O   0  0  0  0  0  0  0  0  0  0  0  0
   16.1521   -6.8709  -18.4262 C   0  0  0  0  0  0  0  0  0  0  0  0
   16.7125   -6.3490  -17.1323 C   0  0  2  0  0  0  0  0  0  0  0  0
   16.9386   -4.8567  -17.2158 C   0  0  0  0  0  0  0  0  0  0  0  0
   17.9157   -7.0908  -16.6184 C   0  0  2  0  0  0  0  0  0  0  0  0
   17.4363   -8.4151  -16.2528 N   0  0  0  0  0  0  0  0  0  0  0  0
   18.6455   -6.4461  -15.5278 C   0  0  0  0  0  0  0  0  0  0  0  0
   18.0905   -6.2371  -14.3876 O   0  0  0  0  0  0  0  0  0  0  0  0
   19.9873   -5.9998  -15.5977 N   0  0  0  0  0  0  0  0  0  0  0  0
   20.6339   -5.3062  -14.4726 C   0  0  1  0  0  0  0  0  0  0  0  0
   21.9739   -5.9392  -14.1630 C   0  0  0  0  0  0  0  0  0  0  0  0
   22.8268   -4.9471  -12.9157 S   0  0  0  0  0  0  0  0  0  0  0  0
   20.8000   -3.8846  -14.8685 C   0  0  0  0  0  0  0  0  0  0  0  0
   21.0109   -3.5586  -16.0787 O   0  0  0  0  0  0  0  0  0  0  0  0
   20.7369   -2.8405  -13.9611 O   0  0  0  0  0  0  0  0  0  0  0  0
  2  1  1  6
  2  3  1  0
  4  3  1  0
  5  2  1  0
  6  5  2  0
  8  7  1  6
  8 10  1  0
  9  8  1  0
 10 12  1  0
 10 11  1  1
 11  5  1  0
 12 14  1  0
 13 12  2  0
 14 15  1  0
 15 16  1  6
 17 16  1  0
 18 15  1  0
 19 18  2  0
 20 18  1  0
M  END
$$$$
