WVW.pdb
     RDKit          3D

 36 39  0  0  1  0  0  0  0  0999 V2000
    6.8926  -20.4590   25.3978 N   0  0  0  0  0  0  0  0  0  0  0  0
    7.5866  -19.2470   25.1202 C   0  0  1  0  0  0  0  0  0  0  0  0
    8.8894  -19.1077   25.8032 C   0  0  0  0  0  0  0  0  0  0  0  0
    8.7354  -18.5509   27.1516 C   0  0  0  0  0  0  0  0  0  0  0  0
    8.1477  -19.2529   28.1952 C   0  0  0  0  0  0  0  0  0  0  0  0
    8.1740  -18.5280   29.3148 N   0  0  0  0  0  0  0  0  0  0  0  0
    8.7745  -17.3667   28.9926 C   0  0  0  0  0  0  0  0  0  0  0  0
    9.0569  -16.2548   29.7531 C   0  0  0  0  0  0  0  0  0  0  0  0
    9.6749  -15.1421   29.2362 C   0  0  0  0  0  0  0  0  0  0  0  0
   10.0268  -15.1253   27.9222 C   0  0  0  0  0  0  0  0  0  0  0  0
    9.7533  -16.2298   27.1409 C   0  0  0  0  0  0  0  0  0  0  0  0
    9.1318  -17.3637   27.6424 C   0  0  0  0  0  0  0  0  0  0  0  0
    7.6535  -18.9024   23.6500 C   0  0  0  0  0  0  0  0  0  0  0  0
    8.2051  -19.7268   22.8755 O   0  0  0  0  0  0  0  0  0  0  0  0
    5.2570  -16.0096   22.7643 C   0  0  0  0  0  0  0  0  0  0  0  0
    6.3650  -15.8697   21.7304 C   0  0  1  0  0  0  0  0  0  0  0  0
    6.9772  -14.4945   22.0420 C   0  0  0  0  0  0  0  0  0  0  0  0
    7.4995  -16.8718   22.0471 C   0  0  2  0  0  0  0  0  0  0  0  0
    7.1265  -17.7194   23.1690 N   0  0  0  0  0  0  0  0  0  0  0  0
    8.6751  -16.0836   22.4513 C   0  0  0  0  0  0  0  0  0  0  0  0
    9.2694  -15.3869   21.5480 O   0  0  0  0  0  0  0  0  0  0  0  0
    9.2473  -15.9814   23.7290 N   0  0  0  0  0  0  0  0  0  0  0  0
   10.4519  -15.2013   24.0116 C   0  0  1  0  0  0  0  0  0  0  0  0
   10.1718  -14.5318   25.3317 C   0  0  0  0  0  0  0  0  0  0  0  0
    8.7612  -14.2694   25.6023 C   0  0  0  0  0  0  0  0  0  0  0  0
    7.8472  -15.1931   26.1282 C   0  0  0  0  0  0  0  0  0  0  0  0
    6.6373  -14.6419   26.2180 N   0  0  0  0  0  0  0  0  0  0  0  0
    6.6998  -13.3820   25.7740 C   0  0  0  0  0  0  0  0  0  0  0  0
    5.7753  -12.3541   25.6536 C   0  0  0  0  0  0  0  0  0  0  0  0
    6.1520  -11.1400   25.1711 C   0  0  0  0  0  0  0  0  0  0  0  0
    7.4500  -10.8749   24.7842 C   0  0  0  0  0  0  0  0  0  0  0  0
    8.3713  -11.8723   24.8945 C   0  0  0  0  0  0  0  0  0  0  0  0
    8.0119  -13.1206   25.3832 C   0  0  0  0  0  0  0  0  0  0  0  0
   11.6835  -15.9448   24.0273 C   0  0  0  0  0  0  0  0  0  0  0  0
   12.7812  -15.3698   24.2217 O   0  0  0  0  0  0  0  0  0  0  0  0
   11.7096  -17.3155   23.8309 O   0  0  0  0  0  0  0  0  0  0  0  0
  2  1  1  6
  3  2  1  0
  4  3  1  0
  4  5  2  0
  6  5  1  0
  7 12  2  0
  7  6  1  0
  8  7  1  0
  9 10  1  0
  9  8  2  0
 10 11  2  0
 11 12  1  0
 12  4  1  0
 13  2  1  0
 14 13  2  0
 16 15  1  1
 16 18  1  0
 17 16  1  0
 18 20  1  0
 18 19  1  1
 19 13  1  0
 20 21  2  0
 22 23  1  0
 22 20  1  0
 23 24  1  1
 24 25  1  0
 25 33  1  0
 26 25  2  0
 26 27  1  0
 27 28  1  0
 28 29  1  0
 29 30  2  0
 31 30  1  0
 32 31  2  0
 33 28  2  0
 33 32  1  0
 34 36  1  0
 34 23  1  0
 35 34  2  0
M  END
$$$$
