WVW.pdb
     RDKit          3D

 36 39  0  0  1  0  0  0  0  0999 V2000
    6.3439  -18.6173   25.1859 N   0  0  0  0  0  0  0  0  0  0  0  0
    6.8908  -17.3406   24.8725 C   0  0  1  0  0  0  0  0  0  0  0  0
    7.5720  -16.6647   25.9960 C   0  0  0  0  0  0  0  0  0  0  0  0
    6.8846  -15.4263   26.3779 C   0  0  0  0  0  0  0  0  0  0  0  0
    5.7898  -15.4034   27.2311 C   0  0  0  0  0  0  0  0  0  0  0  0
    5.3894  -14.1479   27.4385 N   0  0  0  0  0  0  0  0  0  0  0  0
    6.2216  -13.3684   26.7224 C   0  0  0  0  0  0  0  0  0  0  0  0
    6.2646  -12.0021   26.5619 C   0  0  0  0  0  0  0  0  0  0  0  0
    7.1962  -11.3793   25.7673 C   0  0  0  0  0  0  0  0  0  0  0  0
    8.1182  -12.1308   25.1071 C   0  0  0  0  0  0  0  0  0  0  0  0
    8.0936  -13.5031   25.2538 C   0  0  0  0  0  0  0  0  0  0  0  0
    7.1632  -14.1521   26.0517 C   0  0  0  0  0  0  0  0  0  0  0  0
    7.6986  -17.3169   23.5951 C   0  0  0  0  0  0  0  0  0  0  0  0
    8.4299  -18.3092   23.3414 O   0  0  0  0  0  0  0  0  0  0  0  0
    8.7948  -14.1877   19.7581 C   0  0  0  0  0  0  0  0  0  0  0  0
    8.0528  -14.4847   21.0532 C   0  0  1  0  0  0  0  0  0  0  0  0
    6.5787  -14.5372   20.6202 C   0  0  0  0  0  0  0  0  0  0  0  0
    8.3663  -15.9280   21.5115 C   0  0  2  0  0  0  0  0  0  0  0  0
    7.6380  -16.2404   22.7315 N   0  0  0  0  0  0  0  0  0  0  0  0
    9.8044  -15.9831   21.8206 C   0  0  0  0  0  0  0  0  0  0  0  0
   10.6321  -15.9034   20.8392 O   0  0  0  0  0  0  0  0  0  0  0  0
   10.4118  -16.1072   23.0798 N   0  0  0  0  0  0  0  0  0  0  0  0
   11.8612  -16.1215   23.2766 C   0  0  1  0  0  0  0  0  0  0  0  0
   12.0934  -15.2276   24.4666 C   0  0  0  0  0  0  0  0  0  0  0  0
   11.6422  -15.7726   25.7438 C   0  0  0  0  0  0  0  0  0  0  0  0
   11.9164  -17.0616   26.2217 C   0  0  0  0  0  0  0  0  0  0  0  0
   11.3278  -17.2486   27.4026 N   0  0  0  0  0  0  0  0  0  0  0  0
   10.6680  -16.1354   27.7402 C   0  0  0  0  0  0  0  0  0  0  0  0
    9.9086  -15.7593   28.8391 C   0  0  0  0  0  0  0  0  0  0  0  0
    9.3651  -14.5149   28.9093 C   0  0  0  0  0  0  0  0  0  0  0  0
    9.5390  -13.5810   27.9083 C   0  0  0  0  0  0  0  0  0  0  0  0
   10.2809  -13.9327   26.8211 C   0  0  0  0  0  0  0  0  0  0  0  0
   10.8456  -15.1969   26.7252 C   0  0  0  0  0  0  0  0  0  0  0  0
   12.4516  -17.4224   23.4478 C   0  0  0  0  0  0  0  0  0  0  0  0
   13.6952  -17.5592   23.5364 O   0  0  0  0  0  0  0  0  0  0  0  0
   11.6787  -18.5691   23.5222 O   0  0  0  0  0  0  0  0  0  0  0  0
  2  1  1  1
  3  2  1  0
  4  3  1  0
  4  5  2  0
  6  5  1  0
  7 12  2  0
  7  6  1  0
  8  7  1  0
  9 10  1  0
  9  8  2  0
 10 11  2  0
 11 12  1  0
 12  4  1  0
 13  2  1  0
 14 13  2  0
 16 15  1  6
 16 18  1  0
 17 16  1  0
 18 20  1  0
 18 19  1  1
 19 13  1  0
 20 21  2  0
 22 23  1  0
 22 20  1  0
 23 24  1  1
 24 25  1  0
 25 33  1  0
 26 25  2  0
 26 27  1  0
 27 28  1  0
 28 29  1  0
 29 30  2  0
 31 30  1  0
 32 31  2  0
 33 28  2  0
 33 32  1  0
 34 36  1  0
 34 23  1  0
 35 34  2  0
M  END
$$$$
