WVW.pdb
     RDKit          3D

 36 39  0  0  1  0  0  0  0  0999 V2000
    5.7982  -17.6397   25.5073 N   0  0  0  0  0  0  0  0  0  0  0  0
    6.4458  -16.4653   25.0288 C   0  0  1  0  0  0  0  0  0  0  0  0
    6.9505  -15.5617   26.0833 C   0  0  0  0  0  0  0  0  0  0  0  0
    6.0149  -14.4628   26.3460 C   0  0  0  0  0  0  0  0  0  0  0  0
    4.7727  -14.6541   26.9355 C   0  0  0  0  0  0  0  0  0  0  0  0
    4.1487  -13.4855   27.0924 N   0  0  0  0  0  0  0  0  0  0  0  0
    4.9846  -12.5486   26.6061 C   0  0  0  0  0  0  0  0  0  0  0  0
    4.8499  -11.1824   26.5066 C   0  0  0  0  0  0  0  0  0  0  0  0
    5.8227  -10.3808   25.9604 C   0  0  0  0  0  0  0  0  0  0  0  0
    6.9690  -10.9467   25.4954 C   0  0  0  0  0  0  0  0  0  0  0  0
    7.1254  -12.3152   25.5854 C   0  0  0  0  0  0  0  0  0  0  0  0
    6.1572  -13.1427   26.1341 C   0  0  0  0  0  0  0  0  0  0  0  0
    7.4630  -16.7264   23.9417 C   0  0  0  0  0  0  0  0  0  0  0  0
    8.0501  -17.8396   23.9384 O   0  0  0  0  0  0  0  0  0  0  0  0
    9.5737  -14.3601   19.9943 C   0  0  0  0  0  0  0  0  0  0  0  0
    8.7264  -14.3135   21.2578 C   0  0  1  0  0  0  0  0  0  0  0  0
    7.2872  -14.2319   20.7237 C   0  0  0  0  0  0  0  0  0  0  0  0
    8.7890  -15.6820   21.9751 C   0  0  2  0  0  0  0  0  0  0  0  0
    7.7416  -15.7741   22.9804 N   0  0  0  0  0  0  0  0  0  0  0  0
   10.0850  -15.7497   22.6697 C   0  0  0  0  0  0  0  0  0  0  0  0
   10.5006  -14.6896   23.2682 O   0  0  0  0  0  0  0  0  0  0  0  0
   10.9504  -16.8497   22.7759 N   0  0  0  0  0  0  0  0  0  0  0  0
   12.3412  -16.7403   23.2155 C   0  0  1  0  0  0  0  0  0  0  0  0
   12.4474  -17.6853   24.3839 C   0  0  0  0  0  0  0  0  0  0  0  0
   11.5231  -17.4144   25.4812 C   0  0  0  0  0  0  0  0  0  0  0  0
   10.3509  -18.1327   25.7548 C   0  0  0  0  0  0  0  0  0  0  0  0
    9.7225  -17.6040   26.8043 N   0  0  0  0  0  0  0  0  0  0  0  0
   10.4258  -16.5574   27.2498 C   0  0  0  0  0  0  0  0  0  0  0  0
   10.2647  -15.6617   28.2975 C   0  0  0  0  0  0  0  0  0  0  0  0
   11.1851  -14.6856   28.5188 C   0  0  0  0  0  0  0  0  0  0  0  0
   12.3053  -14.5403   27.7260 C   0  0  0  0  0  0  0  0  0  0  0  0
   12.4798  -15.4099   26.6920 C   0  0  0  0  0  0  0  0  0  0  0  0
   11.5545  -16.4144   26.4446 C   0  0  0  0  0  0  0  0  0  0  0  0
   13.3333  -17.0051   22.2077 C   0  0  0  0  0  0  0  0  0  0  0  0
   12.9993  -17.3595   21.0518 O   0  0  0  0  0  0  0  0  0  0  0  0
   14.6877  -16.8807   22.4682 O   0  0  0  0  0  0  0  0  0  0  0  0
  2  1  1  1
  3  2  1  0
  4  3  1  0
  4  5  2  0
  6  5  1  0
  7 12  2  0
  7  6  1  0
  8  7  1  0
  9 10  1  0
  9  8  2  0
 10 11  2  0
 11 12  1  0
 12  4  1  0
 13  2  1  0
 14 13  2  0
 16 15  1  6
 16 18  1  0
 17 16  1  0
 18 20  1  0
 18 19  1  1
 19 13  1  0
 20 21  2  0
 22 23  1  0
 22 20  1  0
 23 24  1  1
 24 25  1  0
 25 33  1  0
 26 25  2  0
 26 27  1  0
 27 28  1  0
 28 29  1  0
 29 30  2  0
 31 30  1  0
 32 31  2  0
 33 28  2  0
 33 32  1  0
 34 36  1  0
 34 23  1  0
 35 34  2  0
M  END
$$$$
