WVW.pdb
     RDKit          3D

 36 39  0  0  1  0  0  0  0  0999 V2000
    6.0997  -18.0729   25.0221 N   0  0  0  0  0  0  0  0  0  0  0  0
    6.8438  -16.8917   24.7416 C   0  0  1  0  0  0  0  0  0  0  0  0
    7.4855  -16.2688   25.9177 C   0  0  0  0  0  0  0  0  0  0  0  0
    6.7047  -15.1333   26.4206 C   0  0  0  0  0  0  0  0  0  0  0  0
    5.6517  -15.2781   27.3136 C   0  0  0  0  0  0  0  0  0  0  0  0
    5.1469  -14.0853   27.6332 N   0  0  0  0  0  0  0  0  0  0  0  0
    5.8708  -13.1792   26.9492 C   0  0  0  0  0  0  0  0  0  0  0  0
    5.7805  -11.8068   26.8942 C   0  0  0  0  0  0  0  0  0  0  0  0
    6.6142  -11.0409   26.1161 C   0  0  0  0  0  0  0  0  0  0  0  0
    7.5711  -11.6502   25.3652 C   0  0  0  0  0  0  0  0  0  0  0  0
    7.6797  -13.0257   25.4052 C   0  0  0  0  0  0  0  0  0  0  0  0
    6.8497  -13.8176   26.1846 C   0  0  0  0  0  0  0  0  0  0  0  0
    7.7796  -17.0230   23.5618 C   0  0  0  0  0  0  0  0  0  0  0  0
    8.4377  -18.0894   23.4468 O   0  0  0  0  0  0  0  0  0  0  0  0
    9.1212  -14.4731   19.4154 C   0  0  0  0  0  0  0  0  0  0  0  0
    8.5484  -14.4618   20.8254 C   0  0  1  0  0  0  0  0  0  0  0  0
    7.0287  -14.4241   20.5967 C   0  0  0  0  0  0  0  0  0  0  0  0
    8.7981  -15.8318   21.4978 C   0  0  2  0  0  0  0  0  0  0  0  0
    7.9103  -16.0049   22.6371 N   0  0  0  0  0  0  0  0  0  0  0  0
   10.1805  -15.8221   22.0034 C   0  0  0  0  0  0  0  0  0  0  0  0
   10.8314  -14.7139   21.9484 O   0  0  0  0  0  0  0  0  0  0  0  0
   10.9027  -16.8890   22.5605 N   0  0  0  0  0  0  0  0  0  0  0  0
   12.2838  -16.7695   23.0274 C   0  0  1  0  0  0  0  0  0  0  0  0
   12.2492  -15.6540   24.0392 C   0  0  0  0  0  0  0  0  0  0  0  0
   11.6467  -16.0046   25.3222 C   0  0  0  0  0  0  0  0  0  0  0  0
   11.7231  -17.2596   25.9420 C   0  0  0  0  0  0  0  0  0  0  0  0
   11.0363  -17.2506   27.0840 N   0  0  0  0  0  0  0  0  0  0  0  0
   10.5003  -16.0380   27.2589 C   0  0  0  0  0  0  0  0  0  0  0  0
    9.7209  -15.4613   28.2518 C   0  0  0  0  0  0  0  0  0  0  0  0
    9.3348  -14.1609   28.1582 C   0  0  0  0  0  0  0  0  0  0  0  0
    9.6930  -13.3645   27.0896 C   0  0  0  0  0  0  0  0  0  0  0  0
   10.4573  -13.9137   26.1047 C   0  0  0  0  0  0  0  0  0  0  0  0
   10.8636  -15.2388   26.1764 C   0  0  0  0  0  0  0  0  0  0  0  0
   12.8649  -17.9725   23.5612 C   0  0  0  0  0  0  0  0  0  0  0  0
   12.1656  -18.9960   23.7530 O   0  0  0  0  0  0  0  0  0  0  0  0
   14.2096  -18.0516   23.8828 O   0  0  0  0  0  0  0  0  0  0  0  0
  2  1  1  1
  3  2  1  0
  4  3  1  0
  4  5  2  0
  6  5  1  0
  7 12  2  0
  7  6  1  0
  8  7  1  0
  9 10  1  0
  9  8  2  0
 10 11  2  0
 11 12  1  0
 12  4  1  0
 13  2  1  0
 14 13  2  0
 16 15  1  6
 16 18  1  0
 17 16  1  0
 18 20  1  0
 18 19  1  1
 19 13  1  0
 20 21  2  0
 22 23  1  0
 22 20  1  0
 23 24  1  1
 24 25  1  0
 25 33  1  0
 26 25  2  0
 26 27  1  0
 27 28  1  0
 28 29  1  0
 29 30  2  0
 31 30  1  0
 32 31  2  0
 33 28  2  0
 33 32  1  0
 34 36  1  0
 34 23  1  0
 35 34  2  0
M  END
$$$$
