WVW.pdb
     RDKit          3D

 36 39  0  0  1  0  0  0  0  0999 V2000
    8.3290  -17.8692   20.3515 N   0  0  0  0  0  0  0  0  0  0  0  0
    8.4022  -17.1319   21.5675 C   0  0  1  0  0  0  0  0  0  0  0  0
    7.1796  -16.3756   21.9090 C   0  0  0  0  0  0  0  0  0  0  0  0
    6.8891  -15.3400   20.9114 C   0  0  0  0  0  0  0  0  0  0  0  0
    5.9739  -15.5187   19.8829 C   0  0  0  0  0  0  0  0  0  0  0  0
    5.8769  -14.4083   19.1500 N   0  0  0  0  0  0  0  0  0  0  0  0
    6.7253  -13.5213   19.7037 C   0  0  0  0  0  0  0  0  0  0  0  0
    7.0341  -12.2268   19.3525 C   0  0  0  0  0  0  0  0  0  0  0  0
    7.9499  -11.4710   20.0434 C   0  0  0  0  0  0  0  0  0  0  0  0
    8.5840  -12.0113   21.1188 C   0  0  0  0  0  0  0  0  0  0  0  0
    8.2895  -13.3081   21.4890 C   0  0  0  0  0  0  0  0  0  0  0  0
    7.3677  -14.0880   20.8068 C   0  0  0  0  0  0  0  0  0  0  0  0
    8.9477  -17.9250   22.7328 C   0  0  0  0  0  0  0  0  0  0  0  0
    8.3209  -18.9565   23.0892 O   0  0  0  0  0  0  0  0  0  0  0  0
   12.3621  -19.2524   22.8105 C   0  0  0  0  0  0  0  0  0  0  0  0
   12.3235  -18.3621   24.0444 C   0  0  1  0  0  0  0  0  0  0  0  0
   12.7791  -16.9927   23.5150 C   0  0  0  0  0  0  0  0  0  0  0  0
   10.8556  -18.1347   24.4743 C   0  0  2  0  0  0  0  0  0  0  0  0
   10.0985  -17.5317   23.3882 N   0  0  0  0  0  0  0  0  0  0  0  0
   10.8737  -17.1789   25.5936 C   0  0  0  0  0  0  0  0  0  0  0  0
   11.6648  -16.1685   25.5065 O   0  0  0  0  0  0  0  0  0  0  0  0
   10.1162  -17.2193   26.7746 N   0  0  0  0  0  0  0  0  0  0  0  0
   10.4295  -16.4209   27.9595 C   0  0  1  0  0  0  0  0  0  0  0  0
    9.1060  -15.8470   28.3936 C   0  0  0  0  0  0  0  0  0  0  0  0
    8.2555  -15.3696   27.3071 C   0  0  0  0  0  0  0  0  0  0  0  0
    7.3293  -16.1457   26.5966 C   0  0  0  0  0  0  0  0  0  0  0  0
    6.7454  -15.4119   25.6498 N   0  0  0  0  0  0  0  0  0  0  0  0
    7.2411  -14.1707   25.6946 C   0  0  0  0  0  0  0  0  0  0  0  0
    6.9983  -13.0079   24.9772 C   0  0  0  0  0  0  0  0  0  0  0  0
    7.6646  -11.8608   25.2757 C   0  0  0  0  0  0  0  0  0  0  0  0
    8.5990  -11.7978   26.2893 C   0  0  0  0  0  0  0  0  0  0  0  0
    8.8513  -12.9299   27.0040 C   0  0  0  0  0  0  0  0  0  0  0  0
    8.1851  -14.1135   26.7185 C   0  0  0  0  0  0  0  0  0  0  0  0
   11.0946  -17.1243   29.0239 C   0  0  0  0  0  0  0  0  0  0  0  0
   11.2377  -18.3698   28.9827 O   0  0  0  0  0  0  0  0  0  0  0  0
   11.6012  -16.4622   30.1297 O   0  0  0  0  0  0  0  0  0  0  0  0
  2  1  1  6
  3  2  1  0
  4  3  1  0
  4  5  2  0
  6  5  1  0
  7 12  2  0
  7  6  1  0
  8  7  1  0
  9 10  1  0
  9  8  2  0
 10 11  2  0
 11 12  1  0
 12  4  1  0
 13  2  1  0
 14 13  2  0
 16 15  1  6
 16 18  1  0
 17 16  1  0
 18 20  1  0
 18 19  1  6
 19 13  1  0
 20 21  2  0
 22 23  1  0
 22 20  1  0
 23 24  1  1
 24 25  1  0
 25 33  1  0
 26 25  2  0
 26 27  1  0
 27 28  1  0
 28 29  1  0
 29 30  2  0
 31 30  1  0
 32 31  2  0
 33 28  2  0
 33 32  1  0
 34 36  1  0
 34 23  1  0
 35 34  2  0
M  END
$$$$
