WVW.pdb
     RDKit          3D

 36 39  0  0  1  0  0  0  0  0999 V2000
    6.1351  -19.5652   20.2481 N   0  0  0  0  0  0  0  0  0  0  0  0
    6.0402  -18.3414   20.9697 C   0  0  1  0  0  0  0  0  0  0  0  0
    5.6310  -18.4842   22.3823 C   0  0  0  0  0  0  0  0  0  0  0  0
    4.3735  -19.2293   22.5075 C   0  0  0  0  0  0  0  0  0  0  0  0
    4.1863  -20.2424   23.4379 C   0  0  0  0  0  0  0  0  0  0  0  0
    2.9428  -20.7193   23.3606 N   0  0  0  0  0  0  0  0  0  0  0  0
    2.3345  -20.0173   22.3858 C   0  0  0  0  0  0  0  0  0  0  0  0
    1.0570  -20.0952   21.8796 C   0  0  0  0  0  0  0  0  0  0  0  0
    0.6151  -19.2892   20.8587 C   0  0  0  0  0  0  0  0  0  0  0  0
    1.4635  -18.3738   20.3174 C   0  0  0  0  0  0  0  0  0  0  0  0
    2.7494  -18.2783   20.8099 C   0  0  0  0  0  0  0  0  0  0  0  0
    3.2156  -19.0808   21.8405 C   0  0  0  0  0  0  0  0  0  0  0  0
    7.2341  -17.4316   20.7925 C   0  0  0  0  0  0  0  0  0  0  0  0
    8.3023  -17.9377   20.3606 O   0  0  0  0  0  0  0  0  0  0  0  0
    8.4732  -12.5294   21.0288 C   0  0  0  0  0  0  0  0  0  0  0  0
    7.4516  -13.6423   21.2139 C   0  0  1  0  0  0  0  0  0  0  0  0
    6.5409  -13.5040   19.9832 C   0  0  0  0  0  0  0  0  0  0  0  0
    8.1395  -15.0145   21.0259 C   0  0  2  0  0  0  0  0  0  0  0  0
    7.1577  -16.0857   21.0948 N   0  0  0  0  0  0  0  0  0  0  0  0
    9.0743  -15.1894   22.1494 C   0  0  0  0  0  0  0  0  0  0  0  0
   10.1623  -14.5034   22.1366 O   0  0  0  0  0  0  0  0  0  0  0  0
    8.9306  -16.0235   23.2692 N   0  0  0  0  0  0  0  0  0  0  0  0
    9.8983  -16.0740   24.3649 C   0  0  1  0  0  0  0  0  0  0  0  0
    9.0603  -16.2269   25.6073 C   0  0  0  0  0  0  0  0  0  0  0  0
    7.9525  -15.2828   25.7232 C   0  0  0  0  0  0  0  0  0  0  0  0
    6.6080  -15.5668   25.4461 C   0  0  0  0  0  0  0  0  0  0  0  0
    5.8627  -14.4759   25.6205 N   0  0  0  0  0  0  0  0  0  0  0  0
    6.6522  -13.4674   26.0052 C   0  0  0  0  0  0  0  0  0  0  0  0
    6.4279  -12.1390   26.3381 C   0  0  0  0  0  0  0  0  0  0  0  0
    7.4590  -11.3399   26.7217 C   0  0  0  0  0  0  0  0  0  0  0  0
    8.7568  -11.8029   26.7977 C   0  0  0  0  0  0  0  0  0  0  0  0
    8.9964  -13.1043   26.4738 C   0  0  0  0  0  0  0  0  0  0  0  0
    7.9613  -13.9401   26.0784 C   0  0  0  0  0  0  0  0  0  0  0  0
   10.9055  -17.0958   24.2569 C   0  0  0  0  0  0  0  0  0  0  0  0
   10.8727  -17.9375   23.3276 O   0  0  0  0  0  0  0  0  0  0  0  0
   11.9455  -17.1926   25.1662 O   0  0  0  0  0  0  0  0  0  0  0  0
  2  1  1  1
  3  2  1  0
  4  3  1  0
  4  5  2  0
  6  5  1  0
  7 12  2  0
  7  6  1  0
  8  7  1  0
  9 10  1  0
  9  8  2  0
 10 11  2  0
 11 12  1  0
 12  4  1  0
 13  2  1  0
 14 13  2  0
 16 15  1  6
 16 18  1  0
 17 16  1  0
 18 20  1  0
 18 19  1  1
 19 13  1  0
 20 21  2  0
 22 23  1  0
 22 20  1  0
 23 24  1  1
 24 25  1  0
 25 33  1  0
 26 25  2  0
 26 27  1  0
 27 28  1  0
 28 29  1  0
 29 30  2  0
 31 30  1  0
 32 31  2  0
 33 28  2  0
 33 32  1  0
 34 36  1  0
 34 23  1  0
 35 34  2  0
M  END
$$$$
