WVW.pdb
     RDKit          3D

 36 39  0  0  1  0  0  0  0  0999 V2000
    9.0187  -16.7114   20.5447 N   0  0  0  0  0  0  0  0  0  0  0  0
    8.5545  -16.0935   21.7406 C   0  0  1  0  0  0  0  0  0  0  0  0
    7.2315  -15.4448   21.6306 C   0  0  0  0  0  0  0  0  0  0  0  0
    7.2451  -14.3535   20.6505 C   0  0  0  0  0  0  0  0  0  0  0  0
    6.1149  -13.6142   20.3287 C   0  0  0  0  0  0  0  0  0  0  0  0
    6.4189  -12.6636   19.4434 N   0  0  0  0  0  0  0  0  0  0  0  0
    7.7364  -12.7916   19.1970 C   0  0  0  0  0  0  0  0  0  0  0  0
    8.5717  -12.0847   18.3621 C   0  0  0  0  0  0  0  0  0  0  0  0
    9.9082  -12.3752   18.2334 C   0  0  0  0  0  0  0  0  0  0  0  0
   10.4399  -13.3996   18.9535 C   0  0  0  0  0  0  0  0  0  0  0  0
    9.6204  -14.1219   19.7973 C   0  0  0  0  0  0  0  0  0  0  0  0
    8.2694  -13.8449   19.9435 C   0  0  0  0  0  0  0  0  0  0  0  0
    8.6820  -16.9644   22.9695 C   0  0  0  0  0  0  0  0  0  0  0  0
    7.6423  -17.1935   23.6405 O   0  0  0  0  0  0  0  0  0  0  0  0
   11.4141  -20.0813   23.1049 C   0  0  0  0  0  0  0  0  0  0  0  0
   11.6333  -19.0321   24.1853 C   0  0  1  0  0  0  0  0  0  0  0  0
   12.4928  -17.9674   23.4846 C   0  0  0  0  0  0  0  0  0  0  0  0
   10.2996  -18.3085   24.4839 C   0  0  2  0  0  0  0  0  0  0  0  0
    9.9012  -17.4936   23.3465 N   0  0  0  0  0  0  0  0  0  0  0  0
   10.5404  -17.4051   25.6208 C   0  0  0  0  0  0  0  0  0  0  0  0
   11.3794  -16.4441   25.4559 O   0  0  0  0  0  0  0  0  0  0  0  0
    9.9551  -17.4484   26.8959 N   0  0  0  0  0  0  0  0  0  0  0  0
   10.4947  -16.7361   28.0539 C   0  0  1  0  0  0  0  0  0  0  0  0
    9.2946  -16.0952   28.7007 C   0  0  0  0  0  0  0  0  0  0  0  0
    8.2761  -15.6161   27.7706 C   0  0  0  0  0  0  0  0  0  0  0  0
    7.2977  -16.4091   27.1550 C   0  0  0  0  0  0  0  0  0  0  0  0
    6.5500  -15.6658   26.3399 N   0  0  0  0  0  0  0  0  0  0  0  0
    6.9854  -14.4021   26.3825 C   0  0  0  0  0  0  0  0  0  0  0  0
    6.5864  -13.2225   25.7700 C   0  0  0  0  0  0  0  0  0  0  0  0
    7.2311  -12.0550   26.0346 C   0  0  0  0  0  0  0  0  0  0  0  0
    8.2957  -11.9869   26.9102 C   0  0  0  0  0  0  0  0  0  0  0  0
    8.7022  -13.1352   27.5203 C   0  0  0  0  0  0  0  0  0  0  0  0
    8.0612  -14.3398   27.2665 C   0  0  0  0  0  0  0  0  0  0  0  0
   11.2499  -17.5382   28.9794 C   0  0  0  0  0  0  0  0  0  0  0  0
   11.8255  -17.0163   29.9641 O   0  0  0  0  0  0  0  0  0  0  0  0
   11.3723  -18.9089   28.8243 O   0  0  0  0  0  0  0  0  0  0  0  0
  2  1  1  6
  3  2  1  0
  4  3  1  0
  4  5  2  0
  6  5  1  0
  7 12  2  0
  7  6  1  0
  8  7  1  0
  9 10  1  0
  9  8  2  0
 10 11  2  0
 11 12  1  0
 12  4  1  0
 13  2  1  0
 14 13  2  0
 16 15  1  6
 16 18  1  0
 17 16  1  0
 18 20  1  0
 18 19  1  6
 19 13  1  0
 20 21  2  0
 22 23  1  0
 22 20  1  0
 23 24  1  1
 24 25  1  0
 25 33  1  0
 26 25  2  0
 26 27  1  0
 27 28  1  0
 28 29  1  0
 29 30  2  0
 31 30  1  0
 32 31  2  0
 33 28  2  0
 33 32  1  0
 34 36  1  0
 34 23  1  0
 35 34  2  0
M  END
$$$$
