WVW.pdb
     RDKit          3D

 36 39  0  0  1  0  0  0  0  0999 V2000
    9.8833  -18.5333   19.0934 N   0  0  0  0  0  0  0  0  0  0  0  0
    9.2729  -18.1144   20.3098 C   0  0  1  0  0  0  0  0  0  0  0  0
    9.3882  -19.0767   21.4252 C   0  0  0  0  0  0  0  0  0  0  0  0
    8.5110  -20.2363   21.2308 C   0  0  0  0  0  0  0  0  0  0  0  0
    8.8284  -21.2887   20.3829 C   0  0  0  0  0  0  0  0  0  0  0  0
    7.8775  -22.2233   20.4273 N   0  0  0  0  0  0  0  0  0  0  0  0
    6.9540  -21.7740   21.2982 C   0  0  0  0  0  0  0  0  0  0  0  0
    5.7648  -22.3255   21.7177 C   0  0  0  0  0  0  0  0  0  0  0  0
    4.9368  -21.7013   22.6189 C   0  0  0  0  0  0  0  0  0  0  0  0
    5.2942  -20.4899   23.1241 C   0  0  0  0  0  0  0  0  0  0  0  0
    6.4830  -19.9183   22.7173 C   0  0  0  0  0  0  0  0  0  0  0  0
    7.3341  -20.5314   21.8100 C   0  0  0  0  0  0  0  0  0  0  0  0
    9.6210  -16.7004   20.7147 C   0  0  0  0  0  0  0  0  0  0  0  0
   10.8285  -16.3506   20.6567 O   0  0  0  0  0  0  0  0  0  0  0  0
    7.9555  -13.1547   20.0307 C   0  0  0  0  0  0  0  0  0  0  0  0
    7.6445  -13.5889   21.4558 C   0  0  1  0  0  0  0  0  0  0  0  0
    6.3650  -14.4279   21.3059 C   0  0  0  0  0  0  0  0  0  0  0  0
    8.7102  -14.6025   21.9336 C   0  0  2  0  0  0  0  0  0  0  0  0
    8.6457  -15.8174   21.1361 N   0  0  0  0  0  0  0  0  0  0  0  0
    8.3787  -14.9592   23.3227 C   0  0  0  0  0  0  0  0  0  0  0  0
    7.4478  -15.8261   23.5133 O   0  0  0  0  0  0  0  0  0  0  0  0
    8.9640  -14.4716   24.5016 N   0  0  0  0  0  0  0  0  0  0  0  0
    8.6271  -14.9718   25.8342 C   0  0  1  0  0  0  0  0  0  0  0  0
    8.9324  -16.4459   25.7769 C   0  0  0  0  0  0  0  0  0  0  0  0
   10.3507  -16.7845   25.8513 C   0  0  0  0  0  0  0  0  0  0  0  0
   11.0969  -16.9114   27.0312 C   0  0  0  0  0  0  0  0  0  0  0  0
   12.3669  -17.1946   26.7434 N   0  0  0  0  0  0  0  0  0  0  0  0
   12.5061  -17.2645   25.4152 C   0  0  0  0  0  0  0  0  0  0  0  0
   13.5720  -17.5372   24.5694 C   0  0  0  0  0  0  0  0  0  0  0  0
   13.3961  -17.5566   23.2213 C   0  0  0  0  0  0  0  0  0  0  0  0
   12.1698  -17.3105   22.6379 C   0  0  0  0  0  0  0  0  0  0  0  0
   11.1118  -17.0400   23.4525 C   0  0  0  0  0  0  0  0  0  0  0  0
   11.2656  -17.0134   24.8316 C   0  0  0  0  0  0  0  0  0  0  0  0
    9.2938  -14.3188   26.9293 C   0  0  0  0  0  0  0  0  0  0  0  0
    9.0557  -14.6462   28.1164 O   0  0  0  0  0  0  0  0  0  0  0  0
   10.2193  -13.3098   26.7213 O   0  0  0  0  0  0  0  0  0  0  0  0
  2  1  1  6
  3  2  1  0
  4  3  1  0
  4  5  2  0
  6  5  1  0
  7 12  2  0
  7  6  1  0
  8  7  1  0
  9 10  1  0
  9  8  2  0
 10 11  2  0
 11 12  1  0
 12  4  1  0
 13  2  1  0
 14 13  2  0
 16 15  1  6
 16 18  1  0
 17 16  1  0
 18 20  1  0
 18 19  1  6
 19 13  1  0
 20 21  2  0
 22 23  1  0
 22 20  1  0
 23 24  1  6
 24 25  1  0
 25 33  1  0
 26 25  2  0
 26 27  1  0
 27 28  1  0
 28 29  1  0
 29 30  2  0
 31 30  1  0
 32 31  2  0
 33 28  2  0
 33 32  1  0
 34 36  1  0
 34 23  1  0
 35 34  2  0
M  END
$$$$
