WVW.pdb
     RDKit          3D

 36 39  0  0  1  0  0  0  0  0999 V2000
    6.3982  -20.0203   20.5891 N   0  0  0  0  0  0  0  0  0  0  0  0
    6.2579  -18.6415   20.9160 C   0  0  1  0  0  0  0  0  0  0  0  0
    5.6601  -18.3757   22.2409 C   0  0  0  0  0  0  0  0  0  0  0  0
    4.3912  -19.0911   22.4141 C   0  0  0  0  0  0  0  0  0  0  0  0
    4.0908  -19.8303   23.5501 C   0  0  0  0  0  0  0  0  0  0  0  0
    2.8610  -20.3395   23.4606 N   0  0  0  0  0  0  0  0  0  0  0  0
    2.3741  -19.9306   22.2737 C   0  0  0  0  0  0  0  0  0  0  0  0
    1.1627  -20.1675   21.6647 C   0  0  0  0  0  0  0  0  0  0  0  0
    0.8470  -19.6664   20.4251 C   0  0  0  0  0  0  0  0  0  0  0  0
    1.7587  -18.9047   19.7623 C   0  0  0  0  0  0  0  0  0  0  0  0
    2.9802  -18.6543   20.3546 C   0  0  0  0  0  0  0  0  0  0  0  0
    3.3189  -19.1488   21.6052 C   0  0  0  0  0  0  0  0  0  0  0  0
    7.5003  -17.8208   20.6561 C   0  0  0  0  0  0  0  0  0  0  0  0
    8.6074  -18.4187   20.6306 O   0  0  0  0  0  0  0  0  0  0  0  0
    6.9017  -13.7632   21.3004 C   0  0  0  0  0  0  0  0  0  0  0  0
    7.8035  -14.0463   20.1075 C   0  0  1  0  0  0  0  0  0  0  0  0
    8.9706  -13.0639   20.2969 C   0  0  0  0  0  0  0  0  0  0  0  0
    8.4510  -15.4416   20.2664 C   0  0  2  0  0  0  0  0  0  0  0  0
    7.4255  -16.4564   20.4529 N   0  0  0  0  0  0  0  0  0  0  0  0
    9.2719  -15.4032   21.4877 C   0  0  0  0  0  0  0  0  0  0  0  0
   10.2521  -14.5711   21.5254 O   0  0  0  0  0  0  0  0  0  0  0  0
    9.1199  -16.1699   22.6535 N   0  0  0  0  0  0  0  0  0  0  0  0
    9.9302  -15.9761   23.8558 C   0  0  1  0  0  0  0  0  0  0  0  0
    9.6166  -14.5728   24.3050 C   0  0  0  0  0  0  0  0  0  0  0  0
    8.3506  -14.4222   25.0165 C   0  0  0  0  0  0  0  0  0  0  0  0
    7.3110  -15.3623   25.0371 C   0  0  0  0  0  0  0  0  0  0  0  0
    6.2860  -14.8983   25.7512 N   0  0  0  0  0  0  0  0  0  0  0  0
    6.5942  -13.6820   26.2139 C   0  0  0  0  0  0  0  0  0  0  0  0
    5.9333  -12.7553   27.0078 C   0  0  0  0  0  0  0  0  0  0  0  0
    6.5291  -11.5780   27.3360 C   0  0  0  0  0  0  0  0  0  0  0  0
    7.7984  -11.2524   26.9031 C   0  0  0  0  0  0  0  0  0  0  0  0
    8.4623  -12.1496   26.1219 C   0  0  0  0  0  0  0  0  0  0  0  0
    7.8758  -13.3579   25.7723 C   0  0  0  0  0  0  0  0  0  0  0  0
    9.7283  -16.9420   24.9028 C   0  0  0  0  0  0  0  0  0  0  0  0
    8.7657  -17.7452   24.8619 O   0  0  0  0  0  0  0  0  0  0  0  0
   10.5809  -17.0260   25.9909 O   0  0  0  0  0  0  0  0  0  0  0  0
  2  1  1  1
  3  2  1  0
  4  3  1  0
  4  5  2  0
  6  5  1  0
  7 12  2  0
  7  6  1  0
  8  7  1  0
  9 10  1  0
  9  8  2  0
 10 11  2  0
 11 12  1  0
 12  4  1  0
 13  2  1  0
 14 13  2  0
 16 15  1  1
 16 18  1  0
 17 16  1  0
 18 20  1  0
 18 19  1  1
 19 13  1  0
 20 21  2  0
 22 23  1  0
 22 20  1  0
 23 24  1  1
 24 25  1  0
 25 33  1  0
 26 25  2  0
 26 27  1  0
 27 28  1  0
 28 29  1  0
 29 30  2  0
 31 30  1  0
 32 31  2  0
 33 28  2  0
 33 32  1  0
 34 36  1  0
 34 23  1  0
 35 34  2  0
M  END
$$$$
