WVW.pdb
     RDKit          3D

 36 39  0  0  1  0  0  0  0  0999 V2000
    7.5609  -19.5211   26.8259 N   0  0  0  0  0  0  0  0  0  0  0  0
    7.6782  -18.4656   25.8774 C   0  0  1  0  0  0  0  0  0  0  0  0
    8.2502  -17.2123   26.4115 C   0  0  0  0  0  0  0  0  0  0  0  0
    7.2346  -16.1595   26.5224 C   0  0  0  0  0  0  0  0  0  0  0  0
    5.8852  -16.4292   26.7053 C   0  0  0  0  0  0  0  0  0  0  0  0
    5.1953  -15.2925   26.8129 N   0  0  0  0  0  0  0  0  0  0  0  0
    6.0959  -14.2980   26.6990 C   0  0  0  0  0  0  0  0  0  0  0  0
    5.9395  -12.9307   26.7257 C   0  0  0  0  0  0  0  0  0  0  0  0
    6.9937  -12.0623   26.5783 C   0  0  0  0  0  0  0  0  0  0  0  0
    8.2468  -12.5600   26.3977 C   0  0  0  0  0  0  0  0  0  0  0  0
    8.4268  -13.9282   26.3678 C   0  0  0  0  0  0  0  0  0  0  0  0
    7.3772  -14.8226   26.5160 C   0  0  0  0  0  0  0  0  0  0  0  0
    8.3038  -18.8861   24.5672 C   0  0  0  0  0  0  0  0  0  0  0  0
    9.3477  -19.5877   24.6104 O   0  0  0  0  0  0  0  0  0  0  0  0
    6.9551  -16.7705   20.9694 C   0  0  0  0  0  0  0  0  0  0  0  0
    7.0697  -18.2878   21.0006 C   0  0  1  0  0  0  0  0  0  0  0  0
    7.6372  -18.6350   19.6147 C   0  0  0  0  0  0  0  0  0  0  0  0
    8.1880  -18.7034   21.9846 C   0  0  2  0  0  0  0  0  0  0  0  0
    7.7489  -18.5128   23.3584 N   0  0  0  0  0  0  0  0  0  0  0  0
    9.3297  -17.8045   21.7496 C   0  0  0  0  0  0  0  0  0  0  0  0
    9.9613  -17.9164   20.6347 O   0  0  0  0  0  0  0  0  0  0  0  0
    9.8322  -16.8077   22.6005 N   0  0  0  0  0  0  0  0  0  0  0  0
   11.0299  -16.0229   22.3019 C   0  0  1  0  0  0  0  0  0  0  0  0
   10.6321  -14.5976   22.5836 C   0  0  0  0  0  0  0  0  0  0  0  0
    9.3540  -14.1894   22.0077 C   0  0  0  0  0  0  0  0  0  0  0  0
    8.1040  -14.3114   22.6305 C   0  0  0  0  0  0  0  0  0  0  0  0
    7.1415  -13.8760   21.8181 N   0  0  0  0  0  0  0  0  0  0  0  0
    7.6939  -13.4642   20.6719 C   0  0  0  0  0  0  0  0  0  0  0  0
    7.1914  -12.9129   19.5017 C   0  0  0  0  0  0  0  0  0  0  0  0
    8.0277  -12.5671   18.4869 C   0  0  0  0  0  0  0  0  0  0  0  0
    9.3938  -12.7442   18.5695 C   0  0  0  0  0  0  0  0  0  0  0  0
    9.9053  -13.2850   19.7105 C   0  0  0  0  0  0  0  0  0  0  0  0
    9.0727  -13.6472   20.7603 C   0  0  0  0  0  0  0  0  0  0  0  0
   12.2185  -16.4088   23.0148 C   0  0  0  0  0  0  0  0  0  0  0  0
   12.1623  -17.2184   23.9712 O   0  0  0  0  0  0  0  0  0  0  0  0
   13.4649  -15.9075   22.6784 O   0  0  0  0  0  0  0  0  0  0  0  0
  2  1  1  1
  3  2  1  0
  4  3  1  0
  4  5  2  0
  6  5  1  0
  7 12  2  0
  7  6  1  0
  8  7  1  0
  9 10  1  0
  9  8  2  0
 10 11  2  0
 11 12  1  0
 12  4  1  0
 13  2  1  0
 14 13  2  0
 16 15  1  6
 16 18  1  0
 17 16  1  0
 18 20  1  0
 18 19  1  1
 19 13  1  0
 20 21  2  0
 22 23  1  0
 22 20  1  0
 23 24  1  1
 24 25  1  0
 25 33  1  0
 26 25  2  0
 26 27  1  0
 27 28  1  0
 28 29  1  0
 29 30  2  0
 31 30  1  0
 32 31  2  0
 33 28  2  0
 33 32  1  0
 34 36  1  0
 34 23  1  0
 35 34  2  0
M  END
$$$$
