WVW.pdb
     RDKit          3D

 36 39  0  0  1  0  0  0  0  0999 V2000
    6.4361  -19.7970   21.1580 N   0  0  0  0  0  0  0  0  0  0  0  0
    6.1645  -18.4153   21.3693 C   0  0  1  0  0  0  0  0  0  0  0  0
    5.4572  -18.1078   22.6297 C   0  0  0  0  0  0  0  0  0  0  0  0
    4.2732  -18.9560   22.8052 C   0  0  0  0  0  0  0  0  0  0  0  0
    3.9696  -19.5894   24.0027 C   0  0  0  0  0  0  0  0  0  0  0  0
    2.8216  -20.2602   23.8946 N   0  0  0  0  0  0  0  0  0  0  0  0
    2.3902  -20.0598   22.6350 C   0  0  0  0  0  0  0  0  0  0  0  0
    1.2712  -20.5212   21.9797 C   0  0  0  0  0  0  0  0  0  0  0  0
    1.0025  -20.2141   20.6679 C   0  0  0  0  0  0  0  0  0  0  0  0
    1.8685  -19.4240   19.9777 C   0  0  0  0  0  0  0  0  0  0  0  0
    2.9972  -18.9499   20.6153 C   0  0  0  0  0  0  0  0  0  0  0  0
    3.2870  -19.2464   21.9388 C   0  0  0  0  0  0  0  0  0  0  0  0
    7.3529  -17.5133   21.1268 C   0  0  0  0  0  0  0  0  0  0  0  0
    8.5034  -18.0109   21.2381 O   0  0  0  0  0  0  0  0  0  0  0  0
    6.6353  -13.3192   21.7502 C   0  0  0  0  0  0  0  0  0  0  0  0
    7.3556  -13.7456   20.4791 C   0  0  1  0  0  0  0  0  0  0  0  0
    8.4665  -12.6943   20.3245 C   0  0  0  0  0  0  0  0  0  0  0  0
    8.1160  -15.0681   20.7326 C   0  0  2  0  0  0  0  0  0  0  0  0
    7.1838  -16.1833   20.7934 N   0  0  0  0  0  0  0  0  0  0  0  0
    8.7631  -14.9517   22.0496 C   0  0  0  0  0  0  0  0  0  0  0  0
    8.9673  -13.7701   22.5150 O   0  0  0  0  0  0  0  0  0  0  0  0
    9.1934  -15.9873   22.8937 N   0  0  0  0  0  0  0  0  0  0  0  0
   10.2506  -15.8257   23.8916 C   0  0  1  0  0  0  0  0  0  0  0  0
    9.5829  -16.1295   25.2074 C   0  0  0  0  0  0  0  0  0  0  0  0
    8.4054  -15.3180   25.5024 C   0  0  0  0  0  0  0  0  0  0  0  0
    7.0747  -15.7478   25.4043 C   0  0  0  0  0  0  0  0  0  0  0  0
    6.2460  -14.7505   25.7118 N   0  0  0  0  0  0  0  0  0  0  0  0
    6.9661  -13.6650   26.0143 C   0  0  0  0  0  0  0  0  0  0  0  0
    6.6462  -12.3752   26.4142 C   0  0  0  0  0  0  0  0  0  0  0  0
    7.6269  -11.4705   26.6762 C   0  0  0  0  0  0  0  0  0  0  0  0
    8.9655  -11.7852   26.5593 C   0  0  0  0  0  0  0  0  0  0  0  0
    9.2987  -13.0466   26.1670 C   0  0  0  0  0  0  0  0  0  0  0  0
    8.3165  -13.9881   25.8928 C   0  0  0  0  0  0  0  0  0  0  0  0
   11.4298  -16.6229   23.6813 C   0  0  0  0  0  0  0  0  0  0  0  0
   12.4433  -16.4782   24.4060 O   0  0  0  0  0  0  0  0  0  0  0  0
   11.4955  -17.5761   22.6789 O   0  0  0  0  0  0  0  0  0  0  0  0
  2  1  1  1
  3  2  1  0
  4  3  1  0
  4  5  2  0
  6  5  1  0
  7 12  2  0
  7  6  1  0
  8  7  1  0
  9 10  1  0
  9  8  2  0
 10 11  2  0
 11 12  1  0
 12  4  1  0
 13  2  1  0
 14 13  2  0
 16 15  1  1
 16 18  1  0
 17 16  1  0
 18 20  1  0
 18 19  1  1
 19 13  1  0
 20 21  2  0
 22 23  1  0
 22 20  1  0
 23 24  1  1
 24 25  1  0
 25 33  1  0
 26 25  2  0
 26 27  1  0
 27 28  1  0
 28 29  1  0
 29 30  2  0
 31 30  1  0
 32 31  2  0
 33 28  2  0
 33 32  1  0
 34 36  1  0
 34 23  1  0
 35 34  2  0
M  END
$$$$
