WVW.pdb
     RDKit          3D

 36 39  0  0  1  0  0  0  0  0999 V2000
    5.9839  -18.4475   23.9339 N   0  0  0  0  0  0  0  0  0  0  0  0
    6.1197  -17.3495   23.0376 C   0  0  1  0  0  0  0  0  0  0  0  0
    5.5194  -16.0847   23.5104 C   0  0  0  0  0  0  0  0  0  0  0  0
    5.8148  -15.8433   24.9269 C   0  0  0  0  0  0  0  0  0  0  0  0
    5.5292  -16.7650   25.9249 C   0  0  0  0  0  0  0  0  0  0  0  0
    5.9370  -16.3072   27.1097 N   0  0  0  0  0  0  0  0  0  0  0  0
    6.4809  -15.0981   26.8748 C   0  0  0  0  0  0  0  0  0  0  0  0
    7.0469  -14.1808   27.7307 C   0  0  0  0  0  0  0  0  0  0  0  0
    7.5456  -12.9756   27.2994 C   0  0  0  0  0  0  0  0  0  0  0  0
    7.4836  -12.6637   25.9767 C   0  0  0  0  0  0  0  0  0  0  0  0
    6.9201  -13.5691   25.1003 C   0  0  0  0  0  0  0  0  0  0  0  0
    6.4122  -14.7915   25.5139 C   0  0  0  0  0  0  0  0  0  0  0  0
    7.5196  -17.1698   22.4966 C   0  0  0  0  0  0  0  0  0  0  0  0
    8.2303  -18.1975   22.3466 O   0  0  0  0  0  0  0  0  0  0  0  0
    7.1396  -13.9026   20.5097 C   0  0  0  0  0  0  0  0  0  0  0  0
    8.6414  -14.0367   20.7163 C   0  0  1  0  0  0  0  0  0  0  0  0
    8.9150  -13.1622   21.9507 C   0  0  0  0  0  0  0  0  0  0  0  0
    8.9743  -15.4721   21.1857 C   0  0  2  0  0  0  0  0  0  0  0  0
    8.0063  -15.9171   22.1763 N   0  0  0  0  0  0  0  0  0  0  0  0
   10.2929  -15.4213   21.8379 C   0  0  0  0  0  0  0  0  0  0  0  0
   11.3198  -15.1946   21.0973 O   0  0  0  0  0  0  0  0  0  0  0  0
   10.5882  -15.5846   23.2004 N   0  0  0  0  0  0  0  0  0  0  0  0
   11.8774  -16.0699   23.6921 C   0  0  1  0  0  0  0  0  0  0  0  0
   11.5417  -16.8518   24.9353 C   0  0  0  0  0  0  0  0  0  0  0  0
   10.6990  -16.1473   25.8972 C   0  0  0  0  0  0  0  0  0  0  0  0
    9.4550  -16.5900   26.3679 C   0  0  0  0  0  0  0  0  0  0  0  0
    8.9368  -15.6951   27.2084 N   0  0  0  0  0  0  0  0  0  0  0  0
    9.7834  -14.6663   27.3237 C   0  0  0  0  0  0  0  0  0  0  0  0
    9.7752  -13.4869   28.0549 C   0  0  0  0  0  0  0  0  0  0  0  0
   10.8200  -12.6200   27.9783 C   0  0  0  0  0  0  0  0  0  0  0  0
   11.9208  -12.8664   27.1834 C   0  0  0  0  0  0  0  0  0  0  0  0
   11.9461  -14.0190   26.4576 C   0  0  0  0  0  0  0  0  0  0  0  0
   10.8919  -14.9197   26.5177 C   0  0  0  0  0  0  0  0  0  0  0  0
   12.6490  -16.8413   22.7542 C   0  0  0  0  0  0  0  0  0  0  0  0
   12.2052  -17.0947   21.6088 O   0  0  0  0  0  0  0  0  0  0  0  0
   13.9041  -17.3323   23.0730 O   0  0  0  0  0  0  0  0  0  0  0  0
  2  1  1  1
  3  2  1  0
  4  3  1  0
  4  5  2  0
  6  5  1  0
  7 12  2  0
  7  6  1  0
  8  7  1  0
  9 10  1  0
  9  8  2  0
 10 11  2  0
 11 12  1  0
 12  4  1  0
 13  2  1  0
 14 13  2  0
 16 15  1  1
 16 18  1  0
 17 16  1  0
 18 20  1  0
 18 19  1  1
 19 13  1  0
 20 21  2  0
 22 23  1  0
 22 20  1  0
 23 24  1  1
 24 25  1  0
 25 33  1  0
 26 25  2  0
 26 27  1  0
 27 28  1  0
 28 29  1  0
 29 30  2  0
 31 30  1  0
 32 31  2  0
 33 28  2  0
 33 32  1  0
 34 36  1  0
 34 23  1  0
 35 34  2  0
M  END
$$$$
