HQG.pdb
     RDKit          3D

 24 24  0  0  1  0  0  0  0  0999 V2000
   21.5000  -11.5893  -18.1023 N   0  0  0  0  0  0  0  0  0  0  0  0
   22.2014  -10.3554  -18.3297 C   0  0  1  0  0  0  0  0  0  0  0  0
   21.3224   -9.3932  -19.0996 C   0  0  0  0  0  0  0  0  0  0  0  0
   21.0602  -10.0005  -20.4293 C   0  0  0  0  0  0  0  0  0  0  0  0
   21.9624  -10.5176  -21.3325 C   0  0  0  0  0  0  0  0  0  0  0  0
   21.3040  -10.9727  -22.4230 N   0  0  0  0  0  0  0  0  0  0  0  0
   19.9974  -10.7459  -22.2122 C   0  0  0  0  0  0  0  0  0  0  0  0
   19.8391  -10.1617  -21.0166 N   0  0  0  0  0  0  0  0  0  0  0  0
   22.6555   -9.7420  -17.0373 C   0  0  0  0  0  0  0  0  0  0  0  0
   21.9295   -9.6596  -16.0256 O   0  0  0  0  0  0  0  0  0  0  0  0
   27.7755  -10.3328  -16.9452 N   0  0  0  0  0  0  0  0  0  0  0  0
   27.0407  -11.1236  -16.0386 C   0  0  0  0  0  0  0  0  0  0  0  0
   27.3261  -12.3486  -16.0209 O   0  0  0  0  0  0  0  0  0  0  0  0
   25.9983  -10.6302  -15.1423 C   0  0  0  0  0  0  0  0  0  0  0  0
   25.8524   -9.1432  -15.2978 C   0  0  0  0  0  0  0  0  0  0  0  0
   24.4760   -8.7099  -15.6648 C   0  0  2  0  0  0  0  0  0  0  0  0
   23.9641   -9.2099  -16.8901 N   0  0  0  0  0  0  0  0  0  0  0  0
   24.4153   -7.2349  -15.6555 C   0  0  0  0  0  0  0  0  0  0  0  0
   25.3563   -6.5528  -16.1885 O   0  0  0  0  0  0  0  0  0  0  0  0
   23.3570   -6.4780  -15.0812 N   0  0  0  0  0  0  0  0  0  0  0  0
   23.3575   -5.0295  -15.0175 C   0  0  0  0  0  0  0  0  0  0  0  0
   22.0878   -4.5952  -14.3820 C   0  0  0  0  0  0  0  0  0  0  0  0
   21.8495   -3.2600  -14.0821 O   0  0  0  0  0  0  0  0  0  0  0  0
   21.1819   -5.4176  -14.0917 O   0  0  0  0  0  0  0  0  0  0  0  0
  2  1  1  1
  2  9  1  0
  3  2  1  0
  4  5  2  0
  4  3  1  0
  6  5  1  0
  7  8  2  0
  7  6  1  0
  8  4  1  0
  9 10  2  0
 11 12  1  0
 12 14  1  0
 13 12  2  0
 14 15  1  0
 16 15  1  6
 16 18  1  0
 17  9  1  0
 17 16  1  0
 18 20  1  0
 19 18  2  0
 20 21  1  0
 22 23  1  0
 22 21  1  0
 24 22  2  0
M  END
$$$$
