HQG.pdb
     RDKit          3D

 24 24  0  0  1  0  0  0  0  0999 V2000
   21.4584  -19.6779  -15.1781 N   0  0  0  0  0  0  0  0  0  0  0  0
   21.2514  -18.6018  -16.1081 C   0  0  1  0  0  0  0  0  0  0  0  0
   19.7911  -18.5279  -16.4997 C   0  0  0  0  0  0  0  0  0  0  0  0
   19.4787  -19.7545  -17.2766 C   0  0  0  0  0  0  0  0  0  0  0  0
   18.7532  -20.8588  -16.8871 C   0  0  0  0  0  0  0  0  0  0  0  0
   18.7076  -21.7535  -17.9006 N   0  0  0  0  0  0  0  0  0  0  0  0
   19.3976  -21.2208  -18.9221 C   0  0  0  0  0  0  0  0  0  0  0  0
   19.8657  -20.0190  -18.5581 N   0  0  0  0  0  0  0  0  0  0  0  0
   21.7150  -17.2933  -15.5375 C   0  0  0  0  0  0  0  0  0  0  0  0
   21.5433  -16.9664  -14.3454 O   0  0  0  0  0  0  0  0  0  0  0  0
   27.0455  -14.2617  -16.3268 N   0  0  0  0  0  0  0  0  0  0  0  0
   26.2230  -13.3839  -15.5920 C   0  0  0  0  0  0  0  0  0  0  0  0
   26.8002  -12.3931  -15.0747 O   0  0  0  0  0  0  0  0  0  0  0  0
   24.7843  -13.5425  -15.3958 C   0  0  0  0  0  0  0  0  0  0  0  0
   24.3212  -14.8258  -16.0244 C   0  0  0  0  0  0  0  0  0  0  0  0
   22.8677  -15.0931  -15.8435 C   0  0  2  0  0  0  0  0  0  0  0  0
   22.3891  -16.3337  -16.3387 N   0  0  0  0  0  0  0  0  0  0  0  0
   22.0952  -13.9814  -16.4324 C   0  0  0  0  0  0  0  0  0  0  0  0
   21.9030  -13.9349  -17.6955 O   0  0  0  0  0  0  0  0  0  0  0  0
   21.5238  -12.9153  -15.6842 N   0  0  0  0  0  0  0  0  0  0  0  0
   20.7438  -11.8503  -16.2839 C   0  0  0  0  0  0  0  0  0  0  0  0
   21.6437  -10.6917  -16.5122 C   0  0  0  0  0  0  0  0  0  0  0  0
   21.1579   -9.4834  -16.9954 O   0  0  0  0  0  0  0  0  0  0  0  0
   22.8772  -10.7598  -16.2775 O   0  0  0  0  0  0  0  0  0  0  0  0
  2  1  1  1
  2  9  1  0
  3  2  1  0
  4  5  2  0
  4  3  1  0
  6  5  1  0
  7  8  2  0
  7  6  1  0
  8  4  1  0
  9 10  2  0
 11 12  1  0
 12 14  1  0
 13 12  2  0
 14 15  1  0
 16 15  1  6
 16 18  1  0
 17  9  1  0
 17 16  1  0
 18 20  1  0
 19 18  2  0
 20 21  1  0
 22 23  1  0
 22 21  1  0
 24 22  2  0
M  END
$$$$
