HQG.pdb
     RDKit          3D

 24 24  0  0  1  0  0  0  0  0999 V2000
   20.5552  -12.9011  -16.9462 N   0  0  0  0  0  0  0  0  0  0  0  0
   19.9235  -11.6309  -16.7147 C   0  0  1  0  0  0  0  0  0  0  0  0
   19.2350  -11.6317  -15.3667 C   0  0  0  0  0  0  0  0  0  0  0  0
   18.1662  -12.6618  -15.4163 C   0  0  0  0  0  0  0  0  0  0  0  0
   16.9630  -12.6223  -16.0857 C   0  0  0  0  0  0  0  0  0  0  0  0
   16.2824  -13.7704  -15.8655 N   0  0  0  0  0  0  0  0  0  0  0  0
   17.0473  -14.5294  -15.0644 C   0  0  0  0  0  0  0  0  0  0  0  0
   18.1823  -13.8728  -14.7879 N   0  0  0  0  0  0  0  0  0  0  0  0
   20.9139  -10.5068  -16.8045 C   0  0  0  0  0  0  0  0  0  0  0  0
   21.9837  -10.4833  -16.1624 O   0  0  0  0  0  0  0  0  0  0  0  0
   24.3574   -8.8219  -19.9275 N   0  0  0  0  0  0  0  0  0  0  0  0
   24.1671   -7.4409  -19.7184 C   0  0  0  0  0  0  0  0  0  0  0  0
   25.1820   -6.7154  -19.8794 O   0  0  0  0  0  0  0  0  0  0  0  0
   22.9050   -6.8120  -19.3375 C   0  0  0  0  0  0  0  0  0  0  0  0
   21.8322   -7.8557  -19.2094 C   0  0  0  0  0  0  0  0  0  0  0  0
   21.6162   -8.3269  -17.8136 C   0  0  2  0  0  0  0  0  0  0  0  0
   20.6845   -9.3833  -17.6426 N   0  0  0  0  0  0  0  0  0  0  0  0
   21.2380   -7.1770  -16.9686 C   0  0  0  0  0  0  0  0  0  0  0  0
   20.0501   -6.7071  -17.0227 O   0  0  0  0  0  0  0  0  0  0  0  0
   22.1176   -6.5215  -16.0634 N   0  0  0  0  0  0  0  0  0  0  0  0
   21.7110   -5.4160  -15.2179 C   0  0  0  0  0  0  0  0  0  0  0  0
   21.6076   -5.9155  -13.8235 C   0  0  0  0  0  0  0  0  0  0  0  0
   21.9701   -5.1217  -12.7428 O   0  0  0  0  0  0  0  0  0  0  0  0
   21.1890   -7.0734  -13.5682 O   0  0  0  0  0  0  0  0  0  0  0  0
  2  1  1  1
  2  9  1  0
  3  2  1  0
  4  5  2  0
  4  3  1  0
  6  5  1  0
  7  8  2  0
  7  6  1  0
  8  4  1  0
  9 10  2  0
 11 12  1  0
 12 14  1  0
 13 12  2  0
 14 15  1  0
 16 15  1  6
 16 18  1  0
 17  9  1  0
 17 16  1  0
 18 20  1  0
 19 18  2  0
 20 21  1  0
 22 23  1  0
 22 21  1  0
 24 22  2  0
M  END
$$$$
