HQG.pdb
     RDKit          3D

 24 24  0  0  1  0  0  0  0  0999 V2000
   23.7682   -9.9535  -17.7480 N   0  0  0  0  0  0  0  0  0  0  0  0
   22.3579   -9.9305  -18.0246 C   0  0  1  0  0  0  0  0  0  0  0  0
   21.8405  -11.3420  -18.2005 C   0  0  0  0  0  0  0  0  0  0  0  0
   22.4785  -11.8983  -19.4209 C   0  0  0  0  0  0  0  0  0  0  0  0
   22.1786  -11.6443  -20.7410 C   0  0  0  0  0  0  0  0  0  0  0  0
   23.0027  -12.3598  -21.5403 N   0  0  0  0  0  0  0  0  0  0  0  0
   23.8166  -13.0601  -20.7338 C   0  0  0  0  0  0  0  0  0  0  0  0
   23.5104  -12.7904  -19.4573 N   0  0  0  0  0  0  0  0  0  0  0  0
   21.6027   -9.2194  -16.9398 C   0  0  0  0  0  0  0  0  0  0  0  0
   21.5447   -9.6302  -15.7629 O   0  0  0  0  0  0  0  0  0  0  0  0
   20.5989   -5.8139  -13.3103 N   0  0  0  0  0  0  0  0  0  0  0  0
   21.7940   -5.5755  -14.0188 C   0  0  0  0  0  0  0  0  0  0  0  0
   22.8165   -5.3647  -13.3171 O   0  0  0  0  0  0  0  0  0  0  0  0
   21.9222   -5.5572  -15.4737 C   0  0  0  0  0  0  0  0  0  0  0  0
   20.5856   -5.8182  -16.1078 C   0  0  0  0  0  0  0  0  0  0  0  0
   20.2331   -7.2622  -16.1934 C   0  0  2  0  0  0  0  0  0  0  0  0
   20.8969   -8.0141  -17.1972 N   0  0  0  0  0  0  0  0  0  0  0  0
   18.7708   -7.3942  -16.3465 C   0  0  0  0  0  0  0  0  0  0  0  0
   18.2436   -7.3550  -17.5106 O   0  0  0  0  0  0  0  0  0  0  0  0
   17.8624   -7.5683  -15.2660 N   0  0  0  0  0  0  0  0  0  0  0  0
   16.4348   -7.7455  -15.4468 C   0  0  0  0  0  0  0  0  0  0  0  0
   16.1688   -9.1952  -15.6255 C   0  0  0  0  0  0  0  0  0  0  0  0
   16.2439   -9.7950  -16.8761 O   0  0  0  0  0  0  0  0  0  0  0  0
   15.8662   -9.9338  -14.6538 O   0  0  0  0  0  0  0  0  0  0  0  0
  2  1  1  1
  2  9  1  0
  3  2  1  0
  4  5  2  0
  4  3  1  0
  6  5  1  0
  7  8  2  0
  7  6  1  0
  8  4  1  0
  9 10  2  0
 11 12  1  0
 12 14  1  0
 13 12  2  0
 14 15  1  0
 16 15  1  6
 16 18  1  0
 17  9  1  0
 17 16  1  0
 18 20  1  0
 19 18  2  0
 20 21  1  0
 22 23  1  0
 22 21  1  0
 24 22  2  0
M  END
$$$$
