HQG.pdb
     RDKit          3D

 24 24  0  0  1  0  0  0  0  0999 V2000
   17.5521  -13.4618  -15.6921 N   0  0  0  0  0  0  0  0  0  0  0  0
   17.6625  -12.2139  -16.3967 C   0  0  1  0  0  0  0  0  0  0  0  0
   16.2942  -11.5881  -16.5614 C   0  0  0  0  0  0  0  0  0  0  0  0
   15.5040  -12.4792  -17.4488 C   0  0  0  0  0  0  0  0  0  0  0  0
   15.4942  -12.5347  -18.8251 C   0  0  0  0  0  0  0  0  0  0  0  0
   14.6300  -13.4911  -19.2353 N   0  0  0  0  0  0  0  0  0  0  0  0
   14.0977  -14.0358  -18.1294 C   0  0  0  0  0  0  0  0  0  0  0  0
   14.6160  -13.4351  -17.0494 N   0  0  0  0  0  0  0  0  0  0  0  0
   18.5956  -11.2726  -15.6923 C   0  0  0  0  0  0  0  0  0  0  0  0
   18.5739  -11.0813  -14.4593 O   0  0  0  0  0  0  0  0  0  0  0  0
   24.6087  -10.9956  -15.7478 N   0  0  0  0  0  0  0  0  0  0  0  0
   24.2260   -9.8359  -15.0437 C   0  0  0  0  0  0  0  0  0  0  0  0
   25.1392   -9.2558  -14.4019 O   0  0  0  0  0  0  0  0  0  0  0  0
   22.8769   -9.2771  -15.0096 C   0  0  0  0  0  0  0  0  0  0  0  0
   21.9377  -10.1620  -15.7786 C   0  0  0  0  0  0  0  0  0  0  0  0
   20.5276   -9.6841  -15.7797 C   0  0  2  0  0  0  0  0  0  0  0  0
   19.5759  -10.5314  -16.4042 N   0  0  0  0  0  0  0  0  0  0  0  0
   20.4748   -8.3360  -16.3790 C   0  0  0  0  0  0  0  0  0  0  0  0
   20.3682   -8.2032  -17.6461 O   0  0  0  0  0  0  0  0  0  0  0  0
   20.5348   -7.1241  -15.6370 N   0  0  0  0  0  0  0  0  0  0  0  0
   20.5488   -5.8123  -16.2545 C   0  0  0  0  0  0  0  0  0  0  0  0
   20.7683   -4.8028  -15.1881 C   0  0  0  0  0  0  0  0  0  0  0  0
   20.7627   -5.1574  -13.8451 O   0  0  0  0  0  0  0  0  0  0  0  0
   20.9671   -3.5912  -15.4594 O   0  0  0  0  0  0  0  0  0  0  0  0
  2  1  1  1
  2  9  1  0
  3  2  1  0
  4  5  2  0
  4  3  1  0
  6  5  1  0
  7  8  2  0
  7  6  1  0
  8  4  1  0
  9 10  2  0
 11 12  1  0
 12 14  1  0
 13 12  2  0
 14 15  1  0
 16 15  1  6
 16 18  1  0
 17  9  1  0
 17 16  1  0
 18 20  1  0
 19 18  2  0
 20 21  1  0
 22 23  1  0
 22 21  1  0
 24 22  2  0
M  END
$$$$
