HQG.pdb
     RDKit          3D

 24 24  0  0  1  0  0  0  0  0999 V2000
   19.8158   -9.3442  -16.9809 N   0  0  0  0  0  0  0  0  0  0  0  0
   20.0160   -9.2270  -15.5624 C   0  0  1  0  0  0  0  0  0  0  0  0
   20.7012  -10.4674  -15.0306 C   0  0  0  0  0  0  0  0  0  0  0  0
   19.8384  -11.6284  -15.3673 C   0  0  0  0  0  0  0  0  0  0  0  0
   18.6882  -12.0562  -14.7416 C   0  0  0  0  0  0  0  0  0  0  0  0
   18.2120  -13.1564  -15.3683 N   0  0  0  0  0  0  0  0  0  0  0  0
   19.0527  -13.4225  -16.3810 C   0  0  0  0  0  0  0  0  0  0  0  0
   20.0342  -12.5103  -16.3899 N   0  0  0  0  0  0  0  0  0  0  0  0
   20.8073   -7.9971  -15.2249 C   0  0  0  0  0  0  0  0  0  0  0  0
   21.2726   -7.7721  -14.0889 O   0  0  0  0  0  0  0  0  0  0  0  0
   25.4861   -5.2546  -18.0431 N   0  0  0  0  0  0  0  0  0  0  0  0
   25.1934   -6.4916  -17.4338 C   0  0  0  0  0  0  0  0  0  0  0  0
   26.0794   -7.3786  -17.5367 O   0  0  0  0  0  0  0  0  0  0  0  0
   23.9638   -6.8049  -16.7103 C   0  0  0  0  0  0  0  0  0  0  0  0
   23.0554   -5.6085  -16.7042 C   0  0  0  0  0  0  0  0  0  0  0  0
   21.8014   -5.8104  -15.9274 C   0  0  2  0  0  0  0  0  0  0  0  0
   21.0766   -6.9996  -16.1993 N   0  0  0  0  0  0  0  0  0  0  0  0
   20.9280   -4.6337  -16.1057 C   0  0  0  0  0  0  0  0  0  0  0  0
   19.9540   -4.6797  -16.9326 O   0  0  0  0  0  0  0  0  0  0  0  0
   21.0841   -3.4042  -15.4079 N   0  0  0  0  0  0  0  0  0  0  0  0
   20.2806   -2.2279  -15.6779 C   0  0  0  0  0  0  0  0  0  0  0  0
   20.6891   -1.1622  -14.7281 C   0  0  0  0  0  0  0  0  0  0  0  0
   21.6414   -1.3970  -13.7445 O   0  0  0  0  0  0  0  0  0  0  0  0
   20.1899   -0.0092  -14.7778 O   0  0  0  0  0  0  0  0  0  0  0  0
  2  1  1  6
  2  9  1  0
  3  2  1  0
  4  5  2  0
  4  3  1  0
  6  5  1  0
  7  8  2  0
  7  6  1  0
  8  4  1  0
  9 10  2  0
 11 12  1  0
 12 14  1  0
 13 12  2  0
 14 15  1  0
 16 15  1  6
 16 18  1  0
 17  9  1  0
 17 16  1  0
 18 20  1  0
 19 18  2  0
 20 21  1  0
 22 23  1  0
 22 21  1  0
 24 22  2  0
M  END
$$$$
