HQG.pdb
     RDKit          3D

 24 24  0  0  1  0  0  0  0  0999 V2000
   26.4093  -34.9126  -14.1688 N   0  0  0  0  0  0  0  0  0  0  0  0
   26.3488  -33.7610  -13.3109 C   0  0  1  0  0  0  0  0  0  0  0  0
   25.4181  -32.7230  -13.9005 C   0  0  0  0  0  0  0  0  0  0  0  0
   26.1912  -31.9593  -14.9128 C   0  0  0  0  0  0  0  0  0  0  0  0
   27.5346  -32.0360  -15.2075 C   0  0  0  0  0  0  0  0  0  0  0  0
   27.8329  -31.1655  -16.1990 N   0  0  0  0  0  0  0  0  0  0  0  0
   26.6894  -30.5436  -16.5288 C   0  0  0  0  0  0  0  0  0  0  0  0
   25.6958  -31.0131  -15.7619 N   0  0  0  0  0  0  0  0  0  0  0  0
   25.9140  -34.1379  -11.9247 C   0  0  0  0  0  0  0  0  0  0  0  0
   24.9963  -34.9510  -11.6918 O   0  0  0  0  0  0  0  0  0  0  0  0
   29.5170  -34.4665   -6.7352 N   0  0  0  0  0  0  0  0  0  0  0  0
   28.2194  -34.8759   -6.3669 C   0  0  0  0  0  0  0  0  0  0  0  0
   28.0974  -35.3346   -5.2019 O   0  0  0  0  0  0  0  0  0  0  0  0
   27.0383  -34.8054   -7.2234 C   0  0  0  0  0  0  0  0  0  0  0  0
   27.3988  -34.1796   -8.5405 C   0  0  0  0  0  0  0  0  0  0  0  0
   26.2358  -33.9777   -9.4480 C   0  0  2  0  0  0  0  0  0  0  0  0
   26.5353  -33.5789  -10.7764 N   0  0  0  0  0  0  0  0  0  0  0  0
   25.3017  -33.0162   -8.8296 C   0  0  0  0  0  0  0  0  0  0  0  0
   25.3919  -31.7706   -9.1034 O   0  0  0  0  0  0  0  0  0  0  0  0
   24.2689  -33.3720   -7.9188 N   0  0  0  0  0  0  0  0  0  0  0  0
   23.3939  -32.4024   -7.2889 C   0  0  0  0  0  0  0  0  0  0  0  0
   23.8274  -32.2377   -5.8785 C   0  0  0  0  0  0  0  0  0  0  0  0
   23.1486  -31.3950   -5.0075 O   0  0  0  0  0  0  0  0  0  0  0  0
   24.8232  -32.8533   -5.4196 O   0  0  0  0  0  0  0  0  0  0  0  0
  2  1  1  6
  2  9  1  0
  3  2  1  0
  4  5  2  0
  4  3  1  0
  6  5  1  0
  7  8  2  0
  7  6  1  0
  8  4  1  0
  9 10  2  0
 11 12  1  0
 12 14  1  0
 13 12  2  0
 14 15  1  0
 16 15  1  1
 16 18  1  0
 17  9  1  0
 17 16  1  0
 18 20  1  0
 19 18  2  0
 20 21  1  0
 22 23  1  0
 22 21  1  0
 24 22  2  0
M  END
$$$$
