HQG.pdb
     RDKit          3D

 24 24  0  0  1  0  0  0  0  0999 V2000
   32.1716  -34.0401   -6.5874 N   0  0  0  0  0  0  0  0  0  0  0  0
   31.5392  -34.7818   -5.5311 C   0  0  1  0  0  0  0  0  0  0  0  0
   32.5256  -35.0332   -4.4108 C   0  0  0  0  0  0  0  0  0  0  0  0
   33.2784  -36.2670   -4.7527 C   0  0  0  0  0  0  0  0  0  0  0  0
   33.0760  -37.1359   -5.8021 C   0  0  0  0  0  0  0  0  0  0  0  0
   33.9862  -38.1351   -5.7471 N   0  0  0  0  0  0  0  0  0  0  0  0
   34.7574  -37.9010   -4.6730 C   0  0  0  0  0  0  0  0  0  0  0  0
   34.3409  -36.7804   -4.0676 N   0  0  0  0  0  0  0  0  0  0  0  0
   30.3232  -34.0673   -5.0175 C   0  0  0  0  0  0  0  0  0  0  0  0
   30.3797  -33.0529   -4.2929 O   0  0  0  0  0  0  0  0  0  0  0  0
   26.0542  -32.2899   -9.1768 N   0  0  0  0  0  0  0  0  0  0  0  0
   25.9210  -32.6578   -7.8225 C   0  0  0  0  0  0  0  0  0  0  0  0
   24.7634  -32.9820   -7.4521 O   0  0  0  0  0  0  0  0  0  0  0  0
   27.0071  -32.6874   -6.8463 C   0  0  0  0  0  0  0  0  0  0  0  0
   26.7192  -33.7185   -5.7925 C   0  0  0  0  0  0  0  0  0  0  0  0
   27.8327  -33.9145   -4.8238 C   0  0  2  0  0  0  0  0  0  0  0  0
   29.0130  -34.5147   -5.3340 N   0  0  0  0  0  0  0  0  0  0  0  0
   27.3354  -34.6818   -3.6649 C   0  0  0  0  0  0  0  0  0  0  0  0
   27.4536  -35.9546   -3.6423 O   0  0  0  0  0  0  0  0  0  0  0  0
   26.7110  -34.1023   -2.5259 N   0  0  0  0  0  0  0  0  0  0  0  0
   26.2504  -34.8769   -1.3901 C   0  0  0  0  0  0  0  0  0  0  0  0
   27.2625  -34.7586   -0.3102 C   0  0  0  0  0  0  0  0  0  0  0  0
   27.0234  -35.2611    0.9626 O   0  0  0  0  0  0  0  0  0  0  0  0
   28.3721  -34.2003   -0.5060 O   0  0  0  0  0  0  0  0  0  0  0  0
  2  1  1  6
  2  9  1  0
  3  2  1  0
  4  5  2  0
  4  3  1  0
  6  5  1  0
  7  8  2  0
  7  6  1  0
  8  4  1  0
  9 10  2  0
 11 12  1  0
 12 14  1  0
 13 12  2  0
 14 15  1  0
 16 15  1  6
 16 18  1  0
 17  9  1  0
 17 16  1  0
 18 20  1  0
 19 18  2  0
 20 21  1  0
 22 23  1  0
 22 21  1  0
 24 22  2  0
M  END
$$$$
