HQG.pdb
     RDKit          3D

 24 24  0  0  1  0  0  0  0  0999 V2000
   27.2571  -20.9173  -10.8791 N   0  0  0  0  0  0  0  0  0  0  0  0
   25.8974  -21.1688  -10.4869 C   0  0  1  0  0  0  0  0  0  0  0  0
   25.5957  -20.4665   -9.1805 C   0  0  0  0  0  0  0  0  0  0  0  0
   26.8735  -20.3571   -8.4314 C   0  0  0  0  0  0  0  0  0  0  0  0
   28.1195  -20.8286   -8.7814 C   0  0  0  0  0  0  0  0  0  0  0  0
   29.0122  -20.5149   -7.8147 N   0  0  0  0  0  0  0  0  0  0  0  0
   28.3379  -19.8512   -6.8619 C   0  0  0  0  0  0  0  0  0  0  0  0
   27.0511  -19.7505   -7.2222 N   0  0  0  0  0  0  0  0  0  0  0  0
   24.9350  -20.7391  -11.5555 C   0  0  0  0  0  0  0  0  0  0  0  0
   24.7161  -19.5439  -11.8399 O   0  0  0  0  0  0  0  0  0  0  0  0
   23.9435  -19.3204  -15.9251 N   0  0  0  0  0  0  0  0  0  0  0  0
   25.0952  -20.1160  -15.7584 C   0  0  0  0  0  0  0  0  0  0  0  0
   26.1741  -19.6139  -16.1661 O   0  0  0  0  0  0  0  0  0  0  0  0
   25.1200  -21.4483  -15.1603 C   0  0  0  0  0  0  0  0  0  0  0  0
   23.7338  -21.8454  -14.7394 C   0  0  0  0  0  0  0  0  0  0  0  0
   23.3464  -21.3393  -13.3938 C   0  0  2  0  0  0  0  0  0  0  0  0
   24.2043  -21.6881  -12.3188 N   0  0  0  0  0  0  0  0  0  0  0  0
   21.9645  -21.7652  -13.0969 C   0  0  0  0  0  0  0  0  0  0  0  0
   21.7506  -22.6917  -12.2421 O   0  0  0  0  0  0  0  0  0  0  0  0
   20.8046  -21.2104  -13.7050 N   0  0  0  0  0  0  0  0  0  0  0  0
   19.4579  -21.6566  -13.4057 C   0  0  0  0  0  0  0  0  0  0  0  0
   18.6793  -20.4857  -12.9290 C   0  0  0  0  0  0  0  0  0  0  0  0
   17.3367  -20.3314  -13.2502 O   0  0  0  0  0  0  0  0  0  0  0  0
   19.2042  -19.5912  -12.2181 O   0  0  0  0  0  0  0  0  0  0  0  0
  2  1  1  6
  2  9  1  0
  3  2  1  0
  4  5  2  0
  4  3  1  0
  6  5  1  0
  7  8  2  0
  7  6  1  0
  8  4  1  0
  9 10  2  0
 11 12  1  0
 12 14  1  0
 13 12  2  0
 14 15  1  0
 16 15  1  6
 16 18  1  0
 17  9  1  0
 17 16  1  0
 18 20  1  0
 19 18  2  0
 20 21  1  0
 22 23  1  0
 22 21  1  0
 24 22  2  0
M  END
$$$$
