HQG.pdb
     RDKit          3D

 24 24  0  0  1  0  0  0  0  0999 V2000
   20.3308  -12.4057  -16.6005 N   0  0  0  0  0  0  0  0  0  0  0  0
   20.0438  -10.9994  -16.6770 C   0  0  1  0  0  0  0  0  0  0  0  0
   18.6211  -10.7352  -16.2328 C   0  0  0  0  0  0  0  0  0  0  0  0
   17.7211  -11.3481  -17.2428 C   0  0  0  0  0  0  0  0  0  0  0  0
   17.2516  -10.8063  -18.4190 C   0  0  0  0  0  0  0  0  0  0  0  0
   16.4553  -11.7021  -19.0462 N   0  0  0  0  0  0  0  0  0  0  0  0
   16.4210  -12.8004  -18.2745 C   0  0  0  0  0  0  0  0  0  0  0  0
   17.1785  -12.5988  -17.1876 N   0  0  0  0  0  0  0  0  0  0  0  0
   21.0136  -10.2011  -15.8553 C   0  0  0  0  0  0  0  0  0  0  0  0
   21.2899  -10.4702  -14.6685 O   0  0  0  0  0  0  0  0  0  0  0  0
   26.3752  -11.0275  -15.3227 N   0  0  0  0  0  0  0  0  0  0  0  0
   25.4809   -9.9407  -15.4014 C   0  0  0  0  0  0  0  0  0  0  0  0
   25.3849   -9.2315  -14.3669 O   0  0  0  0  0  0  0  0  0  0  0  0
   24.6796   -9.5915  -16.5716 C   0  0  0  0  0  0  0  0  0  0  0  0
   24.0186   -8.2594  -16.3594 C   0  0  0  0  0  0  0  0  0  0  0  0
   22.6879   -8.3477  -15.6976 C   0  0  2  0  0  0  0  0  0  0  0  0
   21.6851   -9.0714  -16.3936 N   0  0  0  0  0  0  0  0  0  0  0  0
   22.2087   -6.9851  -15.3925 C   0  0  0  0  0  0  0  0  0  0  0  0
   21.5744   -6.3169  -16.2789 O   0  0  0  0  0  0  0  0  0  0  0  0
   22.4002   -6.3264  -14.1466 N   0  0  0  0  0  0  0  0  0  0  0  0
   21.7872   -5.0547  -13.8159 C   0  0  0  0  0  0  0  0  0  0  0  0
   22.5006   -3.9898  -14.5652 C   0  0  0  0  0  0  0  0  0  0  0  0
   22.1109   -2.6594  -14.4776 O   0  0  0  0  0  0  0  0  0  0  0  0
   23.4826   -4.2510  -15.3059 O   0  0  0  0  0  0  0  0  0  0  0  0
  2  1  1  1
  2  9  1  0
  3  2  1  0
  4  5  2  0
  4  3  1  0
  6  5  1  0
  7  8  2  0
  7  6  1  0
  8  4  1  0
  9 10  2  0
 11 12  1  0
 12 14  1  0
 13 12  2  0
 14 15  1  0
 16 15  1  6
 16 18  1  0
 17  9  1  0
 17 16  1  0
 18 20  1  0
 19 18  2  0
 20 21  1  0
 22 23  1  0
 22 21  1  0
 24 22  2  0
M  END
$$$$
