HQG.pdb
     RDKit          3D

 24 24  0  0  1  0  0  0  0  0999 V2000
   26.4769  -35.3531   -4.0454 N   0  0  0  0  0  0  0  0  0  0  0  0
   27.1264  -34.1789   -3.5304 C   0  0  1  0  0  0  0  0  0  0  0  0
   26.2678  -32.9581   -3.7823 C   0  0  0  0  0  0  0  0  0  0  0  0
   26.3492  -32.6515   -5.2332 C   0  0  0  0  0  0  0  0  0  0  0  0
   27.1533  -33.2286   -6.1911 C   0  0  0  0  0  0  0  0  0  0  0  0
   26.9128  -32.6548   -7.3923 N   0  0  0  0  0  0  0  0  0  0  0  0
   25.9655  -31.7235   -7.1967 C   0  0  0  0  0  0  0  0  0  0  0  0
   25.6192  -31.7127   -5.9022 N   0  0  0  0  0  0  0  0  0  0  0  0
   27.4292  -34.3225   -2.0674 C   0  0  0  0  0  0  0  0  0  0  0  0
   26.5807  -34.6771   -1.2237 O   0  0  0  0  0  0  0  0  0  0  0  0
   31.5145  -36.4977    0.8965 N   0  0  0  0  0  0  0  0  0  0  0  0
   31.2669  -35.5301    1.8914 C   0  0  0  0  0  0  0  0  0  0  0  0
   31.5057  -35.8843    3.0745 O   0  0  0  0  0  0  0  0  0  0  0  0
   30.7652  -34.1801    1.6479 C   0  0  0  0  0  0  0  0  0  0  0  0
   30.4844  -33.9955    0.1838 C   0  0  0  0  0  0  0  0  0  0  0  0
   29.0402  -34.0856   -0.1669 C   0  0  2  0  0  0  0  0  0  0  0  0
   28.7251  -34.0575   -1.5501 N   0  0  0  0  0  0  0  0  0  0  0  0
   28.3036  -33.0203    0.5415 C   0  0  0  0  0  0  0  0  0  0  0  0
   28.1732  -31.8674    0.0046 O   0  0  0  0  0  0  0  0  0  0  0  0
   27.7028  -33.1737    1.8215 N   0  0  0  0  0  0  0  0  0  0  0  0
   27.0321  -32.0949    2.5206 C   0  0  0  0  0  0  0  0  0  0  0  0
   26.5861  -32.6077    3.8407 C   0  0  0  0  0  0  0  0  0  0  0  0
   25.9643  -31.7786    4.7655 O   0  0  0  0  0  0  0  0  0  0  0  0
   26.7538  -33.8093    4.1711 O   0  0  0  0  0  0  0  0  0  0  0  0
  2  1  1  1
  2  9  1  0
  3  2  1  0
  4  5  2  0
  4  3  1  0
  6  5  1  0
  7  8  2  0
  7  6  1  0
  8  4  1  0
  9 10  2  0
 11 12  1  0
 12 14  1  0
 13 12  2  0
 14 15  1  0
 16 15  1  6
 16 18  1  0
 17  9  1  0
 17 16  1  0
 18 20  1  0
 19 18  2  0
 20 21  1  0
 22 23  1  0
 22 21  1  0
 24 22  2  0
M  END
$$$$
