EAW.pdb
     RDKit          3D

 29 30  0  0  1  0  0  0  0  0999 V2000
   25.5632  -20.3300  -17.2568 N   0  0  0  0  0  0  0  0  0  0  0  0
   25.7037  -21.7129  -16.9073 C   0  0  1  0  0  0  0  0  0  0  0  0
   26.4483  -22.5092  -17.9386 C   0  0  0  0  0  0  0  0  0  0  0  0
   25.8165  -22.5033  -19.3013 C   0  0  0  0  0  0  0  0  0  0  0  0
   26.1674  -21.2179  -19.9461 C   0  0  0  0  0  0  0  0  0  0  0  0
   25.2828  -20.5111  -20.4478 O   0  0  0  0  0  0  0  0  0  0  0  0
   26.2424  -21.8351  -15.5521 C   0  0  0  0  0  0  0  0  0  0  0  0
   26.5069  -22.9425  -14.9989 O   0  0  0  0  0  0  0  0  0  0  0  0
   27.4818  -20.8008  -19.9915 O   0  0  0  0  0  0  0  0  0  0  0  0
   27.9903  -19.6562  -13.2045 C   0  0  0  0  0  0  0  0  0  0  0  0
   27.0365  -20.8093  -13.4104 C   0  0  2  0  0  0  0  0  0  0  0  0
   26.4995  -20.6733  -14.7736 N   0  0  0  0  0  0  0  0  0  0  0  0
   25.9135  -20.6931  -12.4414 C   0  0  0  0  0  0  0  0  0  0  0  0
   26.1158  -20.7690  -11.1987 O   0  0  0  0  0  0  0  0  0  0  0  0
   24.6063  -20.4963  -12.8968 N   0  0  0  0  0  0  0  0  0  0  0  0
   23.4350  -20.3487  -12.0026 C   0  0  1  0  0  0  0  0  0  0  0  0
   22.7415  -19.1158  -12.4597 C   0  0  0  0  0  0  0  0  0  0  0  0
   22.0426  -19.1555  -13.7395 C   0  0  0  0  0  0  0  0  0  0  0  0
   20.7417  -19.6223  -13.9911 C   0  0  0  0  0  0  0  0  0  0  0  0
   20.4668  -19.5272  -15.2835 N   0  0  0  0  0  0  0  0  0  0  0  0
   21.5186  -19.0141  -15.9435 C   0  0  0  0  0  0  0  0  0  0  0  0
   21.7853  -18.6897  -17.2545 C   0  0  0  0  0  0  0  0  0  0  0  0
   22.9938  -18.1442  -17.6247 C   0  0  0  0  0  0  0  0  0  0  0  0
   23.9816  -17.9025  -16.6976 C   0  0  0  0  0  0  0  0  0  0  0  0
   23.7104  -18.2288  -15.3909 C   0  0  0  0  0  0  0  0  0  0  0  0
   22.5062  -18.7802  -14.9788 C   0  0  0  0  0  0  0  0  0  0  0  0
   22.6603  -21.5860  -12.1054 C   0  0  0  0  0  0  0  0  0  0  0  0
   21.6367  -21.7637  -11.3762 O   0  0  0  0  0  0  0  0  0  0  0  0
   22.9981  -22.6167  -13.0004 O   0  0  0  0  0  0  0  0  0  0  0  0
  2  1  1  6
  3  4  1  0
  3  2  1  0
  4  5  1  0
  5  9  1  0
  5  6  2  0
  7  8  2  0
  7  2  1  0
 11 10  1  1
 11 12  1  0
 11 13  1  0
 12  7  1  0
 13 15  1  0
 14 13  2  0
 15 16  1  0
 16 27  1  0
 16 17  1  6
 18 17  1  0
 19 18  2  0
 20 19  1  0
 21 20  1  0
 21 26  2  0
 22 23  2  0
 22 21  1  0
 23 24  1  0
 24 25  2  0
 26 25  1  0
 26 18  1  0
 27 28  2  0
 27 29  1  0
M  END
$$$$
