EAW.pdb
     RDKit          3D

 29 30  0  0  1  0  0  0  0  0999 V2000
   12.3000  -17.6151    9.0008 N   0  0  0  0  0  0  0  0  0  0  0  0
   13.3717  -17.7121    8.0540 C   0  0  1  0  0  0  0  0  0  0  0  0
   13.5320  -16.4776    7.2160 C   0  0  0  0  0  0  0  0  0  0  0  0
   12.3809  -16.2025    6.2910 C   0  0  0  0  0  0  0  0  0  0  0  0
   12.3867  -14.7519    5.9967 C   0  0  0  0  0  0  0  0  0  0  0  0
   13.2327  -14.0139    6.5198 O   0  0  0  0  0  0  0  0  0  0  0  0
   14.5977  -18.1426    8.7274 C   0  0  0  0  0  0  0  0  0  0  0  0
   14.9124  -17.7943    9.9030 O   0  0  0  0  0  0  0  0  0  0  0  0
   11.4498  -14.2146    5.1383 O   0  0  0  0  0  0  0  0  0  0  0  0
   16.9338  -20.8389    8.6425 C   0  0  0  0  0  0  0  0  0  0  0  0
   16.7990  -19.3358    8.7070 C   0  0  2  0  0  0  0  0  0  0  0  0
   15.5183  -19.0000    8.0647 N   0  0  0  0  0  0  0  0  0  0  0  0
   17.9019  -18.7127    7.9266 C   0  0  0  0  0  0  0  0  0  0  0  0
   17.8874  -18.7130    6.6652 O   0  0  0  0  0  0  0  0  0  0  0  0
   18.9798  -18.1123    8.5842 N   0  0  0  0  0  0  0  0  0  0  0  0
   20.0725  -17.3933    7.8899 C   0  0  1  0  0  0  0  0  0  0  0  0
   19.9238  -15.9687    8.2878 C   0  0  0  0  0  0  0  0  0  0  0  0
   19.3802  -15.0351    7.3075 C   0  0  0  0  0  0  0  0  0  0  0  0
   18.1396  -15.1068    6.6522 C   0  0  0  0  0  0  0  0  0  0  0  0
   18.0121  -14.0936    5.8084 N   0  0  0  0  0  0  0  0  0  0  0  0
   19.1089  -13.3186    5.8473 C   0  0  0  0  0  0  0  0  0  0  0  0
   19.5106  -12.1623    5.2175 C   0  0  0  0  0  0  0  0  0  0  0  0
   20.7280  -11.5824    5.4951 C   0  0  0  0  0  0  0  0  0  0  0  0
   21.5898  -12.1372    6.4133 C   0  0  0  0  0  0  0  0  0  0  0  0
   21.1842  -13.2915    7.0383 C   0  0  0  0  0  0  0  0  0  0  0  0
   19.9666  -13.9059    6.7855 C   0  0  0  0  0  0  0  0  0  0  0  0
   21.3264  -18.0342    8.2879 C   0  0  0  0  0  0  0  0  0  0  0  0
   21.4561  -18.5205    9.4530 O   0  0  0  0  0  0  0  0  0  0  0  0
   22.4262  -18.1470    7.4187 O   0  0  0  0  0  0  0  0  0  0  0  0
  2  1  1  1
  3  4  1  0
  3  2  1  0
  4  5  1  0
  5  9  1  0
  5  6  2  0
  7  8  2  0
  7  2  1  0
 11 10  1  6
 11 12  1  0
 11 13  1  0
 12  7  1  0
 13 15  1  0
 14 13  2  0
 15 16  1  0
 16 27  1  0
 16 17  1  1
 18 17  1  0
 19 18  2  0
 20 19  1  0
 21 20  1  0
 21 26  2  0
 22 23  2  0
 22 21  1  0
 23 24  1  0
 24 25  2  0
 26 25  1  0
 26 18  1  0
 27 28  2  0
 27 29  1  0
M  END
$$$$
