EAW.pdb
     RDKit          3D

 29 30  0  0  1  0  0  0  0  0999 V2000
   17.0389  -15.5705  -18.7304 N   0  0  0  0  0  0  0  0  0  0  0  0
   16.3851  -14.5722  -17.9365 C   0  0  1  0  0  0  0  0  0  0  0  0
   16.2529  -14.9601  -16.4929 C   0  0  0  0  0  0  0  0  0  0  0  0
   15.6016  -16.2946  -16.2667 C   0  0  0  0  0  0  0  0  0  0  0  0
   15.4714  -16.4811  -14.8040 C   0  0  0  0  0  0  0  0  0  0  0  0
   15.3115  -15.5015  -14.0632 O   0  0  0  0  0  0  0  0  0  0  0  0
   17.0152  -13.2690  -18.1515 C   0  0  0  0  0  0  0  0  0  0  0  0
   18.2674  -13.0983  -18.2258 O   0  0  0  0  0  0  0  0  0  0  0  0
   15.5278  -17.7471  -14.2586 O   0  0  0  0  0  0  0  0  0  0  0  0
   15.8392   -9.8552  -19.0239 C   0  0  0  0  0  0  0  0  0  0  0  0
   16.8645  -10.7837  -18.4169 C   0  0  2  0  0  0  0  0  0  0  0  0
   16.2183  -12.0997  -18.2906 N   0  0  0  0  0  0  0  0  0  0  0  0
   17.2215  -10.2952  -17.0577 C   0  0  0  0  0  0  0  0  0  0  0  0
   16.5480  -10.6344  -16.0465 O   0  0  0  0  0  0  0  0  0  0  0  0
   18.3177   -9.4460  -16.8785 N   0  0  0  0  0  0  0  0  0  0  0  0
   18.7554   -8.9312  -15.5608 C   0  0  1  0  0  0  0  0  0  0  0  0
   20.2269   -8.7534  -15.6747 C   0  0  0  0  0  0  0  0  0  0  0  0
   20.9033   -7.9576  -14.6562 C   0  0  0  0  0  0  0  0  0  0  0  0
   21.3200   -8.3737  -13.3808 C   0  0  0  0  0  0  0  0  0  0  0  0
   21.8703   -7.3600  -12.7293 N   0  0  0  0  0  0  0  0  0  0  0  0
   21.8560   -6.2560  -13.4948 C   0  0  0  0  0  0  0  0  0  0  0  0
   22.2912   -4.9585  -13.3458 C   0  0  0  0  0  0  0  0  0  0  0  0
   22.1433   -4.0341  -14.3552 C   0  0  0  0  0  0  0  0  0  0  0  0
   21.5541   -4.3724  -15.5519 C   0  0  0  0  0  0  0  0  0  0  0  0
   21.1209   -5.6683  -15.6948 C   0  0  0  0  0  0  0  0  0  0  0  0
   21.2514   -6.6279  -14.7018 C   0  0  0  0  0  0  0  0  0  0  0  0
   17.9885   -7.7121  -15.3019 C   0  0  0  0  0  0  0  0  0  0  0  0
   17.7478   -7.3472  -14.1103 O   0  0  0  0  0  0  0  0  0  0  0  0
   17.4941   -6.8968  -16.3356 O   0  0  0  0  0  0  0  0  0  0  0  0
  2  1  1  6
  3  4  1  0
  3  2  1  0
  4  5  1  0
  5  9  1  0
  5  6  2  0
  7  8  2  0
  7  2  1  0
 11 10  1  1
 11 12  1  0
 11 13  1  0
 12  7  1  0
 13 15  1  0
 14 13  2  0
 15 16  1  0
 16 27  1  0
 16 17  1  6
 18 17  1  0
 19 18  2  0
 20 19  1  0
 21 20  1  0
 21 26  2  0
 22 23  2  0
 22 21  1  0
 23 24  1  0
 24 25  2  0
 26 25  1  0
 26 18  1  0
 27 28  2  0
 27 29  1  0
M  END
$$$$
