EAW.pdb
     RDKit          3D

 29 30  0  0  1  0  0  0  0  0999 V2000
   24.2908  -18.0222  -13.3643 N   0  0  0  0  0  0  0  0  0  0  0  0
   24.1607  -19.2375  -14.1129 C   0  0  1  0  0  0  0  0  0  0  0  0
   23.6896  -19.0158  -15.5203 C   0  0  0  0  0  0  0  0  0  0  0  0
   23.4612  -17.5748  -15.8778 C   0  0  0  0  0  0  0  0  0  0  0  0
   22.0117  -17.3090  -15.7392 C   0  0  0  0  0  0  0  0  0  0  0  0
   21.2465  -18.2087  -15.3664 O   0  0  0  0  0  0  0  0  0  0  0  0
   25.3907  -20.0238  -14.0096 C   0  0  0  0  0  0  0  0  0  0  0  0
   25.5664  -21.1325  -14.5948 O   0  0  0  0  0  0  0  0  0  0  0  0
   21.5056  -16.0577  -16.0248 O   0  0  0  0  0  0  0  0  0  0  0  0
   28.8524  -19.4079  -12.9859 C   0  0  0  0  0  0  0  0  0  0  0  0
   27.6959  -20.3733  -13.0966 C   0  0  2  0  0  0  0  0  0  0  0  0
   26.4771  -19.5579  -13.2193 N   0  0  0  0  0  0  0  0  0  0  0  0
   27.6089  -21.1763  -11.8470 C   0  0  0  0  0  0  0  0  0  0  0  0
   28.4807  -22.0446  -11.5695 O   0  0  0  0  0  0  0  0  0  0  0  0
   26.5513  -20.9793  -10.9540 N   0  0  0  0  0  0  0  0  0  0  0  0
   26.3796  -21.7442   -9.6976 C   0  0  1  0  0  0  0  0  0  0  0  0
   27.5933  -21.4549   -8.8895 C   0  0  0  0  0  0  0  0  0  0  0  0
   27.5390  -20.3479   -7.9412 C   0  0  0  0  0  0  0  0  0  0  0  0
   26.8269  -19.1438   -8.0697 C   0  0  0  0  0  0  0  0  0  0  0  0
   27.0486  -18.3701   -7.0175 N   0  0  0  0  0  0  0  0  0  0  0  0
   27.8833  -18.9823   -6.1610 C   0  0  0  0  0  0  0  0  0  0  0  0
   28.4310  -18.6677   -4.9379 C   0  0  0  0  0  0  0  0  0  0  0  0
   29.2656  -19.5439   -4.2812 C   0  0  0  0  0  0  0  0  0  0  0  0
   29.5841  -20.7679   -4.8233 C   0  0  0  0  0  0  0  0  0  0  0  0
   29.0354  -21.0763   -6.0445 C   0  0  0  0  0  0  0  0  0  0  0  0
   28.1914  -20.2209   -6.7371 C   0  0  0  0  0  0  0  0  0  0  0  0
   25.1099  -21.3180   -9.1078 C   0  0  0  0  0  0  0  0  0  0  0  0
   24.7210  -21.8055   -8.0023 O   0  0  0  0  0  0  0  0  0  0  0  0
   24.2759  -20.3642   -9.7181 O   0  0  0  0  0  0  0  0  0  0  0  0
  2  1  1  6
  3  4  1  0
  3  2  1  0
  4  5  1  0
  5  9  1  0
  5  6  2  0
  7  8  2  0
  7  2  1  0
 11 10  1  1
 11 12  1  0
 11 13  1  0
 12  7  1  0
 13 15  1  0
 14 13  2  0
 15 16  1  0
 16 27  1  0
 16 17  1  1
 18 17  1  0
 19 18  2  0
 20 19  1  0
 21 20  1  0
 21 26  2  0
 22 23  2  0
 22 21  1  0
 23 24  1  0
 24 25  2  0
 26 25  1  0
 26 18  1  0
 27 28  2  0
 27 29  1  0
M  END
$$$$
