EAW.pdb
     RDKit          3D

 29 30  0  0  1  0  0  0  0  0999 V2000
   33.4482  -23.9985  -18.0606 N   0  0  0  0  0  0  0  0  0  0  0  0
   33.1398  -23.5875  -19.3986 C   0  0  1  0  0  0  0  0  0  0  0  0
   32.5004  -24.6714  -20.2159 C   0  0  0  0  0  0  0  0  0  0  0  0
   31.4985  -25.5032  -19.4672 C   0  0  0  0  0  0  0  0  0  0  0  0
   30.2913  -25.6126  -20.3167 C   0  0  0  0  0  0  0  0  0  0  0  0
   30.3640  -26.1335  -21.4380 O   0  0  0  0  0  0  0  0  0  0  0  0
   32.3888  -22.3315  -19.3764 C   0  0  0  0  0  0  0  0  0  0  0  0
   32.2915  -21.5896  -18.3553 O   0  0  0  0  0  0  0  0  0  0  0  0
   29.0788  -25.1348  -19.8636 O   0  0  0  0  0  0  0  0  0  0  0  0
   30.8919  -20.1545  -21.9831 C   0  0  0  0  0  0  0  0  0  0  0  0
   31.0453  -20.5665  -20.5379 C   0  0  2  0  0  0  0  0  0  0  0  0
   31.7136  -21.8774  -20.5425 N   0  0  0  0  0  0  0  0  0  0  0  0
   29.6968  -20.7205  -19.9284 C   0  0  0  0  0  0  0  0  0  0  0  0
   28.9149  -19.7365  -19.8210 O   0  0  0  0  0  0  0  0  0  0  0  0
   29.2718  -21.9681  -19.4617 N   0  0  0  0  0  0  0  0  0  0  0  0
   27.9338  -22.2183  -18.8783 C   0  0  1  0  0  0  0  0  0  0  0  0
   27.6895  -23.6735  -19.0592 C   0  0  0  0  0  0  0  0  0  0  0  0
   27.4901  -24.4896  -17.8666 C   0  0  0  0  0  0  0  0  0  0  0  0
   26.6714  -24.2055  -16.7610 C   0  0  0  0  0  0  0  0  0  0  0  0
   26.7744  -25.1704  -15.8593 N   0  0  0  0  0  0  0  0  0  0  0  0
   27.6282  -26.1149  -16.2881 C   0  0  0  0  0  0  0  0  0  0  0  0
   28.0926  -27.3110  -15.7893 C   0  0  0  0  0  0  0  0  0  0  0  0
   28.9799  -28.0866  -16.5010 C   0  0  0  0  0  0  0  0  0  0  0  0
   29.4365  -27.6951  -17.7387 C   0  0  0  0  0  0  0  0  0  0  0  0
   28.9706  -26.5003  -18.2313 C   0  0  0  0  0  0  0  0  0  0  0  0
   28.0773  -25.6910  -17.5449 C   0  0  0  0  0  0  0  0  0  0  0  0
   27.9777  -21.7512  -17.4922 C   0  0  0  0  0  0  0  0  0  0  0  0
   29.0916  -21.5822  -16.9077 O   0  0  0  0  0  0  0  0  0  0  0  0
   26.8151  -21.4664  -16.7538 O   0  0  0  0  0  0  0  0  0  0  0  0
  2  1  1  1
  3  4  1  0
  3  2  1  0
  4  5  1  0
  5  9  1  0
  5  6  2  0
  7  8  2  0
  7  2  1  0
 11 10  1  6
 11 12  1  0
 11 13  1  0
 12  7  1  0
 13 15  1  0
 14 13  2  0
 15 16  1  0
 16 27  1  0
 16 17  1  1
 18 17  1  0
 19 18  2  0
 20 19  1  0
 21 20  1  0
 21 26  2  0
 22 23  2  0
 22 21  1  0
 23 24  1  0
 24 25  2  0
 26 25  1  0
 26 18  1  0
 27 28  2  0
 27 29  1  0
M  END
$$$$
