EAW.pdb
     RDKit          3D

 29 30  0  0  1  0  0  0  0  0999 V2000
   26.9165  -18.8585  -15.7597 N   0  0  0  0  0  0  0  0  0  0  0  0
   27.0870  -18.6645  -14.3499 C   0  0  1  0  0  0  0  0  0  0  0  0
   25.8926  -18.0380  -13.6920 C   0  0  0  0  0  0  0  0  0  0  0  0
   25.4236  -16.7667  -14.3401 C   0  0  0  0  0  0  0  0  0  0  0  0
   24.2137  -17.0921  -15.1282 C   0  0  0  0  0  0  0  0  0  0  0  0
   24.2189  -16.9609  -16.3598 O   0  0  0  0  0  0  0  0  0  0  0  0
   27.5320  -19.9097  -13.7229 C   0  0  0  0  0  0  0  0  0  0  0  0
   27.0907  -21.0527  -14.0411 O   0  0  0  0  0  0  0  0  0  0  0  0
   23.0739  -17.5430  -14.4949 O   0  0  0  0  0  0  0  0  0  0  0  0
   30.3280  -20.8276  -11.4539 C   0  0  0  0  0  0  0  0  0  0  0  0
   29.0178  -21.1490  -12.1335 C   0  0  2  0  0  0  0  0  0  0  0  0
   28.5132  -19.8855  -12.6940 N   0  0  0  0  0  0  0  0  0  0  0  0
   28.0485  -21.6409  -11.1174 C   0  0  0  0  0  0  0  0  0  0  0  0
   28.1602  -22.7929  -10.6157 O   0  0  0  0  0  0  0  0  0  0  0  0
   26.9907  -20.8278  -10.6996 N   0  0  0  0  0  0  0  0  0  0  0  0
   26.0032  -21.2237   -9.6696 C   0  0  1  0  0  0  0  0  0  0  0  0
   26.7819  -21.3733   -8.4121 C   0  0  0  0  0  0  0  0  0  0  0  0
   27.0204  -20.1809   -7.6063 C   0  0  0  0  0  0  0  0  0  0  0  0
   26.6450  -18.8593   -7.8998 C   0  0  0  0  0  0  0  0  0  0  0  0
   27.0639  -18.0447   -6.9428 N   0  0  0  0  0  0  0  0  0  0  0  0
   27.7140  -18.7404   -5.9949 C   0  0  0  0  0  0  0  0  0  0  0  0
   28.3290  -18.4287   -4.8035 C   0  0  0  0  0  0  0  0  0  0  0  0
   28.9097  -19.4021   -4.0221 C   0  0  0  0  0  0  0  0  0  0  0  0
   28.8974  -20.7244   -4.4029 C   0  0  0  0  0  0  0  0  0  0  0  0
   28.2830  -21.0297   -5.5932 C   0  0  0  0  0  0  0  0  0  0  0  0
   27.6877  -20.0781   -6.4081 C   0  0  0  0  0  0  0  0  0  0  0  0
   24.9657  -20.1918   -9.6529 C   0  0  0  0  0  0  0  0  0  0  0  0
   23.9538  -20.3124   -8.8963 O   0  0  0  0  0  0  0  0  0  0  0  0
   25.0365  -19.0365  -10.4517 O   0  0  0  0  0  0  0  0  0  0  0  0
  2  1  1  6
  3  4  1  0
  3  2  1  0
  4  5  1  0
  5  9  1  0
  5  6  2  0
  7  8  2  0
  7  2  1  0
 11 10  1  1
 11 12  1  0
 11 13  1  0
 12  7  1  0
 13 15  1  0
 14 13  2  0
 15 16  1  0
 16 27  1  0
 16 17  1  1
 18 17  1  0
 19 18  2  0
 20 19  1  0
 21 20  1  0
 21 26  2  0
 22 23  2  0
 22 21  1  0
 23 24  1  0
 24 25  2  0
 26 25  1  0
 26 18  1  0
 27 28  2  0
 27 29  1  0
M  END
$$$$
