EAW.pdb
     RDKit          3D

 29 30  0  0  1  0  0  0  0  0999 V2000
   20.2875  -12.3357  -18.9954 N   0  0  0  0  0  0  0  0  0  0  0  0
   21.3067  -11.5280  -18.3928 C   0  0  1  0  0  0  0  0  0  0  0  0
   22.5820  -11.5010  -19.1831 C   0  0  0  0  0  0  0  0  0  0  0  0
   23.7321  -12.2118  -18.5286 C   0  0  0  0  0  0  0  0  0  0  0  0
   23.5416  -13.6622  -18.7538 C   0  0  0  0  0  0  0  0  0  0  0  0
   23.0726  -14.3754  -17.8564 O   0  0  0  0  0  0  0  0  0  0  0  0
   20.7723  -10.2039  -18.0720 C   0  0  0  0  0  0  0  0  0  0  0  0
   20.3455   -9.3894  -18.9420 O   0  0  0  0  0  0  0  0  0  0  0  0
   23.8858  -14.2272  -19.9646 O   0  0  0  0  0  0  0  0  0  0  0  0
   19.1576   -8.6373  -15.2910 C   0  0  0  0  0  0  0  0  0  0  0  0
   20.1518   -8.4365  -16.4104 C   0  0  2  0  0  0  0  0  0  0  0  0
   20.7087   -9.7624  -16.7218 N   0  0  0  0  0  0  0  0  0  0  0  0
   21.2528   -7.5567  -15.9336 C   0  0  0  0  0  0  0  0  0  0  0  0
   22.1791   -8.0092  -15.2067 O   0  0  0  0  0  0  0  0  0  0  0  0
   21.2782   -6.2040  -16.2864 N   0  0  0  0  0  0  0  0  0  0  0  0
   22.3481   -5.2651  -15.8781 C   0  0  1  0  0  0  0  0  0  0  0  0
   22.3409   -4.1878  -16.9024 C   0  0  0  0  0  0  0  0  0  0  0  0
   23.1789   -3.0161  -16.6724 C   0  0  0  0  0  0  0  0  0  0  0  0
   24.5745   -2.9783  -16.5154 C   0  0  0  0  0  0  0  0  0  0  0  0
   24.9733   -1.7349  -16.2925 N   0  0  0  0  0  0  0  0  0  0  0  0
   23.9173   -0.9043  -16.2880 C   0  0  0  0  0  0  0  0  0  0  0  0
   23.7416    0.4514  -16.1261 C   0  0  0  0  0  0  0  0  0  0  0  0
   22.4916    1.0241  -16.1956 C   0  0  0  0  0  0  0  0  0  0  0  0
   21.3697    0.2623  -16.4296 C   0  0  0  0  0  0  0  0  0  0  0  0
   21.5507   -1.0902  -16.5896 C   0  0  0  0  0  0  0  0  0  0  0  0
   22.7928   -1.7042  -16.5260 C   0  0  0  0  0  0  0  0  0  0  0  0
   22.0454   -4.8406  -14.5107 C   0  0  0  0  0  0  0  0  0  0  0  0
   22.9816   -4.5107  -13.7198 O   0  0  0  0  0  0  0  0  0  0  0  0
   20.7313   -4.7725  -14.0143 O   0  0  0  0  0  0  0  0  0  0  0  0
  2  1  1  6
  3  4  1  0
  3  2  1  0
  4  5  1  0
  5  9  1  0
  5  6  2  0
  7  8  2  0
  7  2  1  0
 11 10  1  1
 11 12  1  0
 11 13  1  0
 12  7  1  0
 13 15  1  0
 14 13  2  0
 15 16  1  0
 16 27  1  0
 16 17  1  6
 18 17  1  0
 19 18  2  0
 20 19  1  0
 21 20  1  0
 21 26  2  0
 22 23  2  0
 22 21  1  0
 23 24  1  0
 24 25  2  0
 26 25  1  0
 26 18  1  0
 27 28  2  0
 27 29  1  0
M  END
$$$$
