EAW.pdb
     RDKit          3D

 29 30  0  0  1  0  0  0  0  0999 V2000
   29.0958  -19.5630  -18.0563 N   0  0  0  0  0  0  0  0  0  0  0  0
   28.4029  -20.5655  -17.3019 C   0  0  1  0  0  0  0  0  0  0  0  0
   29.3249  -21.4811  -16.5513 C   0  0  0  0  0  0  0  0  0  0  0  0
   30.1665  -22.3663  -17.4255 C   0  0  0  0  0  0  0  0  0  0  0  0
   29.3091  -23.4843  -17.8791 C   0  0  0  0  0  0  0  0  0  0  0  0
   29.7568  -24.3354  -18.6596 O   0  0  0  0  0  0  0  0  0  0  0  0
   27.3699  -19.9436  -16.4724 C   0  0  0  0  0  0  0  0  0  0  0  0
   27.5744  -18.9351  -15.7351 O   0  0  0  0  0  0  0  0  0  0  0  0
   28.0067  -23.5840  -17.4347 O   0  0  0  0  0  0  0  0  0  0  0  0
   23.7357  -19.9199  -16.1819 C   0  0  0  0  0  0  0  0  0  0  0  0
   25.0718  -19.9660  -15.4786 C   0  0  2  0  0  0  0  0  0  0  0  0
   26.0473  -20.4656  -16.4604 N   0  0  0  0  0  0  0  0  0  0  0  0
   24.9955  -20.9306  -14.3484 C   0  0  0  0  0  0  0  0  0  0  0  0
   25.5846  -22.0447  -14.4028 O   0  0  0  0  0  0  0  0  0  0  0  0
   24.2642  -20.6149  -13.1994 N   0  0  0  0  0  0  0  0  0  0  0  0
   24.2332  -21.4596  -11.9834 C   0  0  1  0  0  0  0  0  0  0  0  0
   25.6200  -21.4338  -11.4486 C   0  0  0  0  0  0  0  0  0  0  0  0
   25.8499  -20.7740  -10.1681 C   0  0  0  0  0  0  0  0  0  0  0  0
   24.9395  -20.0039   -9.4254 C   0  0  0  0  0  0  0  0  0  0  0  0
   25.5224  -19.5432   -8.3287 N   0  0  0  0  0  0  0  0  0  0  0  0
   26.7988  -19.9590   -8.2739 C   0  0  0  0  0  0  0  0  0  0  0  0
   27.8394  -19.8036   -7.3862 C   0  0  0  0  0  0  0  0  0  0  0  0
   29.0647  -20.3897   -7.6107 C   0  0  0  0  0  0  0  0  0  0  0  0
   29.2957  -21.1535   -8.7319 C   0  0  0  0  0  0  0  0  0  0  0  0
   28.2540  -21.3046   -9.6148 C   0  0  0  0  0  0  0  0  0  0  0  0
   27.0060  -20.7300   -9.4243 C   0  0  0  0  0  0  0  0  0  0  0  0
   23.2047  -20.9041  -11.1030 C   0  0  0  0  0  0  0  0  0  0  0  0
   22.9445  -19.6621  -11.1253 O   0  0  0  0  0  0  0  0  0  0  0  0
   22.4641  -21.6997  -10.2107 O   0  0  0  0  0  0  0  0  0  0  0  0
  2  1  1  1
  3  4  1  0
  3  2  1  0
  4  5  1  0
  5  9  1  0
  5  6  2  0
  7  8  2  0
  7  2  1  0
 11 10  1  6
 11 12  1  0
 11 13  1  0
 12  7  1  0
 13 15  1  0
 14 13  2  0
 15 16  1  0
 16 27  1  0
 16 17  1  1
 18 17  1  0
 19 18  2  0
 20 19  1  0
 21 20  1  0
 21 26  2  0
 22 23  2  0
 22 21  1  0
 23 24  1  0
 24 25  2  0
 26 25  1  0
 26 18  1  0
 27 28  2  0
 27 29  1  0
M  END
$$$$
