EAW.pdb
     RDKit          3D

 29 30  0  0  1  0  0  0  0  0999 V2000
   23.1724  -19.2962   10.6103 N   0  0  0  0  0  0  0  0  0  0  0  0
   22.2124  -18.4595   11.2682 C   0  0  1  0  0  0  0  0  0  0  0  0
   22.7567  -17.1085   11.6292 C   0  0  0  0  0  0  0  0  0  0  0  0
   23.2767  -16.3177   10.4628 C   0  0  0  0  0  0  0  0  0  0  0  0
   22.7471  -14.9414   10.5900 C   0  0  0  0  0  0  0  0  0  0  0  0
   22.3355  -14.5312   11.6837 O   0  0  0  0  0  0  0  0  0  0  0  0
   20.9705  -18.4182   10.4951 C   0  0  0  0  0  0  0  0  0  0  0  0
   20.8943  -18.7344    9.2717 O   0  0  0  0  0  0  0  0  0  0  0  0
   22.7091  -14.1086    9.4907 O   0  0  0  0  0  0  0  0  0  0  0  0
   17.3728  -18.0497   11.3071 C   0  0  0  0  0  0  0  0  0  0  0  0
   18.5136  -17.9679   10.3203 C   0  0  2  0  0  0  0  0  0  0  0  0
   19.7556  -18.0063   11.1085 N   0  0  0  0  0  0  0  0  0  0  0  0
   18.4449  -16.6672    9.6012 C   0  0  0  0  0  0  0  0  0  0  0  0
   19.1878  -15.7021    9.9295 O   0  0  0  0  0  0  0  0  0  0  0  0
   17.5489  -16.4930    8.5421 N   0  0  0  0  0  0  0  0  0  0  0  0
   17.4417  -15.2468    7.7492 C   0  0  1  0  0  0  0  0  0  0  0  0
   18.7871  -15.0417    7.1511 C   0  0  0  0  0  0  0  0  0  0  0  0
   18.9392  -13.9964    6.1451 C   0  0  0  0  0  0  0  0  0  0  0  0
   19.1677  -12.6270    6.3601 C   0  0  0  0  0  0  0  0  0  0  0  0
   19.2180  -11.9872    5.2013 N   0  0  0  0  0  0  0  0  0  0  0  0
   19.0353  -12.8504    4.1881 C   0  0  0  0  0  0  0  0  0  0  0  0
   19.0040  -12.7527    2.8153 C   0  0  0  0  0  0  0  0  0  0  0  0
   18.8076  -13.8617    2.0235 C   0  0  0  0  0  0  0  0  0  0  0  0
   18.6349  -15.1106    2.5749 C   0  0  0  0  0  0  0  0  0  0  0  0
   18.6662  -15.2022    3.9454 C   0  0  0  0  0  0  0  0  0  0  0  0
   18.8609  -14.1090    4.7766 C   0  0  0  0  0  0  0  0  0  0  0  0
   16.3479  -15.4393    6.7963 C   0  0  0  0  0  0  0  0  0  0  0  0
   15.6266  -14.4571    6.4414 O   0  0  0  0  0  0  0  0  0  0  0  0
   16.0489  -16.6925    6.2326 O   0  0  0  0  0  0  0  0  0  0  0  0
  2  1  1  6
  3  4  1  0
  3  2  1  0
  4  5  1  0
  5  9  1  0
  5  6  2  0
  7  8  2  0
  7  2  1  0
 11 10  1  1
 11 12  1  0
 11 13  1  0
 12  7  1  0
 13 15  1  0
 14 13  2  0
 15 16  1  0
 16 27  1  0
 16 17  1  6
 18 17  1  0
 19 18  2  0
 20 19  1  0
 21 20  1  0
 21 26  2  0
 22 23  2  0
 22 21  1  0
 23 24  1  0
 24 25  2  0
 26 25  1  0
 26 18  1  0
 27 28  2  0
 27 29  1  0
M  END
$$$$
