EAW.pdb
     RDKit          3D

 29 30  0  0  1  0  0  0  0  0999 V2000
   27.5118  -21.1870  -17.8656 N   0  0  0  0  0  0  0  0  0  0  0  0
   27.9987  -21.6530  -16.6007 C   0  0  1  0  0  0  0  0  0  0  0  0
   29.4596  -21.9955  -16.6209 C   0  0  0  0  0  0  0  0  0  0  0  0
   29.8082  -23.1735  -17.4852 C   0  0  0  0  0  0  0  0  0  0  0  0
   30.0610  -22.6609  -18.8506 C   0  0  0  0  0  0  0  0  0  0  0  0
   29.4073  -23.0941  -19.8093 O   0  0  0  0  0  0  0  0  0  0  0  0
   27.6171  -20.7179  -15.5415 C   0  0  0  0  0  0  0  0  0  0  0  0
   28.1767  -19.5971  -15.3593 O   0  0  0  0  0  0  0  0  0  0  0  0
   31.0262  -21.6980  -19.0623 O   0  0  0  0  0  0  0  0  0  0  0  0
   24.8793  -19.4715  -13.9998 C   0  0  0  0  0  0  0  0  0  0  0  0
   26.1905  -20.0935  -13.5807 C   0  0  2  0  0  0  0  0  0  0  0  0
   26.5647  -21.0418  -14.6418 N   0  0  0  0  0  0  0  0  0  0  0  0
   25.9900  -20.8489  -12.3147 C   0  0  0  0  0  0  0  0  0  0  0  0
   25.4931  -22.0082  -12.3204 O   0  0  0  0  0  0  0  0  0  0  0  0
   26.3522  -20.2811  -11.0894 N   0  0  0  0  0  0  0  0  0  0  0  0
   26.2005  -20.9669   -9.7857 C   0  0  1  0  0  0  0  0  0  0  0  0
   27.2059  -20.3385   -8.8890 C   0  0  0  0  0  0  0  0  0  0  0  0
   26.9259  -20.3087   -7.4577 C   0  0  0  0  0  0  0  0  0  0  0  0
   25.7969  -20.8182   -6.7947 C   0  0  0  0  0  0  0  0  0  0  0  0
   25.8849  -20.5757   -5.4954 N   0  0  0  0  0  0  0  0  0  0  0  0
   27.0258  -19.9203   -5.2235 C   0  0  0  0  0  0  0  0  0  0  0  0
   27.6285  -19.4405   -4.0826 C   0  0  0  0  0  0  0  0  0  0  0  0
   28.8500  -18.8074   -4.1311 C   0  0  0  0  0  0  0  0  0  0  0  0
   29.5150  -18.6300   -5.3227 C   0  0  0  0  0  0  0  0  0  0  0  0
   28.9086  -19.1100   -6.4582 C   0  0  0  0  0  0  0  0  0  0  0  0
   27.6793  -19.7524   -6.4505 C   0  0  0  0  0  0  0  0  0  0  0  0
   24.8035  -20.8090   -9.3796 C   0  0  0  0  0  0  0  0  0  0  0  0
   24.1480  -19.7786   -9.7255 O   0  0  0  0  0  0  0  0  0  0  0  0
   24.1279  -21.7707   -8.6073 O   0  0  0  0  0  0  0  0  0  0  0  0
  2  1  1  6
  3  4  1  0
  3  2  1  0
  4  5  1  0
  5  9  1  0
  5  6  2  0
  7  8  2  0
  7  2  1  0
 11 10  1  6
 11 12  1  0
 11 13  1  0
 12  7  1  0
 13 15  1  0
 14 13  2  0
 15 16  1  0
 16 27  1  0
 16 17  1  1
 18 17  1  0
 19 18  2  0
 20 19  1  0
 21 20  1  0
 21 26  2  0
 22 23  2  0
 22 21  1  0
 23 24  1  0
 24 25  2  0
 26 25  1  0
 26 18  1  0
 27 28  2  0
 27 29  1  0
M  END
$$$$
