EAW.pdb
     RDKit          3D

 29 30  0  0  1  0  0  0  0  0999 V2000
   27.5490  -19.6692  -15.8821 N   0  0  0  0  0  0  0  0  0  0  0  0
   28.1901  -18.9277  -14.8365 C   0  0  1  0  0  0  0  0  0  0  0  0
   28.5757  -17.5377  -15.2501 C   0  0  0  0  0  0  0  0  0  0  0  0
   28.9943  -17.4123  -16.6873 C   0  0  0  0  0  0  0  0  0  0  0  0
   27.7722  -17.1607  -17.4836 C   0  0  0  0  0  0  0  0  0  0  0  0
   27.1342  -16.1103  -17.3301 O   0  0  0  0  0  0  0  0  0  0  0  0
   27.3871  -18.9882  -13.6144 C   0  0  0  0  0  0  0  0  0  0  0  0
   27.6553  -18.3329  -12.5650 O   0  0  0  0  0  0  0  0  0  0  0  0
   27.3375  -18.0952  -18.4009 O   0  0  0  0  0  0  0  0  0  0  0  0
   24.0261  -20.2978  -12.7662 C   0  0  0  0  0  0  0  0  0  0  0  0
   25.3938  -19.8147  -12.3444 C   0  0  2  0  0  0  0  0  0  0  0  0
   26.2319  -19.8150  -13.5538 N   0  0  0  0  0  0  0  0  0  0  0  0
   25.9699  -20.7745  -11.3644 C   0  0  0  0  0  0  0  0  0  0  0  0
   26.4207  -21.8924  -11.7364 O   0  0  0  0  0  0  0  0  0  0  0  0
   26.0211  -20.4500  -10.0054 N   0  0  0  0  0  0  0  0  0  0  0  0
   26.2607  -21.4392   -8.9298 C   0  0  1  0  0  0  0  0  0  0  0  0
   27.5710  -21.0666   -8.3346 C   0  0  0  0  0  0  0  0  0  0  0  0
   27.5936  -20.0060   -7.3334 C   0  0  0  0  0  0  0  0  0  0  0  0
   26.9256  -18.7709   -7.3783 C   0  0  0  0  0  0  0  0  0  0  0  0
   27.2143  -18.0586   -6.2994 N   0  0  0  0  0  0  0  0  0  0  0  0
   28.0534  -18.7430   -5.5042 C   0  0  0  0  0  0  0  0  0  0  0  0
   28.6554  -18.5096   -4.2884 C   0  0  0  0  0  0  0  0  0  0  0  0
   29.4770  -19.4478   -3.7052 C   0  0  0  0  0  0  0  0  0  0  0  0
   29.7278  -20.6550   -4.3161 C   0  0  0  0  0  0  0  0  0  0  0  0
   29.1251  -20.8824   -5.5296 C   0  0  0  0  0  0  0  0  0  0  0  0
   28.2920  -19.9627   -6.1493 C   0  0  0  0  0  0  0  0  0  0  0  0
   25.1126  -21.3732   -8.0248 C   0  0  0  0  0  0  0  0  0  0  0  0
   24.2108  -20.4967   -8.1963 O   0  0  0  0  0  0  0  0  0  0  0  0
   24.9493  -22.2602   -6.9457 O   0  0  0  0  0  0  0  0  0  0  0  0
  2  1  1  6
  3  4  1  0
  3  2  1  0
  4  5  1  0
  5  9  1  0
  5  6  2  0
  7  8  2  0
  7  2  1  0
 11 10  1  6
 11 12  1  0
 11 13  1  0
 12  7  1  0
 13 15  1  0
 14 13  2  0
 15 16  1  0
 16 27  1  0
 16 17  1  1
 18 17  1  0
 19 18  2  0
 20 19  1  0
 21 20  1  0
 21 26  2  0
 22 23  2  0
 22 21  1  0
 23 24  1  0
 24 25  2  0
 26 25  1  0
 26 18  1  0
 27 28  2  0
 27 29  1  0
M  END
$$$$
