EAW.pdb
     RDKit          3D

 29 30  0  0  1  0  0  0  0  0999 V2000
   20.3052  -19.9332  -11.6300 N   0  0  0  0  0  0  0  0  0  0  0  0
   20.4132  -21.3482  -11.8310 C   0  0  1  0  0  0  0  0  0  0  0  0
   19.1237  -21.9827  -12.2628 C   0  0  0  0  0  0  0  0  0  0  0  0
   18.3794  -21.2173  -13.3194 C   0  0  0  0  0  0  0  0  0  0  0  0
   17.2712  -20.5010  -12.6488 C   0  0  0  0  0  0  0  0  0  0  0  0
   17.3575  -19.2849  -12.4309 O   0  0  0  0  0  0  0  0  0  0  0  0
   21.5491  -21.6450  -12.7047 C   0  0  0  0  0  0  0  0  0  0  0  0
   21.8464  -22.8109  -13.0981 O   0  0  0  0  0  0  0  0  0  0  0  0
   16.1365  -21.1845  -12.2631 O   0  0  0  0  0  0  0  0  0  0  0  0
   23.2718  -20.1870  -15.3502 C   0  0  0  0  0  0  0  0  0  0  0  0
   23.5295  -20.9086  -14.0483 C   0  0  2  0  0  0  0  0  0  0  0  0
   22.3954  -20.5985  -13.1635 N   0  0  0  0  0  0  0  0  0  0  0  0
   24.7746  -20.3753  -13.4327 C   0  0  0  0  0  0  0  0  0  0  0  0
   24.8401  -19.1835  -13.0249 O   0  0  0  0  0  0  0  0  0  0  0  0
   25.9002  -21.1933  -13.2954 N   0  0  0  0  0  0  0  0  0  0  0  0
   27.1869  -20.7362  -12.7223 C   0  0  1  0  0  0  0  0  0  0  0  0
   27.3713  -21.5317  -11.4801 C   0  0  0  0  0  0  0  0  0  0  0  0
   26.8358  -20.9937  -10.2344 C   0  0  0  0  0  0  0  0  0  0  0  0
   25.5176  -20.5830   -9.9751 C   0  0  0  0  0  0  0  0  0  0  0  0
   25.4205  -20.1215   -8.7371 N   0  0  0  0  0  0  0  0  0  0  0  0
   26.6128  -20.1932   -8.1220 C   0  0  0  0  0  0  0  0  0  0  0  0
   27.0852  -19.8795   -6.8676 C   0  0  0  0  0  0  0  0  0  0  0  0
   28.4010  -20.0941   -6.5244 C   0  0  0  0  0  0  0  0  0  0  0  0
   29.2945  -20.6306   -7.4231 C   0  0  0  0  0  0  0  0  0  0  0  0
   28.8179  -20.9410   -8.6737 C   0  0  0  0  0  0  0  0  0  0  0  0
   27.5003  -20.7394   -9.0574 C   0  0  0  0  0  0  0  0  0  0  0  0
   28.2066  -20.9280  -13.7542 C   0  0  0  0  0  0  0  0  0  0  0  0
   27.9547  -21.6288  -14.7819 O   0  0  0  0  0  0  0  0  0  0  0  0
   29.4878  -20.3548  -13.6659 O   0  0  0  0  0  0  0  0  0  0  0  0
  2  1  1  6
  3  4  1  0
  3  2  1  0
  4  5  1  0
  5  9  1  0
  5  6  2  0
  7  8  2  0
  7  2  1  0
 11 10  1  6
 11 12  1  0
 11 13  1  0
 12  7  1  0
 13 15  1  0
 14 13  2  0
 15 16  1  0
 16 27  1  0
 16 17  1  1
 18 17  1  0
 19 18  2  0
 20 19  1  0
 21 20  1  0
 21 26  2  0
 22 23  2  0
 22 21  1  0
 23 24  1  0
 24 25  2  0
 26 25  1  0
 26 18  1  0
 27 28  2  0
 27 29  1  0
M  END
$$$$
