EAW.pdb
     RDKit          3D

 29 30  0  0  1  0  0  0  0  0999 V2000
   19.0870  -29.3615   -2.8482 N   0  0  0  0  0  0  0  0  0  0  0  0
   17.8089  -29.9326   -2.5406 C   0  0  1  0  0  0  0  0  0  0  0  0
   17.9039  -31.1753   -1.7048 C   0  0  0  0  0  0  0  0  0  0  0  0
   18.6147  -32.3181   -2.3718 C   0  0  0  0  0  0  0  0  0  0  0  0
   17.6949  -33.4778   -2.3614 C   0  0  0  0  0  0  0  0  0  0  0  0
   16.9315  -33.6756   -3.3163 O   0  0  0  0  0  0  0  0  0  0  0  0
   16.9211  -28.9071   -1.9909 C   0  0  0  0  0  0  0  0  0  0  0  0
   15.7070  -29.1134   -1.6980 O   0  0  0  0  0  0  0  0  0  0  0  0
   17.6834  -34.3442   -1.2877 O   0  0  0  0  0  0  0  0  0  0  0  0
   17.2889  -25.8882   -0.0794 C   0  0  0  0  0  0  0  0  0  0  0  0
   16.5091  -26.5760   -1.1751 C   0  0  2  0  0  0  0  0  0  0  0  0
   17.4034  -27.5905   -1.7551 N   0  0  0  0  0  0  0  0  0  0  0  0
   16.1676  -25.5825   -2.2287 C   0  0  0  0  0  0  0  0  0  0  0  0
   15.4600  -24.5721   -1.9655 O   0  0  0  0  0  0  0  0  0  0  0  0
   16.6294  -25.7548   -3.5371 N   0  0  0  0  0  0  0  0  0  0  0  0
   16.3353  -24.8177   -4.6455 C   0  0  1  0  0  0  0  0  0  0  0  0
   17.4663  -24.9656   -5.5989 C   0  0  0  0  0  0  0  0  0  0  0  0
   17.3071  -24.4211   -6.9428 C   0  0  0  0  0  0  0  0  0  0  0  0
   16.6088  -23.2621   -7.3205 C   0  0  0  0  0  0  0  0  0  0  0  0
   16.6608  -23.1082   -8.6352 N   0  0  0  0  0  0  0  0  0  0  0  0
   17.3651  -24.1086   -9.1903 C   0  0  0  0  0  0  0  0  0  0  0  0
   17.7431  -24.4435  -10.4710 C   0  0  0  0  0  0  0  0  0  0  0  0
   18.5062  -25.5615  -10.7223 C   0  0  0  0  0  0  0  0  0  0  0  0
   18.9202  -26.3869   -9.7020 C   0  0  0  0  0  0  0  0  0  0  0  0
   18.5394  -26.0485   -8.4261 C   0  0  0  0  0  0  0  0  0  0  0  0
   17.7710  -24.9316   -8.1326 C   0  0  0  0  0  0  0  0  0  0  0  0
   15.0158  -25.1745   -5.1682 C   0  0  0  0  0  0  0  0  0  0  0  0
   14.6887  -26.3932   -5.3049 O   0  0  0  0  0  0  0  0  0  0  0  0
   14.0612  -24.2084   -5.5329 O   0  0  0  0  0  0  0  0  0  0  0  0
  2  1  1  1
  3  4  1  0
  3  2  1  0
  4  5  1  0
  5  9  1  0
  5  6  2  0
  7  8  2  0
  7  2  1  0
 11 10  1  1
 11 12  1  0
 11 13  1  0
 12  7  1  0
 13 15  1  0
 14 13  2  0
 15 16  1  0
 16 27  1  0
 16 17  1  6
 18 17  1  0
 19 18  2  0
 20 19  1  0
 21 20  1  0
 21 26  2  0
 22 23  2  0
 22 21  1  0
 23 24  1  0
 24 25  2  0
 26 25  1  0
 26 18  1  0
 27 28  2  0
 27 29  1  0
M  END
$$$$
