KLA.pdb
     RDKit          3D

 23 22  0  0  1  0  0  0  0  0999 V2000
    8.2892  -14.7834   20.7882 N   0  0  0  0  0  0  0  0  0  0  0  0
    7.7158  -15.4319   21.9246 C   0  0  1  0  0  0  0  0  0  0  0  0
    7.7137  -16.9240   21.6839 C   0  0  0  0  0  0  0  0  0  0  0  0
    7.3584  -17.1512   20.2408 C   0  0  0  0  0  0  0  0  0  0  0  0
    6.9684  -18.5793   19.9428 C   0  0  0  0  0  0  0  0  0  0  0  0
    8.0206  -19.5656   20.3685 C   0  0  0  0  0  0  0  0  0  0  0  0
    7.5683  -20.8876   19.9591 N   0  0  0  0  0  0  0  0  0  0  0  0
    8.4138  -15.0525   23.1650 C   0  0  0  0  0  0  0  0  0  0  0  0
    9.6920  -14.9912   23.2241 O   0  0  0  0  0  0  0  0  0  0  0  0
    8.0526  -11.4095   25.7975 C   0  0  0  0  0  0  0  0  0  0  0  0
    6.8271  -12.3235   25.9456 C   0  0  2  0  0  0  0  0  0  0  0  0
    5.8308  -11.5830   26.7617 C   0  0  0  0  0  0  0  0  0  0  0  0
    7.3058  -13.6119   26.4728 C   0  0  0  0  0  0  0  0  0  0  0  0
    8.1937  -14.4180   25.5820 C   0  0  2  0  0  0  0  0  0  0  0  0
    7.6357  -14.7500   24.3159 N   0  0  0  0  0  0  0  0  0  0  0  0
    8.7495  -15.6009   26.3089 C   0  0  0  0  0  0  0  0  0  0  0  0
    9.1859  -15.4165   27.4750 O   0  0  0  0  0  0  0  0  0  0  0  0
    9.2288  -19.2822   25.6629 C   0  0  0  0  0  0  0  0  0  0  0  0
    9.4668  -18.0167   26.4357 C   0  0  2  0  0  0  0  0  0  0  0  0
    8.8163  -16.8939   25.7802 N   0  0  0  0  0  0  0  0  0  0  0  0
   10.9351  -17.8095   26.5378 C   0  0  0  0  0  0  0  0  0  0  0  0
   11.4209  -16.7911   25.9884 O   0  0  0  0  0  0  0  0  0  0  0  0
   11.7220  -18.7216   27.2207 O   0  0  0  0  0  0  0  0  0  0  0  0
  2  8  1  0
  2  1  1  6
  3  2  1  0
  4  3  1  0
  5  4  1  0
  6  5  1  0
  6  7  1  0
  8  9  2  0
 11 10  1  1
 11 12  1  0
 14 13  1  1
 13 11  1  0
 15 14  1  0
 15  8  1  0
 16 17  2  0
 16 14  1  0
 19 18  1  6
 19 21  1  0
 19 20  1  0
 20 16  1  0
 21 23  1  0
 22 21  2  0
M  END
$$$$
