KLA.pdb
     RDKit          3D

 23 22  0  0  1  0  0  0  0  0999 V2000
   10.2759  -17.9303   16.5197 N   0  0  0  0  0  0  0  0  0  0  0  0
    9.4465  -17.9691   17.6822 C   0  0  1  0  0  0  0  0  0  0  0  0
    9.3506  -19.3983   18.1643 C   0  0  0  0  0  0  0  0  0  0  0  0
    8.2981  -20.0863   17.3401 C   0  0  0  0  0  0  0  0  0  0  0  0
    8.0987  -21.5342   17.7198 C   0  0  0  0  0  0  0  0  0  0  0  0
    7.0865  -22.2251   16.8484 C   0  0  0  0  0  0  0  0  0  0  0  0
    5.7668  -21.8805   17.3577 N   0  0  0  0  0  0  0  0  0  0  0  0
    9.9375  -17.0460   18.7199 C   0  0  0  0  0  0  0  0  0  0  0  0
   11.1899  -16.8693   18.9228 O   0  0  0  0  0  0  0  0  0  0  0  0
    9.2003  -12.6104   19.7737 C   0  0  0  0  0  0  0  0  0  0  0  0
    7.9631  -13.4986   19.9724 C   0  0  2  0  0  0  0  0  0  0  0  0
    6.8226  -12.5928   20.2659 C   0  0  0  0  0  0  0  0  0  0  0  0
    8.3065  -14.5019   20.9934 C   0  0  0  0  0  0  0  0  0  0  0  0
    9.3299  -15.5236   20.6188 C   0  0  2  0  0  0  0  0  0  0  0  0
    8.9856  -16.3417   19.5067 N   0  0  0  0  0  0  0  0  0  0  0  0
    9.7654  -16.3086   21.8148 C   0  0  0  0  0  0  0  0  0  0  0  0
    9.0106  -17.2348   22.2108 O   0  0  0  0  0  0  0  0  0  0  0  0
   12.8830  -16.7389   23.8342 C   0  0  0  0  0  0  0  0  0  0  0  0
   11.3987  -16.8773   23.6521 C   0  0  2  0  0  0  0  0  0  0  0  0
   10.9518  -16.0824   22.5198 N   0  0  0  0  0  0  0  0  0  0  0  0
   10.7387  -16.4464   24.9123 C   0  0  0  0  0  0  0  0  0  0  0  0
    9.9645  -15.4602   24.8586 O   0  0  0  0  0  0  0  0  0  0  0  0
   10.9838  -17.1242   26.0946 O   0  0  0  0  0  0  0  0  0  0  0  0
  2  8  1  0
  2  1  1  6
  3  2  1  0
  4  3  1  0
  5  4  1  0
  6  5  1  0
  6  7  1  0
  8  9  2  0
 11 10  1  1
 11 12  1  0
 14 13  1  1
 13 11  1  0
 15 14  1  0
 15  8  1  0
 16 17  2  0
 16 14  1  0
 19 18  1  1
 19 21  1  0
 19 20  1  0
 20 16  1  0
 21 23  1  0
 22 21  2  0
M  END
$$$$
