KLA.pdb
     RDKit          3D

 23 22  0  0  1  0  0  0  0  0999 V2000
    9.0945  -15.1481   20.3002 N   0  0  0  0  0  0  0  0  0  0  0  0
    8.1711  -15.5639   21.3078 C   0  0  1  0  0  0  0  0  0  0  0  0
    7.7856  -17.0026   21.0510 C   0  0  0  0  0  0  0  0  0  0  0  0
    7.2029  -17.0770   19.6671 C   0  0  0  0  0  0  0  0  0  0  0  0
    6.7737  -18.4714   19.2774 C   0  0  0  0  0  0  0  0  0  0  0  0
    6.1036  -18.5140   17.9319 C   0  0  0  0  0  0  0  0  0  0  0  0
    5.7739  -19.9047   17.6542 N   0  0  0  0  0  0  0  0  0  0  0  0
    8.7208  -15.3501   22.6575 C   0  0  0  0  0  0  0  0  0  0  0  0
    9.9719  -15.4795   22.9009 O   0  0  0  0  0  0  0  0  0  0  0  0
    8.4419  -11.9758   25.8625 C   0  0  0  0  0  0  0  0  0  0  0  0
    7.1025  -12.6783   25.5948 C   0  0  2  0  0  0  0  0  0  0  0  0
    6.0624  -11.9273   26.3440 C   0  0  0  0  0  0  0  0  0  0  0  0
    7.2812  -14.1000   25.9321 C   0  0  0  0  0  0  0  0  0  0  0  0
    8.2141  -14.8864   25.0702 C   0  0  2  0  0  0  0  0  0  0  0  0
    7.8283  -14.9919   23.7047 N   0  0  0  0  0  0  0  0  0  0  0  0
    8.5355  -16.2066   25.6949 C   0  0  0  0  0  0  0  0  0  0  0  0
    7.5772  -16.9860   25.9369 O   0  0  0  0  0  0  0  0  0  0  0  0
   11.3523  -18.5145   25.9228 C   0  0  0  0  0  0  0  0  0  0  0  0
   10.1425  -17.9312   26.5949 C   0  0  2  0  0  0  0  0  0  0  0  0
    9.8261  -16.6309   26.0269 N   0  0  0  0  0  0  0  0  0  0  0  0
   10.4276  -17.8331   28.0504 C   0  0  0  0  0  0  0  0  0  0  0  0
   10.7444  -18.8857   28.6558 O   0  0  0  0  0  0  0  0  0  0  0  0
   10.3408  -16.6117   28.6970 O   0  0  0  0  0  0  0  0  0  0  0  0
  2  8  1  0
  2  1  1  6
  3  2  1  0
  4  3  1  0
  5  4  1  0
  6  5  1  0
  6  7  1  0
  8  9  2  0
 11 10  1  1
 11 12  1  0
 14 13  1  1
 13 11  1  0
 15 14  1  0
 15  8  1  0
 16 17  2  0
 16 14  1  0
 19 18  1  6
 19 21  1  0
 19 20  1  0
 20 16  1  0
 21 23  1  0
 22 21  2  0
M  END
$$$$
