KLA.pdb
     RDKit          3D

 23 22  0  0  1  0  0  0  0  0999 V2000
    8.7191  -16.1412   20.4543 N   0  0  0  0  0  0  0  0  0  0  0  0
    8.0998  -16.6097   21.6534 C   0  0  1  0  0  0  0  0  0  0  0  0
    8.3976  -18.0830   21.8115 C   0  0  0  0  0  0  0  0  0  0  0  0
    7.9599  -18.7732   20.5496 C   0  0  0  0  0  0  0  0  0  0  0  0
    8.1121  -20.2744   20.6102 C   0  0  0  0  0  0  0  0  0  0  0  0
    7.6284  -20.9543   19.3592 C   0  0  0  0  0  0  0  0  0  0  0  0
    7.8029  -22.3874   19.5480 N   0  0  0  0  0  0  0  0  0  0  0  0
    8.5194  -15.8119   22.8184 C   0  0  0  0  0  0  0  0  0  0  0  0
    9.7565  -15.6379   23.1023 O   0  0  0  0  0  0  0  0  0  0  0  0
    5.6005  -12.0801   26.8194 C   0  0  0  0  0  0  0  0  0  0  0  0
    6.9447  -12.7001   26.4099 C   0  0  2  0  0  0  0  0  0  0  0  0
    7.9140  -11.5822   26.2752 C   0  0  0  0  0  0  0  0  0  0  0  0
    6.6982  -13.5254   25.2161 C   0  0  0  0  0  0  0  0  0  0  0  0
    7.7941  -14.4494   24.7958 C   0  0  2  0  0  0  0  0  0  0  0  0
    7.5152  -15.2276   23.6378 N   0  0  0  0  0  0  0  0  0  0  0  0
    8.2785  -15.2659   25.9513 C   0  0  0  0  0  0  0  0  0  0  0  0
    8.5956  -14.6547   27.0050 O   0  0  0  0  0  0  0  0  0  0  0  0
    8.4872  -18.8982   26.8691 C   0  0  0  0  0  0  0  0  0  0  0  0
    8.8482  -17.4544   27.0705 C   0  0  2  0  0  0  0  0  0  0  0  0
    8.4020  -16.6589   25.9384 N   0  0  0  0  0  0  0  0  0  0  0  0
   10.3216  -17.3691   27.2470 C   0  0  0  0  0  0  0  0  0  0  0  0
   10.9745  -16.7138   26.3989 O   0  0  0  0  0  0  0  0  0  0  0  0
   10.9329  -17.9990   28.3179 O   0  0  0  0  0  0  0  0  0  0  0  0
  2  8  1  0
  2  1  1  6
  3  2  1  0
  4  3  1  0
  5  4  1  0
  6  5  1  0
  6  7  1  0
  8  9  2  0
 11 10  1  6
 11 12  1  0
 14 13  1  1
 13 11  1  0
 15 14  1  0
 15  8  1  0
 16 17  2  0
 16 14  1  0
 19 18  1  6
 19 21  1  0
 19 20  1  0
 20 16  1  0
 21 23  1  0
 22 21  2  0
M  END
$$$$
