KLA.pdb
     RDKit          3D

 23 22  0  0  1  0  0  0  0  0999 V2000
   10.8462  -18.6160   18.1080 N   0  0  0  0  0  0  0  0  0  0  0  0
    9.6784  -18.0309   18.6864 C   0  0  1  0  0  0  0  0  0  0  0  0
    8.8164  -19.1312   19.2615 C   0  0  0  0  0  0  0  0  0  0  0  0
    8.2970  -19.9495   18.1121 C   0  0  0  0  0  0  0  0  0  0  0  0
    7.2234  -20.9305   18.5187 C   0  0  0  0  0  0  0  0  0  0  0  0
    6.6494  -21.6764   17.3460 C   0  0  0  0  0  0  0  0  0  0  0  0
    5.6138  -22.5622   17.8588 N   0  0  0  0  0  0  0  0  0  0  0  0
   10.0321  -17.0019   19.6793 C   0  0  0  0  0  0  0  0  0  0  0  0
   11.2398  -16.8361   20.0729 O   0  0  0  0  0  0  0  0  0  0  0  0
    8.7441  -12.6333   19.4308 C   0  0  0  0  0  0  0  0  0  0  0  0
    7.6472  -13.5662   19.9651 C   0  0  2  0  0  0  0  0  0  0  0  0
    6.3885  -12.7778   20.0023 C   0  0  0  0  0  0  0  0  0  0  0  0
    8.1312  -14.1228   21.2391 C   0  0  0  0  0  0  0  0  0  0  0  0
    9.2135  -15.1494   21.1596 C   0  0  2  0  0  0  0  0  0  0  0  0
    8.9965  -16.1809   20.2038 N   0  0  0  0  0  0  0  0  0  0  0  0
    9.5591  -15.6693   22.5186 C   0  0  0  0  0  0  0  0  0  0  0  0
    9.8384  -14.8271   23.4114 O   0  0  0  0  0  0  0  0  0  0  0  0
    9.4524  -18.8995   24.3957 C   0  0  0  0  0  0  0  0  0  0  0  0
   10.0300  -17.5350   24.1507 C   0  0  2  0  0  0  0  0  0  0  0  0
    9.5925  -17.0246   22.8617 N   0  0  0  0  0  0  0  0  0  0  0  0
   11.5109  -17.6438   24.2173 C   0  0  0  0  0  0  0  0  0  0  0  0
   12.0250  -17.9512   25.3202 O   0  0  0  0  0  0  0  0  0  0  0  0
   12.2786  -17.4098   23.0890 O   0  0  0  0  0  0  0  0  0  0  0  0
  2  8  1  0
  2  1  1  1
  3  2  1  0
  4  3  1  0
  5  4  1  0
  6  5  1  0
  6  7  1  0
  8  9  2  0
 11 10  1  1
 11 12  1  0
 14 13  1  1
 13 11  1  0
 15 14  1  0
 15  8  1  0
 16 17  2  0
 16 14  1  0
 19 18  1  6
 19 21  1  0
 19 20  1  0
 20 16  1  0
 21 23  1  0
 22 21  2  0
M  END
$$$$
