KLA.pdb
     RDKit          3D

 23 22  0  0  1  0  0  0  0  0999 V2000
    7.1995  -15.8450   21.5651 N   0  0  0  0  0  0  0  0  0  0  0  0
    8.3886  -15.0535   21.5474 C   0  0  1  0  0  0  0  0  0  0  0  0
    8.1622  -13.8548   20.6550 C   0  0  0  0  0  0  0  0  0  0  0  0
    7.7982  -14.3671   19.2892 C   0  0  0  0  0  0  0  0  0  0  0  0
    8.2871  -13.4774   18.1713 C   0  0  0  0  0  0  0  0  0  0  0  0
    7.7298  -13.8743   16.8323 C   0  0  0  0  0  0  0  0  0  0  0  0
    8.3194  -12.9906   15.8366 N   0  0  0  0  0  0  0  0  0  0  0  0
    8.8040  -14.6825   22.9110 C   0  0  0  0  0  0  0  0  0  0  0  0
    9.9690  -14.2074   23.1519 O   0  0  0  0  0  0  0  0  0  0  0  0
    7.9241  -11.7880   26.2034 C   0  0  0  0  0  0  0  0  0  0  0  0
    6.7098  -12.6695   25.8756 C   0  0  2  0  0  0  0  0  0  0  0  0
    5.5547  -12.1114   26.6251 C   0  0  0  0  0  0  0  0  0  0  0  0
    7.0912  -14.0615   26.1649 C   0  0  0  0  0  0  0  0  0  0  0  0
    8.1956  -14.6435   25.3444 C   0  0  2  0  0  0  0  0  0  0  0  0
    7.8779  -14.8620   23.9747 N   0  0  0  0  0  0  0  0  0  0  0  0
    8.7817  -15.8465   26.0119 C   0  0  0  0  0  0  0  0  0  0  0  0
    8.9436  -15.8003   27.2593 O   0  0  0  0  0  0  0  0  0  0  0  0
    9.6901  -19.3701   25.0940 C   0  0  0  0  0  0  0  0  0  0  0  0
    9.7772  -18.1649   25.9858 C   0  0  2  0  0  0  0  0  0  0  0  0
    9.1607  -17.0153   25.3440 N   0  0  0  0  0  0  0  0  0  0  0  0
   11.2121  -17.9159   26.2833 C   0  0  0  0  0  0  0  0  0  0  0  0
   11.7383  -16.8841   25.8001 O   0  0  0  0  0  0  0  0  0  0  0  0
   11.9256  -18.8050   27.0692 O   0  0  0  0  0  0  0  0  0  0  0  0
  2  8  1  0
  2  1  1  1
  3  2  1  0
  4  3  1  0
  5  4  1  0
  6  5  1  0
  6  7  1  0
  8  9  2  0
 11 10  1  1
 11 12  1  0
 14 13  1  1
 13 11  1  0
 15 14  1  0
 15  8  1  0
 16 17  2  0
 16 14  1  0
 19 18  1  6
 19 21  1  0
 19 20  1  0
 20 16  1  0
 21 23  1  0
 22 21  2  0
M  END
$$$$
