KLA.pdb
     RDKit          3D

 23 22  0  0  1  0  0  0  0  0999 V2000
    9.0954  -15.3440   20.3494 N   0  0  0  0  0  0  0  0  0  0  0  0
    8.1275  -15.6837   21.3436 C   0  0  1  0  0  0  0  0  0  0  0  0
    7.6919  -17.1151   21.1299 C   0  0  0  0  0  0  0  0  0  0  0  0
    7.8939  -17.4395   19.6759 C   0  0  0  0  0  0  0  0  0  0  0  0
    7.4765  -18.8458   19.3174 C   0  0  0  0  0  0  0  0  0  0  0  0
    7.6661  -19.1494   17.8569 C   0  0  0  0  0  0  0  0  0  0  0  0
    7.1037  -20.4696   17.6107 N   0  0  0  0  0  0  0  0  0  0  0  0
    8.6464  -15.4390   22.7003 C   0  0  0  0  0  0  0  0  0  0  0  0
    9.8983  -15.5097   22.9628 O   0  0  0  0  0  0  0  0  0  0  0  0
    7.9145  -11.9071   25.6412 C   0  0  0  0  0  0  0  0  0  0  0  0
    6.6793  -12.8054   25.4791 C   0  0  2  0  0  0  0  0  0  0  0  0
    5.5693  -12.1533   26.2207 C   0  0  0  0  0  0  0  0  0  0  0  0
    7.0676  -14.1607   25.9028 C   0  0  0  0  0  0  0  0  0  0  0  0
    8.1017  -14.8555   25.0784 C   0  0  2  0  0  0  0  0  0  0  0  0
    7.7227  -15.1176   23.7322 N   0  0  0  0  0  0  0  0  0  0  0  0
    8.6292  -16.0622   25.7871 C   0  0  0  0  0  0  0  0  0  0  0  0
    7.8086  -16.9692   26.0840 O   0  0  0  0  0  0  0  0  0  0  0  0
   11.9588  -17.6176   26.3766 C   0  0  0  0  0  0  0  0  0  0  0  0
   10.5040  -17.4703   26.7191 C   0  0  2  0  0  0  0  0  0  0  0  0
    9.9694  -16.2485   26.1406 N   0  0  0  0  0  0  0  0  0  0  0  0
   10.3781  -17.4702   28.2002 C   0  0  0  0  0  0  0  0  0  0  0  0
    9.8538  -16.4668   28.7417 O   0  0  0  0  0  0  0  0  0  0  0  0
   10.8304  -18.5509   28.9383 O   0  0  0  0  0  0  0  0  0  0  0  0
  2  8  1  0
  2  1  1  6
  3  2  1  0
  4  3  1  0
  5  4  1  0
  6  5  1  0
  6  7  1  0
  8  9  2  0
 11 10  1  1
 11 12  1  0
 14 13  1  1
 13 11  1  0
 15 14  1  0
 15  8  1  0
 16 17  2  0
 16 14  1  0
 19 18  1  1
 19 21  1  0
 19 20  1  0
 20 16  1  0
 21 23  1  0
 22 21  2  0
M  END
$$$$
