KLA.pdb
     RDKit          3D

 23 22  0  0  1  0  0  0  0  0999 V2000
    6.6347  -16.0317   21.9385 N   0  0  0  0  0  0  0  0  0  0  0  0
    7.7900  -15.2331   21.6770 C   0  0  1  0  0  0  0  0  0  0  0  0
    7.3764  -14.0321   20.8580 C   0  0  0  0  0  0  0  0  0  0  0  0
    7.4435  -14.4254   19.4085 C   0  0  0  0  0  0  0  0  0  0  0  0
    8.0458  -13.3551   18.5298 C   0  0  0  0  0  0  0  0  0  0  0  0
    8.1310  -13.7728   17.0878 C   0  0  0  0  0  0  0  0  0  0  0  0
    8.6906  -12.6537   16.3433 N   0  0  0  0  0  0  0  0  0  0  0  0
    8.4792  -14.8654   22.9259 C   0  0  0  0  0  0  0  0  0  0  0  0
    9.6900  -14.4472   22.9261 O   0  0  0  0  0  0  0  0  0  0  0  0
    7.6649  -11.6479   25.7539 C   0  0  0  0  0  0  0  0  0  0  0  0
    6.6369  -12.7841   25.8608 C   0  0  2  0  0  0  0  0  0  0  0  0
    5.5117  -12.2737   26.6858 C   0  0  0  0  0  0  0  0  0  0  0  0
    7.3509  -13.9722   26.3567 C   0  0  0  0  0  0  0  0  0  0  0  0
    8.3128  -14.6229   25.4171 C   0  0  2  0  0  0  0  0  0  0  0  0
    7.7696  -14.9829   24.1523 N   0  0  0  0  0  0  0  0  0  0  0  0
    9.0391  -15.7456   26.0870 C   0  0  0  0  0  0  0  0  0  0  0  0
    9.4324  -15.5627   27.2686 O   0  0  0  0  0  0  0  0  0  0  0  0
    9.6310  -19.3858   25.4945 C   0  0  0  0  0  0  0  0  0  0  0  0
    9.9866  -18.0832   26.1520 C   0  0  2  0  0  0  0  0  0  0  0  0
    9.3091  -16.9807   25.4894 N   0  0  0  0  0  0  0  0  0  0  0  0
   11.4636  -17.9267   26.0935 C   0  0  0  0  0  0  0  0  0  0  0  0
   11.9238  -16.9747   25.4176 O   0  0  0  0  0  0  0  0  0  0  0  0
   12.2857  -18.8126   26.7693 O   0  0  0  0  0  0  0  0  0  0  0  0
  2  8  1  0
  2  1  1  1
  3  2  1  0
  4  3  1  0
  5  4  1  0
  6  5  1  0
  6  7  1  0
  8  9  2  0
 11 10  1  1
 11 12  1  0
 14 13  1  1
 13 11  1  0
 15 14  1  0
 15  8  1  0
 16 17  2  0
 16 14  1  0
 19 18  1  6
 19 21  1  0
 19 20  1  0
 20 16  1  0
 21 23  1  0
 22 21  2  0
M  END
$$$$
