KLA.pdb
     RDKit          3D

 23 22  0  0  1  0  0  0  0  0999 V2000
    8.7509  -15.3229   20.7730 N   0  0  0  0  0  0  0  0  0  0  0  0
    7.9039  -15.5582   21.8990 C   0  0  1  0  0  0  0  0  0  0  0  0
    7.4762  -17.0078   21.8918 C   0  0  0  0  0  0  0  0  0  0  0  0
    6.8261  -17.2835   20.5645 C   0  0  0  0  0  0  0  0  0  0  0  0
    6.1858  -18.6490   20.4888 C   0  0  0  0  0  0  0  0  0  0  0  0
    5.5447  -18.9125   19.1544 C   0  0  0  0  0  0  0  0  0  0  0  0
    4.9795  -20.2535   19.2007 N   0  0  0  0  0  0  0  0  0  0  0  0
    8.5624  -15.1612   23.1553 C   0  0  0  0  0  0  0  0  0  0  0  0
    9.8379  -15.1636   23.2744 O   0  0  0  0  0  0  0  0  0  0  0  0
    7.7918  -11.4139   25.3248 C   0  0  0  0  0  0  0  0  0  0  0  0
    6.7170  -12.4560   25.6680 C   0  0  2  0  0  0  0  0  0  0  0  0
    5.6405  -11.7422   26.4021 C   0  0  0  0  0  0  0  0  0  0  0  0
    7.3904  -13.5622   26.3680 C   0  0  0  0  0  0  0  0  0  0  0  0
    8.2603  -14.4533   25.5429 C   0  0  2  0  0  0  0  0  0  0  0  0
    7.7488  -14.7685   24.2531 N   0  0  0  0  0  0  0  0  0  0  0  0
    8.6813  -15.6596   26.3203 C   0  0  0  0  0  0  0  0  0  0  0  0
    9.1045  -15.4797   27.4919 O   0  0  0  0  0  0  0  0  0  0  0  0
    8.5729  -19.3927   25.9456 C   0  0  0  0  0  0  0  0  0  0  0  0
    9.1130  -18.1338   26.5613 C   0  0  2  0  0  0  0  0  0  0  0  0
    8.6359  -16.9696   25.8330 N   0  0  0  0  0  0  0  0  0  0  0  0
   10.5971  -18.2140   26.5449 C   0  0  0  0  0  0  0  0  0  0  0  0
   11.2219  -17.3433   25.8918 O   0  0  0  0  0  0  0  0  0  0  0  0
   11.2483  -19.2233   27.2337 O   0  0  0  0  0  0  0  0  0  0  0  0
  2  8  1  0
  2  1  1  6
  3  2  1  0
  4  3  1  0
  5  4  1  0
  6  5  1  0
  6  7  1  0
  8  9  2  0
 11 10  1  1
 11 12  1  0
 14 13  1  1
 13 11  1  0
 15 14  1  0
 15  8  1  0
 16 17  2  0
 16 14  1  0
 19 18  1  6
 19 21  1  0
 19 20  1  0
 20 16  1  0
 21 23  1  0
 22 21  2  0
M  END
$$$$
