KLA.pdb
     RDKit          3D

 23 22  0  0  1  0  0  0  0  0999 V2000
    7.1087  -15.3554   21.3186 N   0  0  0  0  0  0  0  0  0  0  0  0
    8.3239  -14.6044   21.3189 C   0  0  1  0  0  0  0  0  0  0  0  0
    8.0764  -13.2777   20.6386 C   0  0  0  0  0  0  0  0  0  0  0  0
    7.4733  -13.5631   19.2913 C   0  0  0  0  0  0  0  0  0  0  0  0
    8.4469  -13.3739   18.1525 C   0  0  0  0  0  0  0  0  0  0  0  0
    7.7926  -13.5101   16.8055 C   0  0  0  0  0  0  0  0  0  0  0  0
    8.8349  -13.3649   15.7992 N   0  0  0  0  0  0  0  0  0  0  0  0
    8.8612  -14.4578   22.6826 C   0  0  0  0  0  0  0  0  0  0  0  0
   10.0817  -14.1296   22.8913 O   0  0  0  0  0  0  0  0  0  0  0  0
    8.0735  -11.7085   26.0735 C   0  0  0  0  0  0  0  0  0  0  0  0
    6.8932  -12.6506   25.7935 C   0  0  2  0  0  0  0  0  0  0  0  0
    5.7425  -12.1516   26.5899 C   0  0  0  0  0  0  0  0  0  0  0  0
    7.3561  -14.0214   26.0647 C   0  0  0  0  0  0  0  0  0  0  0  0
    8.3918  -14.5789   25.1438 C   0  0  2  0  0  0  0  0  0  0  0  0
    7.9913  -14.6896   23.7830 N   0  0  0  0  0  0  0  0  0  0  0  0
    8.9703  -15.8444   25.6921 C   0  0  0  0  0  0  0  0  0  0  0  0
    9.1243  -15.9228   26.9389 O   0  0  0  0  0  0  0  0  0  0  0  0
    9.9503  -19.2289   24.3666 C   0  0  0  0  0  0  0  0  0  0  0  0
    9.8559  -18.1947   25.4515 C   0  0  2  0  0  0  0  0  0  0  0  0
    9.3500  -16.9424   24.9137 N   0  0  0  0  0  0  0  0  0  0  0  0
   11.2087  -18.0245   26.0433 C   0  0  0  0  0  0  0  0  0  0  0  0
   11.7841  -16.9215   25.8778 O   0  0  0  0  0  0  0  0  0  0  0  0
   11.7961  -19.0606   26.7496 O   0  0  0  0  0  0  0  0  0  0  0  0
  2  8  1  0
  2  1  1  1
  3  2  1  0
  4  3  1  0
  5  4  1  0
  6  5  1  0
  6  7  1  0
  8  9  2  0
 11 10  1  1
 11 12  1  0
 14 13  1  1
 13 11  1  0
 15 14  1  0
 15  8  1  0
 16 17  2  0
 16 14  1  0
 19 18  1  6
 19 21  1  0
 19 20  1  0
 20 16  1  0
 21 23  1  0
 22 21  2  0
M  END
$$$$
