KLA.pdb
     RDKit          3D

 23 22  0  0  1  0  0  0  0  0999 V2000
    7.2679  -15.8224   20.8757 N   0  0  0  0  0  0  0  0  0  0  0  0
    8.5678  -15.2313   20.9170 C   0  0  1  0  0  0  0  0  0  0  0  0
    8.6626  -14.1871   19.8284 C   0  0  0  0  0  0  0  0  0  0  0  0
    7.6752  -14.5568   18.7566 C   0  0  0  0  0  0  0  0  0  0  0  0
    7.6008  -13.5412   17.6416 C   0  0  0  0  0  0  0  0  0  0  0  0
    8.3234  -13.9912   16.4020 C   0  0  0  0  0  0  0  0  0  0  0  0
    8.0904  -12.9868   15.3740 N   0  0  0  0  0  0  0  0  0  0  0  0
    8.8680  -14.6933   22.2549 C   0  0  0  0  0  0  0  0  0  0  0  0
   10.0248  -14.2266   22.5466 O   0  0  0  0  0  0  0  0  0  0  0  0
    5.5094  -12.7461   27.0453 C   0  0  0  0  0  0  0  0  0  0  0  0
    6.9233  -13.0202   26.5115 C   0  0  2  0  0  0  0  0  0  0  0  0
    7.6750  -11.7418   26.6001 C   0  0  0  0  0  0  0  0  0  0  0  0
    6.7756  -13.6236   25.1769 C   0  0  0  0  0  0  0  0  0  0  0  0
    8.0049  -14.2060   24.5594 C   0  0  2  0  0  0  0  0  0  0  0  0
    7.8382  -14.6992   23.2352 N   0  0  0  0  0  0  0  0  0  0  0  0
    8.6494  -15.1938   25.4788 C   0  0  0  0  0  0  0  0  0  0  0  0
    8.8594  -14.8340   26.6665 O   0  0  0  0  0  0  0  0  0  0  0  0
    9.0960  -18.8358   25.7103 C   0  0  0  0  0  0  0  0  0  0  0  0
    9.6196  -17.4610   26.0123 C   0  0  2  0  0  0  0  0  0  0  0  0
    9.0329  -16.4863   25.1073 N   0  0  0  0  0  0  0  0  0  0  0  0
   11.1004  -17.4953   25.8876 C   0  0  0  0  0  0  0  0  0  0  0  0
   11.6241  -16.8302   24.9612 O   0  0  0  0  0  0  0  0  0  0  0  0
   11.8575  -18.2424   26.7742 O   0  0  0  0  0  0  0  0  0  0  0  0
  2  8  1  0
  2  1  1  1
  3  2  1  0
  4  3  1  0
  5  4  1  0
  6  5  1  0
  6  7  1  0
  8  9  2  0
 11 10  1  6
 11 12  1  0
 14 13  1  1
 13 11  1  0
 15 14  1  0
 15  8  1  0
 16 17  2  0
 16 14  1  0
 19 18  1  6
 19 21  1  0
 19 20  1  0
 20 16  1  0
 21 23  1  0
 22 21  2  0
M  END
$$$$
