KLA.pdb
     RDKit          3D

 23 22  0  0  1  0  0  0  0  0999 V2000
    7.2635  -15.6885   20.9330 N   0  0  0  0  0  0  0  0  0  0  0  0
    8.5210  -15.0122   20.9785 C   0  0  1  0  0  0  0  0  0  0  0  0
    8.5199  -13.9121   19.9422 C   0  0  0  0  0  0  0  0  0  0  0  0
    8.0509  -14.5101   18.6449 C   0  0  0  0  0  0  0  0  0  0  0  0
    8.3611  -13.6460   17.4460 C   0  0  0  0  0  0  0  0  0  0  0  0
    7.7608  -14.1836   16.1764 C   0  0  0  0  0  0  0  0  0  0  0  0
    8.1139  -13.2634   15.1048 N   0  0  0  0  0  0  0  0  0  0  0  0
    8.8147  -14.5207   22.3357 C   0  0  0  0  0  0  0  0  0  0  0  0
    9.9714  -14.0690   22.6502 O   0  0  0  0  0  0  0  0  0  0  0  0
    5.5673  -12.5069   27.1391 C   0  0  0  0  0  0  0  0  0  0  0  0
    6.9533  -12.9443   26.6425 C   0  0  2  0  0  0  0  0  0  0  0  0
    7.8658  -11.7871   26.8309 C   0  0  0  0  0  0  0  0  0  0  0  0
    6.7843  -13.4527   25.2714 C   0  0  0  0  0  0  0  0  0  0  0  0
    7.9532  -14.1568   24.6634 C   0  0  2  0  0  0  0  0  0  0  0  0
    7.7786  -14.5552   23.3087 N   0  0  0  0  0  0  0  0  0  0  0  0
    8.4288  -15.2659   25.5467 C   0  0  0  0  0  0  0  0  0  0  0  0
    8.6657  -14.9908   26.7518 O   0  0  0  0  0  0  0  0  0  0  0  0
    8.7836  -18.9927   25.3717 C   0  0  0  0  0  0  0  0  0  0  0  0
    9.1081  -17.6574   25.9777 C   0  0  2  0  0  0  0  0  0  0  0  0
    8.6269  -16.5840   25.1234 N   0  0  0  0  0  0  0  0  0  0  0  0
   10.5807  -17.5833   26.1654 C   0  0  0  0  0  0  0  0  0  0  0  0
   11.2125  -16.7295   25.4969 O   0  0  0  0  0  0  0  0  0  0  0  0
   11.2142  -18.4369   27.0528 O   0  0  0  0  0  0  0  0  0  0  0  0
  2  8  1  0
  2  1  1  1
  3  2  1  0
  4  3  1  0
  5  4  1  0
  6  5  1  0
  6  7  1  0
  8  9  2  0
 11 10  1  6
 11 12  1  0
 14 13  1  1
 13 11  1  0
 15 14  1  0
 15  8  1  0
 16 17  2  0
 16 14  1  0
 19 18  1  6
 19 21  1  0
 19 20  1  0
 20 16  1  0
 21 23  1  0
 22 21  2  0
M  END
$$$$
