KLA.pdb
     RDKit          3D

 23 22  0  0  1  0  0  0  0  0999 V2000
    9.7811  -18.3525   18.7348 N   0  0  0  0  0  0  0  0  0  0  0  0
   11.0576  -17.7474   18.9479 C   0  0  1  0  0  0  0  0  0  0  0  0
   11.6400  -17.3555   17.6094 C   0  0  0  0  0  0  0  0  0  0  0  0
   10.9860  -18.2117   16.5608 C   0  0  0  0  0  0  0  0  0  0  0  0
   11.5044  -17.9448   15.1679 C   0  0  0  0  0  0  0  0  0  0  0  0
   10.8550  -18.8211   14.1328 C   0  0  0  0  0  0  0  0  0  0  0  0
   11.3654  -18.4098   12.8326 N   0  0  0  0  0  0  0  0  0  0  0  0
   10.9623  -16.6150   19.8851 C   0  0  0  0  0  0  0  0  0  0  0  0
   11.9979  -15.9515   20.2435 O   0  0  0  0  0  0  0  0  0  0  0  0
    8.7156  -12.8728   19.5203 C   0  0  0  0  0  0  0  0  0  0  0  0
    7.7564  -14.0227   19.8615 C   0  0  2  0  0  0  0  0  0  0  0  0
    6.3760  -13.4977   19.6992 C   0  0  0  0  0  0  0  0  0  0  0  0
    8.1339  -14.5244   21.1930 C   0  0  0  0  0  0  0  0  0  0  0  0
    9.4639  -15.1946   21.3099 C   0  0  2  0  0  0  0  0  0  0  0  0
    9.6830  -16.2624   20.3953 N   0  0  0  0  0  0  0  0  0  0  0  0
    9.7530  -15.5665   22.7293 C   0  0  0  0  0  0  0  0  0  0  0  0
    9.6016  -14.6775   23.6074 O   0  0  0  0  0  0  0  0  0  0  0  0
    9.7200  -18.4738   24.8709 C   0  0  0  0  0  0  0  0  0  0  0  0
   10.4372  -17.2000   24.5264 C   0  0  2  0  0  0  0  0  0  0  0  0
   10.1790  -16.8323   23.1438 N   0  0  0  0  0  0  0  0  0  0  0  0
   11.8884  -17.4089   24.7709 C   0  0  0  0  0  0  0  0  0  0  0  0
   12.2578  -17.6166   25.9521 O   0  0  0  0  0  0  0  0  0  0  0  0
   12.7853  -17.3715   23.7166 O   0  0  0  0  0  0  0  0  0  0  0  0
  2  8  1  0
  2  1  1  6
  3  2  1  0
  4  3  1  0
  5  4  1  0
  6  5  1  0
  6  7  1  0
  8  9  2  0
 11 10  1  1
 11 12  1  0
 14 13  1  1
 13 11  1  0
 15 14  1  0
 15  8  1  0
 16 17  2  0
 16 14  1  0
 19 18  1  6
 19 21  1  0
 19 20  1  0
 20 16  1  0
 21 23  1  0
 22 21  2  0
M  END
$$$$
