GFF.pdb
     RDKit          3D

 27 28  0  0  1  0  0  0  0  0999 V2000
    7.3857  -20.0204   22.5011 N   0  0  0  0  0  0  0  0  0  0  0  0
    7.7585  -19.0541   21.4775 C   0  0  0  0  0  0  0  0  0  0  0  0
    8.0841  -17.7762   22.1280 C   0  0  0  0  0  0  0  0  0  0  0  0
    8.8882  -16.9728   21.6219 O   0  0  0  0  0  0  0  0  0  0  0  0
    7.4536  -17.4621   23.3726 N   0  0  0  0  0  0  0  0  0  0  0  0
    7.6801  -16.1674   23.9821 C   0  0  1  0  0  0  0  0  0  0  0  0
    6.4063  -15.6793   24.6028 C   0  0  0  0  0  0  0  0  0  0  0  0
    6.5080  -14.3000   25.1421 C   0  0  0  0  0  0  0  0  0  0  0  0
    7.1838  -13.3338   24.4403 C   0  0  0  0  0  0  0  0  0  0  0  0
    7.2722  -12.0403   24.9501 C   0  0  0  0  0  0  0  0  0  0  0  0
    6.6921  -11.7106   26.1505 C   0  0  0  0  0  0  0  0  0  0  0  0
    6.0095  -12.6743   26.8660 C   0  0  0  0  0  0  0  0  0  0  0  0
    5.9221  -13.9541   26.3612 C   0  0  0  0  0  0  0  0  0  0  0  0
    8.8155  -16.2972   24.9228 C   0  0  0  0  0  0  0  0  0  0  0  0
    8.6815  -16.0461   26.1653 O   0  0  0  0  0  0  0  0  0  0  0  0
   10.0867  -16.7050   24.4692 N   0  0  0  0  0  0  0  0  0  0  0  0
   11.3337  -16.2533   25.0512 C   0  0  1  0  0  0  0  0  0  0  0  0
   11.3404  -16.6043   26.5032 C   0  0  0  0  0  0  0  0  0  0  0  0
   10.8881  -15.5359   27.3966 C   0  0  0  0  0  0  0  0  0  0  0  0
   10.5582  -14.2846   26.9154 C   0  0  0  0  0  0  0  0  0  0  0  0
   10.1299  -13.2877   27.7522 C   0  0  0  0  0  0  0  0  0  0  0  0
   10.0153  -13.5141   29.1252 C   0  0  0  0  0  0  0  0  0  0  0  0
   10.3378  -14.7523   29.6307 C   0  0  0  0  0  0  0  0  0  0  0  0
   10.7635  -15.7300   28.7685 C   0  0  0  0  0  0  0  0  0  0  0  0
   12.5125  -16.6776   24.2943 C   0  0  0  0  0  0  0  0  0  0  0  0
   13.6536  -16.3292   24.6465 O   0  0  0  0  0  0  0  0  0  0  0  0
   12.3614  -17.4696   23.1824 O   0  0  0  0  0  0  0  0  0  0  0  0
  1  2  1  0
  3  4  2  0
  3  2  1  0
  5  3  1  0
  6  5  1  0
  6  7  1  1
  8 13  1  0
  8  7  1  0
  9  8  2  0
 10  9  1  0
 10 11  2  0
 11 12  1  0
 12 13  2  0
 14  6  1  0
 15 14  2  0
 16 14  1  0
 17 18  1  1
 17 16  1  0
 18 19  1  0
 19 24  1  0
 19 20  2  0
 20 21  1  0
 21 22  2  0
 23 22  1  0
 24 23  2  0
 25 17  1  0
 26 25  2  0
 27 25  1  0
M  END
$$$$
