GFF.pdb
     RDKit          3D

 27 28  0  0  1  0  0  0  0  0999 V2000
   10.6952  -16.8635   18.5803 N   0  0  0  0  0  0  0  0  0  0  0  0
    9.7976  -17.5062   19.5299 C   0  0  0  0  0  0  0  0  0  0  0  0
    9.7953  -16.7311   20.7795 C   0  0  0  0  0  0  0  0  0  0  0  0
   10.8537  -16.3789   21.3306 O   0  0  0  0  0  0  0  0  0  0  0  0
    8.5382  -16.3805   21.3645 N   0  0  0  0  0  0  0  0  0  0  0  0
    8.5103  -15.6839   22.6346 C   0  0  1  0  0  0  0  0  0  0  0  0
    7.1520  -15.0867   22.8453 C   0  0  0  0  0  0  0  0  0  0  0  0
    7.0804  -14.1972   24.0317 C   0  0  0  0  0  0  0  0  0  0  0  0
    7.4073  -12.8694   23.9180 C   0  0  0  0  0  0  0  0  0  0  0  0
    7.3343  -12.0391   25.0344 C   0  0  0  0  0  0  0  0  0  0  0  0
    6.9389  -12.5272   26.2558 C   0  0  0  0  0  0  0  0  0  0  0  0
    6.6077  -13.8616   26.3826 C   0  0  0  0  0  0  0  0  0  0  0  0
    6.6799  -14.6828   25.2777 C   0  0  0  0  0  0  0  0  0  0  0  0
    8.9374  -16.6337   23.6865 C   0  0  0  0  0  0  0  0  0  0  0  0
    8.5842  -17.8581   23.6599 O   0  0  0  0  0  0  0  0  0  0  0  0
    9.7528  -16.2090   24.7556 N   0  0  0  0  0  0  0  0  0  0  0  0
   10.3989  -17.1124   25.6851 C   0  0  1  0  0  0  0  0  0  0  0  0
   11.4386  -16.3556   26.4456 C   0  0  0  0  0  0  0  0  0  0  0  0
   10.9197  -15.5132   27.5251 C   0  0  0  0  0  0  0  0  0  0  0  0
   10.4685  -14.2305   27.2858 C   0  0  0  0  0  0  0  0  0  0  0  0
    9.9782  -13.4457   28.2964 C   0  0  0  0  0  0  0  0  0  0  0  0
    9.9221  -13.9277   29.6055 C   0  0  0  0  0  0  0  0  0  0  0  0
   10.3655  -15.2026   29.8713 C   0  0  0  0  0  0  0  0  0  0  0  0
   10.8507  -15.9643   28.8393 C   0  0  0  0  0  0  0  0  0  0  0  0
    9.4538  -17.8775   26.4998 C   0  0  0  0  0  0  0  0  0  0  0  0
    8.2397  -17.6066   26.4881 O   0  0  0  0  0  0  0  0  0  0  0  0
    9.9083  -18.9072   27.2869 O   0  0  0  0  0  0  0  0  0  0  0  0
  1  2  1  0
  3  4  2  0
  3  2  1  0
  5  3  1  0
  6  5  1  0
  6  7  1  1
  8 13  1  0
  8  7  1  0
  9  8  2  0
 10  9  1  0
 10 11  2  0
 11 12  1  0
 12 13  2  0
 14  6  1  0
 15 14  2  0
 16 14  1  0
 17 18  1  1
 17 16  1  0
 18 19  1  0
 19 24  1  0
 19 20  2  0
 20 21  1  0
 21 22  2  0
 23 22  1  0
 24 23  2  0
 25 17  1  0
 26 25  2  0
 27 25  1  0
M  END
$$$$
