GFF.pdb
     RDKit          3D

 27 28  0  0  1  0  0  0  0  0999 V2000
   10.5091  -17.1857   18.5015 N   0  0  0  0  0  0  0  0  0  0  0  0
    9.7299  -17.8304   19.5492 C   0  0  0  0  0  0  0  0  0  0  0  0
    9.6514  -16.9263   20.7062 C   0  0  0  0  0  0  0  0  0  0  0  0
   10.6331  -16.2605   21.0816 O   0  0  0  0  0  0  0  0  0  0  0  0
    8.4098  -16.8196   21.4078 N   0  0  0  0  0  0  0  0  0  0  0  0
    8.3360  -16.0183   22.6127 C   0  0  1  0  0  0  0  0  0  0  0  0
    6.9360  -15.5137   22.7903 C   0  0  0  0  0  0  0  0  0  0  0  0
    6.7810  -14.6154   23.9620 C   0  0  0  0  0  0  0  0  0  0  0  0
    7.0991  -13.2848   23.8570 C   0  0  0  0  0  0  0  0  0  0  0  0
    6.9476  -12.4464   24.9593 C   0  0  0  0  0  0  0  0  0  0  0  0
    6.4829  -12.9292   26.1581 C   0  0  0  0  0  0  0  0  0  0  0  0
    6.1597  -14.2664   26.2761 C   0  0  0  0  0  0  0  0  0  0  0  0
    6.3096  -15.0956   25.1851 C   0  0  0  0  0  0  0  0  0  0  0  0
    8.8455  -16.8352   23.7370 C   0  0  0  0  0  0  0  0  0  0  0  0
    8.4979  -18.0525   23.8853 O   0  0  0  0  0  0  0  0  0  0  0  0
    9.7358  -16.2871   24.6830 N   0  0  0  0  0  0  0  0  0  0  0  0
   10.4911  -17.0783   25.6324 C   0  0  1  0  0  0  0  0  0  0  0  0
   11.6043  -16.2427   26.1750 C   0  0  0  0  0  0  0  0  0  0  0  0
   11.2096  -15.2953   27.2195 C   0  0  0  0  0  0  0  0  0  0  0  0
   11.2096  -15.6510   28.5535 C   0  0  0  0  0  0  0  0  0  0  0  0
   10.8452  -14.7614   29.5299 C   0  0  0  0  0  0  0  0  0  0  0  0
   10.4612  -13.4609   29.1974 C   0  0  0  0  0  0  0  0  0  0  0  0
   10.4524  -13.0806   27.8753 C   0  0  0  0  0  0  0  0  0  0  0  0
   10.8222  -13.9930   26.9206 C   0  0  0  0  0  0  0  0  0  0  0  0
    9.6513  -17.7373   26.6337 C   0  0  0  0  0  0  0  0  0  0  0  0
   10.1294  -18.5903   27.4027 O   0  0  0  0  0  0  0  0  0  0  0  0
    8.3201  -17.4129   26.7289 O   0  0  0  0  0  0  0  0  0  0  0  0
  1  2  1  0
  3  4  2  0
  3  2  1  0
  5  3  1  0
  6  5  1  0
  6  7  1  1
  8 13  1  0
  8  7  1  0
  9  8  2  0
 10  9  1  0
 10 11  2  0
 11 12  1  0
 12 13  2  0
 14  6  1  0
 15 14  2  0
 16 14  1  0
 17 18  1  1
 17 16  1  0
 18 19  1  0
 19 24  1  0
 19 20  2  0
 20 21  1  0
 21 22  2  0
 23 22  1  0
 24 23  2  0
 25 17  1  0
 26 25  2  0
 27 25  1  0
M  END
$$$$
