GFF.pdb
     RDKit          3D

 27 28  0  0  1  0  0  0  0  0999 V2000
    7.9847  -19.6242   19.6888 N   0  0  0  0  0  0  0  0  0  0  0  0
    7.5362  -19.6044   21.0741 C   0  0  0  0  0  0  0  0  0  0  0  0
    7.9321  -18.3255   21.6824 C   0  0  0  0  0  0  0  0  0  0  0  0
    8.9344  -17.7001   21.2922 O   0  0  0  0  0  0  0  0  0  0  0  0
    7.1361  -17.7994   22.7477 N   0  0  0  0  0  0  0  0  0  0  0  0
    7.5483  -16.5804   23.4135 C   0  0  1  0  0  0  0  0  0  0  0  0
    6.3615  -15.9487   24.0757 C   0  0  0  0  0  0  0  0  0  0  0  0
    6.6570  -14.6170   24.6614 C   0  0  0  0  0  0  0  0  0  0  0  0
    6.3797  -14.3682   25.9820 C   0  0  0  0  0  0  0  0  0  0  0  0
    6.6631  -13.1174   26.5264 C   0  0  0  0  0  0  0  0  0  0  0  0
    7.2184  -12.1211   25.7616 C   0  0  0  0  0  0  0  0  0  0  0  0
    7.5017  -12.3595   24.4314 C   0  0  0  0  0  0  0  0  0  0  0  0
    7.2214  -13.5972   23.8931 C   0  0  0  0  0  0  0  0  0  0  0  0
    8.6620  -16.9140   24.3297 C   0  0  0  0  0  0  0  0  0  0  0  0
    8.5002  -17.7129   25.3096 O   0  0  0  0  0  0  0  0  0  0  0  0
    9.9427  -16.3541   24.1441 N   0  0  0  0  0  0  0  0  0  0  0  0
   10.7711  -15.8601   25.2247 C   0  0  1  0  0  0  0  0  0  0  0  0
    9.9927  -14.8499   26.0027 C   0  0  0  0  0  0  0  0  0  0  0  0
   10.3108  -14.7950   27.4310 C   0  0  0  0  0  0  0  0  0  0  0  0
   10.2399  -13.6130   28.1410 C   0  0  0  0  0  0  0  0  0  0  0  0
   10.5326  -13.5646   29.4786 C   0  0  0  0  0  0  0  0  0  0  0  0
   10.9135  -14.7199   30.1638 C   0  0  0  0  0  0  0  0  0  0  0  0
   10.9921  -15.9111   29.4800 C   0  0  0  0  0  0  0  0  0  0  0  0
   10.6931  -15.9282   28.1418 C   0  0  0  0  0  0  0  0  0  0  0  0
   11.3872  -16.9268   26.0152 C   0  0  0  0  0  0  0  0  0  0  0  0
   10.7827  -17.9940   26.2236 O   0  0  0  0  0  0  0  0  0  0  0  0
   12.6468  -16.7518   26.5341 O   0  0  0  0  0  0  0  0  0  0  0  0
  1  2  1  0
  3  4  2  0
  3  2  1  0
  5  3  1  0
  6  5  1  0
  6  7  1  1
  8 13  1  0
  8  7  1  0
  9  8  2  0
 10  9  1  0
 10 11  2  0
 11 12  1  0
 12 13  2  0
 14  6  1  0
 15 14  2  0
 16 14  1  0
 17 18  1  1
 17 16  1  0
 18 19  1  0
 19 24  1  0
 19 20  2  0
 20 21  1  0
 21 22  2  0
 23 22  1  0
 24 23  2  0
 25 17  1  0
 26 25  2  0
 27 25  1  0
M  END
$$$$
