GFF.pdb
     RDKit          3D

 27 28  0  0  1  0  0  0  0  0999 V2000
    8.5140  -19.3281   20.1844 N   0  0  0  0  0  0  0  0  0  0  0  0
    7.8364  -18.4800   21.1551 C   0  0  0  0  0  0  0  0  0  0  0  0
    8.7272  -17.3672   21.5161 C   0  0  0  0  0  0  0  0  0  0  0  0
    9.9078  -17.3237   21.1257 O   0  0  0  0  0  0  0  0  0  0  0  0
    8.2105  -16.3160   22.3366 N   0  0  0  0  0  0  0  0  0  0  0  0
    9.0894  -15.2478   22.7676 C   0  0  1  0  0  0  0  0  0  0  0  0
    8.3884  -13.9324   22.6115 C   0  0  0  0  0  0  0  0  0  0  0  0
    8.0126  -13.6316   21.2072 C   0  0  0  0  0  0  0  0  0  0  0  0
    8.8740  -12.9352   20.3974 C   0  0  0  0  0  0  0  0  0  0  0  0
    8.5168  -12.6596   19.0793 C   0  0  0  0  0  0  0  0  0  0  0  0
    7.3103  -13.0741   18.5707 C   0  0  0  0  0  0  0  0  0  0  0  0
    6.4350  -13.7755   19.3759 C   0  0  0  0  0  0  0  0  0  0  0  0
    6.7888  -14.0481   20.6801 C   0  0  0  0  0  0  0  0  0  0  0  0
    9.5350  -15.5506   24.1464 C   0  0  0  0  0  0  0  0  0  0  0  0
   10.6479  -15.1206   24.5948 O   0  0  0  0  0  0  0  0  0  0  0  0
    8.7362  -16.3284   25.0094 N   0  0  0  0  0  0  0  0  0  0  0  0
    9.0457  -16.5589   26.4054 C   0  0  1  0  0  0  0  0  0  0  0  0
    7.8996  -16.0813   27.2362 C   0  0  0  0  0  0  0  0  0  0  0  0
    7.6157  -14.6489   27.1274 C   0  0  0  0  0  0  0  0  0  0  0  0
    6.4758  -14.1848   26.5019 C   0  0  0  0  0  0  0  0  0  0  0  0
    6.2092  -12.8442   26.4060 C   0  0  0  0  0  0  0  0  0  0  0  0
    7.0917  -11.9051   26.9432 C   0  0  0  0  0  0  0  0  0  0  0  0
    8.2351  -12.3408   27.5718 C   0  0  0  0  0  0  0  0  0  0  0  0
    8.4748  -13.6887   27.6523 C   0  0  0  0  0  0  0  0  0  0  0  0
    9.4980  -17.9236   26.6799 C   0  0  0  0  0  0  0  0  0  0  0  0
    9.4928  -18.7874   25.7846 O   0  0  0  0  0  0  0  0  0  0  0  0
    9.9343  -18.2583   27.9385 O   0  0  0  0  0  0  0  0  0  0  0  0
  1  2  1  0
  3  4  2  0
  3  2  1  0
  5  3  1  0
  6  5  1  0
  6  7  1  1
  8 13  1  0
  8  7  1  0
  9  8  2  0
 10  9  1  0
 10 11  2  0
 11 12  1  0
 12 13  2  0
 14  6  1  0
 15 14  2  0
 16 14  1  0
 17 18  1  1
 17 16  1  0
 18 19  1  0
 19 24  1  0
 19 20  2  0
 20 21  1  0
 21 22  2  0
 23 22  1  0
 24 23  2  0
 25 17  1  0
 26 25  2  0
 27 25  1  0
M  END
$$$$
