GFF.pdb
     RDKit          3D

 27 28  0  0  1  0  0  0  0  0999 V2000
   10.2285  -17.8044   18.6296 N   0  0  0  0  0  0  0  0  0  0  0  0
    9.3108  -18.2055   19.6866 C   0  0  0  0  0  0  0  0  0  0  0  0
    9.4224  -17.2505   20.7991 C   0  0  0  0  0  0  0  0  0  0  0  0
   10.4375  -16.5485   20.9568 O   0  0  0  0  0  0  0  0  0  0  0  0
    8.3298  -17.1364   21.7148 N   0  0  0  0  0  0  0  0  0  0  0  0
    8.4361  -16.2376   22.8462 C   0  0  1  0  0  0  0  0  0  0  0  0
    7.0720  -15.7390   23.2162 C   0  0  0  0  0  0  0  0  0  0  0  0
    7.0915  -14.7355   24.3099 C   0  0  0  0  0  0  0  0  0  0  0  0
    6.5096  -15.0225   25.5189 C   0  0  0  0  0  0  0  0  0  0  0  0
    6.5348  -14.0778   26.5425 C   0  0  0  0  0  0  0  0  0  0  0  0
    7.1349  -12.8554   26.3639 C   0  0  0  0  0  0  0  0  0  0  0  0
    7.7237  -12.5549   25.1517 C   0  0  0  0  0  0  0  0  0  0  0  0
    7.6987  -13.4900   24.1392 C   0  0  0  0  0  0  0  0  0  0  0  0
    9.1485  -16.9500   23.9307 C   0  0  0  0  0  0  0  0  0  0  0  0
    8.9590  -18.1918   24.1468 O   0  0  0  0  0  0  0  0  0  0  0  0
   10.0633  -16.2713   24.7617 N   0  0  0  0  0  0  0  0  0  0  0  0
   10.9600  -16.9356   25.6851 C   0  0  1  0  0  0  0  0  0  0  0  0
   11.7600  -15.8999   26.4057 C   0  0  0  0  0  0  0  0  0  0  0  0
   11.0422  -15.2011   27.4737 C   0  0  0  0  0  0  0  0  0  0  0  0
   10.9943  -15.7030   28.7590 C   0  0  0  0  0  0  0  0  0  0  0  0
   10.3267  -15.0448   29.7583 C   0  0  0  0  0  0  0  0  0  0  0  0
    9.6721  -13.8390   29.4997 C   0  0  0  0  0  0  0  0  0  0  0  0
    9.7043  -13.3169   28.2273 C   0  0  0  0  0  0  0  0  0  0  0  0
   10.3804  -13.9983   27.2480 C   0  0  0  0  0  0  0  0  0  0  0  0
   10.2890  -17.9193   26.5363 C   0  0  0  0  0  0  0  0  0  0  0  0
   10.9471  -18.7446   27.1946 O   0  0  0  0  0  0  0  0  0  0  0  0
    8.9177  -17.9343   26.6122 O   0  0  0  0  0  0  0  0  0  0  0  0
  1  2  1  0
  3  4  2  0
  3  2  1  0
  5  3  1  0
  6  5  1  0
  6  7  1  1
  8 13  1  0
  8  7  1  0
  9  8  2  0
 10  9  1  0
 10 11  2  0
 11 12  1  0
 12 13  2  0
 14  6  1  0
 15 14  2  0
 16 14  1  0
 17 18  1  1
 17 16  1  0
 18 19  1  0
 19 24  1  0
 19 20  2  0
 20 21  1  0
 21 22  2  0
 23 22  1  0
 24 23  2  0
 25 17  1  0
 26 25  2  0
 27 25  1  0
M  END
$$$$
