GFF.pdb
     RDKit          3D

 27 28  0  0  1  0  0  0  0  0999 V2000
    4.0463  -20.0245   22.7743 N   0  0  0  0  0  0  0  0  0  0  0  0
    5.2322  -19.9524   23.6163 C   0  0  0  0  0  0  0  0  0  0  0  0
    5.6932  -18.5570   23.6675 C   0  0  0  0  0  0  0  0  0  0  0  0
    5.6801  -17.8282   22.6592 O   0  0  0  0  0  0  0  0  0  0  0  0
    6.1655  -18.0380   24.9137 N   0  0  0  0  0  0  0  0  0  0  0  0
    6.7852  -16.7290   24.9542 C   0  0  1  0  0  0  0  0  0  0  0  0
    6.7093  -16.1849   26.3486 C   0  0  0  0  0  0  0  0  0  0  0  0
    6.9687  -14.7251   26.4230 C   0  0  0  0  0  0  0  0  0  0  0  0
    8.2509  -14.2598   26.5718 C   0  0  0  0  0  0  0  0  0  0  0  0
    8.4879  -12.8885   26.6371 C   0  0  0  0  0  0  0  0  0  0  0  0
    7.4557  -11.9864   26.5550 C   0  0  0  0  0  0  0  0  0  0  0  0
    6.1610  -12.4425   26.4053 C   0  0  0  0  0  0  0  0  0  0  0  0
    5.9269  -13.7994   26.3407 C   0  0  0  0  0  0  0  0  0  0  0  0
    8.1576  -16.8559   24.4145 C   0  0  0  0  0  0  0  0  0  0  0  0
    8.9412  -17.7836   24.8020 O   0  0  0  0  0  0  0  0  0  0  0  0
    8.6414  -15.9486   23.4497 N   0  0  0  0  0  0  0  0  0  0  0  0
    9.8553  -16.1541   22.6867 C   0  0  1  0  0  0  0  0  0  0  0  0
    9.5546  -15.9378   21.2394 C   0  0  0  0  0  0  0  0  0  0  0  0
    8.7388  -14.7566   20.9504 C   0  0  0  0  0  0  0  0  0  0  0  0
    7.3599  -14.8018   21.0026 C   0  0  0  0  0  0  0  0  0  0  0  0
    6.5984  -13.6940   20.7372 C   0  0  0  0  0  0  0  0  0  0  0  0
    7.2032  -12.4805   20.4041 C   0  0  0  0  0  0  0  0  0  0  0  0
    8.5758  -12.4081   20.3451 C   0  0  0  0  0  0  0  0  0  0  0  0
    9.3112  -13.5335   20.6159 C   0  0  0  0  0  0  0  0  0  0  0  0
   11.0010  -15.4093   23.2110 C   0  0  0  0  0  0  0  0  0  0  0  0
   12.1245  -15.5200   22.6883 O   0  0  0  0  0  0  0  0  0  0  0  0
   10.8381  -14.5774   24.2917 O   0  0  0  0  0  0  0  0  0  0  0  0
  1  2  1  0
  3  4  2  0
  3  2  1  0
  5  3  1  0
  6  5  1  0
  6  7  1  1
  8 13  1  0
  8  7  1  0
  9  8  2  0
 10  9  1  0
 10 11  2  0
 11 12  1  0
 12 13  2  0
 14  6  1  0
 15 14  2  0
 16 14  1  0
 17 18  1  6
 17 16  1  0
 18 19  1  0
 19 24  1  0
 19 20  2  0
 20 21  1  0
 21 22  2  0
 23 22  1  0
 24 23  2  0
 25 17  1  0
 26 25  2  0
 27 25  1  0
M  END
$$$$
