GFF.pdb
     RDKit          3D

 27 28  0  0  1  0  0  0  0  0999 V2000
   10.7896  -17.3633   18.6347 N   0  0  0  0  0  0  0  0  0  0  0  0
    9.8017  -17.8269   19.5989 C   0  0  0  0  0  0  0  0  0  0  0  0
    9.7579  -16.8818   20.7245 C   0  0  0  0  0  0  0  0  0  0  0  0
   10.7391  -16.1777   21.0236 O   0  0  0  0  0  0  0  0  0  0  0  0
    8.5513  -16.7799   21.4855 N   0  0  0  0  0  0  0  0  0  0  0  0
    8.5322  -15.9769   22.6913 C   0  0  1  0  0  0  0  0  0  0  0  0
    7.1439  -15.4634   22.9258 C   0  0  0  0  0  0  0  0  0  0  0  0
    7.0452  -14.5534   24.0945 C   0  0  0  0  0  0  0  0  0  0  0  0
    7.5295  -13.2722   24.0130 C   0  0  0  0  0  0  0  0  0  0  0  0
    7.4303  -12.4220   25.1123 C   0  0  0  0  0  0  0  0  0  0  0  0
    6.8531  -12.8442   26.2847 C   0  0  0  0  0  0  0  0  0  0  0  0
    6.3622  -14.1313   26.3789 C   0  0  0  0  0  0  0  0  0  0  0  0
    6.4605  -14.9722   25.2910 C   0  0  0  0  0  0  0  0  0  0  0  0
    9.0826  -16.7958   23.7947 C   0  0  0  0  0  0  0  0  0  0  0  0
    8.7972  -18.0326   23.9110 O   0  0  0  0  0  0  0  0  0  0  0  0
    9.9441  -16.2279   24.7556 N   0  0  0  0  0  0  0  0  0  0  0  0
   10.7352  -17.0040   25.6882 C   0  0  1  0  0  0  0  0  0  0  0  0
   11.7086  -16.0946   26.3644 C   0  0  0  0  0  0  0  0  0  0  0  0
   11.1393  -15.2666   27.4295 C   0  0  0  0  0  0  0  0  0  0  0  0
   11.0133  -15.7385   28.7209 C   0  0  0  0  0  0  0  0  0  0  0  0
   10.4853  -14.9602   29.7174 C   0  0  0  0  0  0  0  0  0  0  0  0
   10.0575  -13.6585   29.4496 C   0  0  0  0  0  0  0  0  0  0  0  0
   10.1718  -13.1637   28.1711 C   0  0  0  0  0  0  0  0  0  0  0  0
   10.7041  -13.9662   27.1948 C   0  0  0  0  0  0  0  0  0  0  0  0
    9.9263  -17.8370   26.5794 C   0  0  0  0  0  0  0  0  0  0  0  0
    8.7103  -17.6181   26.7246 O   0  0  0  0  0  0  0  0  0  0  0  0
   10.5124  -18.8732   27.2645 O   0  0  0  0  0  0  0  0  0  0  0  0
  1  2  1  0
  3  4  2  0
  3  2  1  0
  5  3  1  0
  6  5  1  0
  6  7  1  1
  8 13  1  0
  8  7  1  0
  9  8  2  0
 10  9  1  0
 10 11  2  0
 11 12  1  0
 12 13  2  0
 14  6  1  0
 15 14  2  0
 16 14  1  0
 17 18  1  1
 17 16  1  0
 18 19  1  0
 19 24  1  0
 19 20  2  0
 20 21  1  0
 21 22  2  0
 23 22  1  0
 24 23  2  0
 25 17  1  0
 26 25  2  0
 27 25  1  0
M  END
$$$$
