AFT.pdb
     RDKit          3D

 24 24  0  0  1  0  0  0  0  0999 V2000
    8.2734  -18.0576   20.1536 C   0  0  0  0  0  0  0  0  0  0  0  0
    8.5582  -16.5829   19.9541 C   0  0  2  0  0  0  0  0  0  0  0  0
    9.6251  -16.3564   19.0209 N   0  0  0  0  0  0  0  0  0  0  0  0
    8.9300  -15.9994   21.2625 C   0  0  0  0  0  0  0  0  0  0  0  0
   10.1462  -15.9777   21.5768 O   0  0  0  0  0  0  0  0  0  0  0  0
    7.9536  -15.4787   22.1408 N   0  0  0  0  0  0  0  0  0  0  0  0
    8.3862  -14.8528   23.4204 C   0  0  1  0  0  0  0  0  0  0  0  0
    7.1974  -14.0257   23.8273 C   0  0  0  0  0  0  0  0  0  0  0  0
    7.2721  -13.3381   25.0994 C   0  0  0  0  0  0  0  0  0  0  0  0
    8.4381  -13.1393   25.7801 C   0  0  0  0  0  0  0  0  0  0  0  0
    8.4219  -12.4703   27.0037 C   0  0  0  0  0  0  0  0  0  0  0  0
    7.2576  -12.0020   27.5480 C   0  0  0  0  0  0  0  0  0  0  0  0
    6.0819  -12.1990   26.8679 C   0  0  0  0  0  0  0  0  0  0  0  0
    6.0932  -12.8600   25.6575 C   0  0  0  0  0  0  0  0  0  0  0  0
    8.6895  -15.9569   24.3348 C   0  0  0  0  0  0  0  0  0  0  0  0
    7.7801  -16.8373   24.5116 O   0  0  0  0  0  0  0  0  0  0  0  0
   11.0029  -18.7238   23.8519 C   0  0  0  0  0  0  0  0  0  0  0  0
   11.2496  -18.2032   25.2265 C   0  0  1  0  0  0  0  0  0  0  0  0
   12.3780  -17.3865   25.2617 O   0  0  0  0  0  0  0  0  0  0  0  0
   10.0763  -17.4054   25.7793 C   0  0  2  0  0  0  0  0  0  0  0  0
    9.8980  -16.1674   25.0523 N   0  0  0  0  0  0  0  0  0  0  0  0
   10.4089  -17.1102   27.1801 C   0  0  0  0  0  0  0  0  0  0  0  0
   10.5093  -18.0172   28.0578 O   0  0  0  0  0  0  0  0  0  0  0  0
   10.6260  -15.8067   27.5799 O   0  0  0  0  0  0  0  0  0  0  0  0
  2  1  1  1
  3  2  1  0
  4  5  2  0
  4  2  1  0
  6  4  1  0
  7  6  1  0
  7  8  1  1
  8  9  1  0
  9 14  2  0
 10 11  2  0
 10  9  1  0
 11 12  1  0
 12 13  2  0
 14 13  1  0
 15  7  1  0
 16 15  2  0
 18 17  1  6
 18 20  1  0
 19 18  1  0
 20 22  1  0
 20 21  1  6
 21 15  1  0
 22 24  1  0
 23 22  2  0
M  END
$$$$
