AFT.pdb
     RDKit          3D

 24 24  0  0  1  0  0  0  0  0999 V2000
    8.8220  -18.4597   20.2757 C   0  0  0  0  0  0  0  0  0  0  0  0
    8.8358  -16.9899   19.9083 C   0  0  2  0  0  0  0  0  0  0  0  0
    9.8246  -16.6874   18.9127 N   0  0  0  0  0  0  0  0  0  0  0  0
    9.1267  -16.2072   21.1303 C   0  0  0  0  0  0  0  0  0  0  0  0
   10.3253  -15.9277   21.3829 O   0  0  0  0  0  0  0  0  0  0  0  0
    8.0941  -15.7813   21.9952 N   0  0  0  0  0  0  0  0  0  0  0  0
    8.4442  -15.0239   23.2281 C   0  0  1  0  0  0  0  0  0  0  0  0
    7.2055  -14.2183   23.5101 C   0  0  0  0  0  0  0  0  0  0  0  0
    7.1588  -13.4896   24.7605 C   0  0  0  0  0  0  0  0  0  0  0  0
    7.9483  -12.4102   25.0324 C   0  0  0  0  0  0  0  0  0  0  0  0
    7.8438  -11.7670   26.2655 C   0  0  0  0  0  0  0  0  0  0  0  0
    6.9623  -12.1914   27.2216 C   0  0  0  0  0  0  0  0  0  0  0  0
    6.1657  -13.2763   26.9536 C   0  0  0  0  0  0  0  0  0  0  0  0
    6.2658  -13.9155   25.7356 C   0  0  0  0  0  0  0  0  0  0  0  0
    8.7531  -16.0264   24.2512 C   0  0  0  0  0  0  0  0  0  0  0  0
    7.9287  -16.9929   24.3916 O   0  0  0  0  0  0  0  0  0  0  0  0
   11.3088  -18.5898   24.2263 C   0  0  0  0  0  0  0  0  0  0  0  0
   11.3900  -17.9302   25.5603 C   0  0  1  0  0  0  0  0  0  0  0  0
   12.4288  -17.0023   25.6019 O   0  0  0  0  0  0  0  0  0  0  0  0
   10.1043  -17.2118   25.9474 C   0  0  2  0  0  0  0  0  0  0  0  0
    9.8832  -16.0511   25.1125 N   0  0  0  0  0  0  0  0  0  0  0  0
   10.2797  -16.7876   27.3436 C   0  0  0  0  0  0  0  0  0  0  0  0
   10.2798  -15.5687   27.6859 O   0  0  0  0  0  0  0  0  0  0  0  0
   10.4510  -17.7309   28.3371 O   0  0  0  0  0  0  0  0  0  0  0  0
  2  1  1  1
  3  2  1  0
  4  5  2  0
  4  2  1  0
  6  4  1  0
  7  6  1  0
  7  8  1  1
  8  9  1  0
  9 14  2  0
 10 11  2  0
 10  9  1  0
 11 12  1  0
 12 13  2  0
 14 13  1  0
 15  7  1  0
 16 15  2  0
 18 17  1  6
 18 20  1  0
 19 18  1  0
 20 22  1  0
 20 21  1  6
 21 15  1  0
 22 24  1  0
 23 22  2  0
M  END
$$$$
