AFT.pdb
     RDKit          3D

 24 24  0  0  1  0  0  0  0  0999 V2000
    8.1012  -13.2211   18.5054 C   0  0  0  0  0  0  0  0  0  0  0  0
    8.3513  -14.5190   19.2458 C   0  0  2  0  0  0  0  0  0  0  0  0
    7.2151  -15.3954   19.2064 N   0  0  0  0  0  0  0  0  0  0  0  0
    8.6637  -14.1976   20.6564 C   0  0  0  0  0  0  0  0  0  0  0  0
    9.7706  -13.6601   20.9100 O   0  0  0  0  0  0  0  0  0  0  0  0
    7.7507  -14.4827   21.6961 N   0  0  0  0  0  0  0  0  0  0  0  0
    8.1020  -14.1118   23.0945 C   0  0  1  0  0  0  0  0  0  0  0  0
    6.8612  -13.4276   23.5996 C   0  0  0  0  0  0  0  0  0  0  0  0
    6.8452  -13.0255   24.9905 C   0  0  0  0  0  0  0  0  0  0  0  0
    5.9532  -13.5086   25.9034 C   0  0  0  0  0  0  0  0  0  0  0  0
    6.0033  -13.0647   27.2246 C   0  0  0  0  0  0  0  0  0  0  0  0
    6.9316  -12.1486   27.6370 C   0  0  0  0  0  0  0  0  0  0  0  0
    7.8312  -11.6594   26.7234 C   0  0  0  0  0  0  0  0  0  0  0  0
    7.7853  -12.0954   25.4158 C   0  0  0  0  0  0  0  0  0  0  0  0
    8.4182  -15.3655   23.7839 C   0  0  0  0  0  0  0  0  0  0  0  0
    7.5237  -16.2784   23.7784 O   0  0  0  0  0  0  0  0  0  0  0  0
   10.4077  -18.1698   22.8651 C   0  0  0  0  0  0  0  0  0  0  0  0
   10.8416  -17.8045   24.2433 C   0  0  1  0  0  0  0  0  0  0  0  0
   12.0093  -17.0443   24.2197 O   0  0  0  0  0  0  0  0  0  0  0  0
    9.7864  -17.0187   25.0100 C   0  0  2  0  0  0  0  0  0  0  0  0
    9.6244  -15.6896   24.4618 N   0  0  0  0  0  0  0  0  0  0  0  0
   10.2742  -16.9245   26.3932 C   0  0  0  0  0  0  0  0  0  0  0  0
   10.5511  -15.8164   26.9395 O   0  0  0  0  0  0  0  0  0  0  0  0
   10.4443  -18.0690   27.1464 O   0  0  0  0  0  0  0  0  0  0  0  0
  2  1  1  6
  3  2  1  0
  4  5  2  0
  4  2  1  0
  6  4  1  0
  7  6  1  0
  7  8  1  1
  8  9  1  0
  9 14  2  0
 10 11  2  0
 10  9  1  0
 11 12  1  0
 12 13  2  0
 14 13  1  0
 15  7  1  0
 16 15  2  0
 18 17  1  6
 18 20  1  0
 19 18  1  0
 20 22  1  0
 20 21  1  6
 21 15  1  0
 22 24  1  0
 23 22  2  0
M  END
$$$$
