AFT.pdb
     RDKit          3D

 24 24  0  0  1  0  0  0  0  0999 V2000
    6.4852  -20.6746   23.1009 C   0  0  0  0  0  0  0  0  0  0  0  0
    5.4218  -19.5955   23.0862 C   0  0  2  0  0  0  0  0  0  0  0  0
    4.6822  -19.5775   21.8561 N   0  0  0  0  0  0  0  0  0  0  0  0
    6.0856  -18.2853   23.2690 C   0  0  0  0  0  0  0  0  0  0  0  0
    6.4938  -17.6807   22.2461 O   0  0  0  0  0  0  0  0  0  0  0  0
    6.2605  -17.7212   24.5523 N   0  0  0  0  0  0  0  0  0  0  0  0
    6.9790  -16.4240   24.6847 C   0  0  1  0  0  0  0  0  0  0  0  0
    6.3515  -15.7963   25.8992 C   0  0  0  0  0  0  0  0  0  0  0  0
    6.7712  -14.4540   26.2437 C   0  0  0  0  0  0  0  0  0  0  0  0
    6.0914  -13.3326   25.8659 C   0  0  0  0  0  0  0  0  0  0  0  0
    6.5671  -12.0750   26.2361 C   0  0  0  0  0  0  0  0  0  0  0  0
    7.7087  -11.9309   26.9757 C   0  0  0  0  0  0  0  0  0  0  0  0
    8.3965  -13.0551   27.3587 C   0  0  0  0  0  0  0  0  0  0  0  0
    7.9297  -14.3008   26.9948 C   0  0  0  0  0  0  0  0  0  0  0  0
    8.3971  -16.7555   24.8463 C   0  0  0  0  0  0  0  0  0  0  0  0
    8.6872  -17.7176   25.6361 O   0  0  0  0  0  0  0  0  0  0  0  0
   10.8626  -17.4248   21.8476 C   0  0  0  0  0  0  0  0  0  0  0  0
   11.5257  -16.6511   22.9352 C   0  0  1  0  0  0  0  0  0  0  0  0
   11.6197  -15.2998   22.6080 O   0  0  0  0  0  0  0  0  0  0  0  0
   10.8004  -16.7606   24.2697 C   0  0  2  0  0  0  0  0  0  0  0  0
    9.5017  -16.1257   24.2117 N   0  0  0  0  0  0  0  0  0  0  0  0
   11.6453  -16.0646   25.2504 C   0  0  0  0  0  0  0  0  0  0  0  0
   11.2610  -15.0208   25.8553 O   0  0  0  0  0  0  0  0  0  0  0  0
   12.9062  -16.5452   25.5422 O   0  0  0  0  0  0  0  0  0  0  0  0
  2  1  1  6
  3  2  1  0
  4  5  2  0
  4  2  1  0
  6  4  1  0
  7  6  1  0
  7  8  1  1
  8  9  1  0
  9 14  2  0
 10 11  2  0
 10  9  1  0
 11 12  1  0
 12 13  2  0
 14 13  1  0
 15  7  1  0
 16 15  2  0
 18 17  1  6
 18 20  1  0
 19 18  1  0
 20 22  1  0
 20 21  1  6
 21 15  1  0
 22 24  1  0
 23 22  2  0
M  END
$$$$
