AFT.pdb
     RDKit          3D

 24 24  0  0  1  0  0  0  0  0999 V2000
    8.8250  -18.7815   20.5769 C   0  0  0  0  0  0  0  0  0  0  0  0
    8.9579  -17.3118   20.2337 C   0  0  2  0  0  0  0  0  0  0  0  0
   10.0346  -17.0622   19.3178 N   0  0  0  0  0  0  0  0  0  0  0  0
    9.2061  -16.5620   21.4854 C   0  0  0  0  0  0  0  0  0  0  0  0
   10.3976  -16.3358   21.8136 O   0  0  0  0  0  0  0  0  0  0  0  0
    8.1413  -16.1087   22.2957 N   0  0  0  0  0  0  0  0  0  0  0  0
    8.4427  -15.2873   23.5002 C   0  0  1  0  0  0  0  0  0  0  0  0
    7.2385  -14.3949   23.6281 C   0  0  0  0  0  0  0  0  0  0  0  0
    7.1351  -13.5883   24.8262 C   0  0  0  0  0  0  0  0  0  0  0  0
    7.9640  -12.5397   25.1013 C   0  0  0  0  0  0  0  0  0  0  0  0
    7.7993  -11.8162   26.2822 C   0  0  0  0  0  0  0  0  0  0  0  0
    6.8194  -12.1306   27.1833 C   0  0  0  0  0  0  0  0  0  0  0  0
    5.9827  -13.1840   26.9119 C   0  0  0  0  0  0  0  0  0  0  0  0
    6.1420  -13.9023   25.7454 C   0  0  0  0  0  0  0  0  0  0  0  0
    8.6099  -16.2310   24.6086 C   0  0  0  0  0  0  0  0  0  0  0  0
    7.6672  -17.0700   24.8105 O   0  0  0  0  0  0  0  0  0  0  0  0
   10.5027  -19.2397   24.8867 C   0  0  0  0  0  0  0  0  0  0  0  0
   10.8494  -18.4181   26.0808 C   0  0  1  0  0  0  0  0  0  0  0  0
   12.0360  -17.7151   25.8822 O   0  0  0  0  0  0  0  0  0  0  0  0
    9.7650  -17.4133   26.4460 C   0  0  2  0  0  0  0  0  0  0  0  0
    9.7185  -16.3260   25.4928 N   0  0  0  0  0  0  0  0  0  0  0  0
   10.1244  -16.8906   27.7718 C   0  0  0  0  0  0  0  0  0  0  0  0
   10.3804  -15.6666   27.9704 O   0  0  0  0  0  0  0  0  0  0  0  0
   10.1912  -17.7421   28.8565 O   0  0  0  0  0  0  0  0  0  0  0  0
  2  1  1  1
  3  2  1  0
  4  5  2  0
  4  2  1  0
  6  4  1  0
  7  6  1  0
  7  8  1  1
  8  9  1  0
  9 14  2  0
 10 11  2  0
 10  9  1  0
 11 12  1  0
 12 13  2  0
 14 13  1  0
 15  7  1  0
 16 15  2  0
 18 17  1  6
 18 20  1  0
 19 18  1  0
 20 22  1  0
 20 21  1  6
 21 15  1  0
 22 24  1  0
 23 22  2  0
M  END
$$$$
