AFT.pdb
     RDKit          3D

 24 24  0  0  1  0  0  0  0  0999 V2000
    8.6740  -18.2717   20.3146 C   0  0  0  0  0  0  0  0  0  0  0  0
    8.9567  -16.8140   20.0138 C   0  0  2  0  0  0  0  0  0  0  0  0
   10.1006  -16.6460   19.1631 N   0  0  0  0  0  0  0  0  0  0  0  0
    9.2011  -16.1132   21.2943 C   0  0  0  0  0  0  0  0  0  0  0  0
   10.3910  -15.9588   21.6669 O   0  0  0  0  0  0  0  0  0  0  0  0
    8.1345  -15.6277   22.0833 N   0  0  0  0  0  0  0  0  0  0  0  0
    8.4361  -14.9220   23.3590 C   0  0  1  0  0  0  0  0  0  0  0  0
    7.2222  -14.0616   23.5809 C   0  0  0  0  0  0  0  0  0  0  0  0
    7.1368  -13.3468   24.8372 C   0  0  0  0  0  0  0  0  0  0  0  0
    8.0446  -12.4073   25.2318 C   0  0  0  0  0  0  0  0  0  0  0  0
    7.8914  -11.7677   26.4616 C   0  0  0  0  0  0  0  0  0  0  0  0
    6.8452  -12.0579   27.2937 C   0  0  0  0  0  0  0  0  0  0  0  0
    5.9291  -13.0017   26.9021 C   0  0  0  0  0  0  0  0  0  0  0  0
    6.0767  -13.6368   25.6868 C   0  0  0  0  0  0  0  0  0  0  0  0
    8.6242  -15.9656   24.3702 C   0  0  0  0  0  0  0  0  0  0  0  0
    7.7195  -16.8639   24.4597 O   0  0  0  0  0  0  0  0  0  0  0  0
   10.8048  -18.7349   24.2727 C   0  0  0  0  0  0  0  0  0  0  0  0
   10.9889  -18.1599   25.6354 C   0  0  1  0  0  0  0  0  0  0  0  0
   12.1444  -17.3841   25.7037 O   0  0  0  0  0  0  0  0  0  0  0  0
    9.8167  -17.2948   26.0787 C   0  0  2  0  0  0  0  0  0  0  0  0
    9.7155  -16.0991   25.2706 N   0  0  0  0  0  0  0  0  0  0  0  0
   10.0896  -16.9241   27.4744 C   0  0  0  0  0  0  0  0  0  0  0  0
   10.1970  -17.7864   28.3954 O   0  0  0  0  0  0  0  0  0  0  0  0
   10.2398  -15.5962   27.8211 O   0  0  0  0  0  0  0  0  0  0  0  0
  2  1  1  1
  3  2  1  0
  4  5  2  0
  4  2  1  0
  6  4  1  0
  7  6  1  0
  7  8  1  1
  8  9  1  0
  9 14  2  0
 10 11  2  0
 10  9  1  0
 11 12  1  0
 12 13  2  0
 14 13  1  0
 15  7  1  0
 16 15  2  0
 18 17  1  6
 18 20  1  0
 19 18  1  0
 20 22  1  0
 20 21  1  6
 21 15  1  0
 22 24  1  0
 23 22  2  0
M  END
$$$$
