AFT.pdb
     RDKit          3D

 24 24  0  0  1  0  0  0  0  0999 V2000
    7.9424  -18.2243   20.3396 C   0  0  0  0  0  0  0  0  0  0  0  0
    8.4245  -16.8130   20.0725 C   0  0  2  0  0  0  0  0  0  0  0  0
    9.5760  -16.7845   19.2159 N   0  0  0  0  0  0  0  0  0  0  0  0
    8.7716  -16.1866   21.3678 C   0  0  0  0  0  0  0  0  0  0  0  0
    9.9798  -16.1687   21.7119 O   0  0  0  0  0  0  0  0  0  0  0  0
    7.7807  -15.6217   22.2015 N   0  0  0  0  0  0  0  0  0  0  0  0
    8.1899  -14.9534   23.4673 C   0  0  1  0  0  0  0  0  0  0  0  0
    7.0540  -14.0084   23.7497 C   0  0  0  0  0  0  0  0  0  0  0  0
    7.0911  -13.2825   25.0019 C   0  0  0  0  0  0  0  0  0  0  0  0
    8.1450  -12.5081   25.3920 C   0  0  0  0  0  0  0  0  0  0  0  0
    8.1024  -11.8449   26.6181 C   0  0  0  0  0  0  0  0  0  0  0  0
    7.0223  -11.9490   27.4510 C   0  0  0  0  0  0  0  0  0  0  0  0
    5.9595  -12.7261   27.0639 C   0  0  0  0  0  0  0  0  0  0  0  0
    5.9973  -13.3839   25.8522 C   0  0  0  0  0  0  0  0  0  0  0  0
    8.3450  -16.0184   24.4616 C   0  0  0  0  0  0  0  0  0  0  0  0
    7.3367  -16.7755   24.6707 O   0  0  0  0  0  0  0  0  0  0  0  0
   10.0081  -19.2500   24.4117 C   0  0  0  0  0  0  0  0  0  0  0  0
   10.4764  -18.5275   25.6282 C   0  0  1  0  0  0  0  0  0  0  0  0
   11.7045  -17.9080   25.4055 O   0  0  0  0  0  0  0  0  0  0  0  0
    9.4947  -17.4647   26.1031 C   0  0  2  0  0  0  0  0  0  0  0  0
    9.5060  -16.3144   25.2258 N   0  0  0  0  0  0  0  0  0  0  0  0
    9.9444  -17.0655   27.4441 C   0  0  0  0  0  0  0  0  0  0  0  0
   10.3049  -15.8819   27.7129 O   0  0  0  0  0  0  0  0  0  0  0  0
    9.9837  -17.9934   28.4656 O   0  0  0  0  0  0  0  0  0  0  0  0
  2  1  1  1
  3  2  1  0
  4  5  2  0
  4  2  1  0
  6  4  1  0
  7  6  1  0
  7  8  1  1
  8  9  1  0
  9 14  2  0
 10 11  2  0
 10  9  1  0
 11 12  1  0
 12 13  2  0
 14 13  1  0
 15  7  1  0
 16 15  2  0
 18 17  1  6
 18 20  1  0
 19 18  1  0
 20 22  1  0
 20 21  1  6
 21 15  1  0
 22 24  1  0
 23 22  2  0
M  END
$$$$
