AFT.pdb
     RDKit          3D

 24 24  0  0  1  0  0  0  0  0999 V2000
    6.5313  -20.5673   23.9961 C   0  0  0  0  0  0  0  0  0  0  0  0
    5.6561  -19.3410   23.8362 C   0  0  2  0  0  0  0  0  0  0  0  0
    4.8704  -19.3862   22.6357 N   0  0  0  0  0  0  0  0  0  0  0  0
    6.5301  -18.1473   23.7957 C   0  0  0  0  0  0  0  0  0  0  0  0
    6.9678  -17.7716   22.6796 O   0  0  0  0  0  0  0  0  0  0  0  0
    6.8691  -17.4426   24.9723 N   0  0  0  0  0  0  0  0  0  0  0  0
    7.7398  -16.2391   24.8739 C   0  0  1  0  0  0  0  0  0  0  0  0
    7.4490  -15.4892   26.1451 C   0  0  0  0  0  0  0  0  0  0  0  0
    7.1692  -14.0731   26.0305 C   0  0  0  0  0  0  0  0  0  0  0  0
    7.3008  -13.3717   24.8672 C   0  0  0  0  0  0  0  0  0  0  0  0
    7.0151  -12.0069   24.8437 C   0  0  0  0  0  0  0  0  0  0  0  0
    6.6016  -11.3429   25.9659 C   0  0  0  0  0  0  0  0  0  0  0  0
    6.4672  -12.0431   27.1385 C   0  0  0  0  0  0  0  0  0  0  0  0
    6.7488  -13.3929   27.1664 C   0  0  0  0  0  0  0  0  0  0  0  0
    9.1148  -16.7351   24.7716 C   0  0  0  0  0  0  0  0  0  0  0  0
    9.5038  -17.5689   25.6586 O   0  0  0  0  0  0  0  0  0  0  0  0
   10.6967  -18.5128   21.6730 C   0  0  0  0  0  0  0  0  0  0  0  0
   11.6356  -17.5147   22.2591 C   0  0  1  0  0  0  0  0  0  0  0  0
   11.6435  -16.3341   21.5188 O   0  0  0  0  0  0  0  0  0  0  0  0
   11.3018  -17.1606   23.7020 C   0  0  2  0  0  0  0  0  0  0  0  0
   10.0764  -16.3957   23.7818 N   0  0  0  0  0  0  0  0  0  0  0  0
   12.4232  -16.3462   24.1910 C   0  0  0  0  0  0  0  0  0  0  0  0
   13.5972  -16.8074   24.3016 O   0  0  0  0  0  0  0  0  0  0  0  0
   12.2175  -15.0285   24.5482 O   0  0  0  0  0  0  0  0  0  0  0  0
  2  1  1  6
  3  2  1  0
  4  5  2  0
  4  2  1  0
  6  4  1  0
  7  6  1  0
  7  8  1  1
  8  9  1  0
  9 14  2  0
 10 11  2  0
 10  9  1  0
 11 12  1  0
 12 13  2  0
 14 13  1  0
 15  7  1  0
 16 15  2  0
 18 17  1  6
 18 20  1  0
 19 18  1  0
 20 22  1  0
 20 21  1  6
 21 15  1  0
 22 24  1  0
 23 22  2  0
M  END
$$$$
