AFT.pdb
     RDKit          3D

 24 24  0  0  1  0  0  0  0  0999 V2000
    8.2159  -17.7614   20.1202 C   0  0  0  0  0  0  0  0  0  0  0  0
    8.5626  -16.2993   19.9262 C   0  0  2  0  0  0  0  0  0  0  0  0
    9.6992  -16.1191   19.0682 N   0  0  0  0  0  0  0  0  0  0  0  0
    8.8611  -15.7118   21.2515 C   0  0  0  0  0  0  0  0  0  0  0  0
   10.0605  -15.6672   21.6228 O   0  0  0  0  0  0  0  0  0  0  0  0
    7.8344  -15.2124   22.0836 N   0  0  0  0  0  0  0  0  0  0  0  0
    8.1922  -14.6030   23.3940 C   0  0  1  0  0  0  0  0  0  0  0  0
    6.9757  -13.7927   23.7493 C   0  0  0  0  0  0  0  0  0  0  0  0
    6.9247  -13.2211   25.0787 C   0  0  0  0  0  0  0  0  0  0  0  0
    5.9826  -13.5575   26.0069 C   0  0  0  0  0  0  0  0  0  0  0  0
    6.0017  -12.9555   27.2648 C   0  0  0  0  0  0  0  0  0  0  0  0
    6.9485  -12.0266   27.5993 C   0  0  0  0  0  0  0  0  0  0  0  0
    7.8986  -11.6845   26.6699 C   0  0  0  0  0  0  0  0  0  0  0  0
    7.8835  -12.2773   25.4247 C   0  0  0  0  0  0  0  0  0  0  0  0
    8.4568  -15.7187   24.3063 C   0  0  0  0  0  0  0  0  0  0  0  0
    7.5294  -16.5854   24.4556 O   0  0  0  0  0  0  0  0  0  0  0  0
   10.4935  -18.7303   23.9877 C   0  0  0  0  0  0  0  0  0  0  0  0
   10.8659  -18.0669   25.2694 C   0  0  1  0  0  0  0  0  0  0  0  0
   12.0123  -17.2890   25.1203 O   0  0  0  0  0  0  0  0  0  0  0  0
    9.7617  -17.1738   25.8190 C   0  0  2  0  0  0  0  0  0  0  0  0
    9.6451  -15.9543   25.0493 N   0  0  0  0  0  0  0  0  0  0  0  0
   10.1496  -16.8497   27.1990 C   0  0  0  0  0  0  0  0  0  0  0  0
   10.3749  -15.6628   27.5780 O   0  0  0  0  0  0  0  0  0  0  0  0
   10.2788  -17.8555   28.1359 O   0  0  0  0  0  0  0  0  0  0  0  0
  2  1  1  1
  3  2  1  0
  4  5  2  0
  4  2  1  0
  6  4  1  0
  7  6  1  0
  7  8  1  1
  8  9  1  0
  9 14  2  0
 10 11  2  0
 10  9  1  0
 11 12  1  0
 12 13  2  0
 14 13  1  0
 15  7  1  0
 16 15  2  0
 18 17  1  6
 18 20  1  0
 19 18  1  0
 20 22  1  0
 20 21  1  6
 21 15  1  0
 22 24  1  0
 23 22  2  0
M  END
$$$$
