AFT.pdb
     RDKit          3D

 24 24  0  0  1  0  0  0  0  0999 V2000
    9.1545  -17.5895   19.6965 C   0  0  0  0  0  0  0  0  0  0  0  0
    9.5873  -17.8921   21.1166 C   0  0  2  0  0  0  0  0  0  0  0  0
    8.7045  -18.8171   21.7688 N   0  0  0  0  0  0  0  0  0  0  0  0
    9.6046  -16.6232   21.8784 C   0  0  0  0  0  0  0  0  0  0  0  0
   10.4340  -15.7417   21.5415 O   0  0  0  0  0  0  0  0  0  0  0  0
    8.7184  -16.3989   22.9555 N   0  0  0  0  0  0  0  0  0  0  0  0
    8.7576  -15.0933   23.6697 C   0  0  1  0  0  0  0  0  0  0  0  0
    7.3601  -14.9430   24.2057 C   0  0  0  0  0  0  0  0  0  0  0  0
    7.1085  -13.8320   25.0994 C   0  0  0  0  0  0  0  0  0  0  0  0
    6.3886  -13.9425   26.2535 C   0  0  0  0  0  0  0  0  0  0  0  0
    6.1884  -12.8201   27.0568 C   0  0  0  0  0  0  0  0  0  0  0  0
    6.6988  -11.5971   26.7176 C   0  0  0  0  0  0  0  0  0  0  0  0
    7.4237  -11.4800   25.5582 C   0  0  0  0  0  0  0  0  0  0  0  0
    7.6241  -12.5872   24.7608 C   0  0  0  0  0  0  0  0  0  0  0  0
    9.7861  -15.2232   24.7052 C   0  0  0  0  0  0  0  0  0  0  0  0
   10.8899  -14.6079   24.5145 O   0  0  0  0  0  0  0  0  0  0  0  0
   10.3638  -13.7818   28.0502 C   0  0  0  0  0  0  0  0  0  0  0  0
   10.4223  -15.2676   28.1512 C   0  0  1  0  0  0  0  0  0  0  0  0
    9.1981  -15.7942   28.5581 O   0  0  0  0  0  0  0  0  0  0  0  0
   10.8077  -15.9377   26.8392 C   0  0  2  0  0  0  0  0  0  0  0  0
    9.6932  -15.9597   25.9171 N   0  0  0  0  0  0  0  0  0  0  0  0
   11.1898  -17.3147   27.1825 C   0  0  0  0  0  0  0  0  0  0  0  0
   10.5276  -18.3193   26.7884 O   0  0  0  0  0  0  0  0  0  0  0  0
   12.3065  -17.5497   27.9597 O   0  0  0  0  0  0  0  0  0  0  0  0
  2  1  1  6
  3  2  1  0
  4  5  2  0
  4  2  1  0
  6  4  1  0
  7  6  1  0
  7  8  1  1
  8  9  1  0
  9 14  2  0
 10 11  2  0
 10  9  1  0
 11 12  1  0
 12 13  2  0
 14 13  1  0
 15  7  1  0
 16 15  2  0
 18 17  1  6
 18 20  1  0
 19 18  1  0
 20 22  1  0
 20 21  1  6
 21 15  1  0
 22 24  1  0
 23 22  2  0
M  END
$$$$
