AFT.pdb
     RDKit          3D

 24 24  0  0  1  0  0  0  0  0999 V2000
    8.5036  -18.2654   20.2327 C   0  0  0  0  0  0  0  0  0  0  0  0
    8.7715  -16.7901   20.0157 C   0  0  2  0  0  0  0  0  0  0  0  0
    9.8722  -16.5628   19.1229 N   0  0  0  0  0  0  0  0  0  0  0  0
    9.0788  -16.1750   21.3264 C   0  0  0  0  0  0  0  0  0  0  0  0
   10.2835  -16.0910   21.6730 O   0  0  0  0  0  0  0  0  0  0  0  0
    8.0547  -15.6927   22.1716 N   0  0  0  0  0  0  0  0  0  0  0  0
    8.4223  -14.9541   23.4109 C   0  0  1  0  0  0  0  0  0  0  0  0
    7.2044  -14.1188   23.6973 C   0  0  0  0  0  0  0  0  0  0  0  0
    7.1969  -13.3579   24.9291 C   0  0  0  0  0  0  0  0  0  0  0  0
    8.1517  -12.4375   25.2510 C   0  0  0  0  0  0  0  0  0  0  0  0
    8.0728  -11.7502   26.4619 C   0  0  0  0  0  0  0  0  0  0  0  0
    7.0541  -11.9742   27.3469 C   0  0  0  0  0  0  0  0  0  0  0  0
    6.0910  -12.8984   27.0285 C   0  0  0  0  0  0  0  0  0  0  0  0
    6.1650  -13.5805   25.8321 C   0  0  0  0  0  0  0  0  0  0  0  0
    8.7033  -15.9721   24.4267 C   0  0  0  0  0  0  0  0  0  0  0  0
    7.8406  -16.9030   24.5770 O   0  0  0  0  0  0  0  0  0  0  0  0
   10.8493  -18.7400   24.3184 C   0  0  0  0  0  0  0  0  0  0  0  0
   11.1463  -18.0921   25.6273 C   0  0  1  0  0  0  0  0  0  0  0  0
   12.2991  -17.3127   25.5544 O   0  0  0  0  0  0  0  0  0  0  0  0
   10.0117  -17.2052   26.1225 C   0  0  2  0  0  0  0  0  0  0  0  0
    9.8441  -16.0478   25.2708 N   0  0  0  0  0  0  0  0  0  0  0  0
   10.3944  -16.7711   27.4734 C   0  0  0  0  0  0  0  0  0  0  0  0
   10.5798  -15.5532   27.7661 O   0  0  0  0  0  0  0  0  0  0  0  0
   10.5634  -17.7030   28.4779 O   0  0  0  0  0  0  0  0  0  0  0  0
  2  1  1  1
  3  2  1  0
  4  5  2  0
  4  2  1  0
  6  4  1  0
  7  6  1  0
  7  8  1  1
  8  9  1  0
  9 14  2  0
 10 11  2  0
 10  9  1  0
 11 12  1  0
 12 13  2  0
 14 13  1  0
 15  7  1  0
 16 15  2  0
 18 17  1  6
 18 20  1  0
 19 18  1  0
 20 22  1  0
 20 21  1  6
 21 15  1  0
 22 24  1  0
 23 22  2  0
M  END
$$$$
