AFT.pdb
     RDKit          3D

 24 24  0  0  1  0  0  0  0  0999 V2000
    8.5219  -18.3832   20.3540 C   0  0  0  0  0  0  0  0  0  0  0  0
    8.9758  -16.9573   20.1173 C   0  0  2  0  0  0  0  0  0  0  0  0
   10.1803  -16.8919   19.3392 N   0  0  0  0  0  0  0  0  0  0  0  0
    9.2160  -16.3209   21.4318 C   0  0  0  0  0  0  0  0  0  0  0  0
   10.4047  -16.1813   21.8136 O   0  0  0  0  0  0  0  0  0  0  0  0
    8.1465  -15.8792   22.2424 N   0  0  0  0  0  0  0  0  0  0  0  0
    8.4446  -15.1546   23.5083 C   0  0  1  0  0  0  0  0  0  0  0  0
    7.2391  -14.2761   23.7034 C   0  0  0  0  0  0  0  0  0  0  0  0
    7.1453  -13.5464   24.9505 C   0  0  0  0  0  0  0  0  0  0  0  0
    6.1880  -13.7867   25.8929 C   0  0  0  0  0  0  0  0  0  0  0  0
    6.1653  -13.0340   27.0667 C   0  0  0  0  0  0  0  0  0  0  0  0
    7.0856  -12.0501   27.3039 C   0  0  0  0  0  0  0  0  0  0  0  0
    8.0507  -11.8040   26.3598 C   0  0  0  0  0  0  0  0  0  0  0  0
    8.0769  -12.5460   25.1975 C   0  0  0  0  0  0  0  0  0  0  0  0
    8.6107  -16.1823   24.5395 C   0  0  0  0  0  0  0  0  0  0  0  0
    7.6572  -17.0199   24.6902 O   0  0  0  0  0  0  0  0  0  0  0  0
   10.4714  -19.2502   24.6322 C   0  0  0  0  0  0  0  0  0  0  0  0
   10.8268  -18.4996   25.8698 C   0  0  1  0  0  0  0  0  0  0  0  0
   12.0231  -17.8029   25.7112 O   0  0  0  0  0  0  0  0  0  0  0  0
    9.7553  -17.5017   26.2880 C   0  0  2  0  0  0  0  0  0  0  0  0
    9.7286  -16.3610   25.3985 N   0  0  0  0  0  0  0  0  0  0  0  0
   10.1161  -17.0611   27.6428 C   0  0  0  0  0  0  0  0  0  0  0  0
   10.3807  -15.8529   27.9139 O   0  0  0  0  0  0  0  0  0  0  0  0
   10.1750  -17.9758   28.6753 O   0  0  0  0  0  0  0  0  0  0  0  0
  2  1  1  1
  3  2  1  0
  4  5  2  0
  4  2  1  0
  6  4  1  0
  7  6  1  0
  7  8  1  1
  8  9  1  0
  9 14  2  0
 10 11  2  0
 10  9  1  0
 11 12  1  0
 12 13  2  0
 14 13  1  0
 15  7  1  0
 16 15  2  0
 18 17  1  6
 18 20  1  0
 19 18  1  0
 20 22  1  0
 20 21  1  6
 21 15  1  0
 22 24  1  0
 23 22  2  0
M  END
$$$$
