AFT.pdb
     RDKit          3D

 24 24  0  0  1  0  0  0  0  0999 V2000
    8.3106  -18.9232   20.2730 C   0  0  0  0  0  0  0  0  0  0  0  0
    8.1809  -17.4514   19.9375 C   0  0  2  0  0  0  0  0  0  0  0  0
    8.9962  -17.0748   18.8177 N   0  0  0  0  0  0  0  0  0  0  0  0
    8.5952  -16.6657   21.1215 C   0  0  0  0  0  0  0  0  0  0  0  0
    9.8043  -16.3396   21.2219 O   0  0  0  0  0  0  0  0  0  0  0  0
    7.6661  -16.2879   22.1163 N   0  0  0  0  0  0  0  0  0  0  0  0
    8.1163  -15.4223   23.2408 C   0  0  1  0  0  0  0  0  0  0  0  0
    6.8900  -14.6201   23.5805 C   0  0  0  0  0  0  0  0  0  0  0  0
    6.9430  -13.8008   24.7732 C   0  0  0  0  0  0  0  0  0  0  0  0
    6.3840  -14.1668   25.9631 C   0  0  0  0  0  0  0  0  0  0  0  0
    6.4761  -13.3158   27.0641 C   0  0  0  0  0  0  0  0  0  0  0  0
    7.1183  -12.1105   26.9852 C   0  0  0  0  0  0  0  0  0  0  0  0
    7.6824  -11.7372   25.7912 C   0  0  0  0  0  0  0  0  0  0  0  0
    7.5937  -12.5756   24.6998 C   0  0  0  0  0  0  0  0  0  0  0  0
    8.5539  -16.3285   24.3058 C   0  0  0  0  0  0  0  0  0  0  0  0
    7.7654  -17.2831   24.6230 O   0  0  0  0  0  0  0  0  0  0  0  0
   11.2357  -18.8546   24.3165 C   0  0  0  0  0  0  0  0  0  0  0  0
   11.3780  -18.0458   25.5602 C   0  0  1  0  0  0  0  0  0  0  0  0
   12.3747  -17.0816   25.4236 O   0  0  0  0  0  0  0  0  0  0  0  0
   10.0909  -17.3361   25.9583 C   0  0  2  0  0  0  0  0  0  0  0  0
    9.7742  -16.2709   25.0319 N   0  0  0  0  0  0  0  0  0  0  0  0
   10.3336  -16.7716   27.2933 C   0  0  0  0  0  0  0  0  0  0  0  0
   10.4297  -15.5252   27.4941 O   0  0  0  0  0  0  0  0  0  0  0  0
   10.4641  -17.6070   28.3847 O   0  0  0  0  0  0  0  0  0  0  0  0
  2  1  1  1
  3  2  1  0
  4  5  2  0
  4  2  1  0
  6  4  1  0
  7  6  1  0
  7  8  1  1
  8  9  1  0
  9 14  2  0
 10 11  2  0
 10  9  1  0
 11 12  1  0
 12 13  2  0
 14 13  1  0
 15  7  1  0
 16 15  2  0
 18 17  1  6
 18 20  1  0
 19 18  1  0
 20 22  1  0
 20 21  1  6
 21 15  1  0
 22 24  1  0
 23 22  2  0
M  END
$$$$
