AFT.pdb
     RDKit          3D

 24 24  0  0  1  0  0  0  0  0999 V2000
    6.4881  -20.5508   23.0796 C   0  0  0  0  0  0  0  0  0  0  0  0
    5.6578  -19.3283   22.7461 C   0  0  2  0  0  0  0  0  0  0  0  0
    5.2877  -19.2837   21.3599 N   0  0  0  0  0  0  0  0  0  0  0  0
    6.4523  -18.1228   23.0719 C   0  0  0  0  0  0  0  0  0  0  0  0
    7.2080  -17.6541   22.1844 O   0  0  0  0  0  0  0  0  0  0  0  0
    6.3711  -17.5084   24.3415 N   0  0  0  0  0  0  0  0  0  0  0  0
    7.1714  -16.2817   24.6083 C   0  0  1  0  0  0  0  0  0  0  0  0
    6.4212  -15.6077   25.7244 C   0  0  0  0  0  0  0  0  0  0  0  0
    6.9372  -14.3412   26.2002 C   0  0  0  0  0  0  0  0  0  0  0  0
    7.9292  -14.2348   27.1314 C   0  0  0  0  0  0  0  0  0  0  0  0
    8.3657  -12.9746   27.5393 C   0  0  0  0  0  0  0  0  0  0  0  0
    7.8224  -11.8285   27.0270 C   0  0  0  0  0  0  0  0  0  0  0  0
    6.8247  -11.9294   26.0901 C   0  0  0  0  0  0  0  0  0  0  0  0
    6.3898  -13.1735   25.6839 C   0  0  0  0  0  0  0  0  0  0  0  0
    8.5129  -16.7400   24.9788 C   0  0  0  0  0  0  0  0  0  0  0  0
    8.5927  -17.7702   25.7310 O   0  0  0  0  0  0  0  0  0  0  0  0
   11.1518  -17.9495   22.5433 C   0  0  0  0  0  0  0  0  0  0  0  0
   11.7874  -17.0438   23.5418 C   0  0  1  0  0  0  0  0  0  0  0  0
   11.9786  -15.7677   23.0157 O   0  0  0  0  0  0  0  0  0  0  0  0
   10.9738  -16.9059   24.8217 C   0  0  2  0  0  0  0  0  0  0  0  0
    9.7527  -16.1664   24.5869 N   0  0  0  0  0  0  0  0  0  0  0  0
   11.8232  -16.1666   25.7661 C   0  0  0  0  0  0  0  0  0  0  0  0
   11.4971  -15.0325   26.2251 O   0  0  0  0  0  0  0  0  0  0  0  0
   13.0235  -16.7050   26.1851 O   0  0  0  0  0  0  0  0  0  0  0  0
  2  1  1  6
  3  2  1  0
  4  5  2  0
  4  2  1  0
  6  4  1  0
  7  6  1  0
  7  8  1  1
  8  9  1  0
  9 14  2  0
 10 11  2  0
 10  9  1  0
 11 12  1  0
 12 13  2  0
 14 13  1  0
 15  7  1  0
 16 15  2  0
 18 17  1  6
 18 20  1  0
 19 18  1  0
 20 22  1  0
 20 21  1  6
 21 15  1  0
 22 24  1  0
 23 22  2  0
M  END
$$$$
