AFT.pdb
     RDKit          3D

 24 24  0  0  1  0  0  0  0  0999 V2000
    7.8920  -13.2530   18.6813 C   0  0  0  0  0  0  0  0  0  0  0  0
    8.0846  -14.6144   19.3176 C   0  0  2  0  0  0  0  0  0  0  0  0
    6.8777  -15.3915   19.3152 N   0  0  0  0  0  0  0  0  0  0  0  0
    8.5276  -14.4163   20.7159 C   0  0  0  0  0  0  0  0  0  0  0  0
    9.6819  -13.9607   20.9122 O   0  0  0  0  0  0  0  0  0  0  0  0
    7.6850  -14.7272   21.8064 N   0  0  0  0  0  0  0  0  0  0  0  0
    8.1216  -14.3767   23.1858 C   0  0  1  0  0  0  0  0  0  0  0  0
    6.8543  -13.9099   23.8484 C   0  0  0  0  0  0  0  0  0  0  0  0
    6.9651  -13.3764   25.1898 C   0  0  0  0  0  0  0  0  0  0  0  0
    6.7485  -12.0647   25.4983 C   0  0  0  0  0  0  0  0  0  0  0  0
    6.8809  -11.6310   26.8172 C   0  0  0  0  0  0  0  0  0  0  0  0
    7.2255  -12.4922   27.8226 C   0  0  0  0  0  0  0  0  0  0  0  0
    7.4444  -13.8124   27.5183 C   0  0  0  0  0  0  0  0  0  0  0  0
    7.3146  -14.2457   26.2154 C   0  0  0  0  0  0  0  0  0  0  0  0
    8.6830  -15.6016   23.7616 C   0  0  0  0  0  0  0  0  0  0  0  0
    7.9263  -16.6309   23.7999 O   0  0  0  0  0  0  0  0  0  0  0  0
   11.3258  -17.8524   22.5073 C   0  0  0  0  0  0  0  0  0  0  0  0
   11.6200  -17.5800   23.9428 C   0  0  1  0  0  0  0  0  0  0  0  0
   12.6213  -16.6207   24.0794 O   0  0  0  0  0  0  0  0  0  0  0  0
   10.4010  -17.0987   24.7183 C   0  0  2  0  0  0  0  0  0  0  0  0
    9.9927  -15.7807   24.2834 N   0  0  0  0  0  0  0  0  0  0  0  0
   10.8106  -17.0468   26.1288 C   0  0  0  0  0  0  0  0  0  0  0  0
   10.9016  -15.9575   26.7677 O   0  0  0  0  0  0  0  0  0  0  0  0
   11.1111  -18.2121   26.8055 O   0  0  0  0  0  0  0  0  0  0  0  0
  2  1  1  1
  3  2  1  0
  4  5  2  0
  4  2  1  0
  6  4  1  0
  7  6  1  0
  7  8  1  1
  8  9  1  0
  9 14  2  0
 10 11  2  0
 10  9  1  0
 11 12  1  0
 12 13  2  0
 14 13  1  0
 15  7  1  0
 16 15  2  0
 18 17  1  6
 18 20  1  0
 19 18  1  0
 20 22  1  0
 20 21  1  6
 21 15  1  0
 22 24  1  0
 23 22  2  0
M  END
$$$$
