WWR.pdb
     RDKit          3D

 40 43  0  0  1  0  0  0  0  0999 V2000
    6.7166  -18.9573   20.2670 N   0  0  0  0  0  0  0  0  0  0  0  0
    5.9611  -18.1817   21.2338 C   0  0  1  0  0  0  0  0  0  0  0  0
    5.1562  -18.9287   22.1962 C   0  0  0  0  0  0  0  0  0  0  0  0
    4.0037  -19.6978   21.7351 C   0  0  0  0  0  0  0  0  0  0  0  0
    3.7032  -20.9441   22.3285 C   0  0  0  0  0  0  0  0  0  0  0  0
    2.6135  -21.4495   21.7485 N   0  0  0  0  0  0  0  0  0  0  0  0
    2.1947  -20.5902   20.8088 C   0  0  0  0  0  0  0  0  0  0  0  0
    1.1307  -20.6345   19.9299 C   0  0  0  0  0  0  0  0  0  0  0  0
    0.9281  -19.5984   19.0475 C   0  0  0  0  0  0  0  0  0  0  0  0
    1.7631  -18.5076   19.0150 C   0  0  0  0  0  0  0  0  0  0  0  0
    2.8288  -18.4543   19.8891 C   0  0  0  0  0  0  0  0  0  0  0  0
    3.0445  -19.4809   20.7754 C   0  0  0  0  0  0  0  0  0  0  0  0
    7.0393  -17.4037   21.9647 C   0  0  0  0  0  0  0  0  0  0  0  0
    8.2323  -17.8290   21.9261 O   0  0  0  0  0  0  0  0  0  0  0  0
    6.6659  -16.2419   22.6607 N   0  0  0  0  0  0  0  0  0  0  0  0
    7.6650  -15.5928   23.5230 C   0  0  1  0  0  0  0  0  0  0  0  0
    7.0761  -14.3406   24.0732 C   0  0  0  0  0  0  0  0  0  0  0  0
    7.6844  -13.9845   25.3561 C   0  0  0  0  0  0  0  0  0  0  0  0
    8.7393  -14.6228   26.0139 C   0  0  0  0  0  0  0  0  0  0  0  0
    8.9977  -13.9735   27.1546 N   0  0  0  0  0  0  0  0  0  0  0  0
    8.1477  -12.9142   27.2861 C   0  0  0  0  0  0  0  0  0  0  0  0
    7.9992  -11.9441   28.2536 C   0  0  0  0  0  0  0  0  0  0  0  0
    7.0208  -10.9670   28.1036 C   0  0  0  0  0  0  0  0  0  0  0  0
    6.2255  -11.0124   26.9718 C   0  0  0  0  0  0  0  0  0  0  0  0
    6.3544  -11.9712   25.9900 C   0  0  0  0  0  0  0  0  0  0  0  0
    7.3463  -12.9328   26.1762 C   0  0  0  0  0  0  0  0  0  0  0  0
    7.9421  -16.5846   24.6288 C   0  0  0  0  0  0  0  0  0  0  0  0
    7.0135  -17.2189   25.1638 O   0  0  0  0  0  0  0  0  0  0  0  0
   13.1266  -17.9626   20.6262 N   0  0  0  0  0  0  0  0  0  0  0  0
   12.4647  -19.1232   21.0977 C   0  0  0  0  0  0  0  0  0  0  0  0
   11.7236  -19.8000   20.3414 N   0  0  0  0  0  0  0  0  0  0  0  0
   12.6284  -19.5432   22.4517 N   0  0  0  0  0  0  0  0  0  0  0  0
   11.5569  -19.8361   23.3556 C   0  0  0  0  0  0  0  0  0  0  0  0
   11.2571  -18.6809   24.2912 C   0  0  0  0  0  0  0  0  0  0  0  0
   10.0670  -19.0630   25.1351 C   0  0  0  0  0  0  0  0  0  0  0  0
    9.6052  -17.8987   25.9989 C   0  0  2  0  0  0  0  0  0  0  0  0
    9.2754  -16.8089   25.0744 N   0  0  0  0  0  0  0  0  0  0  0  0
   10.6902  -17.4812   26.8949 C   0  0  0  0  0  0  0  0  0  0  0  0
   10.9394  -18.1622   28.0580 O   0  0  0  0  0  0  0  0  0  0  0  0
   11.3846  -16.4888   26.5869 O   0  0  0  0  0  0  0  0  0  0  0  0
  2  3  1  0
  2  1  1  6
  4  5  2  0
  4  3  1  0
  6  5  1  0
  7 12  2  0
  7  6  1  0
  8  7  1  0
  9 10  1  0
  9  8  2  0
 10 11  2  0
 11 12  1  0
 12  4  1  0
 13  2  1  0
 14 13  2  0
 15 13  1  0
 16 15  1  0
 16 17  1  1
 17 18  1  0
 18 26  1  0
 18 19  2  0
 19 20  1  0
 21 22  2  0
 21 20  1  0
 23 22  1  0
 24 23  2  0
 25 24  1  0
 25 26  2  0
 26 21  1  0
 27 28  2  0
 27 16  1  0
 30 32  1  0
 30 29  1  0
 31 30  2  0
 33 32  1  0
 34 35  1  0
 34 33  1  0
 36 35  1  6
 36 38  1  0
 36 37  1  0
 37 27  1  0
 38 39  1  0
 40 38  2  0
M  END
$$$$
