WWR.pdb
     RDKit          3D

 40 43  0  0  1  0  0  0  0  0999 V2000
    7.6214  -17.9921   22.1484 N   0  0  0  0  0  0  0  0  0  0  0  0
    8.0491  -16.6550   21.7794 C   0  0  1  0  0  0  0  0  0  0  0  0
    7.0011  -15.6939   21.4477 C   0  0  0  0  0  0  0  0  0  0  0  0
    7.0516  -14.9761   20.1770 C   0  0  0  0  0  0  0  0  0  0  0  0
    6.6856  -15.6318   18.9805 C   0  0  0  0  0  0  0  0  0  0  0  0
    6.8075  -14.7781   17.9628 N   0  0  0  0  0  0  0  0  0  0  0  0
    7.2345  -13.6020   18.4435 C   0  0  0  0  0  0  0  0  0  0  0  0
    7.5217  -12.4032   17.8213 C   0  0  0  0  0  0  0  0  0  0  0  0
    7.9572  -11.3320   18.5669 C   0  0  0  0  0  0  0  0  0  0  0  0
    8.1162  -11.4207   19.9289 C   0  0  0  0  0  0  0  0  0  0  0  0
    7.8319  -12.6141   20.5595 C   0  0  0  0  0  0  0  0  0  0  0  0
    7.3969  -13.6925   19.8289 C   0  0  0  0  0  0  0  0  0  0  0  0
    8.8015  -16.1853   23.0104 C   0  0  0  0  0  0  0  0  0  0  0  0
    9.2881  -15.0154   23.0198 O   0  0  0  0  0  0  0  0  0  0  0  0
    8.9314  -17.0741   24.0907 N   0  0  0  0  0  0  0  0  0  0  0  0
    9.8046  -16.6899   25.2100 C   0  0  1  0  0  0  0  0  0  0  0  0
    9.0163  -16.7551   26.4717 C   0  0  0  0  0  0  0  0  0  0  0  0
    7.9104  -15.7962   26.4592 C   0  0  0  0  0  0  0  0  0  0  0  0
    6.5497  -16.0556   26.2744 C   0  0  0  0  0  0  0  0  0  0  0  0
    5.8732  -14.9039   26.3455 N   0  0  0  0  0  0  0  0  0  0  0  0
    6.7380  -13.8733   26.5736 C   0  0  0  0  0  0  0  0  0  0  0  0
    6.5602  -12.5159   26.7315 C   0  0  0  0  0  0  0  0  0  0  0  0
    7.6627  -11.6998   26.9622 C   0  0  0  0  0  0  0  0  0  0  0  0
    8.9104  -12.2956   27.0234 C   0  0  0  0  0  0  0  0  0  0  0  0
    9.1146  -13.6500   26.8695 C   0  0  0  0  0  0  0  0  0  0  0  0
    7.9851  -14.4343   26.6402 C   0  0  0  0  0  0  0  0  0  0  0  0
   10.9150  -17.7147   25.2194 C   0  0  0  0  0  0  0  0  0  0  0  0
   10.7455  -18.8337   25.7391 O   0  0  0  0  0  0  0  0  0  0  0  0
   17.1240  -18.9475   19.3226 N   0  0  0  0  0  0  0  0  0  0  0  0
   17.3587  -19.9307   20.3153 C   0  0  0  0  0  0  0  0  0  0  0  0
   18.2871  -20.7686   20.1921 N   0  0  0  0  0  0  0  0  0  0  0  0
   16.5347  -19.9870   21.4791 N   0  0  0  0  0  0  0  0  0  0  0  0
   15.4873  -19.0608   21.7890 C   0  0  0  0  0  0  0  0  0  0  0  0
   15.3967  -18.7656   23.2737 C   0  0  0  0  0  0  0  0  0  0  0  0
   14.2349  -17.8288   23.4913 C   0  0  0  0  0  0  0  0  0  0  0  0
   13.1872  -18.4502   24.4029 C   0  0  2  0  0  0  0  0  0  0  0  0
   12.1753  -17.4130   24.6299 N   0  0  0  0  0  0  0  0  0  0  0  0
   13.8014  -18.8352   25.6791 C   0  0  0  0  0  0  0  0  0  0  0  0
   13.6733  -18.0382   26.7870 O   0  0  0  0  0  0  0  0  0  0  0  0
   14.4513  -19.9007   25.7437 O   0  0  0  0  0  0  0  0  0  0  0  0
  2  3  1  0
  2  1  1  1
  4  5  2  0
  4  3  1  0
  6  5  1  0
  7 12  2  0
  7  6  1  0
  8  7  1  0
  9 10  1  0
  9  8  2  0
 10 11  2  0
 11 12  1  0
 12  4  1  0
 13  2  1  0
 14 13  2  0
 15 13  1  0
 16 15  1  0
 16 17  1  1
 17 18  1  0
 18 26  1  0
 18 19  2  0
 19 20  1  0
 21 22  2  0
 21 20  1  0
 23 22  1  0
 24 23  2  0
 25 24  1  0
 25 26  2  0
 26 21  1  0
 27 28  2  0
 27 16  1  0
 30 32  1  0
 30 29  1  0
 31 30  2  0
 33 32  1  0
 34 35  1  0
 34 33  1  0
 36 35  1  6
 36 38  1  0
 36 37  1  0
 37 27  1  0
 38 39  1  0
 40 38  2  0
M  END
$$$$
