WWR.pdb
     RDKit          3D

 40 43  0  0  1  0  0  0  0  0999 V2000
    8.4492  -17.6713   22.3038 N   0  0  0  0  0  0  0  0  0  0  0  0
    8.7532  -16.2524   22.3405 C   0  0  1  0  0  0  0  0  0  0  0  0
    7.6598  -15.3343   22.0344 C   0  0  0  0  0  0  0  0  0  0  0  0
    7.4363  -14.9074   20.6559 C   0  0  0  0  0  0  0  0  0  0  0  0
    6.5828  -15.6553   19.8146 C   0  0  0  0  0  0  0  0  0  0  0  0
    6.5336  -15.0712   18.6164 N   0  0  0  0  0  0  0  0  0  0  0  0
    7.3139  -13.9817   18.6422 C   0  0  0  0  0  0  0  0  0  0  0  0
    7.6130  -13.0409   17.6767 C   0  0  0  0  0  0  0  0  0  0  0  0
    8.4662  -12.0030   17.9733 C   0  0  0  0  0  0  0  0  0  0  0  0
    9.0361  -11.8733   19.2169 C   0  0  0  0  0  0  0  0  0  0  0  0
    8.7436  -12.8083   20.1879 C   0  0  0  0  0  0  0  0  0  0  0  0
    7.8941  -13.8502   19.9071 C   0  0  0  0  0  0  0  0  0  0  0  0
    9.2140  -16.0388   23.7702 C   0  0  0  0  0  0  0  0  0  0  0  0
    9.6582  -14.9004   24.1055 O   0  0  0  0  0  0  0  0  0  0  0  0
    9.1327  -17.1194   24.6644 N   0  0  0  0  0  0  0  0  0  0  0  0
    9.6695  -16.9441   26.0224 C   0  0  1  0  0  0  0  0  0  0  0  0
    8.5385  -16.9891   26.9899 C   0  0  0  0  0  0  0  0  0  0  0  0
    7.5881  -15.9021   26.7496 C   0  0  0  0  0  0  0  0  0  0  0  0
    6.2769  -15.9958   26.2752 C   0  0  0  0  0  0  0  0  0  0  0  0
    5.7486  -14.7686   26.2103 N   0  0  0  0  0  0  0  0  0  0  0  0
    6.6653  -13.8481   26.6278 C   0  0  0  0  0  0  0  0  0  0  0  0
    6.6271  -12.4765   26.7564 C   0  0  0  0  0  0  0  0  0  0  0  0
    7.7471  -11.7980   27.2253 C   0  0  0  0  0  0  0  0  0  0  0  0
    8.8694  -12.5413   27.5469 C   0  0  0  0  0  0  0  0  0  0  0  0
    8.9326  -13.9131   27.4279 C   0  0  0  0  0  0  0  0  0  0  0  0
    7.7902  -14.5567   26.9549 C   0  0  0  0  0  0  0  0  0  0  0  0
   10.6031  -18.1127   26.2361 C   0  0  0  0  0  0  0  0  0  0  0  0
   10.1698  -19.2108   26.6330 O   0  0  0  0  0  0  0  0  0  0  0  0
   11.6526  -18.5214   19.3879 N   0  0  0  0  0  0  0  0  0  0  0  0
   12.9315  -18.6123   19.9907 C   0  0  0  0  0  0  0  0  0  0  0  0
   13.9213  -19.0478   19.3505 N   0  0  0  0  0  0  0  0  0  0  0  0
   13.1160  -18.2102   21.3476 N   0  0  0  0  0  0  0  0  0  0  0  0
   13.2566  -19.1047   22.4570 C   0  0  0  0  0  0  0  0  0  0  0  0
   12.1459  -18.9409   23.4765 C   0  0  0  0  0  0  0  0  0  0  0  0
   12.4189  -19.8885   24.6176 C   0  0  0  0  0  0  0  0  0  0  0  0
   12.8779  -19.1397   25.8601 C   0  0  2  0  0  0  0  0  0  0  0  0
   11.9973  -17.9733   25.9836 N   0  0  0  0  0  0  0  0  0  0  0  0
   14.2679  -18.6994   25.6922 C   0  0  0  0  0  0  0  0  0  0  0  0
   14.5828  -17.3655   25.6730 O   0  0  0  0  0  0  0  0  0  0  0  0
   15.1657  -19.5587   25.5603 O   0  0  0  0  0  0  0  0  0  0  0  0
  2  3  1  0
  2  1  1  1
  4  5  2  0
  4  3  1  0
  6  5  1  0
  7 12  2  0
  7  6  1  0
  8  7  1  0
  9 10  1  0
  9  8  2  0
 10 11  2  0
 11 12  1  0
 12  4  1  0
 13  2  1  0
 14 13  2  0
 15 13  1  0
 16 15  1  0
 16 17  1  1
 17 18  1  0
 18 26  1  0
 18 19  2  0
 19 20  1  0
 21 22  2  0
 21 20  1  0
 23 22  1  0
 24 23  2  0
 25 24  1  0
 25 26  2  0
 26 21  1  0
 27 28  2  0
 27 16  1  0
 30 32  1  0
 30 29  1  0
 31 30  2  0
 33 32  1  0
 34 35  1  0
 34 33  1  0
 36 35  1  6
 36 38  1  0
 36 37  1  0
 37 27  1  0
 38 39  1  0
 40 38  2  0
M  END
$$$$
