WWR.pdb
     RDKit          3D

 40 43  0  0  1  0  0  0  0  0999 V2000
    7.6494  -16.0408   21.7386 N   0  0  0  0  0  0  0  0  0  0  0  0
    9.0306  -16.4455   21.9271 C   0  0  1  0  0  0  0  0  0  0  0  0
   10.0156  -15.8821   21.0082 C   0  0  0  0  0  0  0  0  0  0  0  0
    9.6067  -14.8690   20.0393 C   0  0  0  0  0  0  0  0  0  0  0  0
   10.4553  -14.5424   18.9582 C   0  0  0  0  0  0  0  0  0  0  0  0
    9.8688  -13.6035   18.2141 N   0  0  0  0  0  0  0  0  0  0  0  0
    8.6818  -13.3072   18.7616 C   0  0  0  0  0  0  0  0  0  0  0  0
    7.6964  -12.4125   18.3940 C   0  0  0  0  0  0  0  0  0  0  0  0
    6.5538  -12.3026   19.1526 C   0  0  0  0  0  0  0  0  0  0  0  0
    6.3618  -13.0665   20.2786 C   0  0  0  0  0  0  0  0  0  0  0  0
    7.3404  -13.9631   20.6539 C   0  0  0  0  0  0  0  0  0  0  0  0
    8.4867  -14.0839   19.9073 C   0  0  0  0  0  0  0  0  0  0  0  0
    9.3308  -15.9863   23.3417 C   0  0  0  0  0  0  0  0  0  0  0  0
    9.3798  -14.7434   23.5833 O   0  0  0  0  0  0  0  0  0  0  0  0
    9.5477  -16.9639   24.3271 N   0  0  0  0  0  0  0  0  0  0  0  0
   10.2465  -16.5701   25.5598 C   0  0  1  0  0  0  0  0  0  0  0  0
    9.2702  -16.5827   26.6842 C   0  0  0  0  0  0  0  0  0  0  0  0
    8.0717  -15.8082   26.3580 C   0  0  0  0  0  0  0  0  0  0  0  0
    6.8533  -16.2784   25.8605 C   0  0  0  0  0  0  0  0  0  0  0  0
    6.0166  -15.2456   25.7106 N   0  0  0  0  0  0  0  0  0  0  0  0
    6.6346  -14.0908   26.0930 C   0  0  0  0  0  0  0  0  0  0  0  0
    6.2231  -12.7763   26.1386 C   0  0  0  0  0  0  0  0  0  0  0  0
    7.1000  -11.7962   26.5915 C   0  0  0  0  0  0  0  0  0  0  0  0
    8.3681  -12.1896   26.9821 C   0  0  0  0  0  0  0  0  0  0  0  0
    8.8034  -13.4969   26.9467 C   0  0  0  0  0  0  0  0  0  0  0  0
    7.8956  -14.4498   26.4872 C   0  0  0  0  0  0  0  0  0  0  0  0
   11.3136  -17.6198   25.7661 C   0  0  0  0  0  0  0  0  0  0  0  0
   11.3814  -18.2591   26.8326 O   0  0  0  0  0  0  0  0  0  0  0  0
   14.1802  -16.0920   19.3235 N   0  0  0  0  0  0  0  0  0  0  0  0
   13.8330  -15.5897   20.6019 C   0  0  0  0  0  0  0  0  0  0  0  0
   13.2593  -14.4789   20.7289 N   0  0  0  0  0  0  0  0  0  0  0  0
   14.1353  -16.3430   21.7758 N   0  0  0  0  0  0  0  0  0  0  0  0
   14.7180  -17.6512   21.7843 C   0  0  0  0  0  0  0  0  0  0  0  0
   14.9372  -18.1777   23.1895 C   0  0  0  0  0  0  0  0  0  0  0  0
   13.8446  -19.1734   23.4884 C   0  0  0  0  0  0  0  0  0  0  0  0
   13.2624  -18.9548   24.8770 C   0  0  2  0  0  0  0  0  0  0  0  0
   12.2593  -17.8938   24.7378 N   0  0  0  0  0  0  0  0  0  0  0  0
   14.3197  -18.5233   25.7990 C   0  0  0  0  0  0  0  0  0  0  0  0
   14.3316  -17.2493   26.3045 O   0  0  0  0  0  0  0  0  0  0  0  0
   15.2176  -19.3330   26.1155 O   0  0  0  0  0  0  0  0  0  0  0  0
  2  3  1  0
  2  1  1  6
  4  5  2  0
  4  3  1  0
  6  5  1  0
  7 12  2  0
  7  6  1  0
  8  7  1  0
  9 10  1  0
  9  8  2  0
 10 11  2  0
 11 12  1  0
 12  4  1  0
 13  2  1  0
 14 13  2  0
 15 13  1  0
 16 15  1  0
 16 17  1  1
 17 18  1  0
 18 26  1  0
 18 19  2  0
 19 20  1  0
 21 22  2  0
 21 20  1  0
 23 22  1  0
 24 23  2  0
 25 24  1  0
 25 26  2  0
 26 21  1  0
 27 28  2  0
 27 16  1  0
 30 32  1  0
 30 29  1  0
 31 30  2  0
 33 32  1  0
 34 35  1  0
 34 33  1  0
 36 35  1  6
 36 38  1  0
 36 37  1  0
 37 27  1  0
 38 39  1  0
 40 38  2  0
M  END
$$$$
