WWR.pdb
     RDKit          3D

 40 43  0  0  1  0  0  0  0  0999 V2000
    7.8233  -14.1796   20.3741 N   0  0  0  0  0  0  0  0  0  0  0  0
    8.0374  -15.5219   20.8832 C   0  0  1  0  0  0  0  0  0  0  0  0
    8.8009  -16.4353   20.0377 C   0  0  0  0  0  0  0  0  0  0  0  0
    8.1793  -17.6643   19.5524 C   0  0  0  0  0  0  0  0  0  0  0  0
    6.8640  -17.6350   19.0379 C   0  0  0  0  0  0  0  0  0  0  0  0
    6.5195  -18.8659   18.6565 N   0  0  0  0  0  0  0  0  0  0  0  0
    7.5485  -19.6898   18.8992 C   0  0  0  0  0  0  0  0  0  0  0  0
    7.7087  -21.0464   18.6975 C   0  0  0  0  0  0  0  0  0  0  0  0
    8.8914  -21.6557   19.0481 C   0  0  0  0  0  0  0  0  0  0  0  0
    9.9307  -20.9455   19.5993 C   0  0  0  0  0  0  0  0  0  0  0  0
    9.7802  -19.5899   19.8048 C   0  0  0  0  0  0  0  0  0  0  0  0
    8.6054  -18.9674   19.4605 C   0  0  0  0  0  0  0  0  0  0  0  0
    8.7869  -15.2797   22.1800 C   0  0  0  0  0  0  0  0  0  0  0  0
    9.5841  -14.2973   22.2507 O   0  0  0  0  0  0  0  0  0  0  0  0
    8.5674  -16.1624   23.2506 N   0  0  0  0  0  0  0  0  0  0  0  0
    9.2827  -15.9210   24.5127 C   0  0  1  0  0  0  0  0  0  0  0  0
    8.3039  -15.9835   25.6332 C   0  0  0  0  0  0  0  0  0  0  0  0
    7.2971  -14.9270   25.5208 C   0  0  0  0  0  0  0  0  0  0  0  0
    5.9890  -15.0335   25.0406 C   0  0  0  0  0  0  0  0  0  0  0  0
    5.3979  -13.8361   25.1180 N   0  0  0  0  0  0  0  0  0  0  0  0
    6.2691  -12.9233   25.6374 C   0  0  0  0  0  0  0  0  0  0  0  0
    6.1613  -11.5794   25.9230 C   0  0  0  0  0  0  0  0  0  0  0  0
    7.2483  -10.9020   26.4654 C   0  0  0  0  0  0  0  0  0  0  0  0
    8.4097  -11.6181   26.6978 C   0  0  0  0  0  0  0  0  0  0  0  0
    8.5425  -12.9619   26.4218 C   0  0  0  0  0  0  0  0  0  0  0  0
    7.4312  -13.6054   25.8793 C   0  0  0  0  0  0  0  0  0  0  0  0
   10.2911  -17.0412   24.6202 C   0  0  0  0  0  0  0  0  0  0  0  0
   10.1327  -17.9653   25.4399 O   0  0  0  0  0  0  0  0  0  0  0  0
   13.9673  -13.9995   18.4191 N   0  0  0  0  0  0  0  0  0  0  0  0
   14.5258  -14.8971   19.3623 C   0  0  0  0  0  0  0  0  0  0  0  0
   15.6796  -14.7160   19.8262 N   0  0  0  0  0  0  0  0  0  0  0  0
   13.7812  -16.0327   19.8012 N   0  0  0  0  0  0  0  0  0  0  0  0
   14.2701  -17.0396   20.6945 C   0  0  0  0  0  0  0  0  0  0  0  0
   13.7115  -16.8899   22.0964 C   0  0  0  0  0  0  0  0  0  0  0  0
   13.0927  -18.2067   22.4933 C   0  0  0  0  0  0  0  0  0  0  0  0
   12.4445  -18.1211   23.8671 C   0  0  2  0  0  0  0  0  0  0  0  0
   11.4404  -17.0555   23.7802 N   0  0  0  0  0  0  0  0  0  0  0  0
   13.4540  -17.7738   24.8743 C   0  0  0  0  0  0  0  0  0  0  0  0
   13.4059  -16.5703   25.5286 O   0  0  0  0  0  0  0  0  0  0  0  0
   14.3667  -18.5896   25.1261 O   0  0  0  0  0  0  0  0  0  0  0  0
  2  3  1  0
  2  1  1  6
  4  5  2  0
  4  3  1  0
  6  5  1  0
  7 12  2  0
  7  6  1  0
  8  7  1  0
  9 10  1  0
  9  8  2  0
 10 11  2  0
 11 12  1  0
 12  4  1  0
 13  2  1  0
 14 13  2  0
 15 13  1  0
 16 15  1  0
 16 17  1  1
 17 18  1  0
 18 26  1  0
 18 19  2  0
 19 20  1  0
 21 22  2  0
 21 20  1  0
 23 22  1  0
 24 23  2  0
 25 24  1  0
 25 26  2  0
 26 21  1  0
 27 28  2  0
 27 16  1  0
 30 32  1  0
 30 29  1  0
 31 30  2  0
 33 32  1  0
 34 35  1  0
 34 33  1  0
 36 35  1  6
 36 38  1  0
 36 37  1  0
 37 27  1  0
 38 39  1  0
 40 38  2  0
M  END
$$$$
