WWR.pdb
     RDKit          3D

 40 43  0  0  1  0  0  0  0  0999 V2000
    8.2431  -16.3998   21.0812 N   0  0  0  0  0  0  0  0  0  0  0  0
    9.3114  -15.4494   21.3314 C   0  0  1  0  0  0  0  0  0  0  0  0
    9.0302  -14.0469   21.0383 C   0  0  0  0  0  0  0  0  0  0  0  0
    8.4568  -13.6770   19.7473 C   0  0  0  0  0  0  0  0  0  0  0  0
    8.2142  -12.3185   19.4454 C   0  0  0  0  0  0  0  0  0  0  0  0
    7.6974  -12.2319   18.2187 N   0  0  0  0  0  0  0  0  0  0  0  0
    7.5942  -13.4688   17.7127 C   0  0  0  0  0  0  0  0  0  0  0  0
    7.1250  -13.9302   16.4988 C   0  0  0  0  0  0  0  0  0  0  0  0
    7.1268  -15.2801   16.2324 C   0  0  0  0  0  0  0  0  0  0  0  0
    7.5878  -16.1935   17.1496 C   0  0  0  0  0  0  0  0  0  0  0  0
    8.0585  -15.7423   18.3651 C   0  0  0  0  0  0  0  0  0  0  0  0
    8.0626  -14.3980   18.6460 C   0  0  0  0  0  0  0  0  0  0  0  0
    9.5772  -15.6175   22.8157 C   0  0  0  0  0  0  0  0  0  0  0  0
   10.4088  -14.8450   23.3789 O   0  0  0  0  0  0  0  0  0  0  0  0
    8.8899  -16.6309   23.5046 N   0  0  0  0  0  0  0  0  0  0  0  0
    9.2489  -16.8891   24.9072 C   0  0  1  0  0  0  0  0  0  0  0  0
    7.9970  -16.9908   25.7071 C   0  0  0  0  0  0  0  0  0  0  0  0
    7.2178  -15.7537   25.6369 C   0  0  0  0  0  0  0  0  0  0  0  0
    6.0475  -15.5148   24.9114 C   0  0  0  0  0  0  0  0  0  0  0  0
    5.6487  -14.2569   25.1301 N   0  0  0  0  0  0  0  0  0  0  0  0
    6.5159  -13.6389   25.9833 C   0  0  0  0  0  0  0  0  0  0  0  0
    6.5595  -12.3713   26.5222 C   0  0  0  0  0  0  0  0  0  0  0  0
    7.5926  -12.0268   27.3876 C   0  0  0  0  0  0  0  0  0  0  0  0
    8.5475  -12.9869   27.6737 C   0  0  0  0  0  0  0  0  0  0  0  0
    8.5259  -14.2611   27.1485 C   0  0  0  0  0  0  0  0  0  0  0  0
    7.4747  -14.5680   26.2859 C   0  0  0  0  0  0  0  0  0  0  0  0
    9.9841  -18.2091   24.8941 C   0  0  0  0  0  0  0  0  0  0  0  0
    9.5361  -19.1823   24.2591 O   0  0  0  0  0  0  0  0  0  0  0  0
   14.7808  -19.2172   19.0421 N   0  0  0  0  0  0  0  0  0  0  0  0
   14.8945  -20.4582   19.7161 C   0  0  0  0  0  0  0  0  0  0  0  0
   15.2924  -21.4884   19.1165 N   0  0  0  0  0  0  0  0  0  0  0  0
   14.5526  -20.5587   21.0980 N   0  0  0  0  0  0  0  0  0  0  0  0
   14.1210  -19.4671   21.9184 C   0  0  0  0  0  0  0  0  0  0  0  0
   13.7302  -19.9119   23.3145 C   0  0  0  0  0  0  0  0  0  0  0  0
   12.7001  -18.9435   23.8396 C   0  0  0  0  0  0  0  0  0  0  0  0
   12.2103  -19.3527   25.2208 C   0  0  2  0  0  0  0  0  0  0  0  0
   11.2056  -18.3576   25.6101 N   0  0  0  0  0  0  0  0  0  0  0  0
   13.3274  -19.3320   26.1726 C   0  0  0  0  0  0  0  0  0  0  0  0
   13.3681  -18.4089   27.1851 O   0  0  0  0  0  0  0  0  0  0  0  0
   14.2493  -20.1662   26.0457 O   0  0  0  0  0  0  0  0  0  0  0  0
  2  3  1  0
  2  1  1  1
  4  5  2  0
  4  3  1  0
  6  5  1  0
  7 12  2  0
  7  6  1  0
  8  7  1  0
  9 10  1  0
  9  8  2  0
 10 11  2  0
 11 12  1  0
 12  4  1  0
 13  2  1  0
 14 13  2  0
 15 13  1  0
 16 15  1  0
 16 17  1  1
 17 18  1  0
 18 26  1  0
 18 19  2  0
 19 20  1  0
 21 22  2  0
 21 20  1  0
 23 22  1  0
 24 23  2  0
 25 24  1  0
 25 26  2  0
 26 21  1  0
 27 28  2  0
 27 16  1  0
 30 32  1  0
 30 29  1  0
 31 30  2  0
 33 32  1  0
 34 35  1  0
 34 33  1  0
 36 35  1  6
 36 38  1  0
 36 37  1  0
 37 27  1  0
 38 39  1  0
 40 38  2  0
M  END
$$$$
