WWR.pdb
     RDKit          3D

 40 43  0  0  1  0  0  0  0  0999 V2000
    6.3036  -21.6732   25.1882 N   0  0  0  0  0  0  0  0  0  0  0  0
    7.0290  -20.7253   26.0141 C   0  0  1  0  0  0  0  0  0  0  0  0
    8.2981  -21.1762   26.5783 C   0  0  0  0  0  0  0  0  0  0  0  0
    8.6945  -20.7372   27.9134 C   0  0  0  0  0  0  0  0  0  0  0  0
    8.6367  -21.6389   28.9994 C   0  0  0  0  0  0  0  0  0  0  0  0
    9.0486  -21.0149   30.1041 N   0  0  0  0  0  0  0  0  0  0  0  0
    9.3701  -19.7534   29.7850 C   0  0  0  0  0  0  0  0  0  0  0  0
    9.8389  -18.7021   30.5477 C   0  0  0  0  0  0  0  0  0  0  0  0
   10.0881  -17.4850   29.9564 C   0  0  0  0  0  0  0  0  0  0  0  0
    9.8821  -17.2824   28.6130 C   0  0  0  0  0  0  0  0  0  0  0  0
    9.4138  -18.3265   27.8427 C   0  0  0  0  0  0  0  0  0  0  0  0
    9.1599  -19.5471   28.4185 C   0  0  0  0  0  0  0  0  0  0  0  0
    7.2746  -19.5655   25.0672 C   0  0  0  0  0  0  0  0  0  0  0  0
    7.8175  -19.7965   23.9458 O   0  0  0  0  0  0  0  0  0  0  0  0
    6.8921  -18.2777   25.4786 N   0  0  0  0  0  0  0  0  0  0  0  0
    7.2582  -17.1353   24.6279 C   0  0  1  0  0  0  0  0  0  0  0  0
    6.4997  -15.9388   25.0868 C   0  0  0  0  0  0  0  0  0  0  0  0
    6.8965  -14.7400   24.3465 C   0  0  0  0  0  0  0  0  0  0  0  0
    7.2377  -14.6378   22.9951 C   0  0  0  0  0  0  0  0  0  0  0  0
    7.5265  -13.3623   22.7142 N   0  0  0  0  0  0  0  0  0  0  0  0
    7.3897  -12.5993   23.8372 C   0  0  0  0  0  0  0  0  0  0  0  0
    7.5589  -11.2543   24.0848 C   0  0  0  0  0  0  0  0  0  0  0  0
    7.3351  -10.7567   25.3643 C   0  0  0  0  0  0  0  0  0  0  0  0
    6.9468  -11.6483   26.3491 C   0  0  0  0  0  0  0  0  0  0  0  0
    6.7701  -12.9971   26.1270 C   0  0  0  0  0  0  0  0  0  0  0  0
    7.0037  -13.4572   24.8320 C   0  0  0  0  0  0  0  0  0  0  0  0
    8.7419  -16.9410   24.8377 C   0  0  0  0  0  0  0  0  0  0  0  0
    9.2359  -16.9887   25.9799 O   0  0  0  0  0  0  0  0  0  0  0  0
    9.3889  -18.0902   18.7873 N   0  0  0  0  0  0  0  0  0  0  0  0
   10.1035  -19.1936   19.3157 C   0  0  0  0  0  0  0  0  0  0  0  0
    9.6575  -20.3641   19.2146 N   0  0  0  0  0  0  0  0  0  0  0  0
   11.3503  -18.9903   19.9797 N   0  0  0  0  0  0  0  0  0  0  0  0
   11.8514  -17.7212   20.4145 C   0  0  0  0  0  0  0  0  0  0  0  0
   12.1752  -17.7038   21.8959 C   0  0  0  0  0  0  0  0  0  0  0  0
   11.6186  -16.4289   22.4784 C   0  0  0  0  0  0  0  0  0  0  0  0
   11.0573  -16.6577   23.8739 C   0  0  2  0  0  0  0  0  0  0  0  0
    9.5987  -16.7011   23.7264 N   0  0  0  0  0  0  0  0  0  0  0  0
   11.4365  -15.5451   24.7528 C   0  0  0  0  0  0  0  0  0  0  0  0
   10.5410  -14.5511   25.0509 O   0  0  0  0  0  0  0  0  0  0  0  0
   12.5934  -15.5104   25.2245 O   0  0  0  0  0  0  0  0  0  0  0  0
  2  3  1  0
  2  1  1  6
  4  5  2  0
  4  3  1  0
  6  5  1  0
  7 12  2  0
  7  6  1  0
  8  7  1  0
  9 10  1  0
  9  8  2  0
 10 11  2  0
 11 12  1  0
 12  4  1  0
 13  2  1  0
 14 13  2  0
 15 13  1  0
 16 15  1  0
 16 17  1  1
 17 18  1  0
 18 26  1  0
 18 19  2  0
 19 20  1  0
 21 22  2  0
 21 20  1  0
 23 22  1  0
 24 23  2  0
 25 24  1  0
 25 26  2  0
 26 21  1  0
 27 28  2  0
 27 16  1  0
 30 32  1  0
 30 29  1  0
 31 30  2  0
 33 32  1  0
 34 35  1  0
 34 33  1  0
 36 35  1  6
 36 38  1  0
 36 37  1  0
 37 27  1  0
 38 39  1  0
 40 38  2  0
M  END
$$$$
