WWR.pdb
     RDKit          3D

 40 43  0  0  1  0  0  0  0  0999 V2000
   10.1439  -18.7500   25.6324 N   0  0  0  0  0  0  0  0  0  0  0  0
    8.7251  -19.0217   25.7741 C   0  0  1  0  0  0  0  0  0  0  0  0
    8.1537  -18.8719   27.1095 C   0  0  0  0  0  0  0  0  0  0  0  0
    8.8236  -18.0265   28.0938 C   0  0  0  0  0  0  0  0  0  0  0  0
    9.6155  -18.6127   29.1061 C   0  0  0  0  0  0  0  0  0  0  0  0
   10.1227  -17.6473   29.8742 N   0  0  0  0  0  0  0  0  0  0  0  0
    9.6972  -16.4651   29.4075 C   0  0  0  0  0  0  0  0  0  0  0  0
    9.9232  -15.1716   29.8349 C   0  0  0  0  0  0  0  0  0  0  0  0
    9.3482  -14.1180   29.1623 C   0  0  0  0  0  0  0  0  0  0  0  0
    8.5462  -14.3173   28.0644 C   0  0  0  0  0  0  0  0  0  0  0  0
    8.3145  -15.6058   27.6299 C   0  0  0  0  0  0  0  0  0  0  0  0
    8.8809  -16.6678   28.2910 C   0  0  0  0  0  0  0  0  0  0  0  0
    8.0892  -18.0175   24.8311 C   0  0  0  0  0  0  0  0  0  0  0  0
    6.8349  -18.0538   24.6550 O   0  0  0  0  0  0  0  0  0  0  0  0
    8.9233  -17.0888   24.1865 N   0  0  0  0  0  0  0  0  0  0  0  0
    8.2980  -15.9580   23.4843 C   0  0  1  0  0  0  0  0  0  0  0  0
    8.7372  -14.6929   24.1354 C   0  0  0  0  0  0  0  0  0  0  0  0
    7.8146  -14.2926   25.1990 C   0  0  0  0  0  0  0  0  0  0  0  0
    7.0150  -15.1146   25.9978 C   0  0  0  0  0  0  0  0  0  0  0  0
    6.3282  -14.3525   26.8562 N   0  0  0  0  0  0  0  0  0  0  0  0
    6.6413  -13.0389   26.6607 C   0  0  0  0  0  0  0  0  0  0  0  0
    6.2264  -11.8742   27.2694 C   0  0  0  0  0  0  0  0  0  0  0  0
    6.7404  -10.6541   26.8428 C   0  0  0  0  0  0  0  0  0  0  0  0
    7.6602  -10.6627   25.8087 C   0  0  0  0  0  0  0  0  0  0  0  0
    8.0915  -11.8133   25.1842 C   0  0  0  0  0  0  0  0  0  0  0  0
    7.5537  -13.0158   25.6402 C   0  0  0  0  0  0  0  0  0  0  0  0
    8.8119  -16.0360   22.0656 C   0  0  0  0  0  0  0  0  0  0  0  0
    9.7843  -16.7592   21.7785 O   0  0  0  0  0  0  0  0  0  0  0  0
    6.3228  -14.8520   14.6815 N   0  0  0  0  0  0  0  0  0  0  0  0
    7.4691  -14.0531   14.4472 C   0  0  0  0  0  0  0  0  0  0  0  0
    8.1935  -14.2380   13.4370 N   0  0  0  0  0  0  0  0  0  0  0  0
    7.8238  -13.0193   15.3648 N   0  0  0  0  0  0  0  0  0  0  0  0
    7.6063  -13.0671   16.7794 C   0  0  0  0  0  0  0  0  0  0  0  0
    8.2638  -14.2714   17.4254 C   0  0  0  0  0  0  0  0  0  0  0  0
    8.0173  -14.1942   18.9113 C   0  0  0  0  0  0  0  0  0  0  0  0
    8.6054  -15.3981   19.6323 C   0  0  2  0  0  0  0  0  0  0  0  0
    8.1870  -15.2808   21.0331 N   0  0  0  0  0  0  0  0  0  0  0  0
   10.0701  -15.3654   19.5451 C   0  0  0  0  0  0  0  0  0  0  0  0
   10.8053  -14.5815   20.3959 O   0  0  0  0  0  0  0  0  0  0  0  0
   10.6429  -16.0595   18.6778 O   0  0  0  0  0  0  0  0  0  0  0  0
  2  3  1  0
  2  1  1  1
  4  5  2  0
  4  3  1  0
  6  5  1  0
  7 12  2  0
  7  6  1  0
  8  7  1  0
  9 10  1  0
  9  8  2  0
 10 11  2  0
 11 12  1  0
 12  4  1  0
 13  2  1  0
 14 13  2  0
 15 13  1  0
 16 15  1  0
 16 17  1  1
 17 18  1  0
 18 26  1  0
 18 19  2  0
 19 20  1  0
 21 22  2  0
 21 20  1  0
 23 22  1  0
 24 23  2  0
 25 24  1  0
 25 26  2  0
 26 21  1  0
 27 28  2  0
 27 16  1  0
 30 32  1  0
 30 29  1  0
 31 30  2  0
 33 32  1  0
 34 35  1  0
 34 33  1  0
 36 35  1  6
 36 38  1  0
 36 37  1  0
 37 27  1  0
 38 39  1  0
 40 38  2  0
M  END
$$$$
