WWR.pdb
     RDKit          3D

 40 43  0  0  1  0  0  0  0  0999 V2000
    7.4166  -18.2575   24.0851 N   0  0  0  0  0  0  0  0  0  0  0  0
    7.4072  -17.2841   23.0084 C   0  0  1  0  0  0  0  0  0  0  0  0
    6.4391  -16.1958   23.1099 C   0  0  0  0  0  0  0  0  0  0  0  0
    6.2524  -15.5083   24.3846 C   0  0  0  0  0  0  0  0  0  0  0  0
    5.7674  -16.2182   25.5055 C   0  0  0  0  0  0  0  0  0  0  0  0
    5.6867  -15.3859   26.5448 N   0  0  0  0  0  0  0  0  0  0  0  0
    6.0962  -14.1722   26.1502 C   0  0  0  0  0  0  0  0  0  0  0  0
    6.2020  -12.9722   26.8252 C   0  0  0  0  0  0  0  0  0  0  0  0
    6.6568  -11.8536   26.1657 C   0  0  0  0  0  0  0  0  0  0  0  0
    7.0136  -11.8959   24.8394 C   0  0  0  0  0  0  0  0  0  0  0  0
    6.9113  -13.0900   24.1566 C   0  0  0  0  0  0  0  0  0  0  0  0
    6.4585  -14.2151   24.8009 C   0  0  0  0  0  0  0  0  0  0  0  0
    8.8153  -16.7200   23.0458 C   0  0  0  0  0  0  0  0  0  0  0  0
    9.1115  -15.7642   22.2685 O   0  0  0  0  0  0  0  0  0  0  0  0
    9.7364  -17.2879   23.9418 N   0  0  0  0  0  0  0  0  0  0  0  0
   11.0996  -16.7377   23.9842 C   0  0  1  0  0  0  0  0  0  0  0  0
   11.7796  -17.2466   25.2073 C   0  0  0  0  0  0  0  0  0  0  0  0
   11.0297  -16.9022   26.4163 C   0  0  0  0  0  0  0  0  0  0  0  0
   10.3352  -17.7623   27.2713 C   0  0  0  0  0  0  0  0  0  0  0  0
    9.7974  -17.0470   28.2655 N   0  0  0  0  0  0  0  0  0  0  0  0
   10.1091  -15.7281   28.1071 C   0  0  0  0  0  0  0  0  0  0  0  0
    9.8134  -14.5989   28.8397 C   0  0  0  0  0  0  0  0  0  0  0  0
   10.2883  -13.3614   28.4182 C   0  0  0  0  0  0  0  0  0  0  0  0
   11.0486  -13.3168   27.2626 C   0  0  0  0  0  0  0  0  0  0  0  0
   11.3587  -14.4311   26.5129 C   0  0  0  0  0  0  0  0  0  0  0  0
   10.8647  -15.6527   26.9680 C   0  0  0  0  0  0  0  0  0  0  0  0
   11.7787  -17.2581   22.7388 C   0  0  0  0  0  0  0  0  0  0  0  0
   12.0716  -18.4636   22.6286 O   0  0  0  0  0  0  0  0  0  0  0  0
    7.0034  -13.5064   18.5509 N   0  0  0  0  0  0  0  0  0  0  0  0
    8.4193  -13.4916   18.5974 C   0  0  0  0  0  0  0  0  0  0  0  0
    9.0400  -12.5647   19.1758 N   0  0  0  0  0  0  0  0  0  0  0  0
    9.1690  -14.5369   17.9793 N   0  0  0  0  0  0  0  0  0  0  0  0
   10.5757  -14.7475   18.1461 C   0  0  0  0  0  0  0  0  0  0  0  0
   10.8888  -15.6677   19.3102 C   0  0  0  0  0  0  0  0  0  0  0  0
   12.3820  -15.8761   19.3492 C   0  0  0  0  0  0  0  0  0  0  0  0
   12.7766  -16.8398   20.4585 C   0  0  2  0  0  0  0  0  0  0  0  0
   12.0926  -16.3728   21.6690 N   0  0  0  0  0  0  0  0  0  0  0  0
   14.2299  -16.7999   20.6604 C   0  0  0  0  0  0  0  0  0  0  0  0
   15.0812  -17.3414   19.7326 O   0  0  0  0  0  0  0  0  0  0  0  0
   14.6851  -16.2691   21.6962 O   0  0  0  0  0  0  0  0  0  0  0  0
  2  3  1  0
  2  1  1  1
  4  5  2  0
  4  3  1  0
  6  5  1  0
  7 12  2  0
  7  6  1  0
  8  7  1  0
  9 10  1  0
  9  8  2  0
 10 11  2  0
 11 12  1  0
 12  4  1  0
 13  2  1  0
 14 13  2  0
 15 13  1  0
 16 15  1  0
 16 17  1  1
 17 18  1  0
 18 26  1  0
 18 19  2  0
 19 20  1  0
 21 22  2  0
 21 20  1  0
 23 22  1  0
 24 23  2  0
 25 24  1  0
 25 26  2  0
 26 21  1  0
 27 28  2  0
 27 16  1  0
 30 32  1  0
 30 29  1  0
 31 30  2  0
 33 32  1  0
 34 35  1  0
 34 33  1  0
 36 35  1  6
 36 38  1  0
 36 37  1  0
 37 27  1  0
 38 39  1  0
 40 38  2  0
M  END
$$$$
