WWR.pdb
     RDKit          3D

 40 43  0  0  1  0  0  0  0  0999 V2000
    7.8188  -18.4663   22.4031 N   0  0  0  0  0  0  0  0  0  0  0  0
    9.0962  -17.8896   22.0256 C   0  0  1  0  0  0  0  0  0  0  0  0
    9.0925  -16.9495   20.9083 C   0  0  0  0  0  0  0  0  0  0  0  0
    8.0930  -15.8861   20.8592 C   0  0  0  0  0  0  0  0  0  0  0  0
    6.7210  -16.2003   20.9794 C   0  0  0  0  0  0  0  0  0  0  0  0
    6.0100  -15.0738   20.9103 N   0  0  0  0  0  0  0  0  0  0  0  0
    6.8559  -14.0463   20.7512 C   0  0  0  0  0  0  0  0  0  0  0  0
    6.6404  -12.6885   20.6218 C   0  0  0  0  0  0  0  0  0  0  0  0
    7.7100  -11.8378   20.4625 C   0  0  0  0  0  0  0  0  0  0  0  0
    9.0018  -12.3050   20.4283 C   0  0  0  0  0  0  0  0  0  0  0  0
    9.2271  -13.6598   20.5566 C   0  0  0  0  0  0  0  0  0  0  0  0
    8.1699  -14.5217   20.7158 C   0  0  0  0  0  0  0  0  0  0  0  0
    9.5364  -17.1772   23.2908 C   0  0  0  0  0  0  0  0  0  0  0  0
   10.4871  -16.3422   23.2227 O   0  0  0  0  0  0  0  0  0  0  0  0
    8.8709  -17.4790   24.4907 N   0  0  0  0  0  0  0  0  0  0  0  0
    9.4355  -16.9699   25.7496 C   0  0  1  0  0  0  0  0  0  0  0  0
    8.3150  -16.5826   26.6507 C   0  0  0  0  0  0  0  0  0  0  0  0
    7.4742  -15.5504   26.0422 C   0  0  0  0  0  0  0  0  0  0  0  0
    6.2998  -15.7227   25.3046 C   0  0  0  0  0  0  0  0  0  0  0  0
    5.8353  -14.5228   24.9389 N   0  0  0  0  0  0  0  0  0  0  0  0
    6.6622  -13.5443   25.4087 C   0  0  0  0  0  0  0  0  0  0  0  0
    6.6363  -12.1694   25.3178 C   0  0  0  0  0  0  0  0  0  0  0  0
    7.6426  -11.4211   25.9193 C   0  0  0  0  0  0  0  0  0  0  0  0
    8.6427  -12.1003   26.5931 C   0  0  0  0  0  0  0  0  0  0  0  0
    8.6909  -13.4737   26.6989 C   0  0  0  0  0  0  0  0  0  0  0  0
    7.6646  -14.1884   26.0832 C   0  0  0  0  0  0  0  0  0  0  0  0
   10.2160  -18.1249   26.3326 C   0  0  0  0  0  0  0  0  0  0  0  0
    9.6300  -19.0880   26.8617 O   0  0  0  0  0  0  0  0  0  0  0  0
   17.8947  -17.8074   23.6266 N   0  0  0  0  0  0  0  0  0  0  0  0
   16.7992  -16.9718   23.9567 C   0  0  0  0  0  0  0  0  0  0  0  0
   16.8736  -15.7238   23.8299 N   0  0  0  0  0  0  0  0  0  0  0  0
   15.5847  -17.5398   24.4458 N   0  0  0  0  0  0  0  0  0  0  0  0
   15.3033  -18.9423   24.5137 C   0  0  0  0  0  0  0  0  0  0  0  0
   13.8921  -19.2267   24.9907 C   0  0  0  0  0  0  0  0  0  0  0  0
   13.8523  -19.0064   26.4821 C   0  0  0  0  0  0  0  0  0  0  0  0
   12.4331  -19.1165   27.0194 C   0  0  2  0  0  0  0  0  0  0  0  0
   11.6388  -18.1277   26.2828 N   0  0  0  0  0  0  0  0  0  0  0  0
   12.4165  -18.8015   28.4528 C   0  0  0  0  0  0  0  0  0  0  0  0
   12.9655  -19.6637   29.3660 O   0  0  0  0  0  0  0  0  0  0  0  0
   11.8881  -17.7352   28.8345 O   0  0  0  0  0  0  0  0  0  0  0  0
  2  3  1  0
  2  1  1  1
  4  5  2  0
  4  3  1  0
  6  5  1  0
  7 12  2  0
  7  6  1  0
  8  7  1  0
  9 10  1  0
  9  8  2  0
 10 11  2  0
 11 12  1  0
 12  4  1  0
 13  2  1  0
 14 13  2  0
 15 13  1  0
 16 15  1  0
 16 17  1  1
 17 18  1  0
 18 26  1  0
 18 19  2  0
 19 20  1  0
 21 22  2  0
 21 20  1  0
 23 22  1  0
 24 23  2  0
 25 24  1  0
 25 26  2  0
 26 21  1  0
 27 28  2  0
 27 16  1  0
 30 32  1  0
 30 29  1  0
 31 30  2  0
 33 32  1  0
 34 35  1  0
 34 33  1  0
 36 35  1  6
 36 38  1  0
 36 37  1  0
 37 27  1  0
 38 39  1  0
 40 38  2  0
M  END
$$$$
