WWR.pdb
     RDKit          3D

 40 43  0  0  1  0  0  0  0  0999 V2000
    7.4452  -18.9070   20.9384 N   0  0  0  0  0  0  0  0  0  0  0  0
    8.0513  -17.7086   20.3876 C   0  0  1  0  0  0  0  0  0  0  0  0
    7.1862  -16.8304   19.6050 C   0  0  0  0  0  0  0  0  0  0  0  0
    7.6849  -15.5331   19.1571 C   0  0  0  0  0  0  0  0  0  0  0  0
    8.1094  -15.3628   17.8205 C   0  0  0  0  0  0  0  0  0  0  0  0
    8.5140  -14.1031   17.6507 N   0  0  0  0  0  0  0  0  0  0  0  0
    8.3714  -13.4505   18.8128 C   0  0  0  0  0  0  0  0  0  0  0  0
    8.6438  -12.1462   19.1752 C   0  0  0  0  0  0  0  0  0  0  0  0
    8.4031  -11.7294   20.4642 C   0  0  0  0  0  0  0  0  0  0  0  0
    7.8931  -12.5827   21.4128 C   0  0  0  0  0  0  0  0  0  0  0  0
    7.6178  -13.8876   21.0603 C   0  0  0  0  0  0  0  0  0  0  0  0
    7.8532  -14.3189   19.7779 C   0  0  0  0  0  0  0  0  0  0  0  0
    8.5406  -16.9751   21.6223 C   0  0  0  0  0  0  0  0  0  0  0  0
    9.4179  -16.0707   21.4882 O   0  0  0  0  0  0  0  0  0  0  0  0
    8.0009  -17.3353   22.8684 N   0  0  0  0  0  0  0  0  0  0  0  0
    8.4383  -16.5926   24.0600 C   0  0  1  0  0  0  0  0  0  0  0  0
    7.2322  -16.1270   24.7990 C   0  0  0  0  0  0  0  0  0  0  0  0
    7.5966  -15.2644   25.9240 C   0  0  0  0  0  0  0  0  0  0  0  0
    8.3053  -15.6099   27.0779 C   0  0  0  0  0  0  0  0  0  0  0  0
    8.4354  -14.5254   27.8501 N   0  0  0  0  0  0  0  0  0  0  0  0
    7.8352  -13.4566   27.2507 C   0  0  0  0  0  0  0  0  0  0  0  0
    7.6903  -12.1353   27.6146 C   0  0  0  0  0  0  0  0  0  0  0  0
    7.0139  -11.2598   26.7715 C   0  0  0  0  0  0  0  0  0  0  0  0
    6.5071  -11.7615   25.5854 C   0  0  0  0  0  0  0  0  0  0  0  0
    6.6392  -13.0778   25.1985 C   0  0  0  0  0  0  0  0  0  0  0  0
    7.3235  -13.9239   26.0699 C   0  0  0  0  0  0  0  0  0  0  0  0
    9.2204  -17.5878   24.8854 C   0  0  0  0  0  0  0  0  0  0  0  0
    8.6390  -18.4956   25.5089 O   0  0  0  0  0  0  0  0  0  0  0  0
   15.8669  -17.8566   20.8339 N   0  0  0  0  0  0  0  0  0  0  0  0
   14.7258  -18.6186   20.4810 C   0  0  0  0  0  0  0  0  0  0  0  0
   14.3966  -18.7753   19.2784 N   0  0  0  0  0  0  0  0  0  0  0  0
   13.9237  -19.2224   21.4952 N   0  0  0  0  0  0  0  0  0  0  0  0
   13.9774  -18.8941   22.8882 C   0  0  0  0  0  0  0  0  0  0  0  0
   12.5994  -18.8052   23.5151 C   0  0  0  0  0  0  0  0  0  0  0  0
   12.7760  -18.5710   24.9944 C   0  0  0  0  0  0  0  0  0  0  0  0
   11.4331  -18.4841   25.7044 C   0  0  2  0  0  0  0  0  0  0  0  0
   10.6394  -17.5008   24.9598 N   0  0  0  0  0  0  0  0  0  0  0  0
   11.6275  -18.0253   27.0850 C   0  0  0  0  0  0  0  0  0  0  0  0
   12.1883  -18.8504   28.0250 O   0  0  0  0  0  0  0  0  0  0  0  0
   11.2687  -16.8697   27.3975 O   0  0  0  0  0  0  0  0  0  0  0  0
  2  3  1  0
  2  1  1  1
  4  5  2  0
  4  3  1  0
  6  5  1  0
  7 12  2  0
  7  6  1  0
  8  7  1  0
  9 10  1  0
  9  8  2  0
 10 11  2  0
 11 12  1  0
 12  4  1  0
 13  2  1  0
 14 13  2  0
 15 13  1  0
 16 15  1  0
 16 17  1  1
 17 18  1  0
 18 26  1  0
 18 19  2  0
 19 20  1  0
 21 22  2  0
 21 20  1  0
 23 22  1  0
 24 23  2  0
 25 24  1  0
 25 26  2  0
 26 21  1  0
 27 28  2  0
 27 16  1  0
 30 32  1  0
 30 29  1  0
 31 30  2  0
 33 32  1  0
 34 35  1  0
 34 33  1  0
 36 35  1  6
 36 38  1  0
 36 37  1  0
 37 27  1  0
 38 39  1  0
 40 38  2  0
M  END
$$$$
