WWR.pdb
     RDKit          3D

 40 43  0  0  1  0  0  0  0  0999 V2000
    7.0748  -18.5851   22.6405 N   0  0  0  0  0  0  0  0  0  0  0  0
    7.6084  -17.5041   21.8320 C   0  0  1  0  0  0  0  0  0  0  0  0
    6.6413  -16.5996   21.2167 C   0  0  0  0  0  0  0  0  0  0  0  0
    7.1052  -15.5387   20.3270 C   0  0  0  0  0  0  0  0  0  0  0  0
    7.3485  -15.8166   18.9634 C   0  0  0  0  0  0  0  0  0  0  0  0
    7.7560  -14.6996   18.3587 N   0  0  0  0  0  0  0  0  0  0  0  0
    7.7878  -13.7128   19.2653 C   0  0  0  0  0  0  0  0  0  0  0  0
    8.1376  -12.3809   19.1638 C   0  0  0  0  0  0  0  0  0  0  0  0
    8.0838  -11.5723   20.2757 C   0  0  0  0  0  0  0  0  0  0  0  0
    7.6870  -12.0567   21.4988 C   0  0  0  0  0  0  0  0  0  0  0  0
    7.3357  -13.3859   21.6103 C   0  0  0  0  0  0  0  0  0  0  0  0
    7.3848  -14.2058   20.5096 C   0  0  0  0  0  0  0  0  0  0  0  0
    8.4716  -16.7362   22.8156 C   0  0  0  0  0  0  0  0  0  0  0  0
    9.0366  -15.6696   22.4298 O   0  0  0  0  0  0  0  0  0  0  0  0
    8.6123  -17.2460   24.1172 N   0  0  0  0  0  0  0  0  0  0  0  0
    9.6134  -16.6328   25.0030 C   0  0  1  0  0  0  0  0  0  0  0  0
    8.9972  -16.4218   26.3421 C   0  0  0  0  0  0  0  0  0  0  0  0
    7.8397  -15.5294   26.2616 C   0  0  0  0  0  0  0  0  0  0  0  0
    6.5061  -15.8709   26.0210 C   0  0  0  0  0  0  0  0  0  0  0  0
    5.7620  -14.7595   26.0395 N   0  0  0  0  0  0  0  0  0  0  0  0
    6.5547  -13.6766   26.2863 C   0  0  0  0  0  0  0  0  0  0  0  0
    6.2920  -12.3294   26.4098 C   0  0  0  0  0  0  0  0  0  0  0  0
    7.3339  -11.4467   26.6740 C   0  0  0  0  0  0  0  0  0  0  0  0
    8.6097  -11.9676   26.8025 C   0  0  0  0  0  0  0  0  0  0  0  0
    8.8983  -13.3102   26.6841 C   0  0  0  0  0  0  0  0  0  0  0  0
    7.8276  -14.1627   26.4195 C   0  0  0  0  0  0  0  0  0  0  0  0
   10.7409  -17.6352   25.0848 C   0  0  0  0  0  0  0  0  0  0  0  0
   10.5807  -18.7299   25.6566 O   0  0  0  0  0  0  0  0  0  0  0  0
   14.9692  -17.0398   18.8287 N   0  0  0  0  0  0  0  0  0  0  0  0
   15.4324  -18.2778   19.3388 C   0  0  0  0  0  0  0  0  0  0  0  0
   16.5472  -18.7450   18.9951 N   0  0  0  0  0  0  0  0  0  0  0  0
   14.6311  -19.0214   20.2562 N   0  0  0  0  0  0  0  0  0  0  0  0
   13.3538  -18.6067   20.7537 C   0  0  0  0  0  0  0  0  0  0  0  0
   13.4539  -17.9157   22.0999 C   0  0  0  0  0  0  0  0  0  0  0  0
   13.1768  -18.9412   23.1705 C   0  0  0  0  0  0  0  0  0  0  0  0
   13.1162  -18.2991   24.5485 C   0  0  2  0  0  0  0  0  0  0  0  0
   12.0072  -17.3402   24.5049 N   0  0  0  0  0  0  0  0  0  0  0  0
   14.3736  -17.5947   24.8263 C   0  0  0  0  0  0  0  0  0  0  0  0
   15.5185  -18.2916   25.1129 O   0  0  0  0  0  0  0  0  0  0  0  0
   14.3877  -16.3451   24.8044 O   0  0  0  0  0  0  0  0  0  0  0  0
  2  3  1  0
  2  1  1  1
  4  5  2  0
  4  3  1  0
  6  5  1  0
  7 12  2  0
  7  6  1  0
  8  7  1  0
  9 10  1  0
  9  8  2  0
 10 11  2  0
 11 12  1  0
 12  4  1  0
 13  2  1  0
 14 13  2  0
 15 13  1  0
 16 15  1  0
 16 17  1  1
 17 18  1  0
 18 26  1  0
 18 19  2  0
 19 20  1  0
 21 22  2  0
 21 20  1  0
 23 22  1  0
 24 23  2  0
 25 24  1  0
 25 26  2  0
 26 21  1  0
 27 28  2  0
 27 16  1  0
 30 32  1  0
 30 29  1  0
 31 30  2  0
 33 32  1  0
 34 35  1  0
 34 33  1  0
 36 35  1  6
 36 38  1  0
 36 37  1  0
 37 27  1  0
 38 39  1  0
 40 38  2  0
M  END
$$$$
