WWR.pdb
     RDKit          3D

 40 43  0  0  1  0  0  0  0  0999 V2000
    7.1288  -19.4044   25.1136 N   0  0  0  0  0  0  0  0  0  0  0  0
    6.9844  -17.9699   25.2819 C   0  0  1  0  0  0  0  0  0  0  0  0
    7.6170  -17.3753   26.4559 C   0  0  0  0  0  0  0  0  0  0  0  0
    7.5010  -15.9390   26.6925 C   0  0  0  0  0  0  0  0  0  0  0  0
    6.3438  -15.2454   26.2736 C   0  0  0  0  0  0  0  0  0  0  0  0
    6.4668  -13.9582   26.6010 N   0  0  0  0  0  0  0  0  0  0  0  0
    7.6476  -13.7858   27.2114 C   0  0  0  0  0  0  0  0  0  0  0  0
    8.2572  -12.6634   27.7360 C   0  0  0  0  0  0  0  0  0  0  0  0
    9.5009  -12.7673   28.3152 C   0  0  0  0  0  0  0  0  0  0  0  0
   10.1621  -13.9696   28.3883 C   0  0  0  0  0  0  0  0  0  0  0  0
    9.5613  -15.0966   27.8671 C   0  0  0  0  0  0  0  0  0  0  0  0
    8.3204  -15.0089   27.2853 C   0  0  0  0  0  0  0  0  0  0  0  0
    7.6202  -17.4126   24.0220 C   0  0  0  0  0  0  0  0  0  0  0  0
    8.5180  -18.0907   23.4392 O   0  0  0  0  0  0  0  0  0  0  0  0
    7.1875  -16.1598   23.5561 N   0  0  0  0  0  0  0  0  0  0  0  0
    7.7974  -15.6217   22.3308 C   0  0  1  0  0  0  0  0  0  0  0  0
    7.3010  -14.2332   22.1231 C   0  0  0  0  0  0  0  0  0  0  0  0
    7.7307  -13.7016   20.8287 C   0  0  0  0  0  0  0  0  0  0  0  0
    7.4447  -12.4506   20.2754 C   0  0  0  0  0  0  0  0  0  0  0  0
    8.0384  -12.3570   19.0804 N   0  0  0  0  0  0  0  0  0  0  0  0
    8.7180  -13.5091   18.8105 C   0  0  0  0  0  0  0  0  0  0  0  0
    9.4845  -13.9184   17.7408 C   0  0  0  0  0  0  0  0  0  0  0  0
   10.0678  -15.1810   17.7556 C   0  0  0  0  0  0  0  0  0  0  0  0
    9.8491  -15.9847   18.8609 C   0  0  0  0  0  0  0  0  0  0  0  0
    9.0876  -15.5986   19.9430 C   0  0  0  0  0  0  0  0  0  0  0  0
    8.5202  -14.3263   19.8910 C   0  0  0  0  0  0  0  0  0  0  0  0
    9.2857  -15.6243   22.5917 C   0  0  0  0  0  0  0  0  0  0  0  0
    9.7625  -15.0191   23.5701 O   0  0  0  0  0  0  0  0  0  0  0  0
   11.6660  -20.5694   25.5894 N   0  0  0  0  0  0  0  0  0  0  0  0
   10.5319  -20.8864   24.8017 C   0  0  0  0  0  0  0  0  0  0  0  0
    9.5233  -21.4384   25.3089 N   0  0  0  0  0  0  0  0  0  0  0  0
   10.5189  -20.5841   23.4070 N   0  0  0  0  0  0  0  0  0  0  0  0
   11.5987  -19.9766   22.6887 C   0  0  0  0  0  0  0  0  0  0  0  0
   11.7955  -18.5202   23.0630 C   0  0  0  0  0  0  0  0  0  0  0  0
   12.0822  -17.7500   21.7984 C   0  0  0  0  0  0  0  0  0  0  0  0
   11.6198  -16.3051   21.9145 C   0  0  2  0  0  0  0  0  0  0  0  0
   10.1664  -16.3235   21.7186 N   0  0  0  0  0  0  0  0  0  0  0  0
   12.2535  -15.4930   20.8689 C   0  0  0  0  0  0  0  0  0  0  0  0
   11.5135  -14.9796   19.8357 O   0  0  0  0  0  0  0  0  0  0  0  0
   13.4833  -15.2784   20.9280 O   0  0  0  0  0  0  0  0  0  0  0  0
  2  3  1  0
  2  1  1  1
  4  5  2  0
  4  3  1  0
  6  5  1  0
  7 12  2  0
  7  6  1  0
  8  7  1  0
  9 10  1  0
  9  8  2  0
 10 11  2  0
 11 12  1  0
 12  4  1  0
 13  2  1  0
 14 13  2  0
 15 13  1  0
 16 15  1  0
 16 17  1  1
 17 18  1  0
 18 26  1  0
 18 19  2  0
 19 20  1  0
 21 22  2  0
 21 20  1  0
 23 22  1  0
 24 23  2  0
 25 24  1  0
 25 26  2  0
 26 21  1  0
 27 28  2  0
 27 16  1  0
 30 32  1  0
 30 29  1  0
 31 30  2  0
 33 32  1  0
 34 35  1  0
 34 33  1  0
 36 35  1  6
 36 38  1  0
 36 37  1  0
 37 27  1  0
 38 39  1  0
 40 38  2  0
M  END
$$$$
