LPQ.pdb
     RDKit          3D

 25 25  0  0  1  0  0  0  0  0999 V2000
    8.0027  -12.8861   26.8598 C   0  0  0  0  0  0  0  0  0  0  0  0
    7.0260  -13.4721   25.8355 C   0  0  2  0  0  0  0  0  0  0  0  0
    5.9310  -12.4735   25.6409 C   0  0  0  0  0  0  0  0  0  0  0  0
    6.5739  -14.7878   26.3841 C   0  0  0  0  0  0  0  0  0  0  0  0
    6.0645  -15.7197   25.2896 C   0  0  2  0  0  0  0  0  0  0  0  0
    5.6531  -16.9933   25.9185 N   0  0  0  0  0  0  0  0  0  0  0  0
    7.2073  -16.0180   24.4032 C   0  0  0  0  0  0  0  0  0  0  0  0
    7.8695  -17.0751   24.6928 O   0  0  0  0  0  0  0  0  0  0  0  0
    7.6248  -15.2676   23.2954 N   0  0  0  0  0  0  0  0  0  0  0  0
    7.2300  -13.9185   23.0189 C   0  0  0  0  0  0  0  0  0  0  0  0
    6.9388  -14.0090   21.5115 C   0  0  0  0  0  0  0  0  0  0  0  0
    7.9088  -15.0590   21.0270 C   0  0  0  0  0  0  0  0  0  0  0  0
    8.5208  -15.6676   22.2675 C   0  0  1  0  0  0  0  0  0  0  0  0
    9.9205  -15.1955   22.4944 C   0  0  0  0  0  0  0  0  0  0  0  0
   10.0670  -14.0059   22.8744 O   0  0  0  0  0  0  0  0  0  0  0  0
   10.2093  -19.2399   26.2481 N   0  0  0  0  0  0  0  0  0  0  0  0
   11.0247  -18.1455   26.6243 C   0  0  0  0  0  0  0  0  0  0  0  0
   10.9388  -17.7021   27.7890 O   0  0  0  0  0  0  0  0  0  0  0  0
   11.9505  -17.5634   25.6275 C   0  0  0  0  0  0  0  0  0  0  0  0
   11.1351  -16.9914   24.5092 C   0  0  0  0  0  0  0  0  0  0  0  0
   11.9439  -16.3999   23.3939 C   0  0  2  0  0  0  0  0  0  0  0  0
   11.0766  -15.9663   22.3181 N   0  0  0  0  0  0  0  0  0  0  0  0
   13.0642  -17.2159   22.9565 C   0  0  0  0  0  0  0  0  0  0  0  0
   12.8673  -18.4666   22.4251 O   0  0  0  0  0  0  0  0  0  0  0  0
   14.2285  -16.7897   23.0580 O   0  0  0  0  0  0  0  0  0  0  0  0
  2  1  1  1
  2  4  1  0
  3  2  1  0
  4  5  1  0
  5  6  1  1
  7  5  1  0
  7  8  2  0
  9  7  1  0
 10  9  1  0
 11 12  1  0
 11 10  1  0
 12 13  1  0
 13 14  1  1
 13  9  1  0
 14 15  2  0
 16 17  1  0
 17 19  1  0
 18 17  2  0
 19 20  1  0
 21 20  1  1
 21 23  1  0
 22 14  1  0
 22 21  1  0
 23 25  2  0
 23 24  1  0
M  END
$$$$
