LPQ.pdb
     RDKit          3D

 25 25  0  0  1  0  0  0  0  0999 V2000
    5.4428  -12.5938   26.3104 C   0  0  0  0  0  0  0  0  0  0  0  0
    6.5884  -13.3410   27.0001 C   0  0  2  0  0  0  0  0  0  0  0  0
    7.4189  -12.3237   27.7140 C   0  0  0  0  0  0  0  0  0  0  0  0
    7.3134  -14.0900   25.9277 C   0  0  0  0  0  0  0  0  0  0  0  0
    6.4223  -15.1264   25.2510 C   0  0  2  0  0  0  0  0  0  0  0  0
    6.0873  -16.1698   26.2439 N   0  0  0  0  0  0  0  0  0  0  0  0
    7.2270  -15.7703   24.1934 C   0  0  0  0  0  0  0  0  0  0  0  0
    7.4147  -17.0294   24.3320 O   0  0  0  0  0  0  0  0  0  0  0  0
    7.7913  -15.1441   23.0736 N   0  0  0  0  0  0  0  0  0  0  0  0
    7.7659  -13.7347   22.8185 C   0  0  0  0  0  0  0  0  0  0  0  0
    7.4067  -13.7210   21.3232 C   0  0  0  0  0  0  0  0  0  0  0  0
    8.0387  -14.9865   20.7967 C   0  0  0  0  0  0  0  0  0  0  0  0
    8.5080  -15.7559   22.0098 C   0  0  1  0  0  0  0  0  0  0  0  0
    9.9905  -15.6825   22.1842 C   0  0  0  0  0  0  0  0  0  0  0  0
   10.4661  -14.5840   22.5692 O   0  0  0  0  0  0  0  0  0  0  0  0
   11.9788  -18.2354   27.4946 N   0  0  0  0  0  0  0  0  0  0  0  0
   11.0965  -18.2493   26.3876 C   0  0  0  0  0  0  0  0  0  0  0  0
    9.9232  -17.8514   26.5469 O   0  0  0  0  0  0  0  0  0  0  0  0
   11.5920  -18.7339   25.0802 C   0  0  0  0  0  0  0  0  0  0  0  0
   10.8368  -18.0222   24.0004 C   0  0  0  0  0  0  0  0  0  0  0  0
   11.7044  -17.3518   22.9778 C   0  0  2  0  0  0  0  0  0  0  0  0
   10.8887  -16.7321   21.9538 N   0  0  0  0  0  0  0  0  0  0  0  0
   12.7790  -18.1793   22.4558 C   0  0  0  0  0  0  0  0  0  0  0  0
   12.7779  -18.6048   21.1503 O   0  0  0  0  0  0  0  0  0  0  0  0
   13.7241  -18.5176   23.1906 O   0  0  0  0  0  0  0  0  0  0  0  0
  2  1  1  6
  2  4  1  0
  3  2  1  0
  4  5  1  0
  5  6  1  1
  7  5  1  0
  7  8  2  0
  9  7  1  0
 10  9  1  0
 11 12  1  0
 11 10  1  0
 12 13  1  0
 13 14  1  1
 13  9  1  0
 14 15  2  0
 16 17  1  0
 17 19  1  0
 18 17  2  0
 19 20  1  0
 21 20  1  1
 21 23  1  0
 22 14  1  0
 22 21  1  0
 23 25  2  0
 23 24  1  0
M  END
$$$$
