LPQ.pdb
     RDKit          3D

 25 25  0  0  1  0  0  0  0  0999 V2000
    5.5896  -12.2076   26.0864 C   0  0  0  0  0  0  0  0  0  0  0  0
    6.6621  -13.0130   26.8265 C   0  0  2  0  0  0  0  0  0  0  0  0
    7.5288  -12.0375   27.5557 C   0  0  0  0  0  0  0  0  0  0  0  0
    7.3760  -13.8218   25.7909 C   0  0  0  0  0  0  0  0  0  0  0  0
    6.4828  -14.9046   25.1944 C   0  0  2  0  0  0  0  0  0  0  0  0
    6.0718  -15.8186   26.2819 N   0  0  0  0  0  0  0  0  0  0  0  0
    7.3119  -15.6864   24.2552 C   0  0  0  0  0  0  0  0  0  0  0  0
    7.4784  -16.9189   24.5600 O   0  0  0  0  0  0  0  0  0  0  0  0
    7.9196  -15.2143   23.0837 N   0  0  0  0  0  0  0  0  0  0  0  0
    7.8101  -13.8775   22.5805 C   0  0  0  0  0  0  0  0  0  0  0  0
    7.5776  -14.1528   21.0854 C   0  0  0  0  0  0  0  0  0  0  0  0
    8.3446  -15.4289   20.8380 C   0  0  0  0  0  0  0  0  0  0  0  0
    8.7669  -15.9338   22.1983 C   0  0  1  0  0  0  0  0  0  0  0  0
   10.2198  -15.7004   22.4593 C   0  0  0  0  0  0  0  0  0  0  0  0
   10.6833  -14.5757   22.1412 O   0  0  0  0  0  0  0  0  0  0  0  0
   11.3853  -14.5462   28.7038 N   0  0  0  0  0  0  0  0  0  0  0  0
   10.8110  -15.2446   27.6145 C   0  0  0  0  0  0  0  0  0  0  0  0
    9.5733  -15.1956   27.4523 O   0  0  0  0  0  0  0  0  0  0  0  0
   11.6937  -16.0085   26.7053 C   0  0  0  0  0  0  0  0  0  0  0  0
   10.9783  -16.1913   25.4023 C   0  0  0  0  0  0  0  0  0  0  0  0
   11.8824  -16.3919   24.2233 C   0  0  2  0  0  0  0  0  0  0  0  0
   11.1029  -16.6283   23.0257 N   0  0  0  0  0  0  0  0  0  0  0  0
   12.9496  -17.3558   24.4328 C   0  0  0  0  0  0  0  0  0  0  0  0
   12.9729  -18.5488   23.7533 O   0  0  0  0  0  0  0  0  0  0  0  0
   13.8660  -17.1125   25.2381 O   0  0  0  0  0  0  0  0  0  0  0  0
  2  1  1  6
  2  4  1  0
  3  2  1  0
  4  5  1  0
  5  6  1  1
  7  5  1  0
  7  8  2  0
  9  7  1  0
 10  9  1  0
 11 12  1  0
 11 10  1  0
 12 13  1  0
 13 14  1  1
 13  9  1  0
 14 15  2  0
 16 17  1  0
 17 19  1  0
 18 17  2  0
 19 20  1  0
 21 20  1  1
 21 23  1  0
 22 14  1  0
 22 21  1  0
 23 25  2  0
 23 24  1  0
M  END
$$$$
