LPQ.pdb
     RDKit          3D

 25 25  0  0  1  0  0  0  0  0999 V2000
    5.7407  -14.6020   20.0397 C   0  0  0  0  0  0  0  0  0  0  0  0
    6.8223  -15.6360   20.3674 C   0  0  2  0  0  0  0  0  0  0  0  0
    6.2217  -16.9897   20.1645 C   0  0  0  0  0  0  0  0  0  0  0  0
    7.2644  -15.3586   21.7689 C   0  0  0  0  0  0  0  0  0  0  0  0
    7.9411  -13.9978   21.8967 C   0  0  2  0  0  0  0  0  0  0  0  0
    9.0242  -13.9218   20.8927 N   0  0  0  0  0  0  0  0  0  0  0  0
    8.5752  -13.9489   23.2295 C   0  0  0  0  0  0  0  0  0  0  0  0
    9.8362  -14.1704   23.2494 O   0  0  0  0  0  0  0  0  0  0  0  0
    7.9378  -13.6859   24.4498 N   0  0  0  0  0  0  0  0  0  0  0  0
    6.5273  -13.5014   24.6189 C   0  0  0  0  0  0  0  0  0  0  0  0
    6.5087  -12.2853   25.5601 C   0  0  0  0  0  0  0  0  0  0  0  0
    7.7656  -12.4532   26.3788 C   0  0  0  0  0  0  0  0  0  0  0  0
    8.5373  -13.5812   25.7340 C   0  0  1  0  0  0  0  0  0  0  0  0
    8.4515  -14.8463   26.5251 C   0  0  0  0  0  0  0  0  0  0  0  0
    7.5142  -15.6347   26.2406 O   0  0  0  0  0  0  0  0  0  0  0  0
   10.7044  -14.9019   31.7252 N   0  0  0  0  0  0  0  0  0  0  0  0
   10.9538  -15.6591   30.5553 C   0  0  0  0  0  0  0  0  0  0  0  0
   10.8528  -16.9030   30.6094 O   0  0  0  0  0  0  0  0  0  0  0  0
   11.3254  -14.9538   29.3087 C   0  0  0  0  0  0  0  0  0  0  0  0
   11.5216  -15.9767   28.2327 C   0  0  0  0  0  0  0  0  0  0  0  0
   10.2800  -16.3077   27.4602 C   0  0  2  0  0  0  0  0  0  0  0  0
    9.3251  -15.2226   27.5530 N   0  0  0  0  0  0  0  0  0  0  0  0
    9.7163  -17.6161   27.7471 C   0  0  0  0  0  0  0  0  0  0  0  0
   10.4631  -18.7591   27.6003 O   0  0  0  0  0  0  0  0  0  0  0  0
    8.5384  -17.7212   28.1332 O   0  0  0  0  0  0  0  0  0  0  0  0
  2  1  1  1
  2  4  1  0
  3  2  1  0
  4  5  1  0
  5  6  1  6
  7  5  1  0
  7  8  2  0
  9  7  1  0
 10  9  1  0
 11 12  1  0
 11 10  1  0
 12 13  1  0
 13 14  1  1
 13  9  1  0
 14 15  2  0
 16 17  1  0
 17 19  1  0
 18 17  2  0
 19 20  1  0
 21 20  1  1
 21 23  1  0
 22 14  1  0
 22 21  1  0
 23 25  2  0
 23 24  1  0
M  END
$$$$
