LPQ.pdb
     RDKit          3D

 25 25  0  0  1  0  0  0  0  0999 V2000
    6.2767  -13.4647   27.4161 C   0  0  0  0  0  0  0  0  0  0  0  0
    7.2538  -13.5035   26.2370 C   0  0  2  0  0  0  0  0  0  0  0  0
    7.9957  -12.2058   26.2293 C   0  0  0  0  0  0  0  0  0  0  0  0
    6.4324  -13.7543   25.0127 C   0  0  0  0  0  0  0  0  0  0  0  0
    6.0758  -15.2288   24.8550 C   0  0  2  0  0  0  0  0  0  0  0  0
    6.1526  -15.8699   26.1854 N   0  0  0  0  0  0  0  0  0  0  0  0
    7.1209  -15.8431   24.0117 C   0  0  0  0  0  0  0  0  0  0  0  0
    7.5432  -16.9873   24.4018 O   0  0  0  0  0  0  0  0  0  0  0  0
    7.6807  -15.3016   22.8464 N   0  0  0  0  0  0  0  0  0  0  0  0
    7.4081  -13.9920   22.3337 C   0  0  0  0  0  0  0  0  0  0  0  0
    7.2357  -14.3009   20.8371 C   0  0  0  0  0  0  0  0  0  0  0  0
    8.1639  -15.4689   20.6084 C   0  0  0  0  0  0  0  0  0  0  0  0
    8.6268  -15.9099   21.9778 C   0  0  1  0  0  0  0  0  0  0  0  0
   10.0335  -15.4908   22.2586 C   0  0  0  0  0  0  0  0  0  0  0  0
   10.2036  -14.3303   22.7120 O   0  0  0  0  0  0  0  0  0  0  0  0
    9.8258  -18.5346   26.0910 N   0  0  0  0  0  0  0  0  0  0  0  0
   11.2021  -18.4022   26.3948 C   0  0  0  0  0  0  0  0  0  0  0  0
   11.6142  -18.7932   27.5073 O   0  0  0  0  0  0  0  0  0  0  0  0
   12.1062  -17.8060   25.3864 C   0  0  0  0  0  0  0  0  0  0  0  0
   11.2720  -17.3031   24.2488 C   0  0  0  0  0  0  0  0  0  0  0  0
   12.0602  -16.7215   23.1138 C   0  0  2  0  0  0  0  0  0  0  0  0
   11.1722  -16.2811   22.0578 N   0  0  0  0  0  0  0  0  0  0  0  0
   13.1618  -17.5493   22.6518 C   0  0  0  0  0  0  0  0  0  0  0  0
   12.9673  -18.5301   21.7107 O   0  0  0  0  0  0  0  0  0  0  0  0
   14.3074  -17.3803   23.1063 O   0  0  0  0  0  0  0  0  0  0  0  0
  2  1  1  1
  2  4  1  0
  3  2  1  0
  4  5  1  0
  5  6  1  1
  7  5  1  0
  7  8  2  0
  9  7  1  0
 10  9  1  0
 11 12  1  0
 11 10  1  0
 12 13  1  0
 13 14  1  1
 13  9  1  0
 14 15  2  0
 16 17  1  0
 17 19  1  0
 18 17  2  0
 19 20  1  0
 21 20  1  1
 21 23  1  0
 22 14  1  0
 22 21  1  0
 23 25  2  0
 23 24  1  0
M  END
$$$$
