LPQ.pdb
     RDKit          3D

 25 25  0  0  1  0  0  0  0  0999 V2000
    6.1001  -12.2087   26.2691 C   0  0  0  0  0  0  0  0  0  0  0  0
    7.1804  -13.1966   26.7202 C   0  0  2  0  0  0  0  0  0  0  0  0
    8.2361  -12.4106   27.4288 C   0  0  0  0  0  0  0  0  0  0  0  0
    7.6542  -13.8997   25.4883 C   0  0  0  0  0  0  0  0  0  0  0  0
    6.5366  -14.6886   24.8140 C   0  0  2  0  0  0  0  0  0  0  0  0
    6.1093  -15.7659   25.7325 N   0  0  0  0  0  0  0  0  0  0  0  0
    7.1174  -15.3355   23.6203 C   0  0  0  0  0  0  0  0  0  0  0  0
    7.0314  -16.6126   23.5876 O   0  0  0  0  0  0  0  0  0  0  0  0
    7.7399  -14.6939   22.5408 N   0  0  0  0  0  0  0  0  0  0  0  0
    8.2279  -13.3470   22.5537 C   0  0  0  0  0  0  0  0  0  0  0  0
    7.7244  -12.8473   21.1892 C   0  0  0  0  0  0  0  0  0  0  0  0
    7.7529  -14.0858   20.3271 C   0  0  0  0  0  0  0  0  0  0  0  0
    8.0326  -15.2399   21.2618 C   0  0  1  0  0  0  0  0  0  0  0  0
    9.4387  -15.7323   21.1433 C   0  0  0  0  0  0  0  0  0  0  0  0
    9.7934  -16.1822   20.0240 O   0  0  0  0  0  0  0  0  0  0  0  0
   13.3504  -14.2676   18.7706 N   0  0  0  0  0  0  0  0  0  0  0  0
   13.8703  -14.1419   20.0813 C   0  0  0  0  0  0  0  0  0  0  0  0
   15.0369  -13.7205   20.2291 O   0  0  0  0  0  0  0  0  0  0  0  0
   13.0165  -14.5130   21.2314 C   0  0  0  0  0  0  0  0  0  0  0  0
   12.5001  -15.9001   21.0029 C   0  0  0  0  0  0  0  0  0  0  0  0
   11.6540  -16.4365   22.1182 C   0  0  2  0  0  0  0  0  0  0  0  0
   10.3884  -15.7342   22.1727 N   0  0  0  0  0  0  0  0  0  0  0  0
   12.3301  -16.5348   23.4009 C   0  0  0  0  0  0  0  0  0  0  0  0
   13.5214  -17.2060   23.5264 O   0  0  0  0  0  0  0  0  0  0  0  0
   11.8351  -16.0080   24.4133 O   0  0  0  0  0  0  0  0  0  0  0  0
  2  1  1  6
  2  4  1  0
  3  2  1  0
  4  5  1  0
  5  6  1  1
  7  5  1  0
  7  8  2  0
  9  7  1  0
 10  9  1  0
 11 12  1  0
 11 10  1  0
 12 13  1  0
 13 14  1  1
 13  9  1  0
 14 15  2  0
 16 17  1  0
 17 19  1  0
 18 17  2  0
 19 20  1  0
 21 20  1  6
 21 23  1  0
 22 14  1  0
 22 21  1  0
 23 25  2  0
 23 24  1  0
M  END
$$$$
