LPQ.pdb
     RDKit          3D

 25 25  0  0  1  0  0  0  0  0999 V2000
    5.5634  -12.2314   25.9316 C   0  0  0  0  0  0  0  0  0  0  0  0
    6.6371  -12.9619   26.7441 C   0  0  2  0  0  0  0  0  0  0  0  0
    7.4706  -11.9212   27.4197 C   0  0  0  0  0  0  0  0  0  0  0  0
    7.3861  -13.8248   25.7793 C   0  0  0  0  0  0  0  0  0  0  0  0
    6.5255  -14.9639   25.2428 C   0  0  2  0  0  0  0  0  0  0  0  0
    6.1582  -15.8413   26.3750 N   0  0  0  0  0  0  0  0  0  0  0  0
    7.3719  -15.7582   24.3298 C   0  0  0  0  0  0  0  0  0  0  0  0
    7.5852  -16.9689   24.6879 O   0  0  0  0  0  0  0  0  0  0  0  0
    7.9500  -15.3190   23.1309 N   0  0  0  0  0  0  0  0  0  0  0  0
    7.8456  -13.9907   22.6046 C   0  0  0  0  0  0  0  0  0  0  0  0
    7.5624  -14.2915   21.1232 C   0  0  0  0  0  0  0  0  0  0  0  0
    8.3016  -15.5843   20.8779 C   0  0  0  0  0  0  0  0  0  0  0  0
    8.7582  -16.0692   22.2344 C   0  0  1  0  0  0  0  0  0  0  0  0
   10.2219  -15.8542   22.4458 C   0  0  0  0  0  0  0  0  0  0  0  0
   10.6751  -14.7118   22.1800 O   0  0  0  0  0  0  0  0  0  0  0  0
   10.9385  -16.0349   28.9349 N   0  0  0  0  0  0  0  0  0  0  0  0
   10.9748  -15.7301   27.5530 C   0  0  0  0  0  0  0  0  0  0  0  0
   10.3800  -14.7102   27.1448 O   0  0  0  0  0  0  0  0  0  0  0  0
   11.7147  -16.6278   26.6386 C   0  0  0  0  0  0  0  0  0  0  0  0
   10.9990  -16.6496   25.3232 C   0  0  0  0  0  0  0  0  0  0  0  0
   11.9031  -16.6897   24.1279 C   0  0  2  0  0  0  0  0  0  0  0  0
   11.1255  -16.8171   22.9126 N   0  0  0  0  0  0  0  0  0  0  0  0
   13.0013  -17.6362   24.2279 C   0  0  0  0  0  0  0  0  0  0  0  0
   12.7687  -18.9843   24.3464 O   0  0  0  0  0  0  0  0  0  0  0  0
   14.1789  -17.2357   24.2076 O   0  0  0  0  0  0  0  0  0  0  0  0
  2  1  1  6
  2  4  1  0
  3  2  1  0
  4  5  1  0
  5  6  1  1
  7  5  1  0
  7  8  2  0
  9  7  1  0
 10  9  1  0
 11 12  1  0
 11 10  1  0
 12 13  1  0
 13 14  1  1
 13  9  1  0
 14 15  2  0
 16 17  1  0
 17 19  1  0
 18 17  2  0
 19 20  1  0
 21 20  1  1
 21 23  1  0
 22 14  1  0
 22 21  1  0
 23 25  2  0
 23 24  1  0
M  END
$$$$
