LPQ.pdb
     RDKit          3D

 25 25  0  0  1  0  0  0  0  0999 V2000
    7.1899  -12.7408   19.6835 C   0  0  0  0  0  0  0  0  0  0  0  0
    7.2937  -14.1993   20.1401 C   0  0  2  0  0  0  0  0  0  0  0  0
    6.0959  -14.9192   19.6098 C   0  0  0  0  0  0  0  0  0  0  0  0
    7.3890  -14.1715   21.6323 C   0  0  0  0  0  0  0  0  0  0  0  0
    8.6334  -13.4321   22.1127 C   0  0  2  0  0  0  0  0  0  0  0  0
    9.7707  -13.8323   21.2564 N   0  0  0  0  0  0  0  0  0  0  0  0
    8.9249  -13.9096   23.4793 C   0  0  0  0  0  0  0  0  0  0  0  0
   10.0338  -14.5338   23.6213 O   0  0  0  0  0  0  0  0  0  0  0  0
    8.1173  -13.7445   24.6130 N   0  0  0  0  0  0  0  0  0  0  0  0
    6.7775  -13.2373   24.6026 C   0  0  0  0  0  0  0  0  0  0  0  0
    6.8259  -12.2772   25.8030 C   0  0  0  0  0  0  0  0  0  0  0  0
    7.8145  -12.9303   26.7379 C   0  0  0  0  0  0  0  0  0  0  0  0
    8.4405  -14.0642   25.9594 C   0  0  1  0  0  0  0  0  0  0  0  0
    7.9166  -15.3971   26.3866 C   0  0  0  0  0  0  0  0  0  0  0  0
    6.8111  -15.7562   25.9070 O   0  0  0  0  0  0  0  0  0  0  0  0
   12.8895  -17.6890   24.1308 N   0  0  0  0  0  0  0  0  0  0  0  0
   11.5178  -17.9364   24.3787 C   0  0  0  0  0  0  0  0  0  0  0  0
   10.7995  -18.3423   23.4408 O   0  0  0  0  0  0  0  0  0  0  0  0
   10.9806  -17.7066   25.7381 C   0  0  0  0  0  0  0  0  0  0  0  0
    9.4897  -17.8353   25.6803 C   0  0  0  0  0  0  0  0  0  0  0  0
    8.8033  -17.6746   27.0035 C   0  0  2  0  0  0  0  0  0  0  0  0
    8.5532  -16.2739   27.2740 N   0  0  0  0  0  0  0  0  0  0  0  0
    9.4316  -18.3854   28.1044 C   0  0  0  0  0  0  0  0  0  0  0  0
    9.4808  -19.7575   28.1282 O   0  0  0  0  0  0  0  0  0  0  0  0
    9.9384  -17.7558   29.0501 O   0  0  0  0  0  0  0  0  0  0  0  0
  2  1  1  1
  2  4  1  0
  3  2  1  0
  4  5  1  0
  5  6  1  6
  7  5  1  0
  7  8  2  0
  9  7  1  0
 10  9  1  0
 11 12  1  0
 11 10  1  0
 12 13  1  0
 13 14  1  1
 13  9  1  0
 14 15  2  0
 16 17  1  0
 17 19  1  0
 18 17  2  0
 19 20  1  0
 21 20  1  6
 21 23  1  0
 22 14  1  0
 22 21  1  0
 23 25  2  0
 23 24  1  0
M  END
$$$$
