LPQ.pdb
     RDKit          3D

 25 25  0  0  1  0  0  0  0  0999 V2000
    5.5316  -12.3024   26.0659 C   0  0  0  0  0  0  0  0  0  0  0  0
    6.7283  -12.9534   26.7664 C   0  0  2  0  0  0  0  0  0  0  0  0
    7.6106  -11.8519   27.2587 C   0  0  0  0  0  0  0  0  0  0  0  0
    7.3684  -13.8573   25.7615 C   0  0  0  0  0  0  0  0  0  0  0  0
    6.4255  -14.9663   25.3066 C   0  0  2  0  0  0  0  0  0  0  0  0
    6.1588  -15.8515   26.4608 N   0  0  0  0  0  0  0  0  0  0  0  0
    7.1478  -15.7674   24.2980 C   0  0  0  0  0  0  0  0  0  0  0  0
    7.2004  -17.0261   24.5271 O   0  0  0  0  0  0  0  0  0  0  0  0
    7.7671  -15.2876   23.1358 N   0  0  0  0  0  0  0  0  0  0  0  0
    7.8882  -13.9057   22.7779 C   0  0  0  0  0  0  0  0  0  0  0  0
    7.5221  -13.9636   21.2854 C   0  0  0  0  0  0  0  0  0  0  0  0
    8.0140  -15.3237   20.8537 C   0  0  0  0  0  0  0  0  0  0  0  0
    8.4082  -16.0475   22.1204 C   0  0  1  0  0  0  0  0  0  0  0  0
    9.8914  -16.1180   22.2902 C   0  0  0  0  0  0  0  0  0  0  0  0
   10.4907  -15.0380   22.5259 O   0  0  0  0  0  0  0  0  0  0  0  0
   11.4037  -20.2262   25.5750 N   0  0  0  0  0  0  0  0  0  0  0  0
   10.8830  -18.9565   25.9225 C   0  0  0  0  0  0  0  0  0  0  0  0
   10.2381  -18.8400   26.9860 O   0  0  0  0  0  0  0  0  0  0  0  0
   11.1191  -17.8107   25.0165 C   0  0  0  0  0  0  0  0  0  0  0  0
   12.0537  -18.2548   23.9338 C   0  0  0  0  0  0  0  0  0  0  0  0
   12.0208  -17.4029   22.7006 C   0  0  2  0  0  0  0  0  0  0  0  0
   10.6642  -17.2831   22.2075 N   0  0  0  0  0  0  0  0  0  0  0  0
   12.9890  -17.7713   21.6813 C   0  0  0  0  0  0  0  0  0  0  0  0
   14.3386  -17.6794   21.9171 O   0  0  0  0  0  0  0  0  0  0  0  0
   12.6060  -18.1787   20.5700 O   0  0  0  0  0  0  0  0  0  0  0  0
  2  1  1  6
  2  4  1  0
  3  2  1  0
  4  5  1  0
  5  6  1  1
  7  5  1  0
  7  8  2  0
  9  7  1  0
 10  9  1  0
 11 12  1  0
 11 10  1  0
 12 13  1  0
 13 14  1  1
 13  9  1  0
 14 15  2  0
 16 17  1  0
 17 19  1  0
 18 17  2  0
 19 20  1  0
 21 20  1  1
 21 23  1  0
 22 14  1  0
 22 21  1  0
 23 25  2  0
 23 24  1  0
M  END
$$$$
