LPQ.pdb
     RDKit          3D

 25 25  0  0  1  0  0  0  0  0999 V2000
    5.8990  -12.1135   26.2599 C   0  0  0  0  0  0  0  0  0  0  0  0
    6.9627  -13.0890   26.7729 C   0  0  2  0  0  0  0  0  0  0  0  0
    8.0062  -12.2822   27.4761 C   0  0  0  0  0  0  0  0  0  0  0  0
    7.4608  -13.8404   25.5797 C   0  0  0  0  0  0  0  0  0  0  0  0
    6.3962  -14.7667   25.0012 C   0  0  2  0  0  0  0  0  0  0  0  0
    6.0144  -15.7434   26.0439 N   0  0  0  0  0  0  0  0  0  0  0  0
    7.0269  -15.5240   23.9016 C   0  0  0  0  0  0  0  0  0  0  0  0
    6.9995  -16.7985   24.0222 O   0  0  0  0  0  0  0  0  0  0  0  0
    7.6387  -14.9879   22.7601 N   0  0  0  0  0  0  0  0  0  0  0  0
    7.7501  -13.5905   22.4652 C   0  0  0  0  0  0  0  0  0  0  0  0
    7.3786  -13.5827   20.9729 C   0  0  0  0  0  0  0  0  0  0  0  0
    7.8770  -14.9186   20.4779 C   0  0  0  0  0  0  0  0  0  0  0  0
    8.2805  -15.6969   21.7089 C   0  0  1  0  0  0  0  0  0  0  0  0
    9.7647  -15.7658   21.8700 C   0  0  0  0  0  0  0  0  0  0  0  0
   10.3534  -14.7032   22.1945 O   0  0  0  0  0  0  0  0  0  0  0  0
   10.1106  -20.1639   25.8262 N   0  0  0  0  0  0  0  0  0  0  0  0
   11.0314  -19.2182   25.3145 C   0  0  0  0  0  0  0  0  0  0  0  0
   11.9013  -18.7495   26.0787 O   0  0  0  0  0  0  0  0  0  0  0  0
   10.9338  -18.8165   23.8938 C   0  0  0  0  0  0  0  0  0  0  0  0
   11.7152  -17.5522   23.7099 C   0  0  0  0  0  0  0  0  0  0  0  0
   11.8545  -17.1132   22.2832 C   0  0  2  0  0  0  0  0  0  0  0  0
   10.5493  -16.9117   21.6886 N   0  0  0  0  0  0  0  0  0  0  0  0
   12.7490  -17.9303   21.4805 C   0  0  0  0  0  0  0  0  0  0  0  0
   14.0811  -18.0434   21.7937 O   0  0  0  0  0  0  0  0  0  0  0  0
   12.3173  -18.5448   20.4886 O   0  0  0  0  0  0  0  0  0  0  0  0
  2  1  1  6
  2  4  1  0
  3  2  1  0
  4  5  1  0
  5  6  1  1
  7  5  1  0
  7  8  2  0
  9  7  1  0
 10  9  1  0
 11 12  1  0
 11 10  1  0
 12 13  1  0
 13 14  1  1
 13  9  1  0
 14 15  2  0
 16 17  1  0
 17 19  1  0
 18 17  2  0
 19 20  1  0
 21 20  1  1
 21 23  1  0
 22 14  1  0
 22 21  1  0
 23 25  2  0
 23 24  1  0
M  END
$$$$
