LPQ.pdb
     RDKit          3D

 25 25  0  0  1  0  0  0  0  0999 V2000
    7.6690  -12.5069   26.6161 C   0  0  0  0  0  0  0  0  0  0  0  0
    6.7946  -13.3071   25.6456 C   0  0  2  0  0  0  0  0  0  0  0  0
    5.6574  -12.4262   25.2395 C   0  0  0  0  0  0  0  0  0  0  0  0
    6.3867  -14.5511   26.3685 C   0  0  0  0  0  0  0  0  0  0  0  0
    5.9977  -15.6699   25.4076 C   0  0  2  0  0  0  0  0  0  0  0  0
    5.5906  -16.8465   26.2055 N   0  0  0  0  0  0  0  0  0  0  0  0
    7.2145  -16.0469   24.6608 C   0  0  0  0  0  0  0  0  0  0  0  0
    7.8560  -17.0542   25.1228 O   0  0  0  0  0  0  0  0  0  0  0  0
    7.7211  -15.4183   23.5150 N   0  0  0  0  0  0  0  0  0  0  0  0
    7.3272  -14.1241   23.0438 C   0  0  0  0  0  0  0  0  0  0  0  0
    7.1841  -14.3994   21.5375 C   0  0  0  0  0  0  0  0  0  0  0  0
    8.2174  -15.4675   21.2742 C   0  0  0  0  0  0  0  0  0  0  0  0
    8.7197  -15.9072   22.6300 C   0  0  1  0  0  0  0  0  0  0  0  0
   10.0812  -15.3678   22.9280 C   0  0  0  0  0  0  0  0  0  0  0  0
   10.1976  -14.1176   22.9951 O   0  0  0  0  0  0  0  0  0  0  0  0
   11.5878  -16.4961   29.2371 N   0  0  0  0  0  0  0  0  0  0  0  0
   11.1059  -16.1108   27.9630 C   0  0  0  0  0  0  0  0  0  0  0  0
    9.8960  -15.8270   27.8367 O   0  0  0  0  0  0  0  0  0  0  0  0
   12.0494  -16.0569   26.8244 C   0  0  0  0  0  0  0  0  0  0  0  0
   11.2540  -16.0824   25.5557 C   0  0  0  0  0  0  0  0  0  0  0  0
   12.0815  -16.0413   24.3061 C   0  0  2  0  0  0  0  0  0  0  0  0
   11.2324  -16.1377   23.1366 N   0  0  0  0  0  0  0  0  0  0  0  0
   13.2095  -16.9575   24.2937 C   0  0  0  0  0  0  0  0  0  0  0  0
   14.3755  -16.6578   24.9540 O   0  0  0  0  0  0  0  0  0  0  0  0
   13.1350  -18.0365   23.6789 O   0  0  0  0  0  0  0  0  0  0  0  0
  2  1  1  1
  2  4  1  0
  3  2  1  0
  4  5  1  0
  5  6  1  1
  7  5  1  0
  7  8  2  0
  9  7  1  0
 10  9  1  0
 11 12  1  0
 11 10  1  0
 12 13  1  0
 13 14  1  1
 13  9  1  0
 14 15  2  0
 16 17  1  0
 17 19  1  0
 18 17  2  0
 19 20  1  0
 21 20  1  1
 21 23  1  0
 22 14  1  0
 22 21  1  0
 23 25  2  0
 23 24  1  0
M  END
$$$$
