LPQ.pdb
     RDKit          3D

 25 25  0  0  1  0  0  0  0  0999 V2000
    5.3950  -12.2114   25.8309 C   0  0  0  0  0  0  0  0  0  0  0  0
    6.4570  -12.8814   26.7081 C   0  0  2  0  0  0  0  0  0  0  0  0
    7.2502  -11.7938   27.3579 C   0  0  0  0  0  0  0  0  0  0  0  0
    7.2509  -13.7733   25.8075 C   0  0  0  0  0  0  0  0  0  0  0  0
    6.4084  -14.9118   25.2420 C   0  0  2  0  0  0  0  0  0  0  0  0
    6.0748  -15.8360   26.3473 N   0  0  0  0  0  0  0  0  0  0  0  0
    7.2599  -15.6550   24.2916 C   0  0  0  0  0  0  0  0  0  0  0  0
    7.4993  -16.8741   24.6016 O   0  0  0  0  0  0  0  0  0  0  0  0
    7.8176  -15.1601   23.1048 N   0  0  0  0  0  0  0  0  0  0  0  0
    7.6808  -13.8159   22.6287 C   0  0  0  0  0  0  0  0  0  0  0  0
    7.3901  -14.0680   21.1397 C   0  0  0  0  0  0  0  0  0  0  0  0
    8.1535  -15.3352   20.8406 C   0  0  0  0  0  0  0  0  0  0  0  0
    8.6327  -15.8598   22.1744 C   0  0  1  0  0  0  0  0  0  0  0  0
   10.0936  -15.6220   22.3809 C   0  0  0  0  0  0  0  0  0  0  0  0
   10.4462  -14.4489   22.6649 O   0  0  0  0  0  0  0  0  0  0  0  0
    9.7080  -18.4942   26.5583 N   0  0  0  0  0  0  0  0  0  0  0  0
   11.0483  -18.1465   26.8529 C   0  0  0  0  0  0  0  0  0  0  0  0
   11.4122  -18.1072   28.0472 O   0  0  0  0  0  0  0  0  0  0  0  0
   11.9729  -17.8416   25.7386 C   0  0  0  0  0  0  0  0  0  0  0  0
   11.1672  -17.3087   24.5942 C   0  0  0  0  0  0  0  0  0  0  0  0
   11.9708  -16.9816   23.3715 C   0  0  2  0  0  0  0  0  0  0  0  0
   11.0969  -16.5943   22.2834 N   0  0  0  0  0  0  0  0  0  0  0  0
   12.9585  -17.9835   23.0073 C   0  0  0  0  0  0  0  0  0  0  0  0
   12.8542  -18.6906   21.8348 O   0  0  0  0  0  0  0  0  0  0  0  0
   13.9216  -18.2178   23.7591 O   0  0  0  0  0  0  0  0  0  0  0  0
  2  1  1  6
  2  4  1  0
  3  2  1  0
  4  5  1  0
  5  6  1  1
  7  5  1  0
  7  8  2  0
  9  7  1  0
 10  9  1  0
 11 12  1  0
 11 10  1  0
 12 13  1  0
 13 14  1  1
 13  9  1  0
 14 15  2  0
 16 17  1  0
 17 19  1  0
 18 17  2  0
 19 20  1  0
 21 20  1  1
 21 23  1  0
 22 14  1  0
 22 21  1  0
 23 25  2  0
 23 24  1  0
M  END
$$$$
