LPQ.pdb
     RDKit          3D

 25 25  0  0  1  0  0  0  0  0999 V2000
    8.3853  -13.1585   27.1881 C   0  0  0  0  0  0  0  0  0  0  0  0
    7.3152  -13.5911   26.1810 C   0  0  2  0  0  0  0  0  0  0  0  0
    6.3275  -12.4745   26.0720 C   0  0  0  0  0  0  0  0  0  0  0  0
    6.7443  -14.8750   26.6931 C   0  0  0  0  0  0  0  0  0  0  0  0
    6.1920  -15.7446   25.5685 C   0  0  2  0  0  0  0  0  0  0  0  0
    5.6988  -17.0080   26.1580 N   0  0  0  0  0  0  0  0  0  0  0  0
    7.3244  -16.0865   24.6845 C   0  0  0  0  0  0  0  0  0  0  0  0
    7.9697  -17.1469   24.9989 O   0  0  0  0  0  0  0  0  0  0  0  0
    7.7486  -15.3734   23.5548 N   0  0  0  0  0  0  0  0  0  0  0  0
    7.2950  -14.0647   23.1892 C   0  0  0  0  0  0  0  0  0  0  0  0
    7.0738  -14.2502   21.6786 C   0  0  0  0  0  0  0  0  0  0  0  0
    8.1178  -15.2691   21.2914 C   0  0  0  0  0  0  0  0  0  0  0  0
    8.7076  -15.7769   22.5868 C   0  0  1  0  0  0  0  0  0  0  0  0
   10.0694  -15.2171   22.8431 C   0  0  0  0  0  0  0  0  0  0  0  0
   10.1342  -14.0101   23.1897 O   0  0  0  0  0  0  0  0  0  0  0  0
   11.8659  -15.5204   27.7038 N   0  0  0  0  0  0  0  0  0  0  0  0
   11.6754  -16.8026   27.1347 C   0  0  0  0  0  0  0  0  0  0  0  0
   11.6718  -17.8008   27.8857 O   0  0  0  0  0  0  0  0  0  0  0  0
   11.4869  -16.9184   25.6717 C   0  0  0  0  0  0  0  0  0  0  0  0
   11.9269  -15.6338   25.0398 C   0  0  0  0  0  0  0  0  0  0  0  0
   12.4009  -15.7716   23.6241 C   0  0  2  0  0  0  0  0  0  0  0  0
   11.2732  -15.9236   22.7281 N   0  0  0  0  0  0  0  0  0  0  0  0
   13.4485  -16.7596   23.4273 C   0  0  0  0  0  0  0  0  0  0  0  0
   13.1871  -17.9593   22.8126 O   0  0  0  0  0  0  0  0  0  0  0  0
   14.6078  -16.5311   23.8165 O   0  0  0  0  0  0  0  0  0  0  0  0
  2  1  1  1
  2  4  1  0
  3  2  1  0
  4  5  1  0
  5  6  1  1
  7  5  1  0
  7  8  2  0
  9  7  1  0
 10  9  1  0
 11 12  1  0
 11 10  1  0
 12 13  1  0
 13 14  1  1
 13  9  1  0
 14 15  2  0
 16 17  1  0
 17 19  1  0
 18 17  2  0
 19 20  1  0
 21 20  1  1
 21 23  1  0
 22 14  1  0
 22 21  1  0
 23 25  2  0
 23 24  1  0
M  END
$$$$
