LPQ.pdb
     RDKit          3D

 25 25  0  0  1  0  0  0  0  0999 V2000
    6.8103  -17.0601   20.6021 C   0  0  0  0  0  0  0  0  0  0  0  0
    7.4055  -16.6120   21.9405 C   0  0  2  0  0  0  0  0  0  0  0  0
    7.4747  -17.8161   22.8235 C   0  0  0  0  0  0  0  0  0  0  0  0
    6.5234  -15.5184   22.4528 C   0  0  0  0  0  0  0  0  0  0  0  0
    7.1695  -14.1449   22.3041 C   0  0  2  0  0  0  0  0  0  0  0  0
    8.0079  -14.1557   21.0860 N   0  0  0  0  0  0  0  0  0  0  0  0
    8.0740  -13.9606   23.4567 C   0  0  0  0  0  0  0  0  0  0  0  0
    9.3254  -14.0071   23.1895 O   0  0  0  0  0  0  0  0  0  0  0  0
    7.6973  -13.7419   24.7890 N   0  0  0  0  0  0  0  0  0  0  0  0
    6.3481  -13.7197   25.2699 C   0  0  0  0  0  0  0  0  0  0  0  0
    6.3934  -12.4897   26.1920 C   0  0  0  0  0  0  0  0  0  0  0  0
    7.8117  -12.4874   26.7081 C   0  0  0  0  0  0  0  0  0  0  0  0
    8.5505  -13.5338   25.9062 C   0  0  1  0  0  0  0  0  0  0  0  0
    8.7955  -14.7789   26.6958 C   0  0  0  0  0  0  0  0  0  0  0  0
    7.8077  -15.5303   26.8975 O   0  0  0  0  0  0  0  0  0  0  0  0
   13.3480  -18.6133   26.2651 N   0  0  0  0  0  0  0  0  0  0  0  0
   12.6918  -17.7496   25.3555 C   0  0  0  0  0  0  0  0  0  0  0  0
   13.0860  -17.7099   24.1708 O   0  0  0  0  0  0  0  0  0  0  0  0
   11.5625  -16.9234   25.8367 C   0  0  0  0  0  0  0  0  0  0  0  0
   11.3919  -17.1725   27.3035 C   0  0  0  0  0  0  0  0  0  0  0  0
   10.2570  -16.4198   27.9307 C   0  0  2  0  0  0  0  0  0  0  0  0
   10.0294  -15.1742   27.2274 N   0  0  0  0  0  0  0  0  0  0  0  0
   10.3478  -16.2747   29.3738 C   0  0  0  0  0  0  0  0  0  0  0  0
   10.4320  -17.3725   30.1943 O   0  0  0  0  0  0  0  0  0  0  0  0
   10.3503  -15.1437   29.8920 O   0  0  0  0  0  0  0  0  0  0  0  0
  2  1  1  6
  2  4  1  0
  3  2  1  0
  4  5  1  0
  5  6  1  6
  7  5  1  0
  7  8  2  0
  9  7  1  0
 10  9  1  0
 11 12  1  0
 11 10  1  0
 12 13  1  0
 13 14  1  1
 13  9  1  0
 14 15  2  0
 16 17  1  0
 17 19  1  0
 18 17  2  0
 19 20  1  0
 21 20  1  6
 21 23  1  0
 22 14  1  0
 22 21  1  0
 23 25  2  0
 23 24  1  0
M  END
$$$$
