LPQ.pdb
     RDKit          3D

 25 25  0  0  1  0  0  0  0  0999 V2000
    9.1577  -13.5700   18.8106 C   0  0  0  0  0  0  0  0  0  0  0  0
    7.7658  -13.6407   19.4464 C   0  0  2  0  0  0  0  0  0  0  0  0
    7.2469  -12.2421   19.5413 C   0  0  0  0  0  0  0  0  0  0  0  0
    7.9348  -14.3291   20.7633 C   0  0  0  0  0  0  0  0  0  0  0  0
    8.2990  -15.8007   20.5972 C   0  0  2  0  0  0  0  0  0  0  0  0
    7.1330  -16.5056   20.0223 N   0  0  0  0  0  0  0  0  0  0  0  0
    8.5205  -16.3512   21.9494 C   0  0  0  0  0  0  0  0  0  0  0  0
    7.4724  -16.7723   22.5526 O   0  0  0  0  0  0  0  0  0  0  0  0
    9.7471  -16.4550   22.6196 N   0  0  0  0  0  0  0  0  0  0  0  0
   11.0098  -16.0253   22.0970 C   0  0  0  0  0  0  0  0  0  0  0  0
   11.9016  -17.2152   22.4891 C   0  0  0  0  0  0  0  0  0  0  0  0
   11.2833  -17.7118   23.7732 C   0  0  0  0  0  0  0  0  0  0  0  0
    9.9788  -16.9643   23.9260 C   0  0  1  0  0  0  0  0  0  0  0  0
   10.0617  -15.8938   24.9655 C   0  0  0  0  0  0  0  0  0  0  0  0
   10.7936  -14.9042   24.7085 O   0  0  0  0  0  0  0  0  0  0  0  0
    6.2624  -11.0462   26.3070 N   0  0  0  0  0  0  0  0  0  0  0  0
    6.5914  -12.3936   26.5903 C   0  0  0  0  0  0  0  0  0  0  0  0
    5.6780  -13.2456   26.6105 O   0  0  0  0  0  0  0  0  0  0  0  0
    8.0037  -12.7483   26.8527 C   0  0  0  0  0  0  0  0  0  0  0  0
    8.0570  -14.1891   27.2581 C   0  0  0  0  0  0  0  0  0  0  0  0
    9.4162  -14.8123   27.1490 C   0  0  2  0  0  0  0  0  0  0  0  0
    9.3947  -15.9036   26.1970 N   0  0  0  0  0  0  0  0  0  0  0  0
   10.0339  -15.1502   28.4203 C   0  0  0  0  0  0  0  0  0  0  0  0
    9.9545  -16.4215   28.9331 O   0  0  0  0  0  0  0  0  0  0  0  0
   10.6490  -14.2849   29.0689 O   0  0  0  0  0  0  0  0  0  0  0  0
  2  1  1  1
  2  4  1  0
  3  2  1  0
  4  5  1  0
  5  6  1  1
  7  5  1  0
  7  8  2  0
  9  7  1  0
 10  9  1  0
 11 12  1  0
 11 10  1  0
 12 13  1  0
 13 14  1  1
 13  9  1  0
 14 15  2  0
 16 17  1  0
 17 19  1  0
 18 17  2  0
 19 20  1  0
 21 20  1  1
 21 23  1  0
 22 14  1  0
 22 21  1  0
 23 25  2  0
 23 24  1  0
M  END
$$$$
