LPQ.pdb
     RDKit          3D

 25 25  0  0  1  0  0  0  0  0999 V2000
    2.9886  -17.6631   20.1880 C   0  0  0  0  0  0  0  0  0  0  0  0
    3.9878  -18.6875   20.7346 C   0  0  2  0  0  0  0  0  0  0  0  0
    3.3820  -19.2918   21.9602 C   0  0  0  0  0  0  0  0  0  0  0  0
    5.2652  -17.9481   20.9754 C   0  0  0  0  0  0  0  0  0  0  0  0
    5.9098  -17.4805   19.6747 C   0  0  2  0  0  0  0  0  0  0  0  0
    6.1078  -18.6597   18.8045 N   0  0  0  0  0  0  0  0  0  0  0  0
    7.2482  -16.9569   20.0140 C   0  0  0  0  0  0  0  0  0  0  0  0
    8.2325  -17.7146   19.7033 O   0  0  0  0  0  0  0  0  0  0  0  0
    7.5352  -15.7313   20.6305 N   0  0  0  0  0  0  0  0  0  0  0  0
    6.5628  -14.8543   21.2115 C   0  0  0  0  0  0  0  0  0  0  0  0
    7.0514  -13.4952   20.6832 C   0  0  0  0  0  0  0  0  0  0  0  0
    8.5473  -13.6713   20.5862 C   0  0  0  0  0  0  0  0  0  0  0  0
    8.8123  -15.1396   20.8264 C   0  0  1  0  0  0  0  0  0  0  0  0
    9.3733  -15.3950   22.1879 C   0  0  0  0  0  0  0  0  0  0  0  0
    8.5492  -15.5919   23.1170 O   0  0  0  0  0  0  0  0  0  0  0  0
   15.2286  -14.9461   21.3125 N   0  0  0  0  0  0  0  0  0  0  0  0
   14.9191  -15.7706   22.4208 C   0  0  0  0  0  0  0  0  0  0  0  0
   15.6991  -16.7004   22.7169 O   0  0  0  0  0  0  0  0  0  0  0  0
   13.6841  -15.5048   23.1912 C   0  0  0  0  0  0  0  0  0  0  0  0
   12.7571  -16.6663   23.0052 C   0  0  0  0  0  0  0  0  0  0  0  0
   11.3386  -16.3961   23.4082 C   0  0  2  0  0  0  0  0  0  0  0  0
   10.7354  -15.4316   22.5116 N   0  0  0  0  0  0  0  0  0  0  0  0
   11.1550  -16.0880   24.8166 C   0  0  0  0  0  0  0  0  0  0  0  0
   11.5077  -16.9874   25.7924 O   0  0  0  0  0  0  0  0  0  0  0  0
   10.6711  -14.9953   25.1621 O   0  0  0  0  0  0  0  0  0  0  0  0
  2  1  1  1
  2  4  1  0
  3  2  1  0
  4  5  1  0
  5  6  1  6
  7  5  1  0
  7  8  2  0
  9  7  1  0
 10  9  1  0
 11 12  1  0
 11 10  1  0
 12 13  1  0
 13 14  1  1
 13  9  1  0
 14 15  2  0
 16 17  1  0
 17 19  1  0
 18 17  2  0
 19 20  1  0
 21 20  1  6
 21 23  1  0
 22 14  1  0
 22 21  1  0
 23 25  2  0
 23 24  1  0
M  END
$$$$
