LPQ.pdb
     RDKit          3D

 25 25  0  0  1  0  0  0  0  0999 V2000
    8.4995  -13.1350   26.9729 C   0  0  0  0  0  0  0  0  0  0  0  0
    7.3898  -13.4790   25.9745 C   0  0  2  0  0  0  0  0  0  0  0  0
    6.5100  -12.2767   25.8535 C   0  0  0  0  0  0  0  0  0  0  0  0
    6.7038  -14.6973   26.5051 C   0  0  0  0  0  0  0  0  0  0  0  0
    5.9527  -15.4524   25.4134 C   0  0  2  0  0  0  0  0  0  0  0  0
    5.2744  -16.6112   26.0329 N   0  0  0  0  0  0  0  0  0  0  0  0
    6.9626  -15.9852   24.4769 C   0  0  0  0  0  0  0  0  0  0  0  0
    7.3486  -17.1846   24.7050 O   0  0  0  0  0  0  0  0  0  0  0  0
    7.5249  -15.3139   23.3825 N   0  0  0  0  0  0  0  0  0  0  0  0
    7.4449  -13.9021   23.1530 C   0  0  0  0  0  0  0  0  0  0  0  0
    7.1197  -13.8747   21.6501 C   0  0  0  0  0  0  0  0  0  0  0  0
    7.8174  -15.1017   21.1155 C   0  0  0  0  0  0  0  0  0  0  0  0
    8.2914  -15.8739   22.3250 C   0  0  1  0  0  0  0  0  0  0  0  0
    9.7650  -15.7409   22.5358 C   0  0  0  0  0  0  0  0  0  0  0  0
   10.2962  -14.6567   22.1844 O   0  0  0  0  0  0  0  0  0  0  0  0
   12.0010  -19.4771   26.4020 N   0  0  0  0  0  0  0  0  0  0  0  0
   11.0866  -18.4497   26.7370 C   0  0  0  0  0  0  0  0  0  0  0  0
   10.3295  -18.6125   27.7172 O   0  0  0  0  0  0  0  0  0  0  0  0
   11.0574  -17.2185   25.9168 C   0  0  0  0  0  0  0  0  0  0  0  0
   12.1213  -17.3288   24.8686 C   0  0  0  0  0  0  0  0  0  0  0  0
   11.8996  -16.4582   23.6683 C   0  0  2  0  0  0  0  0  0  0  0  0
   10.5984  -16.7211   23.0891 N   0  0  0  0  0  0  0  0  0  0  0  0
   12.9869  -16.4638   22.7041 C   0  0  0  0  0  0  0  0  0  0  0  0
   14.2374  -16.0073   23.0408 O   0  0  0  0  0  0  0  0  0  0  0  0
   12.7993  -16.8859   21.5490 O   0  0  0  0  0  0  0  0  0  0  0  0
  2  1  1  1
  2  4  1  0
  3  2  1  0
  4  5  1  0
  5  6  1  1
  7  5  1  0
  7  8  2  0
  9  7  1  0
 10  9  1  0
 11 12  1  0
 11 10  1  0
 12 13  1  0
 13 14  1  1
 13  9  1  0
 14 15  2  0
 16 17  1  0
 17 19  1  0
 18 17  2  0
 19 20  1  0
 21 20  1  1
 21 23  1  0
 22 14  1  0
 22 21  1  0
 23 25  2  0
 23 24  1  0
M  END
$$$$
