LWQ.pdb
     RDKit          3D

 32 33  0  0  1  0  0  0  0  0999 V2000
    8.2020  -14.3163   18.1184 C   0  0  0  0  0  0  0  0  0  0  0  0
    7.5160  -13.8120   19.3442 C   0  0  2  0  0  0  0  0  0  0  0  0
    7.1611  -12.3405   19.0998 C   0  0  0  0  0  0  0  0  0  0  0  0
    8.3465  -13.8380   20.5841 C   0  0  0  0  0  0  0  0  0  0  0  0
    8.7425  -15.2087   21.0533 C   0  0  2  0  0  0  0  0  0  0  0  0
    7.7034  -16.1888   20.9234 N   0  0  0  0  0  0  0  0  0  0  0  0
    9.2924  -15.1869   22.4364 C   0  0  0  0  0  0  0  0  0  0  0  0
   10.1043  -14.2922   22.7276 O   0  0  0  0  0  0  0  0  0  0  0  0
    8.9392  -16.1247   23.4234 N   0  0  0  0  0  0  0  0  0  0  0  0
    9.5567  -16.1637   24.7630 C   0  0  1  0  0  0  0  0  0  0  0  0
    8.4442  -16.4318   25.7059 C   0  0  0  0  0  0  0  0  0  0  0  0
    7.3986  -15.4271   25.8311 C   0  0  0  0  0  0  0  0  0  0  0  0
    6.0391  -15.5419   25.6339 C   0  0  0  0  0  0  0  0  0  0  0  0
    5.4682  -14.3466   25.8443 N   0  0  0  0  0  0  0  0  0  0  0  0
    6.4216  -13.4432   26.1768 C   0  0  0  0  0  0  0  0  0  0  0  0
    6.3617  -12.0823   26.4897 C   0  0  0  0  0  0  0  0  0  0  0  0
    7.5097  -11.3819   26.7980 C   0  0  0  0  0  0  0  0  0  0  0  0
    8.7192  -12.0352   26.7952 C   0  0  0  0  0  0  0  0  0  0  0  0
    8.7679  -13.3779   26.4851 C   0  0  0  0  0  0  0  0  0  0  0  0
    7.6147  -14.1053   26.1699 C   0  0  0  0  0  0  0  0  0  0  0  0
   10.6945  -17.0805   24.7806 C   0  0  0  0  0  0  0  0  0  0  0  0
   10.4564  -18.3162   25.0662 O   0  0  0  0  0  0  0  0  0  0  0  0
   15.1829  -15.0290   20.9370 N   0  0  0  0  0  0  0  0  0  0  0  0
   15.0302  -15.5529   22.2560 C   0  0  0  0  0  0  0  0  0  0  0  0
   15.6664  -14.9989   23.1655 O   0  0  0  0  0  0  0  0  0  0  0  0
   14.1246  -16.7168   22.4370 C   0  0  0  0  0  0  0  0  0  0  0  0
   14.3170  -17.2500   23.8339 C   0  0  0  0  0  0  0  0  0  0  0  0
   13.0276  -17.7220   24.4574 C   0  0  2  0  0  0  0  0  0  0  0  0
   12.0253  -16.6739   24.4974 N   0  0  0  0  0  0  0  0  0  0  0  0
   13.3326  -18.1513   25.8266 C   0  0  0  0  0  0  0  0  0  0  0  0
   14.1353  -19.0743   26.0433 O   0  0  0  0  0  0  0  0  0  0  0  0
   12.7231  -17.5257   26.8989 O   0  0  0  0  0  0  0  0  0  0  0  0
  2  3  1  6
  2  1  1  0
  4  2  1  0
  5  4  1  0
  5  6  1  1
  7  9  1  0
  7  5  1  0
  8  7  2  0
 10  9  1  0
 10 11  1  1
 12 11  1  0
 13 12  2  0
 14 13  1  0
 15 14  1  0
 15 20  2  0
 16 15  1  0
 17 16  2  0
 17 18  1  0
 18 19  2  0
 19 20  1  0
 20 12  1  0
 21 10  1  0
 21 22  2  0
 23 24  1  0
 24 26  1  0
 25 24  2  0
 27 26  1  0
 28 29  1  0
 28 27  1  1
 29 21  1  0
 30 28  1  0
 31 30  2  0
 32 30  1  0
M  END
$$$$
