LWQ.pdb
     RDKit          3D

 32 33  0  0  1  0  0  0  0  0999 V2000
    7.4053  -14.4787   16.1762 C   0  0  0  0  0  0  0  0  0  0  0  0
    7.4519  -13.8650   17.5359 C   0  0  2  0  0  0  0  0  0  0  0  0
    7.3617  -12.3447   17.3573 C   0  0  0  0  0  0  0  0  0  0  0  0
    8.7106  -14.1193   18.2967 C   0  0  0  0  0  0  0  0  0  0  0  0
    8.7494  -15.4236   19.0403 C   0  0  2  0  0  0  0  0  0  0  0  0
    7.5846  -16.2375   18.8449 N   0  0  0  0  0  0  0  0  0  0  0  0
    9.0353  -15.2311   20.4884 C   0  0  0  0  0  0  0  0  0  0  0  0
   10.0199  -14.5409   20.8022 O   0  0  0  0  0  0  0  0  0  0  0  0
    8.2489  -15.7896   21.5122 N   0  0  0  0  0  0  0  0  0  0  0  0
    8.4671  -15.5124   22.9451 C   0  0  1  0  0  0  0  0  0  0  0  0
    7.1141  -15.4487   23.5482 C   0  0  0  0  0  0  0  0  0  0  0  0
    7.0155  -15.1982   24.9785 C   0  0  0  0  0  0  0  0  0  0  0  0
    6.8668  -16.0886   26.0202 C   0  0  0  0  0  0  0  0  0  0  0  0
    6.8012  -15.4026   27.1709 N   0  0  0  0  0  0  0  0  0  0  0  0
    6.9036  -14.0765   26.9123 C   0  0  0  0  0  0  0  0  0  0  0  0
    6.8932  -12.9515   27.7415 C   0  0  0  0  0  0  0  0  0  0  0  0
    7.0167  -11.6852   27.2080 C   0  0  0  0  0  0  0  0  0  0  0  0
    7.1508  -11.5369   25.8479 C   0  0  0  0  0  0  0  0  0  0  0  0
    7.1600  -12.6530   25.0382 C   0  0  0  0  0  0  0  0  0  0  0  0
    7.0360  -13.9453   25.5606 C   0  0  0  0  0  0  0  0  0  0  0  0
    9.4184  -16.4633   23.5160 C   0  0  0  0  0  0  0  0  0  0  0  0
    9.3266  -17.6938   23.1380 O   0  0  0  0  0  0  0  0  0  0  0  0
   16.4915  -17.3379   24.6084 N   0  0  0  0  0  0  0  0  0  0  0  0
   15.2705  -16.6262   24.4077 C   0  0  0  0  0  0  0  0  0  0  0  0
   15.3537  -15.4567   24.0026 O   0  0  0  0  0  0  0  0  0  0  0  0
   13.9994  -17.3382   24.6983 C   0  0  0  0  0  0  0  0  0  0  0  0
   12.8558  -16.4101   24.3769 C   0  0  0  0  0  0  0  0  0  0  0  0
   11.5092  -17.0362   24.6385 C   0  0  2  0  0  0  0  0  0  0  0  0
   10.4230  -16.0933   24.4490 N   0  0  0  0  0  0  0  0  0  0  0  0
   11.5049  -17.5051   26.0285 C   0  0  0  0  0  0  0  0  0  0  0  0
   10.7444  -17.0000   26.8711 O   0  0  0  0  0  0  0  0  0  0  0  0
   12.3558  -18.5238   26.4170 O   0  0  0  0  0  0  0  0  0  0  0  0
  2  3  1  6
  2  1  1  0
  4  2  1  0
  5  4  1  0
  5  6  1  1
  7  9  1  0
  7  5  1  0
  8  7  2  0
 10  9  1  0
 10 11  1  1
 12 11  1  0
 13 12  2  0
 14 13  1  0
 15 14  1  0
 15 20  2  0
 16 15  1  0
 17 16  2  0
 17 18  1  0
 18 19  2  0
 19 20  1  0
 20 12  1  0
 21 10  1  0
 21 22  2  0
 23 24  1  0
 24 26  1  0
 25 24  2  0
 27 26  1  0
 28 29  1  0
 28 27  1  1
 29 21  1  0
 30 28  1  0
 31 30  2  0
 32 30  1  0
M  END
$$$$
