LWQ.pdb
     RDKit          3D

 32 33  0  0  1  0  0  0  0  0999 V2000
    8.2587  -14.0094   18.4117 C   0  0  0  0  0  0  0  0  0  0  0  0
    7.6260  -13.5583   19.6859 C   0  0  2  0  0  0  0  0  0  0  0  0
    7.5534  -12.0272   19.6461 C   0  0  0  0  0  0  0  0  0  0  0  0
    8.3870  -13.9055   20.9221 C   0  0  0  0  0  0  0  0  0  0  0  0
    8.4869  -15.3755   21.2133 C   0  0  2  0  0  0  0  0  0  0  0  0
    7.2551  -16.0875   21.0324 N   0  0  0  0  0  0  0  0  0  0  0  0
    9.0689  -15.6388   22.5578 C   0  0  0  0  0  0  0  0  0  0  0  0
   10.1053  -15.0305   22.8745 O   0  0  0  0  0  0  0  0  0  0  0  0
    8.5053  -16.5378   23.4812 N   0  0  0  0  0  0  0  0  0  0  0  0
    9.0649  -16.7765   24.8256 C   0  0  1  0  0  0  0  0  0  0  0  0
    7.9103  -16.7136   25.7537 C   0  0  0  0  0  0  0  0  0  0  0  0
    7.0815  -15.5173   25.7320 C   0  0  0  0  0  0  0  0  0  0  0  0
    5.7916  -15.3479   25.2763 C   0  0  0  0  0  0  0  0  0  0  0  0
    5.4401  -14.0637   25.4377 N   0  0  0  0  0  0  0  0  0  0  0  0
    6.4706  -13.3796   25.9908 C   0  0  0  0  0  0  0  0  0  0  0  0
    6.6227  -12.0396   26.3577 C   0  0  0  0  0  0  0  0  0  0  0  0
    7.8043  -11.5938   26.9131 C   0  0  0  0  0  0  0  0  0  0  0  0
    8.8365  -12.4814   27.1042 C   0  0  0  0  0  0  0  0  0  0  0  0
    8.6767  -13.8015   26.7389 C   0  0  0  0  0  0  0  0  0  0  0  0
    7.4860  -14.2724   26.1742 C   0  0  0  0  0  0  0  0  0  0  0  0
    9.8781  -17.9905   24.8384 C   0  0  0  0  0  0  0  0  0  0  0  0
    9.6275  -18.8819   23.9395 O   0  0  0  0  0  0  0  0  0  0  0  0
   13.5306  -16.9633   21.9258 N   0  0  0  0  0  0  0  0  0  0  0  0
   14.3872  -18.0007   22.4029 C   0  0  0  0  0  0  0  0  0  0  0  0
   15.3146  -18.3590   21.6610 O   0  0  0  0  0  0  0  0  0  0  0  0
   14.1030  -18.5690   23.7459 C   0  0  0  0  0  0  0  0  0  0  0  0
   12.8181  -17.9637   24.2510 C   0  0  0  0  0  0  0  0  0  0  0  0
   12.1276  -18.8348   25.2700 C   0  0  2  0  0  0  0  0  0  0  0  0
   10.9157  -18.2218   25.7800 N   0  0  0  0  0  0  0  0  0  0  0  0
   13.0662  -19.0441   26.3778 C   0  0  0  0  0  0  0  0  0  0  0  0
   14.1351  -19.6529   26.2037 O   0  0  0  0  0  0  0  0  0  0  0  0
   12.7664  -18.5605   27.6384 O   0  0  0  0  0  0  0  0  0  0  0  0
  2  3  1  6
  2  1  1  0
  4  2  1  0
  5  4  1  0
  5  6  1  1
  7  9  1  0
  7  5  1  0
  8  7  2  0
 10  9  1  0
 10 11  1  1
 12 11  1  0
 13 12  2  0
 14 13  1  0
 15 14  1  0
 15 20  2  0
 16 15  1  0
 17 16  2  0
 17 18  1  0
 18 19  2  0
 19 20  1  0
 20 12  1  0
 21 10  1  0
 21 22  2  0
 23 24  1  0
 24 26  1  0
 25 24  2  0
 27 26  1  0
 28 29  1  0
 28 27  1  6
 29 21  1  0
 30 28  1  0
 31 30  2  0
 32 30  1  0
M  END
$$$$
