LWQ.pdb
     RDKit          3D

 32 33  0  0  1  0  0  0  0  0999 V2000
    7.1037  -12.8601   17.7122 C   0  0  0  0  0  0  0  0  0  0  0  0
    7.5487  -13.6317   18.9097 C   0  0  2  0  0  0  0  0  0  0  0  0
    7.9062  -12.6179   20.0030 C   0  0  0  0  0  0  0  0  0  0  0  0
    8.7694  -14.4650   18.7015 C   0  0  0  0  0  0  0  0  0  0  0  0
    8.8057  -15.7441   19.4879 C   0  0  2  0  0  0  0  0  0  0  0  0
    7.6241  -16.5449   19.3475 N   0  0  0  0  0  0  0  0  0  0  0  0
    9.1289  -15.5077   20.9216 C   0  0  0  0  0  0  0  0  0  0  0  0
   10.2370  -15.0172   21.1969 O   0  0  0  0  0  0  0  0  0  0  0  0
    8.2453  -15.8110   21.9732 N   0  0  0  0  0  0  0  0  0  0  0  0
    8.5790  -15.6096   23.3964 C   0  0  1  0  0  0  0  0  0  0  0  0
    7.2789  -15.4478   24.0905 C   0  0  0  0  0  0  0  0  0  0  0  0
    7.2982  -15.1513   25.5154 C   0  0  0  0  0  0  0  0  0  0  0  0
    7.3551  -16.0094   26.5926 C   0  0  0  0  0  0  0  0  0  0  0  0
    7.3305  -15.2881   27.7232 N   0  0  0  0  0  0  0  0  0  0  0  0
    7.2584  -13.9703   27.4164 C   0  0  0  0  0  0  0  0  0  0  0  0
    7.2071  -12.8201   28.2087 C   0  0  0  0  0  0  0  0  0  0  0  0
    7.1349  -11.5706   27.6281 C   0  0  0  0  0  0  0  0  0  0  0  0
    7.1136  -11.4642   26.2577 C   0  0  0  0  0  0  0  0  0  0  0  0
    7.1646  -12.6050   25.4846 C   0  0  0  0  0  0  0  0  0  0  0  0
    7.2382  -13.8808   26.0550 C   0  0  0  0  0  0  0  0  0  0  0  0
    9.4732  -16.6633   23.8712 C   0  0  0  0  0  0  0  0  0  0  0  0
    9.2099  -17.8732   23.5077 O   0  0  0  0  0  0  0  0  0  0  0  0
   14.3276  -17.1346   22.2907 N   0  0  0  0  0  0  0  0  0  0  0  0
   14.3618  -16.1199   23.2942 C   0  0  0  0  0  0  0  0  0  0  0  0
   15.1087  -15.1493   23.0967 O   0  0  0  0  0  0  0  0  0  0  0  0
   13.5036  -16.3038   24.4930 C   0  0  0  0  0  0  0  0  0  0  0  0
   12.7252  -17.5835   24.3228 C   0  0  0  0  0  0  0  0  0  0  0  0
   11.4081  -17.5633   25.0568 C   0  0  2  0  0  0  0  0  0  0  0  0
   10.6008  -16.4128   24.6973 N   0  0  0  0  0  0  0  0  0  0  0  0
   11.7055  -17.5152   26.4925 C   0  0  0  0  0  0  0  0  0  0  0  0
   12.4246  -18.3767   27.0256 O   0  0  0  0  0  0  0  0  0  0  0  0
   11.1828  -16.5001   27.2729 O   0  0  0  0  0  0  0  0  0  0  0  0
  2  3  1  1
  2  1  1  0
  4  2  1  0
  5  4  1  0
  5  6  1  1
  7  9  1  0
  7  5  1  0
  8  7  2  0
 10  9  1  0
 10 11  1  1
 12 11  1  0
 13 12  2  0
 14 13  1  0
 15 14  1  0
 15 20  2  0
 16 15  1  0
 17 16  2  0
 17 18  1  0
 18 19  2  0
 19 20  1  0
 20 12  1  0
 21 10  1  0
 21 22  2  0
 23 24  1  0
 24 26  1  0
 25 24  2  0
 27 26  1  0
 28 29  1  0
 28 27  1  6
 29 21  1  0
 30 28  1  0
 31 30  2  0
 32 30  1  0
M  END
$$$$
