LWQ.pdb
     RDKit          3D

 32 33  0  0  1  0  0  0  0  0999 V2000
    7.9370  -14.2147   18.2164 C   0  0  0  0  0  0  0  0  0  0  0  0
    7.3290  -13.7019   19.4793 C   0  0  2  0  0  0  0  0  0  0  0  0
    7.1198  -12.1925   19.3089 C   0  0  0  0  0  0  0  0  0  0  0  0
    8.1762  -13.8685   20.6968 C   0  0  0  0  0  0  0  0  0  0  0  0
    8.4658  -15.2921   21.0779 C   0  0  2  0  0  0  0  0  0  0  0  0
    7.2977  -16.1208   21.1552 N   0  0  0  0  0  0  0  0  0  0  0  0
    9.2733  -15.3818   22.3252 C   0  0  0  0  0  0  0  0  0  0  0  0
   10.3056  -14.6942   22.4028 O   0  0  0  0  0  0  0  0  0  0  0  0
    8.9259  -16.2024   23.4134 N   0  0  0  0  0  0  0  0  0  0  0  0
    9.6714  -16.2195   24.6867 C   0  0  1  0  0  0  0  0  0  0  0  0
    8.6484  -16.4041   25.7440 C   0  0  0  0  0  0  0  0  0  0  0  0
    7.4723  -15.5473   25.7127 C   0  0  0  0  0  0  0  0  0  0  0  0
    6.1868  -15.8310   25.3037 C   0  0  0  0  0  0  0  0  0  0  0  0
    5.4371  -14.7263   25.4329 N   0  0  0  0  0  0  0  0  0  0  0  0
    6.1998  -13.7174   25.9189 C   0  0  0  0  0  0  0  0  0  0  0  0
    5.9128  -12.3856   26.2309 C   0  0  0  0  0  0  0  0  0  0  0  0
    6.8966  -11.5520   26.7218 C   0  0  0  0  0  0  0  0  0  0  0  0
    8.1677  -12.0431   26.9027 C   0  0  0  0  0  0  0  0  0  0  0  0
    8.4410  -13.3584   26.5920 C   0  0  0  0  0  0  0  0  0  0  0  0
    7.4567  -14.2192   26.0932 C   0  0  0  0  0  0  0  0  0  0  0  0
   10.7678  -17.1838   24.6302 C   0  0  0  0  0  0  0  0  0  0  0  0
   10.4856  -18.3808   24.2390 O   0  0  0  0  0  0  0  0  0  0  0  0
   16.1326  -16.7538   22.2762 N   0  0  0  0  0  0  0  0  0  0  0  0
   15.9959  -15.9229   23.4288 C   0  0  0  0  0  0  0  0  0  0  0  0
   16.7557  -14.9465   23.5198 O   0  0  0  0  0  0  0  0  0  0  0  0
   14.9583  -16.2902   24.4268 C   0  0  0  0  0  0  0  0  0  0  0  0
   14.2241  -17.5043   23.9175 C   0  0  0  0  0  0  0  0  0  0  0  0
   13.0887  -17.9168   24.8201 C   0  0  2  0  0  0  0  0  0  0  0  0
   12.1063  -16.8610   24.9781 N   0  0  0  0  0  0  0  0  0  0  0  0
   13.6639  -18.2413   26.1299 C   0  0  0  0  0  0  0  0  0  0  0  0
   14.4622  -19.1840   26.2617 O   0  0  0  0  0  0  0  0  0  0  0  0
   13.3191  -17.4931   27.2408 O   0  0  0  0  0  0  0  0  0  0  0  0
  2  3  1  6
  2  1  1  0
  4  2  1  0
  5  4  1  0
  5  6  1  1
  7  9  1  0
  7  5  1  0
  8  7  2  0
 10  9  1  0
 10 11  1  1
 12 11  1  0
 13 12  2  0
 14 13  1  0
 15 14  1  0
 15 20  2  0
 16 15  1  0
 17 16  2  0
 17 18  1  0
 18 19  2  0
 19 20  1  0
 20 12  1  0
 21 10  1  0
 21 22  2  0
 23 24  1  0
 24 26  1  0
 25 24  2  0
 27 26  1  0
 28 29  1  0
 28 27  1  6
 29 21  1  0
 30 28  1  0
 31 30  2  0
 32 30  1  0
M  END
$$$$
