LWQ.pdb
     RDKit          3D

 32 33  0  0  1  0  0  0  0  0999 V2000
    7.7152  -14.1710   17.1735 C   0  0  0  0  0  0  0  0  0  0  0  0
    8.1692  -13.6012   18.4761 C   0  0  2  0  0  0  0  0  0  0  0  0
    8.2309  -12.0777   18.3149 C   0  0  0  0  0  0  0  0  0  0  0  0
    9.5329  -14.0284   18.9069 C   0  0  0  0  0  0  0  0  0  0  0  0
    9.5955  -15.3738   19.5715 C   0  0  2  0  0  0  0  0  0  0  0  0
    8.5516  -16.2700   19.1661 N   0  0  0  0  0  0  0  0  0  0  0  0
    9.6624  -15.2602   21.0542 C   0  0  0  0  0  0  0  0  0  0  0  0
   10.6380  -14.6725   21.5511 O   0  0  0  0  0  0  0  0  0  0  0  0
    8.6799  -15.7832   21.9144 N   0  0  0  0  0  0  0  0  0  0  0  0
    8.6682  -15.5466   23.3708 C   0  0  1  0  0  0  0  0  0  0  0  0
    7.2380  -15.4233   23.7421 C   0  0  0  0  0  0  0  0  0  0  0  0
    6.9175  -15.0876   25.1216 C   0  0  0  0  0  0  0  0  0  0  0  0
    6.4606  -15.8953   26.1409 C   0  0  0  0  0  0  0  0  0  0  0  0
    6.2832  -15.1473   27.2401 N   0  0  0  0  0  0  0  0  0  0  0  0
    6.6131  -13.8614   26.9692 C   0  0  0  0  0  0  0  0  0  0  0  0
    6.6083  -12.7029   27.7511 C   0  0  0  0  0  0  0  0  0  0  0  0
    7.0006  -11.4933   27.2158 C   0  0  0  0  0  0  0  0  0  0  0  0
    7.3982  -11.4352   25.9011 C   0  0  0  0  0  0  0  0  0  0  0  0
    7.3994  -12.5837   25.1379 C   0  0  0  0  0  0  0  0  0  0  0  0
    7.0052  -13.8195   25.6629 C   0  0  0  0  0  0  0  0  0  0  0  0
    9.4627  -16.5579   24.0646 C   0  0  0  0  0  0  0  0  0  0  0  0
    9.3830  -17.7723   23.6354 O   0  0  0  0  0  0  0  0  0  0  0  0
   14.2864  -15.4248   22.7024 N   0  0  0  0  0  0  0  0  0  0  0  0
   14.2434  -16.2472   23.8683 C   0  0  0  0  0  0  0  0  0  0  0  0
   15.1964  -16.1650   24.6582 O   0  0  0  0  0  0  0  0  0  0  0  0
   13.0652  -17.1349   24.0452 C   0  0  0  0  0  0  0  0  0  0  0  0
   12.6135  -17.0374   25.4801 C   0  0  0  0  0  0  0  0  0  0  0  0
   11.1464  -17.3427   25.6486 C   0  0  2  0  0  0  0  0  0  0  0  0
   10.3058  -16.2621   25.1685 N   0  0  0  0  0  0  0  0  0  0  0  0
   10.9011  -17.5459   27.0805 C   0  0  0  0  0  0  0  0  0  0  0  0
   11.5242  -18.4101   27.7195 O   0  0  0  0  0  0  0  0  0  0  0  0
    9.9648  -16.7691   27.7384 O   0  0  0  0  0  0  0  0  0  0  0  0
  2  3  1  6
  2  1  1  0
  4  2  1  0
  5  4  1  0
  5  6  1  1
  7  9  1  0
  7  5  1  0
  8  7  2  0
 10  9  1  0
 10 11  1  1
 12 11  1  0
 13 12  2  0
 14 13  1  0
 15 14  1  0
 15 20  2  0
 16 15  1  0
 17 16  2  0
 17 18  1  0
 18 19  2  0
 19 20  1  0
 20 12  1  0
 21 10  1  0
 21 22  2  0
 23 24  1  0
 24 26  1  0
 25 24  2  0
 27 26  1  0
 28 29  1  0
 28 27  1  1
 29 21  1  0
 30 28  1  0
 31 30  2  0
 32 30  1  0
M  END
$$$$
