LWQ.pdb
     RDKit          3D

 32 33  0  0  1  0  0  0  0  0999 V2000
    7.5093  -13.3379   16.8248 C   0  0  0  0  0  0  0  0  0  0  0  0
    7.7152  -13.7839   18.2341 C   0  0  2  0  0  0  0  0  0  0  0  0
    7.8062  -12.5257   19.1058 C   0  0  0  0  0  0  0  0  0  0  0  0
    8.9758  -14.5464   18.4735 C   0  0  0  0  0  0  0  0  0  0  0  0
    8.8223  -15.7739   19.3252 C   0  0  2  0  0  0  0  0  0  0  0  0
    7.5126  -16.3561   19.2728 N   0  0  0  0  0  0  0  0  0  0  0  0
    9.2491  -15.5336   20.7309 C   0  0  0  0  0  0  0  0  0  0  0  0
   10.3870  -15.0733   20.9248 O   0  0  0  0  0  0  0  0  0  0  0  0
    8.4309  -15.8010   21.8434 N   0  0  0  0  0  0  0  0  0  0  0  0
    8.8145  -15.4724   23.2298 C   0  0  1  0  0  0  0  0  0  0  0  0
    7.5387  -15.2814   23.9607 C   0  0  0  0  0  0  0  0  0  0  0  0
    7.6055  -14.8489   25.3488 C   0  0  0  0  0  0  0  0  0  0  0  0
    7.9062  -15.5724   26.4830 C   0  0  0  0  0  0  0  0  0  0  0  0
    7.8263  -14.7614   27.5483 N   0  0  0  0  0  0  0  0  0  0  0  0
    7.4790  -13.5162   27.1427 C   0  0  0  0  0  0  0  0  0  0  0  0
    7.2653  -12.3237   27.8397 C   0  0  0  0  0  0  0  0  0  0  0  0
    6.9108  -11.1720   27.1679 C   0  0  0  0  0  0  0  0  0  0  0  0
    6.7684  -11.2056   25.8010 C   0  0  0  0  0  0  0  0  0  0  0  0
    6.9814  -12.3869   25.1224 C   0  0  0  0  0  0  0  0  0  0  0  0
    7.3415  -13.5652   25.7860 C   0  0  0  0  0  0  0  0  0  0  0  0
    9.7532  -16.4620   23.7541 C   0  0  0  0  0  0  0  0  0  0  0  0
    9.5205  -17.7022   23.4835 O   0  0  0  0  0  0  0  0  0  0  0  0
   16.7278  -17.6842   25.3815 N   0  0  0  0  0  0  0  0  0  0  0  0
   15.6722  -17.0117   24.6952 C   0  0  0  0  0  0  0  0  0  0  0  0
   15.9317  -15.9062   24.1958 O   0  0  0  0  0  0  0  0  0  0  0  0
   14.3493  -17.6849   24.6324 C   0  0  0  0  0  0  0  0  0  0  0  0
   13.2910  -16.6272   24.4483 C   0  0  0  0  0  0  0  0  0  0  0  0
   11.8984  -17.1507   24.6940 C   0  0  2  0  0  0  0  0  0  0  0  0
   10.8913  -16.1193   24.5313 N   0  0  0  0  0  0  0  0  0  0  0  0
   11.8549  -17.6556   26.0706 C   0  0  0  0  0  0  0  0  0  0  0  0
   11.1812  -17.0802   26.9415 O   0  0  0  0  0  0  0  0  0  0  0  0
   12.5706  -18.7880   26.4145 O   0  0  0  0  0  0  0  0  0  0  0  0
  2  3  1  1
  2  1  1  0
  4  2  1  0
  5  4  1  0
  5  6  1  1
  7  9  1  0
  7  5  1  0
  8  7  2  0
 10  9  1  0
 10 11  1  1
 12 11  1  0
 13 12  2  0
 14 13  1  0
 15 14  1  0
 15 20  2  0
 16 15  1  0
 17 16  2  0
 17 18  1  0
 18 19  2  0
 19 20  1  0
 20 12  1  0
 21 10  1  0
 21 22  2  0
 23 24  1  0
 24 26  1  0
 25 24  2  0
 27 26  1  0
 28 29  1  0
 28 27  1  1
 29 21  1  0
 30 28  1  0
 31 30  2  0
 32 30  1  0
M  END
$$$$
