LWQ.pdb
     RDKit          3D

 32 33  0  0  1  0  0  0  0  0999 V2000
    6.7301  -14.0594   18.9696 C   0  0  0  0  0  0  0  0  0  0  0  0
    8.0906  -13.5067   19.2359 C   0  0  2  0  0  0  0  0  0  0  0  0
    8.2162  -12.1960   18.4502 C   0  0  0  0  0  0  0  0  0  0  0  0
    9.2194  -14.3718   18.7828 C   0  0  0  0  0  0  0  0  0  0  0  0
    9.3843  -15.6524   19.5499 C   0  0  2  0  0  0  0  0  0  0  0  0
    8.3648  -16.6248   19.2813 N   0  0  0  0  0  0  0  0  0  0  0  0
    9.5272  -15.4116   21.0119 C   0  0  0  0  0  0  0  0  0  0  0  0
   10.5407  -14.8115   21.4083 O   0  0  0  0  0  0  0  0  0  0  0  0
    8.5757  -15.8282   21.9604 N   0  0  0  0  0  0  0  0  0  0  0  0
    8.6909  -15.5434   23.4037 C   0  0  1  0  0  0  0  0  0  0  0  0
    7.2979  -15.4310   23.8991 C   0  0  0  0  0  0  0  0  0  0  0  0
    7.0971  -15.0875   25.2992 C   0  0  0  0  0  0  0  0  0  0  0  0
    6.9140  -15.9100   26.3901 C   0  0  0  0  0  0  0  0  0  0  0  0
    6.7482  -15.1502   27.4828 N   0  0  0  0  0  0  0  0  0  0  0  0
    6.8177  -13.8418   27.1377 C   0  0  0  0  0  0  0  0  0  0  0  0
    6.7115  -12.6641   27.8827 C   0  0  0  0  0  0  0  0  0  0  0  0
    6.8224  -11.4332   27.2694 C   0  0  0  0  0  0  0  0  0  0  0  0
    7.0392  -11.3729   25.9133 C   0  0  0  0  0  0  0  0  0  0  0  0
    7.1426  -12.5404   25.1869 C   0  0  0  0  0  0  0  0  0  0  0  0
    7.0330  -13.7980   25.7910 C   0  0  0  0  0  0  0  0  0  0  0  0
    9.5640  -16.5179   24.0542 C   0  0  0  0  0  0  0  0  0  0  0  0
    9.4716  -17.7465   23.6704 O   0  0  0  0  0  0  0  0  0  0  0  0
   15.1674  -16.5881   22.4291 N   0  0  0  0  0  0  0  0  0  0  0  0
   14.5658  -16.4356   23.7145 C   0  0  0  0  0  0  0  0  0  0  0  0
   15.2940  -16.0487   24.6413 O   0  0  0  0  0  0  0  0  0  0  0  0
   13.1196  -16.7508   23.8428 C   0  0  0  0  0  0  0  0  0  0  0  0
   12.8098  -16.9535   25.3041 C   0  0  0  0  0  0  0  0  0  0  0  0
   11.3503  -17.2394   25.5536 C   0  0  2  0  0  0  0  0  0  0  0  0
   10.4950  -16.1723   25.0695 N   0  0  0  0  0  0  0  0  0  0  0  0
   11.1716  -17.3820   27.0026 C   0  0  0  0  0  0  0  0  0  0  0  0
   11.8033  -18.2387   27.6434 O   0  0  0  0  0  0  0  0  0  0  0  0
   10.2896  -16.5557   27.6749 O   0  0  0  0  0  0  0  0  0  0  0  0
  2  3  1  6
  2  1  1  0
  4  2  1  0
  5  4  1  0
  5  6  1  1
  7  9  1  0
  7  5  1  0
  8  7  2  0
 10  9  1  0
 10 11  1  1
 12 11  1  0
 13 12  2  0
 14 13  1  0
 15 14  1  0
 15 20  2  0
 16 15  1  0
 17 16  2  0
 17 18  1  0
 18 19  2  0
 19 20  1  0
 20 12  1  0
 21 10  1  0
 21 22  2  0
 23 24  1  0
 24 26  1  0
 25 24  2  0
 27 26  1  0
 28 29  1  0
 28 27  1  1
 29 21  1  0
 30 28  1  0
 31 30  2  0
 32 30  1  0
M  END
$$$$
