LWQ.pdb
     RDKit          3D

 32 33  0  0  1  0  0  0  0  0999 V2000
    7.8241  -14.2086   18.2025 C   0  0  0  0  0  0  0  0  0  0  0  0
    7.3643  -13.6164   19.4930 C   0  0  2  0  0  0  0  0  0  0  0  0
    7.2500  -12.1011   19.2885 C   0  0  0  0  0  0  0  0  0  0  0  0
    8.2982  -13.8108   20.6410 C   0  0  0  0  0  0  0  0  0  0  0  0
    8.5172  -15.2406   21.0451 C   0  0  2  0  0  0  0  0  0  0  0  0
    7.3126  -16.0167   21.1075 N   0  0  0  0  0  0  0  0  0  0  0  0
    9.2941  -15.3494   22.3102 C   0  0  0  0  0  0  0  0  0  0  0  0
   10.3035  -14.6360   22.4383 O   0  0  0  0  0  0  0  0  0  0  0  0
    8.9423  -16.2156   23.3611 N   0  0  0  0  0  0  0  0  0  0  0  0
    9.6370  -16.2354   24.6628 C   0  0  1  0  0  0  0  0  0  0  0  0
    8.5771  -16.4565   25.6758 C   0  0  0  0  0  0  0  0  0  0  0  0
    7.4718  -15.5108   25.7247 C   0  0  0  0  0  0  0  0  0  0  0  0
    6.1358  -15.7027   25.4448 C   0  0  0  0  0  0  0  0  0  0  0  0
    5.4877  -14.5396   25.6062 N   0  0  0  0  0  0  0  0  0  0  0  0
    6.3672  -13.5819   25.9872 C   0  0  0  0  0  0  0  0  0  0  0  0
    6.2128  -12.2241   26.2808 C   0  0  0  0  0  0  0  0  0  0  0  0
    7.2988  -11.4584   26.6520 C   0  0  0  0  0  0  0  0  0  0  0  0
    8.5403  -12.0433   26.7315 C   0  0  0  0  0  0  0  0  0  0  0  0
    8.6824  -13.3835   26.4398 C   0  0  0  0  0  0  0  0  0  0  0  0
    7.5930  -14.1764   26.0617 C   0  0  0  0  0  0  0  0  0  0  0  0
   10.7552  -17.1757   24.6370 C   0  0  0  0  0  0  0  0  0  0  0  0
   10.4752  -18.4268   24.4895 O   0  0  0  0  0  0  0  0  0  0  0  0
   13.6656  -15.7835   20.1956 N   0  0  0  0  0  0  0  0  0  0  0  0
   14.6935  -16.6760   20.6250 C   0  0  0  0  0  0  0  0  0  0  0  0
   15.7288  -16.7218   19.9431 O   0  0  0  0  0  0  0  0  0  0  0  0
   14.4451  -17.4783   21.8505 C   0  0  0  0  0  0  0  0  0  0  0  0
   13.3784  -16.7847   22.6590 C   0  0  0  0  0  0  0  0  0  0  0  0
   13.0769  -17.4965   23.9538 C   0  0  2  0  0  0  0  0  0  0  0  0
   12.1118  -16.7745   24.7613 N   0  0  0  0  0  0  0  0  0  0  0  0
   14.3371  -17.6125   24.6956 C   0  0  0  0  0  0  0  0  0  0  0  0
   14.5848  -16.8642   25.6559 O   0  0  0  0  0  0  0  0  0  0  0  0
   15.2698  -18.5655   24.3288 O   0  0  0  0  0  0  0  0  0  0  0  0
  2  3  1  6
  2  1  1  0
  4  2  1  0
  5  4  1  0
  5  6  1  1
  7  9  1  0
  7  5  1  0
  8  7  2  0
 10  9  1  0
 10 11  1  1
 12 11  1  0
 13 12  2  0
 14 13  1  0
 15 14  1  0
 15 20  2  0
 16 15  1  0
 17 16  2  0
 17 18  1  0
 18 19  2  0
 19 20  1  0
 20 12  1  0
 21 10  1  0
 21 22  2  0
 23 24  1  0
 24 26  1  0
 25 24  2  0
 27 26  1  0
 28 29  1  0
 28 27  1  6
 29 21  1  0
 30 28  1  0
 31 30  2  0
 32 30  1  0
M  END
$$$$
