LWQ.pdb
     RDKit          3D

 32 33  0  0  1  0  0  0  0  0999 V2000
    7.7226  -14.3930   18.4224 C   0  0  0  0  0  0  0  0  0  0  0  0
    7.3498  -13.7958   19.7384 C   0  0  2  0  0  0  0  0  0  0  0  0
    7.1546  -12.2905   19.5213 C   0  0  0  0  0  0  0  0  0  0  0  0
    8.3855  -13.9302   20.8048 C   0  0  0  0  0  0  0  0  0  0  0  0
    8.6672  -15.3394   21.2410 C   0  0  2  0  0  0  0  0  0  0  0  0
    7.5362  -16.2155   21.1381 N   0  0  0  0  0  0  0  0  0  0  0  0
    9.2670  -15.3919   22.6024 C   0  0  0  0  0  0  0  0  0  0  0  0
   10.1702  -14.5826   22.8738 O   0  0  0  0  0  0  0  0  0  0  0  0
    8.8628  -16.3081   23.5902 N   0  0  0  0  0  0  0  0  0  0  0  0
    9.4318  -16.3365   24.9514 C   0  0  1  0  0  0  0  0  0  0  0  0
    8.2729  -16.4887   25.8636 C   0  0  0  0  0  0  0  0  0  0  0  0
    7.2844  -15.4208   25.8953 C   0  0  0  0  0  0  0  0  0  0  0  0
    5.9231  -15.4746   25.6855 C   0  0  0  0  0  0  0  0  0  0  0  0
    5.4183  -14.2368   25.7954 N   0  0  0  0  0  0  0  0  0  0  0  0
    6.4174  -13.3650   26.0738 C   0  0  0  0  0  0  0  0  0  0  0  0
    6.4310  -11.9829   26.2816 C   0  0  0  0  0  0  0  0  0  0  0  0
    7.6131  -11.3258   26.5544 C   0  0  0  0  0  0  0  0  0  0  0  0
    8.7836  -12.0436   26.6207 C   0  0  0  0  0  0  0  0  0  0  0  0
    8.7599  -13.4068   26.4141 C   0  0  0  0  0  0  0  0  0  0  0  0
    7.5711  -14.0910   26.1364 C   0  0  0  0  0  0  0  0  0  0  0  0
   10.5005  -17.3287   25.0436 C   0  0  0  0  0  0  0  0  0  0  0  0
   10.1545  -18.5712   25.0864 O   0  0  0  0  0  0  0  0  0  0  0  0
   14.6870  -15.0029   23.4556 N   0  0  0  0  0  0  0  0  0  0  0  0
   15.3252  -16.2529   23.1950 C   0  0  0  0  0  0  0  0  0  0  0  0
   16.5092  -16.2213   22.8263 O   0  0  0  0  0  0  0  0  0  0  0  0
   14.5252  -17.4904   23.3848 C   0  0  0  0  0  0  0  0  0  0  0  0
   14.2327  -17.6410   24.8559 C   0  0  0  0  0  0  0  0  0  0  0  0
   12.8184  -18.0907   25.1233 C   0  0  2  0  0  0  0  0  0  0  0  0
   11.8782  -16.9865   25.0833 N   0  0  0  0  0  0  0  0  0  0  0  0
   12.7949  -18.6972   26.4588 C   0  0  0  0  0  0  0  0  0  0  0  0
   13.4766  -19.7034   26.7160 O   0  0  0  0  0  0  0  0  0  0  0  0
   12.0057  -18.1485   27.4532 O   0  0  0  0  0  0  0  0  0  0  0  0
  2  3  1  6
  2  1  1  0
  4  2  1  0
  5  4  1  0
  5  6  1  1
  7  9  1  0
  7  5  1  0
  8  7  2  0
 10  9  1  0
 10 11  1  1
 12 11  1  0
 13 12  2  0
 14 13  1  0
 15 14  1  0
 15 20  2  0
 16 15  1  0
 17 16  2  0
 17 18  1  0
 18 19  2  0
 19 20  1  0
 20 12  1  0
 21 10  1  0
 21 22  2  0
 23 24  1  0
 24 26  1  0
 25 24  2  0
 27 26  1  0
 28 29  1  0
 28 27  1  1
 29 21  1  0
 30 28  1  0
 31 30  2  0
 32 30  1  0
M  END
$$$$
