LWQ.pdb
     RDKit          3D

 32 33  0  0  1  0  0  0  0  0999 V2000
    7.7326  -14.3344   18.0916 C   0  0  0  0  0  0  0  0  0  0  0  0
    7.2207  -13.7504   19.3661 C   0  0  2  0  0  0  0  0  0  0  0  0
    6.9856  -12.2546   19.1246 C   0  0  0  0  0  0  0  0  0  0  0  0
    8.1619  -13.8413   20.5209 C   0  0  0  0  0  0  0  0  0  0  0  0
    8.5246  -15.2387   20.9349 C   0  0  2  0  0  0  0  0  0  0  0  0
    7.4067  -16.1355   20.9911 N   0  0  0  0  0  0  0  0  0  0  0  0
    9.2969  -15.2602   22.2073 C   0  0  0  0  0  0  0  0  0  0  0  0
   10.2462  -14.4672   22.3273 O   0  0  0  0  0  0  0  0  0  0  0  0
    9.0052  -16.1297   23.2737 N   0  0  0  0  0  0  0  0  0  0  0  0
    9.7146  -16.0932   24.5671 C   0  0  1  0  0  0  0  0  0  0  0  0
    8.6941  -16.4265   25.5898 C   0  0  0  0  0  0  0  0  0  0  0  0
    7.5505  -15.5368   25.7281 C   0  0  0  0  0  0  0  0  0  0  0  0
    6.2078  -15.7951   25.5534 C   0  0  0  0  0  0  0  0  0  0  0  0
    5.5175  -14.6654   25.7686 N   0  0  0  0  0  0  0  0  0  0  0  0
    6.3756  -13.6648   26.0820 C   0  0  0  0  0  0  0  0  0  0  0  0
    6.1776  -12.3161   26.3906 C   0  0  0  0  0  0  0  0  0  0  0  0
    7.2501  -11.4970   26.6776 C   0  0  0  0  0  0  0  0  0  0  0  0
    8.5216  -12.0194   26.6576 C   0  0  0  0  0  0  0  0  0  0  0  0
    8.7066  -13.3512   26.3519 C   0  0  0  0  0  0  0  0  0  0  0  0
    7.6315  -14.1977   26.0583 C   0  0  0  0  0  0  0  0  0  0  0  0
   10.9192  -16.9190   24.5188 C   0  0  0  0  0  0  0  0  0  0  0  0
   10.7611  -18.1902   24.3621 O   0  0  0  0  0  0  0  0  0  0  0  0
   17.9494  -17.2991   22.5584 N   0  0  0  0  0  0  0  0  0  0  0  0
   16.9282  -16.6909   23.3488 C   0  0  0  0  0  0  0  0  0  0  0  0
   17.1080  -15.5163   23.7048 O   0  0  0  0  0  0  0  0  0  0  0  0
   15.7334  -17.5084   23.6828 C   0  0  0  0  0  0  0  0  0  0  0  0
   14.5843  -16.5722   23.9579 C   0  0  0  0  0  0  0  0  0  0  0  0
   13.3249  -17.3003   24.3548 C   0  0  2  0  0  0  0  0  0  0  0  0
   12.2314  -16.3879   24.6313 N   0  0  0  0  0  0  0  0  0  0  0  0
   13.6265  -18.0735   25.5643 C   0  0  0  0  0  0  0  0  0  0  0  0
   13.9989  -19.2564   25.4906 O   0  0  0  0  0  0  0  0  0  0  0  0
   13.4979  -17.4863   26.8099 O   0  0  0  0  0  0  0  0  0  0  0  0
  2  3  1  6
  2  1  1  0
  4  2  1  0
  5  4  1  0
  5  6  1  1
  7  9  1  0
  7  5  1  0
  8  7  2  0
 10  9  1  0
 10 11  1  1
 12 11  1  0
 13 12  2  0
 14 13  1  0
 15 14  1  0
 15 20  2  0
 16 15  1  0
 17 16  2  0
 17 18  1  0
 18 19  2  0
 19 20  1  0
 20 12  1  0
 21 10  1  0
 21 22  2  0
 23 24  1  0
 24 26  1  0
 25 24  2  0
 27 26  1  0
 28 29  1  0
 28 27  1  1
 29 21  1  0
 30 28  1  0
 31 30  2  0
 32 30  1  0
M  END
$$$$
