QQV.pdb
     RDKit          3D

 26 25  0  0  1  0  0  0  0  0999 V2000
   20.1561  -32.6362   -4.0194 N   0  0  0  0  0  0  0  0  0  0  0  0
   18.8692  -32.8642   -4.6169 C   0  0  0  0  0  0  0  0  0  0  0  0
   17.9417  -32.1091   -4.2552 O   0  0  0  0  0  0  0  0  0  0  0  0
   18.7530  -33.9612   -5.5965 C   0  0  0  0  0  0  0  0  0  0  0  0
   20.0444  -34.6650   -5.8577 C   0  0  0  0  0  0  0  0  0  0  0  0
   20.7642  -33.9926   -6.9894 C   0  0  2  0  0  0  0  0  0  0  0  0
   20.2722  -34.5997   -8.2250 N   0  0  0  0  0  0  0  0  0  0  0  0
   22.2384  -34.2739   -6.9174 C   0  0  0  0  0  0  0  0  0  0  0  0
   22.7177  -35.2690   -7.4794 O   0  0  0  0  0  0  0  0  0  0  0  0
   25.9431  -33.1441  -10.0772 N   0  0  0  0  0  0  0  0  0  0  0  0
   26.2123  -32.8260   -8.7376 C   0  0  0  0  0  0  0  0  0  0  0  0
   27.2329  -33.2152   -8.1693 O   0  0  0  0  0  0  0  0  0  0  0  0
   25.2302  -31.9913   -7.9787 C   0  0  0  0  0  0  0  0  0  0  0  0
   25.2095  -32.4053   -6.5363 C   0  0  0  0  0  0  0  0  0  0  0  0
   24.5589  -33.7051   -6.2421 C   0  0  2  0  0  0  0  0  0  0  0  0
   23.1062  -33.4131   -6.2085 N   0  0  0  0  0  0  0  0  0  0  0  0
   24.8762  -34.1893   -4.8623 C   0  0  0  0  0  0  0  0  0  0  0  0
   24.3164  -33.6796   -3.8525 O   0  0  0  0  0  0  0  0  0  0  0  0
   25.2681  -38.0287   -4.1112 C   0  0  0  0  0  0  0  0  0  0  0  0
   26.3886  -37.2591   -3.4464 C   0  0  2  0  0  0  0  0  0  0  0  0
   26.6551  -37.8358   -2.0537 C   0  0  0  0  0  0  0  0  0  0  0  0
   25.9842  -35.7857   -3.2937 C   0  0  2  0  0  0  0  0  0  0  0  0
   25.8031  -35.2328   -4.6410 N   0  0  0  0  0  0  0  0  0  0  0  0
   27.0264  -35.0723   -2.5295 C   0  0  0  0  0  0  0  0  0  0  0  0
   28.0272  -34.6313   -3.1333 O   0  0  0  0  0  0  0  0  0  0  0  0
   26.9069  -34.8907   -1.1746 O   0  0  0  0  0  0  0  0  0  0  0  0
  1  2  1  0
  2  4  1  0
  2  3  2  0
  4  5  1  0
  5  6  1  0
  6  7  1  6
  6  8  1  0
  8  9  2  0
 11 12  2  0
 11 10  1  0
 13 11  1  0
 15 14  1  1
 14 13  1  0
 15 17  1  0
 16  8  1  0
 16 15  1  0
 17 18  2  0
 20 19  1  1
 20 22  1  0
 21 20  1  0
 22 24  1  0
 22 23  1  6
 23 17  1  0
 24 26  1  0
 25 24  2  0
M  END
$$$$
