QQV.pdb
     RDKit          3D

 26 25  0  0  1  0  0  0  0  0999 V2000
   24.9636  -17.1822  -18.6002 N   0  0  0  0  0  0  0  0  0  0  0  0
   26.2905  -17.6691  -18.8595 C   0  0  0  0  0  0  0  0  0  0  0  0
   27.0366  -16.9296  -19.5361 O   0  0  0  0  0  0  0  0  0  0  0  0
   26.6557  -18.9893  -18.3112 C   0  0  0  0  0  0  0  0  0  0  0  0
   25.5435  -19.6526  -17.5667 C   0  0  0  0  0  0  0  0  0  0  0  0
   25.8659  -19.6827  -16.1018 C   0  0  2  0  0  0  0  0  0  0  0  0
   27.1809  -20.3078  -15.9700 N   0  0  0  0  0  0  0  0  0  0  0  0
   24.8885  -20.5542  -15.3650 C   0  0  0  0  0  0  0  0  0  0  0  0
   24.5479  -21.6511  -15.8302 O   0  0  0  0  0  0  0  0  0  0  0  0
   24.3284  -21.0238   -9.3265 N   0  0  0  0  0  0  0  0  0  0  0  0
   25.4150  -21.3695  -10.1439 C   0  0  0  0  0  0  0  0  0  0  0  0
   26.5282  -21.6125   -9.6772 O   0  0  0  0  0  0  0  0  0  0  0  0
   25.2146  -21.4435  -11.6242 C   0  0  0  0  0  0  0  0  0  0  0  0
   23.8377  -20.9648  -11.9814 C   0  0  0  0  0  0  0  0  0  0  0  0
   23.4560  -21.0894  -13.4090 C   0  0  2  0  0  0  0  0  0  0  0  0
   24.3379  -20.1417  -14.1307 N   0  0  0  0  0  0  0  0  0  0  0  0
   22.0716  -20.5818  -13.6637 C   0  0  0  0  0  0  0  0  0  0  0  0
   21.8123  -19.3482  -13.5997 O   0  0  0  0  0  0  0  0  0  0  0  0
   20.1695  -21.2150  -16.7336 C   0  0  0  0  0  0  0  0  0  0  0  0
   19.2177  -21.5791  -15.6149 C   0  0  2  0  0  0  0  0  0  0  0  0
   17.8143  -21.0639  -15.9435 C   0  0  0  0  0  0  0  0  0  0  0  0
   19.6828  -20.9235  -14.3066 C   0  0  2  0  0  0  0  0  0  0  0  0
   21.0123  -21.4583  -13.9898 N   0  0  0  0  0  0  0  0  0  0  0  0
   18.6968  -21.2048  -13.2447 C   0  0  0  0  0  0  0  0  0  0  0  0
   18.7118  -22.3203  -12.6823 O   0  0  0  0  0  0  0  0  0  0  0  0
   17.7725  -20.2611  -12.8731 O   0  0  0  0  0  0  0  0  0  0  0  0
  1  2  1  0
  2  4  1  0
  2  3  2  0
  4  5  1  0
  5  6  1  0
  6  7  1  6
  6  8  1  0
  8  9  2  0
 11 12  2  0
 11 10  1  0
 13 11  1  0
 15 14  1  1
 14 13  1  0
 15 17  1  0
 16  8  1  0
 16 15  1  0
 17 18  2  0
 20 19  1  6
 20 22  1  0
 21 20  1  0
 22 24  1  0
 22 23  1  1
 23 17  1  0
 24 26  1  0
 25 24  2  0
M  END
$$$$
