QQV.pdb
     RDKit          3D

 26 25  0  0  1  0  0  0  0  0999 V2000
   29.5050  -16.7521  -18.0996 N   0  0  0  0  0  0  0  0  0  0  0  0
   29.0630  -18.0331  -18.5775 C   0  0  0  0  0  0  0  0  0  0  0  0
   29.4404  -18.3651  -19.7215 O   0  0  0  0  0  0  0  0  0  0  0  0
   28.2079  -18.8398  -17.6859 C   0  0  0  0  0  0  0  0  0  0  0  0
   27.9980  -18.2208  -16.3428 C   0  0  0  0  0  0  0  0  0  0  0  0
   28.0305  -19.2861  -15.2869 C   0  0  2  0  0  0  0  0  0  0  0  0
   27.5960  -20.5280  -15.9242 N   0  0  0  0  0  0  0  0  0  0  0  0
   27.0404  -18.9800  -14.1989 C   0  0  0  0  0  0  0  0  0  0  0  0
   27.0683  -17.8896  -13.6107 O   0  0  0  0  0  0  0  0  0  0  0  0
   21.3747  -20.7172  -14.3557 N   0  0  0  0  0  0  0  0  0  0  0  0
   21.6077  -21.1350  -13.0368 C   0  0  0  0  0  0  0  0  0  0  0  0
   20.7758  -21.7863  -12.4045 O   0  0  0  0  0  0  0  0  0  0  0  0
   22.9033  -20.7773  -12.3808 C   0  0  0  0  0  0  0  0  0  0  0  0
   23.7590  -19.9881  -13.3282 C   0  0  0  0  0  0  0  0  0  0  0  0
   25.0667  -19.5324  -12.7977 C   0  0  2  0  0  0  0  0  0  0  0  0
   26.0606  -19.9266  -13.8240 N   0  0  0  0  0  0  0  0  0  0  0  0
   25.4692  -20.2935  -11.5738 C   0  0  0  0  0  0  0  0  0  0  0  0
   25.8510  -21.4938  -11.6541 O   0  0  0  0  0  0  0  0  0  0  0  0
   27.3959  -18.6924   -8.5058 C   0  0  0  0  0  0  0  0  0  0  0  0
   26.2288  -19.5160   -8.0065 C   0  0  2  0  0  0  0  0  0  0  0  0
   26.6572  -20.3283   -6.7818 C   0  0  0  0  0  0  0  0  0  0  0  0
   25.7774  -20.4911   -9.1035 C   0  0  2  0  0  0  0  0  0  0  0  0
   25.4432  -19.6983  -10.2924 N   0  0  0  0  0  0  0  0  0  0  0  0
   24.6289  -21.2776   -8.6121 C   0  0  0  0  0  0  0  0  0  0  0  0
   24.8348  -22.2271   -7.8266 O   0  0  0  0  0  0  0  0  0  0  0  0
   23.3492  -20.9782   -9.0066 O   0  0  0  0  0  0  0  0  0  0  0  0
  1  2  1  0
  2  4  1  0
  2  3  2  0
  4  5  1  0
  5  6  1  0
  6  7  1  6
  6  8  1  0
  8  9  2  0
 11 12  2  0
 11 10  1  0
 13 11  1  0
 15 14  1  6
 14 13  1  0
 15 17  1  0
 16  8  1  0
 16 15  1  0
 17 18  2  0
 20 19  1  6
 20 22  1  0
 21 20  1  0
 22 24  1  0
 22 23  1  6
 23 17  1  0
 24 26  1  0
 25 24  2  0
M  END
$$$$
