QQV.pdb
     RDKit          3D

 26 25  0  0  1  0  0  0  0  0999 V2000
   29.5585  -19.0573  -17.6417 N   0  0  0  0  0  0  0  0  0  0  0  0
   29.4362  -20.0341  -18.6885 C   0  0  0  0  0  0  0  0  0  0  0  0
   30.3466  -20.0557  -19.5440 O   0  0  0  0  0  0  0  0  0  0  0  0
   28.2563  -20.9196  -18.6655 C   0  0  0  0  0  0  0  0  0  0  0  0
   27.3156  -20.6282  -17.5423 C   0  0  0  0  0  0  0  0  0  0  0  0
   27.7093  -21.4279  -16.3355 C   0  0  2  0  0  0  0  0  0  0  0  0
   28.2644  -22.6887  -16.8251 N   0  0  0  0  0  0  0  0  0  0  0  0
   26.4997  -21.7698  -15.5125 C   0  0  0  0  0  0  0  0  0  0  0  0
   25.7888  -22.7401  -15.8107 O   0  0  0  0  0  0  0  0  0  0  0  0
   26.0052  -20.1928   -9.6969 N   0  0  0  0  0  0  0  0  0  0  0  0
   24.8293  -20.9542   -9.7727 C   0  0  0  0  0  0  0  0  0  0  0  0
   24.1720  -21.2368   -8.7706 O   0  0  0  0  0  0  0  0  0  0  0  0
   24.3625  -21.4369  -11.1092 C   0  0  0  0  0  0  0  0  0  0  0  0
   25.3442  -21.0378  -12.1719 C   0  0  0  0  0  0  0  0  0  0  0  0
   25.0049  -21.4454  -13.5568 C   0  0  2  0  0  0  0  0  0  0  0  0
   26.1476  -20.9936  -14.3854 N   0  0  0  0  0  0  0  0  0  0  0  0
   23.8310  -20.6866  -14.0909 C   0  0  0  0  0  0  0  0  0  0  0  0
   23.8989  -19.4414  -14.2853 O   0  0  0  0  0  0  0  0  0  0  0  0
   20.7497  -22.5744  -16.1055 C   0  0  0  0  0  0  0  0  0  0  0  0
   21.0094  -21.0868  -16.2023 C   0  0  2  0  0  0  0  0  0  0  0  0
   22.1300  -20.8233  -17.2112 C   0  0  0  0  0  0  0  0  0  0  0  0
   21.4506  -20.5488  -14.8335 C   0  0  2  0  0  0  0  0  0  0  0  0
   22.6135  -21.3332  -14.4018 N   0  0  0  0  0  0  0  0  0  0  0  0
   20.3232  -20.6482  -13.8858 C   0  0  0  0  0  0  0  0  0  0  0  0
   19.3851  -19.8275  -13.9699 O   0  0  0  0  0  0  0  0  0  0  0  0
   20.2965  -21.6249  -12.9221 O   0  0  0  0  0  0  0  0  0  0  0  0
  1  2  1  0
  2  4  1  0
  2  3  2  0
  4  5  1  0
  5  6  1  0
  6  7  1  6
  6  8  1  0
  8  9  2  0
 11 12  2  0
 11 10  1  0
 13 11  1  0
 15 14  1  1
 14 13  1  0
 15 17  1  0
 16  8  1  0
 16 15  1  0
 17 18  2  0
 20 19  1  1
 20 22  1  0
 21 20  1  0
 22 24  1  0
 22 23  1  1
 23 17  1  0
 24 26  1  0
 25 24  2  0
M  END
$$$$
