QQV.pdb
     RDKit          3D

 26 25  0  0  1  0  0  0  0  0999 V2000
   33.9614   -7.9451  -15.2860 N   0  0  0  0  0  0  0  0  0  0  0  0
   35.0439   -7.5315  -16.1357 C   0  0  0  0  0  0  0  0  0  0  0  0
   34.8008   -6.6109  -16.9448 O   0  0  0  0  0  0  0  0  0  0  0  0
   36.3381   -8.2233  -15.9833 C   0  0  0  0  0  0  0  0  0  0  0  0
   36.7560   -8.3965  -14.5596 C   0  0  0  0  0  0  0  0  0  0  0  0
   38.0207   -9.2013  -14.5006 C   0  0  2  0  0  0  0  0  0  0  0  0
   37.6723  -10.5674  -14.8874 N   0  0  0  0  0  0  0  0  0  0  0  0
   38.5415   -9.2618  -13.0926 C   0  0  0  0  0  0  0  0  0  0  0  0
   38.1485  -10.1414  -12.3131 O   0  0  0  0  0  0  0  0  0  0  0  0
   42.1525  -10.9235  -10.3565 N   0  0  0  0  0  0  0  0  0  0  0  0
   42.5707   -9.8183   -9.6002 C   0  0  0  0  0  0  0  0  0  0  0  0
   43.2040   -9.9496   -8.5524 O   0  0  0  0  0  0  0  0  0  0  0  0
   42.2363   -8.4420  -10.0807 C   0  0  0  0  0  0  0  0  0  0  0  0
   41.4639   -8.5192  -11.3653 C   0  0  0  0  0  0  0  0  0  0  0  0
   39.9874   -8.4588  -11.2409 C   0  0  2  0  0  0  0  0  0  0  0  0
   39.4864   -8.3191  -12.6286 N   0  0  0  0  0  0  0  0  0  0  0  0
   39.5353   -7.2101  -10.5513 C   0  0  0  0  0  0  0  0  0  0  0  0
   39.5802   -6.0937  -11.1383 O   0  0  0  0  0  0  0  0  0  0  0  0
   36.5549   -7.1875   -7.8958 C   0  0  0  0  0  0  0  0  0  0  0  0
   37.7188   -6.3616   -7.3928 C   0  0  2  0  0  0  0  0  0  0  0  0
   37.1981   -5.0709   -6.7555 C   0  0  0  0  0  0  0  0  0  0  0  0
   38.6345   -5.9891   -8.5678 C   0  0  2  0  0  0  0  0  0  0  0  0
   39.0385   -7.2357   -9.2286 N   0  0  0  0  0  0  0  0  0  0  0  0
   39.7896   -5.2230   -8.0600 C   0  0  0  0  0  0  0  0  0  0  0  0
   40.7455   -5.8380   -7.5415 O   0  0  0  0  0  0  0  0  0  0  0  0
   39.8226   -3.8542   -8.1514 O   0  0  0  0  0  0  0  0  0  0  0  0
  1  2  1  0
  2  4  1  0
  2  3  2  0
  4  5  1  0
  5  6  1  0
  6  7  1  1
  6  8  1  0
  8  9  2  0
 11 12  2  0
 11 10  1  0
 13 11  1  0
 15 14  1  6
 14 13  1  0
 15 17  1  0
 16  8  1  0
 16 15  1  0
 17 18  2  0
 20 19  1  6
 20 22  1  0
 21 20  1  0
 22 24  1  0
 22 23  1  1
 23 17  1  0
 24 26  1  0
 25 24  2  0
M  END
$$$$
