QQV.pdb
     RDKit          3D

 26 25  0  0  1  0  0  0  0  0999 V2000
   17.3490  -22.4646   -9.7200 N   0  0  0  0  0  0  0  0  0  0  0  0
   18.0116  -23.2477  -10.7263 C   0  0  0  0  0  0  0  0  0  0  0  0
   18.5968  -22.6166  -11.6322 O   0  0  0  0  0  0  0  0  0  0  0  0
   17.9444  -24.7166  -10.6065 C   0  0  0  0  0  0  0  0  0  0  0  0
   17.1710  -25.1817   -9.4162 C   0  0  0  0  0  0  0  0  0  0  0  0
   18.0352  -25.1029   -8.1923 C   0  0  2  0  0  0  0  0  0  0  0  0
   19.0173  -26.1808   -8.2966 N   0  0  0  0  0  0  0  0  0  0  0  0
   17.2228  -25.3659   -6.9559 C   0  0  0  0  0  0  0  0  0  0  0  0
   15.9858  -25.2991   -6.9893 O   0  0  0  0  0  0  0  0  0  0  0  0
   19.7502  -27.4514   -1.7784 N   0  0  0  0  0  0  0  0  0  0  0  0
   19.2811  -28.4233   -2.6749 C   0  0  0  0  0  0  0  0  0  0  0  0
   19.6441  -29.5981   -2.6088 O   0  0  0  0  0  0  0  0  0  0  0  0
   18.3136  -28.0195   -3.7416 C   0  0  0  0  0  0  0  0  0  0  0  0
   17.9103  -26.5860   -3.5545 C   0  0  0  0  0  0  0  0  0  0  0  0
   16.9889  -26.0312   -4.5754 C   0  0  2  0  0  0  0  0  0  0  0  0
   17.8504  -25.6925   -5.7328 N   0  0  0  0  0  0  0  0  0  0  0  0
   16.4037  -24.7221   -4.1476 C   0  0  0  0  0  0  0  0  0  0  0  0
   17.0742  -23.6559   -4.2280 O   0  0  0  0  0  0  0  0  0  0  0  0
   12.2660  -24.2608   -3.6582 C   0  0  0  0  0  0  0  0  0  0  0  0
   13.2141  -23.1268   -3.9824 C   0  0  2  0  0  0  0  0  0  0  0  0
   13.5017  -23.1086   -5.4857 C   0  0  0  0  0  0  0  0  0  0  0  0
   14.5400  -23.3322   -3.2357 C   0  0  2  0  0  0  0  0  0  0  0  0
   15.0852  -24.6311   -3.6474 N   0  0  0  0  0  0  0  0  0  0  0  0
   14.2951  -23.2615   -1.7817 C   0  0  0  0  0  0  0  0  0  0  0  0
   14.2536  -24.3209   -1.1208 O   0  0  0  0  0  0  0  0  0  0  0  0
   14.1143  -22.0541   -1.1553 O   0  0  0  0  0  0  0  0  0  0  0  0
  1  2  1  0
  2  4  1  0
  2  3  2  0
  4  5  1  0
  5  6  1  0
  6  7  1  6
  6  8  1  0
  8  9  2  0
 11 12  2  0
 11 10  1  0
 13 11  1  0
 15 14  1  1
 14 13  1  0
 15 17  1  0
 16  8  1  0
 16 15  1  0
 17 18  2  0
 20 19  1  6
 20 22  1  0
 21 20  1  0
 22 24  1  0
 22 23  1  1
 23 17  1  0
 24 26  1  0
 25 24  2  0
M  END
$$$$
