QQV.pdb
     RDKit          3D

 26 25  0  0  1  0  0  0  0  0999 V2000
   30.0917  -22.6814  -16.7368 N   0  0  0  0  0  0  0  0  0  0  0  0
   29.6914  -21.9845  -17.9280 C   0  0  0  0  0  0  0  0  0  0  0  0
   30.4066  -22.1471  -18.9395 O   0  0  0  0  0  0  0  0  0  0  0  0
   28.4819  -21.1427  -17.8561 C   0  0  0  0  0  0  0  0  0  0  0  0
   28.0193  -20.8839  -16.4595 C   0  0  0  0  0  0  0  0  0  0  0  0
   27.6341  -22.1796  -15.8086 C   0  0  2  0  0  0  0  0  0  0  0  0
   27.5207  -23.1727  -16.8754 N   0  0  0  0  0  0  0  0  0  0  0  0
   26.2798  -22.0652  -15.1680 C   0  0  0  0  0  0  0  0  0  0  0  0
   25.2834  -22.5665  -15.7082 O   0  0  0  0  0  0  0  0  0  0  0  0
   25.6367  -20.8493   -9.2382 N   0  0  0  0  0  0  0  0  0  0  0  0
   24.2703  -20.9757   -9.5303 C   0  0  0  0  0  0  0  0  0  0  0  0
   23.4100  -20.9246   -8.6509 O   0  0  0  0  0  0  0  0  0  0  0  0
   23.8479  -21.1796  -10.9506 C   0  0  0  0  0  0  0  0  0  0  0  0
   25.0521  -21.2107  -11.8459 C   0  0  0  0  0  0  0  0  0  0  0  0
   24.7854  -21.4395  -13.2866 C   0  0  2  0  0  0  0  0  0  0  0  0
   26.1141  -21.3846  -13.9408 N   0  0  0  0  0  0  0  0  0  0  0  0
   24.0186  -20.3100  -13.8994 C   0  0  0  0  0  0  0  0  0  0  0  0
   24.5421  -19.1695  -14.0334 O   0  0  0  0  0  0  0  0  0  0  0  0
   21.1639  -20.9212  -16.7154 C   0  0  0  0  0  0  0  0  0  0  0  0
   21.8750  -19.6094  -16.4638 C   0  0  2  0  0  0  0  0  0  0  0  0
   23.2950  -19.6752  -17.0316 C   0  0  0  0  0  0  0  0  0  0  0  0
   21.9667  -19.3526  -14.9527 C   0  0  2  0  0  0  0  0  0  0  0  0
   22.6913  -20.4795  -14.3537 N   0  0  0  0  0  0  0  0  0  0  0  0
   20.6054  -19.2038  -14.4015 C   0  0  0  0  0  0  0  0  0  0  0  0
   20.1523  -20.0960  -13.6535 O   0  0  0  0  0  0  0  0  0  0  0  0
   19.8401  -18.1046  -14.7004 O   0  0  0  0  0  0  0  0  0  0  0  0
  1  2  1  0
  2  4  1  0
  2  3  2  0
  4  5  1  0
  5  6  1  0
  6  7  1  6
  6  8  1  0
  8  9  2  0
 11 12  2  0
 11 10  1  0
 13 11  1  0
 15 14  1  1
 14 13  1  0
 15 17  1  0
 16  8  1  0
 16 15  1  0
 17 18  2  0
 20 19  1  1
 20 22  1  0
 21 20  1  0
 22 24  1  0
 22 23  1  1
 23 17  1  0
 24 26  1  0
 25 24  2  0
M  END
$$$$
