QQV.pdb
     RDKit          3D

 26 25  0  0  1  0  0  0  0  0999 V2000
   29.6270  -17.2907  -18.2447 N   0  0  0  0  0  0  0  0  0  0  0  0
   28.5521  -18.2291  -18.4149 C   0  0  0  0  0  0  0  0  0  0  0  0
   28.7587  -19.1821  -19.1961 O   0  0  0  0  0  0  0  0  0  0  0  0
   27.3068  -17.9893  -17.6610 C   0  0  0  0  0  0  0  0  0  0  0  0
   27.5293  -17.3311  -16.3386 C   0  0  0  0  0  0  0  0  0  0  0  0
   28.0486  -18.3387  -15.3558 C   0  0  2  0  0  0  0  0  0  0  0  0
   28.3053  -19.5679  -16.1045 N   0  0  0  0  0  0  0  0  0  0  0  0
   27.0011  -18.6603  -14.3277 C   0  0  0  0  0  0  0  0  0  0  0  0
   26.4267  -17.7531  -13.7090 O   0  0  0  0  0  0  0  0  0  0  0  0
   23.9110  -24.3042  -13.4540 N   0  0  0  0  0  0  0  0  0  0  0  0
   23.1375  -23.1588  -13.2129 C   0  0  0  0  0  0  0  0  0  0  0  0
   21.9389  -23.1131  -13.4914 O   0  0  0  0  0  0  0  0  0  0  0  0
   23.7887  -21.9592  -12.6014 C   0  0  0  0  0  0  0  0  0  0  0  0
   24.8783  -21.4513  -13.4999 C   0  0  0  0  0  0  0  0  0  0  0  0
   25.6022  -20.2464  -13.0272 C   0  0  2  0  0  0  0  0  0  0  0  0
   26.6512  -19.9997  -14.0446 N   0  0  0  0  0  0  0  0  0  0  0  0
   26.3595  -20.5094  -11.7637 C   0  0  0  0  0  0  0  0  0  0  0  0
   27.2456  -21.4069  -11.7147 O   0  0  0  0  0  0  0  0  0  0  0  0
   27.9761  -18.5963   -8.7587 C   0  0  0  0  0  0  0  0  0  0  0  0
   26.7014  -19.2632   -8.2897 C   0  0  2  0  0  0  0  0  0  0  0  0
   26.9230  -19.8867   -6.9094 C   0  0  0  0  0  0  0  0  0  0  0  0
   26.3103  -20.3783   -9.2703 C   0  0  2  0  0  0  0  0  0  0  0  0
   26.1169  -19.7630  -10.5886 N   0  0  0  0  0  0  0  0  0  0  0  0
   25.0910  -21.0509   -8.7803 C   0  0  0  0  0  0  0  0  0  0  0  0
   23.9748  -20.6303   -9.1515 O   0  0  0  0  0  0  0  0  0  0  0  0
   25.1718  -22.1239   -7.9288 O   0  0  0  0  0  0  0  0  0  0  0  0
  1  2  1  0
  2  4  1  0
  2  3  2  0
  4  5  1  0
  5  6  1  0
  6  7  1  6
  6  8  1  0
  8  9  2  0
 11 12  2  0
 11 10  1  0
 13 11  1  0
 15 14  1  6
 14 13  1  0
 15 17  1  0
 16  8  1  0
 16 15  1  0
 17 18  2  0
 20 19  1  6
 20 22  1  0
 21 20  1  0
 22 24  1  0
 22 23  1  6
 23 17  1  0
 24 26  1  0
 25 24  2  0
M  END
$$$$
