QQV.pdb
     RDKit          3D

 26 25  0  0  1  0  0  0  0  0999 V2000
   27.9786  -21.7685  -13.8777 N   0  0  0  0  0  0  0  0  0  0  0  0
   27.4281  -21.2165  -15.0848 C   0  0  0  0  0  0  0  0  0  0  0  0
   27.1627  -22.0244  -16.0003 O   0  0  0  0  0  0  0  0  0  0  0  0
   27.2260  -19.7561  -15.1410 C   0  0  0  0  0  0  0  0  0  0  0  0
   25.8537  -19.3293  -14.7337 C   0  0  0  0  0  0  0  0  0  0  0  0
   24.9027  -20.4796  -14.8863 C   0  0  2  0  0  0  0  0  0  0  0  0
   24.8038  -20.7609  -16.3175 N   0  0  0  0  0  0  0  0  0  0  0  0
   23.5284  -20.0928  -14.4178 C   0  0  0  0  0  0  0  0  0  0  0  0
   23.3660  -19.5710  -13.3055 O   0  0  0  0  0  0  0  0  0  0  0  0
   18.9270  -17.4252  -14.5650 N   0  0  0  0  0  0  0  0  0  0  0  0
   19.8846  -16.9436  -15.4702 C   0  0  0  0  0  0  0  0  0  0  0  0
   20.0340  -15.7394  -15.6793 O   0  0  0  0  0  0  0  0  0  0  0  0
   20.7472  -17.9218  -16.2023 C   0  0  0  0  0  0  0  0  0  0  0  0
   20.3499  -19.3247  -15.8469 C   0  0  0  0  0  0  0  0  0  0  0  0
   21.0669  -19.9330  -14.7002 C   0  0  2  0  0  0  0  0  0  0  0  0
   22.3958  -20.3165  -15.2326 N   0  0  0  0  0  0  0  0  0  0  0  0
   20.4457  -21.2261  -14.2749 C   0  0  0  0  0  0  0  0  0  0  0  0
   20.6542  -22.2887  -14.9231 O   0  0  0  0  0  0  0  0  0  0  0  0
   18.1374  -21.4416  -10.7084 C   0  0  0  0  0  0  0  0  0  0  0  0
   18.9990  -22.5942  -11.1762 C   0  0  2  0  0  0  0  0  0  0  0  0
   20.4192  -22.4322  -10.6286 C   0  0  0  0  0  0  0  0  0  0  0  0
   19.0666  -22.5997  -12.7102 C   0  0  2  0  0  0  0  0  0  0  0  0
   19.6137  -21.3060  -13.1354 N   0  0  0  0  0  0  0  0  0  0  0  0
   17.7169  -22.8450  -13.2555 C   0  0  0  0  0  0  0  0  0  0  0  0
   17.0368  -21.8751  -13.6520 O   0  0  0  0  0  0  0  0  0  0  0  0
   17.2074  -24.1170  -13.3300 O   0  0  0  0  0  0  0  0  0  0  0  0
  1  2  1  0
  2  4  1  0
  2  3  2  0
  4  5  1  0
  5  6  1  0
  6  7  1  6
  6  8  1  0
  8  9  2  0
 11 12  2  0
 11 10  1  0
 13 11  1  0
 15 14  1  6
 14 13  1  0
 15 17  1  0
 16  8  1  0
 16 15  1  0
 17 18  2  0
 20 19  1  6
 20 22  1  0
 21 20  1  0
 22 24  1  0
 22 23  1  6
 23 17  1  0
 24 26  1  0
 25 24  2  0
M  END
$$$$
