QQV.pdb
     RDKit          3D

 26 25  0  0  1  0  0  0  0  0999 V2000
   26.1451  -17.9133  -15.7369 N   0  0  0  0  0  0  0  0  0  0  0  0
   26.8846  -18.8768  -16.5049 C   0  0  0  0  0  0  0  0  0  0  0  0
   26.2727  -19.4376  -17.4388 O   0  0  0  0  0  0  0  0  0  0  0  0
   28.2900  -19.1210  -16.1282 C   0  0  0  0  0  0  0  0  0  0  0  0
   28.5646  -18.8962  -14.6772 C   0  0  0  0  0  0  0  0  0  0  0  0
   28.0761  -20.0724  -13.8842 C   0  0  2  0  0  0  0  0  0  0  0  0
   27.2440  -20.8724  -14.7815 N   0  0  0  0  0  0  0  0  0  0  0  0
   27.1949  -19.6175  -12.7555 C   0  0  0  0  0  0  0  0  0  0  0  0
   26.9262  -18.4163  -12.6111 O   0  0  0  0  0  0  0  0  0  0  0  0
   22.0026  -21.4627  -12.1818 N   0  0  0  0  0  0  0  0  0  0  0  0
   21.9478  -20.7831  -10.9557 C   0  0  0  0  0  0  0  0  0  0  0  0
   20.8918  -20.6380  -10.3393 O   0  0  0  0  0  0  0  0  0  0  0  0
   23.2084  -20.2181  -10.3825 C   0  0  0  0  0  0  0  0  0  0  0  0
   24.3673  -20.5263  -11.2851 C   0  0  0  0  0  0  0  0  0  0  0  0
   25.6943  -20.0500  -10.8253 C   0  0  2  0  0  0  0  0  0  0  0  0
   26.6568  -20.5467  -11.8369 N   0  0  0  0  0  0  0  0  0  0  0  0
   26.1147  -20.7116   -9.5508 C   0  0  0  0  0  0  0  0  0  0  0  0
   26.3310  -21.9542   -9.5070 O   0  0  0  0  0  0  0  0  0  0  0  0
   28.5971  -19.1840   -6.8300 C   0  0  0  0  0  0  0  0  0  0  0  0
   27.3120  -19.6538   -6.1838 C   0  0  2  0  0  0  0  0  0  0  0  0
   27.6257  -20.3451   -4.8546 C   0  0  0  0  0  0  0  0  0  0  0  0
   26.6100  -20.6633   -7.1035 C   0  0  2  0  0  0  0  0  0  0  0  0
   26.2904  -19.9733   -8.3587 N   0  0  0  0  0  0  0  0  0  0  0  0
   25.4056  -21.1824   -6.4259 C   0  0  0  0  0  0  0  0  0  0  0  0
   24.2799  -20.8077   -6.8170 O   0  0  0  0  0  0  0  0  0  0  0  0
   25.5104  -22.0647   -5.3801 O   0  0  0  0  0  0  0  0  0  0  0  0
  1  2  1  0
  2  4  1  0
  2  3  2  0
  4  5  1  0
  5  6  1  0
  6  7  1  6
  6  8  1  0
  8  9  2  0
 11 12  2  0
 11 10  1  0
 13 11  1  0
 15 14  1  6
 14 13  1  0
 15 17  1  0
 16  8  1  0
 16 15  1  0
 17 18  2  0
 20 19  1  6
 20 22  1  0
 21 20  1  0
 22 24  1  0
 22 23  1  6
 23 17  1  0
 24 26  1  0
 25 24  2  0
M  END
$$$$
