QQV.pdb
     RDKit          3D

 26 25  0  0  1  0  0  0  0  0999 V2000
   24.4061  -19.0828  -18.3977 N   0  0  0  0  0  0  0  0  0  0  0  0
   25.3165  -17.9751  -18.3027 C   0  0  0  0  0  0  0  0  0  0  0  0
   24.8118  -16.8321  -18.3164 O   0  0  0  0  0  0  0  0  0  0  0  0
   26.7567  -18.2782  -18.1996 C   0  0  0  0  0  0  0  0  0  0  0  0
   27.0649  -19.7375  -18.2821 C   0  0  0  0  0  0  0  0  0  0  0  0
   28.0828  -20.0968  -17.2401 C   0  0  2  0  0  0  0  0  0  0  0  0
   28.9692  -21.0931  -17.8392 N   0  0  0  0  0  0  0  0  0  0  0  0
   27.4207  -20.7497  -16.0599 C   0  0  0  0  0  0  0  0  0  0  0  0
   26.6378  -21.6966  -16.2213 O   0  0  0  0  0  0  0  0  0  0  0  0
   29.7806  -20.9402  -10.5061 N   0  0  0  0  0  0  0  0  0  0  0  0
   28.4704  -21.2491  -10.1108 C   0  0  0  0  0  0  0  0  0  0  0  0
   28.1742  -21.4349   -8.9302 O   0  0  0  0  0  0  0  0  0  0  0  0
   27.4042  -21.3567  -11.1542 C   0  0  0  0  0  0  0  0  0  0  0  0
   27.9274  -20.8748  -12.4758 C   0  0  0  0  0  0  0  0  0  0  0  0
   26.9983  -20.9942  -13.6255 C   0  0  2  0  0  0  0  0  0  0  0  0
   27.6751  -20.2981  -14.7453 N   0  0  0  0  0  0  0  0  0  0  0  0
   25.7377  -20.2179  -13.4083 C   0  0  0  0  0  0  0  0  0  0  0  0
   25.7749  -18.9888  -13.1243 O   0  0  0  0  0  0  0  0  0  0  0  0
   22.0726  -21.2761  -15.0075 C   0  0  0  0  0  0  0  0  0  0  0  0
   22.4257  -19.9130  -14.4534 C   0  0  2  0  0  0  0  0  0  0  0  0
   23.2606  -19.1403  -15.4775 C   0  0  0  0  0  0  0  0  0  0  0  0
   23.2557  -20.0751  -13.1717 C   0  0  2  0  0  0  0  0  0  0  0  0
   24.4673  -20.8269  -13.5192 N   0  0  0  0  0  0  0  0  0  0  0  0
   22.4423  -20.7626  -12.1495 C   0  0  0  0  0  0  0  0  0  0  0  0
   21.5245  -20.1344  -11.5805 O   0  0  0  0  0  0  0  0  0  0  0  0
   22.6828  -22.0732  -11.8217 O   0  0  0  0  0  0  0  0  0  0  0  0
  1  2  1  0
  2  4  1  0
  2  3  2  0
  4  5  1  0
  5  6  1  0
  6  7  1  6
  6  8  1  0
  8  9  2  0
 11 12  2  0
 11 10  1  0
 13 11  1  0
 15 14  1  1
 14 13  1  0
 15 17  1  0
 16  8  1  0
 16 15  1  0
 17 18  2  0
 20 19  1  6
 20 22  1  0
 21 20  1  0
 22 24  1  0
 22 23  1  6
 23 17  1  0
 24 26  1  0
 25 24  2  0
M  END
$$$$
