QQV.pdb
     RDKit          3D

 26 25  0  0  1  0  0  0  0  0999 V2000
   18.2961  -17.1503  -16.1148 N   0  0  0  0  0  0  0  0  0  0  0  0
   17.4166  -17.2675  -17.2451 C   0  0  0  0  0  0  0  0  0  0  0  0
   16.6015  -18.2143  -17.2251 O   0  0  0  0  0  0  0  0  0  0  0  0
   17.5502  -16.2700  -18.3240 C   0  0  0  0  0  0  0  0  0  0  0  0
   18.5472  -15.1989  -18.0239 C   0  0  0  0  0  0  0  0  0  0  0  0
   17.8323  -13.9102  -17.7429 C   0  0  2  0  0  0  0  0  0  0  0  0
   16.7936  -13.7706  -18.7622 N   0  0  0  0  0  0  0  0  0  0  0  0
   18.7660  -12.7439  -17.9036 C   0  0  0  0  0  0  0  0  0  0  0  0
   19.9710  -12.9281  -18.1264 O   0  0  0  0  0  0  0  0  0  0  0  0
   17.7882   -6.8141  -19.5766 N   0  0  0  0  0  0  0  0  0  0  0  0
   16.9521   -7.3782  -18.6015 C   0  0  0  0  0  0  0  0  0  0  0  0
   15.9300   -6.8111  -18.2143 O   0  0  0  0  0  0  0  0  0  0  0  0
   17.3142   -8.7057  -18.0153 C   0  0  0  0  0  0  0  0  0  0  0  0
   18.5388   -9.2497  -18.6912 C   0  0  0  0  0  0  0  0  0  0  0  0
   19.2679  -10.3130  -17.9584 C   0  0  2  0  0  0  0  0  0  0  0  0
   18.2912  -11.4168  -17.8028 N   0  0  0  0  0  0  0  0  0  0  0  0
   19.5958   -9.9021  -16.5574 C   0  0  0  0  0  0  0  0  0  0  0  0
   18.7809  -10.1057  -15.6153 O   0  0  0  0  0  0  0  0  0  0  0  0
   22.5215   -9.6994  -12.9069 C   0  0  0  0  0  0  0  0  0  0  0  0
   22.2395   -9.9204  -14.3770 C   0  0  2  0  0  0  0  0  0  0  0  0
   23.5070   -9.6507  -15.1917 C   0  0  0  0  0  0  0  0  0  0  0  0
   21.1447   -8.9507  -14.8450 C   0  0  2  0  0  0  0  0  0  0  0  0
   20.8245   -9.2812  -16.2386 N   0  0  0  0  0  0  0  0  0  0  0  0
   21.6268   -7.5637  -14.6934 C   0  0  0  0  0  0  0  0  0  0  0  0
   22.0470   -6.9536  -15.6994 O   0  0  0  0  0  0  0  0  0  0  0  0
   21.6177   -6.9442  -13.4690 O   0  0  0  0  0  0  0  0  0  0  0  0
  1  2  1  0
  2  4  1  0
  2  3  2  0
  4  5  1  0
  5  6  1  0
  6  7  1  6
  6  8  1  0
  8  9  2  0
 11 12  2  0
 11 10  1  0
 13 11  1  0
 15 14  1  6
 14 13  1  0
 15 17  1  0
 16  8  1  0
 16 15  1  0
 17 18  2  0
 20 19  1  1
 20 22  1  0
 21 20  1  0
 22 24  1  0
 22 23  1  6
 23 17  1  0
 24 26  1  0
 25 24  2  0
M  END
$$$$
