QVF.pdb
     RDKit          3D

 28 28  0  0  1  0  0  0  0  0999 V2000
   14.6398  -17.2394   18.1100 N   0  0  0  0  0  0  0  0  0  0  0  0
   13.9886  -18.3861   17.5891 C   0  0  0  0  0  0  0  0  0  0  0  0
   14.6683  -19.1945   16.9189 O   0  0  0  0  0  0  0  0  0  0  0  0
   12.5654  -18.5946   17.8429 C   0  0  0  0  0  0  0  0  0  0  0  0
   11.9785  -17.5766   18.7729 C   0  0  0  0  0  0  0  0  0  0  0  0
   10.4971  -17.7134   18.9833 C   0  0  2  0  0  0  0  0  0  0  0  0
    9.7987  -17.5904   17.7194 N   0  0  0  0  0  0  0  0  0  0  0  0
   10.0981  -16.6366   19.9322 C   0  0  0  0  0  0  0  0  0  0  0  0
   10.9474  -15.7877   20.3025 O   0  0  0  0  0  0  0  0  0  0  0  0
    6.5849  -13.9522   22.0467 C   0  0  0  0  0  0  0  0  0  0  0  0
    6.9666  -14.9864   20.9959 C   0  0  1  0  0  0  0  0  0  0  0  0
    6.9050  -14.3273   19.6564 C   0  0  0  0  0  0  0  0  0  0  0  0
    8.3712  -15.4486   21.3448 C   0  0  2  0  0  0  0  0  0  0  0  0
    8.7843  -16.5285   20.4411 N   0  0  0  0  0  0  0  0  0  0  0  0
    8.3979  -15.9770   22.7342 C   0  0  0  0  0  0  0  0  0  0  0  0
    8.1779  -17.1896   22.9699 O   0  0  0  0  0  0  0  0  0  0  0  0
    8.6674  -15.1509   23.8306 N   0  0  0  0  0  0  0  0  0  0  0  0
    8.8207  -15.5885   25.1965 C   0  0  1  0  0  0  0  0  0  0  0  0
    9.2380  -14.5457   26.1393 C   0  0  0  0  0  0  0  0  0  0  0  0
    8.2646  -13.4393   26.1355 C   0  0  0  0  0  0  0  0  0  0  0  0
    8.2215  -12.6244   25.0256 C   0  0  0  0  0  0  0  0  0  0  0  0
    7.3352  -11.5860   24.9075 C   0  0  0  0  0  0  0  0  0  0  0  0
    6.4605  -11.3684   25.9569 C   0  0  0  0  0  0  0  0  0  0  0  0
    6.4675  -12.1541   27.0808 C   0  0  0  0  0  0  0  0  0  0  0  0
    7.3779  -13.1942   27.1635 C   0  0  0  0  0  0  0  0  0  0  0  0
    7.5733  -16.2401   25.6113 C   0  0  0  0  0  0  0  0  0  0  0  0
    6.3664  -16.2208   24.9351 O   0  0  0  0  0  0  0  0  0  0  0  0
    7.5450  -16.9060   26.7063 O   0  0  0  0  0  0  0  0  0  0  0  0
  2  1  1  0
  2  3  2  0
  4  2  1  0
  5  4  1  0
  5  6  1  0
  6  8  1  0
  6  7  1  6
  8  9  2  0
 11 13  1  0
 11 10  1  1
 12 11  1  0
 13 14  1  6
 14  8  1  0
 15 17  1  0
 15 13  1  0
 16 15  2  0
 18 26  1  0
 18 17  1  0
 18 19  1  1
 20 19  1  0
 21 20  2  0
 22 21  1  0
 23 24  1  0
 23 22  2  0
 24 25  2  0
 25 20  1  0
 26 27  1  0
 28 26  2  0
M  END
$$$$
