QVF.pdb
     RDKit          3D

 28 28  0  0  1  0  0  0  0  0999 V2000
    8.7718  -20.6885   21.6874 N   0  0  0  0  0  0  0  0  0  0  0  0
    9.3815  -21.2316   20.5283 C   0  0  0  0  0  0  0  0  0  0  0  0
    9.0735  -22.3967   20.1931 O   0  0  0  0  0  0  0  0  0  0  0  0
   10.3370  -20.4329   19.7649 C   0  0  0  0  0  0  0  0  0  0  0  0
   10.5136  -19.0481   20.3095 C   0  0  0  0  0  0  0  0  0  0  0  0
    9.8579  -17.9734   19.4893 C   0  0  2  0  0  0  0  0  0  0  0  0
   10.5847  -17.7753   18.2512 N   0  0  0  0  0  0  0  0  0  0  0  0
    9.8569  -16.7389   20.3230 C   0  0  0  0  0  0  0  0  0  0  0  0
   10.9339  -16.3221   20.8185 O   0  0  0  0  0  0  0  0  0  0  0  0
    7.5587  -12.7478   22.0665 C   0  0  0  0  0  0  0  0  0  0  0  0
    7.5091  -13.9158   21.0903 C   0  0  1  0  0  0  0  0  0  0  0  0
    7.6698  -13.3694   19.7089 C   0  0  0  0  0  0  0  0  0  0  0  0
    8.6490  -14.8426   21.4777 C   0  0  2  0  0  0  0  0  0  0  0  0
    8.6773  -16.0060   20.5839 N   0  0  0  0  0  0  0  0  0  0  0  0
    8.4490  -15.3349   22.8663 C   0  0  0  0  0  0  0  0  0  0  0  0
    7.5841  -16.2061   23.1258 O   0  0  0  0  0  0  0  0  0  0  0  0
    9.2109  -14.8515   23.9353 N   0  0  0  0  0  0  0  0  0  0  0  0
    9.0429  -15.2156   25.3210 C   0  0  1  0  0  0  0  0  0  0  0  0
    7.6564  -15.2196   25.7982 C   0  0  0  0  0  0  0  0  0  0  0  0
    7.2460  -13.8555   26.1760 C   0  0  0  0  0  0  0  0  0  0  0  0
    5.8978  -13.5737   26.2029 C   0  0  0  0  0  0  0  0  0  0  0  0
    5.4083  -12.3469   26.5680 C   0  0  0  0  0  0  0  0  0  0  0  0
    6.3238  -11.3709   26.9187 C   0  0  0  0  0  0  0  0  0  0  0  0
    7.6746  -11.6066   26.9066 C   0  0  0  0  0  0  0  0  0  0  0  0
    8.1312  -12.8592   26.5320 C   0  0  0  0  0  0  0  0  0  0  0  0
    9.7049  -16.5068   25.5386 C   0  0  0  0  0  0  0  0  0  0  0  0
   10.4221  -17.2352   24.6062 O   0  0  0  0  0  0  0  0  0  0  0  0
    9.6399  -17.0608   26.6927 O   0  0  0  0  0  0  0  0  0  0  0  0
  2  1  1  0
  2  3  2  0
  4  2  1  0
  5  4  1  0
  5  6  1  0
  6  8  1  0
  6  7  1  6
  8  9  2  0
 11 13  1  0
 11 10  1  1
 12 11  1  0
 13 14  1  6
 14  8  1  0
 15 17  1  0
 15 13  1  0
 16 15  2  0
 18 26  1  0
 18 17  1  0
 18 19  1  6
 20 19  1  0
 21 20  2  0
 22 21  1  0
 23 24  1  0
 23 22  2  0
 24 25  2  0
 25 20  1  0
 26 27  1  0
 28 26  2  0
M  END
$$$$
