QVF.pdb
     RDKit          3D

 28 28  0  0  1  0  0  0  0  0999 V2000
    5.5000  -21.5900   19.1380 N   0  0  0  0  0  0  0  0  0  0  0  0
    6.5042  -20.6924   18.6952 C   0  0  0  0  0  0  0  0  0  0  0  0
    6.1899  -19.8330   17.8424 O   0  0  0  0  0  0  0  0  0  0  0  0
    7.8578  -20.7884   19.2357 C   0  0  0  0  0  0  0  0  0  0  0  0
    8.4598  -19.4537   19.5544 C   0  0  0  0  0  0  0  0  0  0  0  0
    8.5555  -19.1540   21.0236 C   0  0  2  0  0  0  0  0  0  0  0  0
    7.2878  -19.4226   21.6727 N   0  0  0  0  0  0  0  0  0  0  0  0
    8.9349  -17.7185   21.1441 C   0  0  0  0  0  0  0  0  0  0  0  0
    9.9542  -17.2922   20.5454 O   0  0  0  0  0  0  0  0  0  0  0  0
    7.6840  -13.1039   22.2766 C   0  0  0  0  0  0  0  0  0  0  0  0
    7.2421  -14.5546   22.1364 C   0  0  1  0  0  0  0  0  0  0  0  0
    6.3625  -14.6545   20.9328 C   0  0  0  0  0  0  0  0  0  0  0  0
    8.5130  -15.3739   21.9888 C   0  0  2  0  0  0  0  0  0  0  0  0
    8.1849  -16.8023   21.9153 N   0  0  0  0  0  0  0  0  0  0  0  0
    9.3887  -15.1641   23.1719 C   0  0  0  0  0  0  0  0  0  0  0  0
   10.3680  -14.3814   23.1216 O   0  0  0  0  0  0  0  0  0  0  0  0
    9.1599  -15.8255   24.3833 N   0  0  0  0  0  0  0  0  0  0  0  0
    9.9930  -15.7425   25.5579 C   0  0  1  0  0  0  0  0  0  0  0  0
   10.1550  -14.3937   26.1101 C   0  0  0  0  0  0  0  0  0  0  0  0
    8.8509  -13.7099   26.1694 C   0  0  0  0  0  0  0  0  0  0  0  0
    8.8491  -12.3399   26.3138 C   0  0  0  0  0  0  0  0  0  0  0  0
    7.6936  -11.6042   26.3510 C   0  0  0  0  0  0  0  0  0  0  0  0
    6.4959  -12.2870   26.2371 C   0  0  0  0  0  0  0  0  0  0  0  0
    6.4498  -13.6498   26.0918 C   0  0  0  0  0  0  0  0  0  0  0  0
    7.6388  -14.3590   26.0585 C   0  0  0  0  0  0  0  0  0  0  0  0
    9.4759  -16.6879   26.5537 C   0  0  0  0  0  0  0  0  0  0  0  0
    8.4398  -17.5879   26.3788 O   0  0  0  0  0  0  0  0  0  0  0  0
   10.0018  -16.7214   27.7223 O   0  0  0  0  0  0  0  0  0  0  0  0
  2  1  1  0
  2  3  2  0
  4  2  1  0
  5  4  1  0
  5  6  1  0
  6  8  1  0
  6  7  1  1
  8  9  2  0
 11 13  1  0
 11 10  1  6
 12 11  1  0
 13 14  1  1
 14  8  1  0
 15 17  1  0
 15 13  1  0
 16 15  2  0
 18 26  1  0
 18 17  1  0
 18 19  1  1
 20 19  1  0
 21 20  2  0
 22 21  1  0
 23 24  1  0
 23 22  2  0
 24 25  2  0
 25 20  1  0
 26 27  1  0
 28 26  2  0
M  END
$$$$
