QVF.pdb
     RDKit          3D

 28 28  0  0  1  0  0  0  0  0999 V2000
   16.4647  -15.5586   20.2409 N   0  0  0  0  0  0  0  0  0  0  0  0
   15.8097  -14.9932   19.1178 C   0  0  0  0  0  0  0  0  0  0  0  0
   16.4227  -14.1285   18.4535 O   0  0  0  0  0  0  0  0  0  0  0  0
   14.4592  -15.4256   18.7672 C   0  0  0  0  0  0  0  0  0  0  0  0
   13.3904  -14.5875   19.4004 C   0  0  0  0  0  0  0  0  0  0  0  0
   11.9906  -15.0550   19.1184 C   0  0  2  0  0  0  0  0  0  0  0  0
   11.5740  -14.6207   17.8000 N   0  0  0  0  0  0  0  0  0  0  0  0
   11.1231  -14.4750   20.1816 C   0  0  0  0  0  0  0  0  0  0  0  0
   11.4934  -13.4403   20.7908 O   0  0  0  0  0  0  0  0  0  0  0  0
    6.7254  -13.6332   21.9829 C   0  0  0  0  0  0  0  0  0  0  0  0
    7.6202  -14.1781   20.8775 C   0  0  1  0  0  0  0  0  0  0  0  0
    7.6890  -13.1531   19.7925 C   0  0  0  0  0  0  0  0  0  0  0  0
    8.9760  -14.4323   21.5144 C   0  0  2  0  0  0  0  0  0  0  0  0
    9.8823  -15.0489   20.5389 N   0  0  0  0  0  0  0  0  0  0  0  0
    8.8276  -15.3689   22.6596 C   0  0  0  0  0  0  0  0  0  0  0  0
    8.8116  -16.6108   22.4820 O   0  0  0  0  0  0  0  0  0  0  0  0
    8.7005  -14.9089   23.9746 N   0  0  0  0  0  0  0  0  0  0  0  0
    8.6734  -15.7356   25.1564 C   0  0  1  0  0  0  0  0  0  0  0  0
    8.7260  -15.0048   26.4266 C   0  0  0  0  0  0  0  0  0  0  0  0
    7.6473  -14.0022   26.4801 C   0  0  0  0  0  0  0  0  0  0  0  0
    7.8605  -12.7939   25.8537 C   0  0  0  0  0  0  0  0  0  0  0  0
    6.9131  -11.8045   25.8187 C   0  0  0  0  0  0  0  0  0  0  0  0
    5.7043  -12.0531   26.4439 C   0  0  0  0  0  0  0  0  0  0  0  0
    5.4481  -13.2409   27.0795 C   0  0  0  0  0  0  0  0  0  0  0  0
    6.4304  -14.2169   27.0935 C   0  0  0  0  0  0  0  0  0  0  0  0
    7.5014  -16.6143   25.0737 C   0  0  0  0  0  0  0  0  0  0  0  0
    6.4883  -16.5544   24.1333 O   0  0  0  0  0  0  0  0  0  0  0  0
    7.3522  -17.5478   25.9395 O   0  0  0  0  0  0  0  0  0  0  0  0
  2  1  1  0
  2  3  2  0
  4  2  1  0
  5  4  1  0
  5  6  1  0
  6  8  1  0
  6  7  1  6
  8  9  2  0
 11 13  1  0
 11 10  1  1
 12 11  1  0
 13 14  1  6
 14  8  1  0
 15 17  1  0
 15 13  1  0
 16 15  2  0
 18 26  1  0
 18 17  1  0
 18 19  1  1
 20 19  1  0
 21 20  2  0
 22 21  1  0
 23 24  1  0
 23 22  2  0
 24 25  2  0
 25 20  1  0
 26 27  1  0
 28 26  2  0
M  END
$$$$
