QVF.pdb
     RDKit          3D

 28 28  0  0  1  0  0  0  0  0999 V2000
    8.6830  -11.8187   19.1495 N   0  0  0  0  0  0  0  0  0  0  0  0
    7.9327  -12.8781   18.5793 C   0  0  0  0  0  0  0  0  0  0  0  0
    8.2417  -13.2655   17.4308 O   0  0  0  0  0  0  0  0  0  0  0  0
    6.8370  -13.4831   19.3322 C   0  0  0  0  0  0  0  0  0  0  0  0
    7.2557  -13.9815   20.6820 C   0  0  0  0  0  0  0  0  0  0  0  0
    8.2990  -15.0621   20.6452 C   0  0  2  0  0  0  0  0  0  0  0  0
    7.9647  -16.0464   19.6354 N   0  0  0  0  0  0  0  0  0  0  0  0
    8.3351  -15.6689   22.0053 C   0  0  0  0  0  0  0  0  0  0  0  0
    7.2597  -15.8891   22.6169 O   0  0  0  0  0  0  0  0  0  0  0  0
   10.5831  -18.8070   24.9213 C   0  0  0  0  0  0  0  0  0  0  0  0
   10.5469  -18.0252   23.6148 C   0  0  1  0  0  0  0  0  0  0  0  0
   10.0658  -18.9449   22.5401 C   0  0  0  0  0  0  0  0  0  0  0  0
    9.5975  -16.8609   23.8421 C   0  0  2  0  0  0  0  0  0  0  0  0
    9.5468  -16.0124   22.6460 N   0  0  0  0  0  0  0  0  0  0  0  0
   10.0819  -16.0290   24.9752 C   0  0  0  0  0  0  0  0  0  0  0  0
   11.1244  -15.3385   24.8719 O   0  0  0  0  0  0  0  0  0  0  0  0
    9.4009  -15.9807   26.1963 N   0  0  0  0  0  0  0  0  0  0  0  0
    9.8201  -15.2467   27.3652 C   0  0  1  0  0  0  0  0  0  0  0  0
    8.7432  -14.5619   28.0874 C   0  0  0  0  0  0  0  0  0  0  0  0
    8.0934  -13.5721   27.2101 C   0  0  0  0  0  0  0  0  0  0  0  0
    6.8682  -13.8971   26.6706 C   0  0  0  0  0  0  0  0  0  0  0  0
    6.1658  -13.0384   25.8661 C   0  0  0  0  0  0  0  0  0  0  0  0
    6.7303  -11.8037   25.6006 C   0  0  0  0  0  0  0  0  0  0  0  0
    7.9472  -11.4375   26.1160 C   0  0  0  0  0  0  0  0  0  0  0  0
    8.6271  -12.3324   26.9250 C   0  0  0  0  0  0  0  0  0  0  0  0
   10.5731  -16.1590   28.2330 C   0  0  0  0  0  0  0  0  0  0  0  0
   10.6981  -17.5286   28.0819 O   0  0  0  0  0  0  0  0  0  0  0  0
   11.1949  -15.6896   29.2510 O   0  0  0  0  0  0  0  0  0  0  0  0
  2  1  1  0
  2  3  2  0
  4  2  1  0
  5  4  1  0
  5  6  1  0
  6  8  1  0
  6  7  1  6
  8  9  2  0
 11 13  1  0
 11 10  1  1
 12 11  1  0
 13 14  1  6
 14  8  1  0
 15 17  1  0
 15 13  1  0
 16 15  2  0
 18 26  1  0
 18 17  1  0
 18 19  1  1
 20 19  1  0
 21 20  2  0
 22 21  1  0
 23 24  1  0
 23 22  2  0
 24 25  2  0
 25 20  1  0
 26 27  1  0
 28 26  2  0
M  END
$$$$
