QVF.pdb
     RDKit          3D

 28 28  0  0  1  0  0  0  0  0999 V2000
    7.1002  -13.2244   18.9560 N   0  0  0  0  0  0  0  0  0  0  0  0
    8.0049  -13.1926   17.8649 C   0  0  0  0  0  0  0  0  0  0  0  0
    7.6413  -12.6154   16.8164 O   0  0  0  0  0  0  0  0  0  0  0  0
    9.3175  -13.8217   17.9875 C   0  0  0  0  0  0  0  0  0  0  0  0
    9.6120  -14.3020   19.3760 C   0  0  0  0  0  0  0  0  0  0  0  0
    9.8119  -15.7870   19.4867 C   0  0  2  0  0  0  0  0  0  0  0  0
    9.3589  -16.4445   18.2772 N   0  0  0  0  0  0  0  0  0  0  0  0
    9.0334  -16.2366   20.6745 C   0  0  0  0  0  0  0  0  0  0  0  0
    7.8226  -16.5463   20.5437 O   0  0  0  0  0  0  0  0  0  0  0  0
    8.5428  -19.0343   21.7747 C   0  0  0  0  0  0  0  0  0  0  0  0
    9.2438  -18.5072   23.0198 C   0  0  1  0  0  0  0  0  0  0  0  0
   10.7048  -18.7872   22.8800 C   0  0  0  0  0  0  0  0  0  0  0  0
    8.9470  -17.0182   23.0766 C   0  0  2  0  0  0  0  0  0  0  0  0
    9.6086  -16.3306   21.9618 N   0  0  0  0  0  0  0  0  0  0  0  0
    9.4723  -16.4472   24.3450 C   0  0  0  0  0  0  0  0  0  0  0  0
   10.6443  -16.0057   24.4195 O   0  0  0  0  0  0  0  0  0  0  0  0
    8.6879  -16.3783   25.5013 N   0  0  0  0  0  0  0  0  0  0  0  0
    9.1134  -15.8565   26.7770 C   0  0  1  0  0  0  0  0  0  0  0  0
    8.0756  -15.1528   27.5373 C   0  0  0  0  0  0  0  0  0  0  0  0
    7.6687  -13.9278   26.8265 C   0  0  0  0  0  0  0  0  0  0  0  0
    6.4945  -13.9617   26.1068 C   0  0  0  0  0  0  0  0  0  0  0  0
    6.0107  -12.8706   25.4337 C   0  0  0  0  0  0  0  0  0  0  0  0
    6.7483  -11.7018   25.4948 C   0  0  0  0  0  0  0  0  0  0  0  0
    7.9223  -11.6220   26.1988 C   0  0  0  0  0  0  0  0  0  0  0  0
    8.3791  -12.7459   26.8664 C   0  0  0  0  0  0  0  0  0  0  0  0
    9.7106  -16.9550   27.5448 C   0  0  0  0  0  0  0  0  0  0  0  0
    9.6860  -18.2995   27.2195 O   0  0  0  0  0  0  0  0  0  0  0  0
   10.3273  -16.6960   28.6383 O   0  0  0  0  0  0  0  0  0  0  0  0
  2  1  1  0
  2  3  2  0
  4  2  1  0
  5  4  1  0
  5  6  1  0
  6  8  1  0
  6  7  1  6
  8  9  2  0
 11 13  1  0
 11 10  1  6
 12 11  1  0
 13 14  1  6
 14  8  1  0
 15 17  1  0
 15 13  1  0
 16 15  2  0
 18 26  1  0
 18 17  1  0
 18 19  1  1
 20 19  1  0
 21 20  2  0
 22 21  1  0
 23 24  1  0
 23 22  2  0
 24 25  2  0
 25 20  1  0
 26 27  1  0
 28 26  2  0
M  END
$$$$
