QVF.pdb
     RDKit          3D

 28 28  0  0  1  0  0  0  0  0999 V2000
   12.5714  -21.5529   20.0112 N   0  0  0  0  0  0  0  0  0  0  0  0
   13.0563  -20.2410   19.7788 C   0  0  0  0  0  0  0  0  0  0  0  0
   14.1779  -19.9382   20.2425 O   0  0  0  0  0  0  0  0  0  0  0  0
   12.2509  -19.2904   19.0164 C   0  0  0  0  0  0  0  0  0  0  0  0
   11.8500  -18.0868   19.8140 C   0  0  0  0  0  0  0  0  0  0  0  0
   10.9020  -17.1626   19.1035 C   0  0  2  0  0  0  0  0  0  0  0  0
   11.5775  -16.4996   18.0061 N   0  0  0  0  0  0  0  0  0  0  0  0
   10.4192  -16.1829   20.1166 C   0  0  0  0  0  0  0  0  0  0  0  0
   11.1082  -15.1640   20.3742 O   0  0  0  0  0  0  0  0  0  0  0  0
    6.7227  -14.0336   22.3997 C   0  0  0  0  0  0  0  0  0  0  0  0
    7.2391  -14.9843   21.3278 C   0  0  1  0  0  0  0  0  0  0  0  0
    7.1822  -14.2735   20.0148 C   0  0  0  0  0  0  0  0  0  0  0  0
    8.6610  -15.3423   21.7261 C   0  0  2  0  0  0  0  0  0  0  0  0
    9.2002  -16.3542   20.8104 N   0  0  0  0  0  0  0  0  0  0  0  0
    8.6717  -15.9129   23.0990 C   0  0  0  0  0  0  0  0  0  0  0  0
    8.5136  -17.1428   23.2899 O   0  0  0  0  0  0  0  0  0  0  0  0
    8.8572  -15.1088   24.2286 N   0  0  0  0  0  0  0  0  0  0  0  0
    9.0271  -15.5828   25.5804 C   0  0  1  0  0  0  0  0  0  0  0  0
    9.2624  -14.5363   26.5803 C   0  0  0  0  0  0  0  0  0  0  0  0
    8.2414  -13.4805   26.4596 C   0  0  0  0  0  0  0  0  0  0  0  0
    7.1238  -13.5721   27.2598 C   0  0  0  0  0  0  0  0  0  0  0  0
    6.1291  -12.6296   27.2474 C   0  0  0  0  0  0  0  0  0  0  0  0
    6.2766  -11.5544   26.3895 C   0  0  0  0  0  0  0  0  0  0  0  0
    7.3720  -11.4221   25.5753 C   0  0  0  0  0  0  0  0  0  0  0  0
    8.3566  -12.3950   25.6161 C   0  0  0  0  0  0  0  0  0  0  0  0
    7.8716  -16.4207   25.9203 C   0  0  0  0  0  0  0  0  0  0  0  0
    6.6831  -16.5137   25.2181 O   0  0  0  0  0  0  0  0  0  0  0  0
    7.9159  -17.1592   26.9671 O   0  0  0  0  0  0  0  0  0  0  0  0
  2  1  1  0
  2  3  2  0
  4  2  1  0
  5  4  1  0
  5  6  1  0
  6  8  1  0
  6  7  1  6
  8  9  2  0
 11 13  1  0
 11 10  1  1
 12 11  1  0
 13 14  1  6
 14  8  1  0
 15 17  1  0
 15 13  1  0
 16 15  2  0
 18 26  1  0
 18 17  1  0
 18 19  1  1
 20 19  1  0
 21 20  2  0
 22 21  1  0
 23 24  1  0
 23 22  2  0
 24 25  2  0
 25 20  1  0
 26 27  1  0
 28 26  2  0
M  END
$$$$
