QVF.pdb
     RDKit          3D

 28 28  0  0  1  0  0  0  0  0999 V2000
    9.6892  -13.0577   19.0044 N   0  0  0  0  0  0  0  0  0  0  0  0
    8.6388  -13.0563   18.0521 C   0  0  0  0  0  0  0  0  0  0  0  0
    8.8074  -12.4143   16.9918 O   0  0  0  0  0  0  0  0  0  0  0  0
    7.4066  -13.7918   18.3246 C   0  0  0  0  0  0  0  0  0  0  0  0
    7.4266  -14.5049   19.6424 C   0  0  0  0  0  0  0  0  0  0  0  0
    7.8798  -15.9353   19.5640 C   0  0  2  0  0  0  0  0  0  0  0  0
    6.9625  -16.7069   18.7494 N   0  0  0  0  0  0  0  0  0  0  0  0
    7.9277  -16.4467   20.9623 C   0  0  0  0  0  0  0  0  0  0  0  0
    6.8571  -16.7107   21.5650 O   0  0  0  0  0  0  0  0  0  0  0  0
    9.0107  -19.4905   22.1021 C   0  0  0  0  0  0  0  0  0  0  0  0
    9.9014  -18.5856   22.9431 C   0  0  1  0  0  0  0  0  0  0  0  0
   11.2384  -18.5097   22.2804 C   0  0  0  0  0  0  0  0  0  0  0  0
    9.2079  -17.2347   22.9942 C   0  0  2  0  0  0  0  0  0  0  0  0
    9.1454  -16.6504   21.6496 N   0  0  0  0  0  0  0  0  0  0  0  0
    9.9769  -16.3056   23.8636 C   0  0  0  0  0  0  0  0  0  0  0  0
   10.9949  -15.7109   23.4344 O   0  0  0  0  0  0  0  0  0  0  0  0
    9.6010  -16.0562   25.1878 N   0  0  0  0  0  0  0  0  0  0  0  0
   10.3152  -15.2210   26.1223 C   0  0  1  0  0  0  0  0  0  0  0  0
   10.0630  -13.7827   25.9879 C   0  0  0  0  0  0  0  0  0  0  0  0
    8.6506  -13.4853   26.2854 C   0  0  0  0  0  0  0  0  0  0  0  0
    8.1160  -12.3238   25.7726 C   0  0  0  0  0  0  0  0  0  0  0  0
    6.8070  -11.9671   25.9650 C   0  0  0  0  0  0  0  0  0  0  0  0
    6.0124  -12.8233   26.7061 C   0  0  0  0  0  0  0  0  0  0  0  0
    6.5017  -13.9898   27.2355 C   0  0  0  0  0  0  0  0  0  0  0  0
    7.8300  -14.3164   27.0196 C   0  0  0  0  0  0  0  0  0  0  0  0
   10.0334  -15.7061   27.4780 C   0  0  0  0  0  0  0  0  0  0  0  0
    9.1330  -16.6955   27.8311 O   0  0  0  0  0  0  0  0  0  0  0  0
   10.6567  -15.1915   28.4729 O   0  0  0  0  0  0  0  0  0  0  0  0
  2  1  1  0
  2  3  2  0
  4  2  1  0
  5  4  1  0
  5  6  1  0
  6  8  1  0
  6  7  1  6
  8  9  2  0
 11 13  1  0
 11 10  1  6
 12 11  1  0
 13 14  1  6
 14  8  1  0
 15 17  1  0
 15 13  1  0
 16 15  2  0
 18 26  1  0
 18 17  1  0
 18 19  1  1
 20 19  1  0
 21 20  2  0
 22 21  1  0
 23 24  1  0
 23 22  2  0
 24 25  2  0
 25 20  1  0
 26 27  1  0
 28 26  2  0
M  END
$$$$
