QVF.pdb
     RDKit          3D

 28 28  0  0  1  0  0  0  0  0999 V2000
   13.4606  -17.9833   16.8958 N   0  0  0  0  0  0  0  0  0  0  0  0
   12.4167  -18.8901   16.5823 C   0  0  0  0  0  0  0  0  0  0  0  0
   12.5630  -19.6336   15.5871 O   0  0  0  0  0  0  0  0  0  0  0  0
   11.2166  -18.9359   17.4137 C   0  0  0  0  0  0  0  0  0  0  0  0
   11.2581  -17.9716   18.5599 C   0  0  0  0  0  0  0  0  0  0  0  0
   10.0473  -18.0158   19.4485 C   0  0  2  0  0  0  0  0  0  0  0  0
    8.8471  -18.1726   18.6516 N   0  0  0  0  0  0  0  0  0  0  0  0
   10.0298  -16.7369   20.2124 C   0  0  0  0  0  0  0  0  0  0  0  0
   11.1139  -16.2070   20.5630 O   0  0  0  0  0  0  0  0  0  0  0  0
    7.7402  -12.7486   21.8882 C   0  0  0  0  0  0  0  0  0  0  0  0
    7.6942  -13.9506   20.9541 C   0  0  1  0  0  0  0  0  0  0  0  0
    7.9217  -13.4610   19.5609 C   0  0  0  0  0  0  0  0  0  0  0  0
    8.7922  -14.8924   21.4186 C   0  0  2  0  0  0  0  0  0  0  0  0
    8.8265  -16.0851   20.5644 N   0  0  0  0  0  0  0  0  0  0  0  0
    8.5223  -15.3334   22.8126 C   0  0  0  0  0  0  0  0  0  0  0  0
    7.6086  -16.1552   23.0659 O   0  0  0  0  0  0  0  0  0  0  0  0
    9.2699  -14.8544   23.8936 N   0  0  0  0  0  0  0  0  0  0  0  0
    9.0644  -15.2015   25.2786 C   0  0  1  0  0  0  0  0  0  0  0  0
    7.6688  -15.1654   25.7272 C   0  0  0  0  0  0  0  0  0  0  0  0
    7.2662  -13.7786   26.0211 C   0  0  0  0  0  0  0  0  0  0  0  0
    8.2418  -12.9004   26.4390 C   0  0  0  0  0  0  0  0  0  0  0  0
    7.9805  -11.5830   26.7106 C   0  0  0  0  0  0  0  0  0  0  0  0
    6.6788  -11.1424   26.5514 C   0  0  0  0  0  0  0  0  0  0  0  0
    5.6757  -11.9809   26.1376 C   0  0  0  0  0  0  0  0  0  0  0  0
    5.9787  -13.3059   25.8726 C   0  0  0  0  0  0  0  0  0  0  0  0
    9.6880  -16.5074   25.5207 C   0  0  0  0  0  0  0  0  0  0  0  0
   10.4140  -17.2575   24.6127 O   0  0  0  0  0  0  0  0  0  0  0  0
    9.5759  -17.0541   26.6747 O   0  0  0  0  0  0  0  0  0  0  0  0
  2  1  1  0
  2  3  2  0
  4  2  1  0
  5  4  1  0
  5  6  1  0
  6  8  1  0
  6  7  1  6
  8  9  2  0
 11 13  1  0
 11 10  1  1
 12 11  1  0
 13 14  1  6
 14  8  1  0
 15 17  1  0
 15 13  1  0
 16 15  2  0
 18 26  1  0
 18 17  1  0
 18 19  1  6
 20 19  1  0
 21 20  2  0
 22 21  1  0
 23 24  1  0
 23 22  2  0
 24 25  2  0
 25 20  1  0
 26 27  1  0
 28 26  2  0
M  END
$$$$
