QVF.pdb
     RDKit          3D

 28 28  0  0  1  0  0  0  0  0999 V2000
    9.3326  -18.6262   16.4500 N   0  0  0  0  0  0  0  0  0  0  0  0
    8.6758  -19.6189   17.2203 C   0  0  0  0  0  0  0  0  0  0  0  0
    7.9396  -20.4349   16.6229 O   0  0  0  0  0  0  0  0  0  0  0  0
    8.8707  -19.6665   18.6671 C   0  0  0  0  0  0  0  0  0  0  0  0
    9.8234  -18.6233   19.1668 C   0  0  0  0  0  0  0  0  0  0  0  0
    9.8268  -18.4541   20.6597 C   0  0  2  0  0  0  0  0  0  0  0  0
    8.6524  -19.0770   21.2367 N   0  0  0  0  0  0  0  0  0  0  0  0
    9.8507  -16.9883   20.9246 C   0  0  0  0  0  0  0  0  0  0  0  0
   10.7827  -16.2869   20.4572 O   0  0  0  0  0  0  0  0  0  0  0  0
    7.4907  -12.8729   22.0581 C   0  0  0  0  0  0  0  0  0  0  0  0
    7.4470  -14.3416   21.6577 C   0  0  1  0  0  0  0  0  0  0  0  0
    7.0663  -14.4151   20.2148 C   0  0  0  0  0  0  0  0  0  0  0  0
    8.8392  -14.8937   21.9135 C   0  0  2  0  0  0  0  0  0  0  0  0
    8.8538  -16.3441   21.6912 N   0  0  0  0  0  0  0  0  0  0  0  0
    9.2303  -14.6414   23.3256 C   0  0  0  0  0  0  0  0  0  0  0  0
    9.2346  -13.4792   23.7982 O   0  0  0  0  0  0  0  0  0  0  0  0
    9.6075  -15.6816   24.1817 N   0  0  0  0  0  0  0  0  0  0  0  0
    9.2637  -15.7885   25.5785 C   0  0  1  0  0  0  0  0  0  0  0  0
    7.8296  -15.7057   25.8730 C   0  0  0  0  0  0  0  0  0  0  0  0
    7.4498  -14.3106   26.1576 C   0  0  0  0  0  0  0  0  0  0  0  0
    6.1715  -13.9129   25.8326 C   0  0  0  0  0  0  0  0  0  0  0  0
    5.7076  -12.6476   26.0811 C   0  0  0  0  0  0  0  0  0  0  0  0
    6.5758  -11.7539   26.6823 C   0  0  0  0  0  0  0  0  0  0  0  0
    7.8565  -12.1060   27.0233 C   0  0  0  0  0  0  0  0  0  0  0  0
    8.2892  -13.3941   26.7563 C   0  0  0  0  0  0  0  0  0  0  0  0
    9.8649  -17.0189   26.1051 C   0  0  0  0  0  0  0  0  0  0  0  0
    9.9956  -17.3704   27.4369 O   0  0  0  0  0  0  0  0  0  0  0  0
   10.3347  -17.8889   25.2894 O   0  0  0  0  0  0  0  0  0  0  0  0
  2  1  1  0
  2  3  2  0
  4  2  1  0
  5  4  1  0
  5  6  1  0
  6  8  1  0
  6  7  1  1
  8  9  2  0
 11 13  1  0
 11 10  1  6
 12 11  1  0
 13 14  1  1
 14  8  1  0
 15 17  1  0
 15 13  1  0
 16 15  2  0
 18 26  1  0
 18 17  1  0
 18 19  1  6
 20 19  1  0
 21 20  2  0
 22 21  1  0
 23 24  1  0
 23 22  2  0
 24 25  2  0
 25 20  1  0
 26 27  1  0
 28 26  2  0
M  END
$$$$
