QVF.pdb
     RDKit          3D

 28 28  0  0  1  0  0  0  0  0999 V2000
    9.4434  -20.9809   15.6266 N   0  0  0  0  0  0  0  0  0  0  0  0
    9.0177  -19.8319   16.3399 C   0  0  0  0  0  0  0  0  0  0  0  0
    8.0936  -19.1452   15.8508 O   0  0  0  0  0  0  0  0  0  0  0  0
    9.6550  -19.4827   17.6070 C   0  0  0  0  0  0  0  0  0  0  0  0
    9.1383  -18.2036   18.1923 C   0  0  0  0  0  0  0  0  0  0  0  0
    9.0356  -18.2072   19.6913 C   0  0  2  0  0  0  0  0  0  0  0  0
    7.7141  -18.6381   20.1014 N   0  0  0  0  0  0  0  0  0  0  0  0
    9.3189  -16.8163   20.1433 C   0  0  0  0  0  0  0  0  0  0  0  0
   10.4418  -16.3029   19.9096 O   0  0  0  0  0  0  0  0  0  0  0  0
    7.9123  -12.3372   21.2366 C   0  0  0  0  0  0  0  0  0  0  0  0
    7.5743  -13.7250   20.7081 C   0  0  1  0  0  0  0  0  0  0  0  0
    7.6075  -13.6706   19.2153 C   0  0  0  0  0  0  0  0  0  0  0  0
    8.6277  -14.6632   21.2724 C   0  0  2  0  0  0  0  0  0  0  0  0
    8.3629  -16.0384   20.8345 N   0  0  0  0  0  0  0  0  0  0  0  0
    8.5821  -14.6375   22.7583 C   0  0  0  0  0  0  0  0  0  0  0  0
    7.6536  -14.0533   23.3673 O   0  0  0  0  0  0  0  0  0  0  0  0
    9.5654  -15.2589   23.5355 N   0  0  0  0  0  0  0  0  0  0  0  0
    9.5878  -15.3156   24.9767 C   0  0  1  0  0  0  0  0  0  0  0  0
    8.2700  -15.3891   25.6156 C   0  0  0  0  0  0  0  0  0  0  0  0
    7.8135  -14.0399   25.9936 C   0  0  0  0  0  0  0  0  0  0  0  0
    6.4889  -13.7263   25.7820 C   0  0  0  0  0  0  0  0  0  0  0  0
    5.9553  -12.5113   26.1239 C   0  0  0  0  0  0  0  0  0  0  0  0
    6.8002  -11.5810   26.7024 C   0  0  0  0  0  0  0  0  0  0  0  0
    8.1251  -11.8495   26.9318 C   0  0  0  0  0  0  0  0  0  0  0  0
    8.6279  -13.0889   26.5727 C   0  0  0  0  0  0  0  0  0  0  0  0
   10.4580  -16.4267   25.3777 C   0  0  0  0  0  0  0  0  0  0  0  0
   11.3566  -16.4345   26.4298 O   0  0  0  0  0  0  0  0  0  0  0  0
   10.4225  -17.5243   24.7164 O   0  0  0  0  0  0  0  0  0  0  0  0
  2  1  1  0
  2  3  2  0
  4  2  1  0
  5  4  1  0
  5  6  1  0
  6  8  1  0
  6  7  1  6
  8  9  2  0
 11 13  1  0
 11 10  1  1
 12 11  1  0
 13 14  1  6
 14  8  1  0
 15 17  1  0
 15 13  1  0
 16 15  2  0
 18 26  1  0
 18 17  1  0
 18 19  1  6
 20 19  1  0
 21 20  2  0
 22 21  1  0
 23 24  1  0
 23 22  2  0
 24 25  2  0
 25 20  1  0
 26 27  1  0
 28 26  2  0
M  END
$$$$
