QVF.pdb
     RDKit          3D

 28 28  0  0  1  0  0  0  0  0999 V2000
    8.6611  -21.0616   21.4468 N   0  0  0  0  0  0  0  0  0  0  0  0
    8.3836  -21.4336   20.1071 C   0  0  0  0  0  0  0  0  0  0  0  0
    8.4338  -22.6481   19.8119 O   0  0  0  0  0  0  0  0  0  0  0  0
    8.0503  -20.4098   19.1201 C   0  0  0  0  0  0  0  0  0  0  0  0
    7.8921  -19.0452   19.7188 C   0  0  0  0  0  0  0  0  0  0  0  0
    8.2736  -17.9193   18.7999 C   0  0  2  0  0  0  0  0  0  0  0  0
    9.3268  -18.3435   17.8992 N   0  0  0  0  0  0  0  0  0  0  0  0
    8.7196  -16.7921   19.6658 C   0  0  0  0  0  0  0  0  0  0  0  0
    9.9386  -16.6655   19.9432 O   0  0  0  0  0  0  0  0  0  0  0  0
    7.9594  -12.4165   21.7091 C   0  0  0  0  0  0  0  0  0  0  0  0
    7.4302  -13.4989   20.7773 C   0  0  1  0  0  0  0  0  0  0  0  0
    7.6147  -13.0277   19.3715 C   0  0  0  0  0  0  0  0  0  0  0  0
    8.2401  -14.7494   21.0751 C   0  0  2  0  0  0  0  0  0  0  0  0
    7.8150  -15.8450   20.1962 N   0  0  0  0  0  0  0  0  0  0  0  0
    8.0130  -15.1744   22.4816 C   0  0  0  0  0  0  0  0  0  0  0  0
    6.9385  -15.7227   22.8266 O   0  0  0  0  0  0  0  0  0  0  0  0
    8.9807  -14.9825   23.4736 N   0  0  0  0  0  0  0  0  0  0  0  0
    8.8288  -15.3058   24.8712 C   0  0  1  0  0  0  0  0  0  0  0  0
    7.4487  -15.2865   25.3664 C   0  0  0  0  0  0  0  0  0  0  0  0
    7.1340  -13.9662   25.9402 C   0  0  0  0  0  0  0  0  0  0  0  0
    8.1857  -13.1308   26.2466 C   0  0  0  0  0  0  0  0  0  0  0  0
    8.0028  -11.8722   26.7568 C   0  0  0  0  0  0  0  0  0  0  0  0
    6.7025  -11.4476   26.9631 C   0  0  0  0  0  0  0  0  0  0  0  0
    5.6253  -12.2449   26.6726 C   0  0  0  0  0  0  0  0  0  0  0  0
    5.8502  -13.5109   26.1581 C   0  0  0  0  0  0  0  0  0  0  0  0
    9.4851  -16.5948   25.1169 C   0  0  0  0  0  0  0  0  0  0  0  0
   10.1027  -17.4002   24.1766 O   0  0  0  0  0  0  0  0  0  0  0  0
    9.5146  -17.0692   26.3074 O   0  0  0  0  0  0  0  0  0  0  0  0
  2  1  1  0
  2  3  2  0
  4  2  1  0
  5  4  1  0
  5  6  1  0
  6  8  1  0
  6  7  1  6
  8  9  2  0
 11 13  1  0
 11 10  1  1
 12 11  1  0
 13 14  1  6
 14  8  1  0
 15 17  1  0
 15 13  1  0
 16 15  2  0
 18 26  1  0
 18 17  1  0
 18 19  1  6
 20 19  1  0
 21 20  2  0
 22 21  1  0
 23 24  1  0
 23 22  2  0
 24 25  2  0
 25 20  1  0
 26 27  1  0
 28 26  2  0
M  END
$$$$
