KKD.pdb
     RDKit          3D

 27 26  0  0  1  0  0  0  0  0999 V2000
   16.0613  -13.2662  -15.0411 N   0  0  0  0  0  0  0  0  0  0  0  0
   16.2083  -11.9276  -15.4997 C   0  0  1  0  0  0  0  0  0  0  0  0
   15.3473  -10.9715  -14.6845 C   0  0  0  0  0  0  0  0  0  0  0  0
   13.9305  -11.3853  -14.5353 C   0  0  0  0  0  0  0  0  0  0  0  0
   13.0159  -10.4037  -13.8722 C   0  0  0  0  0  0  0  0  0  0  0  0
   11.5727  -10.8876  -13.9730 C   0  0  0  0  0  0  0  0  0  0  0  0
   10.8080   -9.9367  -13.1470 N   0  0  0  0  0  0  0  0  0  0  0  0
   17.6524  -11.4878  -15.3920 C   0  0  0  0  0  0  0  0  0  0  0  0
   18.2879  -11.8356  -14.3792 O   0  0  0  0  0  0  0  0  0  0  0  0
   18.2286  -10.7139  -16.4128 N   0  0  0  0  0  0  0  0  0  0  0  0
   19.5977  -10.2381  -16.3663 C   0  0  1  0  0  0  0  0  0  0  0  0
   20.3207  -10.5828  -17.6490 C   0  0  0  0  0  0  0  0  0  0  0  0
   20.7676  -11.9887  -17.7737 C   0  0  0  0  0  0  0  0  0  0  0  0
   21.3468  -12.2872  -19.1383 C   0  0  0  0  0  0  0  0  0  0  0  0
   21.7296  -13.7224  -19.3425 C   0  0  0  0  0  0  0  0  0  0  0  0
   22.1461  -14.0524  -20.6666 N   0  0  0  0  0  0  0  0  0  0  0  0
   19.6162   -8.8154  -16.0433 C   0  0  0  0  0  0  0  0  0  0  0  0
   18.8007   -7.9646  -16.4931 O   0  0  0  0  0  0  0  0  0  0  0  0
   20.6027   -8.3142  -15.1627 N   0  0  0  0  0  0  0  0  0  0  0  0
   20.7055   -6.8539  -14.8938 C   0  0  1  0  0  0  0  0  0  0  0  0
   21.4080   -6.7492  -13.5586 C   0  0  0  0  0  0  0  0  0  0  0  0
   21.6813   -5.4032  -13.0795 C   0  0  0  0  0  0  0  0  0  0  0  0
   21.0897   -4.4181  -13.5390 O   0  0  0  0  0  0  0  0  0  0  0  0
   21.5297   -6.2269  -15.9264 C   0  0  0  0  0  0  0  0  0  0  0  0
   22.5459   -6.8397  -16.3664 O   0  0  0  0  0  0  0  0  0  0  0  0
   22.6320   -5.1667  -12.0719 O   0  0  0  0  0  0  0  0  0  0  0  0
   21.2651   -4.9859  -16.4621 O   0  0  0  0  0  0  0  0  0  0  0  0
  2  3  1  0
  2  1  1  1
  4  3  1  0
  4  5  1  0
  5  6  1  0
  6  7  1  0
  8  2  1  0
  9  8  2  0
 10  8  1  0
 11 10  1  0
 11 12  1  6
 13 12  1  0
 14 13  1  0
 15 14  1  0
 16 15  1  0
 17 11  1  0
 17 18  2  0
 19 17  1  0
 20 19  1  0
 20 21  1  1
 21 22  1  0
 22 26  1  0
 22 23  2  0
 24 20  1  0
 25 24  2  0
 27 24  1  0
M  END
$$$$
