KKD.pdb
     RDKit          3D

 27 26  0  0  1  0  0  0  0  0999 V2000
   18.7813  -13.3419  -16.3596 N   0  0  0  0  0  0  0  0  0  0  0  0
   19.1430  -12.1032  -16.9583 C   0  0  1  0  0  0  0  0  0  0  0  0
   17.9127  -11.2500  -17.2383 C   0  0  0  0  0  0  0  0  0  0  0  0
   16.8084  -11.4134  -16.2612 C   0  0  0  0  0  0  0  0  0  0  0  0
   15.6098  -10.5389  -16.4577 C   0  0  0  0  0  0  0  0  0  0  0  0
   15.1148  -10.0246  -15.1095 C   0  0  0  0  0  0  0  0  0  0  0  0
   14.7404  -11.2413  -14.3674 N   0  0  0  0  0  0  0  0  0  0  0  0
   20.0711  -11.3277  -16.0485 C   0  0  0  0  0  0  0  0  0  0  0  0
   19.7435  -11.2115  -14.8528 O   0  0  0  0  0  0  0  0  0  0  0  0
   21.2527  -10.7685  -16.5626 N   0  0  0  0  0  0  0  0  0  0  0  0
   22.2337  -10.0951  -15.7339 C   0  0  1  0  0  0  0  0  0  0  0  0
   23.6239  -10.6051  -16.0406 C   0  0  0  0  0  0  0  0  0  0  0  0
   23.8910  -12.0085  -15.6516 C   0  0  0  0  0  0  0  0  0  0  0  0
   25.2851  -12.4534  -16.0324 C   0  0  0  0  0  0  0  0  0  0  0  0
   25.6248  -13.8478  -15.5982 C   0  0  0  0  0  0  0  0  0  0  0  0
   26.9343  -14.2878  -15.9551 N   0  0  0  0  0  0  0  0  0  0  0  0
   22.0918   -8.6498  -15.8748 C   0  0  0  0  0  0  0  0  0  0  0  0
   21.9278   -8.0461  -16.9701 O   0  0  0  0  0  0  0  0  0  0  0  0
   22.1322   -7.8307  -14.7227 N   0  0  0  0  0  0  0  0  0  0  0  0
   22.0365   -6.3503  -14.8430 C   0  0  1  0  0  0  0  0  0  0  0  0
   20.6468   -6.0891  -15.3793 C   0  0  0  0  0  0  0  0  0  0  0  0
   20.2445   -4.6942  -15.4712 C   0  0  0  0  0  0  0  0  0  0  0  0
   21.0068   -3.8269  -15.9165 O   0  0  0  0  0  0  0  0  0  0  0  0
   22.1668   -5.7460  -13.5176 C   0  0  0  0  0  0  0  0  0  0  0  0
   22.1277   -6.4861  -12.4915 O   0  0  0  0  0  0  0  0  0  0  0  0
   18.9694   -4.2741  -15.0561 O   0  0  0  0  0  0  0  0  0  0  0  0
   22.3330   -4.3946  -13.3101 O   0  0  0  0  0  0  0  0  0  0  0  0
  2  3  1  0
  2  1  1  1
  4  3  1  0
  4  5  1  0
  5  6  1  0
  6  7  1  0
  8  2  1  0
  9  8  2  0
 10  8  1  0
 11 10  1  0
 11 12  1  6
 13 12  1  0
 14 13  1  0
 15 14  1  0
 16 15  1  0
 17 11  1  0
 17 18  2  0
 19 17  1  0
 20 19  1  0
 20 21  1  1
 21 22  1  0
 22 26  1  0
 22 23  2  0
 24 20  1  0
 25 24  2  0
 27 24  1  0
M  END
$$$$
