KKD.pdb
     RDKit          3D

 27 26  0  0  1  0  0  0  0  0999 V2000
   27.0002  -21.7109  -17.8200 N   0  0  0  0  0  0  0  0  0  0  0  0
   26.9162  -22.0586  -16.4431 C   0  0  1  0  0  0  0  0  0  0  0  0
   28.2902  -22.0313  -15.7864 C   0  0  0  0  0  0  0  0  0  0  0  0
   29.2533  -23.0258  -16.3198 C   0  0  0  0  0  0  0  0  0  0  0  0
   28.7920  -24.4491  -16.3524 C   0  0  0  0  0  0  0  0  0  0  0  0
   29.8509  -25.3238  -17.0164 C   0  0  0  0  0  0  0  0  0  0  0  0
   29.3399  -26.6976  -16.8654 N   0  0  0  0  0  0  0  0  0  0  0  0
   26.0111  -21.0931  -15.7087 C   0  0  0  0  0  0  0  0  0  0  0  0
   25.8432  -21.2738  -14.4882 O   0  0  0  0  0  0  0  0  0  0  0  0
   25.3944  -20.0408  -16.4053 N   0  0  0  0  0  0  0  0  0  0  0  0
   24.4763  -19.1095  -15.7787 C   0  0  1  0  0  0  0  0  0  0  0  0
   24.5846  -17.7461  -16.4238 C   0  0  0  0  0  0  0  0  0  0  0  0
   25.8642  -17.0342  -16.2048 C   0  0  0  0  0  0  0  0  0  0  0  0
   25.9276  -15.7244  -16.9575 C   0  0  0  0  0  0  0  0  0  0  0  0
   27.2507  -15.0253  -16.8634 C   0  0  0  0  0  0  0  0  0  0  0  0
   27.3576  -13.8311  -17.6368 N   0  0  0  0  0  0  0  0  0  0  0  0
   23.1260  -19.6620  -15.7912 C   0  0  0  0  0  0  0  0  0  0  0  0
   22.5429  -20.1143  -16.8142 O   0  0  0  0  0  0  0  0  0  0  0  0
   22.3843  -19.7150  -14.5883 N   0  0  0  0  0  0  0  0  0  0  0  0
   21.0000  -20.2617  -14.5763 C   0  0  1  0  0  0  0  0  0  0  0  0
   21.0837  -21.5241  -13.7478 C   0  0  0  0  0  0  0  0  0  0  0  0
   20.9783  -22.7792  -14.4755 C   0  0  0  0  0  0  0  0  0  0  0  0
   20.8702  -22.8076  -15.7081 O   0  0  0  0  0  0  0  0  0  0  0  0
   20.1071  -19.3081  -13.9191 C   0  0  0  0  0  0  0  0  0  0  0  0
   20.5721  -18.5293  -13.0363 O   0  0  0  0  0  0  0  0  0  0  0  0
   20.9947  -24.0144  -13.8055 O   0  0  0  0  0  0  0  0  0  0  0  0
   18.7641  -19.2008  -14.2055 O   0  0  0  0  0  0  0  0  0  0  0  0
  2  3  1  0
  2  1  1  6
  4  3  1  0
  4  5  1  0
  5  6  1  0
  6  7  1  0
  8  2  1  0
  9  8  2  0
 10  8  1  0
 11 10  1  0
 11 12  1  6
 13 12  1  0
 14 13  1  0
 15 14  1  0
 16 15  1  0
 17 11  1  0
 17 18  2  0
 19 17  1  0
 20 19  1  0
 20 21  1  1
 21 22  1  0
 22 26  1  0
 22 23  2  0
 24 20  1  0
 25 24  2  0
 27 24  1  0
M  END
$$$$
