KKD.pdb
     RDKit          3D

 27 26  0  0  1  0  0  0  0  0999 V2000
   25.9063  -20.2258   -9.3605 N   0  0  0  0  0  0  0  0  0  0  0  0
   25.1959  -21.0556  -10.2719 C   0  0  1  0  0  0  0  0  0  0  0  0
   23.7318  -21.1815   -9.8712 C   0  0  0  0  0  0  0  0  0  0  0  0
   23.2482  -20.1272   -8.9464 C   0  0  0  0  0  0  0  0  0  0  0  0
   21.8656  -20.3022   -8.4008 C   0  0  0  0  0  0  0  0  0  0  0  0
   21.8164  -21.5267   -7.4923 C   0  0  0  0  0  0  0  0  0  0  0  0
   20.4253  -21.5692   -7.0084 N   0  0  0  0  0  0  0  0  0  0  0  0
   25.2657  -20.4838  -11.6715 C   0  0  0  0  0  0  0  0  0  0  0  0
   25.0725  -19.2611  -11.8061 O   0  0  0  0  0  0  0  0  0  0  0  0
   25.5389  -21.3268  -12.7614 N   0  0  0  0  0  0  0  0  0  0  0  0
   25.6488  -20.8449  -14.1247 C   0  0  1  0  0  0  0  0  0  0  0  0
   26.7595  -21.5681  -14.8528 C   0  0  0  0  0  0  0  0  0  0  0  0
   26.9745  -21.1596  -16.2596 C   0  0  0  0  0  0  0  0  0  0  0  0
   28.0600  -21.9694  -16.9321 C   0  0  0  0  0  0  0  0  0  0  0  0
   28.3786  -21.5289  -18.3294 C   0  0  0  0  0  0  0  0  0  0  0  0
   29.4300  -22.2543  -18.9650 N   0  0  0  0  0  0  0  0  0  0  0  0
   24.3522  -20.9364  -14.7876 C   0  0  0  0  0  0  0  0  0  0  0  0
   23.6062  -21.9534  -14.7721 O   0  0  0  0  0  0  0  0  0  0  0  0
   23.8586  -19.8240  -15.5079 N   0  0  0  0  0  0  0  0  0  0  0  0
   22.5728  -19.9144  -16.2520 C   0  0  1  0  0  0  0  0  0  0  0  0
   21.9116  -18.5682  -16.0582 C   0  0  0  0  0  0  0  0  0  0  0  0
   21.1024  -18.4157  -14.8591 C   0  0  0  0  0  0  0  0  0  0  0  0
   20.9751  -17.3205  -14.2970 O   0  0  0  0  0  0  0  0  0  0  0  0
   22.8479  -20.1199  -17.6735 C   0  0  0  0  0  0  0  0  0  0  0  0
   22.3427  -19.3303  -18.5240 O   0  0  0  0  0  0  0  0  0  0  0  0
   20.4303  -19.5102  -14.2887 O   0  0  0  0  0  0  0  0  0  0  0  0
   23.6385  -21.1392  -18.1564 O   0  0  0  0  0  0  0  0  0  0  0  0
  2  3  1  0
  2  1  1  1
  4  3  1  0
  4  5  1  0
  5  6  1  0
  6  7  1  0
  8  2  1  0
  9  8  2  0
 10  8  1  0
 11 10  1  0
 11 12  1  6
 13 12  1  0
 14 13  1  0
 15 14  1  0
 16 15  1  0
 17 11  1  0
 17 18  2  0
 19 17  1  0
 20 19  1  0
 20 21  1  6
 21 22  1  0
 22 26  1  0
 22 23  2  0
 24 20  1  0
 25 24  2  0
 27 24  1  0
M  END
$$$$
