KKD.pdb
     RDKit          3D

 27 26  0  0  1  0  0  0  0  0999 V2000
   23.1321  -23.9911  -17.1518 N   0  0  0  0  0  0  0  0  0  0  0  0
   22.2902  -25.0205  -17.6571 C   0  0  1  0  0  0  0  0  0  0  0  0
   23.0536  -26.3304  -17.8029 C   0  0  0  0  0  0  0  0  0  0  0  0
   24.4767  -26.1796  -18.1937 C   0  0  0  0  0  0  0  0  0  0  0  0
   25.4560  -25.9783  -17.0800 C   0  0  0  0  0  0  0  0  0  0  0  0
   26.8698  -25.8735  -17.6433 C   0  0  0  0  0  0  0  0  0  0  0  0
   27.7137  -25.5953  -16.4679 N   0  0  0  0  0  0  0  0  0  0  0  0
   21.1166  -25.2466  -16.7285 C   0  0  0  0  0  0  0  0  0  0  0  0
   20.3202  -26.1596  -17.0162 O   0  0  0  0  0  0  0  0  0  0  0  0
   20.9559  -24.4388  -15.5907 N   0  0  0  0  0  0  0  0  0  0  0  0
   19.8581  -24.5989  -14.6569 C   0  0  1  0  0  0  0  0  0  0  0  0
   20.3513  -24.4647  -13.2336 C   0  0  0  0  0  0  0  0  0  0  0  0
   19.3230  -24.6322  -12.1816 C   0  0  0  0  0  0  0  0  0  0  0  0
   19.5016  -25.9172  -11.4050 C   0  0  0  0  0  0  0  0  0  0  0  0
   18.5468  -26.0808  -10.2604 C   0  0  0  0  0  0  0  0  0  0  0  0
   18.7248  -27.2702   -9.4927 N   0  0  0  0  0  0  0  0  0  0  0  0
   18.7809  -23.6754  -14.9969 C   0  0  0  0  0  0  0  0  0  0  0  0
   18.9386  -22.4528  -15.2640 O   0  0  0  0  0  0  0  0  0  0  0  0
   17.4486  -24.1471  -15.0444 N   0  0  0  0  0  0  0  0  0  0  0  0
   16.3212  -23.2067  -15.2891 C   0  0  1  0  0  0  0  0  0  0  0  0
   15.1754  -24.0793  -15.7508 C   0  0  0  0  0  0  0  0  0  0  0  0
   13.9389  -23.3917  -16.0885 C   0  0  0  0  0  0  0  0  0  0  0  0
   13.8056  -22.1735  -15.9154 O   0  0  0  0  0  0  0  0  0  0  0  0
   15.9560  -22.5496  -14.0347 C   0  0  0  0  0  0  0  0  0  0  0  0
   16.0693  -23.1843  -12.9456 O   0  0  0  0  0  0  0  0  0  0  0  0
   12.8419  -24.0858  -16.6268 O   0  0  0  0  0  0  0  0  0  0  0  0
   15.4868  -21.2567  -13.9611 O   0  0  0  0  0  0  0  0  0  0  0  0
  2  3  1  0
  2  1  1  1
  4  3  1  0
  4  5  1  0
  5  6  1  0
  6  7  1  0
  8  2  1  0
  9  8  2  0
 10  8  1  0
 11 10  1  0
 11 12  1  1
 13 12  1  0
 14 13  1  0
 15 14  1  0
 16 15  1  0
 17 11  1  0
 17 18  2  0
 19 17  1  0
 20 19  1  0
 20 21  1  1
 21 22  1  0
 22 26  1  0
 22 23  2  0
 24 20  1  0
 25 24  2  0
 27 24  1  0
M  END
$$$$
