KKD.pdb
     RDKit          3D

 27 26  0  0  1  0  0  0  0  0999 V2000
   24.8317  -21.5457  -15.6452 N   0  0  0  0  0  0  0  0  0  0  0  0
   24.1857  -20.4118  -15.0789 C   0  0  1  0  0  0  0  0  0  0  0  0
   24.2223  -19.2263  -16.0345 C   0  0  0  0  0  0  0  0  0  0  0  0
   25.1789  -19.3652  -17.1599 C   0  0  0  0  0  0  0  0  0  0  0  0
   26.1509  -18.2433  -17.3506 C   0  0  0  0  0  0  0  0  0  0  0  0
   27.0127  -18.5058  -18.5817 C   0  0  0  0  0  0  0  0  0  0  0  0
   27.8892  -17.3250  -18.6749 N   0  0  0  0  0  0  0  0  0  0  0  0
   22.7408  -20.7310  -14.7610 C   0  0  0  0  0  0  0  0  0  0  0  0
   22.0651  -21.2904  -15.6447 O   0  0  0  0  0  0  0  0  0  0  0  0
   22.2074  -20.3950  -13.5057 N   0  0  0  0  0  0  0  0  0  0  0  0
   20.8314  -20.6627  -13.1348 C   0  0  1  0  0  0  0  0  0  0  0  0
   20.7406  -21.0288  -11.6704 C   0  0  0  0  0  0  0  0  0  0  0  0
   19.7690  -22.0949  -11.3363 C   0  0  0  0  0  0  0  0  0  0  0  0
   19.6103  -22.2786   -9.8439 C   0  0  0  0  0  0  0  0  0  0  0  0
   18.5747  -23.2914   -9.4564 C   0  0  0  0  0  0  0  0  0  0  0  0
   18.3320  -23.3991   -8.0546 N   0  0  0  0  0  0  0  0  0  0  0  0
   19.9883  -19.5336  -13.5134 C   0  0  0  0  0  0  0  0  0  0  0  0
   20.2136  -18.3317  -13.2040 O   0  0  0  0  0  0  0  0  0  0  0  0
   18.8263  -19.7609  -14.2865 N   0  0  0  0  0  0  0  0  0  0  0  0
   17.9422  -18.6283  -14.6748 C   0  0  1  0  0  0  0  0  0  0  0  0
   17.8509  -18.7006  -16.1826 C   0  0  0  0  0  0  0  0  0  0  0  0
   16.9718  -17.7332  -16.8209 C   0  0  0  0  0  0  0  0  0  0  0  0
   16.4065  -16.8434  -16.1726 O   0  0  0  0  0  0  0  0  0  0  0  0
   16.6135  -18.8296  -14.0978 C   0  0  0  0  0  0  0  0  0  0  0  0
   15.6926  -18.0006  -14.3562 O   0  0  0  0  0  0  0  0  0  0  0  0
   16.7281  -17.7708  -18.2044 O   0  0  0  0  0  0  0  0  0  0  0  0
   16.2934  -19.8859  -13.2741 O   0  0  0  0  0  0  0  0  0  0  0  0
  2  3  1  0
  2  1  1  6
  4  3  1  0
  4  5  1  0
  5  6  1  0
  6  7  1  0
  8  2  1  0
  9  8  2  0
 10  8  1  0
 11 10  1  0
 11 12  1  1
 13 12  1  0
 14 13  1  0
 15 14  1  0
 16 15  1  0
 17 11  1  0
 17 18  2  0
 19 17  1  0
 20 19  1  0
 20 21  1  6
 21 22  1  0
 22 26  1  0
 22 23  2  0
 24 20  1  0
 25 24  2  0
 27 24  1  0
M  END
$$$$
