KKD.pdb
     RDKit          3D

 27 26  0  0  1  0  0  0  0  0999 V2000
   21.5082  -13.1793  -16.2289 N   0  0  0  0  0  0  0  0  0  0  0  0
   20.2615  -13.7685  -15.8791 C   0  0  1  0  0  0  0  0  0  0  0  0
   19.1385  -13.2388  -16.7611 C   0  0  0  0  0  0  0  0  0  0  0  0
   19.5737  -12.2983  -17.8227 C   0  0  0  0  0  0  0  0  0  0  0  0
   19.6708  -12.8559  -19.2082 C   0  0  0  0  0  0  0  0  0  0  0  0
   20.0582  -11.7518  -20.1870 C   0  0  0  0  0  0  0  0  0  0  0  0
   20.2841  -12.4544  -21.4623 N   0  0  0  0  0  0  0  0  0  0  0  0
   20.3267  -15.2728  -16.0322 C   0  0  0  0  0  0  0  0  0  0  0  0
   19.3177  -15.8524  -16.4756 O   0  0  0  0  0  0  0  0  0  0  0  0
   21.4965  -15.9646  -15.6772 N   0  0  0  0  0  0  0  0  0  0  0  0
   21.6482  -17.3972  -15.8428 C   0  0  1  0  0  0  0  0  0  0  0  0
   23.0885  -17.7445  -16.1456 C   0  0  0  0  0  0  0  0  0  0  0  0
   23.4125  -17.9392  -17.5771 C   0  0  0  0  0  0  0  0  0  0  0  0
   24.8602  -18.3202  -17.7905 C   0  0  0  0  0  0  0  0  0  0  0  0
   25.2781  -18.3637  -19.2298 C   0  0  0  0  0  0  0  0  0  0  0  0
   26.6702  -18.5889  -19.4465 N   0  0  0  0  0  0  0  0  0  0  0  0
   21.1072  -18.0898  -14.6781 C   0  0  0  0  0  0  0  0  0  0  0  0
   21.4887  -17.9059  -13.4900 O   0  0  0  0  0  0  0  0  0  0  0  0
   20.0764  -19.0423  -14.8512 N   0  0  0  0  0  0  0  0  0  0  0  0
   19.4418  -19.6931  -13.6727 C   0  0  1  0  0  0  0  0  0  0  0  0
   17.9560  -19.4832  -13.8610 C   0  0  0  0  0  0  0  0  0  0  0  0
   17.2069  -19.0901  -12.6777 C   0  0  0  0  0  0  0  0  0  0  0  0
   17.7632  -18.9138  -11.5863 O   0  0  0  0  0  0  0  0  0  0  0  0
   19.7359  -21.1256  -13.6922 C   0  0  0  0  0  0  0  0  0  0  0  0
   20.0569  -21.6784  -14.7846 O   0  0  0  0  0  0  0  0  0  0  0  0
   15.8161  -18.8944  -12.7266 O   0  0  0  0  0  0  0  0  0  0  0  0
   19.6852  -21.9285  -12.5743 O   0  0  0  0  0  0  0  0  0  0  0  0
  2  3  1  0
  2  1  1  6
  4  3  1  0
  4  5  1  0
  5  6  1  0
  6  7  1  0
  8  2  1  0
  9  8  2  0
 10  8  1  0
 11 10  1  0
 11 12  1  1
 13 12  1  0
 14 13  1  0
 15 14  1  0
 16 15  1  0
 17 11  1  0
 17 18  2  0
 19 17  1  0
 20 19  1  0
 20 21  1  6
 21 22  1  0
 22 26  1  0
 22 23  2  0
 24 20  1  0
 25 24  2  0
 27 24  1  0
M  END
$$$$
