KKD.pdb
     RDKit          3D

 27 26  0  0  1  0  0  0  0  0999 V2000
   26.0119  -19.3354  -15.8704 N   0  0  0  0  0  0  0  0  0  0  0  0
   24.9649  -18.6868  -16.5825 C   0  0  1  0  0  0  0  0  0  0  0  0
   24.5891  -19.4672  -17.8354 C   0  0  0  0  0  0  0  0  0  0  0  0
   25.7137  -19.7220  -18.7689 C   0  0  0  0  0  0  0  0  0  0  0  0
   25.3710  -20.4101  -20.0530 C   0  0  0  0  0  0  0  0  0  0  0  0
   26.6447  -20.7172  -20.8343 C   0  0  0  0  0  0  0  0  0  0  0  0
   26.1731  -21.4028  -22.0504 N   0  0  0  0  0  0  0  0  0  0  0  0
   23.7356  -18.5542  -15.7097 C   0  0  0  0  0  0  0  0  0  0  0  0
   23.6797  -19.2534  -14.6809 O   0  0  0  0  0  0  0  0  0  0  0  0
   22.7090  -17.6669  -16.0731 N   0  0  0  0  0  0  0  0  0  0  0  0
   21.4968  -17.5001  -15.2950 C   0  0  1  0  0  0  0  0  0  0  0  0
   20.8961  -16.1340  -15.5391 C   0  0  0  0  0  0  0  0  0  0  0  0
   19.6133  -15.8665  -14.8498 C   0  0  0  0  0  0  0  0  0  0  0  0
   19.0929  -14.4743  -15.1273 C   0  0  0  0  0  0  0  0  0  0  0  0
   17.7555  -14.1849  -14.5141 C   0  0  0  0  0  0  0  0  0  0  0  0
   17.2482  -12.8752  -14.7651 N   0  0  0  0  0  0  0  0  0  0  0  0
   20.5807  -18.6035  -15.5638 C   0  0  0  0  0  0  0  0  0  0  0  0
   20.3631  -19.0966  -16.7042 O   0  0  0  0  0  0  0  0  0  0  0  0
   19.8679  -19.1928  -14.4941 N   0  0  0  0  0  0  0  0  0  0  0  0
   18.9512  -20.3401  -14.7367 C   0  0  1  0  0  0  0  0  0  0  0  0
   19.4655  -21.4486  -13.8457 C   0  0  0  0  0  0  0  0  0  0  0  0
   18.7349  -22.7054  -13.8958 C   0  0  0  0  0  0  0  0  0  0  0  0
   17.7455  -22.8522  -14.6246 O   0  0  0  0  0  0  0  0  0  0  0  0
   17.5966  -19.9749  -14.3242 C   0  0  0  0  0  0  0  0  0  0  0  0
   16.9706  -20.7226  -13.5173 O   0  0  0  0  0  0  0  0  0  0  0  0
   19.1247  -23.8073  -13.1156 O   0  0  0  0  0  0  0  0  0  0  0  0
   16.9445  -18.8453  -14.7668 O   0  0  0  0  0  0  0  0  0  0  0  0
  2  3  1  0
  2  1  1  1
  4  3  1  0
  4  5  1  0
  5  6  1  0
  6  7  1  0
  8  2  1  0
  9  8  2  0
 10  8  1  0
 11 10  1  0
 11 12  1  6
 13 12  1  0
 14 13  1  0
 15 14  1  0
 16 15  1  0
 17 11  1  0
 17 18  2  0
 19 17  1  0
 20 19  1  0
 20 21  1  1
 21 22  1  0
 22 26  1  0
 22 23  2  0
 24 20  1  0
 25 24  2  0
 27 24  1  0
M  END
$$$$
