KKD.pdb
     RDKit          3D

 27 26  0  0  1  0  0  0  0  0999 V2000
   20.9282  -12.4687  -16.8798 N   0  0  0  0  0  0  0  0  0  0  0  0
   20.4278  -11.6005  -17.8895 C   0  0  1  0  0  0  0  0  0  0  0  0
   19.3017  -12.2626  -18.6727 C   0  0  0  0  0  0  0  0  0  0  0  0
   19.0254  -13.6700  -18.2932 C   0  0  0  0  0  0  0  0  0  0  0  0
   17.8698  -13.8965  -17.3696 C   0  0  0  0  0  0  0  0  0  0  0  0
   17.6647  -15.3922  -17.1506 C   0  0  0  0  0  0  0  0  0  0  0  0
   16.6768  -15.4716  -16.0602 N   0  0  0  0  0  0  0  0  0  0  0  0
   19.9006  -10.3224  -17.2736 C   0  0  0  0  0  0  0  0  0  0  0  0
   19.4253   -9.4648  -18.0411 O   0  0  0  0  0  0  0  0  0  0  0  0
   19.9601  -10.1370  -15.8825 N   0  0  0  0  0  0  0  0  0  0  0  0
   19.4235   -8.9650  -15.2181 C   0  0  1  0  0  0  0  0  0  0  0  0
   18.5007   -9.3724  -14.0915 C   0  0  0  0  0  0  0  0  0  0  0  0
   17.1240   -9.7407  -14.4933 C   0  0  0  0  0  0  0  0  0  0  0  0
   16.2551  -10.0917  -13.3067 C   0  0  0  0  0  0  0  0  0  0  0  0
   14.8445  -10.4534  -13.6640 C   0  0  0  0  0  0  0  0  0  0  0  0
   14.0182  -10.8193  -12.5599 N   0  0  0  0  0  0  0  0  0  0  0  0
   20.5142   -8.0908  -14.7997 C   0  0  0  0  0  0  0  0  0  0  0  0
   21.5702   -8.4799  -14.2301 O   0  0  0  0  0  0  0  0  0  0  0  0
   20.4205   -6.6995  -15.0348 N   0  0  0  0  0  0  0  0  0  0  0  0
   21.5074   -5.7828  -14.5947 C   0  0  1  0  0  0  0  0  0  0  0  0
   21.1779   -4.4502  -15.2292 C   0  0  0  0  0  0  0  0  0  0  0  0
   22.0806   -3.3514  -14.9232 C   0  0  0  0  0  0  0  0  0  0  0  0
   21.7245   -2.1707  -15.0274 O   0  0  0  0  0  0  0  0  0  0  0  0
   21.4705   -5.6497  -13.1388 C   0  0  0  0  0  0  0  0  0  0  0  0
   20.3806   -5.8439  -12.5252 O   0  0  0  0  0  0  0  0  0  0  0  0
   23.3983   -3.5875  -14.4958 O   0  0  0  0  0  0  0  0  0  0  0  0
   22.5691   -5.3197  -12.3765 O   0  0  0  0  0  0  0  0  0  0  0  0
  2  3  1  0
  2  1  1  1
  4  3  1  0
  4  5  1  0
  5  6  1  0
  6  7  1  0
  8  2  1  0
  9  8  2  0
 10  8  1  0
 11 10  1  0
 11 12  1  1
 13 12  1  0
 14 13  1  0
 15 14  1  0
 16 15  1  0
 17 11  1  0
 17 18  2  0
 19 17  1  0
 20 19  1  0
 20 21  1  6
 21 22  1  0
 22 26  1  0
 22 23  2  0
 24 20  1  0
 25 24  2  0
 27 24  1  0
M  END
$$$$
