FYM.pdb
     RDKit          3D

 32 33  0  0  1  0  0  0  0  0999 V2000
   30.4143  -35.4597  -19.6652 N   0  0  0  0  0  0  0  0  0  0  0  0
   29.1331  -34.9346  -19.2336 C   0  0  1  0  0  0  0  0  0  0  0  0
   28.1019  -36.0271  -19.4139 C   0  0  0  0  0  0  0  0  0  0  0  0
   27.6452  -36.1169  -20.8210 C   0  0  0  0  0  0  0  0  0  0  0  0
   26.9372  -35.0768  -21.3866 C   0  0  0  0  0  0  0  0  0  0  0  0
   26.4870  -35.1147  -22.7054 C   0  0  0  0  0  0  0  0  0  0  0  0
   26.7718  -36.2373  -23.4444 C   0  0  0  0  0  0  0  0  0  0  0  0
   27.4805  -37.3026  -22.9114 C   0  0  0  0  0  0  0  0  0  0  0  0
   27.9031  -37.2111  -21.5967 C   0  0  0  0  0  0  0  0  0  0  0  0
   29.1977  -34.5675  -17.8090 C   0  0  0  0  0  0  0  0  0  0  0  0
   29.9060  -35.2537  -17.0269 O   0  0  0  0  0  0  0  0  0  0  0  0
   34.3801  -31.6350  -17.3833 O   0  0  0  0  0  0  0  0  0  0  0  0
   33.0518  -31.6419  -16.9799 C   0  0  0  0  0  0  0  0  0  0  0  0
   32.6967  -32.1698  -15.7563 C   0  0  0  0  0  0  0  0  0  0  0  0
   31.3794  -32.1727  -15.3645 C   0  0  0  0  0  0  0  0  0  0  0  0
   30.4207  -31.6511  -16.1898 C   0  0  0  0  0  0  0  0  0  0  0  0
   29.0078  -31.6792  -15.7209 C   0  0  0  0  0  0  0  0  0  0  0  0
   28.5302  -33.1182  -15.8494 C   0  0  2  0  0  0  0  0  0  0  0  0
   28.4947  -33.4645  -17.2558 N   0  0  0  0  0  0  0  0  0  0  0  0
   27.1587  -33.1761  -15.2815 C   0  0  0  0  0  0  0  0  0  0  0  0
   26.1735  -32.6286  -15.8485 O   0  0  0  0  0  0  0  0  0  0  0  0
   30.7432  -31.1228  -17.4045 C   0  0  0  0  0  0  0  0  0  0  0  0
   32.0759  -31.1280  -17.7838 C   0  0  0  0  0  0  0  0  0  0  0  0
   22.3473  -36.8580  -16.4857 C   0  0  0  0  0  0  0  0  0  0  0  0
   22.8615  -36.0547  -14.9221 S   0  0  0  0  0  0  0  0  0  0  0  0
   24.6102  -35.9756  -14.7387 C   0  0  0  0  0  0  0  0  0  0  0  0
   25.1732  -35.3111  -13.5708 C   0  0  0  0  0  0  0  0  0  0  0  0
   25.5261  -33.8744  -13.5180 C   0  0  2  0  0  0  0  0  0  0  0  0
   26.9364  -33.8537  -14.0836 N   0  0  0  0  0  0  0  0  0  0  0  0
   25.7708  -33.4557  -12.0765 C   0  0  0  0  0  0  0  0  0  0  0  0
   24.7482  -33.0062  -11.4133 O   0  0  0  0  0  0  0  0  0  0  0  0
   26.9321  -33.4915  -11.3919 O   0  0  0  0  0  0  0  0  0  0  0  0
  2  1  1  1
  3  2  1  0
  3  4  1  0
  4  5  2  0
  5  6  1  0
  7  6  2  0
  8  7  1  0
  9  8  2  0
  9  4  1  0
 10  2  1  0
 10 19  1  0
 11 10  2  0
 13 14  2  0
 13 12  1  0
 15 14  1  0
 16 15  2  0
 17 16  1  0
 18 17  1  6
 18 19  1  0
 20 29  1  0
 20 18  1  0
 21 20  2  0
 22 16  1  0
 22 23  2  0
 23 13  1  0
 24 25  1  0
 25 26  1  0
 26 27  1  0
 28 27  1  1
 28 29  1  0
 28 30  1  0
 30 32  1  0
 31 30  2  0
M  END
$$$$
