FYM.pdb
     RDKit          3D

 32 33  0  0  1  0  0  0  0  0999 V2000
   14.8554  -12.6307    4.0109 N   0  0  0  0  0  0  0  0  0  0  0  0
   16.1866  -13.0119    4.4416 C   0  0  1  0  0  0  0  0  0  0  0  0
   16.7995  -11.8251    5.1525 C   0  0  0  0  0  0  0  0  0  0  0  0
   18.1372  -12.1513    5.7011 C   0  0  0  0  0  0  0  0  0  0  0  0
   18.8411  -11.2054    6.4171 C   0  0  0  0  0  0  0  0  0  0  0  0
   20.1016  -11.4651    6.9527 C   0  0  0  0  0  0  0  0  0  0  0  0
   20.6377  -12.7129    6.7458 C   0  0  0  0  0  0  0  0  0  0  0  0
   19.9612  -13.6896    6.0318 C   0  0  0  0  0  0  0  0  0  0  0  0
   18.7129  -13.3770    5.5225 C   0  0  0  0  0  0  0  0  0  0  0  0
   16.1034  -14.1424    5.3815 C   0  0  0  0  0  0  0  0  0  0  0  0
   15.1151  -14.2286    6.1563 O   0  0  0  0  0  0  0  0  0  0  0  0
   17.6704  -19.5812    1.1132 O   0  0  0  0  0  0  0  0  0  0  0  0
   17.2085  -18.9910    2.2817 C   0  0  0  0  0  0  0  0  0  0  0  0
   18.0241  -18.1486    3.0078 C   0  0  0  0  0  0  0  0  0  0  0  0
   17.5589  -17.5684    4.1636 C   0  0  0  0  0  0  0  0  0  0  0  0
   16.2857  -17.8274    4.5929 C   0  0  0  0  0  0  0  0  0  0  0  0
   15.8293  -17.1763    5.8517 C   0  0  0  0  0  0  0  0  0  0  0  0
   16.9802  -16.3095    6.3410 C   0  0  2  0  0  0  0  0  0  0  0  0
   17.0907  -15.1596    5.4666 N   0  0  0  0  0  0  0  0  0  0  0  0
   18.2149  -17.1309    6.2516 C   0  0  0  0  0  0  0  0  0  0  0  0
   19.0796  -16.9476    5.3513 O   0  0  0  0  0  0  0  0  0  0  0  0
   15.4580  -18.6560    3.8951 C   0  0  0  0  0  0  0  0  0  0  0  0
   15.9430  -19.2326    2.7322 C   0  0  0  0  0  0  0  0  0  0  0  0
   24.1767  -16.1482    9.8512 C   0  0  0  0  0  0  0  0  0  0  0  0
   22.6791  -15.9804    8.8102 S   0  0  0  0  0  0  0  0  0  0  0  0
   21.4221  -17.1381    9.2315 C   0  0  0  0  0  0  0  0  0  0  0  0
   20.2363  -17.2371    8.3910 C   0  0  0  0  0  0  0  0  0  0  0  0
   19.8728  -18.4340    7.5992 C   0  0  2  0  0  0  0  0  0  0  0  0
   18.4402  -18.1411    7.1856 N   0  0  0  0  0  0  0  0  0  0  0  0
   19.6841  -19.6267    8.5239 C   0  0  0  0  0  0  0  0  0  0  0  0
   18.6062  -19.6437    9.2488 O   0  0  0  0  0  0  0  0  0  0  0  0
   20.5072  -20.6821    8.6889 O   0  0  0  0  0  0  0  0  0  0  0  0
  2  1  1  1
  3  2  1  0
  3  4  1  0
  4  5  2  0
  5  6  1  0
  7  6  2  0
  8  7  1  0
  9  8  2  0
  9  4  1  0
 10  2  1  0
 10 19  1  0
 11 10  2  0
 13 14  2  0
 13 12  1  0
 15 14  1  0
 16 15  2  0
 17 16  1  0
 18 17  1  6
 18 19  1  0
 20 29  1  0
 20 18  1  0
 21 20  2  0
 22 16  1  0
 22 23  2  0
 23 13  1  0
 24 25  1  0
 25 26  1  0
 26 27  1  0
 28 27  1  1
 28 29  1  0
 28 30  1  0
 30 32  1  0
 31 30  2  0
M  END
$$$$
