FYM.pdb
     RDKit          3D

 32 33  0  0  1  0  0  0  0  0999 V2000
   26.9246  -23.2136  -17.9858 N   0  0  0  0  0  0  0  0  0  0  0  0
   26.8488  -21.9264  -17.3220 C   0  0  1  0  0  0  0  0  0  0  0  0
   25.8828  -21.0610  -18.1014 C   0  0  0  0  0  0  0  0  0  0  0  0
   26.5295  -20.4610  -19.2924 C   0  0  0  0  0  0  0  0  0  0  0  0
   26.4250  -21.0783  -20.5216 C   0  0  0  0  0  0  0  0  0  0  0  0
   27.0152  -20.5525  -21.6698 C   0  0  0  0  0  0  0  0  0  0  0  0
   27.7186  -19.3791  -21.5451 C   0  0  0  0  0  0  0  0  0  0  0  0
   27.8459  -18.7293  -20.3274 C   0  0  0  0  0  0  0  0  0  0  0  0
   27.2395  -19.2963  -19.2201 C   0  0  0  0  0  0  0  0  0  0  0  0
   26.3380  -22.0997  -15.9519 C   0  0  0  0  0  0  0  0  0  0  0  0
   25.6240  -23.1006  -15.6821 O   0  0  0  0  0  0  0  0  0  0  0  0
   24.4572  -20.6432   -7.5711 O   0  0  0  0  0  0  0  0  0  0  0  0
   25.0753  -20.6166   -8.8137 C   0  0  0  0  0  0  0  0  0  0  0  0
   24.9405  -19.5184   -9.6370 C   0  0  0  0  0  0  0  0  0  0  0  0
   25.5558  -19.5002  -10.8658 C   0  0  0  0  0  0  0  0  0  0  0  0
   26.3023  -20.5728  -11.2713 C   0  0  0  0  0  0  0  0  0  0  0  0
   26.9473  -20.5055  -12.6116 C   0  0  0  0  0  0  0  0  0  0  0  0
   26.0960  -21.3458  -13.5521 C   0  0  2  0  0  0  0  0  0  0  0  0
   26.6087  -21.1873  -14.8979 N   0  0  0  0  0  0  0  0  0  0  0  0
   24.7093  -20.8182  -13.4758 C   0  0  0  0  0  0  0  0  0  0  0  0
   24.0270  -20.8740  -12.4161 O   0  0  0  0  0  0  0  0  0  0  0  0
   26.4526  -21.6714  -10.4781 C   0  0  0  0  0  0  0  0  0  0  0  0
   25.8254  -21.6731   -9.2426 C   0  0  0  0  0  0  0  0  0  0  0  0
   19.4991  -15.7460  -14.9571 C   0  0  0  0  0  0  0  0  0  0  0  0
   20.8630  -16.8457  -14.4231 S   0  0  0  0  0  0  0  0  0  0  0  0
   21.6564  -17.6525  -15.7712 C   0  0  0  0  0  0  0  0  0  0  0  0
   22.7665  -18.5575  -15.5043 C   0  0  0  0  0  0  0  0  0  0  0  0
   22.7528  -19.6098  -14.4631 C   0  0  2  0  0  0  0  0  0  0  0  0
   24.1288  -20.2393  -14.6034 N   0  0  0  0  0  0  0  0  0  0  0  0
   21.8497  -20.7539  -14.8975 C   0  0  0  0  0  0  0  0  0  0  0  0
   22.2960  -21.5303  -15.8385 O   0  0  0  0  0  0  0  0  0  0  0  0
   20.6268  -21.0665  -14.4229 O   0  0  0  0  0  0  0  0  0  0  0  0
  2  1  1  6
  3  2  1  0
  3  4  1  0
  4  5  2  0
  5  6  1  0
  7  6  2  0
  8  7  1  0
  9  8  2  0
  9  4  1  0
 10  2  1  0
 10 19  1  0
 11 10  2  0
 13 14  2  0
 13 12  1  0
 15 14  1  0
 16 15  2  0
 17 16  1  0
 18 17  1  1
 18 19  1  0
 20 29  1  0
 20 18  1  0
 21 20  2  0
 22 16  1  0
 22 23  2  0
 23 13  1  0
 24 25  1  0
 25 26  1  0
 26 27  1  0
 28 27  1  6
 28 29  1  0
 28 30  1  0
 30 32  1  0
 31 30  2  0
M  END
$$$$
