FYM.pdb
     RDKit          3D

 32 33  0  0  1  0  0  0  0  0999 V2000
   22.7505   -7.8442  -20.3773 N   0  0  0  0  0  0  0  0  0  0  0  0
   22.7119   -6.7363  -19.4423 C   0  0  1  0  0  0  0  0  0  0  0  0
   22.0643   -5.5624  -20.1438 C   0  0  0  0  0  0  0  0  0  0  0  0
   22.9327   -5.0241  -21.2175 C   0  0  0  0  0  0  0  0  0  0  0  0
   22.6447   -5.2912  -22.5399 C   0  0  0  0  0  0  0  0  0  0  0  0
   23.4309   -4.8072  -23.5841 C   0  0  0  0  0  0  0  0  0  0  0  0
   24.5233   -4.0408  -23.2576 C   0  0  0  0  0  0  0  0  0  0  0  0
   24.8452   -3.7507  -21.9410 C   0  0  0  0  0  0  0  0  0  0  0  0
   24.0296   -4.2574  -20.9443 C   0  0  0  0  0  0  0  0  0  0  0  0
   21.9000   -7.1003  -18.2691 C   0  0  0  0  0  0  0  0  0  0  0  0
   20.8797   -7.8208  -18.4248 O   0  0  0  0  0  0  0  0  0  0  0  0
   23.9766  -12.6417  -15.7379 O   0  0  0  0  0  0  0  0  0  0  0  0
   23.5631  -11.3434  -15.4727 C   0  0  0  0  0  0  0  0  0  0  0  0
   22.4228  -11.1114  -14.7325 C   0  0  0  0  0  0  0  0  0  0  0  0
   22.0204   -9.8228  -14.4746 C   0  0  0  0  0  0  0  0  0  0  0  0
   22.7524   -8.7704  -14.9528 C   0  0  0  0  0  0  0  0  0  0  0  0
   22.2741   -7.3938  -14.6480 C   0  0  0  0  0  0  0  0  0  0  0  0
   21.3730   -6.9759  -15.8007 C   0  0  2  0  0  0  0  0  0  0  0  0
   22.2061   -6.6784  -16.9481 N   0  0  0  0  0  0  0  0  0  0  0  0
   20.6522   -5.7503  -15.3701 C   0  0  0  0  0  0  0  0  0  0  0  0
   21.2139   -4.6213  -15.3266 O   0  0  0  0  0  0  0  0  0  0  0  0
   23.8835   -8.9704  -15.6872 C   0  0  0  0  0  0  0  0  0  0  0  0
   24.2748  -10.2757  -15.9380 C   0  0  0  0  0  0  0  0  0  0  0  0
   16.7780    0.1489  -16.0386 C   0  0  0  0  0  0  0  0  0  0  0  0
   18.0699   -1.1058  -15.7050 S   0  0  0  0  0  0  0  0  0  0  0  0
   17.5845   -2.7286  -16.1836 C   0  0  0  0  0  0  0  0  0  0  0  0
   18.4840   -3.8449  -15.9247 C   0  0  0  0  0  0  0  0  0  0  0  0
   18.5848   -4.5514  -14.6277 C   0  0  2  0  0  0  0  0  0  0  0  0
   19.3111   -5.8335  -14.9988 N   0  0  0  0  0  0  0  0  0  0  0  0
   17.2187   -5.0827  -14.2218 C   0  0  0  0  0  0  0  0  0  0  0  0
   16.4277   -4.2588  -13.6029 O   0  0  0  0  0  0  0  0  0  0  0  0
   16.7197   -6.3188  -14.4253 O   0  0  0  0  0  0  0  0  0  0  0  0
  2  1  1  6
  3  2  1  0
  3  4  1  0
  4  5  2  0
  5  6  1  0
  7  6  2  0
  8  7  1  0
  9  8  2  0
  9  4  1  0
 10  2  1  0
 10 19  1  0
 11 10  2  0
 13 14  2  0
 13 12  1  0
 15 14  1  0
 16 15  2  0
 17 16  1  0
 18 17  1  1
 18 19  1  0
 20 29  1  0
 20 18  1  0
 21 20  2  0
 22 16  1  0
 22 23  2  0
 23 13  1  0
 24 25  1  0
 25 26  1  0
 26 27  1  0
 28 27  1  6
 28 29  1  0
 28 30  1  0
 30 32  1  0
 31 30  2  0
M  END
$$$$
