FYM.pdb
     RDKit          3D

 32 33  0  0  1  0  0  0  0  0999 V2000
   25.4207  -18.2423  -16.0277 N   0  0  0  0  0  0  0  0  0  0  0  0
   26.3793  -18.5123  -14.9735 C   0  0  1  0  0  0  0  0  0  0  0  0
   27.1073  -17.2212  -14.6694 C   0  0  0  0  0  0  0  0  0  0  0  0
   27.9438  -16.7862  -15.8130 C   0  0  0  0  0  0  0  0  0  0  0  0
   28.9763  -17.5851  -16.2586 C   0  0  0  0  0  0  0  0  0  0  0  0
   29.7897  -17.2194  -17.3299 C   0  0  0  0  0  0  0  0  0  0  0  0
   29.5327  -16.0180  -17.9446 C   0  0  0  0  0  0  0  0  0  0  0  0
   28.5046  -15.1881  -17.5258 C   0  0  0  0  0  0  0  0  0  0  0  0
   27.7284  -15.6012  -16.4571 C   0  0  0  0  0  0  0  0  0  0  0  0
   25.6753  -18.9621  -13.7609 C   0  0  0  0  0  0  0  0  0  0  0  0
   24.7785  -18.2329  -13.2623 O   0  0  0  0  0  0  0  0  0  0  0  0
   20.0727  -20.8438  -15.5641 O   0  0  0  0  0  0  0  0  0  0  0  0
   21.1767  -21.1343  -14.7742 C   0  0  0  0  0  0  0  0  0  0  0  0
   22.4027  -21.3861  -15.3536 C   0  0  0  0  0  0  0  0  0  0  0  0
   23.4906  -21.6729  -14.5642 C   0  0  0  0  0  0  0  0  0  0  0  0
   23.3560  -21.7083  -13.2030 C   0  0  0  0  0  0  0  0  0  0  0  0
   24.5635  -22.0254  -12.3918 C   0  0  0  0  0  0  0  0  0  0  0  0
   25.1847  -20.6960  -11.9892 C   0  0  2  0  0  0  0  0  0  0  0  0
   25.9538  -20.1927  -13.1091 N   0  0  0  0  0  0  0  0  0  0  0  0
   26.0859  -20.9649  -10.8392 C   0  0  0  0  0  0  0  0  0  0  0  0
   27.2738  -21.3605  -10.9953 O   0  0  0  0  0  0  0  0  0  0  0  0
   22.1562  -21.4635  -12.6035 C   0  0  0  0  0  0  0  0  0  0  0  0
   21.0698  -21.1761  -13.4142 C   0  0  0  0  0  0  0  0  0  0  0  0
   27.5463  -18.1111   -4.5092 C   0  0  0  0  0  0  0  0  0  0  0  0
   28.3672  -18.3820   -6.1239 S   0  0  0  0  0  0  0  0  0  0  0  0
   28.0476  -19.9786   -6.7923 C   0  0  0  0  0  0  0  0  0  0  0  0
   27.2627  -20.0934   -8.0143 C   0  0  0  0  0  0  0  0  0  0  0  0
   26.4704  -21.2870   -8.3875 C   0  0  2  0  0  0  0  0  0  0  0  0
   25.6190  -20.7786   -9.5389 N   0  0  0  0  0  0  0  0  0  0  0  0
   25.4152  -21.5585   -7.3263 C   0  0  0  0  0  0  0  0  0  0  0  0
   24.2571  -20.9936   -7.4909 O   0  0  0  0  0  0  0  0  0  0  0  0
   25.5334  -22.3210   -6.2204 O   0  0  0  0  0  0  0  0  0  0  0  0
  2  1  1  6
  3  2  1  0
  3  4  1  0
  4  5  2  0
  5  6  1  0
  7  6  2  0
  8  7  1  0
  9  8  2  0
  9  4  1  0
 10  2  1  0
 10 19  1  0
 11 10  2  0
 13 14  2  0
 13 12  1  0
 15 14  1  0
 16 15  2  0
 17 16  1  0
 18 17  1  6
 18 19  1  0
 20 29  1  0
 20 18  1  0
 21 20  2  0
 22 16  1  0
 22 23  2  0
 23 13  1  0
 24 25  1  0
 25 26  1  0
 26 27  1  0
 28 27  1  1
 28 29  1  0
 28 30  1  0
 30 32  1  0
 31 30  2  0
M  END
$$$$
