FYM.pdb
     RDKit          3D

 32 33  0  0  1  0  0  0  0  0999 V2000
   29.2155  -19.0451  -17.4609 N   0  0  0  0  0  0  0  0  0  0  0  0
   29.1861  -17.9914  -16.4648 C   0  0  1  0  0  0  0  0  0  0  0  0
   29.0412  -16.6725  -17.1920 C   0  0  0  0  0  0  0  0  0  0  0  0
   30.0789  -16.5113  -18.2380 C   0  0  0  0  0  0  0  0  0  0  0  0
   31.4038  -16.3666  -17.8821 C   0  0  0  0  0  0  0  0  0  0  0  0
   32.4151  -16.2126  -18.8290 C   0  0  0  0  0  0  0  0  0  0  0  0
   32.0527  -16.2083  -20.1541 C   0  0  0  0  0  0  0  0  0  0  0  0
   30.7322  -16.3511  -20.5509 C   0  0  0  0  0  0  0  0  0  0  0  0
   29.7693  -16.5006  -19.5682 C   0  0  0  0  0  0  0  0  0  0  0  0
   28.0278  -18.1772  -15.5748 C   0  0  0  0  0  0  0  0  0  0  0  0
   27.7221  -17.2656  -14.7624 O   0  0  0  0  0  0  0  0  0  0  0  0
   20.5196  -20.5925  -12.0891 O   0  0  0  0  0  0  0  0  0  0  0  0
   21.6213  -20.5035  -12.9289 C   0  0  0  0  0  0  0  0  0  0  0  0
   22.5389  -21.5314  -12.9878 C   0  0  0  0  0  0  0  0  0  0  0  0
   23.6270  -21.4352  -13.8219 C   0  0  0  0  0  0  0  0  0  0  0  0
   23.7987  -20.3185  -14.5939 C   0  0  0  0  0  0  0  0  0  0  0  0
   24.9941  -20.2613  -15.4795 C   0  0  0  0  0  0  0  0  0  0  0  0
   26.0824  -19.5343  -14.7033 C   0  0  2  0  0  0  0  0  0  0  0  0
   27.2209  -19.3457  -15.5793 N   0  0  0  0  0  0  0  0  0  0  0  0
   26.4632  -20.4068  -13.5628 C   0  0  0  0  0  0  0  0  0  0  0  0
   27.0334  -21.5197  -13.7300 O   0  0  0  0  0  0  0  0  0  0  0  0
   22.9076  -19.2875  -14.5557 C   0  0  0  0  0  0  0  0  0  0  0  0
   21.8164  -19.4009  -13.7093 C   0  0  0  0  0  0  0  0  0  0  0  0
   28.9264  -19.5160   -6.5876 C   0  0  0  0  0  0  0  0  0  0  0  0
   27.2937  -19.2418   -7.3710 S   0  0  0  0  0  0  0  0  0  0  0  0
   26.9163  -20.4439   -8.5999 C   0  0  0  0  0  0  0  0  0  0  0  0
   26.7521  -20.0186   -9.9836 C   0  0  0  0  0  0  0  0  0  0  0  0
   26.5289  -20.9419  -11.1190 C   0  0  2  0  0  0  0  0  0  0  0  0
   26.1885  -19.9965  -12.2590 N   0  0  0  0  0  0  0  0  0  0  0  0
   25.2120  -21.6798  -10.9330 C   0  0  0  0  0  0  0  0  0  0  0  0
   24.1257  -20.9711  -11.0057 O   0  0  0  0  0  0  0  0  0  0  0  0
   25.0284  -22.9948  -10.6973 O   0  0  0  0  0  0  0  0  0  0  0  0
  2  1  1  6
  3  2  1  0
  3  4  1  0
  4  5  2  0
  5  6  1  0
  7  6  2  0
  8  7  1  0
  9  8  2  0
  9  4  1  0
 10  2  1  0
 10 19  1  0
 11 10  2  0
 13 14  2  0
 13 12  1  0
 15 14  1  0
 16 15  2  0
 17 16  1  0
 18 17  1  6
 18 19  1  0
 20 29  1  0
 20 18  1  0
 21 20  2  0
 22 16  1  0
 22 23  2  0
 23 13  1  0
 24 25  1  0
 25 26  1  0
 26 27  1  0
 28 27  1  1
 28 29  1  0
 28 30  1  0
 30 32  1  0
 31 30  2  0
M  END
$$$$
