FYM.pdb
     RDKit          3D

 32 33  0  0  1  0  0  0  0  0999 V2000
   26.3329  -18.1030  -16.7421 N   0  0  0  0  0  0  0  0  0  0  0  0
   27.1547  -18.6107  -15.6604 C   0  0  1  0  0  0  0  0  0  0  0  0
   28.3745  -17.7221  -15.5509 C   0  0  0  0  0  0  0  0  0  0  0  0
   29.2199  -17.8069  -16.7653 C   0  0  0  0  0  0  0  0  0  0  0  0
   29.5687  -16.6598  -17.4474 C   0  0  0  0  0  0  0  0  0  0  0  0
   30.3617  -16.6887  -18.5935 C   0  0  0  0  0  0  0  0  0  0  0  0
   30.7969  -17.9139  -19.0370 C   0  0  0  0  0  0  0  0  0  0  0  0
   30.4675  -19.0885  -18.3789 C   0  0  0  0  0  0  0  0  0  0  0  0
   29.6775  -19.0007  -17.2460 C   0  0  0  0  0  0  0  0  0  0  0  0
   26.4055  -18.5536  -14.3941 C   0  0  0  0  0  0  0  0  0  0  0  0
   25.9321  -17.4535  -14.0068 O   0  0  0  0  0  0  0  0  0  0  0  0
   25.1402  -25.0623  -15.4117 O   0  0  0  0  0  0  0  0  0  0  0  0
   24.8770  -23.8954  -14.7074 C   0  0  0  0  0  0  0  0  0  0  0  0
   24.6578  -22.7101  -15.3775 C   0  0  0  0  0  0  0  0  0  0  0  0
   24.3978  -21.5592  -14.6725 C   0  0  0  0  0  0  0  0  0  0  0  0
   24.3566  -21.5909  -13.3052 C   0  0  0  0  0  0  0  0  0  0  0  0
   24.0730  -20.3177  -12.5874 C   0  0  0  0  0  0  0  0  0  0  0  0
   25.4147  -19.6435  -12.3407 C   0  0  2  0  0  0  0  0  0  0  0  0
   26.1815  -19.6877  -13.5692 N   0  0  0  0  0  0  0  0  0  0  0  0
   26.1090  -20.4247  -11.2850 C   0  0  0  0  0  0  0  0  0  0  0  0
   26.7873  -21.4553  -11.5488 O   0  0  0  0  0  0  0  0  0  0  0  0
   24.5695  -22.7484  -12.6170 C   0  0  0  0  0  0  0  0  0  0  0  0
   24.8303  -23.8992  -13.3433 C   0  0  0  0  0  0  0  0  0  0  0  0
   28.9666  -19.8498   -3.9580 C   0  0  0  0  0  0  0  0  0  0  0  0
   28.2139  -19.1522   -5.4750 S   0  0  0  0  0  0  0  0  0  0  0  0
   27.6072  -20.3915   -6.5676 C   0  0  0  0  0  0  0  0  0  0  0  0
   27.1102  -20.0007   -7.8801 C   0  0  0  0  0  0  0  0  0  0  0  0
   26.5613  -20.9451   -8.8793 C   0  0  2  0  0  0  0  0  0  0  0  0
   26.0179  -20.0188   -9.9544 N   0  0  0  0  0  0  0  0  0  0  0  0
   25.2834  -21.5749   -8.3467 C   0  0  0  0  0  0  0  0  0  0  0  0
   24.1714  -20.9536   -8.6017 O   0  0  0  0  0  0  0  0  0  0  0  0
   25.1586  -22.7116   -7.6321 O   0  0  0  0  0  0  0  0  0  0  0  0
  2  1  1  6
  3  2  1  0
  3  4  1  0
  4  5  2  0
  5  6  1  0
  7  6  2  0
  8  7  1  0
  9  8  2  0
  9  4  1  0
 10  2  1  0
 10 19  1  0
 11 10  2  0
 13 14  2  0
 13 12  1  0
 15 14  1  0
 16 15  2  0
 17 16  1  0
 18 17  1  6
 18 19  1  0
 20 29  1  0
 20 18  1  0
 21 20  2  0
 22 16  1  0
 22 23  2  0
 23 13  1  0
 24 25  1  0
 25 26  1  0
 26 27  1  0
 28 27  1  1
 28 29  1  0
 28 30  1  0
 30 32  1  0
 31 30  2  0
M  END
$$$$
