FYM.pdb
     RDKit          3D

 32 33  0  0  1  0  0  0  0  0999 V2000
   28.2178  -21.2016   -8.4953 N   0  0  0  0  0  0  0  0  0  0  0  0
   27.0022  -20.4108   -8.4876 C   0  0  1  0  0  0  0  0  0  0  0  0
   27.2369  -19.2120   -7.5947 C   0  0  0  0  0  0  0  0  0  0  0  0
   27.6574  -19.6215   -6.2338 C   0  0  0  0  0  0  0  0  0  0  0  0
   28.8986  -19.2579   -5.7541 C   0  0  0  0  0  0  0  0  0  0  0  0
   29.3383  -19.6188   -4.4815 C   0  0  0  0  0  0  0  0  0  0  0  0
   28.4873  -20.3614   -3.6995 C   0  0  0  0  0  0  0  0  0  0  0  0
   27.2327  -20.7458   -4.1462 C   0  0  0  0  0  0  0  0  0  0  0  0
   26.8478  -20.3597   -5.4182 C   0  0  0  0  0  0  0  0  0  0  0  0
   26.7027  -19.9413   -9.8507 C   0  0  0  0  0  0  0  0  0  0  0  0
   27.5010  -19.1523  -10.4204 O   0  0  0  0  0  0  0  0  0  0  0  0
   26.5229  -23.0360  -17.6703 O   0  0  0  0  0  0  0  0  0  0  0  0
   26.4941  -22.7649  -16.3091 C   0  0  0  0  0  0  0  0  0  0  0  0
   27.3278  -21.8074  -15.7703 C   0  0  0  0  0  0  0  0  0  0  0  0
   27.2929  -21.5452  -14.4216 C   0  0  0  0  0  0  0  0  0  0  0  0
   26.4301  -22.2351  -13.6142 C   0  0  0  0  0  0  0  0  0  0  0  0
   26.4314  -21.9158  -12.1600 C   0  0  0  0  0  0  0  0  0  0  0  0
   25.5601  -20.6814  -11.9797 C   0  0  2  0  0  0  0  0  0  0  0  0
   25.5448  -20.3337  -10.5733 N   0  0  0  0  0  0  0  0  0  0  0  0
   24.1898  -21.0448  -12.4238 C   0  0  0  0  0  0  0  0  0  0  0  0
   23.4464  -21.8099  -11.7502 O   0  0  0  0  0  0  0  0  0  0  0  0
   25.5950  -23.1867  -14.1197 C   0  0  0  0  0  0  0  0  0  0  0  0
   25.6432  -23.4385  -15.4814 C   0  0  0  0  0  0  0  0  0  0  0  0
   19.9054  -17.3274  -11.5400 C   0  0  0  0  0  0  0  0  0  0  0  0
   19.5008  -17.7074  -13.2854 S   0  0  0  0  0  0  0  0  0  0  0  0
   20.1623  -19.2487  -13.8190 C   0  0  0  0  0  0  0  0  0  0  0  0
   21.5758  -19.5281  -13.6043 C   0  0  0  0  0  0  0  0  0  0  0  0
   22.2403  -20.7984  -13.9735 C   0  0  2  0  0  0  0  0  0  0  0  0
   23.6944  -20.5317  -13.6217 N   0  0  0  0  0  0  0  0  0  0  0  0
   22.3121  -20.9222  -15.4878 C   0  0  0  0  0  0  0  0  0  0  0  0
   23.2883  -20.3049  -16.0824 O   0  0  0  0  0  0  0  0  0  0  0  0
   21.4772  -21.6001  -16.3013 O   0  0  0  0  0  0  0  0  0  0  0  0
  2  1  1  6
  3  2  1  0
  3  4  1  0
  4  5  2  0
  5  6  1  0
  7  6  2  0
  8  7  1  0
  9  8  2  0
  9  4  1  0
 10  2  1  0
 10 19  1  0
 11 10  2  0
 13 14  2  0
 13 12  1  0
 15 14  1  0
 16 15  2  0
 17 16  1  0
 18 17  1  1
 18 19  1  0
 20 29  1  0
 20 18  1  0
 21 20  2  0
 22 16  1  0
 22 23  2  0
 23 13  1  0
 24 25  1  0
 25 26  1  0
 26 27  1  0
 28 27  1  6
 28 29  1  0
 28 30  1  0
 30 32  1  0
 31 30  2  0
M  END
$$$$
