FYM.pdb
     RDKit          3D

 32 33  0  0  1  0  0  0  0  0999 V2000
   20.5779  -13.9249  -19.7222 N   0  0  0  0  0  0  0  0  0  0  0  0
   19.9079  -15.2046  -19.5925 C   0  0  1  0  0  0  0  0  0  0  0  0
   20.9695  -16.2827  -19.5829 C   0  0  0  0  0  0  0  0  0  0  0  0
   21.5580  -16.4784  -20.9290 C   0  0  0  0  0  0  0  0  0  0  0  0
   20.8873  -17.2245  -21.8759 C   0  0  0  0  0  0  0  0  0  0  0  0
   21.3998  -17.4361  -23.1548 C   0  0  0  0  0  0  0  0  0  0  0  0
   22.6154  -16.8715  -23.4562 C   0  0  0  0  0  0  0  0  0  0  0  0
   23.3192  -16.1155  -22.5318 C   0  0  0  0  0  0  0  0  0  0  0  0
   22.7631  -15.9378  -21.2770 C   0  0  0  0  0  0  0  0  0  0  0  0
   19.1646  -15.2531  -18.3223 C   0  0  0  0  0  0  0  0  0  0  0  0
   19.6690  -14.7341  -17.2925 O   0  0  0  0  0  0  0  0  0  0  0  0
   17.2566   -9.6675  -17.5462 O   0  0  0  0  0  0  0  0  0  0  0  0
   16.9099  -11.0076  -17.4424 C   0  0  0  0  0  0  0  0  0  0  0  0
   16.6787  -11.7586  -18.5758 C   0  0  0  0  0  0  0  0  0  0  0  0
   16.3358  -13.0849  -18.4640 C   0  0  0  0  0  0  0  0  0  0  0  0
   16.2242  -13.6592  -17.2272 C   0  0  0  0  0  0  0  0  0  0  0  0
   15.8486  -15.0983  -17.1589 C   0  0  0  0  0  0  0  0  0  0  0  0
   17.1373  -15.8799  -16.9501 C   0  0  2  0  0  0  0  0  0  0  0  0
   17.8888  -15.8623  -18.1887 N   0  0  0  0  0  0  0  0  0  0  0  0
   16.7529  -17.2750  -16.6138 C   0  0  0  0  0  0  0  0  0  0  0  0
   16.3358  -18.0854  -17.4862 O   0  0  0  0  0  0  0  0  0  0  0  0
   16.4470  -12.9407  -16.0901 C   0  0  0  0  0  0  0  0  0  0  0  0
   16.7916  -11.6050  -16.2209 C   0  0  0  0  0  0  0  0  0  0  0  0
   20.3056  -16.9212  -12.1350 C   0  0  0  0  0  0  0  0  0  0  0  0
   18.5801  -17.2502  -12.6538 S   0  0  0  0  0  0  0  0  0  0  0  0
   18.3148  -18.9275  -13.1164 C   0  0  0  0  0  0  0  0  0  0  0  0
   17.0021  -19.3319  -13.6016 C   0  0  0  0  0  0  0  0  0  0  0  0
   16.5466  -19.1781  -15.0018 C   0  0  2  0  0  0  0  0  0  0  0  0
   16.8507  -17.7185  -15.2957 N   0  0  0  0  0  0  0  0  0  0  0  0
   15.0266  -19.1882  -15.0542 C   0  0  0  0  0  0  0  0  0  0  0  0
   14.4095  -18.2559  -14.3927 O   0  0  0  0  0  0  0  0  0  0  0  0
   14.2286  -20.0561  -15.7086 O   0  0  0  0  0  0  0  0  0  0  0  0
  2  1  1  1
  3  2  1  0
  3  4  1  0
  4  5  2  0
  5  6  1  0
  7  6  2  0
  8  7  1  0
  9  8  2  0
  9  4  1  0
 10  2  1  0
 10 19  1  0
 11 10  2  0
 13 14  2  0
 13 12  1  0
 15 14  1  0
 16 15  2  0
 17 16  1  0
 18 17  1  6
 18 19  1  0
 20 29  1  0
 20 18  1  0
 21 20  2  0
 22 16  1  0
 22 23  2  0
 23 13  1  0
 24 25  1  0
 25 26  1  0
 26 27  1  0
 28 27  1  1
 28 29  1  0
 28 30  1  0
 30 32  1  0
 31 30  2  0
M  END
$$$$
