FYM.pdb
     RDKit          3D

 32 33  0  0  1  0  0  0  0  0999 V2000
   26.5466  -18.6999  -19.0721 N   0  0  0  0  0  0  0  0  0  0  0  0
   25.8698  -18.1825  -17.8985 C   0  0  1  0  0  0  0  0  0  0  0  0
   24.7945  -17.2276  -18.3690 C   0  0  0  0  0  0  0  0  0  0  0  0
   25.3757  -16.0501  -19.0564 C   0  0  0  0  0  0  0  0  0  0  0  0
   26.2024  -15.1857  -18.3691 C   0  0  0  0  0  0  0  0  0  0  0  0
   26.7727  -14.0658  -18.9721 C   0  0  0  0  0  0  0  0  0  0  0  0
   26.4855  -13.8387  -20.2961 C   0  0  0  0  0  0  0  0  0  0  0  0
   25.6595  -14.6842  -21.0201 C   0  0  0  0  0  0  0  0  0  0  0  0
   25.1205  -15.7812  -20.3710 C   0  0  0  0  0  0  0  0  0  0  0  0
   25.2383  -19.2874  -17.1579 C   0  0  0  0  0  0  0  0  0  0  0  0
   24.6520  -20.2011  -17.7949 O   0  0  0  0  0  0  0  0  0  0  0  0
   29.4072  -23.9413  -16.9131 O   0  0  0  0  0  0  0  0  0  0  0  0
   28.4723  -23.2107  -16.1924 C   0  0  0  0  0  0  0  0  0  0  0  0
   27.2791  -23.7876  -15.8110 C   0  0  0  0  0  0  0  0  0  0  0  0
   26.3590  -23.0572  -15.0977 C   0  0  0  0  0  0  0  0  0  0  0  0
   26.6282  -21.7573  -14.7662 C   0  0  0  0  0  0  0  0  0  0  0  0
   25.5989  -21.0078  -13.9945 C   0  0  0  0  0  0  0  0  0  0  0  0
   24.6071  -20.4537  -15.0068 C   0  0  2  0  0  0  0  0  0  0  0  0
   25.2522  -19.3843  -15.7411 N   0  0  0  0  0  0  0  0  0  0  0  0
   23.4547  -19.9144  -14.2398 C   0  0  0  0  0  0  0  0  0  0  0  0
   23.5241  -18.8312  -13.5967 O   0  0  0  0  0  0  0  0  0  0  0  0
   27.7994  -21.1618  -15.1301 C   0  0  0  0  0  0  0  0  0  0  0  0
   28.7158  -21.9124  -15.8489 C   0  0  0  0  0  0  0  0  0  0  0  0
   20.2717  -16.1116  -16.0944 C   0  0  0  0  0  0  0  0  0  0  0  0
   18.8542  -17.0486  -15.4109 S   0  0  0  0  0  0  0  0  0  0  0  0
   19.3384  -18.2326  -14.2019 C   0  0  0  0  0  0  0  0  0  0  0  0
   20.5316  -19.0361  -14.4319 C   0  0  0  0  0  0  0  0  0  0  0  0
   21.0775  -20.0145  -13.4642 C   0  0  2  0  0  0  0  0  0  0  0  0
   22.2503  -20.6163  -14.2201 N   0  0  0  0  0  0  0  0  0  0  0  0
   20.1420  -21.2087  -13.3544 C   0  0  0  0  0  0  0  0  0  0  0  0
   20.2893  -22.1536  -14.2337 O   0  0  0  0  0  0  0  0  0  0  0  0
   19.1648  -21.4116  -12.4475 O   0  0  0  0  0  0  0  0  0  0  0  0
  2  1  1  6
  3  2  1  0
  3  4  1  0
  4  5  2  0
  5  6  1  0
  7  6  2  0
  8  7  1  0
  9  8  2  0
  9  4  1  0
 10  2  1  0
 10 19  1  0
 11 10  2  0
 13 14  2  0
 13 12  1  0
 15 14  1  0
 16 15  2  0
 17 16  1  0
 18 17  1  1
 18 19  1  0
 20 29  1  0
 20 18  1  0
 21 20  2  0
 22 16  1  0
 22 23  2  0
 23 13  1  0
 24 25  1  0
 25 26  1  0
 26 27  1  0
 28 27  1  6
 28 29  1  0
 28 30  1  0
 30 32  1  0
 31 30  2  0
M  END
$$$$
