NSD.pdb
     RDKit          3D

 23 22  0  0  1  0  0  0  0  0999 V2000
    7.2290  -13.2037   15.5091 N   0  0  0  0  0  0  0  0  0  0  0  0
    7.9962  -14.1162   16.2746 C   0  0  0  0  0  0  0  0  0  0  0  0
    8.3230  -15.2334   15.7503 O   0  0  0  0  0  0  0  0  0  0  0  0
    8.4460  -13.8588   17.6492 C   0  0  0  0  0  0  0  0  0  0  0  0
    8.5704  -15.1283   18.4626 C   0  0  2  0  0  0  0  0  0  0  0  0
    7.2950  -15.7760   18.4851 N   0  0  0  0  0  0  0  0  0  0  0  0
    9.0215  -14.7172   19.8263 C   0  0  0  0  0  0  0  0  0  0  0  0
   10.1707  -14.2316   19.9838 O   0  0  0  0  0  0  0  0  0  0  0  0
    6.8545  -15.7418   23.1747 O   0  0  0  0  0  0  0  0  0  0  0  0
    7.5104  -14.5213   23.2482 C   0  0  0  0  0  0  0  0  0  0  0  0
    8.7193  -14.6025   22.3226 C   0  0  2  0  0  0  0  0  0  0  0  0
    8.2091  -14.8446   20.9897 N   0  0  0  0  0  0  0  0  0  0  0  0
    9.6702  -15.6453   22.7583 C   0  0  0  0  0  0  0  0  0  0  0  0
    9.5836  -16.8053   22.2552 O   0  0  0  0  0  0  0  0  0  0  0  0
   10.6971  -15.4561   23.7143 N   0  0  0  0  0  0  0  0  0  0  0  0
   11.5866  -16.5652   24.1211 C   0  0  1  0  0  0  0  0  0  0  0  0
   12.9716  -16.0343   23.9999 C   0  0  0  0  0  0  0  0  0  0  0  0
   14.0465  -17.0125   24.2094 C   0  0  0  0  0  0  0  0  0  0  0  0
   13.8110  -18.1527   24.6521 O   0  0  0  0  0  0  0  0  0  0  0  0
   11.2036  -17.0160   25.4768 C   0  0  0  0  0  0  0  0  0  0  0  0
   11.4335  -18.3415   25.8616 O   0  0  0  0  0  0  0  0  0  0  0  0
   15.3738  -16.7191   23.9264 O   0  0  0  0  0  0  0  0  0  0  0  0
   10.6733  -16.2903   26.3401 O   0  0  0  0  0  0  0  0  0  0  0  0
  2  1  1  0
  2  4  1  0
  3  2  2  0
  4  5  1  0
  5  6  1  1
  7 12  1  0
  7  5  1  0
  8  7  2  0
  9 10  1  0
 11 10  1  1
 11 13  1  0
 11 12  1  0
 13 15  1  0
 14 13  2  0
 15 16  1  0
 16 17  1  1
 17 18  1  0
 18 19  2  0
 20 16  1  0
 20 21  1  0
 22 18  1  0
 23 20  2  0
M  END
$$$$
