NSD.pdb
     RDKit          3D

 23 22  0  0  1  0  0  0  0  0999 V2000
    6.4667  -16.6351   13.8707 N   0  0  0  0  0  0  0  0  0  0  0  0
    7.6510  -17.1446   14.4581 C   0  0  0  0  0  0  0  0  0  0  0  0
    8.0103  -18.3373   14.1785 O   0  0  0  0  0  0  0  0  0  0  0  0
    8.5036  -16.3817   15.3796 C   0  0  0  0  0  0  0  0  0  0  0  0
    7.9548  -15.0010   15.6639 C   0  0  2  0  0  0  0  0  0  0  0  0
    8.2634  -14.1554   14.5520 N   0  0  0  0  0  0  0  0  0  0  0  0
    8.6045  -14.5367   16.9266 C   0  0  0  0  0  0  0  0  0  0  0  0
    9.8455  -14.3357   16.9528 O   0  0  0  0  0  0  0  0  0  0  0  0
    6.5654  -14.3118   20.5260 O   0  0  0  0  0  0  0  0  0  0  0  0
    7.4331  -13.2685   20.2370 C   0  0  0  0  0  0  0  0  0  0  0  0
    8.5318  -13.8305   19.3416 C   0  0  2  0  0  0  0  0  0  0  0  0
    7.8864  -14.3014   18.1343 N   0  0  0  0  0  0  0  0  0  0  0  0
    9.2974  -14.8951   20.0212 C   0  0  0  0  0  0  0  0  0  0  0  0
    9.0437  -16.1061   19.7465 O   0  0  0  0  0  0  0  0  0  0  0  0
   10.3171  -14.6739   20.9782 N   0  0  0  0  0  0  0  0  0  0  0  0
   10.9880  -15.7988   21.6648 C   0  0  1  0  0  0  0  0  0  0  0  0
   12.4066  -15.3801   21.8294 C   0  0  0  0  0  0  0  0  0  0  0  0
   13.2768  -16.3436   22.5154 C   0  0  0  0  0  0  0  0  0  0  0  0
   12.9910  -17.5548   22.5688 O   0  0  0  0  0  0  0  0  0  0  0  0
   10.2695  -16.0903   22.9244 C   0  0  0  0  0  0  0  0  0  0  0  0
   10.3595  -17.3625   23.5000 O   0  0  0  0  0  0  0  0  0  0  0  0
   14.4568  -15.9569   23.1366 O   0  0  0  0  0  0  0  0  0  0  0  0
    9.5632  -15.2700   23.5421 O   0  0  0  0  0  0  0  0  0  0  0  0
  2  1  1  0
  2  4  1  0
  3  2  2  0
  4  5  1  0
  5  6  1  6
  7 12  1  0
  7  5  1  0
  8  7  2  0
  9 10  1  0
 11 10  1  1
 11 13  1  0
 11 12  1  0
 13 15  1  0
 14 13  2  0
 15 16  1  0
 16 17  1  1
 17 18  1  0
 18 19  2  0
 20 16  1  0
 20 21  1  0
 22 18  1  0
 23 20  2  0
M  END
$$$$
