NSD.pdb
     RDKit          3D

 23 22  0  0  1  0  0  0  0  0999 V2000
    9.7553  -17.0302   15.6448 N   0  0  0  0  0  0  0  0  0  0  0  0
    8.7553  -16.9372   16.6441 C   0  0  0  0  0  0  0  0  0  0  0  0
    7.5970  -17.4148   16.3989 O   0  0  0  0  0  0  0  0  0  0  0  0
    8.9655  -16.3196   17.9603 C   0  0  0  0  0  0  0  0  0  0  0  0
    9.6459  -17.2557   18.9346 C   0  0  2  0  0  0  0  0  0  0  0  0
    8.6671  -18.1674   19.4422 N   0  0  0  0  0  0  0  0  0  0  0  0
   10.2331  -16.3988   20.0084 C   0  0  0  0  0  0  0  0  0  0  0  0
   11.1114  -15.5474   19.7172 O   0  0  0  0  0  0  0  0  0  0  0  0
    8.9218  -16.4511   23.9723 O   0  0  0  0  0  0  0  0  0  0  0  0
    9.5211  -15.3220   23.4328 C   0  0  0  0  0  0  0  0  0  0  0  0
   10.5657  -15.8010   22.4308 C   0  0  2  0  0  0  0  0  0  0  0  0
    9.8495  -16.4888   21.3774 N   0  0  0  0  0  0  0  0  0  0  0  0
   11.5826  -16.6593   23.0719 C   0  0  0  0  0  0  0  0  0  0  0  0
   11.3738  -17.9069   23.1495 O   0  0  0  0  0  0  0  0  0  0  0  0
   12.8025  -16.1965   23.6216 N   0  0  0  0  0  0  0  0  0  0  0  0
   13.7634  -17.1237   24.2569 C   0  0  1  0  0  0  0  0  0  0  0  0
   15.0973  -16.4796   24.1140 C   0  0  0  0  0  0  0  0  0  0  0  0
   15.4387  -16.0213   22.7613 C   0  0  0  0  0  0  0  0  0  0  0  0
   15.1835  -16.7122   21.7568 O   0  0  0  0  0  0  0  0  0  0  0  0
   13.3358  -17.3791   25.6497 C   0  0  0  0  0  0  0  0  0  0  0  0
   12.2762  -16.6486   26.1987 O   0  0  0  0  0  0  0  0  0  0  0  0
   16.0601  -14.8008   22.5329 O   0  0  0  0  0  0  0  0  0  0  0  0
   13.8571  -18.2209   26.4066 O   0  0  0  0  0  0  0  0  0  0  0  0
  2  1  1  0
  2  4  1  0
  3  2  2  0
  4  5  1  0
  5  6  1  1
  7 12  1  0
  7  5  1  0
  8  7  2  0
  9 10  1  0
 11 10  1  1
 11 13  1  0
 11 12  1  0
 13 15  1  0
 14 13  2  0
 15 16  1  0
 16 17  1  1
 17 18  1  0
 18 19  2  0
 20 16  1  0
 20 21  1  0
 22 18  1  0
 23 20  2  0
M  END
$$$$
