NSD.pdb
     RDKit          3D

 23 22  0  0  1  0  0  0  0  0999 V2000
    7.8547  -15.4383   15.9002 N   0  0  0  0  0  0  0  0  0  0  0  0
    7.8111  -14.0879   16.3266 C   0  0  0  0  0  0  0  0  0  0  0  0
    7.5061  -13.1859   15.4762 O   0  0  0  0  0  0  0  0  0  0  0  0
    8.0974  -13.6514   17.6997 C   0  0  0  0  0  0  0  0  0  0  0  0
    8.5909  -14.7833   18.5737 C   0  0  2  0  0  0  0  0  0  0  0  0
    7.6418  -15.8516   18.5064 N   0  0  0  0  0  0  0  0  0  0  0  0
    8.7226  -14.2282   19.9546 C   0  0  0  0  0  0  0  0  0  0  0  0
    9.5096  -13.2715   20.1704 O   0  0  0  0  0  0  0  0  0  0  0  0
    6.7909  -16.0796   23.1513 O   0  0  0  0  0  0  0  0  0  0  0  0
    7.2806  -14.7964   23.3474 C   0  0  0  0  0  0  0  0  0  0  0  0
    8.4855  -14.6281   22.4284 C   0  0  2  0  0  0  0  0  0  0  0  0
    7.9927  -14.7286   21.0709 N   0  0  0  0  0  0  0  0  0  0  0  0
    9.5364  -15.6242   22.7197 C   0  0  0  0  0  0  0  0  0  0  0  0
    9.5374  -16.7208   22.0843 O   0  0  0  0  0  0  0  0  0  0  0  0
   10.5700  -15.4555   23.6725 N   0  0  0  0  0  0  0  0  0  0  0  0
   11.5728  -16.5141   23.9186 C   0  0  1  0  0  0  0  0  0  0  0  0
   12.8900  -15.9030   23.5924 C   0  0  0  0  0  0  0  0  0  0  0  0
   14.0578  -16.7716   23.7874 C   0  0  0  0  0  0  0  0  0  0  0  0
   14.0603  -17.9550   23.3989 O   0  0  0  0  0  0  0  0  0  0  0  0
   11.4318  -16.9957   25.3101 C   0  0  0  0  0  0  0  0  0  0  0  0
   10.4634  -16.4319   26.1481 O   0  0  0  0  0  0  0  0  0  0  0  0
   15.2136  -16.3213   24.4114 O   0  0  0  0  0  0  0  0  0  0  0  0
   12.1271  -17.8947   25.8214 O   0  0  0  0  0  0  0  0  0  0  0  0
  2  1  1  0
  2  4  1  0
  3  2  2  0
  4  5  1  0
  5  6  1  1
  7 12  1  0
  7  5  1  0
  8  7  2  0
  9 10  1  0
 11 10  1  1
 11 13  1  0
 11 12  1  0
 13 15  1  0
 14 13  2  0
 15 16  1  0
 16 17  1  1
 17 18  1  0
 18 19  2  0
 20 16  1  0
 20 21  1  0
 22 18  1  0
 23 20  2  0
M  END
$$$$
