NSD.pdb
     RDKit          3D

 23 22  0  0  1  0  0  0  0  0999 V2000
    8.4305  -19.4809   16.8896 N   0  0  0  0  0  0  0  0  0  0  0  0
    8.9862  -18.2082   16.6092 C   0  0  0  0  0  0  0  0  0  0  0  0
    8.9108  -17.7551   15.4180 O   0  0  0  0  0  0  0  0  0  0  0  0
    9.6519  -17.3648   17.6109 C   0  0  0  0  0  0  0  0  0  0  0  0
    9.8395  -18.0774   18.9321 C   0  0  2  0  0  0  0  0  0  0  0  0
    8.5531  -18.4715   19.4184 N   0  0  0  0  0  0  0  0  0  0  0  0
   10.5184  -17.1090   19.8451 C   0  0  0  0  0  0  0  0  0  0  0  0
   11.5918  -16.5607   19.4869 O   0  0  0  0  0  0  0  0  0  0  0  0
    9.5091  -16.6272   23.8935 O   0  0  0  0  0  0  0  0  0  0  0  0
    9.7445  -15.4908   23.1331 C   0  0  0  0  0  0  0  0  0  0  0  0
   10.7248  -15.8799   22.0320 C   0  0  2  0  0  0  0  0  0  0  0  0
   10.0118  -16.7594   21.1298 N   0  0  0  0  0  0  0  0  0  0  0  0
   11.9425  -16.5081   22.5835 C   0  0  0  0  0  0  0  0  0  0  0  0
   12.0559  -17.7698   22.5429 O   0  0  0  0  0  0  0  0  0  0  0  0
   13.0225  -15.8042   23.1687 N   0  0  0  0  0  0  0  0  0  0  0  0
   14.2426  -16.5039   23.6254 C   0  0  1  0  0  0  0  0  0  0  0  0
   15.3759  -15.6055   23.2742 C   0  0  0  0  0  0  0  0  0  0  0  0
   16.7158  -16.1320   23.5635 C   0  0  0  0  0  0  0  0  0  0  0  0
   17.3742  -16.7439   22.7012 O   0  0  0  0  0  0  0  0  0  0  0  0
   14.1092  -16.8122   25.0659 C   0  0  0  0  0  0  0  0  0  0  0  0
   13.1605  -16.1340   25.8391 O   0  0  0  0  0  0  0  0  0  0  0  0
   17.3151  -15.9760   24.8062 O   0  0  0  0  0  0  0  0  0  0  0  0
   14.7947  -17.6561   25.6751 O   0  0  0  0  0  0  0  0  0  0  0  0
  2  1  1  0
  2  4  1  0
  3  2  2  0
  4  5  1  0
  5  6  1  1
  7 12  1  0
  7  5  1  0
  8  7  2  0
  9 10  1  0
 11 10  1  1
 11 13  1  0
 11 12  1  0
 13 15  1  0
 14 13  2  0
 15 16  1  0
 16 17  1  1
 17 18  1  0
 18 19  2  0
 20 16  1  0
 20 21  1  0
 22 18  1  0
 23 20  2  0
M  END
$$$$
