NSD.pdb
     RDKit          3D

 23 22  0  0  1  0  0  0  0  0999 V2000
    8.7675  -19.7509   15.5529 N   0  0  0  0  0  0  0  0  0  0  0  0
    9.9965  -19.3346   16.1215 C   0  0  0  0  0  0  0  0  0  0  0  0
   11.0845  -19.7803   15.6241 O   0  0  0  0  0  0  0  0  0  0  0  0
   10.1032  -18.4124   17.2600 C   0  0  0  0  0  0  0  0  0  0  0  0
    8.7578  -18.0995   17.8769 C   0  0  2  0  0  0  0  0  0  0  0  0
    7.9215  -17.5260   16.8677 N   0  0  0  0  0  0  0  0  0  0  0  0
    9.0162  -17.1534   19.0040 C   0  0  0  0  0  0  0  0  0  0  0  0
   10.1793  -17.0379   19.4678 O   0  0  0  0  0  0  0  0  0  0  0  0
    6.0178  -15.5310   21.4807 O   0  0  0  0  0  0  0  0  0  0  0  0
    6.9929  -14.6829   20.9759 C   0  0  0  0  0  0  0  0  0  0  0  0
    8.2491  -15.5192   20.7580 C   0  0  2  0  0  0  0  0  0  0  0  0
    8.0002  -16.3531   19.6012 N   0  0  0  0  0  0  0  0  0  0  0  0
    8.5921  -16.3100   21.9574 C   0  0  0  0  0  0  0  0  0  0  0  0
    8.4707  -17.5710   21.9179 O   0  0  0  0  0  0  0  0  0  0  0  0
    9.0571  -15.7669   23.1794 N   0  0  0  0  0  0  0  0  0  0  0  0
    9.9868  -16.5157   24.0523 C   0  0  1  0  0  0  0  0  0  0  0  0
   11.2082  -16.7463   23.2340 C   0  0  0  0  0  0  0  0  0  0  0  0
   12.2821  -17.4984   23.8953 C   0  0  0  0  0  0  0  0  0  0  0  0
   12.8043  -17.0939   24.9513 O   0  0  0  0  0  0  0  0  0  0  0  0
   10.2015  -15.7466   25.2975 C   0  0  0  0  0  0  0  0  0  0  0  0
    9.6380  -14.4735   25.4365 O   0  0  0  0  0  0  0  0  0  0  0  0
   12.7684  -18.6928   23.3809 O   0  0  0  0  0  0  0  0  0  0  0  0
   10.8666  -16.1490   26.2716 O   0  0  0  0  0  0  0  0  0  0  0  0
  2  1  1  0
  2  4  1  0
  3  2  2  0
  4  5  1  0
  5  6  1  6
  7 12  1  0
  7  5  1  0
  8  7  2  0
  9 10  1  0
 11 10  1  1
 11 13  1  0
 11 12  1  0
 13 15  1  0
 14 13  2  0
 15 16  1  0
 16 17  1  6
 17 18  1  0
 18 19  2  0
 20 16  1  0
 20 21  1  0
 22 18  1  0
 23 20  2  0
M  END
$$$$
