NSD.pdb
     RDKit          3D

 23 22  0  0  1  0  0  0  0  0999 V2000
    8.4313  -20.2113   16.8294 N   0  0  0  0  0  0  0  0  0  0  0  0
    9.5223  -19.3439   17.0830 C   0  0  0  0  0  0  0  0  0  0  0  0
   10.4110  -19.1954   16.1786 O   0  0  0  0  0  0  0  0  0  0  0  0
    9.7012  -18.5945   18.3339 C   0  0  0  0  0  0  0  0  0  0  0  0
    8.9774  -17.2661   18.3189 C   0  0  2  0  0  0  0  0  0  0  0  0
    9.3936  -16.5390   17.1593 N   0  0  0  0  0  0  0  0  0  0  0  0
    9.3440  -16.5677   19.5878 C   0  0  0  0  0  0  0  0  0  0  0  0
   10.5467  -16.5256   19.9522 O   0  0  0  0  0  0  0  0  0  0  0  0
    6.5530  -15.4279   22.5210 O   0  0  0  0  0  0  0  0  0  0  0  0
    7.5502  -14.5287   22.1716 C   0  0  0  0  0  0  0  0  0  0  0  0
    8.7510  -15.3451   21.7067 C   0  0  2  0  0  0  0  0  0  0  0  0
    8.3905  -15.9298   20.4324 N   0  0  0  0  0  0  0  0  0  0  0  0
    9.1359  -16.3646   22.7037 C   0  0  0  0  0  0  0  0  0  0  0  0
    9.1156  -17.5876   22.3719 O   0  0  0  0  0  0  0  0  0  0  0  0
    9.5361  -16.0863   24.0330 N   0  0  0  0  0  0  0  0  0  0  0  0
   10.7121  -16.7471   24.6391 C   0  0  1  0  0  0  0  0  0  0  0  0
   11.8716  -16.3611   23.7898 C   0  0  0  0  0  0  0  0  0  0  0  0
   13.1838  -16.8229   24.2600 C   0  0  0  0  0  0  0  0  0  0  0  0
   13.3055  -17.4656   25.3200 O   0  0  0  0  0  0  0  0  0  0  0  0
   10.8118  -16.3432   26.0585 C   0  0  0  0  0  0  0  0  0  0  0  0
   10.9104  -17.3196   27.0559 O   0  0  0  0  0  0  0  0  0  0  0  0
   14.3505  -16.5687   23.5514 O   0  0  0  0  0  0  0  0  0  0  0  0
   10.8158  -15.1632   26.4596 O   0  0  0  0  0  0  0  0  0  0  0  0
  2  1  1  0
  2  4  1  0
  3  2  2  0
  4  5  1  0
  5  6  1  6
  7 12  1  0
  7  5  1  0
  8  7  2  0
  9 10  1  0
 11 10  1  1
 11 13  1  0
 11 12  1  0
 13 15  1  0
 14 13  2  0
 15 16  1  0
 16 17  1  6
 17 18  1  0
 18 19  2  0
 20 16  1  0
 20 21  1  0
 22 18  1  0
 23 20  2  0
M  END
$$$$
