NSD.pdb
     RDKit          3D

 23 22  0  0  1  0  0  0  0  0999 V2000
    6.8230  -13.8607   15.3246 N   0  0  0  0  0  0  0  0  0  0  0  0
    7.8986  -14.4973   15.9916 C   0  0  0  0  0  0  0  0  0  0  0  0
    8.5180  -15.4407   15.3948 O   0  0  0  0  0  0  0  0  0  0  0  0
    8.3542  -14.1393   17.3415 C   0  0  0  0  0  0  0  0  0  0  0  0
    8.5398  -15.3511   18.2279 C   0  0  2  0  0  0  0  0  0  0  0  0
    7.2817  -16.0227   18.3426 N   0  0  0  0  0  0  0  0  0  0  0  0
    9.0336  -14.8440   19.5437 C   0  0  0  0  0  0  0  0  0  0  0  0
   10.0967  -14.1743   19.5955 O   0  0  0  0  0  0  0  0  0  0  0  0
    7.1198  -15.7516   23.1220 O   0  0  0  0  0  0  0  0  0  0  0  0
    7.7298  -14.5108   23.0065 C   0  0  0  0  0  0  0  0  0  0  0  0
    8.9074  -14.6743   22.0519 C   0  0  2  0  0  0  0  0  0  0  0  0
    8.3572  -15.0784   20.7753 N   0  0  0  0  0  0  0  0  0  0  0  0
    9.8975  -15.6410   22.5684 C   0  0  0  0  0  0  0  0  0  0  0  0
    9.7812  -16.8646   22.2593 O   0  0  0  0  0  0  0  0  0  0  0  0
   10.9940  -15.3102   23.4007 N   0  0  0  0  0  0  0  0  0  0  0  0
   11.9244  -16.3459   23.8991 C   0  0  1  0  0  0  0  0  0  0  0  0
   13.2633  -15.6976   23.9382 C   0  0  0  0  0  0  0  0  0  0  0  0
   14.4106  -16.6021   23.7900 C   0  0  0  0  0  0  0  0  0  0  0  0
   14.2602  -17.8361   23.7136 O   0  0  0  0  0  0  0  0  0  0  0  0
   11.4320  -16.8482   25.2003 C   0  0  0  0  0  0  0  0  0  0  0  0
   11.8215  -18.1141   25.6515 O   0  0  0  0  0  0  0  0  0  0  0  0
   15.7153  -16.1314   23.7275 O   0  0  0  0  0  0  0  0  0  0  0  0
   10.6708  -16.2180   25.9597 O   0  0  0  0  0  0  0  0  0  0  0  0
  2  1  1  0
  2  4  1  0
  3  2  2  0
  4  5  1  0
  5  6  1  1
  7 12  1  0
  7  5  1  0
  8  7  2  0
  9 10  1  0
 11 10  1  1
 11 13  1  0
 11 12  1  0
 13 15  1  0
 14 13  2  0
 15 16  1  0
 16 17  1  1
 17 18  1  0
 18 19  2  0
 20 16  1  0
 20 21  1  0
 22 18  1  0
 23 20  2  0
M  END
$$$$
