NSD.pdb
     RDKit          3D

 23 22  0  0  1  0  0  0  0  0999 V2000
    8.5560  -19.5685   17.8215 N   0  0  0  0  0  0  0  0  0  0  0  0
    9.8398  -19.8424   18.3544 C   0  0  0  0  0  0  0  0  0  0  0  0
   10.3031  -21.0282   18.2593 O   0  0  0  0  0  0  0  0  0  0  0  0
   10.6839  -18.8395   19.0176 C   0  0  0  0  0  0  0  0  0  0  0  0
    9.9848  -17.5066   19.1694 C   0  0  2  0  0  0  0  0  0  0  0  0
   10.1595  -16.7655   17.9581 N   0  0  0  0  0  0  0  0  0  0  0  0
   10.6118  -16.8287   20.3440 C   0  0  0  0  0  0  0  0  0  0  0  0
   11.8017  -16.4285   20.2720 O   0  0  0  0  0  0  0  0  0  0  0  0
    8.5557  -16.3361   23.8595 O   0  0  0  0  0  0  0  0  0  0  0  0
    9.3972  -15.2942   23.4970 C   0  0  0  0  0  0  0  0  0  0  0  0
   10.5355  -15.8970   22.6811 C   0  0  2  0  0  0  0  0  0  0  0  0
    9.9272  -16.6017   21.5725 N   0  0  0  0  0  0  0  0  0  0  0  0
   11.3902  -16.7762   23.5046 C   0  0  0  0  0  0  0  0  0  0  0  0
   11.1140  -18.0111   23.5756 O   0  0  0  0  0  0  0  0  0  0  0  0
   12.5210  -16.3475   24.2407 N   0  0  0  0  0  0  0  0  0  0  0  0
   13.2647  -17.2736   25.1216 C   0  0  1  0  0  0  0  0  0  0  0  0
   14.6737  -16.7948   25.1094 C   0  0  0  0  0  0  0  0  0  0  0  0
   15.2550  -16.5678   23.7801 C   0  0  0  0  0  0  0  0  0  0  0  0
   15.0905  -17.3808   22.8510 O   0  0  0  0  0  0  0  0  0  0  0  0
   12.6199  -17.2928   26.4527 C   0  0  0  0  0  0  0  0  0  0  0  0
   11.5168  -16.4698   26.7049 O   0  0  0  0  0  0  0  0  0  0  0  0
   16.0138  -15.4414   23.4916 O   0  0  0  0  0  0  0  0  0  0  0  0
   12.9875  -18.0056   27.4066 O   0  0  0  0  0  0  0  0  0  0  0  0
  2  1  1  0
  2  4  1  0
  3  2  2  0
  4  5  1  0
  5  6  1  6
  7 12  1  0
  7  5  1  0
  8  7  2  0
  9 10  1  0
 11 10  1  1
 11 13  1  0
 11 12  1  0
 13 15  1  0
 14 13  2  0
 15 16  1  0
 16 17  1  1
 17 18  1  0
 18 19  2  0
 20 16  1  0
 20 21  1  0
 22 18  1  0
 23 20  2  0
M  END
$$$$
