NSD.pdb
     RDKit          3D

 23 22  0  0  1  0  0  0  0  0999 V2000
    7.4864  -12.7133   14.8129 N   0  0  0  0  0  0  0  0  0  0  0  0
    7.6553  -13.7631   15.7492 C   0  0  0  0  0  0  0  0  0  0  0  0
    7.4820  -14.9663   15.3594 O   0  0  0  0  0  0  0  0  0  0  0  0
    8.0211  -13.5561   17.1568 C   0  0  0  0  0  0  0  0  0  0  0  0
    9.2780  -14.3046   17.5422 C   0  0  2  0  0  0  0  0  0  0  0  0
    9.0851  -15.6913   17.2476 N   0  0  0  0  0  0  0  0  0  0  0  0
    9.4890  -14.0591   19.0008 C   0  0  0  0  0  0  0  0  0  0  0  0
    9.6894  -12.8885   19.4142 O   0  0  0  0  0  0  0  0  0  0  0  0
    9.0659  -14.9134   23.5370 O   0  0  0  0  0  0  0  0  0  0  0  0
    8.7132  -15.2342   22.2340 C   0  0  0  0  0  0  0  0  0  0  0  0
    9.8997  -14.8787   21.3450 C   0  0  2  0  0  0  0  0  0  0  0  0
    9.4770  -15.0959   19.9776 N   0  0  0  0  0  0  0  0  0  0  0  0
   11.0983  -15.6678   21.6946 C   0  0  0  0  0  0  0  0  0  0  0  0
   11.0576  -16.9297   21.5840 O   0  0  0  0  0  0  0  0  0  0  0  0
   12.3210  -15.1220   22.1546 N   0  0  0  0  0  0  0  0  0  0  0  0
   13.4248  -15.9877   22.6228 C   0  0  1  0  0  0  0  0  0  0  0  0
   14.6780  -15.2936   22.2201 C   0  0  0  0  0  0  0  0  0  0  0  0
   14.8657  -15.1107   20.7752 C   0  0  0  0  0  0  0  0  0  0  0  0
   14.5158  -15.9835   19.9584 O   0  0  0  0  0  0  0  0  0  0  0  0
   13.2730  -16.2161   24.0763 C   0  0  0  0  0  0  0  0  0  0  0  0
   12.2410  -15.5828   24.7775 O   0  0  0  0  0  0  0  0  0  0  0  0
   15.4396  -13.9619   20.2474 O   0  0  0  0  0  0  0  0  0  0  0  0
   14.0129  -16.9519   24.7578 O   0  0  0  0  0  0  0  0  0  0  0  0
  2  1  1  0
  2  4  1  0
  3  2  2  0
  4  5  1  0
  5  6  1  1
  7 12  1  0
  7  5  1  0
  8  7  2  0
  9 10  1  0
 11 10  1  1
 11 13  1  0
 11 12  1  0
 13 15  1  0
 14 13  2  0
 15 16  1  0
 16 17  1  1
 17 18  1  0
 18 19  2  0
 20 16  1  0
 20 21  1  0
 22 18  1  0
 23 20  2  0
M  END
$$$$
