NTK.pdb
     RDKit          3D

 25 24  0  0  1  0  0  0  0  0999 V2000
   12.5249  -19.1732   16.4775 N   0  0  0  0  0  0  0  0  0  0  0  0
   11.5421  -18.1557   16.5812 C   0  0  0  0  0  0  0  0  0  0  0  0
   10.7675  -17.9882   15.5796 O   0  0  0  0  0  0  0  0  0  0  0  0
   11.3502  -17.2885   17.7461 C   0  0  0  0  0  0  0  0  0  0  0  0
   10.0289  -17.6352   18.4602 C   0  0  2  0  0  0  0  0  0  0  0  0
    8.9829  -17.3997   17.4968 N   0  0  0  0  0  0  0  0  0  0  0  0
    9.9627  -16.6753   19.5948 C   0  0  0  0  0  0  0  0  0  0  0  0
   10.9053  -16.6896   20.4220 O   0  0  0  0  0  0  0  0  0  0  0  0
    8.0219  -13.1111   19.5604 C   0  0  0  0  0  0  0  0  0  0  0  0
    7.6595  -13.9573   20.7758 C   0  0  1  0  0  0  0  0  0  0  0  0
    6.4691  -14.6359   20.5688 O   0  0  0  0  0  0  0  0  0  0  0  0
    8.8191  -14.9387   21.0063 C   0  0  2  0  0  0  0  0  0  0  0  0
    8.9212  -15.7504   19.8094 N   0  0  0  0  0  0  0  0  0  0  0  0
    8.5013  -15.7417   22.2059 C   0  0  0  0  0  0  0  0  0  0  0  0
    7.8313  -16.8080   22.1537 O   0  0  0  0  0  0  0  0  0  0  0  0
    8.9768  -15.2789   23.4567 N   0  0  0  0  0  0  0  0  0  0  0  0
    8.6617  -15.9490   24.7288 C   0  0  1  0  0  0  0  0  0  0  0  0
    9.9215  -16.6956   25.0918 C   0  0  0  0  0  0  0  0  0  0  0  0
    9.8330  -17.5263   26.3239 C   0  0  0  0  0  0  0  0  0  0  0  0
   11.1514  -18.2044   26.6541 C   0  0  0  0  0  0  0  0  0  0  0  0
   11.0871  -18.8940   27.9994 C   0  0  0  0  0  0  0  0  0  0  0  0
   12.3540  -19.4631   28.3803 N   0  0  0  0  0  0  0  0  0  0  0  0
    8.4045  -14.8905   25.7215 C   0  0  0  0  0  0  0  0  0  0  0  0
    7.9059  -15.1892   26.8304 O   0  0  0  0  0  0  0  0  0  0  0  0
    8.6979  -13.5660   25.4719 O   0  0  0  0  0  0  0  0  0  0  0  0
  1  2  1  0
  2  3  2  0
  2  4  1  0
  4  5  1  0
  5  6  1  6
  7 13  1  0
  7  5  1  0
  8  7  2  0
 10  9  1  6
 10 12  1  0
 11 10  1  0
 12 13  1  6
 12 14  1  0
 14 15  2  0
 16 14  1  0
 16 17  1  0
 17 23  1  0
 17 18  1  1
 18 19  1  0
 19 20  1  0
 21 22  1  0
 21 20  1  0
 23 25  1  0
 24 23  2  0
M  END
$$$$
