NTK.pdb
     RDKit          3D

 25 24  0  0  1  0  0  0  0  0999 V2000
    8.5010  -17.4453   14.5957 N   0  0  0  0  0  0  0  0  0  0  0  0
    8.9663  -16.1098   14.7050 C   0  0  0  0  0  0  0  0  0  0  0  0
    9.0818  -15.4415   13.6227 O   0  0  0  0  0  0  0  0  0  0  0  0
    9.3213  -15.4438   15.9605 C   0  0  0  0  0  0  0  0  0  0  0  0
    9.2125  -16.4307   17.1396 C   0  0  2  0  0  0  0  0  0  0  0  0
    7.8571  -16.9209   17.1238 N   0  0  0  0  0  0  0  0  0  0  0  0
    9.4855  -15.5972   18.3413 C   0  0  0  0  0  0  0  0  0  0  0  0
   10.6314  -15.1000   18.4537 O   0  0  0  0  0  0  0  0  0  0  0  0
    7.6671  -12.8259   20.1825 C   0  0  0  0  0  0  0  0  0  0  0  0
    7.8092  -13.9627   21.1885 C   0  0  1  0  0  0  0  0  0  0  0  0
    6.6216  -14.6665   21.3104 O   0  0  0  0  0  0  0  0  0  0  0  0
    8.9392  -14.8742   20.6853 C   0  0  2  0  0  0  0  0  0  0  0  0
    8.5532  -15.3236   19.3621 N   0  0  0  0  0  0  0  0  0  0  0  0
    9.0788  -15.9927   21.6415 C   0  0  0  0  0  0  0  0  0  0  0  0
    8.4801  -17.0922   21.4955 O   0  0  0  0  0  0  0  0  0  0  0  0
    9.9236  -15.8036   22.7620 N   0  0  0  0  0  0  0  0  0  0  0  0
   10.1528  -16.8466   23.7748 C   0  0  1  0  0  0  0  0  0  0  0  0
   11.6524  -17.0014   23.8340 C   0  0  0  0  0  0  0  0  0  0  0  0
   12.1892  -18.2267   23.1810 C   0  0  0  0  0  0  0  0  0  0  0  0
   13.6976  -18.3372   23.3214 C   0  0  0  0  0  0  0  0  0  0  0  0
   14.2348  -19.5045   22.5225 C   0  0  0  0  0  0  0  0  0  0  0  0
   15.6659  -19.6246   22.6295 N   0  0  0  0  0  0  0  0  0  0  0  0
    9.6538  -16.3192   25.0574 C   0  0  0  0  0  0  0  0  0  0  0  0
    9.4260  -15.0939   25.1767 O   0  0  0  0  0  0  0  0  0  0  0  0
    9.4238  -17.1360   26.1448 O   0  0  0  0  0  0  0  0  0  0  0  0
  1  2  1  0
  2  3  2  0
  2  4  1  0
  4  5  1  0
  5  6  1  1
  7 13  1  0
  7  5  1  0
  8  7  2  0
 10  9  1  6
 10 12  1  0
 11 10  1  0
 12 13  1  6
 12 14  1  0
 14 15  2  0
 16 14  1  0
 16 17  1  0
 17 23  1  0
 17 18  1  1
 18 19  1  0
 19 20  1  0
 21 22  1  0
 21 20  1  0
 23 25  1  0
 24 23  2  0
M  END
$$$$
