NTK.pdb
     RDKit          3D

 25 24  0  0  1  0  0  0  0  0999 V2000
    1.6283  -22.8345   24.7680 N   0  0  0  0  0  0  0  0  0  0  0  0
    2.6568  -22.4715   23.8612 C   0  0  0  0  0  0  0  0  0  0  0  0
    2.3006  -22.1079   22.6898 O   0  0  0  0  0  0  0  0  0  0  0  0
    4.0892  -22.4817   24.1676 C   0  0  0  0  0  0  0  0  0  0  0  0
    4.8996  -21.9797   22.9563 C   0  0  2  0  0  0  0  0  0  0  0  0
    4.7624  -22.9920   21.9394 N   0  0  0  0  0  0  0  0  0  0  0  0
    6.2958  -21.8889   23.4618 C   0  0  0  0  0  0  0  0  0  0  0  0
    6.9857  -22.9363   23.4504 O   0  0  0  0  0  0  0  0  0  0  0  0
    8.9620  -19.9707   22.1268 C   0  0  0  0  0  0  0  0  0  0  0  0
    8.9578  -19.5386   23.5889 C   0  0  1  0  0  0  0  0  0  0  0  0
    8.2815  -18.3396   23.7483 O   0  0  0  0  0  0  0  0  0  0  0  0
    8.2824  -20.6617   24.3910 C   0  0  2  0  0  0  0  0  0  0  0  0
    6.9018  -20.7146   23.9515 N   0  0  0  0  0  0  0  0  0  0  0  0
    8.4041  -20.3297   25.8262 C   0  0  0  0  0  0  0  0  0  0  0  0
    7.5706  -19.6021   26.4300 O   0  0  0  0  0  0  0  0  0  0  0  0
    9.5090  -20.8589   26.5362 N   0  0  0  0  0  0  0  0  0  0  0  0
    9.8186  -20.4856   27.9259 C   0  0  1  0  0  0  0  0  0  0  0  0
   10.7143  -21.5903   28.4297 C   0  0  0  0  0  0  0  0  0  0  0  0
   11.2384  -21.4012   29.8101 C   0  0  0  0  0  0  0  0  0  0  0  0
   12.1045  -22.5654   30.2590 C   0  0  0  0  0  0  0  0  0  0  0  0
   12.5238  -22.4066   31.7042 C   0  0  0  0  0  0  0  0  0  0  0  0
   13.3175  -23.5162   32.1656 N   0  0  0  0  0  0  0  0  0  0  0  0
   10.5688  -19.2181   27.8749 C   0  0  0  0  0  0  0  0  0  0  0  0
   10.5911  -18.4707   28.8791 O   0  0  0  0  0  0  0  0  0  0  0  0
   11.2577  -18.8201   26.7482 O   0  0  0  0  0  0  0  0  0  0  0  0
  1  2  1  0
  2  3  2  0
  2  4  1  0
  4  5  1  0
  5  6  1  6
  7 13  1  0
  7  5  1  0
  8  7  2  0
 10  9  1  6
 10 12  1  0
 11 10  1  0
 12 13  1  6
 12 14  1  0
 14 15  2  0
 16 14  1  0
 16 17  1  0
 17 23  1  0
 17 18  1  6
 18 19  1  0
 19 20  1  0
 21 22  1  0
 21 20  1  0
 23 25  1  0
 24 23  2  0
M  END
$$$$
