NTK.pdb
     RDKit          3D

 25 24  0  0  1  0  0  0  0  0999 V2000
    8.1812  -19.5834   15.1042 N   0  0  0  0  0  0  0  0  0  0  0  0
    8.1627  -18.1831   15.3299 C   0  0  0  0  0  0  0  0  0  0  0  0
    7.2811  -17.5027   14.7045 O   0  0  0  0  0  0  0  0  0  0  0  0
    9.0742  -17.4639   16.2230 C   0  0  0  0  0  0  0  0  0  0  0  0
    8.7255  -15.9627   16.2485 C   0  0  2  0  0  0  0  0  0  0  0  0
    9.4550  -15.3668   15.1574 N   0  0  0  0  0  0  0  0  0  0  0  0
    9.2238  -15.4931   17.5692 C   0  0  0  0  0  0  0  0  0  0  0  0
   10.4587  -15.5559   17.7785 O   0  0  0  0  0  0  0  0  0  0  0  0
    7.5415  -12.5883   19.7450 C   0  0  0  0  0  0  0  0  0  0  0  0
    7.8261  -13.8117   20.6091 C   0  0  1  0  0  0  0  0  0  0  0  0
    6.6831  -14.5779   20.7735 O   0  0  0  0  0  0  0  0  0  0  0  0
    8.9306  -14.6158   19.9060 C   0  0  2  0  0  0  0  0  0  0  0  0
    8.4127  -14.9822   18.6023 N   0  0  0  0  0  0  0  0  0  0  0  0
    9.2349  -15.7955   20.7429 C   0  0  0  0  0  0  0  0  0  0  0  0
    8.8768  -16.9629   20.4303 O   0  0  0  0  0  0  0  0  0  0  0  0
    9.9588  -15.5871   21.9418 N   0  0  0  0  0  0  0  0  0  0  0  0
   10.2632  -16.6709   22.8900 C   0  0  1  0  0  0  0  0  0  0  0  0
   11.6196  -17.1798   22.4688 C   0  0  0  0  0  0  0  0  0  0  0  0
   11.6695  -18.6217   22.1020 C   0  0  0  0  0  0  0  0  0  0  0  0
   13.0637  -19.2045   22.2557 C   0  0  0  0  0  0  0  0  0  0  0  0
   13.1039  -20.6473   21.8018 C   0  0  0  0  0  0  0  0  0  0  0  0
   14.4125  -21.2293   21.9537 N   0  0  0  0  0  0  0  0  0  0  0  0
   10.3520  -16.0605   24.2285 C   0  0  0  0  0  0  0  0  0  0  0  0
   10.4167  -14.8150   24.3382 O   0  0  0  0  0  0  0  0  0  0  0  0
   10.3650  -16.8199   25.3798 O   0  0  0  0  0  0  0  0  0  0  0  0
  1  2  1  0
  2  3  2  0
  2  4  1  0
  4  5  1  0
  5  6  1  6
  7 13  1  0
  7  5  1  0
  8  7  2  0
 10  9  1  6
 10 12  1  0
 11 10  1  0
 12 13  1  6
 12 14  1  0
 14 15  2  0
 16 14  1  0
 16 17  1  0
 17 23  1  0
 17 18  1  6
 18 19  1  0
 19 20  1  0
 21 22  1  0
 21 20  1  0
 23 25  1  0
 24 23  2  0
M  END
$$$$
