NTK.pdb
     RDKit          3D

 25 24  0  0  1  0  0  0  0  0999 V2000
   12.1825  -17.5935   14.8199 N   0  0  0  0  0  0  0  0  0  0  0  0
   11.6391  -16.2833   14.8271 C   0  0  0  0  0  0  0  0  0  0  0  0
   11.4365  -15.7292   13.6944 O   0  0  0  0  0  0  0  0  0  0  0  0
   11.2941  -15.5235   16.0311 C   0  0  0  0  0  0  0  0  0  0  0  0
   10.4191  -16.3766   16.9705 C   0  0  2  0  0  0  0  0  0  0  0  0
    9.1098  -16.4141   16.3688 N   0  0  0  0  0  0  0  0  0  0  0  0
   10.4170  -15.6237   18.2535 C   0  0  0  0  0  0  0  0  0  0  0  0
   11.5149  -15.4785   18.8422 O   0  0  0  0  0  0  0  0  0  0  0  0
    7.8630  -12.7246   19.4522 C   0  0  0  0  0  0  0  0  0  0  0  0
    7.9067  -13.8881   20.4365 C   0  0  1  0  0  0  0  0  0  0  0  0
    6.8465  -14.7550   20.2250 O   0  0  0  0  0  0  0  0  0  0  0  0
    9.2511  -14.6036   20.2324 C   0  0  2  0  0  0  0  0  0  0  0  0
    9.2746  -15.0605   18.8567 N   0  0  0  0  0  0  0  0  0  0  0  0
    9.3210  -15.7206   21.1980 C   0  0  0  0  0  0  0  0  0  0  0  0
    9.3148  -16.9297   20.8421 O   0  0  0  0  0  0  0  0  0  0  0  0
    9.3971  -15.4007   22.5752 N   0  0  0  0  0  0  0  0  0  0  0  0
    9.5333  -16.4220   23.6262 C   0  0  1  0  0  0  0  0  0  0  0  0
   10.9110  -17.0021   23.4216 C   0  0  0  0  0  0  0  0  0  0  0  0
   11.3412  -17.9906   24.4481 C   0  0  0  0  0  0  0  0  0  0  0  0
   12.7757  -18.4449   24.2410 C   0  0  0  0  0  0  0  0  0  0  0  0
   13.1655  -19.4975   25.2556 C   0  0  0  0  0  0  0  0  0  0  0  0
   14.4553  -20.0731   24.9744 N   0  0  0  0  0  0  0  0  0  0  0  0
    9.4742  -15.7194   24.9204 C   0  0  0  0  0  0  0  0  0  0  0  0
    9.7155  -14.4918   24.9704 O   0  0  0  0  0  0  0  0  0  0  0  0
    9.1572  -16.3717   26.0936 O   0  0  0  0  0  0  0  0  0  0  0  0
  1  2  1  0
  2  3  2  0
  2  4  1  0
  4  5  1  0
  5  6  1  6
  7 13  1  0
  7  5  1  0
  8  7  2  0
 10  9  1  6
 10 12  1  0
 11 10  1  0
 12 13  1  6
 12 14  1  0
 14 15  2  0
 16 14  1  0
 16 17  1  0
 17 23  1  0
 17 18  1  6
 18 19  1  0
 19 20  1  0
 21 22  1  0
 21 20  1  0
 23 25  1  0
 24 23  2  0
M  END
$$$$
