NTK.pdb
     RDKit          3D

 25 24  0  0  1  0  0  0  0  0999 V2000
    8.9964  -15.8293   13.4079 N   0  0  0  0  0  0  0  0  0  0  0  0
   10.0331  -16.0980   14.3379 C   0  0  0  0  0  0  0  0  0  0  0  0
   10.9363  -16.9278   13.9816 O   0  0  0  0  0  0  0  0  0  0  0  0
   10.1445  -15.4966   15.6690 C   0  0  0  0  0  0  0  0  0  0  0  0
    9.6627  -16.4878   16.7466 C   0  0  2  0  0  0  0  0  0  0  0  0
    8.2546  -16.6817   16.5070 N   0  0  0  0  0  0  0  0  0  0  0  0
    9.9132  -15.7820   18.0320 C   0  0  0  0  0  0  0  0  0  0  0  0
   11.0984  -15.7195   18.4375 O   0  0  0  0  0  0  0  0  0  0  0  0
    7.8270  -12.7451   19.6302 C   0  0  0  0  0  0  0  0  0  0  0  0
    7.9296  -13.9124   20.6055 C   0  0  1  0  0  0  0  0  0  0  0  0
    6.7770  -14.6812   20.5798 O   0  0  0  0  0  0  0  0  0  0  0  0
    9.1540  -14.7429   20.1906 C   0  0  2  0  0  0  0  0  0  0  0  0
    8.9193  -15.1775   18.8275 N   0  0  0  0  0  0  0  0  0  0  0  0
    9.2717  -15.8773   21.1310 C   0  0  0  0  0  0  0  0  0  0  0  0
    9.2044  -17.0797   20.7593 O   0  0  0  0  0  0  0  0  0  0  0  0
    9.4675  -15.5824   22.5020 N   0  0  0  0  0  0  0  0  0  0  0  0
    9.7075  -16.6216   23.5163 C   0  0  1  0  0  0  0  0  0  0  0  0
   11.0648  -17.1850   23.1749 C   0  0  0  0  0  0  0  0  0  0  0  0
   11.6226  -18.1411   24.1702 C   0  0  0  0  0  0  0  0  0  0  0  0
   13.0092  -18.6265   23.7845 C   0  0  0  0  0  0  0  0  0  0  0  0
   13.5727  -19.5569   24.8363 C   0  0  0  0  0  0  0  0  0  0  0  0
   14.8005  -20.1784   24.4117 N   0  0  0  0  0  0  0  0  0  0  0  0
    9.7624  -15.9434   24.8236 C   0  0  0  0  0  0  0  0  0  0  0  0
    9.8821  -16.6221   25.8689 O   0  0  0  0  0  0  0  0  0  0  0  0
    9.6875  -14.5711   24.9400 O   0  0  0  0  0  0  0  0  0  0  0  0
  1  2  1  0
  2  3  2  0
  2  4  1  0
  4  5  1  0
  5  6  1  6
  7 13  1  0
  7  5  1  0
  8  7  2  0
 10  9  1  6
 10 12  1  0
 11 10  1  0
 12 13  1  6
 12 14  1  0
 14 15  2  0
 16 14  1  0
 16 17  1  0
 17 23  1  0
 17 18  1  6
 18 19  1  0
 19 20  1  0
 21 22  1  0
 21 20  1  0
 23 25  1  0
 24 23  2  0
M  END
$$$$
