NTK.pdb
     RDKit          3D

 25 24  0  0  1  0  0  0  0  0999 V2000
   10.0759  -20.4425   16.4841 N   0  0  0  0  0  0  0  0  0  0  0  0
    9.2605  -19.3739   16.9370 C   0  0  0  0  0  0  0  0  0  0  0  0
    8.1464  -19.1956   16.3384 O   0  0  0  0  0  0  0  0  0  0  0  0
    9.5992  -18.4656   18.0352 C   0  0  0  0  0  0  0  0  0  0  0  0
    9.4587  -16.9995   17.5804 C   0  0  2  0  0  0  0  0  0  0  0  0
   10.5181  -16.7753   16.6290 N   0  0  0  0  0  0  0  0  0  0  0  0
    9.6563  -16.2092   18.8251 C   0  0  0  0  0  0  0  0  0  0  0  0
   10.8314  -16.0615   19.2375 O   0  0  0  0  0  0  0  0  0  0  0  0
    7.5726  -13.0764   20.0361 C   0  0  0  0  0  0  0  0  0  0  0  0
    7.6227  -14.1128   21.1531 C   0  0  1  0  0  0  0  0  0  0  0  0
    6.4520  -14.8531   21.1939 O   0  0  0  0  0  0  0  0  0  0  0  0
    8.8352  -15.0160   20.8789 C   0  0  2  0  0  0  0  0  0  0  0  0
    8.6225  -15.6132   19.5750 N   0  0  0  0  0  0  0  0  0  0  0  0
    8.9012  -16.0254   21.9566 C   0  0  0  0  0  0  0  0  0  0  0  0
    8.4843  -17.2058   21.8105 O   0  0  0  0  0  0  0  0  0  0  0  0
    9.4583  -15.6325   23.1977 N   0  0  0  0  0  0  0  0  0  0  0  0
    9.5415  -16.5349   24.3575 C   0  0  1  0  0  0  0  0  0  0  0  0
   10.9810  -16.9857   24.3906 C   0  0  0  0  0  0  0  0  0  0  0  0
   11.3101  -17.9774   25.4509 C   0  0  0  0  0  0  0  0  0  0  0  0
   12.7870  -18.3322   25.4656 C   0  0  0  0  0  0  0  0  0  0  0  0
   13.0815  -19.3946   26.5019 C   0  0  0  0  0  0  0  0  0  0  0  0
   14.4876  -19.6928   26.5911 N   0  0  0  0  0  0  0  0  0  0  0  0
    9.2430  -15.7279   25.5540 C   0  0  0  0  0  0  0  0  0  0  0  0
    9.2676  -14.4783   25.4803 O   0  0  0  0  0  0  0  0  0  0  0  0
    8.9316  -16.3054   26.7673 O   0  0  0  0  0  0  0  0  0  0  0  0
  1  2  1  0
  2  3  2  0
  2  4  1  0
  4  5  1  0
  5  6  1  6
  7 13  1  0
  7  5  1  0
  8  7  2  0
 10  9  1  6
 10 12  1  0
 11 10  1  0
 12 13  1  6
 12 14  1  0
 14 15  2  0
 16 14  1  0
 16 17  1  0
 17 23  1  0
 17 18  1  1
 18 19  1  0
 19 20  1  0
 21 22  1  0
 21 20  1  0
 23 25  1  0
 24 23  2  0
M  END
$$$$
