NTK.pdb
     RDKit          3D

 25 24  0  0  1  0  0  0  0  0999 V2000
    8.9743  -19.2771   16.4790 N   0  0  0  0  0  0  0  0  0  0  0  0
    9.9157  -18.2177   16.5354 C   0  0  0  0  0  0  0  0  0  0  0  0
   10.7475  -18.1240   15.5707 O   0  0  0  0  0  0  0  0  0  0  0  0
   10.0033  -17.2279   17.6117 C   0  0  0  0  0  0  0  0  0  0  0  0
    9.0214  -17.5817   18.7460 C   0  0  2  0  0  0  0  0  0  0  0  0
    7.7089  -17.5802   18.1502 N   0  0  0  0  0  0  0  0  0  0  0  0
    9.1841  -16.4773   19.7293 C   0  0  0  0  0  0  0  0  0  0  0  0
   10.3477  -16.2095   20.1131 O   0  0  0  0  0  0  0  0  0  0  0  0
    8.0708  -12.9306   19.6378 C   0  0  0  0  0  0  0  0  0  0  0  0
    7.4743  -13.5000   20.9201 C   0  0  1  0  0  0  0  0  0  0  0  0
    6.1469  -13.8521   20.7343 O   0  0  0  0  0  0  0  0  0  0  0  0
    8.3187  -14.7238   21.3080 C   0  0  2  0  0  0  0  0  0  0  0  0
    8.1293  -15.7086   20.2610 N   0  0  0  0  0  0  0  0  0  0  0  0
    7.8450  -15.2025   22.6238 C   0  0  0  0  0  0  0  0  0  0  0  0
    6.6234  -15.3577   22.8925 O   0  0  0  0  0  0  0  0  0  0  0  0
    8.8174  -15.4933   23.6111 N   0  0  0  0  0  0  0  0  0  0  0  0
    8.4744  -16.0432   24.9326 C   0  0  1  0  0  0  0  0  0  0  0  0
    8.0349  -17.4599   24.6566 C   0  0  0  0  0  0  0  0  0  0  0  0
    7.7104  -18.2691   25.8632 C   0  0  0  0  0  0  0  0  0  0  0  0
    7.3965  -19.7143   25.5169 C   0  0  0  0  0  0  0  0  0  0  0  0
    7.0340  -20.5046   26.7553 C   0  0  0  0  0  0  0  0  0  0  0  0
    6.7439  -21.8831   26.4556 N   0  0  0  0  0  0  0  0  0  0  0  0
    9.7131  -16.0509   25.7311 C   0  0  0  0  0  0  0  0  0  0  0  0
   10.8208  -15.9464   25.1570 O   0  0  0  0  0  0  0  0  0  0  0  0
    9.6973  -16.1685   27.1053 O   0  0  0  0  0  0  0  0  0  0  0  0
  1  2  1  0
  2  3  2  0
  2  4  1  0
  4  5  1  0
  5  6  1  6
  7 13  1  0
  7  5  1  0
  8  7  2  0
 10  9  1  6
 10 12  1  0
 11 10  1  0
 12 13  1  6
 12 14  1  0
 14 15  2  0
 16 14  1  0
 16 17  1  0
 17 23  1  0
 17 18  1  6
 18 19  1  0
 19 20  1  0
 21 22  1  0
 21 20  1  0
 23 25  1  0
 24 23  2  0
M  END
$$$$
