NTK.pdb
     RDKit          3D

 25 24  0  0  1  0  0  0  0  0999 V2000
   10.5259  -16.7615   13.8101 N   0  0  0  0  0  0  0  0  0  0  0  0
   10.6803  -17.3139   15.1074 C   0  0  0  0  0  0  0  0  0  0  0  0
   10.8112  -18.5816   15.1902 O   0  0  0  0  0  0  0  0  0  0  0  0
   10.7016  -16.5419   16.3522 C   0  0  0  0  0  0  0  0  0  0  0  0
    9.7004  -17.1313   17.3652 C   0  0  2  0  0  0  0  0  0  0  0  0
    8.3919  -16.9229   16.7978 N   0  0  0  0  0  0  0  0  0  0  0  0
    9.9051  -16.3215   18.5962 C   0  0  0  0  0  0  0  0  0  0  0  0
   11.0674  -16.2609   19.0636 O   0  0  0  0  0  0  0  0  0  0  0  0
    7.7799  -13.1389   19.7282 C   0  0  0  0  0  0  0  0  0  0  0  0
    7.8533  -14.1532   20.8640 C   0  0  1  0  0  0  0  0  0  0  0  0
    6.6928  -14.9078   20.9291 O   0  0  0  0  0  0  0  0  0  0  0  0
    9.0751  -15.0456   20.5960 C   0  0  2  0  0  0  0  0  0  0  0  0
    8.8916  -15.6167   19.2761 N   0  0  0  0  0  0  0  0  0  0  0  0
    9.1237  -16.0768   21.6539 C   0  0  0  0  0  0  0  0  0  0  0  0
    8.5317  -17.1849   21.5526 O   0  0  0  0  0  0  0  0  0  0  0  0
    9.8705  -15.7909   22.8225 N   0  0  0  0  0  0  0  0  0  0  0  0
    9.9557  -16.7176   23.9628 C   0  0  1  0  0  0  0  0  0  0  0  0
   11.4211  -17.0600   24.0707 C   0  0  0  0  0  0  0  0  0  0  0  0
   11.7799  -17.9609   25.2001 C   0  0  0  0  0  0  0  0  0  0  0  0
   13.2738  -18.2264   25.2695 C   0  0  0  0  0  0  0  0  0  0  0  0
   13.6056  -19.1799   26.3965 C   0  0  0  0  0  0  0  0  0  0  0  0
   14.9900  -19.5768   26.3837 N   0  0  0  0  0  0  0  0  0  0  0  0
    9.5278  -15.9702   25.1587 C   0  0  0  0  0  0  0  0  0  0  0  0
    9.3935  -16.5704   26.2492 O   0  0  0  0  0  0  0  0  0  0  0  0
    9.2681  -14.6160   25.1214 O   0  0  0  0  0  0  0  0  0  0  0  0
  1  2  1  0
  2  3  2  0
  2  4  1  0
  4  5  1  0
  5  6  1  6
  7 13  1  0
  7  5  1  0
  8  7  2  0
 10  9  1  6
 10 12  1  0
 11 10  1  0
 12 13  1  6
 12 14  1  0
 14 15  2  0
 16 14  1  0
 16 17  1  0
 17 23  1  0
 17 18  1  1
 18 19  1  0
 19 20  1  0
 21 22  1  0
 21 20  1  0
 23 25  1  0
 24 23  2  0
M  END
$$$$
