NTK.pdb
     RDKit          3D

 25 24  0  0  1  0  0  0  0  0999 V2000
    5.8323  -18.2231   14.3761 N   0  0  0  0  0  0  0  0  0  0  0  0
    6.6767  -18.5678   15.4624 C   0  0  0  0  0  0  0  0  0  0  0  0
    7.1400  -19.7578   15.4867 O   0  0  0  0  0  0  0  0  0  0  0  0
    7.0554  -17.6646   16.5517 C   0  0  0  0  0  0  0  0  0  0  0  0
    7.7312  -16.3992   15.9879 C   0  0  2  0  0  0  0  0  0  0  0  0
    8.5621  -16.8448   14.8976 N   0  0  0  0  0  0  0  0  0  0  0  0
    8.5398  -15.8789   17.1230 C   0  0  0  0  0  0  0  0  0  0  0  0
    9.6550  -16.4131   17.3331 O   0  0  0  0  0  0  0  0  0  0  0  0
    6.8034  -13.4862   20.0156 C   0  0  0  0  0  0  0  0  0  0  0  0
    8.2574  -13.1598   19.6933 C   0  0  1  0  0  0  0  0  0  0  0  0
    8.9234  -12.7042   20.8199 O   0  0  0  0  0  0  0  0  0  0  0  0
    8.9022  -14.4470   19.1563 C   0  0  2  0  0  0  0  0  0  0  0  0
    8.1476  -14.8305   17.9793 N   0  0  0  0  0  0  0  0  0  0  0  0
    8.8363  -15.4665   20.2244 C   0  0  0  0  0  0  0  0  0  0  0  0
    7.7977  -16.1410   20.4589 O   0  0  0  0  0  0  0  0  0  0  0  0
    9.9968  -15.6808   21.0069 N   0  0  0  0  0  0  0  0  0  0  0  0
   10.0911  -16.7423   22.0221 C   0  0  1  0  0  0  0  0  0  0  0  0
   11.1431  -17.6861   21.4942 C   0  0  0  0  0  0  0  0  0  0  0  0
   11.4643  -18.8374   22.3815 C   0  0  0  0  0  0  0  0  0  0  0  0
   12.4584  -19.7927   21.7441 C   0  0  0  0  0  0  0  0  0  0  0  0
   12.6957  -20.9995   22.6254 C   0  0  0  0  0  0  0  0  0  0  0  0
   13.6026  -21.9428   22.0237 N   0  0  0  0  0  0  0  0  0  0  0  0
   10.5664  -16.1090   23.2652 C   0  0  0  0  0  0  0  0  0  0  0  0
   10.4364  -16.7103   24.3556 O   0  0  0  0  0  0  0  0  0  0  0  0
   11.1583  -14.8632   23.2719 O   0  0  0  0  0  0  0  0  0  0  0  0
  1  2  1  0
  2  3  2  0
  2  4  1  0
  4  5  1  0
  5  6  1  6
  7 13  1  0
  7  5  1  0
  8  7  2  0
 10  9  1  1
 10 12  1  0
 11 10  1  0
 12 13  1  6
 12 14  1  0
 14 15  2  0
 16 14  1  0
 16 17  1  0
 17 23  1  0
 17 18  1  6
 18 19  1  0
 19 20  1  0
 21 22  1  0
 21 20  1  0
 23 25  1  0
 24 23  2  0
M  END
$$$$
