NTK.pdb
     RDKit          3D

 25 24  0  0  1  0  0  0  0  0999 V2000
    8.2138  -20.6767   16.5150 N   0  0  0  0  0  0  0  0  0  0  0  0
    7.6619  -19.4263   16.8942 C   0  0  0  0  0  0  0  0  0  0  0  0
    6.6584  -19.0045   16.2261 O   0  0  0  0  0  0  0  0  0  0  0  0
    8.1544  -18.5882   17.9900 C   0  0  0  0  0  0  0  0  0  0  0  0
    8.3709  -17.1419   17.5026 C   0  0  2  0  0  0  0  0  0  0  0  0
    9.3066  -17.2270   16.4095 N   0  0  0  0  0  0  0  0  0  0  0  0
    8.9555  -16.4427   18.6783 C   0  0  0  0  0  0  0  0  0  0  0  0
   10.1839  -16.5866   18.8865 O   0  0  0  0  0  0  0  0  0  0  0  0
    7.8358  -12.8993   20.1839 C   0  0  0  0  0  0  0  0  0  0  0  0
    7.8599  -13.9735   21.2655 C   0  0  1  0  0  0  0  0  0  0  0  0
    6.5888  -14.4773   21.4907 O   0  0  0  0  0  0  0  0  0  0  0  0
    8.8123  -15.0792   20.7846 C   0  0  2  0  0  0  0  0  0  0  0  0
    8.2332  -15.6301   19.5750 N   0  0  0  0  0  0  0  0  0  0  0  0
    8.9228  -16.0831   21.8638 C   0  0  0  0  0  0  0  0  0  0  0  0
    8.2271  -17.1338   21.8904 O   0  0  0  0  0  0  0  0  0  0  0  0
    9.8532  -15.8379   22.9027 N   0  0  0  0  0  0  0  0  0  0  0  0
   10.0186  -16.7375   24.0558 C   0  0  1  0  0  0  0  0  0  0  0  0
   11.4577  -17.1856   23.9898 C   0  0  0  0  0  0  0  0  0  0  0  0
   11.9097  -18.0346   25.1261 C   0  0  0  0  0  0  0  0  0  0  0  0
   13.3603  -18.4612   24.9814 C   0  0  0  0  0  0  0  0  0  0  0  0
   13.7572  -19.4229   26.0800 C   0  0  0  0  0  0  0  0  0  0  0  0
   15.0992  -19.9178   25.9115 N   0  0  0  0  0  0  0  0  0  0  0  0
    9.8022  -15.9283   25.2684 C   0  0  0  0  0  0  0  0  0  0  0  0
    9.8357  -14.6790   25.1935 O   0  0  0  0  0  0  0  0  0  0  0  0
    9.5593  -16.5034   26.4983 O   0  0  0  0  0  0  0  0  0  0  0  0
  1  2  1  0
  2  3  2  0
  2  4  1  0
  4  5  1  0
  5  6  1  6
  7 13  1  0
  7  5  1  0
  8  7  2  0
 10  9  1  6
 10 12  1  0
 11 10  1  0
 12 13  1  6
 12 14  1  0
 14 15  2  0
 16 14  1  0
 16 17  1  0
 17 23  1  0
 17 18  1  1
 18 19  1  0
 19 20  1  0
 21 22  1  0
 21 20  1  0
 23 25  1  0
 24 23  2  0
M  END
$$$$
