NTK.pdb
     RDKit          3D

 25 24  0  0  1  0  0  0  0  0999 V2000
    6.9747  -14.5037   12.2485 N   0  0  0  0  0  0  0  0  0  0  0  0
    7.9689  -15.1172   13.0529 C   0  0  0  0  0  0  0  0  0  0  0  0
    8.4250  -16.2434   12.6594 O   0  0  0  0  0  0  0  0  0  0  0  0
    8.5090  -14.5572   14.2941 C   0  0  0  0  0  0  0  0  0  0  0  0
    8.8540  -15.6859   15.2855 C   0  0  2  0  0  0  0  0  0  0  0  0
    7.6068  -16.3400   15.5925 N   0  0  0  0  0  0  0  0  0  0  0  0
    9.4129  -14.9769   16.4679 C   0  0  0  0  0  0  0  0  0  0  0  0
   10.5675  -14.4983   16.3645 O   0  0  0  0  0  0  0  0  0  0  0  0
    7.5015  -12.7332   19.1380 C   0  0  0  0  0  0  0  0  0  0  0  0
    8.2756  -13.8428   19.8406 C   0  0  1  0  0  0  0  0  0  0  0  0
    7.4414  -14.9025   20.1594 O   0  0  0  0  0  0  0  0  0  0  0  0
    9.3928  -14.2906   18.8854 C   0  0  2  0  0  0  0  0  0  0  0  0
    8.7422  -14.8018   17.6950 N   0  0  0  0  0  0  0  0  0  0  0  0
   10.1935  -15.3228   19.5769 C   0  0  0  0  0  0  0  0  0  0  0  0
   10.0324  -16.5568   19.3771 O   0  0  0  0  0  0  0  0  0  0  0  0
   11.1771  -14.8895   20.4987 N   0  0  0  0  0  0  0  0  0  0  0  0
   12.1066  -15.8136   21.1683 C   0  0  1  0  0  0  0  0  0  0  0  0
   13.4554  -15.1460   21.0613 C   0  0  0  0  0  0  0  0  0  0  0  0
   14.0471  -15.1285   19.6954 C   0  0  0  0  0  0  0  0  0  0  0  0
   15.3665  -14.3772   19.6518 C   0  0  0  0  0  0  0  0  0  0  0  0
   15.8966  -14.2895   18.2373 C   0  0  0  0  0  0  0  0  0  0  0  0
   17.1677  -13.6155   18.1734 N   0  0  0  0  0  0  0  0  0  0  0  0
   11.6968  -15.8882   22.5820 C   0  0  0  0  0  0  0  0  0  0  0  0
   12.2819  -16.6797   23.3557 O   0  0  0  0  0  0  0  0  0  0  0  0
   10.6805  -15.1071   23.0916 O   0  0  0  0  0  0  0  0  0  0  0  0
  1  2  1  0
  2  3  2  0
  2  4  1  0
  4  5  1  0
  5  6  1  1
  7 13  1  0
  7  5  1  0
  8  7  2  0
 10  9  1  6
 10 12  1  0
 11 10  1  0
 12 13  1  6
 12 14  1  0
 14 15  2  0
 16 14  1  0
 16 17  1  0
 17 23  1  0
 17 18  1  1
 18 19  1  0
 19 20  1  0
 21 22  1  0
 21 20  1  0
 23 25  1  0
 24 23  2  0
M  END
$$$$
