ENK.pdb
     RDKit          3D

 27 26  0  0  1  0  0  0  0  0999 V2000
   19.8819  -10.8608  -17.6629 N   0  0  0  0  0  0  0  0  0  0  0  0
   20.2222  -11.1357  -16.2716 C   0  0  1  0  0  0  0  0  0  0  0  0
   21.7311  -11.4147  -16.1813 C   0  0  0  0  0  0  0  0  0  0  0  0
   22.5369  -10.4788  -17.0274 C   0  0  0  0  0  0  0  0  0  0  0  0
   23.9693  -10.8210  -17.1108 C   0  0  0  0  0  0  0  0  0  0  0  0
   24.8817  -10.1359  -16.5698 O   0  0  0  0  0  0  0  0  0  0  0  0
   19.8793   -9.9751  -15.4048 C   0  0  0  0  0  0  0  0  0  0  0  0
   19.8840  -10.0972  -14.1915 O   0  0  0  0  0  0  0  0  0  0  0  0
   24.3536  -11.9544  -17.8183 O   0  0  0  0  0  0  0  0  0  0  0  0
   22.5217   -6.3837  -15.6930 N   0  0  0  0  0  0  0  0  0  0  0  0
   21.3270   -6.3830  -14.9515 C   0  0  0  0  0  0  0  0  0  0  0  0
   21.4701   -6.4586  -13.6801 O   0  0  0  0  0  0  0  0  0  0  0  0
   19.9532   -6.3040  -15.5173 C   0  0  0  0  0  0  0  0  0  0  0  0
   19.2054   -7.5441  -15.2507 C   0  0  2  0  0  0  0  0  0  0  0  0
   19.5457   -8.7191  -15.9619 N   0  0  0  0  0  0  0  0  0  0  0  0
   17.7623   -7.2736  -15.5354 C   0  0  0  0  0  0  0  0  0  0  0  0
   17.3142   -7.4055  -16.7116 O   0  0  0  0  0  0  0  0  0  0  0  0
   16.8301   -6.8661  -14.5395 N   0  0  0  0  0  0  0  0  0  0  0  0
   15.4155   -6.7041  -14.9046 C   0  0  1  0  0  0  0  0  0  0  0  0
   14.6348   -7.7739  -14.1642 C   0  0  0  0  0  0  0  0  0  0  0  0
   13.1891   -7.6322  -14.5239 C   0  0  0  0  0  0  0  0  0  0  0  0
   12.3331   -8.6950  -13.8444 C   0  0  0  0  0  0  0  0  0  0  0  0
   10.9152   -8.4963  -14.3661 C   0  0  0  0  0  0  0  0  0  0  0  0
   10.0245   -9.5103  -13.8686 N   0  0  0  0  0  0  0  0  0  0  0  0
   14.9814   -5.3452  -14.5205 C   0  0  0  0  0  0  0  0  0  0  0  0
   15.6138   -4.6754  -13.6660 O   0  0  0  0  0  0  0  0  0  0  0  0
   13.8514   -4.7357  -15.0838 O   0  0  0  0  0  0  0  0  0  0  0  0
  2  1  1  6
  3  2  1  0
  4  5  1  0
  4  3  1  0
  5  6  2  0
  7  2  1  0
  7  8  2  0
  9  5  1  0
 10 11  1  0
 11 12  2  0
 11 13  1  0
 14 13  1  6
 14 15  1  0
 15  7  1  0
 16 14  1  0
 17 16  2  0
 18 16  1  0
 19 18  1  0
 19 20  1  1
 20 21  1  0
 21 22  1  0
 22 23  1  0
 23 24  1  0
 25 27  1  0
 25 19  1  0
 26 25  2  0
M  END
$$$$
