ENK.pdb
     RDKit          3D

 27 26  0  0  1  0  0  0  0  0999 V2000
   23.5957  -22.1637  -13.5374 N   0  0  0  0  0  0  0  0  0  0  0  0
   23.2898  -21.1512  -14.5416 C   0  0  1  0  0  0  0  0  0  0  0  0
   22.0870  -20.3263  -14.0562 C   0  0  0  0  0  0  0  0  0  0  0  0
   20.8831  -21.1745  -13.7880 C   0  0  0  0  0  0  0  0  0  0  0  0
   19.6700  -20.4098  -13.4424 C   0  0  0  0  0  0  0  0  0  0  0  0
   19.4575  -19.9207  -12.2979 O   0  0  0  0  0  0  0  0  0  0  0  0
   24.4555  -20.2505  -14.7556 C   0  0  0  0  0  0  0  0  0  0  0  0
   24.2780  -19.0946  -15.1013 O   0  0  0  0  0  0  0  0  0  0  0  0
   18.6983  -20.2071  -14.4159 O   0  0  0  0  0  0  0  0  0  0  0  0
   26.7711  -19.9154  -11.9652 N   0  0  0  0  0  0  0  0  0  0  0  0
   27.9646  -20.3021  -12.6000 C   0  0  0  0  0  0  0  0  0  0  0  0
   28.9199  -20.6388  -11.8147 O   0  0  0  0  0  0  0  0  0  0  0  0
   28.1920  -20.3468  -14.0698 C   0  0  0  0  0  0  0  0  0  0  0  0
   26.9677  -19.9781  -14.8001 C   0  0  2  0  0  0  0  0  0  0  0  0
   25.7792  -20.7088  -14.5639 N   0  0  0  0  0  0  0  0  0  0  0  0
   27.2593  -20.0952  -16.2623 C   0  0  0  0  0  0  0  0  0  0  0  0
   27.2212  -21.2276  -16.8261 O   0  0  0  0  0  0  0  0  0  0  0  0
   27.5859  -18.9821  -17.0878 N   0  0  0  0  0  0  0  0  0  0  0  0
   27.3456  -19.0679  -18.5354 C   0  0  1  0  0  0  0  0  0  0  0  0
   25.8662  -19.3432  -18.7300 C   0  0  0  0  0  0  0  0  0  0  0  0
   25.6077  -19.5006  -20.1955 C   0  0  0  0  0  0  0  0  0  0  0  0
   24.1202  -19.6549  -20.4915 C   0  0  0  0  0  0  0  0  0  0  0  0
   24.0021  -19.8181  -22.0019 C   0  0  0  0  0  0  0  0  0  0  0  0
   22.6304  -19.9645  -22.4098 N   0  0  0  0  0  0  0  0  0  0  0  0
   27.7511  -17.7910  -19.1578 C   0  0  0  0  0  0  0  0  0  0  0  0
   27.6232  -16.6990  -18.5495 O   0  0  0  0  0  0  0  0  0  0  0  0
   28.2958  -17.7296  -20.4483 O   0  0  0  0  0  0  0  0  0  0  0  0
  2  1  1  1
  3  2  1  0
  4  5  1  0
  4  3  1  0
  5  6  2  0
  7  2  1  0
  7  8  2  0
  9  5  1  0
 10 11  1  0
 11 12  2  0
 11 13  1  0
 14 13  1  1
 14 15  1  0
 15  7  1  0
 16 14  1  0
 17 16  2  0
 18 16  1  0
 19 18  1  0
 19 20  1  1
 20 21  1  0
 21 22  1  0
 22 23  1  0
 23 24  1  0
 25 27  1  0
 25 19  1  0
 26 25  2  0
M  END
$$$$
