ENK.pdb
     RDKit          3D

 27 26  0  0  1  0  0  0  0  0999 V2000
   17.7538  -11.5439  -15.5608 N   0  0  0  0  0  0  0  0  0  0  0  0
   17.3007  -10.1922  -15.2531 C   0  0  1  0  0  0  0  0  0  0  0  0
   15.7641  -10.1705  -15.2853 C   0  0  0  0  0  0  0  0  0  0  0  0
   15.2180  -10.3955  -16.6609 C   0  0  0  0  0  0  0  0  0  0  0  0
   13.7447  -10.4124  -16.7309 C   0  0  0  0  0  0  0  0  0  0  0  0
   13.0718   -9.6113  -17.4378 O   0  0  0  0  0  0  0  0  0  0  0  0
   17.7749   -9.7699  -13.9068 C   0  0  0  0  0  0  0  0  0  0  0  0
   17.8380  -10.5824  -12.9995 O   0  0  0  0  0  0  0  0  0  0  0  0
   13.0432  -11.3534  -15.9857 O   0  0  0  0  0  0  0  0  0  0  0  0
   21.2166   -8.9471  -12.9163 N   0  0  0  0  0  0  0  0  0  0  0  0
   21.0143   -7.5706  -12.7129 C   0  0  0  0  0  0  0  0  0  0  0  0
   22.0678   -6.8444  -12.7853 O   0  0  0  0  0  0  0  0  0  0  0  0
   19.7083   -6.9171  -12.4281 C   0  0  0  0  0  0  0  0  0  0  0  0
   18.6182   -7.9069  -12.4217 C   0  0  2  0  0  0  0  0  0  0  0  0
   18.1597   -8.4334  -13.6524 N   0  0  0  0  0  0  0  0  0  0  0  0
   17.4358   -7.2751  -11.7587 C   0  0  0  0  0  0  0  0  0  0  0  0
   16.7302   -6.4357  -12.3906 O   0  0  0  0  0  0  0  0  0  0  0  0
   17.0385   -7.5654  -10.4228 N   0  0  0  0  0  0  0  0  0  0  0  0
   15.8748   -6.8707   -9.8536 C   0  0  1  0  0  0  0  0  0  0  0  0
   14.9358   -7.9339   -9.3149 C   0  0  0  0  0  0  0  0  0  0  0  0
   13.7551   -7.2490   -8.7016 C   0  0  0  0  0  0  0  0  0  0  0  0
   12.7833   -8.2478   -8.0834 C   0  0  0  0  0  0  0  0  0  0  0  0
   11.6595   -7.4225   -7.4685 C   0  0  0  0  0  0  0  0  0  0  0  0
   10.7123   -8.2556   -6.7772 N   0  0  0  0  0  0  0  0  0  0  0  0
   16.3425   -5.9622   -8.7867 C   0  0  0  0  0  0  0  0  0  0  0  0
   17.4235   -6.1695   -8.1807 O   0  0  0  0  0  0  0  0  0  0  0  0
   15.6124   -4.8304   -8.3971 O   0  0  0  0  0  0  0  0  0  0  0  0
  2  1  1  1
  3  2  1  0
  4  5  1  0
  4  3  1  0
  5  6  2  0
  7  2  1  0
  7  8  2  0
  9  5  1  0
 10 11  1  0
 11 12  2  0
 11 13  1  0
 14 13  1  6
 14 15  1  0
 15  7  1  0
 16 14  1  0
 17 16  2  0
 18 16  1  0
 19 18  1  0
 19 20  1  1
 20 21  1  0
 21 22  1  0
 22 23  1  0
 23 24  1  0
 25 27  1  0
 25 19  1  0
 26 25  2  0
M  END
$$$$
