ENK.pdb
     RDKit          3D

 27 26  0  0  1  0  0  0  0  0999 V2000
   18.5569  -10.7066  -14.0158 N   0  0  0  0  0  0  0  0  0  0  0  0
   17.6095   -9.7765  -14.6194 C   0  0  1  0  0  0  0  0  0  0  0  0
   16.1975  -10.3737  -14.5093 C   0  0  0  0  0  0  0  0  0  0  0  0
   16.1634  -11.8287  -14.8597 C   0  0  0  0  0  0  0  0  0  0  0  0
   14.8151  -12.4261  -14.8295 C   0  0  0  0  0  0  0  0  0  0  0  0
   13.8447  -11.9899  -15.5095 O   0  0  0  0  0  0  0  0  0  0  0  0
   17.6471   -8.4600  -13.9257 C   0  0  0  0  0  0  0  0  0  0  0  0
   16.9408   -7.5450  -14.3146 O   0  0  0  0  0  0  0  0  0  0  0  0
   14.5820  -13.5285  -14.0149 O   0  0  0  0  0  0  0  0  0  0  0  0
   16.3879   -6.2823  -10.5877 N   0  0  0  0  0  0  0  0  0  0  0  0
   17.5751   -6.6992   -9.9603 C   0  0  0  0  0  0  0  0  0  0  0  0
   17.5267   -6.7631   -8.6812 O   0  0  0  0  0  0  0  0  0  0  0  0
   18.8427   -7.0595  -10.6511 C   0  0  0  0  0  0  0  0  0  0  0  0
   18.6698   -7.0262  -12.1130 C   0  0  2  0  0  0  0  0  0  0  0  0
   18.4915   -8.2431  -12.8126 N   0  0  0  0  0  0  0  0  0  0  0  0
   19.8790   -6.3688  -12.6979 C   0  0  0  0  0  0  0  0  0  0  0  0
   21.0280   -6.8555  -12.4865 O   0  0  0  0  0  0  0  0  0  0  0  0
   19.8211   -5.1958  -13.5028 N   0  0  0  0  0  0  0  0  0  0  0  0
   21.0589   -4.6742  -14.1001 C   0  0  1  0  0  0  0  0  0  0  0  0
   21.0514   -5.0678  -15.5654 C   0  0  0  0  0  0  0  0  0  0  0  0
   22.2763   -4.4986  -16.2096 C   0  0  0  0  0  0  0  0  0  0  0  0
   22.2698   -4.7125  -17.7190 C   0  0  0  0  0  0  0  0  0  0  0  0
   22.3462   -6.2190  -17.9351 C   0  0  0  0  0  0  0  0  0  0  0  0
   22.5264   -6.5427  -19.3250 N   0  0  0  0  0  0  0  0  0  0  0  0
   21.0845   -3.2072  -13.9276 C   0  0  0  0  0  0  0  0  0  0  0  0
   20.0263   -2.5519  -13.7554 O   0  0  0  0  0  0  0  0  0  0  0  0
   22.2796   -2.4744  -13.9462 O   0  0  0  0  0  0  0  0  0  0  0  0
  2  1  1  1
  3  2  1  0
  4  5  1  0
  4  3  1  0
  5  6  2  0
  7  2  1  0
  7  8  2  0
  9  5  1  0
 10 11  1  0
 11 12  2  0
 11 13  1  0
 14 13  1  1
 14 15  1  0
 15  7  1  0
 16 14  1  0
 17 16  2  0
 18 16  1  0
 19 18  1  0
 19 20  1  6
 20 21  1  0
 21 22  1  0
 22 23  1  0
 23 24  1  0
 25 27  1  0
 25 19  1  0
 26 25  2  0
M  END
$$$$
