ENK.pdb
     RDKit          3D

 27 26  0  0  1  0  0  0  0  0999 V2000
   24.9754  -18.9881  -15.6433 N   0  0  0  0  0  0  0  0  0  0  0  0
   23.9765  -18.1384  -16.2815 C   0  0  1  0  0  0  0  0  0  0  0  0
   22.6251  -18.8704  -16.2626 C   0  0  0  0  0  0  0  0  0  0  0  0
   22.1983  -19.2469  -14.8780 C   0  0  0  0  0  0  0  0  0  0  0  0
   20.9426  -20.0188  -14.8216 C   0  0  0  0  0  0  0  0  0  0  0  0
   19.8134  -19.4970  -14.6052 O   0  0  0  0  0  0  0  0  0  0  0  0
   23.8487  -16.8417  -15.5616 C   0  0  0  0  0  0  0  0  0  0  0  0
   23.5905  -16.8283  -14.3698 O   0  0  0  0  0  0  0  0  0  0  0  0
   20.9857  -21.3950  -15.0147 O   0  0  0  0  0  0  0  0  0  0  0  0
   26.3376  -15.2260  -14.3962 N   0  0  0  0  0  0  0  0  0  0  0  0
   26.3103  -14.0083  -15.0986 C   0  0  0  0  0  0  0  0  0  0  0  0
   27.4216  -13.3708  -15.1353 O   0  0  0  0  0  0  0  0  0  0  0  0
   25.1234  -13.4246  -15.7800 C   0  0  0  0  0  0  0  0  0  0  0  0
   23.9595  -14.3187  -15.6612 C   0  0  2  0  0  0  0  0  0  0  0  0
   24.0230  -15.6106  -16.2348 N   0  0  0  0  0  0  0  0  0  0  0  0
   22.7910  -13.6280  -16.2889 C   0  0  0  0  0  0  0  0  0  0  0  0
   22.6427  -13.6517  -17.5456 O   0  0  0  0  0  0  0  0  0  0  0  0
   21.8031  -12.9247  -15.5431 N   0  0  0  0  0  0  0  0  0  0  0  0
   20.6840  -12.2904  -16.2545 C   0  0  1  0  0  0  0  0  0  0  0  0
   19.6074  -11.9955  -15.2267 C   0  0  0  0  0  0  0  0  0  0  0  0
   18.3552  -11.6195  -15.9547 C   0  0  0  0  0  0  0  0  0  0  0  0
   17.1983  -11.3708  -14.9936 C   0  0  0  0  0  0  0  0  0  0  0  0
   15.9939  -11.0215  -15.8595 C   0  0  0  0  0  0  0  0  0  0  0  0
   14.8731  -10.6062  -15.0592 N   0  0  0  0  0  0  0  0  0  0  0  0
   21.1748  -11.0568  -16.9023 C   0  0  0  0  0  0  0  0  0  0  0  0
   22.0129  -10.3114  -16.3359 O   0  0  0  0  0  0  0  0  0  0  0  0
   20.7363  -10.6555  -18.1721 O   0  0  0  0  0  0  0  0  0  0  0  0
  2  1  1  1
  3  2  1  0
  4  5  1  0
  4  3  1  0
  5  6  2  0
  7  2  1  0
  7  8  2  0
  9  5  1  0
 10 11  1  0
 11 12  2  0
 11 13  1  0
 14 13  1  6
 14 15  1  0
 15  7  1  0
 16 14  1  0
 17 16  2  0
 18 16  1  0
 19 18  1  0
 19 20  1  1
 20 21  1  0
 21 22  1  0
 22 23  1  0
 23 24  1  0
 25 27  1  0
 25 19  1  0
 26 25  2  0
M  END
$$$$
