ENK.pdb
     RDKit          3D

 27 26  0  0  1  0  0  0  0  0999 V2000
   13.0945  -11.8690  -11.6413 N   0  0  0  0  0  0  0  0  0  0  0  0
   14.4659  -11.4142  -11.4429 C   0  0  1  0  0  0  0  0  0  0  0  0
   15.2834  -11.7575  -12.6984 C   0  0  0  0  0  0  0  0  0  0  0  0
   15.4542  -13.2332  -12.8834 C   0  0  0  0  0  0  0  0  0  0  0  0
   16.3937  -13.6027  -13.9589 C   0  0  0  0  0  0  0  0  0  0  0  0
   16.2805  -13.2018  -15.1508 O   0  0  0  0  0  0  0  0  0  0  0  0
   14.5065   -9.9444  -11.2108 C   0  0  0  0  0  0  0  0  0  0  0  0
   13.6997   -9.2167  -11.7647 O   0  0  0  0  0  0  0  0  0  0  0  0
   17.4666  -14.4358  -13.6625 O   0  0  0  0  0  0  0  0  0  0  0  0
   15.6794   -5.1848   -9.6061 N   0  0  0  0  0  0  0  0  0  0  0  0
   16.0769   -6.0927   -8.6088 C   0  0  0  0  0  0  0  0  0  0  0  0
   16.4517   -5.5640   -7.5031 O   0  0  0  0  0  0  0  0  0  0  0  0
   16.0940   -7.5748   -8.7397 C   0  0  0  0  0  0  0  0  0  0  0  0
   15.6335   -7.9874  -10.0760 C   0  0  2  0  0  0  0  0  0  0  0  0
   15.4690   -9.3654  -10.3520 N   0  0  0  0  0  0  0  0  0  0  0  0
   16.6152   -7.4643  -11.0756 C   0  0  0  0  0  0  0  0  0  0  0  0
   17.8285   -7.8192  -11.0159 O   0  0  0  0  0  0  0  0  0  0  0  0
   16.2639   -6.5664  -12.1232 N   0  0  0  0  0  0  0  0  0  0  0  0
   17.2911   -6.1578  -13.0921 C   0  0  1  0  0  0  0  0  0  0  0  0
   16.7482   -6.4590  -14.4766 C   0  0  0  0  0  0  0  0  0  0  0  0
   17.7406   -7.3211  -15.1917 C   0  0  0  0  0  0  0  0  0  0  0  0
   17.3042   -7.6136  -16.6228 C   0  0  0  0  0  0  0  0  0  0  0  0
   18.3349   -8.5809  -17.1921 C   0  0  0  0  0  0  0  0  0  0  0  0
   17.9311   -9.0834  -18.4780 N   0  0  0  0  0  0  0  0  0  0  0  0
   17.5632   -4.7170  -12.9125 C   0  0  0  0  0  0  0  0  0  0  0  0
   16.7225   -3.9570  -12.3696 O   0  0  0  0  0  0  0  0  0  0  0  0
   18.7627   -4.1258  -13.3335 O   0  0  0  0  0  0  0  0  0  0  0  0
  2  1  1  6
  3  2  1  0
  4  5  1  0
  4  3  1  0
  5  6  2  0
  7  2  1  0
  7  8  2  0
  9  5  1  0
 10 11  1  0
 11 12  2  0
 11 13  1  0
 14 13  1  1
 14 15  1  0
 15  7  1  0
 16 14  1  0
 17 16  2  0
 18 16  1  0
 19 18  1  0
 19 20  1  6
 20 21  1  0
 21 22  1  0
 22 23  1  0
 23 24  1  0
 25 27  1  0
 25 19  1  0
 26 25  2  0
M  END
$$$$
