ENK.pdb
     RDKit          3D

 27 26  0  0  1  0  0  0  0  0999 V2000
   13.5706  -17.7878    4.2492 N   0  0  0  0  0  0  0  0  0  0  0  0
   14.3819  -18.7606    4.9720 C   0  0  1  0  0  0  0  0  0  0  0  0
   15.4377  -19.3300    4.0108 C   0  0  0  0  0  0  0  0  0  0  0  0
   14.8259  -20.0859    2.8726 C   0  0  0  0  0  0  0  0  0  0  0  0
   15.7871  -20.4890    1.8289 C   0  0  0  0  0  0  0  0  0  0  0  0
   17.0223  -20.2329    1.8832 O   0  0  0  0  0  0  0  0  0  0  0  0
   15.0606  -18.1233    6.1335 C   0  0  0  0  0  0  0  0  0  0  0  0
   14.9063  -16.9337    6.3529 O   0  0  0  0  0  0  0  0  0  0  0  0
   15.3263  -21.1887    0.7194 O   0  0  0  0  0  0  0  0  0  0  0  0
   15.3102  -21.1970   10.2493 N   0  0  0  0  0  0  0  0  0  0  0  0
   15.6395  -19.8594    9.9674 C   0  0  0  0  0  0  0  0  0  0  0  0
   14.8024  -18.9868   10.3920 O   0  0  0  0  0  0  0  0  0  0  0  0
   16.8499  -19.3984    9.2350 C   0  0  0  0  0  0  0  0  0  0  0  0
   16.4912  -18.4186    8.1960 C   0  0  2  0  0  0  0  0  0  0  0  0
   15.8886  -18.8741    6.9995 N   0  0  0  0  0  0  0  0  0  0  0  0
   17.7414  -17.6998    7.7995 C   0  0  0  0  0  0  0  0  0  0  0  0
   18.4195  -18.1081    6.8120 O   0  0  0  0  0  0  0  0  0  0  0  0
   18.2336  -16.5502    8.4800 N   0  0  0  0  0  0  0  0  0  0  0  0
   19.4731  -15.9147    8.0103 C   0  0  1  0  0  0  0  0  0  0  0  0
   19.2810  -14.4141    8.1268 C   0  0  0  0  0  0  0  0  0  0  0  0
   20.5313  -13.7435    7.6509 C   0  0  0  0  0  0  0  0  0  0  0  0
   20.4026  -12.2248    7.6826 C   0  0  0  0  0  0  0  0  0  0  0  0
   21.7238  -11.6753    7.1587 C   0  0  0  0  0  0  0  0  0  0  0  0
   21.7875  -10.2442    7.2897 N   0  0  0  0  0  0  0  0  0  0  0  0
   20.5938  -16.3897    8.8475 C   0  0  0  0  0  0  0  0  0  0  0  0
   21.7782  -16.3628    8.4287 O   0  0  0  0  0  0  0  0  0  0  0  0
   20.3979  -16.8907   10.1422 O   0  0  0  0  0  0  0  0  0  0  0  0
  2  1  1  6
  3  2  1  0
  4  5  1  0
  4  3  1  0
  5  6  2  0
  7  2  1  0
  7  8  2  0
  9  5  1  0
 10 11  1  0
 11 12  2  0
 11 13  1  0
 14 13  1  1
 14 15  1  0
 15  7  1  0
 16 14  1  0
 17 16  2  0
 18 16  1  0
 19 18  1  0
 19 20  1  1
 20 21  1  0
 21 22  1  0
 22 23  1  0
 23 24  1  0
 25 27  1  0
 25 19  1  0
 26 25  2  0
M  END
$$$$
