ENK.pdb
     RDKit          3D

 27 26  0  0  1  0  0  0  0  0999 V2000
   20.1957  -27.3560  -12.3063 N   0  0  0  0  0  0  0  0  0  0  0  0
   19.9288  -26.0940  -11.6256 C   0  0  1  0  0  0  0  0  0  0  0  0
   19.6789  -25.0085  -12.6847 C   0  0  0  0  0  0  0  0  0  0  0  0
   20.9048  -24.6988  -13.4861 C   0  0  0  0  0  0  0  0  0  0  0  0
   20.7178  -23.6341  -14.4897 C   0  0  0  0  0  0  0  0  0  0  0  0
   20.5113  -22.4246  -14.1918 O   0  0  0  0  0  0  0  0  0  0  0  0
   18.7351  -26.2117  -10.7441 C   0  0  0  0  0  0  0  0  0  0  0  0
   17.6879  -26.6493  -11.1903 O   0  0  0  0  0  0  0  0  0  0  0  0
   20.7683  -23.9614  -15.8400 O   0  0  0  0  0  0  0  0  0  0  0  0
   18.7652  -24.1665   -5.5601 N   0  0  0  0  0  0  0  0  0  0  0  0
   19.0437  -25.1461   -6.5296 C   0  0  0  0  0  0  0  0  0  0  0  0
   20.2312  -25.1198   -7.0110 O   0  0  0  0  0  0  0  0  0  0  0  0
   18.0906  -26.1772   -7.0219 C   0  0  0  0  0  0  0  0  0  0  0  0
   17.7469  -25.9403   -8.4339 C   0  0  2  0  0  0  0  0  0  0  0  0
   18.7877  -25.8244   -9.3853 N   0  0  0  0  0  0  0  0  0  0  0  0
   16.9603  -24.6701   -8.5023 C   0  0  0  0  0  0  0  0  0  0  0  0
   17.3423  -23.7297   -9.2581 O   0  0  0  0  0  0  0  0  0  0  0  0
   15.7727  -24.4424   -7.7508 N   0  0  0  0  0  0  0  0  0  0  0  0
   14.8630  -23.3617   -8.1573 C   0  0  1  0  0  0  0  0  0  0  0  0
   14.4007  -23.6705   -9.5691 C   0  0  0  0  0  0  0  0  0  0  0  0
   13.4821  -22.5751  -10.0113 C   0  0  0  0  0  0  0  0  0  0  0  0
   12.9868  -22.7965  -11.4360 C   0  0  0  0  0  0  0  0  0  0  0  0
   12.6494  -21.4168  -11.9879 C   0  0  0  0  0  0  0  0  0  0  0  0
   12.1067  -21.5001  -13.3175 N   0  0  0  0  0  0  0  0  0  0  0  0
   13.7314  -23.3153   -7.2087 C   0  0  0  0  0  0  0  0  0  0  0  0
   13.2168  -24.3680   -6.7549 O   0  0  0  0  0  0  0  0  0  0  0  0
   13.1764  -22.1057   -6.7677 O   0  0  0  0  0  0  0  0  0  0  0  0
  2  1  1  6
  3  2  1  0
  4  5  1  0
  4  3  1  0
  5  6  2  0
  7  2  1  0
  7  8  2  0
  9  5  1  0
 10 11  1  0
 11 12  2  0
 11 13  1  0
 14 13  1  1
 14 15  1  0
 15  7  1  0
 16 14  1  0
 17 16  2  0
 18 16  1  0
 19 18  1  0
 19 20  1  6
 20 21  1  0
 21 22  1  0
 22 23  1  0
 23 24  1  0
 25 27  1  0
 25 19  1  0
 26 25  2  0
M  END
$$$$
