ENK.pdb
     RDKit          3D

 27 26  0  0  1  0  0  0  0  0999 V2000
   19.3540  -13.9944  -16.3035 N   0  0  0  0  0  0  0  0  0  0  0  0
   19.6903  -12.7944  -17.0611 C   0  0  1  0  0  0  0  0  0  0  0  0
   18.8466  -12.7725  -18.3458 C   0  0  0  0  0  0  0  0  0  0  0  0
   19.0758  -13.9799  -19.2006 C   0  0  0  0  0  0  0  0  0  0  0  0
   18.3202  -13.9755  -20.4675 C   0  0  0  0  0  0  0  0  0  0  0  0
   17.2316  -14.5939  -20.6313 O   0  0  0  0  0  0  0  0  0  0  0  0
   19.4101  -11.5698  -16.2624 C   0  0  0  0  0  0  0  0  0  0  0  0
   18.3200  -11.4206  -15.7364 O   0  0  0  0  0  0  0  0  0  0  0  0
   18.8182  -13.2579  -21.5492 O   0  0  0  0  0  0  0  0  0  0  0  0
   19.5564   -8.0078  -12.9112 N   0  0  0  0  0  0  0  0  0  0  0  0
   20.8904   -8.3932  -13.1324 C   0  0  0  0  0  0  0  0  0  0  0  0
   21.7199   -8.0495  -12.2178 O   0  0  0  0  0  0  0  0  0  0  0  0
   21.3930   -9.1462  -14.3132 C   0  0  0  0  0  0  0  0  0  0  0  0
   20.2996   -9.4278  -15.2583 C   0  0  2  0  0  0  0  0  0  0  0  0
   20.3901  -10.5643  -16.0963 N   0  0  0  0  0  0  0  0  0  0  0  0
   20.1612   -8.2415  -16.1584 C   0  0  0  0  0  0  0  0  0  0  0  0
   20.9705   -8.0775  -17.1175 O   0  0  0  0  0  0  0  0  0  0  0  0
   19.1470   -7.2544  -16.0035 N   0  0  0  0  0  0  0  0  0  0  0  0
   19.1272   -6.0980  -16.9108 C   0  0  1  0  0  0  0  0  0  0  0  0
   17.7087   -5.5594  -16.9218 C   0  0  0  0  0  0  0  0  0  0  0  0
   16.8649   -6.4790  -17.7474 C   0  0  0  0  0  0  0  0  0  0  0  0
   15.3907   -6.0952  -17.6887 C   0  0  0  0  0  0  0  0  0  0  0  0
   14.6509   -7.1179  -18.5424 C   0  0  0  0  0  0  0  0  0  0  0  0
   13.2253   -6.9906  -18.3988 N   0  0  0  0  0  0  0  0  0  0  0  0
   20.0903   -5.0930  -16.4159 C   0  0  0  0  0  0  0  0  0  0  0  0
   19.9317   -4.5295  -15.3040 O   0  0  0  0  0  0  0  0  0  0  0  0
   21.2225   -4.7181  -17.1529 O   0  0  0  0  0  0  0  0  0  0  0  0
  2  1  1  1
  3  2  1  0
  4  5  1  0
  4  3  1  0
  5  6  2  0
  7  2  1  0
  7  8  2  0
  9  5  1  0
 10 11  1  0
 11 12  2  0
 11 13  1  0
 14 13  1  6
 14 15  1  0
 15  7  1  0
 16 14  1  0
 17 16  2  0
 18 16  1  0
 19 18  1  0
 19 20  1  1
 20 21  1  0
 21 22  1  0
 22 23  1  0
 23 24  1  0
 25 27  1  0
 25 19  1  0
 26 25  2  0
M  END
$$$$
