ENK.pdb
     RDKit          3D

 27 26  0  0  1  0  0  0  0  0999 V2000
   19.6818  -10.6528  -16.9819 N   0  0  0  0  0  0  0  0  0  0  0  0
   20.6256   -9.6086  -17.3638 C   0  0  1  0  0  0  0  0  0  0  0  0
   20.3816   -9.2411  -18.8363 C   0  0  0  0  0  0  0  0  0  0  0  0
   18.9292   -9.2645  -19.1980 C   0  0  0  0  0  0  0  0  0  0  0  0
   18.6477   -8.8776  -20.5933 C   0  0  0  0  0  0  0  0  0  0  0  0
   18.5167   -7.6799  -20.9711 O   0  0  0  0  0  0  0  0  0  0  0  0
   20.4472   -8.3992  -16.5144 C   0  0  0  0  0  0  0  0  0  0  0  0
   19.3285   -8.0505  -16.1765 O   0  0  0  0  0  0  0  0  0  0  0  0
   18.5165   -9.8710  -21.5570 O   0  0  0  0  0  0  0  0  0  0  0  0
   21.9550   -4.6831  -12.5221 N   0  0  0  0  0  0  0  0  0  0  0  0
   22.4789   -4.7777  -13.8234 C   0  0  0  0  0  0  0  0  0  0  0  0
   22.7586   -3.6602  -14.3852 O   0  0  0  0  0  0  0  0  0  0  0  0
   22.7238   -6.0402  -14.5719 C   0  0  0  0  0  0  0  0  0  0  0  0
   21.5192   -6.4519  -15.3117 C   0  0  2  0  0  0  0  0  0  0  0  0
   21.5575   -7.6370  -16.0838 N   0  0  0  0  0  0  0  0  0  0  0  0
   21.1604   -5.3420  -16.2477 C   0  0  0  0  0  0  0  0  0  0  0  0
   21.8137   -5.1828  -17.3199 O   0  0  0  0  0  0  0  0  0  0  0  0
   20.0987   -4.4249  -16.0053 N   0  0  0  0  0  0  0  0  0  0  0  0
   19.7654   -3.4262  -17.0312 C   0  0  1  0  0  0  0  0  0  0  0  0
   18.2824   -3.5593  -17.3230 C   0  0  0  0  0  0  0  0  0  0  0  0
   17.9077   -2.5174  -18.3296 C   0  0  0  0  0  0  0  0  0  0  0  0
   16.4406   -2.6232  -18.7301 C   0  0  0  0  0  0  0  0  0  0  0  0
   16.1926   -1.5052  -19.7353 C   0  0  0  0  0  0  0  0  0  0  0  0
   14.8712   -1.5867  -20.2978 N   0  0  0  0  0  0  0  0  0  0  0  0
   20.1028   -2.0851  -16.5117 C   0  0  0  0  0  0  0  0  0  0  0  0
   19.8519   -1.7636  -15.3232 O   0  0  0  0  0  0  0  0  0  0  0  0
   20.7157   -1.1083  -17.3093 O   0  0  0  0  0  0  0  0  0  0  0  0
  2  1  1  1
  3  2  1  0
  4  5  1  0
  4  3  1  0
  5  6  2  0
  7  2  1  0
  7  8  2  0
  9  5  1  0
 10 11  1  0
 11 12  2  0
 11 13  1  0
 14 13  1  6
 14 15  1  0
 15  7  1  0
 16 14  1  0
 17 16  2  0
 18 16  1  0
 19 18  1  0
 19 20  1  1
 20 21  1  0
 21 22  1  0
 22 23  1  0
 23 24  1  0
 25 27  1  0
 25 19  1  0
 26 25  2  0
M  END
$$$$
