ENK.pdb
     RDKit          3D

 27 26  0  0  1  0  0  0  0  0999 V2000
   28.2212  -19.7750  -17.3700 N   0  0  0  0  0  0  0  0  0  0  0  0
   27.4514  -19.0594  -16.3589 C   0  0  1  0  0  0  0  0  0  0  0  0
   26.3982  -18.1920  -17.0668 C   0  0  0  0  0  0  0  0  0  0  0  0
   25.6081  -18.9634  -18.0776 C   0  0  0  0  0  0  0  0  0  0  0  0
   24.7292  -18.1312  -18.9205 C   0  0  0  0  0  0  0  0  0  0  0  0
   23.9712  -18.6021  -19.8139 O   0  0  0  0  0  0  0  0  0  0  0  0
   26.7724  -20.0129  -15.4393 C   0  0  0  0  0  0  0  0  0  0  0  0
   26.5411  -21.1531  -15.8047 O   0  0  0  0  0  0  0  0  0  0  0  0
   24.7218  -16.7533  -18.7356 O   0  0  0  0  0  0  0  0  0  0  0  0
   24.9145  -22.3933  -11.2721 N   0  0  0  0  0  0  0  0  0  0  0  0
   25.4772  -21.1786  -10.8423 C   0  0  0  0  0  0  0  0  0  0  0  0
   25.5610  -21.0315   -9.5719 O   0  0  0  0  0  0  0  0  0  0  0  0
   25.9660  -20.0864  -11.7267 C   0  0  0  0  0  0  0  0  0  0  0  0
   25.8082  -20.4510  -13.1446 C   0  0  2  0  0  0  0  0  0  0  0  0
   26.3859  -19.6234  -14.1362 N   0  0  0  0  0  0  0  0  0  0  0  0
   24.3427  -20.5112  -13.4370 C   0  0  0  0  0  0  0  0  0  0  0  0
   23.6781  -19.4413  -13.5608 O   0  0  0  0  0  0  0  0  0  0  0  0
   23.6239  -21.7303  -13.5912 N   0  0  0  0  0  0  0  0  0  0  0  0
   22.1771  -21.6824  -13.8471 C   0  0  1  0  0  0  0  0  0  0  0  0
   21.7451  -23.0804  -14.2488 C   0  0  0  0  0  0  0  0  0  0  0  0
   20.2716  -23.0587  -14.5090 C   0  0  0  0  0  0  0  0  0  0  0  0
   19.7179  -24.4621  -14.7278 C   0  0  0  0  0  0  0  0  0  0  0  0
   18.2295  -24.2929  -15.0076 C   0  0  0  0  0  0  0  0  0  0  0  0
   17.5897  -25.5607  -15.2369 N   0  0  0  0  0  0  0  0  0  0  0  0
   21.4948  -21.2310  -12.6170 C   0  0  0  0  0  0  0  0  0  0  0  0
   21.9539  -21.5022  -11.4792 O   0  0  0  0  0  0  0  0  0  0  0  0
   20.3099  -20.4824  -12.6528 O   0  0  0  0  0  0  0  0  0  0  0  0
  2  1  1  6
  3  2  1  0
  4  5  1  0
  4  3  1  0
  5  6  2  0
  7  2  1  0
  7  8  2  0
  9  5  1  0
 10 11  1  0
 11 12  2  0
 11 13  1  0
 14 13  1  1
 14 15  1  0
 15  7  1  0
 16 14  1  0
 17 16  2  0
 18 16  1  0
 19 18  1  0
 19 20  1  1
 20 21  1  0
 21 22  1  0
 22 23  1  0
 23 24  1  0
 25 27  1  0
 25 19  1  0
 26 25  2  0
M  END
$$$$
