PQN.pdb
     RDKit          3D

 25 25  0  0  1  0  0  0  0  0999 V2000
    9.2352  -13.6424   18.0368 N   0  0  0  0  0  0  0  0  0  0  0  0
    7.8281  -13.8675   17.7677 C   0  0  0  0  0  0  0  0  0  0  0  0
    7.0398  -13.0938   18.8007 C   0  0  0  0  0  0  0  0  0  0  0  0
    8.0794  -12.3792   19.6544 C   0  0  0  0  0  0  0  0  0  0  0  0
    9.3696  -13.1153   19.3530 C   0  0  1  0  0  0  0  0  0  0  0  0
    9.5181  -14.1821   20.3947 C   0  0  0  0  0  0  0  0  0  0  0  0
    9.2961  -13.8594   21.5677 O   0  0  0  0  0  0  0  0  0  0  0  0
    8.5089  -20.2773   19.4208 N   0  0  0  0  0  0  0  0  0  0  0  0
    7.7626  -19.0872   19.2514 C   0  0  0  0  0  0  0  0  0  0  0  0
    6.6660  -19.1637   18.6406 O   0  0  0  0  0  0  0  0  0  0  0  0
    8.2256  -17.7652   19.7659 C   0  0  0  0  0  0  0  0  0  0  0  0
    9.5951  -17.9233   20.3798 C   0  0  0  0  0  0  0  0  0  0  0  0
   10.1703  -16.6000   20.8583 C   0  0  2  0  0  0  0  0  0  0  0  0
    9.8973  -15.4846   20.0194 N   0  0  0  0  0  0  0  0  0  0  0  0
   11.5445  -16.6851   21.3457 C   0  0  0  0  0  0  0  0  0  0  0  0
   11.9874  -17.6696   22.0101 O   0  0  0  0  0  0  0  0  0  0  0  0
   14.1513  -15.9663   18.9149 N   0  0  0  0  0  0  0  0  0  0  0  0
   14.6977  -14.7769   19.4489 C   0  0  0  0  0  0  0  0  0  0  0  0
   15.2087  -13.9218   18.7004 O   0  0  0  0  0  0  0  0  0  0  0  0
   14.6547  -14.5525   20.9245 C   0  0  0  0  0  0  0  0  0  0  0  0
   13.8690  -15.6997   21.5530 C   0  0  2  0  0  0  0  0  0  0  0  0
   12.4966  -15.6403   21.1001 N   0  0  0  0  0  0  0  0  0  0  0  0
   13.8938  -15.4968   23.0136 C   0  0  0  0  0  0  0  0  0  0  0  0
   15.1024  -15.5921   23.7076 O   0  0  0  0  0  0  0  0  0  0  0  0
   12.8485  -15.2414   23.6483 O   0  0  0  0  0  0  0  0  0  0  0  0
  1  2  1  0
  3  2  1  0
  4  5  1  0
  4  3  1  0
  5  6  1  1
  5  1  1  0
  6  7  2  0
  9 11  1  0
  9  8  1  0
 10  9  2  0
 13 12  1  6
 12 11  1  0
 14 13  1  0
 14  6  1  0
 15 22  1  0
 15 13  1  0
 16 15  2  0
 17 18  1  0
 18 20  1  0
 19 18  2  0
 21 22  1  0
 21 20  1  6
 23 21  1  0
 24 23  1  0
 25 23  2  0
M  END
$$$$
