PQN.pdb
     RDKit          3D

 25 25  0  0  1  0  0  0  0  0999 V2000
    8.5604  -14.4465   17.5334 N   0  0  0  0  0  0  0  0  0  0  0  0
    7.1604  -14.0955   17.6732 C   0  0  0  0  0  0  0  0  0  0  0  0
    7.0397  -13.1831   18.8733 C   0  0  0  0  0  0  0  0  0  0  0  0
    8.4608  -13.0001   19.3898 C   0  0  0  0  0  0  0  0  0  0  0  0
    9.2323  -14.1374   18.7505 C   0  0  1  0  0  0  0  0  0  0  0  0
    9.2224  -15.2751   19.7258 C   0  0  0  0  0  0  0  0  0  0  0  0
    8.6672  -15.0803   20.8135 O   0  0  0  0  0  0  0  0  0  0  0  0
   12.2621  -19.5374   16.9896 N   0  0  0  0  0  0  0  0  0  0  0  0
   11.8287  -20.2457   18.1352 C   0  0  0  0  0  0  0  0  0  0  0  0
   11.7823  -21.5006   18.0671 O   0  0  0  0  0  0  0  0  0  0  0  0
   11.4318  -19.5643   19.4021 C   0  0  0  0  0  0  0  0  0  0  0  0
   11.7343  -18.0900   19.2886 C   0  0  0  0  0  0  0  0  0  0  0  0
   10.7917  -17.2406   20.1259 C   0  0  2  0  0  0  0  0  0  0  0  0
    9.8300  -16.4985   19.3864 N   0  0  0  0  0  0  0  0  0  0  0  0
   11.4468  -16.5029   21.2029 C   0  0  0  0  0  0  0  0  0  0  0  0
   11.8441  -15.3050   21.0844 O   0  0  0  0  0  0  0  0  0  0  0  0
    9.4052  -16.9546   24.4228 N   0  0  0  0  0  0  0  0  0  0  0  0
   10.4904  -16.1984   24.9219 C   0  0  0  0  0  0  0  0  0  0  0  0
   10.3065  -15.0596   25.3930 O   0  0  0  0  0  0  0  0  0  0  0  0
   11.8649  -16.7803   24.8813 C   0  0  0  0  0  0  0  0  0  0  0  0
   12.4725  -16.4596   23.5189 C   0  0  2  0  0  0  0  0  0  0  0  0
   11.6874  -17.0987   22.4857 N   0  0  0  0  0  0  0  0  0  0  0  0
   13.8318  -17.0318   23.5016 C   0  0  0  0  0  0  0  0  0  0  0  0
   14.8195  -16.5006   24.3343 O   0  0  0  0  0  0  0  0  0  0  0  0
   14.1209  -17.9877   22.7510 O   0  0  0  0  0  0  0  0  0  0  0  0
  1  2  1  0
  3  2  1  0
  4  5  1  0
  4  3  1  0
  5  6  1  1
  5  1  1  0
  6  7  2  0
  9 11  1  0
  9  8  1  0
 10  9  2  0
 13 12  1  6
 12 11  1  0
 14 13  1  0
 14  6  1  0
 15 22  1  0
 15 13  1  0
 16 15  2  0
 17 18  1  0
 18 20  1  0
 19 18  2  0
 21 22  1  0
 21 20  1  1
 23 21  1  0
 24 23  1  0
 25 23  2  0
M  END
$$$$
