PQN.pdb
     RDKit          3D

 25 25  0  0  1  0  0  0  0  0999 V2000
    8.5111  -15.0768   19.3680 N   0  0  0  0  0  0  0  0  0  0  0  0
    7.2882  -14.9393   18.6008 C   0  0  0  0  0  0  0  0  0  0  0  0
    6.8120  -13.5126   18.7591 C   0  0  0  0  0  0  0  0  0  0  0  0
    7.8572  -12.8293   19.6312 C   0  0  0  0  0  0  0  0  0  0  0  0
    8.6098  -13.9793   20.2703 C   0  0  1  0  0  0  0  0  0  0  0  0
    7.9548  -14.2506   21.5904 C   0  0  0  0  0  0  0  0  0  0  0  0
    7.6559  -13.2709   22.2833 O   0  0  0  0  0  0  0  0  0  0  0  0
    5.6410  -20.0164   23.1814 N   0  0  0  0  0  0  0  0  0  0  0  0
    7.0249  -19.8402   22.9452 C   0  0  0  0  0  0  0  0  0  0  0  0
    7.7141  -20.8634   22.7014 O   0  0  0  0  0  0  0  0  0  0  0  0
    7.6837  -18.5015   22.9744 C   0  0  0  0  0  0  0  0  0  0  0  0
    6.6428  -17.4417   23.2413 C   0  0  0  0  0  0  0  0  0  0  0  0
    7.2337  -16.0411   23.2519 C   0  0  2  0  0  0  0  0  0  0  0  0
    7.7069  -15.5761   21.9941 N   0  0  0  0  0  0  0  0  0  0  0  0
    8.1179  -15.7722   24.3828 C   0  0  0  0  0  0  0  0  0  0  0  0
    9.3636  -16.0065   24.3631 O   0  0  0  0  0  0  0  0  0  0  0  0
    7.7677  -12.5463   25.6562 N   0  0  0  0  0  0  0  0  0  0  0  0
    7.3215  -12.7463   26.9826 C   0  0  0  0  0  0  0  0  0  0  0  0
    6.6120  -11.8927   27.5487 O   0  0  0  0  0  0  0  0  0  0  0  0
    7.7080  -13.9967   27.7015 C   0  0  0  0  0  0  0  0  0  0  0  0
    8.4793  -14.8816   26.7267 C   0  0  2  0  0  0  0  0  0  0  0  0
    7.6234  -15.2174   25.6100 N   0  0  0  0  0  0  0  0  0  0  0  0
    8.8274  -16.1219   27.4449 C   0  0  0  0  0  0  0  0  0  0  0  0
    9.7727  -16.0872   28.4727 O   0  0  0  0  0  0  0  0  0  0  0  0
    8.2917  -17.2113   27.1501 O   0  0  0  0  0  0  0  0  0  0  0  0
  1  2  1  0
  3  2  1  0
  4  5  1  0
  4  3  1  0
  5  6  1  1
  5  1  1  0
  6  7  2  0
  9 11  1  0
  9  8  1  0
 10  9  2  0
 13 12  1  6
 12 11  1  0
 14 13  1  0
 14  6  1  0
 15 22  1  0
 15 13  1  0
 16 15  2  0
 17 18  1  0
 18 20  1  0
 19 18  2  0
 21 22  1  0
 21 20  1  1
 23 21  1  0
 24 23  1  0
 25 23  2  0
M  END
$$$$
