PQN.pdb
     RDKit          3D

 25 25  0  0  1  0  0  0  0  0999 V2000
    7.2391  -14.6902   20.5523 N   0  0  0  0  0  0  0  0  0  0  0  0
    6.8931  -13.3116   20.2647 C   0  0  0  0  0  0  0  0  0  0  0  0
    7.9587  -12.7594   19.3445 C   0  0  0  0  0  0  0  0  0  0  0  0
    8.9157  -13.9167   19.0898 C   0  0  0  0  0  0  0  0  0  0  0  0
    8.6021  -14.9021   20.1978 C   0  0  1  0  0  0  0  0  0  0  0  0
    9.5481  -14.6107   21.3229 C   0  0  0  0  0  0  0  0  0  0  0  0
   10.7527  -14.7878   21.1067 O   0  0  0  0  0  0  0  0  0  0  0  0
    6.1685  -14.8485   26.6965 N   0  0  0  0  0  0  0  0  0  0  0  0
    6.1377  -13.7124   25.8537 C   0  0  0  0  0  0  0  0  0  0  0  0
    5.5036  -12.7023   26.2526 O   0  0  0  0  0  0  0  0  0  0  0  0
    6.8222  -13.6731   24.5282 C   0  0  0  0  0  0  0  0  0  0  0  0
    7.4530  -15.0167   24.2553 C   0  0  0  0  0  0  0  0  0  0  0  0
    8.8871  -14.8932   23.7661 C   0  0  2  0  0  0  0  0  0  0  0  0
    9.0523  -14.1581   22.5600 N   0  0  0  0  0  0  0  0  0  0  0  0
    9.6559  -16.1325   23.8449 C   0  0  0  0  0  0  0  0  0  0  0  0
    9.3879  -17.0670   24.6583 O   0  0  0  0  0  0  0  0  0  0  0  0
   10.5496  -19.5026   21.4158 N   0  0  0  0  0  0  0  0  0  0  0  0
   11.3127  -18.4016   20.9639 C   0  0  0  0  0  0  0  0  0  0  0  0
   11.1158  -17.9144   19.8341 O   0  0  0  0  0  0  0  0  0  0  0  0
   12.3599  -17.8238   21.8578 C   0  0  0  0  0  0  0  0  0  0  0  0
   11.7023  -17.4742   23.1895 C   0  0  2  0  0  0  0  0  0  0  0  0
   10.7841  -16.3741   22.9922 N   0  0  0  0  0  0  0  0  0  0  0  0
   12.7739  -17.0371   24.1038 C   0  0  0  0  0  0  0  0  0  0  0  0
   12.8036  -15.7164   24.5580 O   0  0  0  0  0  0  0  0  0  0  0  0
   13.6633  -17.8286   24.4821 O   0  0  0  0  0  0  0  0  0  0  0  0
  1  2  1  0
  3  2  1  0
  4  5  1  0
  4  3  1  0
  5  6  1  1
  5  1  1  0
  6  7  2  0
  9 11  1  0
  9  8  1  0
 10  9  2  0
 13 12  1  6
 12 11  1  0
 14 13  1  0
 14  6  1  0
 15 22  1  0
 15 13  1  0
 16 15  2  0
 17 18  1  0
 18 20  1  0
 19 18  2  0
 21 22  1  0
 21 20  1  6
 23 21  1  0
 24 23  1  0
 25 23  2  0
M  END
$$$$
