PQN.pdb
     RDKit          3D

 25 25  0  0  1  0  0  0  0  0999 V2000
    8.3003  -15.1099   19.4007 N   0  0  0  0  0  0  0  0  0  0  0  0
    6.9152  -14.7442   19.1758 C   0  0  0  0  0  0  0  0  0  0  0  0
    6.8068  -13.2466   19.3568 C   0  0  0  0  0  0  0  0  0  0  0  0
    8.2214  -12.7701   19.6601 C   0  0  0  0  0  0  0  0  0  0  0  0
    8.9546  -14.0333   20.0649 C   0  0  1  0  0  0  0  0  0  0  0  0
    8.8664  -14.1308   21.5576 C   0  0  0  0  0  0  0  0  0  0  0  0
    9.2415  -13.1494   22.2098 O   0  0  0  0  0  0  0  0  0  0  0  0
    5.3224  -18.4446   24.6650 N   0  0  0  0  0  0  0  0  0  0  0  0
    5.4584  -18.1336   23.2913 C   0  0  0  0  0  0  0  0  0  0  0  0
    4.7172  -18.7395   22.4759 O   0  0  0  0  0  0  0  0  0  0  0  0
    6.4360  -17.1258   22.7859 C   0  0  0  0  0  0  0  0  0  0  0  0
    7.1009  -16.4474   23.9587 C   0  0  0  0  0  0  0  0  0  0  0  0
    8.3114  -15.6276   23.5420 C   0  0  2  0  0  0  0  0  0  0  0  0
    8.3745  -15.3048   22.1585 N   0  0  0  0  0  0  0  0  0  0  0  0
    9.5706  -16.0769   24.1300 C   0  0  0  0  0  0  0  0  0  0  0  0
    9.7517  -16.1969   25.3788 O   0  0  0  0  0  0  0  0  0  0  0  0
   10.4935  -19.9015   23.2636 N   0  0  0  0  0  0  0  0  0  0  0  0
   11.3928  -19.1559   24.0598 C   0  0  0  0  0  0  0  0  0  0  0  0
   11.4038  -19.2894   25.2986 O   0  0  0  0  0  0  0  0  0  0  0  0
   12.3353  -18.2044   23.3995 C   0  0  0  0  0  0  0  0  0  0  0  0
   11.9858  -16.7945   23.8668 C   0  0  2  0  0  0  0  0  0  0  0  0
   10.7029  -16.4154   23.3166 N   0  0  0  0  0  0  0  0  0  0  0  0
   13.0173  -15.8881   23.3283 C   0  0  0  0  0  0  0  0  0  0  0  0
   14.3347  -15.9878   23.7819 O   0  0  0  0  0  0  0  0  0  0  0  0
   12.7350  -15.0255   22.4699 O   0  0  0  0  0  0  0  0  0  0  0  0
  1  2  1  0
  3  2  1  0
  4  5  1  0
  4  3  1  0
  5  6  1  1
  5  1  1  0
  6  7  2  0
  9 11  1  0
  9  8  1  0
 10  9  2  0
 13 12  1  6
 12 11  1  0
 14 13  1  0
 14  6  1  0
 15 22  1  0
 15 13  1  0
 16 15  2  0
 17 18  1  0
 18 20  1  0
 19 18  2  0
 21 22  1  0
 21 20  1  6
 23 21  1  0
 24 23  1  0
 25 23  2  0
M  END
$$$$
