PQN.pdb
     RDKit          3D

 25 25  0  0  1  0  0  0  0  0999 V2000
    8.9079  -14.4975   19.7682 N   0  0  0  0  0  0  0  0  0  0  0  0
    7.9198  -14.3103   18.7234 C   0  0  0  0  0  0  0  0  0  0  0  0
    7.1233  -13.0722   19.0696 C   0  0  0  0  0  0  0  0  0  0  0  0
    7.7404  -12.5379   20.3556 C   0  0  0  0  0  0  0  0  0  0  0  0
    8.5355  -13.7101   20.8950 C   0  0  1  0  0  0  0  0  0  0  0  0
    7.6413  -14.4437   21.8476 C   0  0  0  0  0  0  0  0  0  0  0  0
    7.1269  -13.7848   22.7589 O   0  0  0  0  0  0  0  0  0  0  0  0
    3.2636  -18.2752   20.5143 N   0  0  0  0  0  0  0  0  0  0  0  0
    3.4454  -18.6182   21.8750 C   0  0  0  0  0  0  0  0  0  0  0  0
    2.5091  -19.2217   22.4586 O   0  0  0  0  0  0  0  0  0  0  0  0
    4.6917  -18.2934   22.6287 C   0  0  0  0  0  0  0  0  0  0  0  0
    5.6474  -17.5636   21.7168 C   0  0  0  0  0  0  0  0  0  0  0  0
    6.6270  -16.6912   22.4852 C   0  0  2  0  0  0  0  0  0  0  0  0
    7.4199  -15.8241   21.6840 N   0  0  0  0  0  0  0  0  0  0  0  0
    7.3521  -17.3918   23.5418 C   0  0  0  0  0  0  0  0  0  0  0  0
    6.7953  -18.1822   24.3616 O   0  0  0  0  0  0  0  0  0  0  0  0
   11.6871  -17.1465   22.1526 N   0  0  0  0  0  0  0  0  0  0  0  0
   11.2315  -18.1297   23.0605 C   0  0  0  0  0  0  0  0  0  0  0  0
   11.0234  -19.2975   22.6792 O   0  0  0  0  0  0  0  0  0  0  0  0
   11.0031  -17.7548   24.4878 C   0  0  0  0  0  0  0  0  0  0  0  0
    9.5100  -17.8816   24.7752 C   0  0  2  0  0  0  0  0  0  0  0  0
    8.7656  -17.2256   23.7227 N   0  0  0  0  0  0  0  0  0  0  0  0
    9.2492  -17.1803   26.0462 C   0  0  0  0  0  0  0  0  0  0  0  0
    8.4499  -16.0348   26.0560 O   0  0  0  0  0  0  0  0  0  0  0  0
    9.7332  -17.5913   27.1221 O   0  0  0  0  0  0  0  0  0  0  0  0
  1  2  1  0
  3  2  1  0
  4  5  1  0
  4  3  1  0
  5  6  1  1
  5  1  1  0
  6  7  2  0
  9 11  1  0
  9  8  1  0
 10  9  2  0
 13 12  1  6
 12 11  1  0
 14 13  1  0
 14  6  1  0
 15 22  1  0
 15 13  1  0
 16 15  2  0
 17 18  1  0
 18 20  1  0
 19 18  2  0
 21 22  1  0
 21 20  1  6
 23 21  1  0
 24 23  1  0
 25 23  2  0
M  END
$$$$
