PQN.pdb
     RDKit          3D

 25 25  0  0  1  0  0  0  0  0999 V2000
    9.2237  -13.3711   18.3287 N   0  0  0  0  0  0  0  0  0  0  0  0
    8.1998  -13.6459   17.3393 C   0  0  0  0  0  0  0  0  0  0  0  0
    6.8588  -13.5118   18.0255 C   0  0  0  0  0  0  0  0  0  0  0  0
    7.1744  -13.1044   19.4589 C   0  0  0  0  0  0  0  0  0  0  0  0
    8.6397  -13.4542   19.6251 C   0  0  1  0  0  0  0  0  0  0  0  0
    8.6969  -14.8361   20.2015 C   0  0  0  0  0  0  0  0  0  0  0  0
    7.8178  -15.1445   21.0147 O   0  0  0  0  0  0  0  0  0  0  0  0
   10.8478  -19.9649   17.1993 N   0  0  0  0  0  0  0  0  0  0  0  0
    9.6320  -19.2494   17.0900 C   0  0  0  0  0  0  0  0  0  0  0  0
    8.8784  -19.5169   16.1194 O   0  0  0  0  0  0  0  0  0  0  0  0
    9.2201  -18.2049   18.0729 C   0  0  0  0  0  0  0  0  0  0  0  0
   10.3200  -18.0183   19.0892 C   0  0  0  0  0  0  0  0  0  0  0  0
    9.9183  -17.0709   20.2083 C   0  0  2  0  0  0  0  0  0  0  0  0
    9.7222  -15.7189   19.8133 N   0  0  0  0  0  0  0  0  0  0  0  0
   10.6739  -17.2501   21.4453 C   0  0  0  0  0  0  0  0  0  0  0  0
   10.9023  -18.3844   21.9630 O   0  0  0  0  0  0  0  0  0  0  0  0
   12.1381  -18.3925   26.2420 N   0  0  0  0  0  0  0  0  0  0  0  0
   11.8071  -17.1300   25.6986 C   0  0  0  0  0  0  0  0  0  0  0  0
   12.1226  -16.0813   26.2928 O   0  0  0  0  0  0  0  0  0  0  0  0
   11.0747  -17.0645   24.3990 C   0  0  0  0  0  0  0  0  0  0  0  0
   11.9298  -16.2710   23.4155 C   0  0  2  0  0  0  0  0  0  0  0  0
   11.2138  -16.1333   22.1662 N   0  0  0  0  0  0  0  0  0  0  0  0
   13.1563  -17.0537   23.1735 C   0  0  0  0  0  0  0  0  0  0  0  0
   14.3975  -16.5328   23.5468 O   0  0  0  0  0  0  0  0  0  0  0  0
   13.1082  -18.1804   22.6360 O   0  0  0  0  0  0  0  0  0  0  0  0
  1  2  1  0
  3  2  1  0
  4  5  1  0
  4  3  1  0
  5  6  1  6
  5  1  1  0
  6  7  2  0
  9 11  1  0
  9  8  1  0
 10  9  2  0
 13 12  1  6
 12 11  1  0
 14 13  1  0
 14  6  1  0
 15 22  1  0
 15 13  1  0
 16 15  2  0
 17 18  1  0
 18 20  1  0
 19 18  2  0
 21 22  1  0
 21 20  1  1
 23 21  1  0
 24 23  1  0
 25 23  2  0
M  END
$$$$
