PQN.pdb
     RDKit          3D

 25 25  0  0  1  0  0  0  0  0999 V2000
    7.5795  -15.3302   19.9945 N   0  0  0  0  0  0  0  0  0  0  0  0
    6.6114  -14.2525   20.0595 C   0  0  0  0  0  0  0  0  0  0  0  0
    7.3112  -12.9874   19.6157 C   0  0  0  0  0  0  0  0  0  0  0  0
    8.7286  -13.4119   19.2542 C   0  0  0  0  0  0  0  0  0  0  0  0
    8.8851  -14.7668   19.9154 C   0  0  1  0  0  0  0  0  0  0  0  0
    9.4985  -14.5281   21.2616 C   0  0  0  0  0  0  0  0  0  0  0  0
   10.6098  -13.9863   21.2867 O   0  0  0  0  0  0  0  0  0  0  0  0
    5.9327  -13.6464   26.3771 N   0  0  0  0  0  0  0  0  0  0  0  0
    5.9440  -14.9376   25.7984 C   0  0  0  0  0  0  0  0  0  0  0  0
    4.9992  -15.7170   26.0833 O   0  0  0  0  0  0  0  0  0  0  0  0
    7.0223  -15.3979   24.8753 C   0  0  0  0  0  0  0  0  0  0  0  0
    8.0319  -14.2899   24.6995 C   0  0  0  0  0  0  0  0  0  0  0  0
    9.1763  -14.6909   23.7827 C   0  0  2  0  0  0  0  0  0  0  0  0
    8.8123  -14.9184   22.4270 N   0  0  0  0  0  0  0  0  0  0  0  0
   10.0824  -15.6835   24.3543 C   0  0  0  0  0  0  0  0  0  0  0  0
   10.5269  -15.6189   25.5397 O   0  0  0  0  0  0  0  0  0  0  0  0
    8.4478  -19.7115   23.7225 N   0  0  0  0  0  0  0  0  0  0  0  0
    9.6093  -19.4162   24.4724 C   0  0  0  0  0  0  0  0  0  0  0  0
    9.5587  -19.3353   25.7147 O   0  0  0  0  0  0  0  0  0  0  0  0
   10.9036  -19.2034   23.7589 C   0  0  0  0  0  0  0  0  0  0  0  0
   11.4262  -17.8196   24.1332 C   0  0  2  0  0  0  0  0  0  0  0  0
   10.5360  -16.8138   23.5961 N   0  0  0  0  0  0  0  0  0  0  0  0
   12.7492  -17.6667   23.4995 C   0  0  0  0  0  0  0  0  0  0  0  0
   12.9442  -16.6822   22.5279 O   0  0  0  0  0  0  0  0  0  0  0  0
   13.7058  -18.4058   23.8146 O   0  0  0  0  0  0  0  0  0  0  0  0
  1  2  1  0
  3  2  1  0
  4  5  1  0
  4  3  1  0
  5  6  1  1
  5  1  1  0
  6  7  2  0
  9 11  1  0
  9  8  1  0
 10  9  2  0
 13 12  1  1
 12 11  1  0
 14 13  1  0
 14  6  1  0
 15 22  1  0
 15 13  1  0
 16 15  2  0
 17 18  1  0
 18 20  1  0
 19 18  2  0
 21 22  1  0
 21 20  1  6
 23 21  1  0
 24 23  1  0
 25 23  2  0
M  END
$$$$
