PQN.pdb
     RDKit          3D

 25 25  0  0  1  0  0  0  0  0999 V2000
    8.0000  -14.7732   18.3848 N   0  0  0  0  0  0  0  0  0  0  0  0
    6.6748  -14.2130   18.2026 C   0  0  0  0  0  0  0  0  0  0  0  0
    6.6847  -12.8229   18.7979 C   0  0  0  0  0  0  0  0  0  0  0  0
    8.1069  -12.6043   19.2974 C   0  0  0  0  0  0  0  0  0  0  0  0
    8.6914  -14.0013   19.3618 C   0  0  1  0  0  0  0  0  0  0  0  0
    8.4758  -14.5015   20.7578 C   0  0  0  0  0  0  0  0  0  0  0  0
    8.8888  -13.7904   21.6814 O   0  0  0  0  0  0  0  0  0  0  0  0
    4.5747  -19.3804   22.1974 N   0  0  0  0  0  0  0  0  0  0  0  0
    4.2722  -18.0627   21.7801 C   0  0  0  0  0  0  0  0  0  0  0  0
    3.0879  -17.8119   21.4395 O   0  0  0  0  0  0  0  0  0  0  0  0
    5.2953  -16.9773   21.7321 C   0  0  0  0  0  0  0  0  0  0  0  0
    6.6223  -17.5250   22.1975 C   0  0  0  0  0  0  0  0  0  0  0  0
    7.7194  -16.4728   22.1819 C   0  0  2  0  0  0  0  0  0  0  0  0
    7.8292  -15.7332   20.9723 N   0  0  0  0  0  0  0  0  0  0  0  0
    8.9881  -16.9214   22.7495 C   0  0  0  0  0  0  0  0  0  0  0  0
    9.8977  -17.4796   22.0653 O   0  0  0  0  0  0  0  0  0  0  0  0
   12.6274  -16.4688   27.2605 N   0  0  0  0  0  0  0  0  0  0  0  0
   12.5836  -16.5144   25.8482 C   0  0  0  0  0  0  0  0  0  0  0  0
   13.5444  -16.9692   25.1982 O   0  0  0  0  0  0  0  0  0  0  0  0
   11.3691  -16.0122   25.1394 C   0  0  0  0  0  0  0  0  0  0  0  0
   10.5221  -17.2181   24.7436 C   0  0  2  0  0  0  0  0  0  0  0  0
    9.2899  -16.7570   24.1424 N   0  0  0  0  0  0  0  0  0  0  0  0
   10.1985  -17.9497   25.9826 C   0  0  0  0  0  0  0  0  0  0  0  0
   11.2012  -18.6497   26.6578 O   0  0  0  0  0  0  0  0  0  0  0  0
    9.0374  -17.9580   26.4436 O   0  0  0  0  0  0  0  0  0  0  0  0
  1  2  1  0
  3  2  1  0
  4  5  1  0
  4  3  1  0
  5  6  1  1
  5  1  1  0
  6  7  2  0
  9 11  1  0
  9  8  1  0
 10  9  2  0
 13 12  1  6
 12 11  1  0
 14 13  1  0
 14  6  1  0
 15 22  1  0
 15 13  1  0
 16 15  2  0
 17 18  1  0
 18 20  1  0
 19 18  2  0
 21 22  1  0
 21 20  1  1
 23 21  1  0
 24 23  1  0
 25 23  2  0
M  END
$$$$
