PQN.pdb
     RDKit          3D

 25 25  0  0  1  0  0  0  0  0999 V2000
    8.6251  -14.9947   19.5270 N   0  0  0  0  0  0  0  0  0  0  0  0
    7.2944  -14.9933   18.9506 C   0  0  0  0  0  0  0  0  0  0  0  0
    6.6561  -13.6643   19.2875 C   0  0  0  0  0  0  0  0  0  0  0  0
    7.7158  -12.8877   20.0581 C   0  0  0  0  0  0  0  0  0  0  0  0
    8.7056  -13.9503   20.4920 C   0  0  1  0  0  0  0  0  0  0  0  0
    8.2980  -14.3934   21.8642 C   0  0  0  0  0  0  0  0  0  0  0  0
    8.1657  -13.5147   22.7242 O   0  0  0  0  0  0  0  0  0  0  0  0
    5.9645  -20.2526   23.1720 N   0  0  0  0  0  0  0  0  0  0  0  0
    6.2997  -19.7293   24.4432 C   0  0  0  0  0  0  0  0  0  0  0  0
    6.0015  -20.4118   25.4564 O   0  0  0  0  0  0  0  0  0  0  0  0
    6.9852  -18.4155   24.6189 C   0  0  0  0  0  0  0  0  0  0  0  0
    7.1736  -17.7693   23.2681 C   0  0  0  0  0  0  0  0  0  0  0  0
    7.7831  -16.3805   23.3718 C   0  0  2  0  0  0  0  0  0  0  0  0
    8.0850  -15.7594   22.1286 N   0  0  0  0  0  0  0  0  0  0  0  0
    8.8199  -16.2558   24.3929 C   0  0  0  0  0  0  0  0  0  0  0  0
   10.0331  -16.5652   24.1942 O   0  0  0  0  0  0  0  0  0  0  0  0
    9.8035  -14.1706   30.0064 N   0  0  0  0  0  0  0  0  0  0  0  0
   10.1542  -14.1542   28.6370 C   0  0  0  0  0  0  0  0  0  0  0  0
   11.3339  -13.9594   28.2866 O   0  0  0  0  0  0  0  0  0  0  0  0
    9.0934  -14.3756   27.6097 C   0  0  0  0  0  0  0  0  0  0  0  0
    9.5435  -15.5201   26.7065 C   0  0  2  0  0  0  0  0  0  0  0  0
    8.5252  -15.7678   25.7095 N   0  0  0  0  0  0  0  0  0  0  0  0
    9.6759  -16.7193   27.5549 C   0  0  0  0  0  0  0  0  0  0  0  0
   10.8021  -16.8751   28.3663 O   0  0  0  0  0  0  0  0  0  0  0  0
    8.7960  -17.6062   27.5617 O   0  0  0  0  0  0  0  0  0  0  0  0
  1  2  1  0
  3  2  1  0
  4  5  1  0
  4  3  1  0
  5  6  1  1
  5  1  1  0
  6  7  2  0
  9 11  1  0
  9  8  1  0
 10  9  2  0
 13 12  1  6
 12 11  1  0
 14 13  1  0
 14  6  1  0
 15 22  1  0
 15 13  1  0
 16 15  2  0
 17 18  1  0
 18 20  1  0
 19 18  2  0
 21 22  1  0
 21 20  1  1
 23 21  1  0
 24 23  1  0
 25 23  2  0
M  END
$$$$
