PQN.pdb
     RDKit          3D

 25 25  0  0  1  0  0  0  0  0999 V2000
    8.8035  -14.7965   20.1219 N   0  0  0  0  0  0  0  0  0  0  0  0
    7.6700  -14.6854   19.2243 C   0  0  0  0  0  0  0  0  0  0  0  0
    6.9407  -13.4068   19.5715 C   0  0  0  0  0  0  0  0  0  0  0  0
    7.7472  -12.7711   20.6964 C   0  0  0  0  0  0  0  0  0  0  0  0
    8.6091  -13.9048   21.2152 C   0  0  1  0  0  0  0  0  0  0  0  0
    7.8654  -14.5337   22.3540 C   0  0  0  0  0  0  0  0  0  0  0  0
    6.9972  -13.8485   22.9071 O   0  0  0  0  0  0  0  0  0  0  0  0
    6.3227  -20.5191   23.5392 N   0  0  0  0  0  0  0  0  0  0  0  0
    6.2156  -19.8858   24.8000 C   0  0  0  0  0  0  0  0  0  0  0  0
    5.6453  -20.5157   25.7270 O   0  0  0  0  0  0  0  0  0  0  0  0
    6.7491  -18.5171   25.0625 C   0  0  0  0  0  0  0  0  0  0  0  0
    7.1932  -17.8990   23.7593 C   0  0  0  0  0  0  0  0  0  0  0  0
    7.7952  -16.5163   23.9510 C   0  0  2  0  0  0  0  0  0  0  0  0
    8.1691  -15.8492   22.7521 N   0  0  0  0  0  0  0  0  0  0  0  0
    8.7705  -16.4324   25.0349 C   0  0  0  0  0  0  0  0  0  0  0  0
    9.9924  -16.7406   24.8969 O   0  0  0  0  0  0  0  0  0  0  0  0
    7.7662  -12.6005   27.7547 N   0  0  0  0  0  0  0  0  0  0  0  0
    8.8875  -13.4582   27.6790 C   0  0  0  0  0  0  0  0  0  0  0  0
    9.8964  -13.1272   27.0270 O   0  0  0  0  0  0  0  0  0  0  0  0
    8.8525  -14.7694   28.3927 C   0  0  0  0  0  0  0  0  0  0  0  0
    9.3498  -15.8435   27.4298 C   0  0  2  0  0  0  0  0  0  0  0  0
    8.4004  -15.9892   26.3483 N   0  0  0  0  0  0  0  0  0  0  0  0
    9.4076  -17.1109   28.1819 C   0  0  0  0  0  0  0  0  0  0  0  0
    8.6410  -18.2015   27.7648 O   0  0  0  0  0  0  0  0  0  0  0  0
   10.1319  -17.2298   29.1928 O   0  0  0  0  0  0  0  0  0  0  0  0
  1  2  1  0
  3  2  1  0
  4  5  1  0
  4  3  1  0
  5  6  1  1
  5  1  1  0
  6  7  2  0
  9 11  1  0
  9  8  1  0
 10  9  2  0
 13 12  1  6
 12 11  1  0
 14 13  1  0
 14  6  1  0
 15 22  1  0
 15 13  1  0
 16 15  2  0
 17 18  1  0
 18 20  1  0
 19 18  2  0
 21 22  1  0
 21 20  1  1
 23 21  1  0
 24 23  1  0
 25 23  2  0
M  END
$$$$
