PQN.pdb
     RDKit          3D

 25 25  0  0  1  0  0  0  0  0999 V2000
    8.3532  -14.0396   18.6787 N   0  0  0  0  0  0  0  0  0  0  0  0
    7.0197  -13.5885   19.0270 C   0  0  0  0  0  0  0  0  0  0  0  0
    7.1116  -12.8956   20.3681 C   0  0  0  0  0  0  0  0  0  0  0  0
    8.5855  -12.9416   20.7496 C   0  0  0  0  0  0  0  0  0  0  0  0
    9.1636  -14.0155   19.8496 C   0  0  1  0  0  0  0  0  0  0  0  0
    9.1157  -15.3016   20.6171 C   0  0  0  0  0  0  0  0  0  0  0  0
    8.0704  -15.9590   20.5508 O   0  0  0  0  0  0  0  0  0  0  0  0
   11.1428  -20.3227   21.2742 N   0  0  0  0  0  0  0  0  0  0  0  0
   11.2691  -19.3980   20.2107 C   0  0  0  0  0  0  0  0  0  0  0  0
   10.7931  -19.7206   19.0923 O   0  0  0  0  0  0  0  0  0  0  0  0
   11.9372  -18.0731   20.3694 C   0  0  0  0  0  0  0  0  0  0  0  0
   11.7808  -17.6060   21.7960 C   0  0  0  0  0  0  0  0  0  0  0  0
   10.4324  -16.9494   22.0445 C   0  0  2  0  0  0  0  0  0  0  0  0
   10.2302  -15.7126   21.3722 N   0  0  0  0  0  0  0  0  0  0  0  0
   10.0033  -16.9714   23.4404 C   0  0  0  0  0  0  0  0  0  0  0  0
   10.1615  -15.9945   24.2325 O   0  0  0  0  0  0  0  0  0  0  0  0
    8.0706  -18.5251   27.8895 N   0  0  0  0  0  0  0  0  0  0  0  0
    7.2597  -19.1341   26.9046 C   0  0  0  0  0  0  0  0  0  0  0  0
    6.2373  -19.7685   27.2283 O   0  0  0  0  0  0  0  0  0  0  0  0
    7.6399  -19.0076   25.4662 C   0  0  0  0  0  0  0  0  0  0  0  0
    8.9140  -18.1718   25.3873 C   0  0  2  0  0  0  0  0  0  0  0  0
    9.3655  -18.1214   24.0139 N   0  0  0  0  0  0  0  0  0  0  0  0
    9.9378  -18.8593   26.1963 C   0  0  0  0  0  0  0  0  0  0  0  0
   10.0067  -18.6274   27.5721 O   0  0  0  0  0  0  0  0  0  0  0  0
   10.7518  -19.6493   25.6728 O   0  0  0  0  0  0  0  0  0  0  0  0
  1  2  1  0
  3  2  1  0
  4  5  1  0
  4  3  1  0
  5  6  1  1
  5  1  1  0
  6  7  2  0
  9 11  1  0
  9  8  1  0
 10  9  2  0
 13 12  1  1
 12 11  1  0
 14 13  1  0
 14  6  1  0
 15 22  1  0
 15 13  1  0
 16 15  2  0
 17 18  1  0
 18 20  1  0
 19 18  2  0
 21 22  1  0
 21 20  1  6
 23 21  1  0
 24 23  1  0
 25 23  2  0
M  END
$$$$
