WQW.pdb
     RDKit          3D

 38 41  0  0  1  0  0  0  0  0999 V2000
   21.7493  -19.2856  -14.1483 N   0  0  0  0  0  0  0  0  0  0  0  0
   22.0933  -20.5199  -14.8410 C   0  0  1  0  0  0  0  0  0  0  0  0
   23.0315  -21.3629  -13.9857 C   0  0  0  0  0  0  0  0  0  0  0  0
   24.3663  -20.7919  -13.8360 C   0  0  0  0  0  0  0  0  0  0  0  0
   24.7024  -19.6733  -13.1191 C   0  0  0  0  0  0  0  0  0  0  0  0
   26.0427  -19.4546  -13.2155 N   0  0  0  0  0  0  0  0  0  0  0  0
   26.5477  -20.4302  -13.9890 C   0  0  0  0  0  0  0  0  0  0  0  0
   27.8307  -20.6964  -14.4109 C   0  0  0  0  0  0  0  0  0  0  0  0
   28.1125  -21.7830  -15.2185 C   0  0  0  0  0  0  0  0  0  0  0  0
   27.1040  -22.6280  -15.6195 C   0  0  0  0  0  0  0  0  0  0  0  0
   25.8190  -22.3711  -15.2040 C   0  0  0  0  0  0  0  0  0  0  0  0
   25.5214  -21.2838  -14.3932 C   0  0  0  0  0  0  0  0  0  0  0  0
   20.9181  -21.3783  -15.0934 C   0  0  0  0  0  0  0  0  0  0  0  0
   19.8072  -21.0392  -14.6720 O   0  0  0  0  0  0  0  0  0  0  0  0
   18.3567  -22.7958  -18.3459 N   0  0  0  0  0  0  0  0  0  0  0  0
   19.5921  -22.7034  -19.0477 C   0  0  0  0  0  0  0  0  0  0  0  0
   19.7101  -22.0098  -20.0997 O   0  0  0  0  0  0  0  0  0  0  0  0
   20.7769  -23.4281  -18.5520 C   0  0  0  0  0  0  0  0  0  0  0  0
   20.3412  -24.3186  -17.3952 C   0  0  0  0  0  0  0  0  0  0  0  0
   20.0733  -23.4631  -16.2303 C   0  0  2  0  0  0  0  0  0  0  0  0
   21.0891  -22.5750  -15.8154 N   0  0  0  0  0  0  0  0  0  0  0  0
   19.4197  -24.2426  -15.1114 C   0  0  0  0  0  0  0  0  0  0  0  0
   18.6986  -25.2205  -15.3844 O   0  0  0  0  0  0  0  0  0  0  0  0
   19.5957  -23.9024  -13.7517 N   0  0  0  0  0  0  0  0  0  0  0  0
   18.9070  -24.5321  -12.6522 C   0  0  1  0  0  0  0  0  0  0  0  0
   19.3516  -23.9889  -11.3127 C   0  0  0  0  0  0  0  0  0  0  0  0
   18.6222  -24.5893  -10.1928 C   0  0  0  0  0  0  0  0  0  0  0  0
   18.9053  -25.8002   -9.6076 C   0  0  0  0  0  0  0  0  0  0  0  0
   18.0259  -26.0187   -8.6176 N   0  0  0  0  0  0  0  0  0  0  0  0
   17.1854  -24.9707   -8.5582 C   0  0  0  0  0  0  0  0  0  0  0  0
   16.1016  -24.7021   -7.7176 C   0  0  0  0  0  0  0  0  0  0  0  0
   15.4022  -23.5277   -7.8810 C   0  0  0  0  0  0  0  0  0  0  0  0
   15.7607  -22.6231   -8.8603 C   0  0  0  0  0  0  0  0  0  0  0  0
   16.8120  -22.8763   -9.6811 C   0  0  0  0  0  0  0  0  0  0  0  0
   17.5337  -24.0546   -9.5359 C   0  0  0  0  0  0  0  0  0  0  0  0
   17.4584  -24.4837  -12.8468 C   0  0  0  0  0  0  0  0  0  0  0  0
   16.9455  -23.4295  -13.3025 O   0  0  0  0  0  0  0  0  0  0  0  0
   16.5940  -25.5252  -12.5639 O   0  0  0  0  0  0  0  0  0  0  0  0
  2  1  1  1
  2 13  1  0
  3  4  1  0
  3  2  1  0
  4  5  2  0
  5  6  1  0
  7  6  1  0
  8  7  2  0
  9  8  1  0
 10 11  1  0
 10  9  2  0
 11 12  2  0
 12  4  1  0
 12  7  1  0
 13 14  2  0
 16 17  2  0
 16 15  1  0
 18 16  1  0
 19 18  1  0
 20 19  1  6
 20 22  1  0
 21 13  1  0
 21 20  1  0
 22 23  2  0
 22 24  1  0
 24 25  1  0
 25 26  1  1
 26 27  1  0
 27 28  2  0
 28 29  1  0
 30 29  1  0
 31 30  2  0
 32 31  1  0
 33 34  1  0
 33 32  2  0
 34 35  2  0
 35 27  1  0
 35 30  1  0
 36 25  1  0
 36 38  1  0
 37 36  2  0
M  END
$$$$
