WQW.pdb
     RDKit          3D

 38 41  0  0  1  0  0  0  0  0999 V2000
   28.4288  -22.2089  -14.4446 N   0  0  0  0  0  0  0  0  0  0  0  0
   27.2112  -22.2596  -13.6468 C   0  0  1  0  0  0  0  0  0  0  0  0
   27.0113  -20.9450  -12.9023 C   0  0  0  0  0  0  0  0  0  0  0  0
   27.9599  -20.7336  -11.8133 C   0  0  0  0  0  0  0  0  0  0  0  0
   29.3101  -20.5310  -11.9317 C   0  0  0  0  0  0  0  0  0  0  0  0
   29.8584  -20.3729  -10.6956 N   0  0  0  0  0  0  0  0  0  0  0  0
   28.8588  -20.4756   -9.8039 C   0  0  0  0  0  0  0  0  0  0  0  0
   28.8421  -20.3957   -8.4296 C   0  0  0  0  0  0  0  0  0  0  0  0
   27.6668  -20.5346   -7.7143 C   0  0  0  0  0  0  0  0  0  0  0  0
   26.4788  -20.7575   -8.3706 C   0  0  0  0  0  0  0  0  0  0  0  0
   26.4843  -20.8392   -9.7428 C   0  0  0  0  0  0  0  0  0  0  0  0
   27.6568  -20.7018  -10.4740 C   0  0  0  0  0  0  0  0  0  0  0  0
   25.9970  -22.4301  -14.4704 C   0  0  0  0  0  0  0  0  0  0  0  0
   25.7152  -21.5900  -15.3316 O   0  0  0  0  0  0  0  0  0  0  0  0
   23.4128  -27.9230  -15.9405 N   0  0  0  0  0  0  0  0  0  0  0  0
   22.5787  -26.9675  -16.5875 C   0  0  0  0  0  0  0  0  0  0  0  0
   21.6991  -27.3130  -17.4293 O   0  0  0  0  0  0  0  0  0  0  0  0
   22.7287  -25.5324  -16.2826 C   0  0  0  0  0  0  0  0  0  0  0  0
   23.8504  -25.3767  -15.2635 C   0  0  0  0  0  0  0  0  0  0  0  0
   24.0565  -23.9419  -15.0203 C   0  0  2  0  0  0  0  0  0  0  0  0
   25.1790  -23.5560  -14.2561 N   0  0  0  0  0  0  0  0  0  0  0  0
   22.7648  -23.2557  -14.6367 C   0  0  0  0  0  0  0  0  0  0  0  0
   22.1627  -23.6123  -13.6066 O   0  0  0  0  0  0  0  0  0  0  0  0
   22.2057  -22.2134  -15.4091 N   0  0  0  0  0  0  0  0  0  0  0  0
   20.9435  -21.5728  -15.1325 C   0  0  1  0  0  0  0  0  0  0  0  0
   21.1112  -20.1180  -14.7551 C   0  0  0  0  0  0  0  0  0  0  0  0
   21.8080  -19.9456  -13.4779 C   0  0  0  0  0  0  0  0  0  0  0  0
   23.0472  -19.3755  -13.3102 C   0  0  0  0  0  0  0  0  0  0  0  0
   23.3586  -19.3928  -12.0049 N   0  0  0  0  0  0  0  0  0  0  0  0
   22.3423  -19.9631  -11.3341 C   0  0  0  0  0  0  0  0  0  0  0  0
   22.1638  -20.2214   -9.9722 C   0  0  0  0  0  0  0  0  0  0  0  0
   21.0021  -20.8290   -9.5523 C   0  0  0  0  0  0  0  0  0  0  0  0
   20.0224  -21.1815  -10.4589 C   0  0  0  0  0  0  0  0  0  0  0  0
   20.1879  -20.9344  -11.7835 C   0  0  0  0  0  0  0  0  0  0  0  0
   21.3516  -20.3220  -12.2320 C   0  0  0  0  0  0  0  0  0  0  0  0
   19.9997  -21.7833  -16.2296 C   0  0  0  0  0  0  0  0  0  0  0  0
   18.8039  -21.4260  -16.0739 O   0  0  0  0  0  0  0  0  0  0  0  0
   20.3259  -22.3545  -17.4459 O   0  0  0  0  0  0  0  0  0  0  0  0
  2  1  1  6
  2 13  1  0
  3  4  1  0
  3  2  1  0
  4  5  2  0
  5  6  1  0
  7  6  1  0
  8  7  2  0
  9  8  1  0
 10 11  1  0
 10  9  2  0
 11 12  2  0
 12  4  1  0
 12  7  1  0
 13 14  2  0
 16 17  2  0
 16 15  1  0
 18 16  1  0
 19 18  1  0
 20 19  1  1
 20 22  1  0
 21 13  1  0
 21 20  1  0
 22 23  2  0
 22 24  1  0
 24 25  1  0
 25 26  1  6
 26 27  1  0
 27 28  2  0
 28 29  1  0
 30 29  1  0
 31 30  2  0
 32 31  1  0
 33 34  1  0
 33 32  2  0
 34 35  2  0
 35 27  1  0
 35 30  1  0
 36 25  1  0
 36 38  1  0
 37 36  2  0
M  END
$$$$
