WQW.pdb
     RDKit          3D

 38 41  0  0  1  0  0  0  0  0999 V2000
   28.1354  -22.8880  -10.1470 N   0  0  0  0  0  0  0  0  0  0  0  0
   27.3274  -21.6791  -10.2324 C   0  0  1  0  0  0  0  0  0  0  0  0
   28.1571  -20.4599   -9.8481 C   0  0  0  0  0  0  0  0  0  0  0  0
   28.8135  -20.5784   -8.5499 C   0  0  0  0  0  0  0  0  0  0  0  0
   30.0208  -21.1743   -8.2945 C   0  0  0  0  0  0  0  0  0  0  0  0
   30.3010  -21.0873   -6.9650 N   0  0  0  0  0  0  0  0  0  0  0  0
   29.2756  -20.4401   -6.3866 C   0  0  0  0  0  0  0  0  0  0  0  0
   29.0369  -20.0798   -5.0796 C   0  0  0  0  0  0  0  0  0  0  0  0
   27.8865  -19.4030   -4.7176 C   0  0  0  0  0  0  0  0  0  0  0  0
   26.9488  -19.0733   -5.6682 C   0  0  0  0  0  0  0  0  0  0  0  0
   27.1772  -19.4285   -6.9764 C   0  0  0  0  0  0  0  0  0  0  0  0
   28.3276  -20.1083   -7.3543 C   0  0  0  0  0  0  0  0  0  0  0  0
   26.8491  -21.4091  -11.6035 C   0  0  0  0  0  0  0  0  0  0  0  0
   27.6052  -21.5866  -12.5646 O   0  0  0  0  0  0  0  0  0  0  0  0
   23.9624  -25.2991  -13.7050 N   0  0  0  0  0  0  0  0  0  0  0  0
   24.2644  -24.4405  -14.8000 C   0  0  0  0  0  0  0  0  0  0  0  0
   24.3384  -24.8750  -15.9862 O   0  0  0  0  0  0  0  0  0  0  0  0
   24.5010  -23.0037  -14.5660 C   0  0  0  0  0  0  0  0  0  0  0  0
   24.4130  -22.7444  -13.0673 C   0  0  0  0  0  0  0  0  0  0  0  0
   24.6505  -21.3130  -12.8323 C   0  0  2  0  0  0  0  0  0  0  0  0
   25.5303  -20.9520  -11.7891 N   0  0  0  0  0  0  0  0  0  0  0  0
   23.3602  -20.5254  -12.8718 C   0  0  0  0  0  0  0  0  0  0  0  0
   22.6833  -20.4039  -11.8336 O   0  0  0  0  0  0  0  0  0  0  0  0
   22.8851  -19.9142  -14.0534 N   0  0  0  0  0  0  0  0  0  0  0  0
   21.7494  -19.0277  -14.1195 C   0  0  1  0  0  0  0  0  0  0  0  0
   21.9433  -17.9250  -15.1362 C   0  0  0  0  0  0  0  0  0  0  0  0
   20.8001  -17.0109  -15.1985 C   0  0  0  0  0  0  0  0  0  0  0  0
   20.5257  -16.0066  -14.3013 C   0  0  0  0  0  0  0  0  0  0  0  0
   19.3995  -15.3830  -14.6806 N   0  0  0  0  0  0  0  0  0  0  0  0
   18.9480  -15.9691  -15.8035 C   0  0  0  0  0  0  0  0  0  0  0  0
   17.8274  -15.7064  -16.5964 C   0  0  0  0  0  0  0  0  0  0  0  0
   17.6018  -16.4780  -17.7139 C   0  0  0  0  0  0  0  0  0  0  0  0
   18.4665  -17.4996  -18.0525 C   0  0  0  0  0  0  0  0  0  0  0  0
   19.5572  -17.7615  -17.2877 C   0  0  0  0  0  0  0  0  0  0  0  0
   19.8065  -16.9966  -16.1550 C   0  0  0  0  0  0  0  0  0  0  0  0
   20.5098  -19.7802  -14.3081 C   0  0  0  0  0  0  0  0  0  0  0  0
   20.5174  -20.7721  -15.0814 O   0  0  0  0  0  0  0  0  0  0  0  0
   19.3090  -19.4804  -13.6912 O   0  0  0  0  0  0  0  0  0  0  0  0
  2  1  1  6
  2 13  1  0
  3  4  1  0
  3  2  1  0
  4  5  2  0
  5  6  1  0
  7  6  1  0
  8  7  2  0
  9  8  1  0
 10 11  1  0
 10  9  2  0
 11 12  2  0
 12  4  1  0
 12  7  1  0
 13 14  2  0
 16 17  2  0
 16 15  1  0
 18 16  1  0
 19 18  1  0
 20 19  1  1
 20 22  1  0
 21 13  1  0
 21 20  1  0
 22 23  2  0
 22 24  1  0
 24 25  1  0
 25 26  1  6
 26 27  1  0
 27 28  2  0
 28 29  1  0
 30 29  1  0
 31 30  2  0
 32 31  1  0
 33 34  1  0
 33 32  2  0
 34 35  2  0
 35 27  1  0
 35 30  1  0
 36 25  1  0
 36 38  1  0
 37 36  2  0
M  END
$$$$
