WQW.pdb
     RDKit          3D

 38 41  0  0  1  0  0  0  0  0999 V2000
   27.0598  -23.8666  -17.4250 N   0  0  0  0  0  0  0  0  0  0  0  0
   26.0795  -23.6801  -16.3640 C   0  0  1  0  0  0  0  0  0  0  0  0
   25.8219  -24.9982  -15.6439 C   0  0  0  0  0  0  0  0  0  0  0  0
   25.1131  -25.9841  -16.4536 C   0  0  0  0  0  0  0  0  0  0  0  0
   25.5307  -27.2564  -16.7453 C   0  0  0  0  0  0  0  0  0  0  0  0
   24.6022  -27.8741  -17.5263 N   0  0  0  0  0  0  0  0  0  0  0  0
   23.6056  -26.9954  -17.7253 C   0  0  0  0  0  0  0  0  0  0  0  0
   22.4260  -27.0884  -18.4289 C   0  0  0  0  0  0  0  0  0  0  0  0
   21.5384  -26.0297  -18.4899 C   0  0  0  0  0  0  0  0  0  0  0  0
   21.8210  -24.8506  -17.8407 C   0  0  0  0  0  0  0  0  0  0  0  0
   22.9963  -24.7470  -17.1353 C   0  0  0  0  0  0  0  0  0  0  0  0
   23.8970  -25.8017  -17.0655 C   0  0  0  0  0  0  0  0  0  0  0  0
   26.5438  -22.7475  -15.3168 C   0  0  0  0  0  0  0  0  0  0  0  0
   27.7433  -22.6992  -15.0244 O   0  0  0  0  0  0  0  0  0  0  0  0
   22.9491  -17.3620  -15.1657 N   0  0  0  0  0  0  0  0  0  0  0  0
   23.9334  -18.3641  -15.3986 C   0  0  0  0  0  0  0  0  0  0  0  0
   24.6940  -18.3283  -16.4095 O   0  0  0  0  0  0  0  0  0  0  0  0
   24.0860  -19.4817  -14.4486 C   0  0  0  0  0  0  0  0  0  0  0  0
   25.5458  -19.5447  -14.0176 C   0  0  0  0  0  0  0  0  0  0  0  0
   25.8711  -20.9408  -13.6931 C   0  0  2  0  0  0  0  0  0  0  0  0
   25.6023  -21.9255  -14.6683 N   0  0  0  0  0  0  0  0  0  0  0  0
   25.4268  -21.3003  -12.2930 C   0  0  0  0  0  0  0  0  0  0  0  0
   24.3506  -21.9042  -12.1267 O   0  0  0  0  0  0  0  0  0  0  0  0
   26.1925  -20.9746  -11.1515 N   0  0  0  0  0  0  0  0  0  0  0  0
   25.6461  -20.7253   -9.8403 C   0  0  1  0  0  0  0  0  0  0  0  0
   26.4667  -19.7232   -9.0598 C   0  0  0  0  0  0  0  0  0  0  0  0
   27.5033  -20.3600   -8.2434 C   0  0  0  0  0  0  0  0  0  0  0  0
   28.0482  -21.6023   -8.4639 C   0  0  0  0  0  0  0  0  0  0  0  0
   28.9631  -21.8487   -7.5135 N   0  0  0  0  0  0  0  0  0  0  0  0
   29.0141  -20.7877   -6.6889 C   0  0  0  0  0  0  0  0  0  0  0  0
   29.7893  -20.5364   -5.5535 C   0  0  0  0  0  0  0  0  0  0  0  0
   29.6342  -19.3417   -4.8874 C   0  0  0  0  0  0  0  0  0  0  0  0
   28.7265  -18.4000   -5.3293 C   0  0  0  0  0  0  0  0  0  0  0  0
   27.9695  -18.6362   -6.4312 C   0  0  0  0  0  0  0  0  0  0  0  0
   28.1079  -19.8344   -7.1207 C   0  0  0  0  0  0  0  0  0  0  0  0
   24.2283  -20.3763   -9.9231 C   0  0  0  0  0  0  0  0  0  0  0  0
   23.4484  -20.8043   -9.0341 O   0  0  0  0  0  0  0  0  0  0  0  0
   23.6693  -19.5987  -10.9206 O   0  0  0  0  0  0  0  0  0  0  0  0
  2  1  1  6
  2 13  1  0
  3  4  1  0
  3  2  1  0
  4  5  2  0
  5  6  1  0
  7  6  1  0
  8  7  2  0
  9  8  1  0
 10 11  1  0
 10  9  2  0
 11 12  2  0
 12  4  1  0
 12  7  1  0
 13 14  2  0
 16 17  2  0
 16 15  1  0
 18 16  1  0
 19 18  1  0
 20 19  1  6
 20 22  1  0
 21 13  1  0
 21 20  1  0
 22 23  2  0
 22 24  1  0
 24 25  1  0
 25 26  1  6
 26 27  1  0
 27 28  2  0
 28 29  1  0
 30 29  1  0
 31 30  2  0
 32 31  1  0
 33 34  1  0
 33 32  2  0
 34 35  2  0
 35 27  1  0
 35 30  1  0
 36 25  1  0
 36 38  1  0
 37 36  2  0
M  END
$$$$
