WQW.pdb
     RDKit          3D

 38 41  0  0  1  0  0  0  0  0999 V2000
   30.1045  -21.1278  -16.0751 N   0  0  0  0  0  0  0  0  0  0  0  0
   29.2284  -22.0890  -15.4193 C   0  0  1  0  0  0  0  0  0  0  0  0
   29.0689  -21.7395  -13.9447 C   0  0  0  0  0  0  0  0  0  0  0  0
   30.3166  -21.7865  -13.1889 C   0  0  0  0  0  0  0  0  0  0  0  0
   30.8125  -20.8091  -12.3661 C   0  0  0  0  0  0  0  0  0  0  0  0
   31.9991  -21.2161  -11.8371 N   0  0  0  0  0  0  0  0  0  0  0  0
   32.2490  -22.4429  -12.3243 C   0  0  0  0  0  0  0  0  0  0  0  0
   33.2956  -23.3148  -12.1250 C   0  0  0  0  0  0  0  0  0  0  0  0
   33.3332  -24.5492  -12.7471 C   0  0  0  0  0  0  0  0  0  0  0  0
   32.3133  -24.9333  -13.5862 C   0  0  0  0  0  0  0  0  0  0  0  0
   31.2634  -24.0702  -13.7924 C   0  0  0  0  0  0  0  0  0  0  0  0
   31.2125  -22.8276  -13.1746 C   0  0  0  0  0  0  0  0  0  0  0  0
   27.8588  -22.0815  -15.9725 C   0  0  0  0  0  0  0  0  0  0  0  0
   27.4382  -21.0787  -16.5593 O   0  0  0  0  0  0  0  0  0  0  0  0
   25.5935  -25.9945  -18.5916 N   0  0  0  0  0  0  0  0  0  0  0  0
   24.4473  -25.1524  -18.6582 C   0  0  0  0  0  0  0  0  0  0  0  0
   23.7339  -25.0799  -19.7010 O   0  0  0  0  0  0  0  0  0  0  0  0
   24.0652  -24.3347  -17.4918 C   0  0  0  0  0  0  0  0  0  0  0  0
   25.0741  -24.5909  -16.3794 C   0  0  0  0  0  0  0  0  0  0  0  0
   25.6532  -23.3015  -15.9762 C   0  0  2  0  0  0  0  0  0  0  0  0
   27.0541  -23.2268  -15.8192 N   0  0  0  0  0  0  0  0  0  0  0  0
   24.8573  -22.6637  -14.8598 C   0  0  0  0  0  0  0  0  0  0  0  0
   24.8832  -23.1684  -13.7217 O   0  0  0  0  0  0  0  0  0  0  0  0
   24.0754  -21.5040  -15.0578 N   0  0  0  0  0  0  0  0  0  0  0  0
   23.2569  -20.8831  -14.0455 C   0  0  1  0  0  0  0  0  0  0  0  0
   23.7480  -19.4997  -13.6822 C   0  0  0  0  0  0  0  0  0  0  0  0
   24.9121  -19.5322  -12.7932 C   0  0  0  0  0  0  0  0  0  0  0  0
   26.1927  -19.1679  -13.1340 C   0  0  0  0  0  0  0  0  0  0  0  0
   26.9884  -19.3321  -12.0658 N   0  0  0  0  0  0  0  0  0  0  0  0
   26.2412  -19.7946  -11.0478 C   0  0  0  0  0  0  0  0  0  0  0  0
   26.5767  -20.1277   -9.7326 C   0  0  0  0  0  0  0  0  0  0  0  0
   25.5926  -20.5858   -8.8859 C   0  0  0  0  0  0  0  0  0  0  0  0
   24.2899  -20.7173   -9.3236 C   0  0  0  0  0  0  0  0  0  0  0  0
   23.9557  -20.3961  -10.5996 C   0  0  0  0  0  0  0  0  0  0  0  0
   24.9310  -19.9314  -11.4731 C   0  0  0  0  0  0  0  0  0  0  0  0
   21.8444  -20.9177  -14.4224 C   0  0  0  0  0  0  0  0  0  0  0  0
   21.5428  -21.2129  -15.6072 O   0  0  0  0  0  0  0  0  0  0  0  0
   20.7964  -20.6462  -13.5621 O   0  0  0  0  0  0  0  0  0  0  0  0
  2  1  1  6
  2 13  1  0
  3  4  1  0
  3  2  1  0
  4  5  2  0
  5  6  1  0
  7  6  1  0
  8  7  2  0
  9  8  1  0
 10 11  1  0
 10  9  2  0
 11 12  2  0
 12  4  1  0
 12  7  1  0
 13 14  2  0
 16 17  2  0
 16 15  1  0
 18 16  1  0
 19 18  1  0
 20 19  1  1
 20 22  1  0
 21 13  1  0
 21 20  1  0
 22 23  2  0
 22 24  1  0
 24 25  1  0
 25 26  1  6
 26 27  1  0
 27 28  2  0
 28 29  1  0
 30 29  1  0
 31 30  2  0
 32 31  1  0
 33 34  1  0
 33 32  2  0
 34 35  2  0
 35 27  1  0
 35 30  1  0
 36 25  1  0
 36 38  1  0
 37 36  2  0
M  END
$$$$
