WQW.pdb
     RDKit          3D

 38 41  0  0  1  0  0  0  0  0999 V2000
   26.1401  -19.8672  -16.9302 N   0  0  0  0  0  0  0  0  0  0  0  0
   25.7118  -19.1979  -15.7095 C   0  0  1  0  0  0  0  0  0  0  0  0
   24.7954  -18.0266  -16.0418 C   0  0  0  0  0  0  0  0  0  0  0  0
   25.4519  -16.9566  -16.7863 C   0  0  0  0  0  0  0  0  0  0  0  0
   25.3195  -16.6896  -18.1240 C   0  0  0  0  0  0  0  0  0  0  0  0
   26.0868  -15.6143  -18.4534 N   0  0  0  0  0  0  0  0  0  0  0  0
   26.6990  -15.2066  -17.3291 C   0  0  0  0  0  0  0  0  0  0  0  0
   27.5774  -14.1753  -17.0839 C   0  0  0  0  0  0  0  0  0  0  0  0
   28.0831  -13.9458  -15.8174 C   0  0  0  0  0  0  0  0  0  0  0  0
   27.7131  -14.7530  -14.7670 C   0  0  0  0  0  0  0  0  0  0  0  0
   26.8367  -15.7858  -15.0010 C   0  0  0  0  0  0  0  0  0  0  0  0
   26.3210  -16.0282  -16.2674 C   0  0  0  0  0  0  0  0  0  0  0  0
   24.9177  -20.0764  -14.8266 C   0  0  0  0  0  0  0  0  0  0  0  0
   24.2382  -20.9860  -15.3141 O   0  0  0  0  0  0  0  0  0  0  0  0
   26.1187  -20.2003   -8.8643 N   0  0  0  0  0  0  0  0  0  0  0  0
   26.7864  -20.9228   -9.8936 C   0  0  0  0  0  0  0  0  0  0  0  0
   27.9766  -21.3306   -9.7564 O   0  0  0  0  0  0  0  0  0  0  0  0
   26.0899  -21.2132  -11.1606 C   0  0  0  0  0  0  0  0  0  0  0  0
   24.6998  -20.5937  -11.0929 C   0  0  0  0  0  0  0  0  0  0  0  0
   24.1661  -20.5076  -12.4597 C   0  0  2  0  0  0  0  0  0  0  0  0
   24.9520  -19.8580  -13.4360 N   0  0  0  0  0  0  0  0  0  0  0  0
   22.7063  -20.1132  -12.4587 C   0  0  0  0  0  0  0  0  0  0  0  0
   22.3942  -18.9149  -12.5906 O   0  0  0  0  0  0  0  0  0  0  0  0
   21.6688  -21.0607  -12.3123 N   0  0  0  0  0  0  0  0  0  0  0  0
   20.5336  -21.1778  -13.1940 C   0  0  1  0  0  0  0  0  0  0  0  0
   20.9462  -21.3101  -14.6429 C   0  0  0  0  0  0  0  0  0  0  0  0
   19.8018  -21.4995  -15.5379 C   0  0  0  0  0  0  0  0  0  0  0  0
   19.2010  -22.7007  -15.8294 C   0  0  0  0  0  0  0  0  0  0  0  0
   18.1903  -22.4828  -16.6851 N   0  0  0  0  0  0  0  0  0  0  0  0
   18.1329  -21.1651  -16.9467 C   0  0  0  0  0  0  0  0  0  0  0  0
   17.2761  -20.4217  -17.7632 C   0  0  0  0  0  0  0  0  0  0  0  0
   17.4463  -19.0583  -17.8472 C   0  0  0  0  0  0  0  0  0  0  0  0
   18.4482  -18.4271  -17.1374 C   0  0  0  0  0  0  0  0  0  0  0  0
   19.2850  -19.1417  -16.3422 C   0  0  0  0  0  0  0  0  0  0  0  0
   19.1332  -20.5190  -16.2407 C   0  0  0  0  0  0  0  0  0  0  0  0
   19.6327  -22.2396  -12.7473 C   0  0  0  0  0  0  0  0  0  0  0  0
   20.1282  -23.2755  -12.2344 O   0  0  0  0  0  0  0  0  0  0  0  0
   18.2543  -22.1919  -12.8469 O   0  0  0  0  0  0  0  0  0  0  0  0
  2  1  1  6
  2 13  1  0
  3  4  1  0
  3  2  1  0
  4  5  2  0
  5  6  1  0
  7  6  1  0
  8  7  2  0
  9  8  1  0
 10 11  1  0
 10  9  2  0
 11 12  2  0
 12  4  1  0
 12  7  1  0
 13 14  2  0
 16 17  2  0
 16 15  1  0
 18 16  1  0
 19 18  1  0
 20 19  1  1
 20 22  1  0
 21 13  1  0
 21 20  1  0
 22 23  2  0
 22 24  1  0
 24 25  1  0
 25 26  1  6
 26 27  1  0
 27 28  2  0
 28 29  1  0
 30 29  1  0
 31 30  2  0
 32 31  1  0
 33 34  1  0
 33 32  2  0
 34 35  2  0
 35 27  1  0
 35 30  1  0
 36 25  1  0
 36 38  1  0
 37 36  2  0
M  END
$$$$
