WQW.pdb
     RDKit          3D

 38 41  0  0  1  0  0  0  0  0999 V2000
   22.7870  -18.3044  -19.6073 N   0  0  0  0  0  0  0  0  0  0  0  0
   22.8339  -17.8912  -18.2114 C   0  0  1  0  0  0  0  0  0  0  0  0
   21.6538  -16.9827  -17.8885 C   0  0  0  0  0  0  0  0  0  0  0  0
   21.6126  -15.7624  -18.6882 C   0  0  0  0  0  0  0  0  0  0  0  0
   22.4651  -15.4214  -19.7056 C   0  0  0  0  0  0  0  0  0  0  0  0
   22.1100  -14.2085  -20.2119 N   0  0  0  0  0  0  0  0  0  0  0  0
   21.0398  -13.7882  -19.5169 C   0  0  0  0  0  0  0  0  0  0  0  0
   20.2788  -12.6444  -19.6051 C   0  0  0  0  0  0  0  0  0  0  0  0
   19.2016  -12.4294  -18.7649 C   0  0  0  0  0  0  0  0  0  0  0  0
   18.8667  -13.3658  -17.8148 C   0  0  0  0  0  0  0  0  0  0  0  0
   19.6201  -14.5115  -17.7182 C   0  0  0  0  0  0  0  0  0  0  0  0
   20.7044  -14.7406  -18.5549 C   0  0  0  0  0  0  0  0  0  0  0  0
   22.7179  -19.0287  -17.2763 C   0  0  0  0  0  0  0  0  0  0  0  0
   21.9284  -19.9473  -17.5204 O   0  0  0  0  0  0  0  0  0  0  0  0
   25.1645  -23.8589  -13.2831 N   0  0  0  0  0  0  0  0  0  0  0  0
   25.2368  -22.6172  -13.9760 C   0  0  0  0  0  0  0  0  0  0  0  0
   25.8611  -22.5008  -15.0707 O   0  0  0  0  0  0  0  0  0  0  0  0
   24.5736  -21.4233  -13.4194 C   0  0  0  0  0  0  0  0  0  0  0  0
   24.7852  -20.2661  -14.3874 C   0  0  0  0  0  0  0  0  0  0  0  0
   23.5273  -20.0349  -15.1117 C   0  0  2  0  0  0  0  0  0  0  0  0
   23.5163  -19.0434  -16.1166 N   0  0  0  0  0  0  0  0  0  0  0  0
   22.3467  -19.9911  -14.1679 C   0  0  0  0  0  0  0  0  0  0  0  0
   22.1951  -19.0071  -13.4199 O   0  0  0  0  0  0  0  0  0  0  0  0
   21.3966  -21.0342  -14.0990 N   0  0  0  0  0  0  0  0  0  0  0  0
   20.1533  -20.9654  -13.3714 C   0  0  1  0  0  0  0  0  0  0  0  0
   19.2881  -19.8112  -13.8255 C   0  0  0  0  0  0  0  0  0  0  0  0
   18.7673  -19.9992  -15.1819 C   0  0  0  0  0  0  0  0  0  0  0  0
   18.5089  -21.2083  -15.7820 C   0  0  0  0  0  0  0  0  0  0  0  0
   18.0451  -20.9859  -17.0216 N   0  0  0  0  0  0  0  0  0  0  0  0
   18.0017  -19.6575  -17.2261 C   0  0  0  0  0  0  0  0  0  0  0  0
   17.6012  -18.9060  -18.3343 C   0  0  0  0  0  0  0  0  0  0  0  0
   17.6609  -17.5323  -18.2691 C   0  0  0  0  0  0  0  0  0  0  0  0
   18.1098  -16.8988  -17.1275 C   0  0  0  0  0  0  0  0  0  0  0  0
   18.5009  -17.6213  -16.0467 C   0  0  0  0  0  0  0  0  0  0  0  0
   18.4497  -19.0091  -16.0881 C   0  0  0  0  0  0  0  0  0  0  0  0
   19.4622  -22.2540  -13.3954 C   0  0  0  0  0  0  0  0  0  0  0  0
   19.9299  -23.1765  -14.1110 O   0  0  0  0  0  0  0  0  0  0  0  0
   18.3144  -22.5416  -12.6799 O   0  0  0  0  0  0  0  0  0  0  0  0
  2  1  1  6
  2 13  1  0
  3  4  1  0
  3  2  1  0
  4  5  2  0
  5  6  1  0
  7  6  1  0
  8  7  2  0
  9  8  1  0
 10 11  1  0
 10  9  2  0
 11 12  2  0
 12  4  1  0
 12  7  1  0
 13 14  2  0
 16 17  2  0
 16 15  1  0
 18 16  1  0
 19 18  1  0
 20 19  1  1
 20 22  1  0
 21 13  1  0
 21 20  1  0
 22 23  2  0
 22 24  1  0
 24 25  1  0
 25 26  1  6
 26 27  1  0
 27 28  2  0
 28 29  1  0
 30 29  1  0
 31 30  2  0
 32 31  1  0
 33 34  1  0
 33 32  2  0
 34 35  2  0
 35 27  1  0
 35 30  1  0
 36 25  1  0
 36 38  1  0
 37 36  2  0
M  END
$$$$
