WQW.pdb
     RDKit          3D

 38 41  0  0  1  0  0  0  0  0999 V2000
   28.8632  -20.8303  -10.1091 N   0  0  0  0  0  0  0  0  0  0  0  0
   27.4201  -20.8000   -9.9137 C   0  0  1  0  0  0  0  0  0  0  0  0
   27.0116  -19.5260   -9.1840 C   0  0  0  0  0  0  0  0  0  0  0  0
   27.8733  -19.1908   -8.0547 C   0  0  0  0  0  0  0  0  0  0  0  0
   29.0195  -18.4406   -8.0941 C   0  0  0  0  0  0  0  0  0  0  0  0
   29.5469  -18.3460   -6.8425 N   0  0  0  0  0  0  0  0  0  0  0  0
   28.7371  -19.0331   -6.0196 C   0  0  0  0  0  0  0  0  0  0  0  0
   28.7884  -19.2656   -4.6637 C   0  0  0  0  0  0  0  0  0  0  0  0
   27.8197  -20.0176   -4.0247 C   0  0  0  0  0  0  0  0  0  0  0  0
   26.7744  -20.5530   -4.7406 C   0  0  0  0  0  0  0  0  0  0  0  0
   26.7136  -20.3270   -6.0951 C   0  0  0  0  0  0  0  0  0  0  0  0
   27.6793  -19.5741   -6.7500 C   0  0  0  0  0  0  0  0  0  0  0  0
   26.6730  -20.7765  -11.1877 C   0  0  0  0  0  0  0  0  0  0  0  0
   27.0312  -20.0202  -12.0967 O   0  0  0  0  0  0  0  0  0  0  0  0
   25.6672  -25.3884  -14.2379 N   0  0  0  0  0  0  0  0  0  0  0  0
   24.7750  -24.5571  -14.9729 C   0  0  0  0  0  0  0  0  0  0  0  0
   24.4989  -24.7860  -16.1866 O   0  0  0  0  0  0  0  0  0  0  0  0
   24.1463  -23.3934  -14.3206 C   0  0  0  0  0  0  0  0  0  0  0  0
   24.6489  -23.3233  -12.8842 C   0  0  0  0  0  0  0  0  0  0  0  0
   24.8771  -21.9118  -12.5438 C   0  0  2  0  0  0  0  0  0  0  0  0
   25.5591  -21.6240  -11.3418 N   0  0  0  0  0  0  0  0  0  0  0  0
   23.6375  -21.0790  -12.7819 C   0  0  0  0  0  0  0  0  0  0  0  0
   22.7538  -21.0295  -11.9059 O   0  0  0  0  0  0  0  0  0  0  0  0
   23.4384  -20.3457  -13.9727 N   0  0  0  0  0  0  0  0  0  0  0  0
   22.2687  -19.5534  -14.2630 C   0  0  1  0  0  0  0  0  0  0  0  0
   22.3968  -18.8020  -15.5691 C   0  0  0  0  0  0  0  0  0  0  0  0
   21.2496  -17.9289  -15.8298 C   0  0  0  0  0  0  0  0  0  0  0  0
   20.8339  -16.8900  -15.0318 C   0  0  0  0  0  0  0  0  0  0  0  0
   19.7527  -16.3223  -15.5884 N   0  0  0  0  0  0  0  0  0  0  0  0
   19.4686  -16.9780  -16.7275 C   0  0  0  0  0  0  0  0  0  0  0  0
   18.4568  -16.7911  -17.6734 C   0  0  0  0  0  0  0  0  0  0  0  0
   18.4004  -17.6246  -18.7675 C   0  0  0  0  0  0  0  0  0  0  0  0
   19.3274  -18.6339  -18.9344 C   0  0  0  0  0  0  0  0  0  0  0  0
   20.3134  -18.8224  -18.0203 C   0  0  0  0  0  0  0  0  0  0  0  0
   20.3914  -17.9941  -16.9076 C   0  0  0  0  0  0  0  0  0  0  0  0
   21.0544  -20.3636  -14.1756 C   0  0  0  0  0  0  0  0  0  0  0  0
   21.0491  -21.5027  -14.7088 O   0  0  0  0  0  0  0  0  0  0  0  0
   19.8914  -19.9673  -13.5412 O   0  0  0  0  0  0  0  0  0  0  0  0
  2  1  1  6
  2 13  1  0
  3  4  1  0
  3  2  1  0
  4  5  2  0
  5  6  1  0
  7  6  1  0
  8  7  2  0
  9  8  1  0
 10 11  1  0
 10  9  2  0
 11 12  2  0
 12  4  1  0
 12  7  1  0
 13 14  2  0
 16 17  2  0
 16 15  1  0
 18 16  1  0
 19 18  1  0
 20 19  1  1
 20 22  1  0
 21 13  1  0
 21 20  1  0
 22 23  2  0
 22 24  1  0
 24 25  1  0
 25 26  1  6
 26 27  1  0
 27 28  2  0
 28 29  1  0
 30 29  1  0
 31 30  2  0
 32 31  1  0
 33 34  1  0
 33 32  2  0
 34 35  2  0
 35 27  1  0
 35 30  1  0
 36 25  1  0
 36 38  1  0
 37 36  2  0
M  END
$$$$
