WQW.pdb
     RDKit          3D

 38 41  0  0  1  0  0  0  0  0999 V2000
   12.4714  -18.2118    5.3676 N   0  0  0  0  0  0  0  0  0  0  0  0
   13.8919  -18.4569    5.1586 C   0  0  1  0  0  0  0  0  0  0  0  0
   14.4046  -17.6295    3.9861 C   0  0  0  0  0  0  0  0  0  0  0  0
   15.0323  -18.4228    2.9340 C   0  0  0  0  0  0  0  0  0  0  0  0
   14.4869  -19.4997    2.2852 C   0  0  0  0  0  0  0  0  0  0  0  0
   15.3728  -19.9773    1.3683 N   0  0  0  0  0  0  0  0  0  0  0  0
   16.4700  -19.2052    1.4396 C   0  0  0  0  0  0  0  0  0  0  0  0
   17.6600  -19.2342    0.7479 C   0  0  0  0  0  0  0  0  0  0  0  0
   18.6621  -18.3152    1.0001 C   0  0  0  0  0  0  0  0  0  0  0  0
   18.4861  -17.3437    1.9576 C   0  0  0  0  0  0  0  0  0  0  0  0
   17.3017  -17.3059    2.6542 C   0  0  0  0  0  0  0  0  0  0  0  0
   16.2868  -18.2222    2.4118 C   0  0  0  0  0  0  0  0  0  0  0  0
   14.7165  -18.0490    6.3141 C   0  0  0  0  0  0  0  0  0  0  0  0
   14.3355  -17.1308    7.0479 O   0  0  0  0  0  0  0  0  0  0  0  0
   20.0677  -20.4291    8.3784 N   0  0  0  0  0  0  0  0  0  0  0  0
   19.7149  -19.4934    9.3919 C   0  0  0  0  0  0  0  0  0  0  0  0
   20.5196  -19.1779   10.3163 O   0  0  0  0  0  0  0  0  0  0  0  0
   18.3809  -18.8647    9.3819 C   0  0  0  0  0  0  0  0  0  0  0  0
   17.5779  -19.4693    8.2371 C   0  0  0  0  0  0  0  0  0  0  0  0
   16.9067  -18.3774    7.5176 C   0  0  2  0  0  0  0  0  0  0  0  0
   15.9297  -18.7209    6.5583 N   0  0  0  0  0  0  0  0  0  0  0  0
   17.8942  -17.3253    7.0650 C   0  0  0  0  0  0  0  0  0  0  0  0
   18.5473  -17.5057    6.0202 O   0  0  0  0  0  0  0  0  0  0  0  0
   18.1089  -16.1311    7.7883 N   0  0  0  0  0  0  0  0  0  0  0  0
   19.1331  -15.1615    7.4866 C   0  0  1  0  0  0  0  0  0  0  0  0
   18.7067  -13.7527    7.8336 C   0  0  0  0  0  0  0  0  0  0  0  0
   19.6607  -12.7451    7.3634 C   0  0  0  0  0  0  0  0  0  0  0  0
   19.5880  -12.0657    6.1709 C   0  0  0  0  0  0  0  0  0  0  0  0
   20.6336  -11.2288    6.0850 N   0  0  0  0  0  0  0  0  0  0  0  0
   21.3741  -11.3596    7.1999 C   0  0  0  0  0  0  0  0  0  0  0  0
   22.5519  -10.7265    7.6062 C   0  0  0  0  0  0  0  0  0  0  0  0
   23.1060  -11.0588    8.8218 C   0  0  0  0  0  0  0  0  0  0  0  0
   22.5117  -12.0043    9.6335 C   0  0  0  0  0  0  0  0  0  0  0  0
   21.3676  -12.6242    9.2462 C   0  0  0  0  0  0  0  0  0  0  0  0
   20.7891  -12.3058    8.0239 C   0  0  0  0  0  0  0  0  0  0  0  0
   20.4098  -15.5466    8.0870 C   0  0  0  0  0  0  0  0  0  0  0  0
   21.4248  -15.6249    7.3485 O   0  0  0  0  0  0  0  0  0  0  0  0
   20.5904  -15.8362    9.4270 O   0  0  0  0  0  0  0  0  0  0  0  0
  2  1  1  1
  2 13  1  0
  3  4  1  0
  3  2  1  0
  4  5  2  0
  5  6  1  0
  7  6  1  0
  8  7  2  0
  9  8  1  0
 10 11  1  0
 10  9  2  0
 11 12  2  0
 12  4  1  0
 12  7  1  0
 13 14  2  0
 16 17  2  0
 16 15  1  0
 18 16  1  0
 19 18  1  0
 20 19  1  6
 20 22  1  0
 21 13  1  0
 21 20  1  0
 22 23  2  0
 22 24  1  0
 24 25  1  0
 25 26  1  1
 26 27  1  0
 27 28  2  0
 28 29  1  0
 30 29  1  0
 31 30  2  0
 32 31  1  0
 33 34  1  0
 33 32  2  0
 34 35  2  0
 35 27  1  0
 35 30  1  0
 36 25  1  0
 36 38  1  0
 37 36  2  0
M  END
$$$$
