WQW.pdb
     RDKit          3D

 38 41  0  0  1  0  0  0  0  0999 V2000
   19.7699  -23.4889  -21.4615 N   0  0  0  0  0  0  0  0  0  0  0  0
   20.2270  -22.1921  -20.9808 C   0  0  1  0  0  0  0  0  0  0  0  0
   19.0586  -21.3973  -20.4104 C   0  0  0  0  0  0  0  0  0  0  0  0
   18.1164  -20.9262  -21.4206 C   0  0  0  0  0  0  0  0  0  0  0  0
   18.2618  -21.0154  -22.7804 C   0  0  0  0  0  0  0  0  0  0  0  0
   17.1766  -20.4671  -23.3929 N   0  0  0  0  0  0  0  0  0  0  0  0
   16.3524  -20.0349  -22.4238 C   0  0  0  0  0  0  0  0  0  0  0  0
   15.1266  -19.4101  -22.4716 C   0  0  0  0  0  0  0  0  0  0  0  0
   14.4538  -19.0549  -21.3169 C   0  0  0  0  0  0  0  0  0  0  0  0
   15.0033  -19.3229  -20.0848 C   0  0  0  0  0  0  0  0  0  0  0  0
   16.2270  -19.9463  -20.0257 C   0  0  0  0  0  0  0  0  0  0  0  0
   16.9141  -20.3085  -21.1769 C   0  0  0  0  0  0  0  0  0  0  0  0
   21.1993  -22.3049  -19.8747 C   0  0  0  0  0  0  0  0  0  0  0  0
   21.1016  -23.2305  -19.0621 O   0  0  0  0  0  0  0  0  0  0  0  0
   26.9468  -19.6652  -19.7277 N   0  0  0  0  0  0  0  0  0  0  0  0
   26.6441  -19.8577  -18.3498 C   0  0  0  0  0  0  0  0  0  0  0  0
   27.4899  -19.6112  -17.4413 O   0  0  0  0  0  0  0  0  0  0  0  0
   25.3152  -20.3573  -17.9504 C   0  0  0  0  0  0  0  0  0  0  0  0
   24.5576  -20.7559  -19.2106 C   0  0  0  0  0  0  0  0  0  0  0  0
   23.2628  -21.3245  -18.8099 C   0  0  2  0  0  0  0  0  0  0  0  0
   22.2266  -21.3477  -19.7682 N   0  0  0  0  0  0  0  0  0  0  0  0
   22.8460  -20.8375  -17.4402 C   0  0  0  0  0  0  0  0  0  0  0  0
   22.2879  -19.7302  -17.3262 O   0  0  0  0  0  0  0  0  0  0  0  0
   23.0670  -21.5970  -16.2698 N   0  0  0  0  0  0  0  0  0  0  0  0
   22.8045  -21.1343  -14.9293 C   0  0  1  0  0  0  0  0  0  0  0  0
   23.1133  -22.1884  -13.8898 C   0  0  0  0  0  0  0  0  0  0  0  0
   22.8518  -21.7250  -12.5248 C   0  0  0  0  0  0  0  0  0  0  0  0
   21.6109  -21.5167  -11.9719 C   0  0  0  0  0  0  0  0  0  0  0  0
   21.7659  -21.0926  -10.7080 N   0  0  0  0  0  0  0  0  0  0  0  0
   23.0822  -21.0256  -10.4416 C   0  0  0  0  0  0  0  0  0  0  0  0
   23.7731  -20.6478   -9.2870 C   0  0  0  0  0  0  0  0  0  0  0  0
   25.1495  -20.6736   -9.2913 C   0  0  0  0  0  0  0  0  0  0  0  0
   25.8444  -21.0659  -10.4178 C   0  0  0  0  0  0  0  0  0  0  0  0
   25.1811  -21.4343  -11.5436 C   0  0  0  0  0  0  0  0  0  0  0  0
   23.7920  -21.4168  -11.5639 C   0  0  0  0  0  0  0  0  0  0  0  0
   23.4716  -19.8574  -14.6776 C   0  0  0  0  0  0  0  0  0  0  0  0
   24.5949  -19.6493  -15.2036 O   0  0  0  0  0  0  0  0  0  0  0  0
   22.9538  -18.8437  -13.8926 O   0  0  0  0  0  0  0  0  0  0  0  0
  2  1  1  1
  2 13  1  0
  3  4  1  0
  3  2  1  0
  4  5  2  0
  5  6  1  0
  7  6  1  0
  8  7  2  0
  9  8  1  0
 10 11  1  0
 10  9  2  0
 11 12  2  0
 12  4  1  0
 12  7  1  0
 13 14  2  0
 16 17  2  0
 16 15  1  0
 18 16  1  0
 19 18  1  0
 20 19  1  6
 20 22  1  0
 21 13  1  0
 21 20  1  0
 22 23  2  0
 22 24  1  0
 24 25  1  0
 25 26  1  1
 26 27  1  0
 27 28  2  0
 28 29  1  0
 30 29  1  0
 31 30  2  0
 32 31  1  0
 33 34  1  0
 33 32  2  0
 34 35  2  0
 35 27  1  0
 35 30  1  0
 36 25  1  0
 36 38  1  0
 37 36  2  0
M  END
$$$$
