WQW.pdb
     RDKit          3D

 38 41  0  0  1  0  0  0  0  0999 V2000
   23.9224  -18.0509  -18.2064 N   0  0  0  0  0  0  0  0  0  0  0  0
   24.6080  -18.1703  -16.9268 C   0  0  1  0  0  0  0  0  0  0  0  0
   24.4352  -16.8937  -16.1127 C   0  0  0  0  0  0  0  0  0  0  0  0
   25.1396  -15.7413  -16.6659 C   0  0  0  0  0  0  0  0  0  0  0  0
   24.6365  -14.4776  -16.8335 C   0  0  0  0  0  0  0  0  0  0  0  0
   25.5912  -13.6744  -17.3785 N   0  0  0  0  0  0  0  0  0  0  0  0
   26.6894  -14.4284  -17.5530 C   0  0  0  0  0  0  0  0  0  0  0  0
   27.9351  -14.1334  -18.0594 C   0  0  0  0  0  0  0  0  0  0  0  0
   28.9260  -15.0946  -18.1396 C   0  0  0  0  0  0  0  0  0  0  0  0
   28.6825  -16.3781  -17.7095 C   0  0  0  0  0  0  0  0  0  0  0  0
   27.4419  -16.6834  -17.2022 C   0  0  0  0  0  0  0  0  0  0  0  0
   26.4373  -15.7286  -17.1158 C   0  0  0  0  0  0  0  0  0  0  0  0
   24.0554  -19.2492  -16.0829 C   0  0  0  0  0  0  0  0  0  0  0  0
   22.8917  -19.6280  -16.2529 O   0  0  0  0  0  0  0  0  0  0  0  0
   27.7100  -23.0306  -12.6617 N   0  0  0  0  0  0  0  0  0  0  0  0
   27.7779  -22.6738  -14.0385 C   0  0  0  0  0  0  0  0  0  0  0  0
   28.7235  -23.0665  -14.7823 O   0  0  0  0  0  0  0  0  0  0  0  0
   26.7284  -21.8245  -14.6319 C   0  0  0  0  0  0  0  0  0  0  0  0
   25.6180  -21.6508  -13.6035 C   0  0  0  0  0  0  0  0  0  0  0  0
   24.5271  -20.8882  -14.2270 C   0  0  2  0  0  0  0  0  0  0  0  0
   24.8730  -19.8292  -15.0939 N   0  0  0  0  0  0  0  0  0  0  0  0
   23.4426  -20.5571  -13.2264 C   0  0  0  0  0  0  0  0  0  0  0  0
   23.5628  -19.5520  -12.5012 O   0  0  0  0  0  0  0  0  0  0  0  0
   22.2842  -21.3519  -13.0787 N   0  0  0  0  0  0  0  0  0  0  0  0
   21.1947  -21.0561  -12.1811 C   0  0  1  0  0  0  0  0  0  0  0  0
   20.6306  -19.6707  -12.4037 C   0  0  0  0  0  0  0  0  0  0  0  0
   20.0312  -19.5148  -13.7314 C   0  0  0  0  0  0  0  0  0  0  0  0
   18.9980  -20.2658  -14.2388 C   0  0  0  0  0  0  0  0  0  0  0  0
   18.7207  -19.8378  -15.4803 N   0  0  0  0  0  0  0  0  0  0  0  0
   19.5568  -18.8273  -15.7769 C   0  0  0  0  0  0  0  0  0  0  0  0
   19.6863  -18.0424  -16.9261 C   0  0  0  0  0  0  0  0  0  0  0  0
   20.6465  -17.0565  -16.9592 C   0  0  0  0  0  0  0  0  0  0  0  0
   21.4742  -16.8408  -15.8756 C   0  0  0  0  0  0  0  0  0  0  0  0
   21.3552  -17.5988  -14.7556 C   0  0  0  0  0  0  0  0  0  0  0  0
   20.3936  -18.5999  -14.6978 C   0  0  0  0  0  0  0  0  0  0  0  0
   20.1816  -22.1098  -12.2246 C   0  0  0  0  0  0  0  0  0  0  0  0
   19.2362  -22.0726  -11.3959 O   0  0  0  0  0  0  0  0  0  0  0  0
   20.1826  -23.1619  -13.1218 O   0  0  0  0  0  0  0  0  0  0  0  0
  2  1  1  6
  2 13  1  0
  3  4  1  0
  3  2  1  0
  4  5  2  0
  5  6  1  0
  7  6  1  0
  8  7  2  0
  9  8  1  0
 10 11  1  0
 10  9  2  0
 11 12  2  0
 12  4  1  0
 12  7  1  0
 13 14  2  0
 16 17  2  0
 16 15  1  0
 18 16  1  0
 19 18  1  0
 20 19  1  1
 20 22  1  0
 21 13  1  0
 21 20  1  0
 22 23  2  0
 22 24  1  0
 24 25  1  0
 25 26  1  6
 26 27  1  0
 27 28  2  0
 28 29  1  0
 30 29  1  0
 31 30  2  0
 32 31  1  0
 33 34  1  0
 33 32  2  0
 34 35  2  0
 35 27  1  0
 35 30  1  0
 36 25  1  0
 36 38  1  0
 37 36  2  0
M  END
$$$$
