WQW.pdb
     RDKit          3D

 38 41  0  0  1  0  0  0  0  0999 V2000
   28.2595  -20.5637  -13.6891 N   0  0  0  0  0  0  0  0  0  0  0  0
   27.2731  -21.4983  -13.1646 C   0  0  1  0  0  0  0  0  0  0  0  0
   26.7963  -21.0477  -11.7891 C   0  0  0  0  0  0  0  0  0  0  0  0
   27.8477  -21.0295  -10.7769 C   0  0  0  0  0  0  0  0  0  0  0  0
   29.1756  -21.3077  -10.9710 C   0  0  0  0  0  0  0  0  0  0  0  0
   29.8448  -21.1865   -9.7916 N   0  0  0  0  0  0  0  0  0  0  0  0
   28.9431  -20.8340   -8.8601 C   0  0  0  0  0  0  0  0  0  0  0  0
   29.0662  -20.5788   -7.5129 C   0  0  0  0  0  0  0  0  0  0  0  0
   27.9728  -20.2238   -6.7443 C   0  0  0  0  0  0  0  0  0  0  0  0
   26.7276  -20.1174   -7.3186 C   0  0  0  0  0  0  0  0  0  0  0  0
   26.5935  -20.3702   -8.6632 C   0  0  0  0  0  0  0  0  0  0  0  0
   27.6825  -20.7278   -9.4472 C   0  0  0  0  0  0  0  0  0  0  0  0
   26.0546  -21.5672  -13.9966 C   0  0  0  0  0  0  0  0  0  0  0  0
   25.6323  -20.5485  -14.5540 O   0  0  0  0  0  0  0  0  0  0  0  0
   25.0091  -26.8514  -16.1755 N   0  0  0  0  0  0  0  0  0  0  0  0
   25.8762  -25.8476  -16.6931 C   0  0  0  0  0  0  0  0  0  0  0  0
   26.9424  -26.1412  -17.3084 O   0  0  0  0  0  0  0  0  0  0  0  0
   25.5406  -24.4223  -16.5173 C   0  0  0  0  0  0  0  0  0  0  0  0
   24.2541  -24.3323  -15.7063 C   0  0  0  0  0  0  0  0  0  0  0  0
   24.2716  -23.0708  -14.9522 C   0  0  2  0  0  0  0  0  0  0  0  0
   25.3942  -22.8026  -14.1394 N   0  0  0  0  0  0  0  0  0  0  0  0
   22.9367  -22.8020  -14.2946 C   0  0  0  0  0  0  0  0  0  0  0  0
   22.5168  -23.5798  -13.4175 O   0  0  0  0  0  0  0  0  0  0  0  0
   22.1360  -21.6903  -14.6392 N   0  0  0  0  0  0  0  0  0  0  0  0
   20.8707  -21.3686  -14.0265 C   0  0  1  0  0  0  0  0  0  0  0  0
   20.9579  -20.1440  -13.1435 C   0  0  0  0  0  0  0  0  0  0  0  0
   21.7334  -20.3848  -11.9240 C   0  0  0  0  0  0  0  0  0  0  0  0
   23.0225  -19.9660  -11.6969 C   0  0  0  0  0  0  0  0  0  0  0  0
   23.4004  -20.3715  -10.4747 N   0  0  0  0  0  0  0  0  0  0  0  0
   22.3777  -21.0417   -9.9153 C   0  0  0  0  0  0  0  0  0  0  0  0
   22.2511  -21.6625   -8.6695 C   0  0  0  0  0  0  0  0  0  0  0  0
   21.0672  -22.2881   -8.3500 C   0  0  0  0  0  0  0  0  0  0  0  0
   20.0151  -22.3063   -9.2435 C   0  0  0  0  0  0  0  0  0  0  0  0
   20.1297  -21.7060  -10.4558 C   0  0  0  0  0  0  0  0  0  0  0  0
   21.3145  -21.0679  -10.8014 C   0  0  0  0  0  0  0  0  0  0  0  0
   19.8103  -21.2866  -15.0303 C   0  0  0  0  0  0  0  0  0  0  0  0
   20.1193  -20.9848  -16.2115 O   0  0  0  0  0  0  0  0  0  0  0  0
   18.4710  -21.5193  -14.7768 O   0  0  0  0  0  0  0  0  0  0  0  0
  2  1  1  6
  2 13  1  0
  3  4  1  0
  3  2  1  0
  4  5  2  0
  5  6  1  0
  7  6  1  0
  8  7  2  0
  9  8  1  0
 10 11  1  0
 10  9  2  0
 11 12  2  0
 12  4  1  0
 12  7  1  0
 13 14  2  0
 16 17  2  0
 16 15  1  0
 18 16  1  0
 19 18  1  0
 20 19  1  1
 20 22  1  0
 21 13  1  0
 21 20  1  0
 22 23  2  0
 22 24  1  0
 24 25  1  0
 25 26  1  6
 26 27  1  0
 27 28  2  0
 28 29  1  0
 30 29  1  0
 31 30  2  0
 32 31  1  0
 33 34  1  0
 33 32  2  0
 34 35  2  0
 35 27  1  0
 35 30  1  0
 36 25  1  0
 36 38  1  0
 37 36  2  0
M  END
$$$$
