WQW.pdb
     RDKit          3D

 38 41  0  0  1  0  0  0  0  0999 V2000
   20.6150  -23.2581  -16.5032 N   0  0  0  0  0  0  0  0  0  0  0  0
   21.3971  -22.0373  -16.3638 C   0  0  1  0  0  0  0  0  0  0  0  0
   20.6382  -21.0155  -15.5257 C   0  0  0  0  0  0  0  0  0  0  0  0
   19.4524  -20.4763  -16.1842 C   0  0  0  0  0  0  0  0  0  0  0  0
   19.4043  -19.8604  -17.4075 C   0  0  0  0  0  0  0  0  0  0  0  0
   18.1227  -19.4937  -17.6842 N   0  0  0  0  0  0  0  0  0  0  0  0
   17.3681  -19.8766  -16.6407 C   0  0  0  0  0  0  0  0  0  0  0  0
   16.0192  -19.7607  -16.3911 C   0  0  0  0  0  0  0  0  0  0  0  0
   15.4591  -20.2423  -15.2220 C   0  0  0  0  0  0  0  0  0  0  0  0
   16.2487  -20.8535  -14.2762 C   0  0  0  0  0  0  0  0  0  0  0  0
   17.5970  -20.9743  -14.5153 C   0  0  0  0  0  0  0  0  0  0  0  0
   18.1731  -20.4953  -15.6845 C   0  0  0  0  0  0  0  0  0  0  0  0
   22.6725  -22.2560  -15.6516 C   0  0  0  0  0  0  0  0  0  0  0  0
   22.6876  -22.9119  -14.6046 O   0  0  0  0  0  0  0  0  0  0  0  0
   27.4965  -23.9655  -17.3276 N   0  0  0  0  0  0  0  0  0  0  0  0
   28.1344  -23.2652  -16.2646 C   0  0  0  0  0  0  0  0  0  0  0  0
   29.1866  -23.7038  -15.7151 O   0  0  0  0  0  0  0  0  0  0  0  0
   27.5692  -21.9935  -15.7765 C   0  0  0  0  0  0  0  0  0  0  0  0
   26.2951  -21.7063  -16.5609 C   0  0  0  0  0  0  0  0  0  0  0  0
   25.1536  -21.8117  -15.6411 C   0  0  2  0  0  0  0  0  0  0  0  0
   23.8551  -21.7086  -16.1852 N   0  0  0  0  0  0  0  0  0  0  0  0
   25.3790  -20.9991  -14.3858 C   0  0  0  0  0  0  0  0  0  0  0  0
   25.0832  -19.7896  -14.3763 O   0  0  0  0  0  0  0  0  0  0  0  0
   25.9187  -21.5633  -13.2085 N   0  0  0  0  0  0  0  0  0  0  0  0
   26.1602  -20.8370  -11.9862 C   0  0  1  0  0  0  0  0  0  0  0  0
   26.5597  -21.7494  -10.8483 C   0  0  0  0  0  0  0  0  0  0  0  0
   26.7261  -21.0297   -9.5830 C   0  0  0  0  0  0  0  0  0  0  0  0
   25.7590  -20.2874   -8.9487 C   0  0  0  0  0  0  0  0  0  0  0  0
   26.2758  -19.7768   -7.8203 N   0  0  0  0  0  0  0  0  0  0  0  0
   27.5553  -20.1783   -7.7205 C   0  0  0  0  0  0  0  0  0  0  0  0
   28.5285  -19.9296   -6.7486 C   0  0  0  0  0  0  0  0  0  0  0  0
   29.7821  -20.4776   -6.9004 C   0  0  0  0  0  0  0  0  0  0  0  0
   30.0812  -21.2629   -7.9958 C   0  0  0  0  0  0  0  0  0  0  0  0
   29.1418  -21.5092   -8.9445 C   0  0  0  0  0  0  0  0  0  0  0  0
   27.8691  -20.9675   -8.8136 C   0  0  0  0  0  0  0  0  0  0  0  0
   27.1006  -19.7393  -12.2082 C   0  0  0  0  0  0  0  0  0  0  0  0
   28.1389  -19.9610  -12.8825 O   0  0  0  0  0  0  0  0  0  0  0  0
   26.9338  -18.4541  -11.7258 O   0  0  0  0  0  0  0  0  0  0  0  0
  2  1  1  1
  2 13  1  0
  3  4  1  0
  3  2  1  0
  4  5  2  0
  5  6  1  0
  7  6  1  0
  8  7  2  0
  9  8  1  0
 10 11  1  0
 10  9  2  0
 11 12  2  0
 12  4  1  0
 12  7  1  0
 13 14  2  0
 16 17  2  0
 16 15  1  0
 18 16  1  0
 19 18  1  0
 20 19  1  6
 20 22  1  0
 21 13  1  0
 21 20  1  0
 22 23  2  0
 22 24  1  0
 24 25  1  0
 25 26  1  1
 26 27  1  0
 27 28  2  0
 28 29  1  0
 30 29  1  0
 31 30  2  0
 32 31  1  0
 33 34  1  0
 33 32  2  0
 34 35  2  0
 35 27  1  0
 35 30  1  0
 36 25  1  0
 36 38  1  0
 37 36  2  0
M  END
$$$$
