QWL.pdb
     RDKit          3D

 32 33  0  0  1  0  0  0  0  0999 V2000
   13.9371  -16.5302   16.9510 N   0  0  0  0  0  0  0  0  0  0  0  0
   12.5636  -16.8998   17.0937 C   0  0  0  0  0  0  0  0  0  0  0  0
   11.7689  -16.4240   16.2697 O   0  0  0  0  0  0  0  0  0  0  0  0
   12.1841  -17.7984   18.1854 C   0  0  0  0  0  0  0  0  0  0  0  0
   12.1951  -17.2486   19.5606 C   0  0  0  0  0  0  0  0  0  0  0  0
   11.7491  -18.1595   20.6671 C   0  0  2  0  0  0  0  0  0  0  0  0
   10.8314  -19.1672   20.3083 N   0  0  0  0  0  0  0  0  0  0  0  0
   11.2840  -17.2462   21.7737 C   0  0  0  0  0  0  0  0  0  0  0  0
   12.0769  -16.3112   22.0263 O   0  0  0  0  0  0  0  0  0  0  0  0
   10.0728  -17.4057   22.4760 N   0  0  0  0  0  0  0  0  0  0  0  0
    9.5356  -16.5848   23.5046 C   0  0  1  0  0  0  0  0  0  0  0  0
    8.0553  -16.4883   23.5681 C   0  0  0  0  0  0  0  0  0  0  0  0
    7.3984  -16.0561   22.3129 C   0  0  0  0  0  0  0  0  0  0  0  0
    6.5041  -16.7152   21.5390 C   0  0  0  0  0  0  0  0  0  0  0  0
    6.2114  -15.9149   20.4937 N   0  0  0  0  0  0  0  0  0  0  0  0
    6.9004  -14.7534   20.5795 C   0  0  0  0  0  0  0  0  0  0  0  0
    6.9510  -13.6354   19.7764 C   0  0  0  0  0  0  0  0  0  0  0  0
    7.7652  -12.5600   20.1068 C   0  0  0  0  0  0  0  0  0  0  0  0
    8.5260  -12.6194   21.2497 C   0  0  0  0  0  0  0  0  0  0  0  0
    8.4549  -13.7485   22.0312 C   0  0  0  0  0  0  0  0  0  0  0  0
    7.6476  -14.8374   21.7213 C   0  0  0  0  0  0  0  0  0  0  0  0
   10.0799  -16.8568   24.8832 C   0  0  0  0  0  0  0  0  0  0  0  0
   10.9120  -17.7557   25.1467 O   0  0  0  0  0  0  0  0  0  0  0  0
    8.9181  -13.0419   28.7291 C   0  0  0  0  0  0  0  0  0  0  0  0
    9.8125  -13.8562   27.7365 C   0  0  1  0  0  0  0  0  0  0  0  0
   11.1674  -13.2136   27.8837 C   0  0  0  0  0  0  0  0  0  0  0  0
    9.6907  -15.2529   28.1983 C   0  0  0  0  0  0  0  0  0  0  0  0
   10.1871  -16.3640   27.3585 C   0  0  2  0  0  0  0  0  0  0  0  0
    9.6660  -16.0815   25.9902 N   0  0  0  0  0  0  0  0  0  0  0  0
    9.7421  -17.7211   27.6525 C   0  0  0  0  0  0  0  0  0  0  0  0
    8.7080  -18.3638   26.9371 O   0  0  0  0  0  0  0  0  0  0  0  0
   10.2397  -18.4246   28.5644 O   0  0  0  0  0  0  0  0  0  0  0  0
  2  1  1  0
  3  2  2  0
  4  2  1  0
  5  4  1  0
  6  8  1  0
  6  5  1  0
  6  7  1  6
  8  9  2  0
 10 11  1  0
 10  8  1  0
 11 12  1  1
 12 13  1  0
 13 21  1  0
 14 15  1  0
 14 13  2  0
 15 16  1  0
 16 21  2  0
 16 17  1  0
 17 18  2  0
 18 19  1  0
 20 19  2  0
 21 20  1  0
 22 11  1  0
 23 22  2  0
 25 24  1  1
 26 25  1  0
 27 25  1  0
 28 27  1  1
 28 29  1  0
 29 22  1  0
 30 31  1  0
 30 28  1  0
 32 30  2  0
M  END
$$$$
