QWL.pdb
     RDKit          3D

 32 33  0  0  1  0  0  0  0  0999 V2000
   10.1930  -21.4200   21.2823 N   0  0  0  0  0  0  0  0  0  0  0  0
   10.5390  -20.4376   20.3032 C   0  0  0  0  0  0  0  0  0  0  0  0
    9.7474  -20.2849   19.3615 O   0  0  0  0  0  0  0  0  0  0  0  0
   11.7854  -19.6870   20.4663 C   0  0  0  0  0  0  0  0  0  0  0  0
   11.7105  -18.3741   21.1476 C   0  0  0  0  0  0  0  0  0  0  0  0
   10.8727  -17.3112   20.4985 C   0  0  2  0  0  0  0  0  0  0  0  0
   11.4385  -16.6768   19.3742 N   0  0  0  0  0  0  0  0  0  0  0  0
   10.4732  -16.3795   21.6153 C   0  0  0  0  0  0  0  0  0  0  0  0
   11.3750  -15.5816   21.9569 O   0  0  0  0  0  0  0  0  0  0  0  0
    9.2081  -16.3836   22.2360 N   0  0  0  0  0  0  0  0  0  0  0  0
    8.8312  -15.7934   23.4729 C   0  0  1  0  0  0  0  0  0  0  0  0
    7.5398  -16.2411   24.0528 C   0  0  0  0  0  0  0  0  0  0  0  0
    6.8227  -15.2222   24.8536 C   0  0  0  0  0  0  0  0  0  0  0  0
    5.8168  -15.3810   25.7459 C   0  0  0  0  0  0  0  0  0  0  0  0
    5.4876  -14.1553   26.2018 N   0  0  0  0  0  0  0  0  0  0  0  0
    6.2620  -13.2102   25.6201 C   0  0  0  0  0  0  0  0  0  0  0  0
    6.3154  -11.8393   25.7444 C   0  0  0  0  0  0  0  0  0  0  0  0
    7.2284  -11.0947   25.0092 C   0  0  0  0  0  0  0  0  0  0  0  0
    8.0850  -11.7402   24.1500 C   0  0  0  0  0  0  0  0  0  0  0  0
    8.0080  -13.1092   24.0468 C   0  0  0  0  0  0  0  0  0  0  0  0
    7.1027  -13.8760   24.7722 C   0  0  0  0  0  0  0  0  0  0  0  0
    9.8957  -15.8198   24.5393 C   0  0  0  0  0  0  0  0  0  0  0  0
   10.7358  -14.9076   24.7178 O   0  0  0  0  0  0  0  0  0  0  0  0
    9.0059  -13.9844   28.4996 C   0  0  0  0  0  0  0  0  0  0  0  0
    9.9469  -14.4995   27.3604 C   0  0  1  0  0  0  0  0  0  0  0  0
   11.2159  -13.7170   27.5787 C   0  0  0  0  0  0  0  0  0  0  0  0
   10.0236  -15.9568   27.5823 C   0  0  0  0  0  0  0  0  0  0  0  0
   10.8167  -16.8109   26.6725 C   0  0  2  0  0  0  0  0  0  0  0  0
   10.0032  -16.9144   25.4269 N   0  0  0  0  0  0  0  0  0  0  0  0
   11.0831  -18.1917   27.0578 C   0  0  0  0  0  0  0  0  0  0  0  0
   12.1154  -18.5560   27.9500 O   0  0  0  0  0  0  0  0  0  0  0  0
   10.4196  -19.1653   26.6268 O   0  0  0  0  0  0  0  0  0  0  0  0
  2  1  1  0
  3  2  2  0
  4  2  1  0
  5  4  1  0
  6  8  1  0
  6  5  1  0
  6  7  1  6
  8  9  2  0
 10 11  1  0
 10  8  1  0
 11 12  1  1
 12 13  1  0
 13 21  1  0
 14 15  1  0
 14 13  2  0
 15 16  1  0
 16 21  2  0
 16 17  1  0
 17 18  2  0
 18 19  1  0
 20 19  2  0
 21 20  1  0
 22 11  1  0
 23 22  2  0
 25 24  1  1
 26 25  1  0
 27 25  1  0
 28 27  1  1
 28 29  1  0
 29 22  1  0
 30 31  1  0
 30 28  1  0
 32 30  2  0
M  END
$$$$
