QWL.pdb
     RDKit          3D

 32 33  0  0  1  0  0  0  0  0999 V2000
    9.0764  -12.9208   17.6023 N   0  0  0  0  0  0  0  0  0  0  0  0
    8.4247  -14.1193   17.1751 C   0  0  0  0  0  0  0  0  0  0  0  0
    8.2114  -14.2360   15.9595 O   0  0  0  0  0  0  0  0  0  0  0  0
    8.0521  -15.1168   18.1799 C   0  0  0  0  0  0  0  0  0  0  0  0
    8.4594  -14.8632   19.5811 C   0  0  0  0  0  0  0  0  0  0  0  0
    9.2146  -15.9534   20.2840 C   0  0  2  0  0  0  0  0  0  0  0  0
    8.7469  -17.2663   20.0736 N   0  0  0  0  0  0  0  0  0  0  0  0
    9.2762  -15.5287   21.7299 C   0  0  0  0  0  0  0  0  0  0  0  0
    9.6634  -14.3501   21.8961 O   0  0  0  0  0  0  0  0  0  0  0  0
    8.9349  -16.3604   22.8151 N   0  0  0  0  0  0  0  0  0  0  0  0
    8.9609  -16.0540   24.2028 C   0  0  1  0  0  0  0  0  0  0  0  0
    7.7885  -16.4958   24.9996 C   0  0  0  0  0  0  0  0  0  0  0  0
    6.7147  -15.4871   25.1516 C   0  0  0  0  0  0  0  0  0  0  0  0
    5.3720  -15.6583   25.1841 C   0  0  0  0  0  0  0  0  0  0  0  0
    4.8151  -14.4380   25.3234 N   0  0  0  0  0  0  0  0  0  0  0  0
    5.7735  -13.4843   25.3810 C   0  0  0  0  0  0  0  0  0  0  0  0
    5.7216  -12.1142   25.5142 C   0  0  0  0  0  0  0  0  0  0  0  0
    6.8866  -11.3590   25.5434 C   0  0  0  0  0  0  0  0  0  0  0  0
    8.1012  -11.9931   25.4377 C   0  0  0  0  0  0  0  0  0  0  0  0
    8.1214  -13.3616   25.3055 C   0  0  0  0  0  0  0  0  0  0  0  0
    6.9689  -14.1389   25.2737 C   0  0  0  0  0  0  0  0  0  0  0  0
   10.2288  -16.4470   24.9161 C   0  0  0  0  0  0  0  0  0  0  0  0
   11.2040  -17.0052   24.3619 O   0  0  0  0  0  0  0  0  0  0  0  0
   10.3463  -15.2315   30.3301 C   0  0  0  0  0  0  0  0  0  0  0  0
   10.3774  -15.2116   28.7657 C   0  0  1  0  0  0  0  0  0  0  0  0
   10.6455  -13.7645   28.4427 C   0  0  0  0  0  0  0  0  0  0  0  0
   11.4379  -16.1748   28.4101 C   0  0  0  0  0  0  0  0  0  0  0  0
   11.6518  -16.5645   26.9999 C   0  0  2  0  0  0  0  0  0  0  0  0
   10.3895  -16.1947   26.2975 N   0  0  0  0  0  0  0  0  0  0  0  0
   11.8546  -17.9731   26.6825 C   0  0  0  0  0  0  0  0  0  0  0  0
   10.7939  -18.8528   26.3738 O   0  0  0  0  0  0  0  0  0  0  0  0
   12.9854  -18.5163   26.6604 O   0  0  0  0  0  0  0  0  0  0  0  0
  2  1  1  0
  3  2  2  0
  4  2  1  0
  5  4  1  0
  6  8  1  0
  6  5  1  0
  6  7  1  1
  8  9  2  0
 10 11  1  0
 10  8  1  0
 11 12  1  1
 12 13  1  0
 13 21  1  0
 14 15  1  0
 14 13  2  0
 15 16  1  0
 16 21  2  0
 16 17  1  0
 17 18  2  0
 18 19  1  0
 20 19  2  0
 21 20  1  0
 22 11  1  0
 23 22  2  0
 25 24  1  1
 26 25  1  0
 27 25  1  0
 28 27  1  1
 28 29  1  0
 29 22  1  0
 30 31  1  0
 30 28  1  0
 32 30  2  0
M  END
$$$$
