QWL.pdb
     RDKit          3D

 32 33  0  0  1  0  0  0  0  0999 V2000
    9.0448  -13.3713   17.0515 N   0  0  0  0  0  0  0  0  0  0  0  0
    8.1680  -14.2053   17.8126 C   0  0  0  0  0  0  0  0  0  0  0  0
    6.9841  -13.8461   17.8911 O   0  0  0  0  0  0  0  0  0  0  0  0
    8.7110  -15.4091   18.4447 C   0  0  0  0  0  0  0  0  0  0  0  0
    9.2909  -15.2691   19.8003 C   0  0  0  0  0  0  0  0  0  0  0  0
    9.6813  -16.5310   20.5131 C   0  0  2  0  0  0  0  0  0  0  0  0
    8.8464  -17.6465   20.3006 N   0  0  0  0  0  0  0  0  0  0  0  0
    9.8532  -16.1367   21.9587 C   0  0  0  0  0  0  0  0  0  0  0  0
   10.6865  -15.2203   22.1386 O   0  0  0  0  0  0  0  0  0  0  0  0
    9.1534  -16.7276   23.0297 N   0  0  0  0  0  0  0  0  0  0  0  0
    9.1962  -16.3826   24.4079 C   0  0  1  0  0  0  0  0  0  0  0  0
    8.0091  -16.7525   25.2193 C   0  0  0  0  0  0  0  0  0  0  0  0
    6.8593  -15.8252   25.1114 C   0  0  0  0  0  0  0  0  0  0  0  0
    5.5748  -16.0836   24.7699 C   0  0  0  0  0  0  0  0  0  0  0  0
    4.9083  -14.9115   24.7988 N   0  0  0  0  0  0  0  0  0  0  0  0
    5.7390  -13.9034   25.1521 C   0  0  0  0  0  0  0  0  0  0  0  0
    5.5474  -12.5494   25.3185 C   0  0  0  0  0  0  0  0  0  0  0  0
    6.5995  -11.7241   25.6932 C   0  0  0  0  0  0  0  0  0  0  0  0
    7.8430  -12.2719   25.8985 C   0  0  0  0  0  0  0  0  0  0  0  0
    8.0039  -13.6263   25.7244 C   0  0  0  0  0  0  0  0  0  0  0  0
    6.9661  -14.4727   25.3497 C   0  0  0  0  0  0  0  0  0  0  0  0
   10.4490  -16.8069   25.1299 C   0  0  0  0  0  0  0  0  0  0  0  0
   11.3677  -17.4809   24.6087 O   0  0  0  0  0  0  0  0  0  0  0  0
   10.7744  -15.3334   30.4834 C   0  0  0  0  0  0  0  0  0  0  0  0
   10.6190  -15.4910   28.9344 C   0  0  1  0  0  0  0  0  0  0  0  0
   10.5064  -14.0684   28.4507 C   0  0  0  0  0  0  0  0  0  0  0  0
   11.8249  -16.2353   28.5211 C   0  0  0  0  0  0  0  0  0  0  0  0
   11.8609  -16.9378   27.2205 C   0  0  2  0  0  0  0  0  0  0  0  0
   10.6607  -16.4512   26.4813 N   0  0  0  0  0  0  0  0  0  0  0  0
   11.7442  -18.3911   27.2027 C   0  0  0  0  0  0  0  0  0  0  0  0
   10.5463  -19.0629   26.8740 O   0  0  0  0  0  0  0  0  0  0  0  0
   12.6962  -19.1600   27.4795 O   0  0  0  0  0  0  0  0  0  0  0  0
  2  1  1  0
  3  2  2  0
  4  2  1  0
  5  4  1  0
  6  8  1  0
  6  5  1  0
  6  7  1  1
  8  9  2  0
 10 11  1  0
 10  8  1  0
 11 12  1  1
 12 13  1  0
 13 21  1  0
 14 15  1  0
 14 13  2  0
 15 16  1  0
 16 21  2  0
 16 17  1  0
 17 18  2  0
 18 19  1  0
 20 19  2  0
 21 20  1  0
 22 11  1  0
 23 22  2  0
 25 24  1  1
 26 25  1  0
 27 25  1  0
 28 27  1  1
 28 29  1  0
 29 22  1  0
 30 31  1  0
 30 28  1  0
 32 30  2  0
M  END
$$$$
