QWL.pdb
     RDKit          3D

 32 33  0  0  1  0  0  0  0  0999 V2000
   11.5389  -22.3739   24.5358 N   0  0  0  0  0  0  0  0  0  0  0  0
   12.6734  -21.7332   23.9478 C   0  0  0  0  0  0  0  0  0  0  0  0
   13.7893  -22.1609   24.2775 O   0  0  0  0  0  0  0  0  0  0  0  0
   12.4541  -20.6291   23.0117 C   0  0  0  0  0  0  0  0  0  0  0  0
   11.0533  -20.2639   22.6990 C   0  0  0  0  0  0  0  0  0  0  0  0
   10.8305  -19.3105   21.5613 C   0  0  2  0  0  0  0  0  0  0  0  0
   11.7694  -19.3679   20.5117 N   0  0  0  0  0  0  0  0  0  0  0  0
   10.6802  -17.9529   22.2010 C   0  0  0  0  0  0  0  0  0  0  0  0
   11.7090  -17.2433   22.1323 O   0  0  0  0  0  0  0  0  0  0  0  0
    9.5019  -17.4976   22.8256 N   0  0  0  0  0  0  0  0  0  0  0  0
    9.2354  -16.2147   23.3765 C   0  0  1  0  0  0  0  0  0  0  0  0
    7.8473  -15.7081   23.2314 C   0  0  0  0  0  0  0  0  0  0  0  0
    7.6899  -14.2456   23.4044 C   0  0  0  0  0  0  0  0  0  0  0  0
    8.1287  -13.2342   22.6185 C   0  0  0  0  0  0  0  0  0  0  0  0
    7.7521  -12.0790   23.2035 N   0  0  0  0  0  0  0  0  0  0  0  0
    7.0794  -12.3270   24.3512 C   0  0  0  0  0  0  0  0  0  0  0  0
    6.5028  -11.5036   25.2931 C   0  0  0  0  0  0  0  0  0  0  0  0
    5.8612  -12.0356   26.4039 C   0  0  0  0  0  0  0  0  0  0  0  0
    5.8050  -13.4000   26.5580 C   0  0  0  0  0  0  0  0  0  0  0  0
    6.3898  -14.1964   25.6017 C   0  0  0  0  0  0  0  0  0  0  0  0
    7.0377  -13.6873   24.4815 C   0  0  0  0  0  0  0  0  0  0  0  0
    9.6908  -16.0284   24.8009 C   0  0  0  0  0  0  0  0  0  0  0  0
    9.4307  -15.0194   25.4967 O   0  0  0  0  0  0  0  0  0  0  0  0
    9.1801  -13.5737   27.8315 C   0  0  0  0  0  0  0  0  0  0  0  0
   10.3752  -14.4393   27.3110 C   0  0  1  0  0  0  0  0  0  0  0  0
   11.5049  -14.0614   28.2337 C   0  0  0  0  0  0  0  0  0  0  0  0
    9.8854  -15.8288   27.4019 C   0  0  0  0  0  0  0  0  0  0  0  0
   10.7195  -16.9490   26.9164 C   0  0  2  0  0  0  0  0  0  0  0  0
   10.4613  -17.0200   25.4494 N   0  0  0  0  0  0  0  0  0  0  0  0
   10.4456  -18.2943   27.4074 C   0  0  0  0  0  0  0  0  0  0  0  0
    9.9991  -19.3421   26.5725 O   0  0  0  0  0  0  0  0  0  0  0  0
   10.5819  -18.6278   28.6092 O   0  0  0  0  0  0  0  0  0  0  0  0
  2  1  1  0
  3  2  2  0
  4  2  1  0
  5  4  1  0
  6  8  1  0
  6  5  1  0
  6  7  1  6
  8  9  2  0
 10 11  1  0
 10  8  1  0
 11 12  1  1
 12 13  1  0
 13 21  1  0
 14 15  1  0
 14 13  2  0
 15 16  1  0
 16 21  2  0
 16 17  1  0
 17 18  2  0
 18 19  1  0
 20 19  2  0
 21 20  1  0
 22 11  1  0
 23 22  2  0
 25 24  1  1
 26 25  1  0
 27 25  1  0
 28 27  1  1
 28 29  1  0
 29 22  1  0
 30 31  1  0
 30 28  1  0
 32 30  2  0
M  END
$$$$
