QWL.pdb
     RDKit          3D

 32 33  0  0  1  0  0  0  0  0999 V2000
    9.3538  -17.7198   16.1077 N   0  0  0  0  0  0  0  0  0  0  0  0
   10.5292  -17.6057   16.9133 C   0  0  0  0  0  0  0  0  0  0  0  0
   11.2400  -18.6168   17.0101 O   0  0  0  0  0  0  0  0  0  0  0  0
   10.8162  -16.3271   17.5662 C   0  0  0  0  0  0  0  0  0  0  0  0
   10.2510  -16.1055   18.9172 C   0  0  0  0  0  0  0  0  0  0  0  0
   10.6524  -17.0697   19.9953 C   0  0  2  0  0  0  0  0  0  0  0  0
   10.1874  -18.3921   19.8487 N   0  0  0  0  0  0  0  0  0  0  0  0
   10.2646  -16.4036   21.2918 C   0  0  0  0  0  0  0  0  0  0  0  0
   10.7956  -15.2835   21.4649 O   0  0  0  0  0  0  0  0  0  0  0  0
    9.3870  -16.9663   22.2399 N   0  0  0  0  0  0  0  0  0  0  0  0
    9.0290  -16.4601   23.5190 C   0  0  1  0  0  0  0  0  0  0  0  0
    7.7089  -16.8825   24.0515 C   0  0  0  0  0  0  0  0  0  0  0  0
    7.0339  -15.8906   24.9198 C   0  0  0  0  0  0  0  0  0  0  0  0
    6.1913  -16.0907   25.9606 C   0  0  0  0  0  0  0  0  0  0  0  0
    5.8284  -14.8766   26.4222 N   0  0  0  0  0  0  0  0  0  0  0  0
    6.4209  -13.8986   25.6985 C   0  0  0  0  0  0  0  0  0  0  0  0
    6.3723  -12.5238   25.7691 C   0  0  0  0  0  0  0  0  0  0  0  0
    7.0957  -11.7410   24.8790 C   0  0  0  0  0  0  0  0  0  0  0  0
    7.8666  -12.3524   23.9196 C   0  0  0  0  0  0  0  0  0  0  0  0
    7.8950  -13.7263   23.8733 C   0  0  0  0  0  0  0  0  0  0  0  0
    7.1797  -14.5310   24.7533 C   0  0  0  0  0  0  0  0  0  0  0  0
   10.0786  -16.6324   24.5864 C   0  0  0  0  0  0  0  0  0  0  0  0
   11.1903  -17.1789   24.3986 O   0  0  0  0  0  0  0  0  0  0  0  0
    9.2028  -13.9424   29.3634 C   0  0  0  0  0  0  0  0  0  0  0  0
    9.6960  -14.3538   27.9365 C   0  0  1  0  0  0  0  0  0  0  0  0
   10.5682  -13.1965   27.5241 C   0  0  0  0  0  0  0  0  0  0  0  0
   10.3726  -15.6492   28.1443 C   0  0  0  0  0  0  0  0  0  0  0  0
   10.8401  -16.4426   26.9875 C   0  0  2  0  0  0  0  0  0  0  0  0
    9.8553  -16.1670   25.9022 N   0  0  0  0  0  0  0  0  0  0  0  0
   10.8733  -17.8961   27.0987 C   0  0  0  0  0  0  0  0  0  0  0  0
   11.8624  -18.5894   27.8304 O   0  0  0  0  0  0  0  0  0  0  0  0
   10.0288  -18.6461   26.5525 O   0  0  0  0  0  0  0  0  0  0  0  0
  2  1  1  0
  3  2  2  0
  4  2  1  0
  5  4  1  0
  6  8  1  0
  6  5  1  0
  6  7  1  6
  8  9  2  0
 10 11  1  0
 10  8  1  0
 11 12  1  1
 12 13  1  0
 13 21  1  0
 14 15  1  0
 14 13  2  0
 15 16  1  0
 16 21  2  0
 16 17  1  0
 17 18  2  0
 18 19  1  0
 20 19  2  0
 21 20  1  0
 22 11  1  0
 23 22  2  0
 25 24  1  1
 26 25  1  0
 27 25  1  0
 28 27  1  1
 28 29  1  0
 29 22  1  0
 30 31  1  0
 30 28  1  0
 32 30  2  0
M  END
$$$$
