QWL.pdb
     RDKit          3D

 32 33  0  0  1  0  0  0  0  0999 V2000
    8.6650  -12.5071   18.1080 N   0  0  0  0  0  0  0  0  0  0  0  0
    8.5204  -13.8371   17.6041 C   0  0  0  0  0  0  0  0  0  0  0  0
    7.7725  -13.9855   16.6266 O   0  0  0  0  0  0  0  0  0  0  0  0
    9.2476  -14.9242   18.2620 C   0  0  0  0  0  0  0  0  0  0  0  0
    9.3602  -14.8783   19.7381 C   0  0  0  0  0  0  0  0  0  0  0  0
   10.0980  -16.0025   20.4051 C   0  0  2  0  0  0  0  0  0  0  0  0
    9.6846  -17.3053   20.0610 N   0  0  0  0  0  0  0  0  0  0  0  0
   10.0490  -15.6930   21.8804 C   0  0  0  0  0  0  0  0  0  0  0  0
   10.4565  -14.5460   22.1716 O   0  0  0  0  0  0  0  0  0  0  0  0
    9.5911  -16.5926   22.8637 N   0  0  0  0  0  0  0  0  0  0  0  0
    9.3440  -16.3422   24.2409 C   0  0  1  0  0  0  0  0  0  0  0  0
    7.9561  -16.5713   24.7160 C   0  0  0  0  0  0  0  0  0  0  0  0
    6.9753  -15.5357   24.3168 C   0  0  0  0  0  0  0  0  0  0  0  0
    6.0424  -15.5671   23.3361 C   0  0  0  0  0  0  0  0  0  0  0  0
    5.4025  -14.3801   23.3528 N   0  0  0  0  0  0  0  0  0  0  0  0
    5.9057  -13.5849   24.3253 C   0  0  0  0  0  0  0  0  0  0  0  0
    5.6016  -12.3061   24.7374 C   0  0  0  0  0  0  0  0  0  0  0  0
    6.2936  -11.7146   25.7862 C   0  0  0  0  0  0  0  0  0  0  0  0
    7.2916  -12.4196   26.4150 C   0  0  0  0  0  0  0  0  0  0  0  0
    7.5729  -13.6937   25.9813 C   0  0  0  0  0  0  0  0  0  0  0  0
    6.8943  -14.3069   24.9339 C   0  0  0  0  0  0  0  0  0  0  0  0
   10.3134  -16.9989   25.1895 C   0  0  0  0  0  0  0  0  0  0  0  0
   11.0617  -17.9553   24.8807 O   0  0  0  0  0  0  0  0  0  0  0  0
   10.5558  -15.2266   30.5823 C   0  0  0  0  0  0  0  0  0  0  0  0
   10.2390  -15.6163   29.1004 C   0  0  1  0  0  0  0  0  0  0  0  0
    9.8472  -14.3036   28.4729 C   0  0  0  0  0  0  0  0  0  0  0  0
   11.4868  -16.2352   28.6116 C   0  0  0  0  0  0  0  0  0  0  0  0
   11.4668  -17.1280   27.4332 C   0  0  2  0  0  0  0  0  0  0  0  0
   10.4343  -16.5516   26.5248 N   0  0  0  0  0  0  0  0  0  0  0  0
   11.0695  -18.5196   27.6116 C   0  0  0  0  0  0  0  0  0  0  0  0
    9.8948  -19.0629   27.0466 O   0  0  0  0  0  0  0  0  0  0  0  0
   11.7368  -19.3438   28.2821 O   0  0  0  0  0  0  0  0  0  0  0  0
  2  1  1  0
  3  2  2  0
  4  2  1  0
  5  4  1  0
  6  8  1  0
  6  5  1  0
  6  7  1  1
  8  9  2  0
 10 11  1  0
 10  8  1  0
 11 12  1  1
 12 13  1  0
 13 21  1  0
 14 15  1  0
 14 13  2  0
 15 16  1  0
 16 21  2  0
 16 17  1  0
 17 18  2  0
 18 19  1  0
 20 19  2  0
 21 20  1  0
 22 11  1  0
 23 22  2  0
 25 24  1  1
 26 25  1  0
 27 25  1  0
 28 27  1  1
 28 29  1  0
 29 22  1  0
 30 31  1  0
 30 28  1  0
 32 30  2  0
M  END
$$$$
