QWL.pdb
     RDKit          3D

 32 33  0  0  1  0  0  0  0  0999 V2000
    8.2312  -12.6962   17.1676 N   0  0  0  0  0  0  0  0  0  0  0  0
    8.5217  -13.9371   16.5199 C   0  0  0  0  0  0  0  0  0  0  0  0
    8.1280  -14.0624   15.3511 O   0  0  0  0  0  0  0  0  0  0  0  0
    9.2502  -14.9673   17.2625 C   0  0  0  0  0  0  0  0  0  0  0  0
    9.6878  -14.6395   18.6389 C   0  0  0  0  0  0  0  0  0  0  0  0
   10.3178  -15.7420   19.4393 C   0  0  2  0  0  0  0  0  0  0  0  0
    9.9973  -17.0562   19.0435 N   0  0  0  0  0  0  0  0  0  0  0  0
   10.0027  -15.4210   20.8789 C   0  0  0  0  0  0  0  0  0  0  0  0
   10.4245  -14.3036   21.2533 O   0  0  0  0  0  0  0  0  0  0  0  0
    9.2995  -16.2804   21.7465 N   0  0  0  0  0  0  0  0  0  0  0  0
    8.8916  -16.0391   23.0866 C   0  0  1  0  0  0  0  0  0  0  0  0
    7.4572  -16.2699   23.3930 C   0  0  0  0  0  0  0  0  0  0  0  0
    6.9815  -15.6751   24.6632 C   0  0  0  0  0  0  0  0  0  0  0  0
    6.4351  -16.2796   25.7446 C   0  0  0  0  0  0  0  0  0  0  0  0
    6.1503  -15.3145   26.6426 N   0  0  0  0  0  0  0  0  0  0  0  0
    6.5026  -14.1003   26.1601 C   0  0  0  0  0  0  0  0  0  0  0  0
    6.4174  -12.8275   26.6800 C   0  0  0  0  0  0  0  0  0  0  0  0
    6.8626  -11.7318   25.9521 C   0  0  0  0  0  0  0  0  0  0  0  0
    7.3929  -11.9278   24.6995 C   0  0  0  0  0  0  0  0  0  0  0  0
    7.4646  -13.2095   24.2069 C   0  0  0  0  0  0  0  0  0  0  0  0
    7.0255  -14.3219   24.9165 C   0  0  0  0  0  0  0  0  0  0  0  0
    9.7421  -16.7034   24.1384 C   0  0  0  0  0  0  0  0  0  0  0  0
   10.4652  -17.7051   23.9294 O   0  0  0  0  0  0  0  0  0  0  0  0
   10.0072  -14.0490   29.0543 C   0  0  0  0  0  0  0  0  0  0  0  0
   10.2281  -14.5079   27.5747 C   0  0  1  0  0  0  0  0  0  0  0  0
   11.3489  -13.6199   27.0999 C   0  0  0  0  0  0  0  0  0  0  0  0
   10.5278  -15.9493   27.6812 C   0  0  0  0  0  0  0  0  0  0  0  0
   10.7285  -16.7633   26.4632 C   0  0  2  0  0  0  0  0  0  0  0  0
    9.7703  -16.2110   25.4629 N   0  0  0  0  0  0  0  0  0  0  0  0
   10.4316  -18.1899   26.5137 C   0  0  0  0  0  0  0  0  0  0  0  0
   11.2959  -19.1351   27.1085 O   0  0  0  0  0  0  0  0  0  0  0  0
    9.3876  -18.6916   26.0317 O   0  0  0  0  0  0  0  0  0  0  0  0
  2  1  1  0
  3  2  2  0
  4  2  1  0
  5  4  1  0
  6  8  1  0
  6  5  1  0
  6  7  1  6
  8  9  2  0
 10 11  1  0
 10  8  1  0
 11 12  1  6
 12 13  1  0
 13 21  1  0
 14 15  1  0
 14 13  2  0
 15 16  1  0
 16 21  2  0
 16 17  1  0
 17 18  2  0
 18 19  1  0
 20 19  2  0
 21 20  1  0
 22 11  1  0
 23 22  2  0
 25 24  1  1
 26 25  1  0
 27 25  1  0
 28 27  1  1
 28 29  1  0
 29 22  1  0
 30 31  1  0
 30 28  1  0
 32 30  2  0
M  END
$$$$
