QWL.pdb
     RDKit          3D

 32 33  0  0  1  0  0  0  0  0999 V2000
   14.0740  -13.9895   18.6787 N   0  0  0  0  0  0  0  0  0  0  0  0
   14.0469  -15.2957   18.0985 C   0  0  0  0  0  0  0  0  0  0  0  0
   14.7714  -15.4827   17.1101 O   0  0  0  0  0  0  0  0  0  0  0  0
   13.1792  -16.3142   18.6928 C   0  0  0  0  0  0  0  0  0  0  0  0
   12.5179  -15.9865   19.9769 C   0  0  0  0  0  0  0  0  0  0  0  0
   12.0757  -17.1366   20.8339 C   0  0  2  0  0  0  0  0  0  0  0  0
   11.3072  -18.1284   20.1918 N   0  0  0  0  0  0  0  0  0  0  0  0
   11.4184  -16.5087   22.0375 C   0  0  0  0  0  0  0  0  0  0  0  0
   12.1329  -15.6634   22.6220 O   0  0  0  0  0  0  0  0  0  0  0  0
   10.1204  -16.8244   22.4860 N   0  0  0  0  0  0  0  0  0  0  0  0
    9.4121  -16.2775   23.5904 C   0  0  1  0  0  0  0  0  0  0  0  0
    7.9316  -16.3805   23.5429 C   0  0  0  0  0  0  0  0  0  0  0  0
    7.3001  -15.8152   22.3283 C   0  0  0  0  0  0  0  0  0  0  0  0
    6.3398  -16.3429   21.5331 C   0  0  0  0  0  0  0  0  0  0  0  0
    6.1069  -15.4571   20.5432 N   0  0  0  0  0  0  0  0  0  0  0  0
    6.8992  -14.3692   20.6856 C   0  0  0  0  0  0  0  0  0  0  0  0
    7.0401  -13.2131   19.9501 C   0  0  0  0  0  0  0  0  0  0  0  0
    7.9524  -12.2371   20.3292 C   0  0  0  0  0  0  0  0  0  0  0  0
    8.7196  -12.4343   21.4521 C   0  0  0  0  0  0  0  0  0  0  0  0
    8.5570  -13.5983   22.1658 C   0  0  0  0  0  0  0  0  0  0  0  0
    7.6506  -14.5896   21.8062 C   0  0  0  0  0  0  0  0  0  0  0  0
    9.9027  -16.7242   24.9434 C   0  0  0  0  0  0  0  0  0  0  0  0
   10.6345  -17.7236   25.1319 O   0  0  0  0  0  0  0  0  0  0  0  0
    8.9413  -13.1567   28.9894 C   0  0  0  0  0  0  0  0  0  0  0  0
    9.7698  -13.9553   27.9290 C   0  0  1  0  0  0  0  0  0  0  0  0
   11.1321  -13.3155   27.9998 C   0  0  0  0  0  0  0  0  0  0  0  0
    9.6758  -15.3592   28.3752 C   0  0  0  0  0  0  0  0  0  0  0  0
   10.0226  -16.4617   27.4529 C   0  0  2  0  0  0  0  0  0  0  0  0
    9.5510  -16.0111   26.1119 N   0  0  0  0  0  0  0  0  0  0  0  0
    9.3979  -17.7647   27.6479 C   0  0  0  0  0  0  0  0  0  0  0  0
    9.7953  -18.6646   28.6611 O   0  0  0  0  0  0  0  0  0  0  0  0
    8.4606  -18.1911   26.9312 O   0  0  0  0  0  0  0  0  0  0  0  0
  2  1  1  0
  3  2  2  0
  4  2  1  0
  5  4  1  0
  6  8  1  0
  6  5  1  0
  6  7  1  6
  8  9  2  0
 10 11  1  0
 10  8  1  0
 11 12  1  6
 12 13  1  0
 13 21  1  0
 14 15  1  0
 14 13  2  0
 15 16  1  0
 16 21  2  0
 16 17  1  0
 17 18  2  0
 18 19  1  0
 20 19  2  0
 21 20  1  0
 22 11  1  0
 23 22  2  0
 25 24  1  1
 26 25  1  0
 27 25  1  0
 28 27  1  1
 28 29  1  0
 29 22  1  0
 30 31  1  0
 30 28  1  0
 32 30  2  0
M  END
$$$$
