QWL.pdb
     RDKit          3D

 32 33  0  0  1  0  0  0  0  0999 V2000
    8.7036  -12.5281   18.2150 N   0  0  0  0  0  0  0  0  0  0  0  0
    8.8741  -13.7636   17.5164 C   0  0  0  0  0  0  0  0  0  0  0  0
    8.5366  -13.7817   16.3237 O   0  0  0  0  0  0  0  0  0  0  0  0
    9.4235  -14.9127   18.2383 C   0  0  0  0  0  0  0  0  0  0  0  0
    9.7028  -14.7445   19.6830 C   0  0  0  0  0  0  0  0  0  0  0  0
   10.3006  -15.9156   20.4070 C   0  0  2  0  0  0  0  0  0  0  0  0
    9.9092  -17.1909   19.9522 N   0  0  0  0  0  0  0  0  0  0  0  0
   10.0373  -15.6581   21.8696 C   0  0  0  0  0  0  0  0  0  0  0  0
   10.3360  -14.5012   22.2425 O   0  0  0  0  0  0  0  0  0  0  0  0
    9.5043  -16.6127   22.7587 N   0  0  0  0  0  0  0  0  0  0  0  0
    9.1222  -16.4362   24.1163 C   0  0  1  0  0  0  0  0  0  0  0  0
    7.6739  -16.2364   24.3749 C   0  0  0  0  0  0  0  0  0  0  0  0
    7.1356  -14.9214   23.9569 C   0  0  0  0  0  0  0  0  0  0  0  0
    6.7839  -14.4887   22.7230 C   0  0  0  0  0  0  0  0  0  0  0  0
    6.3639  -13.2134   22.8496 N   0  0  0  0  0  0  0  0  0  0  0  0
    6.4387  -12.8166   24.1412 C   0  0  0  0  0  0  0  0  0  0  0  0
    6.1351  -11.6310   24.7736 C   0  0  0  0  0  0  0  0  0  0  0  0
    6.3131  -11.4912   26.1438 C   0  0  0  0  0  0  0  0  0  0  0  0
    6.7982  -12.5522   26.8700 C   0  0  0  0  0  0  0  0  0  0  0  0
    7.0927  -13.7227   26.2112 C   0  0  0  0  0  0  0  0  0  0  0  0
    6.9229  -13.8866   24.8408 C   0  0  0  0  0  0  0  0  0  0  0  0
    9.6632  -17.4719   25.0679 C   0  0  0  0  0  0  0  0  0  0  0  0
    9.0413  -18.5032   25.4136 O   0  0  0  0  0  0  0  0  0  0  0  0
   11.3624  -14.2452   28.2009 C   0  0  0  0  0  0  0  0  0  0  0  0
   10.4759  -15.4068   28.7606 C   0  0  1  0  0  0  0  0  0  0  0  0
    9.3166  -14.6833   29.3954 C   0  0  0  0  0  0  0  0  0  0  0  0
   10.1695  -16.2340   27.5770 C   0  0  0  0  0  0  0  0  0  0  0  0
   11.1247  -17.2650   27.1178 C   0  0  2  0  0  0  0  0  0  0  0  0
   10.9484  -17.3287   25.6385 N   0  0  0  0  0  0  0  0  0  0  0  0
   10.9488  -18.6392   27.5724 C   0  0  0  0  0  0  0  0  0  0  0  0
    9.6816  -19.2457   27.7168 O   0  0  0  0  0  0  0  0  0  0  0  0
   11.9070  -19.3911   27.8735 O   0  0  0  0  0  0  0  0  0  0  0  0
  2  1  1  0
  3  2  2  0
  4  2  1  0
  5  4  1  0
  6  8  1  0
  6  5  1  0
  6  7  1  6
  8  9  2  0
 10 11  1  0
 10  8  1  0
 11 12  1  6
 12 13  1  0
 13 21  1  0
 14 15  1  0
 14 13  2  0
 15 16  1  0
 16 21  2  0
 16 17  1  0
 17 18  2  0
 18 19  1  0
 20 19  2  0
 21 20  1  0
 22 11  1  0
 23 22  2  0
 25 24  1  6
 26 25  1  0
 27 25  1  0
 28 27  1  1
 28 29  1  0
 29 22  1  0
 30 31  1  0
 30 28  1  0
 32 30  2  0
M  END
$$$$
