RIT.pdb
     RDKit          3D

 27 26  0  0  1  0  0  0  0  0999 V2000
    9.2683  -15.6054   16.9668 N   0  0  0  0  0  0  0  0  0  0  0  0
    8.3782  -14.6745   16.3181 C   0  0  0  0  0  0  0  0  0  0  0  0
    8.0624  -14.8256   15.0772 N   0  0  0  0  0  0  0  0  0  0  0  0
    7.8290  -13.5757   17.0253 N   0  0  0  0  0  0  0  0  0  0  0  0
    8.4225  -13.0326   18.2257 C   0  0  0  0  0  0  0  0  0  0  0  0
    7.4975  -13.2058   19.4005 C   0  0  0  0  0  0  0  0  0  0  0  0
    8.2199  -13.0781   20.7225 C   0  0  0  0  0  0  0  0  0  0  0  0
    8.2282  -14.4954   21.3113 C   0  0  2  0  0  0  0  0  0  0  0  0
    6.8664  -14.9607   21.2468 N   0  0  0  0  0  0  0  0  0  0  0  0
    8.7075  -14.3652   22.7108 C   0  0  0  0  0  0  0  0  0  0  0  0
    9.9208  -14.0864   22.9431 O   0  0  0  0  0  0  0  0  0  0  0  0
    7.4291  -14.1575   14.5970 C   0  0  0  0  0  0  0  0  0  0  0  0
    6.3112  -11.5631   26.2767 C   0  0  0  0  0  0  0  0  0  0  0  0
    7.3169  -12.4011   25.5603 C   0  0  2  0  0  0  0  0  0  0  0  0
    7.2252  -13.8778   26.0050 C   0  0  0  0  0  0  0  0  0  0  0  0
    7.5444  -13.9180   27.4795 C   0  0  2  0  0  0  0  0  0  0  0  0
    8.2246  -14.6277   25.1534 N   0  0  0  0  0  0  0  0  0  0  0  0
    7.7829  -14.5598   23.7489 C   0  0  0  0  0  0  0  0  0  0  0  0
    8.5009  -16.0024   25.5499 O   0  0  0  0  0  0  0  0  0  0  0  0
    7.4548  -16.7549   25.6785 C   0  0  0  0  0  0  0  0  0  0  0  0
   10.1161  -18.8692   23.8368 C   0  0  2  0  0  0  0  0  0  0  0  0
   10.7577  -18.6963   25.1710 O   0  0  0  0  0  0  0  0  0  0  0  0
   12.0276  -18.1420   25.1185 C   0  0  2  0  0  0  0  0  0  0  0  0
    9.8739  -17.9658   26.1733 N   0  0  0  0  0  0  0  0  0  0  0  0
    9.7729  -16.5652   25.7955 C   0  0  0  0  0  0  0  0  0  0  0  0
   10.4875  -18.0733   27.5190 O   0  0  0  0  0  0  0  0  0  0  0  0
   10.9083  -17.0500   28.0839 O   0  0  0  0  0  0  0  0  0  0  0  0
  2  3  2  0
  2  1  1  0
  4  2  1  0
  5  4  1  0
  6  5  1  0
  7  6  1  0
  8  7  1  0
  8 10  1  0
  8  9  1  1
 10 17  1  0
 11 10  2  0
 12 13  1  0
 13 14  1  0
 14 15  1  6
 16 14  1  0
 16 18  1  0
 16 17  1  1
 18 19  2  0
 18 24  1  0
 21 22  1  0
 21 20  1  6
 23 21  1  0
 23 24  1  1
 25 23  1  0
 25 27  1  0
 26 25  2  0
M  END
$$$$
