RIT.pdb
     RDKit          3D

 27 26  0  0  1  0  0  0  0  0999 V2000
    4.8249  -19.1237   18.3909 N   0  0  0  0  0  0  0  0  0  0  0  0
    5.6468  -18.5277   17.3665 C   0  0  0  0  0  0  0  0  0  0  0  0
    5.2711  -18.5433   16.1332 N   0  0  0  0  0  0  0  0  0  0  0  0
    6.8818  -17.9111   17.6881 N   0  0  0  0  0  0  0  0  0  0  0  0
    7.3857  -17.8087   19.0386 C   0  0  0  0  0  0  0  0  0  0  0  0
    7.2246  -16.4061   19.5604 C   0  0  0  0  0  0  0  0  0  0  0  0
    7.7574  -16.2532   20.9671 C   0  0  0  0  0  0  0  0  0  0  0  0
    7.4006  -14.8173   21.3751 C   0  0  2  0  0  0  0  0  0  0  0  0
    7.8602  -13.9732   20.3021 N   0  0  0  0  0  0  0  0  0  0  0  0
    8.1240  -14.5500   22.6441 C   0  0  0  0  0  0  0  0  0  0  0  0
    9.3781  -14.3747   22.6352 O   0  0  0  0  0  0  0  0  0  0  0  0
    5.8972  -18.2103   15.3748 C   0  0  0  0  0  0  0  0  0  0  0  0
    6.1234  -11.4342   26.4027 C   0  0  0  0  0  0  0  0  0  0  0  0
    7.0356  -12.2592   25.5575 C   0  0  2  0  0  0  0  0  0  0  0  0
    7.1495  -13.6985   26.1071 C   0  0  0  0  0  0  0  0  0  0  0  0
    7.7166  -13.5974   27.5021 C   0  0  2  0  0  0  0  0  0  0  0  0
    8.0510  -14.4375   25.1442 N   0  0  0  0  0  0  0  0  0  0  0  0
    7.3800  -14.5004   23.8334 C   0  0  0  0  0  0  0  0  0  0  0  0
    8.4967  -15.7583   25.5685 O   0  0  0  0  0  0  0  0  0  0  0  0
    7.5500  -16.5649   25.9294 C   0  0  0  0  0  0  0  0  0  0  0  0
   10.4078  -18.4993   23.7133 C   0  0  2  0  0  0  0  0  0  0  0  0
   11.0424  -18.2436   25.0375 O   0  0  0  0  0  0  0  0  0  0  0  0
   12.2531  -17.5721   24.9624 C   0  0  2  0  0  0  0  0  0  0  0  0
   10.1023  -17.5835   26.0375 N   0  0  0  0  0  0  0  0  0  0  0  0
    9.8313  -16.2185   25.6155 C   0  0  0  0  0  0  0  0  0  0  0  0
   10.7539  -17.5704   27.3695 O   0  0  0  0  0  0  0  0  0  0  0  0
   11.0726  -16.4859   27.8850 O   0  0  0  0  0  0  0  0  0  0  0  0
  2  3  2  0
  2  1  1  0
  4  2  1  0
  5  4  1  0
  6  5  1  0
  7  6  1  0
  8  7  1  0
  8 10  1  0
  8  9  1  6
 10 17  1  0
 11 10  2  0
 12 13  1  0
 13 14  1  0
 14 15  1  6
 16 14  1  0
 16 18  1  0
 16 17  1  6
 18 19  2  0
 18 24  1  0
 21 22  1  0
 21 20  1  6
 23 21  1  0
 23 24  1  1
 25 23  1  0
 25 27  1  0
 26 25  2  0
M  END
$$$$
