RIT.pdb
     RDKit          3D

 27 26  0  0  1  0  0  0  0  0999 V2000
    8.9265  -12.6097   16.3845 N   0  0  0  0  0  0  0  0  0  0  0  0
    8.7030  -14.0303   16.4940 C   0  0  0  0  0  0  0  0  0  0  0  0
    9.3105  -14.8520   15.7078 N   0  0  0  0  0  0  0  0  0  0  0  0
    7.8152  -14.5570   17.4654 N   0  0  0  0  0  0  0  0  0  0  0  0
    7.1168  -13.7339   18.4261 C   0  0  0  0  0  0  0  0  0  0  0  0
    7.8435  -13.7236   19.7441 C   0  0  0  0  0  0  0  0  0  0  0  0
    6.9023  -13.8674   20.9187 C   0  0  0  0  0  0  0  0  0  0  0  0
    7.3018  -15.1879   21.5910 C   0  0  2  0  0  0  0  0  0  0  0  0
    6.0687  -15.8640   21.9034 N   0  0  0  0  0  0  0  0  0  0  0  0
    8.0629  -14.8230   22.8128 C   0  0  0  0  0  0  0  0  0  0  0  0
    9.2471  -14.3847   22.7159 O   0  0  0  0  0  0  0  0  0  0  0  0
    9.2024  -15.8792   15.8139 C   0  0  0  0  0  0  0  0  0  0  0  0
    6.0566  -11.7900   26.2507 C   0  0  0  0  0  0  0  0  0  0  0  0
    6.9913  -12.6538   25.4715 C   0  0  2  0  0  0  0  0  0  0  0  0
    7.3255  -13.9481   26.2461 C   0  0  0  0  0  0  0  0  0  0  0  0
    8.0435  -13.5371   27.5084 C   0  0  2  0  0  0  0  0  0  0  0  0
    8.1778  -14.7785   25.3134 N   0  0  0  0  0  0  0  0  0  0  0  0
    7.4332  -14.9796   24.0574 C   0  0  0  0  0  0  0  0  0  0  0  0
    8.6612  -16.0463   25.8446 O   0  0  0  0  0  0  0  0  0  0  0  0
    7.7528  -16.7944   26.3853 C   0  0  0  0  0  0  0  0  0  0  0  0
   10.6314  -18.8609   24.0235 C   0  0  2  0  0  0  0  0  0  0  0  0
   11.2515  -18.5362   25.3394 O   0  0  0  0  0  0  0  0  0  0  0  0
   12.4500  -17.8457   25.2431 C   0  0  2  0  0  0  0  0  0  0  0  0
   10.2920  -17.8515   26.3038 N   0  0  0  0  0  0  0  0  0  0  0  0
    9.9939  -16.5136   25.8181 C   0  0  0  0  0  0  0  0  0  0  0  0
   10.9360  -17.7630   27.6366 O   0  0  0  0  0  0  0  0  0  0  0  0
   11.1916  -18.8045   28.2638 O   0  0  0  0  0  0  0  0  0  0  0  0
  2  3  2  0
  2  1  1  0
  4  2  1  0
  5  4  1  0
  6  5  1  0
  7  6  1  0
  8  7  1  0
  8 10  1  0
  8  9  1  1
 10 17  1  0
 11 10  2  0
 12 13  1  0
 13 14  1  0
 14 15  1  1
 16 14  1  0
 16 18  1  0
 16 17  1  6
 18 19  2  0
 18 24  1  0
 21 22  1  0
 21 20  1  6
 23 21  1  0
 23 24  1  1
 25 23  1  0
 25 27  1  0
 26 25  2  0
M  END
$$$$
