RIT.pdb
     RDKit          3D

 27 26  0  0  1  0  0  0  0  0999 V2000
    6.3443  -16.2097   16.0123 N   0  0  0  0  0  0  0  0  0  0  0  0
    7.5548  -15.4438   15.8451 C   0  0  0  0  0  0  0  0  0  0  0  0
    7.5643  -14.3849   15.1095 N   0  0  0  0  0  0  0  0  0  0  0  0
    8.7590  -15.8328   16.4836 N   0  0  0  0  0  0  0  0  0  0  0  0
    8.8345  -16.1773   17.8850 C   0  0  0  0  0  0  0  0  0  0  0  0
    8.3186  -15.0492   18.7375 C   0  0  0  0  0  0  0  0  0  0  0  0
    8.3955  -15.3652   20.2141 C   0  0  0  0  0  0  0  0  0  0  0  0
    7.8633  -14.1101   20.9191 C   0  0  2  0  0  0  0  0  0  0  0  0
    8.1470  -13.0077   20.0363 N   0  0  0  0  0  0  0  0  0  0  0  0
    8.6049  -14.0031   22.2012 C   0  0  0  0  0  0  0  0  0  0  0  0
    9.8563  -13.8092   22.1966 O   0  0  0  0  0  0  0  0  0  0  0  0
    8.4272  -13.8202   14.9887 C   0  0  0  0  0  0  0  0  0  0  0  0
    5.6990  -12.4669   26.6090 C   0  0  0  0  0  0  0  0  0  0  0  0
    6.3981  -13.2796   25.5709 C   0  0  2  0  0  0  0  0  0  0  0  0
    7.8959  -12.9091   25.4932 C   0  0  0  0  0  0  0  0  0  0  0  0
    7.9853  -11.5606   24.8213 C   0  0  1  0  0  0  0  0  0  0  0  0
    8.5547  -14.0181   24.7043 N   0  0  0  0  0  0  0  0  0  0  0  0
    7.8809  -14.1235   23.3977 C   0  0  0  0  0  0  0  0  0  0  0  0
    8.6283  -15.3163   25.3621 O   0  0  0  0  0  0  0  0  0  0  0  0
    7.4963  -15.9341   25.4804 C   0  0  0  0  0  0  0  0  0  0  0  0
   10.9622  -19.4624   26.5128 C   0  0  2  0  0  0  0  0  0  0  0  0
   10.8623  -18.1196   25.8736 O   0  0  0  0  0  0  0  0  0  0  0  0
   10.8624  -18.1535   24.4874 C   0  0  1  0  0  0  0  0  0  0  0  0
    9.7074  -17.2833   26.4086 N   0  0  0  0  0  0  0  0  0  0  0  0
    9.7934  -15.9381   25.8630 C   0  0  0  0  0  0  0  0  0  0  0  0
    9.8039  -17.2257   27.8872 O   0  0  0  0  0  0  0  0  0  0  0  0
   10.2094  -16.1867   28.4347 O   0  0  0  0  0  0  0  0  0  0  0  0
  2  3  2  0
  2  1  1  0
  4  2  1  0
  5  4  1  0
  6  5  1  0
  7  6  1  0
  8  7  1  0
  8 10  1  0
  8  9  1  6
 10 17  1  0
 11 10  2  0
 12 13  1  0
 13 14  1  0
 14 15  1  1
 16 14  1  0
 16 18  1  0
 16 17  1  6
 18 19  2  0
 18 24  1  0
 21 22  1  0
 21 20  1  6
 23 21  1  0
 23 24  1  1
 25 23  1  0
 25 27  1  0
 26 25  2  0
M  END
$$$$
