RIT.pdb
     RDKit          3D

 27 26  0  0  1  0  0  0  0  0999 V2000
    8.9096  -16.9144   16.2687 N   0  0  0  0  0  0  0  0  0  0  0  0
    8.1717  -15.8294   15.6701 C   0  0  0  0  0  0  0  0  0  0  0  0
    7.6053  -15.9770   14.5213 N   0  0  0  0  0  0  0  0  0  0  0  0
    8.0497  -14.5795   16.3272 N   0  0  0  0  0  0  0  0  0  0  0  0
    8.4863  -14.3555   17.6864 C   0  0  0  0  0  0  0  0  0  0  0  0
    7.5250  -14.9791   18.6624 C   0  0  0  0  0  0  0  0  0  0  0  0
    8.0916  -15.0445   20.0627 C   0  0  0  0  0  0  0  0  0  0  0  0
    7.7335  -13.6958   20.7015 C   0  0  2  0  0  0  0  0  0  0  0  0
    8.3058  -12.6868   19.8475 N   0  0  0  0  0  0  0  0  0  0  0  0
    8.3475  -13.6961   22.0536 C   0  0  0  0  0  0  0  0  0  0  0  0
    9.5818  -13.4482   22.1904 O   0  0  0  0  0  0  0  0  0  0  0  0
    7.0415  -15.2156   14.0965 C   0  0  0  0  0  0  0  0  0  0  0  0
    6.9864  -12.0285   27.6391 C   0  0  0  0  0  0  0  0  0  0  0  0
    7.7356  -12.9787   26.7657 C   0  0  2  0  0  0  0  0  0  0  0  0
    7.1292  -13.0215   25.3455 C   0  0  0  0  0  0  0  0  0  0  0  0
    5.7306  -13.5733   25.4764 C   0  0  2  0  0  0  0  0  0  0  0  0
    8.0488  -13.9028   24.5308 N   0  0  0  0  0  0  0  0  0  0  0  0
    7.5244  -13.9771   23.1554 C   0  0  0  0  0  0  0  0  0  0  0  0
    8.3028  -15.2336   25.0673 O   0  0  0  0  0  0  0  0  0  0  0  0
    7.2422  -15.9304   25.3256 C   0  0  0  0  0  0  0  0  0  0  0  0
   10.1814  -18.2031   23.5082 C   0  0  2  0  0  0  0  0  0  0  0  0
   10.6658  -17.9340   24.8919 O   0  0  0  0  0  0  0  0  0  0  0  0
   11.9105  -17.3254   24.9452 C   0  0  2  0  0  0  0  0  0  0  0  0
    9.6490  -17.1952   25.7520 N   0  0  0  0  0  0  0  0  0  0  0  0
    9.5678  -15.8094   25.3188 C   0  0  0  0  0  0  0  0  0  0  0  0
   10.0915  -17.2475   27.1663 O   0  0  0  0  0  0  0  0  0  0  0  0
   10.3747  -16.1929   27.7590 O   0  0  0  0  0  0  0  0  0  0  0  0
  2  3  2  0
  2  1  1  0
  4  2  1  0
  5  4  1  0
  6  5  1  0
  7  6  1  0
  8  7  1  0
  8 10  1  0
  8  9  1  6
 10 17  1  0
 11 10  2  0
 12 13  1  0
 13 14  1  0
 14 15  1  6
 16 14  1  0
 16 18  1  0
 16 17  1  1
 18 19  2  0
 18 24  1  0
 21 22  1  0
 21 20  1  1
 23 21  1  0
 23 24  1  1
 25 23  1  0
 25 27  1  0
 26 25  2  0
M  END
$$$$
