RIT.pdb
     RDKit          3D

 27 26  0  0  1  0  0  0  0  0999 V2000
    8.1731  -17.8040   17.2380 N   0  0  0  0  0  0  0  0  0  0  0  0
    6.7867  -18.1809   17.1129 C   0  0  0  0  0  0  0  0  0  0  0  0
    6.1697  -18.0465   15.9887 N   0  0  0  0  0  0  0  0  0  0  0  0
    6.0708  -18.7078   18.2169 N   0  0  0  0  0  0  0  0  0  0  0  0
    6.3323  -18.3222   19.5848 C   0  0  0  0  0  0  0  0  0  0  0  0
    7.7138  -17.7394   19.7171 C   0  0  0  0  0  0  0  0  0  0  0  0
    8.0454  -17.3696   21.1452 C   0  0  0  0  0  0  0  0  0  0  0  0
    8.3010  -15.8565   21.1166 C   0  0  2  0  0  0  0  0  0  0  0  0
    9.3406  -15.6472   20.1417 N   0  0  0  0  0  0  0  0  0  0  0  0
    8.7356  -15.4788   22.4854 C   0  0  0  0  0  0  0  0  0  0  0  0
    9.8787  -15.8247   22.9067 O   0  0  0  0  0  0  0  0  0  0  0  0
    5.1623  -18.2799   15.8955 C   0  0  0  0  0  0  0  0  0  0  0  0
    6.9016  -11.6825   27.0169 C   0  0  0  0  0  0  0  0  0  0  0  0
    7.7503  -12.7886   26.4846 C   0  0  2  0  0  0  0  0  0  0  0  0
    7.2472  -13.2561   25.1007 C   0  0  0  0  0  0  0  0  0  0  0  0
    5.8447  -13.7796   25.2920 C   0  0  2  0  0  0  0  0  0  0  0  0
    8.2258  -14.3133   24.6418 N   0  0  0  0  0  0  0  0  0  0  0  0
    7.8484  -14.7378   23.2817 C   0  0  0  0  0  0  0  0  0  0  0  0
    8.3882  -15.4623   25.5231 O   0  0  0  0  0  0  0  0  0  0  0  0
    7.3090  -16.1465   25.7339 C   0  0  0  0  0  0  0  0  0  0  0  0
    9.7955  -18.6874   24.9828 C   0  0  2  0  0  0  0  0  0  0  0  0
   10.4380  -18.1540   26.2174 O   0  0  0  0  0  0  0  0  0  0  0  0
   11.7398  -17.7147   26.0309 C   0  0  2  0  0  0  0  0  0  0  0  0
    9.5943  -17.1047   26.9291 N   0  0  0  0  0  0  0  0  0  0  0  0
    9.5857  -15.8803   26.1447 C   0  0  0  0  0  0  0  0  0  0  0  0
   10.1889  -16.8362   28.2608 O   0  0  0  0  0  0  0  0  0  0  0  0
   10.6175  -15.6999   28.5225 O   0  0  0  0  0  0  0  0  0  0  0  0
  2  3  2  0
  2  1  1  0
  4  2  1  0
  5  4  1  0
  6  5  1  0
  7  6  1  0
  8  7  1  0
  8 10  1  0
  8  9  1  6
 10 17  1  0
 11 10  2  0
 12 13  1  0
 13 14  1  0
 14 15  1  6
 16 14  1  0
 16 18  1  0
 16 17  1  1
 18 19  2  0
 18 24  1  0
 21 22  1  0
 21 20  1  1
 23 21  1  0
 23 24  1  1
 25 23  1  0
 25 27  1  0
 26 25  2  0
M  END
$$$$
