RIT.pdb
     RDKit          3D

 27 26  0  0  1  0  0  0  0  0999 V2000
    9.0132  -21.8906   22.6113 N   0  0  0  0  0  0  0  0  0  0  0  0
    9.8787  -21.5754   21.5015 C   0  0  0  0  0  0  0  0  0  0  0  0
   10.0602  -22.4259   20.5496 N   0  0  0  0  0  0  0  0  0  0  0  0
   10.5474  -20.3278   21.4285 N   0  0  0  0  0  0  0  0  0  0  0  0
   10.6019  -19.3950   22.5309 C   0  0  0  0  0  0  0  0  0  0  0  0
    9.8135  -18.1525   22.2143 C   0  0  0  0  0  0  0  0  0  0  0  0
    8.5191  -18.0811   22.9925 C   0  0  0  0  0  0  0  0  0  0  0  0
    7.7624  -16.8848   22.3997 C   0  0  2  0  0  0  0  0  0  0  0  0
    8.0839  -16.8670   20.9956 N   0  0  0  0  0  0  0  0  0  0  0  0
    8.2681  -15.6785   23.1029 C   0  0  0  0  0  0  0  0  0  0  0  0
    9.3428  -15.1264   22.7238 O   0  0  0  0  0  0  0  0  0  0  0  0
   10.7430  -22.2455   19.7885 C   0  0  0  0  0  0  0  0  0  0  0  0
    6.1357  -11.2950   26.8521 C   0  0  0  0  0  0  0  0  0  0  0  0
    7.2648  -12.0603   26.2466 C   0  0  2  0  0  0  0  0  0  0  0  0
    6.7626  -13.3714   25.6019 C   0  0  0  0  0  0  0  0  0  0  0  0
    6.2046  -14.2270   26.7130 C   0  0  2  0  0  0  0  0  0  0  0  0
    7.9655  -13.9825   24.9195 N   0  0  0  0  0  0  0  0  0  0  0  0
    7.5247  -15.1818   24.1850 C   0  0  0  0  0  0  0  0  0  0  0  0
    9.1052  -14.2824   25.7766 O   0  0  0  0  0  0  0  0  0  0  0  0
    9.6004  -13.2635   26.4041 C   0  0  0  0  0  0  0  0  0  0  0  0
   10.1121  -13.7958   28.4559 C   0  0  2  0  0  0  0  0  0  0  0  0
   10.2763  -15.2708   28.3177 O   0  0  0  0  0  0  0  0  0  0  0  0
    9.1611  -16.0007   28.7001 C   0  0  2  0  0  0  0  0  0  0  0  0
   10.7721  -15.6943   26.9414 N   0  0  0  0  0  0  0  0  0  0  0  0
    9.6944  -15.5506   25.9758 C   0  0  0  0  0  0  0  0  0  0  0  0
   11.1971  -17.1137   27.0024 O   0  0  0  0  0  0  0  0  0  0  0  0
   10.5911  -17.9641   26.3293 O   0  0  0  0  0  0  0  0  0  0  0  0
  2  3  2  0
  2  1  1  0
  4  2  1  0
  5  4  1  0
  6  5  1  0
  7  6  1  0
  8  7  1  0
  8 10  1  0
  8  9  1  6
 10 17  1  0
 11 10  2  0
 12 13  1  0
 13 14  1  0
 14 15  1  6
 16 14  1  0
 16 18  1  0
 16 17  1  1
 18 19  2  0
 18 24  1  0
 21 22  1  0
 21 20  1  1
 23 21  1  0
 23 24  1  1
 25 23  1  0
 25 27  1  0
 26 25  2  0
M  END
$$$$
