RIT.pdb
     RDKit          3D

 27 26  0  0  1  0  0  0  0  0999 V2000
    7.5410  -16.9592   16.8726 N   0  0  0  0  0  0  0  0  0  0  0  0
    6.6146  -18.0193   17.1855 C   0  0  0  0  0  0  0  0  0  0  0  0
    5.6387  -18.2934   16.3887 N   0  0  0  0  0  0  0  0  0  0  0  0
    6.7535  -18.7843   18.3706 N   0  0  0  0  0  0  0  0  0  0  0  0
    7.6242  -18.4034   19.4592 C   0  0  0  0  0  0  0  0  0  0  0  0
    7.3978  -16.9654   19.8418 C   0  0  0  0  0  0  0  0  0  0  0  0
    8.3477  -16.5038   20.9238 C   0  0  0  0  0  0  0  0  0  0  0  0
    7.8160  -15.1330   21.3635 C   0  0  2  0  0  0  0  0  0  0  0  0
    8.2587  -14.1953   20.3636 N   0  0  0  0  0  0  0  0  0  0  0  0
    8.4177  -14.8565   22.6927 C   0  0  0  0  0  0  0  0  0  0  0  0
    9.6768  -14.8317   22.8270 O   0  0  0  0  0  0  0  0  0  0  0  0
    4.9772  -19.0672   16.5929 C   0  0  0  0  0  0  0  0  0  0  0  0
    6.1507  -11.3707   26.0172 C   0  0  0  0  0  0  0  0  0  0  0  0
    7.0994  -12.2818   25.3123 C   0  0  2  0  0  0  0  0  0  0  0  0
    7.1062  -13.6839   25.9609 C   0  0  0  0  0  0  0  0  0  0  0  0
    7.5265  -13.5055   27.3994 C   0  0  2  0  0  0  0  0  0  0  0  0
    8.0788  -14.5091   25.1489 N   0  0  0  0  0  0  0  0  0  0  0  0
    7.5551  -14.6284   23.7763 C   0  0  0  0  0  0  0  0  0  0  0  0
    8.4218  -15.8161   25.6942 O   0  0  0  0  0  0  0  0  0  0  0  0
    7.4152  -16.5152   26.1125 C   0  0  0  0  0  0  0  0  0  0  0  0
   10.0228  -19.0461   24.3562 C   0  0  2  0  0  0  0  0  0  0  0  0
   10.7466  -18.5555   25.5633 O   0  0  0  0  0  0  0  0  0  0  0  0
   11.9763  -17.9774   25.2874 C   0  0  2  0  0  0  0  0  0  0  0  0
    9.8962  -17.6556   26.4501 N   0  0  0  0  0  0  0  0  0  0  0  0
    9.7180  -16.3674   25.7993 C   0  0  0  0  0  0  0  0  0  0  0  0
   10.5929  -17.4646   27.7452 O   0  0  0  0  0  0  0  0  0  0  0  0
   10.9895  -16.3319   28.0662 O   0  0  0  0  0  0  0  0  0  0  0  0
  2  3  2  0
  2  1  1  0
  4  2  1  0
  5  4  1  0
  6  5  1  0
  7  6  1  0
  8  7  1  0
  8 10  1  0
  8  9  1  6
 10 17  1  0
 11 10  2  0
 12 13  1  0
 13 14  1  0
 14 15  1  6
 16 14  1  0
 16 18  1  0
 16 17  1  6
 18 19  2  0
 18 24  1  0
 21 22  1  0
 21 20  1  1
 23 21  1  0
 23 24  1  1
 25 23  1  0
 25 27  1  0
 26 25  2  0
M  END
$$$$
