RIT.pdb
     RDKit          3D

 27 26  0  0  1  0  0  0  0  0999 V2000
    4.7510  -18.9869   20.1875 N   0  0  0  0  0  0  0  0  0  0  0  0
    4.9138  -19.1355   18.7622 C   0  0  0  0  0  0  0  0  0  0  0  0
    3.9372  -19.5523   18.0308 N   0  0  0  0  0  0  0  0  0  0  0  0
    6.1453  -18.8271   18.1319 N   0  0  0  0  0  0  0  0  0  0  0  0
    7.3262  -18.4233   18.8603 C   0  0  0  0  0  0  0  0  0  0  0  0
    7.2431  -16.9698   19.2425 C   0  0  0  0  0  0  0  0  0  0  0  0
    7.5268  -16.7462   20.7107 C   0  0  0  0  0  0  0  0  0  0  0  0
    7.3279  -15.2404   20.9308 C   0  0  2  0  0  0  0  0  0  0  0  0
    7.8531  -14.5939   19.7555 N   0  0  0  0  0  0  0  0  0  0  0  0
    8.0976  -14.8897   22.1513 C   0  0  0  0  0  0  0  0  0  0  0  0
    9.3636  -14.8809   22.1228 O   0  0  0  0  0  0  0  0  0  0  0  0
    4.0729  -19.7735   17.0254 C   0  0  0  0  0  0  0  0  0  0  0  0
    7.4819  -11.4857   27.1092 C   0  0  0  0  0  0  0  0  0  0  0  0
    8.0637  -12.7193   26.5036 C   0  0  2  0  0  0  0  0  0  0  0  0
    7.2155  -13.2013   25.3057 C   0  0  0  0  0  0  0  0  0  0  0  0
    5.9614  -13.8222   25.8709 C   0  0  2  0  0  0  0  0  0  0  0  0
    8.0852  -14.1828   24.5531 N   0  0  0  0  0  0  0  0  0  0  0  0
    7.3832  -14.5747   23.3178 C   0  0  0  0  0  0  0  0  0  0  0  0
    8.5244  -15.3542   25.3003 O   0  0  0  0  0  0  0  0  0  0  0  0
    7.5728  -16.0441   25.8439 C   0  0  0  0  0  0  0  0  0  0  0  0
   10.7399  -18.2352   23.9679 C   0  0  2  0  0  0  0  0  0  0  0  0
   11.1881  -17.8146   25.3258 O   0  0  0  0  0  0  0  0  0  0  0  0
   12.3910  -17.1250   25.3342 C   0  0  2  0  0  0  0  0  0  0  0  0
   10.1154  -17.0697   26.1093 N   0  0  0  0  0  0  0  0  0  0  0  0
    9.8575  -15.7875   25.4737 C   0  0  0  0  0  0  0  0  0  0  0  0
   10.6009  -16.8485   27.4929 O   0  0  0  0  0  0  0  0  0  0  0  0
   10.7913  -17.8237   28.2386 O   0  0  0  0  0  0  0  0  0  0  0  0
  2  3  2  0
  2  1  1  0
  4  2  1  0
  5  4  1  0
  6  5  1  0
  7  6  1  0
  8  7  1  0
  8 10  1  0
  8  9  1  6
 10 17  1  0
 11 10  2  0
 12 13  1  0
 13 14  1  0
 14 15  1  6
 16 14  1  0
 16 18  1  0
 16 17  1  1
 18 19  2  0
 18 24  1  0
 21 22  1  0
 21 20  1  1
 23 21  1  0
 23 24  1  1
 25 23  1  0
 25 27  1  0
 26 25  2  0
M  END
$$$$
