SDK.pdb
     RDKit          3D

 24 23  0  0  1  0  0  0  0  0999 V2000
    7.4385  -17.8638   17.8108 O   0  0  0  0  0  0  0  0  0  0  0  0
    8.2141  -18.5344   18.7584 C   0  0  0  0  0  0  0  0  0  0  0  0
    9.5929  -18.7473   18.1694 C   0  0  2  0  0  0  0  0  0  0  0  0
    9.4903  -19.6303   17.0534 N   0  0  0  0  0  0  0  0  0  0  0  0
   10.5730  -19.2319   19.1917 C   0  0  0  0  0  0  0  0  0  0  0  0
   10.3759  -20.3112   19.7454 O   0  0  0  0  0  0  0  0  0  0  0  0
   11.7006  -18.4394   19.4955 N   0  0  0  0  0  0  0  0  0  0  0  0
   12.6808  -18.6059   20.5045 C   0  0  1  0  0  0  0  0  0  0  0  0
   13.9277  -17.7775   20.3642 C   0  0  0  0  0  0  0  0  0  0  0  0
   14.6327  -18.1390   19.1152 C   0  0  0  0  0  0  0  0  0  0  0  0
   14.8007  -19.3411   18.8251 O   0  0  0  0  0  0  0  0  0  0  0  0
   12.1057  -18.7256   21.8194 C   0  0  0  0  0  0  0  0  0  0  0  0
   11.6757  -17.6795   22.3925 O   0  0  0  0  0  0  0  0  0  0  0  0
   15.1225  -17.1632   18.2416 O   0  0  0  0  0  0  0  0  0  0  0  0
   11.9937  -19.9326   22.5054 N   0  0  0  0  0  0  0  0  0  0  0  0
   11.3095  -20.0084   23.8546 C   0  0  1  0  0  0  0  0  0  0  0  0
   11.0463  -21.4372   24.0955 C   0  0  0  0  0  0  0  0  0  0  0  0
   10.4700  -21.9111   25.3496 C   0  0  0  0  0  0  0  0  0  0  0  0
   10.3521  -23.3717   25.5676 C   0  0  0  0  0  0  0  0  0  0  0  0
    9.6388  -23.7309   26.8528 C   0  0  0  0  0  0  0  0  0  0  0  0
    9.4310  -25.1580   26.9225 N   0  0  0  0  0  0  0  0  0  0  0  0
   12.2279  -19.3111   24.7493 C   0  0  0  0  0  0  0  0  0  0  0  0
   11.7303  -18.7133   25.9242 O   0  0  0  0  0  0  0  0  0  0  0  0
   13.4486  -19.1804   24.5825 O   0  0  0  0  0  0  0  0  0  0  0  0
  2  1  1  0
  2  3  1  0
  3  4  1  6
  5  3  1  0
  5  6  2  0
  7  5  1  0
  8  7  1  0
  9 10  1  0
  8  9  1  1
 10 11  2  0
 12  8  1  0
 13 12  2  0
 14 10  1  0
 15 12  1  0
 16 15  1  0
 16 17  1  1
 18 17  1  0
 19 20  1  0
 19 18  1  0
 20 21  1  0
 22 16  1  0
 23 22  1  0
 24 22  2  0
M  END
$$$$
