SDK.pdb
     RDKit          3D

 24 23  0  0  1  0  0  0  0  0999 V2000
   10.9088  -12.8730   19.2185 O   0  0  0  0  0  0  0  0  0  0  0  0
   10.2534  -13.8823   18.5107 C   0  0  0  0  0  0  0  0  0  0  0  0
    8.8737  -14.0550   19.1106 C   0  0  2  0  0  0  0  0  0  0  0  0
    8.3421  -12.7705   19.4316 N   0  0  0  0  0  0  0  0  0  0  0  0
    8.8838  -14.9786   20.2886 C   0  0  0  0  0  0  0  0  0  0  0  0
    8.5353  -14.5515   21.3869 O   0  0  0  0  0  0  0  0  0  0  0  0
    9.2920  -16.3179   20.1109 N   0  0  0  0  0  0  0  0  0  0  0  0
    9.4610  -17.3489   21.0674 C   0  0  1  0  0  0  0  0  0  0  0  0
    9.5978  -18.7444   20.5246 C   0  0  0  0  0  0  0  0  0  0  0  0
    9.5398  -19.7221   21.6330 C   0  0  0  0  0  0  0  0  0  0  0  0
    8.8187  -19.4910   22.6249 O   0  0  0  0  0  0  0  0  0  0  0  0
   10.3362  -16.9651   22.1450 C   0  0  0  0  0  0  0  0  0  0  0  0
   11.5356  -16.6564   21.8735 O   0  0  0  0  0  0  0  0  0  0  0  0
   10.2777  -20.9094   21.6019 O   0  0  0  0  0  0  0  0  0  0  0  0
    9.9400  -16.9135   23.4792 N   0  0  0  0  0  0  0  0  0  0  0  0
   10.8727  -16.3987   24.5559 C   0  0  1  0  0  0  0  0  0  0  0  0
   10.0134  -15.7438   25.5568 C   0  0  0  0  0  0  0  0  0  0  0  0
   10.5610  -15.1722   26.7827 C   0  0  0  0  0  0  0  0  0  0  0  0
    9.6222  -14.6281   27.7914 C   0  0  0  0  0  0  0  0  0  0  0  0
   10.3165  -14.0076   28.9842 C   0  0  0  0  0  0  0  0  0  0  0  0
    9.3399  -13.4740   29.9041 N   0  0  0  0  0  0  0  0  0  0  0  0
   11.6275  -17.5819   24.9564 C   0  0  0  0  0  0  0  0  0  0  0  0
   12.9305  -17.4311   25.4709 O   0  0  0  0  0  0  0  0  0  0  0  0
   11.2326  -18.7545   24.8904 O   0  0  0  0  0  0  0  0  0  0  0  0
  2  1  1  0
  2  3  1  0
  3  4  1  1
  5  3  1  0
  5  6  2  0
  7  5  1  0
  8  7  1  0
  9 10  1  0
  8  9  1  6
 10 11  2  0
 12  8  1  0
 13 12  2  0
 14 10  1  0
 15 12  1  0
 16 15  1  0
 16 17  1  1
 18 17  1  0
 19 20  1  0
 19 18  1  0
 20 21  1  0
 22 16  1  0
 23 22  1  0
 24 22  2  0
M  END
$$$$
