SDK.pdb
     RDKit          3D

 24 23  0  0  1  0  0  0  0  0999 V2000
    8.1461  -13.6577   20.7676 O   0  0  0  0  0  0  0  0  0  0  0  0
    8.5020  -12.6970   19.8191 C   0  0  0  0  0  0  0  0  0  0  0  0
    8.8583  -13.4161   18.5349 C   0  0  2  0  0  0  0  0  0  0  0  0
    7.6787  -14.0040   17.9885 N   0  0  0  0  0  0  0  0  0  0  0  0
    9.9536  -14.4165   18.7354 C   0  0  0  0  0  0  0  0  0  0  0  0
    9.6733  -15.6126   18.7672 O   0  0  0  0  0  0  0  0  0  0  0  0
   11.2823  -13.9637   18.8822 N   0  0  0  0  0  0  0  0  0  0  0  0
   12.4779  -14.7026   19.0584 C   0  0  1  0  0  0  0  0  0  0  0  0
   13.5559  -14.4781   18.0346 C   0  0  0  0  0  0  0  0  0  0  0  0
   14.6638  -15.4331   18.2544 C   0  0  0  0  0  0  0  0  0  0  0  0
   14.4095  -16.6285   18.5069 O   0  0  0  0  0  0  0  0  0  0  0  0
   12.8783  -14.7851   20.4394 C   0  0  0  0  0  0  0  0  0  0  0  0
   13.5079  -13.8097   20.9492 O   0  0  0  0  0  0  0  0  0  0  0  0
   16.0014  -15.0314   18.1878 O   0  0  0  0  0  0  0  0  0  0  0  0
   12.6136  -15.8827   21.2549 N   0  0  0  0  0  0  0  0  0  0  0  0
   13.0016  -15.8847   22.7190 C   0  0  1  0  0  0  0  0  0  0  0  0
   12.2685  -17.0061   23.3307 C   0  0  0  0  0  0  0  0  0  0  0  0
   12.3757  -17.3081   24.7543 C   0  0  0  0  0  0  0  0  0  0  0  0
   11.6186  -18.4622   25.2924 C   0  0  0  0  0  0  0  0  0  0  0  0
   11.8990  -18.7349   26.7543 C   0  0  0  0  0  0  0  0  0  0  0  0
   11.0698  -19.8192   27.2244 N   0  0  0  0  0  0  0  0  0  0  0  0
   14.4598  -15.9410   22.6918 C   0  0  0  0  0  0  0  0  0  0  0  0
   15.1973  -15.2887   23.6997 O   0  0  0  0  0  0  0  0  0  0  0  0
   15.1504  -16.5232   21.8436 O   0  0  0  0  0  0  0  0  0  0  0  0
  2  1  1  0
  2  3  1  0
  3  4  1  1
  5  3  1  0
  5  6  2  0
  7  5  1  0
  8  7  1  0
  9 10  1  0
  8  9  1  6
 10 11  2  0
 12  8  1  0
 13 12  2  0
 14 10  1  0
 15 12  1  0
 16 15  1  0
 16 17  1  1
 18 17  1  0
 19 20  1  0
 19 18  1  0
 20 21  1  0
 22 16  1  0
 23 22  1  0
 24 22  2  0
M  END
$$$$
