SDK.pdb
     RDKit          3D

 24 23  0  0  1  0  0  0  0  0999 V2000
    8.2493  -13.5757   17.1675 O   0  0  0  0  0  0  0  0  0  0  0  0
    7.4702  -13.6615   18.3229 C   0  0  0  0  0  0  0  0  0  0  0  0
    8.3659  -13.3886   19.5131 C   0  0  2  0  0  0  0  0  0  0  0  0
    9.6391  -12.9464   19.0452 N   0  0  0  0  0  0  0  0  0  0  0  0
    8.4723  -14.5741   20.4209 C   0  0  0  0  0  0  0  0  0  0  0  0
    7.4543  -15.0186   20.9466 O   0  0  0  0  0  0  0  0  0  0  0  0
    9.7381  -15.1543   20.6513 N   0  0  0  0  0  0  0  0  0  0  0  0
   10.1035  -16.2237   21.5054 C   0  0  1  0  0  0  0  0  0  0  0  0
   11.1417  -17.1736   20.9757 C   0  0  0  0  0  0  0  0  0  0  0  0
   11.3439  -18.2818   21.9341 C   0  0  0  0  0  0  0  0  0  0  0  0
   10.4553  -19.1465   22.0767 O   0  0  0  0  0  0  0  0  0  0  0  0
   10.2136  -15.8180   22.8829 C   0  0  0  0  0  0  0  0  0  0  0  0
   11.2578  -15.2016   23.2536 O   0  0  0  0  0  0  0  0  0  0  0  0
   12.5129  -18.3895   22.6936 O   0  0  0  0  0  0  0  0  0  0  0  0
    9.2331  -16.0656   23.8406 N   0  0  0  0  0  0  0  0  0  0  0  0
    9.3364  -15.4889   25.2374 C   0  0  1  0  0  0  0  0  0  0  0  0
    8.0260  -14.8800   25.5220 C   0  0  0  0  0  0  0  0  0  0  0  0
    7.8475  -13.4327   25.5770 C   0  0  0  0  0  0  0  0  0  0  0  0
    6.5007  -12.8964   25.8827 C   0  0  0  0  0  0  0  0  0  0  0  0
    6.4672  -11.3878   25.9962 C   0  0  0  0  0  0  0  0  0  0  0  0
    5.1654  -10.9531   26.4445 N   0  0  0  0  0  0  0  0  0  0  0  0
    9.7666  -16.6223   26.0501 C   0  0  0  0  0  0  0  0  0  0  0  0
    9.7608  -17.9164   25.4928 O   0  0  0  0  0  0  0  0  0  0  0  0
   10.1520  -16.5703   27.2266 O   0  0  0  0  0  0  0  0  0  0  0  0
  2  1  1  0
  2  3  1  0
  3  4  1  6
  5  3  1  0
  5  6  2  0
  7  5  1  0
  8  7  1  0
  9 10  1  0
  8  9  1  6
 10 11  2  0
 12  8  1  0
 13 12  2  0
 14 10  1  0
 15 12  1  0
 16 15  1  0
 16 17  1  1
 18 17  1  0
 19 20  1  0
 19 18  1  0
 20 21  1  0
 22 16  1  0
 23 22  1  0
 24 22  2  0
M  END
$$$$
