SDK.pdb
     RDKit          3D

 24 23  0  0  1  0  0  0  0  0999 V2000
   10.8152  -12.8533   19.3810 O   0  0  0  0  0  0  0  0  0  0  0  0
   10.5389  -13.7205   18.3223 C   0  0  0  0  0  0  0  0  0  0  0  0
    9.1247  -14.2343   18.4947 C   0  0  2  0  0  0  0  0  0  0  0  0
    8.2108  -13.1581   18.2889 N   0  0  0  0  0  0  0  0  0  0  0  0
    8.9270  -14.9051   19.8181 C   0  0  0  0  0  0  0  0  0  0  0  0
    8.1793  -14.3885   20.6453 O   0  0  0  0  0  0  0  0  0  0  0  0
    9.6025  -16.1153   20.0851 N   0  0  0  0  0  0  0  0  0  0  0  0
    9.5760  -16.9324   21.2419 C   0  0  1  0  0  0  0  0  0  0  0  0
   10.2816  -18.2561   21.1380 C   0  0  0  0  0  0  0  0  0  0  0  0
   10.0675  -19.0377   22.3752 C   0  0  0  0  0  0  0  0  0  0  0  0
    8.9068  -19.3251   22.7326 O   0  0  0  0  0  0  0  0  0  0  0  0
    9.7521  -16.1778   22.4559 C   0  0  0  0  0  0  0  0  0  0  0  0
   10.8237  -15.5182   22.6117 O   0  0  0  0  0  0  0  0  0  0  0  0
   11.1383  -19.4677   23.1648 O   0  0  0  0  0  0  0  0  0  0  0  0
    8.8074  -16.1299   23.4782 N   0  0  0  0  0  0  0  0  0  0  0  0
    8.9778  -15.2002   24.6618 C   0  0  1  0  0  0  0  0  0  0  0  0
    7.7225  -14.4364   24.7607 C   0  0  0  0  0  0  0  0  0  0  0  0
    7.5081  -13.4439   25.8088 C   0  0  0  0  0  0  0  0  0  0  0  0
    6.1832  -12.7876   25.9023 C   0  0  0  0  0  0  0  0  0  0  0  0
    6.0534  -11.8652   27.0949 C   0  0  0  0  0  0  0  0  0  0  0  0
    4.7449  -11.2552   27.1098 N   0  0  0  0  0  0  0  0  0  0  0  0
    9.3341  -16.0954   25.7581 C   0  0  0  0  0  0  0  0  0  0  0  0
    9.9124  -15.5627   26.9273 O   0  0  0  0  0  0  0  0  0  0  0  0
    9.1783  -17.3245   25.7747 O   0  0  0  0  0  0  0  0  0  0  0  0
  2  1  1  0
  2  3  1  0
  3  4  1  1
  5  3  1  0
  5  6  2  0
  7  5  1  0
  8  7  1  0
  9 10  1  0
  8  9  1  6
 10 11  2  0
 12  8  1  0
 13 12  2  0
 14 10  1  0
 15 12  1  0
 16 15  1  0
 16 17  1  1
 18 17  1  0
 19 20  1  0
 19 18  1  0
 20 21  1  0
 22 16  1  0
 23 22  1  0
 24 22  2  0
M  END
$$$$
