SDK.pdb
     RDKit          3D

 24 23  0  0  1  0  0  0  0  0999 V2000
    8.9019  -17.9735   18.8774 O   0  0  0  0  0  0  0  0  0  0  0  0
    9.1915  -18.0270   17.5127 C   0  0  0  0  0  0  0  0  0  0  0  0
    9.5619  -19.4544   17.1680 C   0  0  2  0  0  0  0  0  0  0  0  0
    8.4582  -20.3068   17.4695 N   0  0  0  0  0  0  0  0  0  0  0  0
   10.8213  -19.8894   17.8501 C   0  0  0  0  0  0  0  0  0  0  0  0
   10.7626  -20.7566   18.7189 O   0  0  0  0  0  0  0  0  0  0  0  0
   12.0465  -19.2949   17.4795 N   0  0  0  0  0  0  0  0  0  0  0  0
   13.3558  -19.5397   17.9618 C   0  0  1  0  0  0  0  0  0  0  0  0
   14.4854  -19.0567   17.0949 C   0  0  0  0  0  0  0  0  0  0  0  0
   14.5488  -19.8637   15.8570 C   0  0  0  0  0  0  0  0  0  0  0  0
   14.6910  -19.2960   14.7548 O   0  0  0  0  0  0  0  0  0  0  0  0
   13.4699  -19.3298   19.3820 C   0  0  0  0  0  0  0  0  0  0  0  0
   13.1775  -18.1897   19.8535 O   0  0  0  0  0  0  0  0  0  0  0  0
   14.4519  -21.2583   15.8858 O   0  0  0  0  0  0  0  0  0  0  0  0
   13.8872  -20.3130   20.2759 N   0  0  0  0  0  0  0  0  0  0  0  0
   13.9659  -20.0393   21.7636 C   0  0  1  0  0  0  0  0  0  0  0  0
   13.2637  -21.1560   22.4185 C   0  0  0  0  0  0  0  0  0  0  0  0
   13.0669  -21.1973   23.8639 C   0  0  0  0  0  0  0  0  0  0  0  0
   12.2495  -22.2922   24.4363 C   0  0  0  0  0  0  0  0  0  0  0  0
   12.0454  -22.1704   25.9308 C   0  0  0  0  0  0  0  0  0  0  0  0
   11.0083  -23.0761   26.3651 N   0  0  0  0  0  0  0  0  0  0  0  0
   15.3950  -19.8768   22.0116 C   0  0  0  0  0  0  0  0  0  0  0  0
   15.8241  -19.1597   23.1460 O   0  0  0  0  0  0  0  0  0  0  0  0
   16.3117  -20.3178   21.3043 O   0  0  0  0  0  0  0  0  0  0  0  0
  2  1  1  0
  2  3  1  0
  3  4  1  1
  5  3  1  0
  5  6  2  0
  7  5  1  0
  8  7  1  0
  9 10  1  0
  8  9  1  6
 10 11  2  0
 12  8  1  0
 13 12  2  0
 14 10  1  0
 15 12  1  0
 16 15  1  0
 16 17  1  1
 18 17  1  0
 19 20  1  0
 19 18  1  0
 20 21  1  0
 22 16  1  0
 23 22  1  0
 24 22  2  0
M  END
$$$$
