SDK.pdb
     RDKit          3D

 24 23  0  0  1  0  0  0  0  0999 V2000
   10.9788  -13.3099   19.2060 O   0  0  0  0  0  0  0  0  0  0  0  0
   10.5807  -14.1062   18.1306 C   0  0  0  0  0  0  0  0  0  0  0  0
    9.0920  -14.3537   18.2569 C   0  0  2  0  0  0  0  0  0  0  0  0
    8.3919  -13.1549   17.9277 N   0  0  0  0  0  0  0  0  0  0  0  0
    8.7213  -14.8775   19.6092 C   0  0  0  0  0  0  0  0  0  0  0  0
    7.9586  -14.2228   20.3163 O   0  0  0  0  0  0  0  0  0  0  0  0
    9.2550  -16.1108   20.0407 N   0  0  0  0  0  0  0  0  0  0  0  0
    9.0148  -16.8349   21.2343 C   0  0  1  0  0  0  0  0  0  0  0  0
    9.4370  -18.2780   21.2335 C   0  0  0  0  0  0  0  0  0  0  0  0
   10.8854  -18.3773   20.9508 C   0  0  0  0  0  0  0  0  0  0  0  0
   11.2972  -18.2526   19.7793 O   0  0  0  0  0  0  0  0  0  0  0  0
    9.2935  -16.0605   22.4161 C   0  0  0  0  0  0  0  0  0  0  0  0
   10.3927  -15.4326   22.4864 O   0  0  0  0  0  0  0  0  0  0  0  0
   11.8161  -18.6103   21.9679 O   0  0  0  0  0  0  0  0  0  0  0  0
    8.4200  -15.9605   23.4964 N   0  0  0  0  0  0  0  0  0  0  0  0
    8.7156  -15.0401   24.6624 C   0  0  1  0  0  0  0  0  0  0  0  0
    7.4867  -14.2591   24.8836 C   0  0  0  0  0  0  0  0  0  0  0  0
    7.3988  -13.2457   25.9298 C   0  0  0  0  0  0  0  0  0  0  0  0
    6.1318  -12.4931   26.0821 C   0  0  0  0  0  0  0  0  0  0  0  0
    6.1626  -11.4892   27.2140 C   0  0  0  0  0  0  0  0  0  0  0  0
    4.8732  -10.8534   27.3480 N   0  0  0  0  0  0  0  0  0  0  0  0
    9.1611  -15.9466   25.7160 C   0  0  0  0  0  0  0  0  0  0  0  0
    9.8463  -15.4276   26.8325 O   0  0  0  0  0  0  0  0  0  0  0  0
    8.9973  -17.1745   25.7378 O   0  0  0  0  0  0  0  0  0  0  0  0
  2  1  1  0
  2  3  1  0
  3  4  1  1
  5  3  1  0
  5  6  2  0
  7  5  1  0
  8  7  1  0
  9 10  1  0
  8  9  1  6
 10 11  2  0
 12  8  1  0
 13 12  2  0
 14 10  1  0
 15 12  1  0
 16 15  1  0
 16 17  1  1
 18 17  1  0
 19 20  1  0
 19 18  1  0
 20 21  1  0
 22 16  1  0
 23 22  1  0
 24 22  2  0
M  END
$$$$
