SDK.pdb
     RDKit          3D

 24 23  0  0  1  0  0  0  0  0999 V2000
   18.7115  -17.9914   17.0194 O   0  0  0  0  0  0  0  0  0  0  0  0
   18.1544  -18.3922   15.8037 C   0  0  0  0  0  0  0  0  0  0  0  0
   16.9662  -17.4986   15.5157 C   0  0  2  0  0  0  0  0  0  0  0  0
   17.4295  -16.1690   15.2851 N   0  0  0  0  0  0  0  0  0  0  0  0
   15.9370  -17.5636   16.6007 C   0  0  0  0  0  0  0  0  0  0  0  0
   15.3884  -16.5271   16.9682 O   0  0  0  0  0  0  0  0  0  0  0  0
   15.6199  -18.8128   17.1759 N   0  0  0  0  0  0  0  0  0  0  0  0
   14.5840  -19.1590   18.0779 C   0  0  1  0  0  0  0  0  0  0  0  0
   14.1144  -20.5868   18.0357 C   0  0  0  0  0  0  0  0  0  0  0  0
   15.0777  -21.4535   18.7489 C   0  0  0  0  0  0  0  0  0  0  0  0
   16.3031  -21.2753   18.5937 O   0  0  0  0  0  0  0  0  0  0  0  0
   14.7529  -18.5519   19.3729 C   0  0  0  0  0  0  0  0  0  0  0  0
   15.8850  -18.0671   19.6741 O   0  0  0  0  0  0  0  0  0  0  0  0
   14.6511  -22.4777   19.5999 O   0  0  0  0  0  0  0  0  0  0  0  0
   13.7378  -18.4660   20.3228 N   0  0  0  0  0  0  0  0  0  0  0  0
   13.9394  -17.7129   21.6214 C   0  0  1  0  0  0  0  0  0  0  0  0
   12.5989  -17.5553   22.2105 C   0  0  0  0  0  0  0  0  0  0  0  0
   12.3869  -16.8142   23.4496 C   0  0  0  0  0  0  0  0  0  0  0  0
   11.0201  -16.7625   24.0189 C   0  0  0  0  0  0  0  0  0  0  0  0
   10.9409  -15.9945   25.3203 C   0  0  0  0  0  0  0  0  0  0  0  0
    9.5811  -15.9802   25.8056 N   0  0  0  0  0  0  0  0  0  0  0  0
   14.9234  -18.5165   22.3398 C   0  0  0  0  0  0  0  0  0  0  0  0
   15.9621  -17.8745   23.0428 O   0  0  0  0  0  0  0  0  0  0  0  0
   14.9479  -19.7538   22.4017 O   0  0  0  0  0  0  0  0  0  0  0  0
  2  1  1  0
  2  3  1  0
  3  4  1  1
  5  3  1  0
  5  6  2  0
  7  5  1  0
  8  7  1  0
  9 10  1  0
  8  9  1  1
 10 11  2  0
 12  8  1  0
 13 12  2  0
 14 10  1  0
 15 12  1  0
 16 15  1  0
 16 17  1  1
 18 17  1  0
 19 20  1  0
 19 18  1  0
 20 21  1  0
 22 16  1  0
 23 22  1  0
 24 22  2  0
M  END
$$$$
