SDK.pdb
     RDKit          3D

 24 23  0  0  1  0  0  0  0  0999 V2000
   10.4881  -12.5085   18.6505 O   0  0  0  0  0  0  0  0  0  0  0  0
   10.1555  -13.8316   18.3537 C   0  0  0  0  0  0  0  0  0  0  0  0
    8.6956  -14.0365   18.7002 C   0  0  2  0  0  0  0  0  0  0  0  0
    8.0391  -12.7699   18.7155 N   0  0  0  0  0  0  0  0  0  0  0  0
    8.5218  -14.7844   19.9852 C   0  0  0  0  0  0  0  0  0  0  0  0
    7.7189  -14.3670   20.8167 O   0  0  0  0  0  0  0  0  0  0  0  0
    9.2828  -15.9513   20.2119 N   0  0  0  0  0  0  0  0  0  0  0  0
    9.3006  -16.8189   21.3315 C   0  0  1  0  0  0  0  0  0  0  0  0
   10.0083  -18.1322   21.1444 C   0  0  0  0  0  0  0  0  0  0  0  0
    9.7897  -18.9933   22.3269 C   0  0  0  0  0  0  0  0  0  0  0  0
    8.7154  -18.9176   22.9575 O   0  0  0  0  0  0  0  0  0  0  0  0
    9.5157  -16.1176   22.5709 C   0  0  0  0  0  0  0  0  0  0  0  0
   10.6846  -15.7093   22.8435 O   0  0  0  0  0  0  0  0  0  0  0  0
   10.7619  -19.8983   22.7641 O   0  0  0  0  0  0  0  0  0  0  0  0
    8.5072  -15.8600   23.4964 N   0  0  0  0  0  0  0  0  0  0  0  0
    8.7468  -14.9555   24.6874 C   0  0  1  0  0  0  0  0  0  0  0  0
    7.4861  -14.2248   24.9012 C   0  0  0  0  0  0  0  0  0  0  0  0
    7.3676  -13.1764   25.9093 C   0  0  0  0  0  0  0  0  0  0  0  0
    6.0661  -12.4856   26.0631 C   0  0  0  0  0  0  0  0  0  0  0  0
    6.0417  -11.5006   27.2116 C   0  0  0  0  0  0  0  0  0  0  0  0
    4.7246  -10.9236   27.3420 N   0  0  0  0  0  0  0  0  0  0  0  0
    9.2056  -15.8681   25.7298 C   0  0  0  0  0  0  0  0  0  0  0  0
    9.9340  -15.3603   26.8239 O   0  0  0  0  0  0  0  0  0  0  0  0
    9.0182  -17.0926   25.7600 O   0  0  0  0  0  0  0  0  0  0  0  0
  2  1  1  0
  2  3  1  0
  3  4  1  1
  5  3  1  0
  5  6  2  0
  7  5  1  0
  8  7  1  0
  9 10  1  0
  8  9  1  6
 10 11  2  0
 12  8  1  0
 13 12  2  0
 14 10  1  0
 15 12  1  0
 16 15  1  0
 16 17  1  1
 18 17  1  0
 19 20  1  0
 19 18  1  0
 20 21  1  0
 22 16  1  0
 23 22  1  0
 24 22  2  0
M  END
$$$$
