SDK.pdb
     RDKit          3D

 24 23  0  0  1  0  0  0  0  0999 V2000
   13.6717  -17.4763   18.9841 O   0  0  0  0  0  0  0  0  0  0  0  0
   14.9010  -17.7047   18.3629 C   0  0  0  0  0  0  0  0  0  0  0  0
   15.3082  -19.1363   18.6423 C   0  0  2  0  0  0  0  0  0  0  0  0
   14.5919  -20.0032   17.7642 N   0  0  0  0  0  0  0  0  0  0  0  0
   15.1236  -19.5033   20.0817 C   0  0  0  0  0  0  0  0  0  0  0  0
   14.2012  -20.2526   20.3948 O   0  0  0  0  0  0  0  0  0  0  0  0
   16.0129  -18.9815   21.0455 N   0  0  0  0  0  0  0  0  0  0  0  0
   16.0674  -19.2038   22.4435 C   0  0  1  0  0  0  0  0  0  0  0  0
   17.3629  -18.8558   23.1226 C   0  0  0  0  0  0  0  0  0  0  0  0
   18.0813  -17.8287   22.3374 C   0  0  0  0  0  0  0  0  0  0  0  0
   18.1636  -17.9430   21.0974 O   0  0  0  0  0  0  0  0  0  0  0  0
   14.8458  -18.8330   23.1102 C   0  0  0  0  0  0  0  0  0  0  0  0
   14.4599  -17.6270   23.0456 O   0  0  0  0  0  0  0  0  0  0  0  0
   18.6780  -16.7226   22.9503 O   0  0  0  0  0  0  0  0  0  0  0  0
   14.0570  -19.7281   23.8288 N   0  0  0  0  0  0  0  0  0  0  0  0
   12.7241  -19.3069   24.4121 C   0  0  1  0  0  0  0  0  0  0  0  0
   11.7687  -20.3659   24.0452 C   0  0  0  0  0  0  0  0  0  0  0  0
   11.4494  -20.6632   22.6526 C   0  0  0  0  0  0  0  0  0  0  0  0
   10.6081  -21.8460   22.3560 C   0  0  0  0  0  0  0  0  0  0  0  0
   10.4218  -22.0935   20.8748 C   0  0  0  0  0  0  0  0  0  0  0  0
    9.6862  -23.3181   20.6654 N   0  0  0  0  0  0  0  0  0  0  0  0
   13.0156  -19.0943   25.8263 C   0  0  0  0  0  0  0  0  0  0  0  0
   12.1176  -18.3469   26.6140 O   0  0  0  0  0  0  0  0  0  0  0  0
   14.0080  -19.5157   26.4368 O   0  0  0  0  0  0  0  0  0  0  0  0
  2  1  1  0
  2  3  1  0
  3  4  1  6
  5  3  1  0
  5  6  2  0
  7  5  1  0
  8  7  1  0
  9 10  1  0
  8  9  1  1
 10 11  2  0
 12  8  1  0
 13 12  2  0
 14 10  1  0
 15 12  1  0
 16 15  1  0
 16 17  1  1
 18 17  1  0
 19 20  1  0
 19 18  1  0
 20 21  1  0
 22 16  1  0
 23 22  1  0
 24 22  2  0
M  END
$$$$
