SDK.pdb
     RDKit          3D

 24 23  0  0  1  0  0  0  0  0999 V2000
   10.7108  -12.9376   19.1928 O   0  0  0  0  0  0  0  0  0  0  0  0
   10.5487  -13.8665   18.1631 C   0  0  0  0  0  0  0  0  0  0  0  0
    9.1212  -14.3700   18.2070 C   0  0  2  0  0  0  0  0  0  0  0  0
    8.2476  -13.3296   17.7711 N   0  0  0  0  0  0  0  0  0  0  0  0
    8.7513  -14.8963   19.5586 C   0  0  0  0  0  0  0  0  0  0  0  0
    7.9514  -14.2671   20.2475 O   0  0  0  0  0  0  0  0  0  0  0  0
    9.3285  -16.1025   20.0102 N   0  0  0  0  0  0  0  0  0  0  0  0
    9.0869  -16.8340   21.1990 C   0  0  1  0  0  0  0  0  0  0  0  0
    9.5470  -18.2654   21.2046 C   0  0  0  0  0  0  0  0  0  0  0  0
   11.0210  -18.3195   21.0941 C   0  0  0  0  0  0  0  0  0  0  0  0
   11.7225  -18.2204   22.1214 O   0  0  0  0  0  0  0  0  0  0  0  0
    9.3246  -16.0538   22.3860 C   0  0  0  0  0  0  0  0  0  0  0  0
   10.3769  -15.3496   22.4501 O   0  0  0  0  0  0  0  0  0  0  0  0
   11.6578  -18.4791   19.8596 O   0  0  0  0  0  0  0  0  0  0  0  0
    8.4601  -16.0278   23.4777 N   0  0  0  0  0  0  0  0  0  0  0  0
    8.7303  -15.1364   24.6721 C   0  0  1  0  0  0  0  0  0  0  0  0
    7.5109  -14.3326   24.8618 C   0  0  0  0  0  0  0  0  0  0  0  0
    7.4193  -13.3088   25.8976 C   0  0  0  0  0  0  0  0  0  0  0  0
    6.1714  -12.5174   26.0028 C   0  0  0  0  0  0  0  0  0  0  0  0
    6.2065  -11.4860   27.1096 C   0  0  0  0  0  0  0  0  0  0  0  0
    4.9353  -10.8068   27.1948 N   0  0  0  0  0  0  0  0  0  0  0  0
    9.1154  -16.0722   25.7238 C   0  0  0  0  0  0  0  0  0  0  0  0
    9.8655  -15.6089   26.8229 O   0  0  0  0  0  0  0  0  0  0  0  0
    8.8450  -17.2809   25.7580 O   0  0  0  0  0  0  0  0  0  0  0  0
  2  1  1  0
  2  3  1  0
  3  4  1  1
  5  3  1  0
  5  6  2  0
  7  5  1  0
  8  7  1  0
  9 10  1  0
  8  9  1  1
 10 11  2  0
 12  8  1  0
 13 12  2  0
 14 10  1  0
 15 12  1  0
 16 15  1  0
 16 17  1  1
 18 17  1  0
 19 20  1  0
 19 18  1  0
 20 21  1  0
 22 16  1  0
 23 22  1  0
 24 22  2  0
M  END
$$$$
