STI.pdb
     RDKit          3D

 22 21  0  0  1  0  0  0  0  0999 V2000
   17.2326  -11.5815  -19.2200 O   0  0  0  0  0  0  0  0  0  0  0  0
   18.0946  -10.8972  -18.3634 C   0  0  0  0  0  0  0  0  0  0  0  0
   19.5057  -11.3937  -18.4763 C   0  0  2  0  0  0  0  0  0  0  0  0
   19.5325  -12.7710  -18.0313 N   0  0  0  0  0  0  0  0  0  0  0  0
   20.4761  -10.5775  -17.7290 C   0  0  0  0  0  0  0  0  0  0  0  0
   21.0453  -11.0816  -16.7196 O   0  0  0  0  0  0  0  0  0  0  0  0
   23.5459   -8.9581  -19.0630 C   0  0  0  0  0  0  0  0  0  0  0  0
   22.7306   -7.8931  -18.4223 C   0  0  1  0  0  0  0  0  0  0  0  0
   21.9748   -7.1656  -19.3094 O   0  0  0  0  0  0  0  0  0  0  0  0
   21.7911   -8.4486  -17.3419 C   0  0  2  0  0  0  0  0  0  0  0  0
   20.8229   -9.2592  -18.0583 N   0  0  0  0  0  0  0  0  0  0  0  0
   21.1894   -7.4132  -16.5240 C   0  0  0  0  0  0  0  0  0  0  0  0
   20.1724   -6.8042  -16.9223 O   0  0  0  0  0  0  0  0  0  0  0  0
   20.6159   -7.9681  -11.1852 C   0  0  0  0  0  0  0  0  0  0  0  0
   21.3848   -7.3950  -12.3541 C   0  0  0  0  0  0  0  0  0  0  0  0
   20.4277   -6.6123  -13.2232 C   0  0  2  0  0  0  0  0  0  0  0  0
   19.3006   -7.5352  -13.6584 C   0  0  0  0  0  0  0  0  0  0  0  0
   21.1024   -6.0324  -14.4375 C   0  0  2  0  0  0  0  0  0  0  0  0
   21.7138   -7.0542  -15.2662 N   0  0  0  0  0  0  0  0  0  0  0  0
   22.0861   -5.0177  -14.0004 C   0  0  0  0  0  0  0  0  0  0  0  0
   21.6699   -3.9873  -13.4241 O   0  0  0  0  0  0  0  0  0  0  0  0
   23.4462   -5.1483  -14.1957 O   0  0  0  0  0  0  0  0  0  0  0  0
  1  2  1  0
  2  3  1  0
  3  5  1  0
  3  4  1  1
  5  6  2  0
  8  7  1  6
  8 10  1  0
  9  8  1  0
 10 12  1  0
 10 11  1  6
 11  5  1  0
 12 19  1  0
 13 12  2  0
 15 14  1  0
 16 15  1  0
 16 17  1  6
 18 16  1  0
 18 19  1  1
 20 22  1  0
 20 18  1  0
 21 20  2  0
M  END
$$$$
