STI.pdb
     RDKit          3D

 22 21  0  0  1  0  0  0  0  0999 V2000
   22.3221  -21.1804   -9.8890 O   0  0  0  0  0  0  0  0  0  0  0  0
   23.3013  -20.2964  -10.3415 C   0  0  0  0  0  0  0  0  0  0  0  0
   24.6283  -20.9739  -10.5170 C   0  0  2  0  0  0  0  0  0  0  0  0
   25.2238  -21.1379   -9.2077 N   0  0  0  0  0  0  0  0  0  0  0  0
   25.5374  -20.2565  -11.4254 C   0  0  0  0  0  0  0  0  0  0  0  0
   26.3372  -19.4071  -10.9396 O   0  0  0  0  0  0  0  0  0  0  0  0
   28.2243  -21.3512  -13.6035 C   0  0  0  0  0  0  0  0  0  0  0  0
   27.2470  -20.6717  -14.4938 C   0  0  1  0  0  0  0  0  0  0  0  0
   26.4111  -21.5354  -15.1591 O   0  0  0  0  0  0  0  0  0  0  0  0
   26.3771  -19.6568  -13.7376 C   0  0  2  0  0  0  0  0  0  0  0  0
   25.5839  -20.4475  -12.8139 N   0  0  0  0  0  0  0  0  0  0  0  0
   25.5823  -18.8217  -14.6174 C   0  0  0  0  0  0  0  0  0  0  0  0
   24.3616  -19.0462  -14.7698 O   0  0  0  0  0  0  0  0  0  0  0  0
   26.9837  -13.7340  -15.1407 C   0  0  0  0  0  0  0  0  0  0  0  0
   25.8833  -14.7704  -15.1079 C   0  0  0  0  0  0  0  0  0  0  0  0
   25.9131  -15.5459  -16.4047 C   0  0  2  0  0  0  0  0  0  0  0  0
   25.1025  -14.7874  -17.4435 C   0  0  0  0  0  0  0  0  0  0  0  0
   25.3603  -16.9376  -16.2510 C   0  0  2  0  0  0  0  0  0  0  0  0
   26.1398  -17.7388  -15.3264 N   0  0  0  0  0  0  0  0  0  0  0  0
   25.2722  -17.5685  -17.5862 C   0  0  0  0  0  0  0  0  0  0  0  0
   26.3113  -18.0484  -18.0930 O   0  0  0  0  0  0  0  0  0  0  0  0
   24.0979  -17.6561  -18.3061 O   0  0  0  0  0  0  0  0  0  0  0  0
  1  2  1  0
  2  3  1  0
  3  5  1  0
  3  4  1  1
  5  6  2  0
  8  7  1  1
  8 10  1  0
  9  8  1  0
 10 12  1  0
 10 11  1  1
 11  5  1  0
 12 19  1  0
 13 12  2  0
 15 14  1  0
 16 15  1  0
 16 17  1  6
 18 16  1  0
 18 19  1  1
 20 22  1  0
 20 18  1  0
 21 20  2  0
M  END
$$$$
