STI.pdb
     RDKit          3D

 22 21  0  0  1  0  0  0  0  0999 V2000
   15.8477  -12.9992  -13.8381 O   0  0  0  0  0  0  0  0  0  0  0  0
   16.8901  -12.2872  -14.4310 C   0  0  0  0  0  0  0  0  0  0  0  0
   16.5090  -11.7596  -15.7827 C   0  0  2  0  0  0  0  0  0  0  0  0
   16.4903  -12.8723  -16.7085 N   0  0  0  0  0  0  0  0  0  0  0  0
   17.3935  -10.6860  -16.2638 C   0  0  0  0  0  0  0  0  0  0  0  0
   18.4648  -11.0002  -16.8560 O   0  0  0  0  0  0  0  0  0  0  0  0
   17.8149   -5.8953  -17.4029 C   0  0  0  0  0  0  0  0  0  0  0  0
   17.0791   -7.1409  -17.0618 C   0  0  1  0  0  0  0  0  0  0  0  0
   16.3456   -7.6533  -18.1043 O   0  0  0  0  0  0  0  0  0  0  0  0
   18.0123   -8.2474  -16.5487 C   0  0  2  0  0  0  0  0  0  0  0  0
   17.1326   -9.3165  -16.1121 N   0  0  0  0  0  0  0  0  0  0  0  0
   18.9250   -7.7897  -15.5187 C   0  0  0  0  0  0  0  0  0  0  0  0
   18.5307   -7.6533  -14.3399 O   0  0  0  0  0  0  0  0  0  0  0  0
   23.2323  -10.1756  -14.2431 C   0  0  0  0  0  0  0  0  0  0  0  0
   21.9862   -9.3192  -14.2522 C   0  0  0  0  0  0  0  0  0  0  0  0
   22.3777   -7.9027  -14.6046 C   0  0  2  0  0  0  0  0  0  0  0  0
   23.2747   -7.3582  -13.5044 C   0  0  0  0  0  0  0  0  0  0  0  0
   21.1816   -7.0041  -14.7715 C   0  0  2  0  0  0  0  0  0  0  0  0
   20.2728   -7.4845  -15.7951 N   0  0  0  0  0  0  0  0  0  0  0  0
   21.6504   -5.6296  -15.0536 C   0  0  0  0  0  0  0  0  0  0  0  0
   22.1875   -4.9773  -14.1301 O   0  0  0  0  0  0  0  0  0  0  0  0
   21.5257   -5.0257  -16.2883 O   0  0  0  0  0  0  0  0  0  0  0  0
  1  2  1  0
  2  3  1  0
  3  5  1  0
  3  4  1  6
  5  6  2  0
  8  7  1  6
  8 10  1  0
  9  8  1  0
 10 12  1  0
 10 11  1  1
 11  5  1  0
 12 19  1  0
 13 12  2  0
 15 14  1  0
 16 15  1  0
 16 17  1  1
 18 16  1  0
 18 19  1  6
 20 22  1  0
 20 18  1  0
 21 20  2  0
M  END
$$$$
