STI.pdb
     RDKit          3D

 22 21  0  0  1  0  0  0  0  0999 V2000
   15.6312  -13.0277  -13.5778 O   0  0  0  0  0  0  0  0  0  0  0  0
   16.6402  -12.1808  -14.0357 C   0  0  0  0  0  0  0  0  0  0  0  0
   16.4406  -11.7990  -15.4727 C   0  0  2  0  0  0  0  0  0  0  0  0
   16.5012  -13.0062  -16.2692 N   0  0  0  0  0  0  0  0  0  0  0  0
   17.4077  -10.7990  -15.9535 C   0  0  0  0  0  0  0  0  0  0  0  0
   18.5270  -11.1946  -16.3868 O   0  0  0  0  0  0  0  0  0  0  0  0
   16.6503   -7.8357  -18.3856 C   0  0  0  0  0  0  0  0  0  0  0  0
   17.2655   -7.3445  -17.1249 C   0  0  1  0  0  0  0  0  0  0  0  0
   16.3538   -6.8769  -16.2097 O   0  0  0  0  0  0  0  0  0  0  0  0
   18.1212   -8.4181  -16.4367 C   0  0  2  0  0  0  0  0  0  0  0  0
   17.1768   -9.4158  -15.9674 N   0  0  0  0  0  0  0  0  0  0  0  0
   18.9699   -7.8840  -15.3890 C   0  0  0  0  0  0  0  0  0  0  0  0
   18.6000   -7.9220  -14.1950 O   0  0  0  0  0  0  0  0  0  0  0  0
   23.5155   -9.7180  -14.1821 C   0  0  0  0  0  0  0  0  0  0  0  0
   22.1794   -9.0114  -14.1433 C   0  0  0  0  0  0  0  0  0  0  0  0
   22.3878   -7.5651  -14.5293 C   0  0  2  0  0  0  0  0  0  0  0  0
   23.2947   -6.9127  -13.4981 C   0  0  0  0  0  0  0  0  0  0  0  0
   21.0919   -6.8042  -14.6151 C   0  0  2  0  0  0  0  0  0  0  0  0
   20.2270   -7.3096  -15.6644 N   0  0  0  0  0  0  0  0  0  0  0  0
   21.3912   -5.3666  -14.7942 C   0  0  0  0  0  0  0  0  0  0  0  0
   21.3336   -4.8804  -15.9463 O   0  0  0  0  0  0  0  0  0  0  0  0
   21.7325   -4.5287  -13.7518 O   0  0  0  0  0  0  0  0  0  0  0  0
  1  2  1  0
  2  3  1  0
  3  5  1  0
  3  4  1  6
  5  6  2  0
  8  7  1  6
  8 10  1  0
  9  8  1  0
 10 12  1  0
 10 11  1  1
 11  5  1  0
 12 19  1  0
 13 12  2  0
 15 14  1  0
 16 15  1  0
 16 17  1  1
 18 16  1  0
 18 19  1  6
 20 22  1  0
 20 18  1  0
 21 20  2  0
M  END
$$$$
