STI.pdb
     RDKit          3D

 22 21  0  0  1  0  0  0  0  0999 V2000
   14.5796  -12.9649  -14.5195 O   0  0  0  0  0  0  0  0  0  0  0  0
   15.7670  -12.2938  -14.8106 C   0  0  0  0  0  0  0  0  0  0  0  0
   15.9580  -12.1100  -16.2872 C   0  0  2  0  0  0  0  0  0  0  0  0
   16.1146  -13.4192  -16.8847 N   0  0  0  0  0  0  0  0  0  0  0  0
   17.0911  -11.2344  -16.6274 C   0  0  0  0  0  0  0  0  0  0  0  0
   18.2338  -11.7513  -16.7832 O   0  0  0  0  0  0  0  0  0  0  0  0
   17.0186   -8.5800  -19.4309 C   0  0  0  0  0  0  0  0  0  0  0  0
   17.4635   -7.9570  -18.1568 C   0  0  1  0  0  0  0  0  0  0  0  0
   16.4629   -7.2989  -17.4836 O   0  0  0  0  0  0  0  0  0  0  0  0
   18.0901   -8.9783  -17.1961 C   0  0  2  0  0  0  0  0  0  0  0  0
   16.9969   -9.8452  -16.7948 N   0  0  0  0  0  0  0  0  0  0  0  0
   18.7807   -8.3607  -16.0804 C   0  0  0  0  0  0  0  0  0  0  0  0
   18.1793   -8.1464  -15.0051 O   0  0  0  0  0  0  0  0  0  0  0  0
   23.2666  -10.2076  -14.3656 C   0  0  0  0  0  0  0  0  0  0  0  0
   21.9161   -9.5288  -14.4017 C   0  0  0  0  0  0  0  0  0  0  0  0
   22.1209   -8.0647  -14.7155 C   0  0  2  0  0  0  0  0  0  0  0  0
   22.7738   -7.3972  -13.5157 C   0  0  0  0  0  0  0  0  0  0  0  0
   20.8292   -7.3642  -15.0419 C   0  0  2  0  0  0  0  0  0  0  0  0
   20.1360   -7.9821  -16.1565 N   0  0  0  0  0  0  0  0  0  0  0  0
   21.1101   -5.9338  -15.2939 C   0  0  0  0  0  0  0  0  0  0  0  0
   21.3449   -5.5658  -16.4670 O   0  0  0  0  0  0  0  0  0  0  0  0
   21.1268   -4.9786  -14.2977 O   0  0  0  0  0  0  0  0  0  0  0  0
  1  2  1  0
  2  3  1  0
  3  5  1  0
  3  4  1  6
  5  6  2  0
  8  7  1  6
  8 10  1  0
  9  8  1  0
 10 12  1  0
 10 11  1  1
 11  5  1  0
 12 19  1  0
 13 12  2  0
 15 14  1  0
 16 15  1  0
 16 17  1  1
 18 16  1  0
 18 19  1  6
 20 22  1  0
 20 18  1  0
 21 20  2  0
M  END
$$$$
