STI.pdb
     RDKit          3D

 22 21  0  0  1  0  0  0  0  0999 V2000
   15.0933  -15.1581  -14.9083 O   0  0  0  0  0  0  0  0  0  0  0  0
   16.3265  -14.5918  -15.2302 C   0  0  0  0  0  0  0  0  0  0  0  0
   16.4630  -14.3500  -16.7045 C   0  0  2  0  0  0  0  0  0  0  0  0
   16.8580  -15.5954  -17.3277 N   0  0  0  0  0  0  0  0  0  0  0  0
   17.4062  -13.2699  -17.0367 C   0  0  0  0  0  0  0  0  0  0  0  0
   18.3953  -13.5328  -17.7780 O   0  0  0  0  0  0  0  0  0  0  0  0
   16.6016  -10.1505  -18.7875 C   0  0  0  0  0  0  0  0  0  0  0  0
   17.2451   -9.7596  -17.5059 C   0  0  1  0  0  0  0  0  0  0  0  0
   16.3514   -9.4259  -16.5172 O   0  0  0  0  0  0  0  0  0  0  0  0
   18.1700  -10.8571  -16.9594 C   0  0  2  0  0  0  0  0  0  0  0  0
   17.2880  -11.9476  -16.5847 N   0  0  0  0  0  0  0  0  0  0  0  0
   19.0188  -10.3987  -15.8766 C   0  0  0  0  0  0  0  0  0  0  0  0
   18.6311  -10.4826  -14.6906 O   0  0  0  0  0  0  0  0  0  0  0  0
   24.1078  -11.7376  -15.4281 C   0  0  0  0  0  0  0  0  0  0  0  0
   22.6552  -11.3552  -15.2556 C   0  0  0  0  0  0  0  0  0  0  0  0
   22.5608   -9.8497  -15.1639 C   0  0  2  0  0  0  0  0  0  0  0  0
   23.3712   -9.3841  -13.9647 C   0  0  0  0  0  0  0  0  0  0  0  0
   21.1393   -9.3736  -15.0280 C   0  0  2  0  0  0  0  0  0  0  0  0
   20.2956   -9.8490  -16.1081 N   0  0  0  0  0  0  0  0  0  0  0  0
   21.1351   -7.8971  -14.9362 C   0  0  0  0  0  0  0  0  0  0  0  0
   20.9842   -7.2309  -15.9852 O   0  0  0  0  0  0  0  0  0  0  0  0
   21.2898   -7.2120  -13.7481 O   0  0  0  0  0  0  0  0  0  0  0  0
  1  2  1  0
  2  3  1  0
  3  5  1  0
  3  4  1  6
  5  6  2  0
  8  7  1  6
  8 10  1  0
  9  8  1  0
 10 12  1  0
 10 11  1  1
 11  5  1  0
 12 19  1  0
 13 12  2  0
 15 14  1  0
 16 15  1  0
 16 17  1  1
 18 16  1  0
 18 19  1  6
 20 22  1  0
 20 18  1  0
 21 20  2  0
M  END
$$$$
