STI.pdb
     RDKit          3D

 22 21  0  0  1  0  0  0  0  0999 V2000
   22.8105  -12.9509  -16.5458 O   0  0  0  0  0  0  0  0  0  0  0  0
   21.8508  -13.6916  -17.2352 C   0  0  0  0  0  0  0  0  0  0  0  0
   20.4577  -13.3450  -16.7995 C   0  0  2  0  0  0  0  0  0  0  0  0
   19.5388  -14.2108  -17.5077 N   0  0  0  0  0  0  0  0  0  0  0  0
   20.1145  -11.9285  -17.0048 C   0  0  0  0  0  0  0  0  0  0  0  0
   20.2689  -11.4256  -18.1539 O   0  0  0  0  0  0  0  0  0  0  0  0
   16.9272  -10.1870  -16.7882 C   0  0  0  0  0  0  0  0  0  0  0  0
   17.8275   -9.5360  -15.8008 C   0  0  1  0  0  0  0  0  0  0  0  0
   17.6745  -10.0054  -14.5188 O   0  0  0  0  0  0  0  0  0  0  0  0
   19.3086   -9.6731  -16.1833 C   0  0  2  0  0  0  0  0  0  0  0  0
   19.6203  -11.0796  -16.0039 N   0  0  0  0  0  0  0  0  0  0  0  0
   20.1749   -8.7861  -15.4310 C   0  0  0  0  0  0  0  0  0  0  0  0
   20.7000   -9.1709  -14.3633 O   0  0  0  0  0  0  0  0  0  0  0  0
   24.2792   -6.5762  -17.5752 C   0  0  0  0  0  0  0  0  0  0  0  0
   23.2695   -7.1885  -16.6310 C   0  0  0  0  0  0  0  0  0  0  0  0
   22.4715   -6.0759  -15.9913 C   0  0  2  0  0  0  0  0  0  0  0  0
   23.4101   -5.2268  -15.1488 C   0  0  0  0  0  0  0  0  0  0  0  0
   21.3527   -6.5975  -15.1298 C   0  0  2  0  0  0  0  0  0  0  0  0
   20.4593   -7.4749  -15.8623 N   0  0  0  0  0  0  0  0  0  0  0  0
   20.6316   -5.4511  -14.5346 C   0  0  0  0  0  0  0  0  0  0  0  0
   19.7314   -4.8954  -15.2036 O   0  0  0  0  0  0  0  0  0  0  0  0
   20.9011   -4.9596  -13.2734 O   0  0  0  0  0  0  0  0  0  0  0  0
  1  2  1  0
  2  3  1  0
  3  5  1  0
  3  4  1  6
  5  6  2  0
  8  7  1  6
  8 10  1  0
  9  8  1  0
 10 12  1  0
 10 11  1  1
 11  5  1  0
 12 19  1  0
 13 12  2  0
 15 14  1  0
 16 15  1  0
 16 17  1  1
 18 16  1  0
 18 19  1  6
 20 22  1  0
 20 18  1  0
 21 20  2  0
M  END
$$$$
