STI.pdb
     RDKit          3D

 22 21  0  0  1  0  0  0  0  0999 V2000
   18.4585  -16.2268  -18.9715 O   0  0  0  0  0  0  0  0  0  0  0  0
   19.0046  -15.0128  -18.5556 C   0  0  0  0  0  0  0  0  0  0  0  0
   19.8134  -14.3630  -19.6393 C   0  0  2  0  0  0  0  0  0  0  0  0
   20.9123  -15.2460  -19.9683 N   0  0  0  0  0  0  0  0  0  0  0  0
   20.3018  -13.0213  -19.2820 C   0  0  0  0  0  0  0  0  0  0  0  0
   21.4731  -12.9028  -18.8225 O   0  0  0  0  0  0  0  0  0  0  0  0
   19.2313   -9.8777  -21.4468 C   0  0  0  0  0  0  0  0  0  0  0  0
   19.1593   -9.5743  -19.9935 C   0  0  1  0  0  0  0  0  0  0  0  0
   17.8869   -9.6314  -19.4787 O   0  0  0  0  0  0  0  0  0  0  0  0
   20.0516  -10.5046  -19.1588 C   0  0  2  0  0  0  0  0  0  0  0  0
   19.5523  -11.8435  -19.4153 N   0  0  0  0  0  0  0  0  0  0  0  0
   20.0789  -10.1551  -17.7516 C   0  0  0  0  0  0  0  0  0  0  0  0
   19.2065  -10.5985  -16.9731 O   0  0  0  0  0  0  0  0  0  0  0  0
   23.1828  -10.4502  -13.0750 C   0  0  0  0  0  0  0  0  0  0  0  0
   22.6319   -9.2133  -13.7477 C   0  0  0  0  0  0  0  0  0  0  0  0
   22.5155   -9.4824  -15.2302 C   0  0  2  0  0  0  0  0  0  0  0  0
   23.6213   -8.7268  -15.9497 C   0  0  0  0  0  0  0  0  0  0  0  0
   21.1783   -9.0671  -15.7830 C   0  0  2  0  0  0  0  0  0  0  0  0
   21.0723   -9.3160  -17.2082 N   0  0  0  0  0  0  0  0  0  0  0  0
   20.9451   -7.6437  -15.4546 C   0  0  0  0  0  0  0  0  0  0  0  0
   21.1279   -6.7842  -16.3461 O   0  0  0  0  0  0  0  0  0  0  0  0
   20.5343   -7.2114  -14.2099 O   0  0  0  0  0  0  0  0  0  0  0  0
  1  2  1  0
  2  3  1  0
  3  5  1  0
  3  4  1  1
  5  6  2  0
  8  7  1  6
  8 10  1  0
  9  8  1  0
 10 12  1  0
 10 11  1  1
 11  5  1  0
 12 19  1  0
 13 12  2  0
 15 14  1  0
 16 15  1  0
 16 17  1  6
 18 16  1  0
 18 19  1  6
 20 22  1  0
 20 18  1  0
 21 20  2  0
M  END
$$$$
