STI.pdb
     RDKit          3D

 22 21  0  0  1  0  0  0  0  0999 V2000
   16.7177  -14.0183  -14.0855 O   0  0  0  0  0  0  0  0  0  0  0  0
   17.9704  -13.6003  -14.5336 C   0  0  0  0  0  0  0  0  0  0  0  0
   18.0677  -13.6304  -16.0303 C   0  0  2  0  0  0  0  0  0  0  0  0
   18.0204  -15.0138  -16.4542 N   0  0  0  0  0  0  0  0  0  0  0  0
   19.2676  -12.9575  -16.5536 C   0  0  0  0  0  0  0  0  0  0  0  0
   20.3201  -13.6361  -16.7233 O   0  0  0  0  0  0  0  0  0  0  0  0
   19.3155  -10.6279  -19.6658 C   0  0  0  0  0  0  0  0  0  0  0  0
   19.9090   -9.9428  -18.4878 C   0  0  1  0  0  0  0  0  0  0  0  0
   19.0321   -9.1157  -17.8289 O   0  0  0  0  0  0  0  0  0  0  0  0
   20.4856  -10.9340  -17.4662 C   0  0  2  0  0  0  0  0  0  0  0  0
   19.3323  -11.5962  -16.8841 N   0  0  0  0  0  0  0  0  0  0  0  0
   21.3488  -10.3034  -16.4862 C   0  0  0  0  0  0  0  0  0  0  0  0
   20.9086  -10.0067  -15.3540 O   0  0  0  0  0  0  0  0  0  0  0  0
   26.5978  -11.6168  -15.8871 C   0  0  0  0  0  0  0  0  0  0  0  0
   25.1429  -11.2546  -15.6919 C   0  0  0  0  0  0  0  0  0  0  0  0
   24.9846   -9.7662  -15.9014 C   0  0  2  0  0  0  0  0  0  0  0  0
   25.8159   -9.0374  -14.8576 C   0  0  0  0  0  0  0  0  0  0  0  0
   23.5490   -9.3247  -15.8014 C   0  0  2  0  0  0  0  0  0  0  0  0
   22.6981  -10.0031  -16.7607 N   0  0  0  0  0  0  0  0  0  0  0  0
   23.4879   -7.8547  -15.9553 C   0  0  0  0  0  0  0  0  0  0  0  0
   23.9851   -7.1362  -15.0590 O   0  0  0  0  0  0  0  0  0  0  0  0
   22.9083   -7.2306  -17.0414 O   0  0  0  0  0  0  0  0  0  0  0  0
  1  2  1  0
  2  3  1  0
  3  5  1  0
  3  4  1  1
  5  6  2  0
  8  7  1  6
  8 10  1  0
  9  8  1  0
 10 12  1  0
 10 11  1  1
 11  5  1  0
 12 19  1  0
 13 12  2  0
 15 14  1  0
 16 15  1  0
 16 17  1  1
 18 16  1  0
 18 19  1  6
 20 22  1  0
 20 18  1  0
 21 20  2  0
M  END
$$$$
