STI.pdb
     RDKit          3D

 22 21  0  0  1  0  0  0  0  0999 V2000
   15.3101  -12.7111  -14.6784 O   0  0  0  0  0  0  0  0  0  0  0  0
   16.2952  -11.7755  -14.9936 C   0  0  0  0  0  0  0  0  0  0  0  0
   15.7647  -10.6780  -15.8680 C   0  0  2  0  0  0  0  0  0  0  0  0
   15.4307  -11.2523  -17.1542 N   0  0  0  0  0  0  0  0  0  0  0  0
   16.6948   -9.5473  -16.0192 C   0  0  0  0  0  0  0  0  0  0  0  0
   17.5774   -9.6023  -16.9220 O   0  0  0  0  0  0  0  0  0  0  0  0
   15.7034   -5.8371  -16.3171 C   0  0  0  0  0  0  0  0  0  0  0  0
   16.6622   -6.0188  -15.1959 C   0  0  1  0  0  0  0  0  0  0  0  0
   16.0612   -6.1180  -13.9645 O   0  0  0  0  0  0  0  0  0  0  0  0
   17.5573   -7.2518  -15.3882 C   0  0  2  0  0  0  0  0  0  0  0  0
   16.6753   -8.3931  -15.2229 N   0  0  0  0  0  0  0  0  0  0  0  0
   18.7016   -7.2687  -14.4975 C   0  0  0  0  0  0  0  0  0  0  0  0
   18.5842   -7.6886  -13.3255 O   0  0  0  0  0  0  0  0  0  0  0  0
   23.8851   -9.5710  -13.8317 C   0  0  0  0  0  0  0  0  0  0  0  0
   23.2086   -8.2538  -13.5261 C   0  0  0  0  0  0  0  0  0  0  0  0
   22.0181   -8.0992  -14.4443 C   0  0  2  0  0  0  0  0  0  0  0  0
   22.5223   -7.9037  -15.8652 C   0  0  0  0  0  0  0  0  0  0  0  0
   21.1434   -6.9378  -14.0549 C   0  0  2  0  0  0  0  0  0  0  0  0
   19.9742   -6.8217  -14.9058 N   0  0  0  0  0  0  0  0  0  0  0  0
   21.9557   -5.7015  -14.0650 C   0  0  0  0  0  0  0  0  0  0  0  0
   22.8351   -5.5539  -13.1865 O   0  0  0  0  0  0  0  0  0  0  0  0
   21.7938   -4.6968  -14.9974 O   0  0  0  0  0  0  0  0  0  0  0  0
  1  2  1  0
  2  3  1  0
  3  5  1  0
  3  4  1  6
  5  6  2  0
  8  7  1  6
  8 10  1  0
  9  8  1  0
 10 12  1  0
 10 11  1  1
 11  5  1  0
 12 19  1  0
 13 12  2  0
 15 14  1  0
 16 15  1  0
 16 17  1  6
 18 16  1  0
 18 19  1  6
 20 22  1  0
 20 18  1  0
 21 20  2  0
M  END
$$$$
