STI.pdb
     RDKit          3D

 22 21  0  0  1  0  0  0  0  0999 V2000
   17.0977  -13.8034  -20.3547 O   0  0  0  0  0  0  0  0  0  0  0  0
   17.9579  -13.3295  -19.3646 C   0  0  0  0  0  0  0  0  0  0  0  0
   19.3809  -13.2799  -19.8370 C   0  0  2  0  0  0  0  0  0  0  0  0
   19.8675  -14.6398  -19.9354 N   0  0  0  0  0  0  0  0  0  0  0  0
   20.2560  -12.4660  -18.9779 C   0  0  0  0  0  0  0  0  0  0  0  0
   20.7856  -13.0048  -17.9648 O   0  0  0  0  0  0  0  0  0  0  0  0
   23.1223  -10.2517  -20.1862 C   0  0  0  0  0  0  0  0  0  0  0  0
   22.2258   -9.4344  -19.3273 C   0  0  1  0  0  0  0  0  0  0  0  0
   21.3552   -8.6405  -20.0339 O   0  0  0  0  0  0  0  0  0  0  0  0
   21.4030  -10.2955  -18.3578 C   0  0  2  0  0  0  0  0  0  0  0  0
   20.5517  -11.1136  -19.2024 N   0  0  0  0  0  0  0  0  0  0  0  0
   20.6710   -9.5116  -17.3816 C   0  0  0  0  0  0  0  0  0  0  0  0
   19.4724   -9.2149  -17.5796 O   0  0  0  0  0  0  0  0  0  0  0  0
   19.2157   -9.1116  -11.7293 C   0  0  0  0  0  0  0  0  0  0  0  0
   19.4667   -8.2475  -12.9444 C   0  0  0  0  0  0  0  0  0  0  0  0
   20.2827   -9.0402  -13.9392 C   0  0  2  0  0  0  0  0  0  0  0  0
   21.6085   -9.4116  -13.2944 C   0  0  0  0  0  0  0  0  0  0  0  0
   20.5366   -8.2738  -15.2097 C   0  0  2  0  0  0  0  0  0  0  0  0
   21.2665   -9.0583  -16.1875 N   0  0  0  0  0  0  0  0  0  0  0  0
   21.2406   -7.0157  -14.8778 C   0  0  0  0  0  0  0  0  0  0  0  0
   22.4660   -6.9321  -15.1189 O   0  0  0  0  0  0  0  0  0  0  0  0
   20.6134   -5.9235  -14.3132 O   0  0  0  0  0  0  0  0  0  0  0  0
  1  2  1  0
  2  3  1  0
  3  5  1  0
  3  4  1  1
  5  6  2  0
  8  7  1  6
  8 10  1  0
  9  8  1  0
 10 12  1  0
 10 11  1  6
 11  5  1  0
 12 19  1  0
 13 12  2  0
 15 14  1  0
 16 15  1  0
 16 17  1  1
 18 16  1  0
 18 19  1  6
 20 22  1  0
 20 18  1  0
 21 20  2  0
M  END
$$$$
