STI.pdb
     RDKit          3D

 22 21  0  0  1  0  0  0  0  0999 V2000
   17.1357  -15.7819  -14.2965 O   0  0  0  0  0  0  0  0  0  0  0  0
   17.1778  -14.4543  -14.7215 C   0  0  0  0  0  0  0  0  0  0  0  0
   17.4127  -14.3475  -16.1994 C   0  0  2  0  0  0  0  0  0  0  0  0
   17.8107  -15.6519  -16.6848 N   0  0  0  0  0  0  0  0  0  0  0  0
   18.4045  -13.3226  -16.5629 C   0  0  0  0  0  0  0  0  0  0  0  0
   19.5520  -13.6937  -16.9407 O   0  0  0  0  0  0  0  0  0  0  0  0
   17.5081  -10.0787  -18.6632 C   0  0  0  0  0  0  0  0  0  0  0  0
   18.2588   -9.7467  -17.4240 C   0  0  1  0  0  0  0  0  0  0  0  0
   17.4584   -9.3385  -16.3847 O   0  0  0  0  0  0  0  0  0  0  0  0
   19.1167  -10.9207  -16.9299 C   0  0  2  0  0  0  0  0  0  0  0  0
   18.1682  -11.9409  -16.5211 N   0  0  0  0  0  0  0  0  0  0  0  0
   20.0497  -10.5437  -15.8856 C   0  0  0  0  0  0  0  0  0  0  0  0
   19.7579  -10.7220  -14.6827 O   0  0  0  0  0  0  0  0  0  0  0  0
   25.9047  -10.9329  -14.7746 C   0  0  0  0  0  0  0  0  0  0  0  0
   24.6192  -10.2575  -14.3533 C   0  0  0  0  0  0  0  0  0  0  0  0
   23.6333  -10.3426  -15.4956 C   0  0  2  0  0  0  0  0  0  0  0  0
   24.2213   -9.6244  -16.6997 C   0  0  0  0  0  0  0  0  0  0  0  0
   22.3009   -9.7352  -15.1467 C   0  0  2  0  0  0  0  0  0  0  0  0
   21.3044   -9.9707  -16.1743 N   0  0  0  0  0  0  0  0  0  0  0  0
   22.4869   -8.2917  -14.8817 C   0  0  0  0  0  0  0  0  0  0  0  0
   22.2724   -7.4787  -15.8090 O   0  0  0  0  0  0  0  0  0  0  0  0
   22.8868   -7.7919  -13.6589 O   0  0  0  0  0  0  0  0  0  0  0  0
  1  2  1  0
  2  3  1  0
  3  5  1  0
  3  4  1  1
  5  6  2  0
  8  7  1  6
  8 10  1  0
  9  8  1  0
 10 12  1  0
 10 11  1  1
 11  5  1  0
 12 19  1  0
 13 12  2  0
 15 14  1  0
 16 15  1  0
 16 17  1  6
 18 16  1  0
 18 19  1  6
 20 22  1  0
 20 18  1  0
 21 20  2  0
M  END
$$$$
