IAH.pdb
     RDKit          3D

 24 24  0  0  1  0  0  0  0  0999 V2000
   27.2927  -12.8446  -15.5121 C   0  0  0  0  0  0  0  0  0  0  0  0
   27.3871  -14.3225  -15.7603 C   0  0  0  0  0  0  0  0  0  0  0  0
   26.0482  -15.0110  -15.8711 C   0  0  2  0  0  0  0  0  0  0  0  0
   25.2922  -15.0301  -14.5627 C   0  0  0  0  0  0  0  0  0  0  0  0
   26.1360  -16.3799  -16.4785 C   0  0  2  0  0  0  0  0  0  0  0  0
   26.9356  -16.4314  -17.6674 N   0  0  0  0  0  0  0  0  0  0  0  0
   24.7851  -16.9008  -16.7624 C   0  0  0  0  0  0  0  0  0  0  0  0
   24.0620  -16.3155  -17.5929 O   0  0  0  0  0  0  0  0  0  0  0  0
   22.9946  -20.1239  -16.0256 C   0  0  0  0  0  0  0  0  0  0  0  0
   23.0394  -18.6488  -16.2894 C   0  0  2  0  0  0  0  0  0  0  0  0
   24.3226  -18.0578  -16.0915 N   0  0  0  0  0  0  0  0  0  0  0  0
   22.0487  -17.9582  -15.4219 C   0  0  0  0  0  0  0  0  0  0  0  0
   22.3629  -17.6979  -14.2350 O   0  0  0  0  0  0  0  0  0  0  0  0
   20.7621  -17.5812  -15.8810 N   0  0  0  0  0  0  0  0  0  0  0  0
   19.8452  -16.9398  -14.9445 C   0  0  1  0  0  0  0  0  0  0  0  0
   19.6181  -15.5065  -15.3057 C   0  0  0  0  0  0  0  0  0  0  0  0
   18.6164  -14.9062  -14.4216 C   0  0  0  0  0  0  0  0  0  0  0  0
   17.9654  -15.5110  -13.3742 C   0  0  0  0  0  0  0  0  0  0  0  0
   17.0939  -14.5994  -12.8415 N   0  0  0  0  0  0  0  0  0  0  0  0
   17.2029  -13.4637  -13.5397 C   0  0  0  0  0  0  0  0  0  0  0  0
   18.1237  -13.6545  -14.4927 N   0  0  0  0  0  0  0  0  0  0  0  0
   18.6028  -17.7106  -14.8617 C   0  0  0  0  0  0  0  0  0  0  0  0
   18.1658  -18.3172  -15.8793 O   0  0  0  0  0  0  0  0  0  0  0  0
   17.8722  -17.8137  -13.7094 O   0  0  0  0  0  0  0  0  0  0  0  0
  1  2  1  0
  2  3  1  0
  3  5  1  0
  3  4  1  1
  5  7  1  0
  5  6  1  6
  7  8  2  0
  7 11  1  0
 10  9  1  1
 11 10  1  0
 12 14  1  0
 12 10  1  0
 13 12  2  0
 15 14  1  0
 15 22  1  0
 15 16  1  6
 16 17  1  0
 17 18  2  0
 18 19  1  0
 20 19  1  0
 21 17  1  0
 21 20  2  0
 22 24  1  0
 23 22  2  0
M  END
$$$$
