IAH.pdb
     RDKit          3D

 24 24  0  0  1  0  0  0  0  0999 V2000
   18.8631  -15.5437  -15.1677 C   0  0  0  0  0  0  0  0  0  0  0  0
   17.9012  -15.0737  -16.2205 C   0  0  0  0  0  0  0  0  0  0  0  0
   17.9866  -13.5947  -16.5108 C   0  0  2  0  0  0  0  0  0  0  0  0
   17.5765  -12.7442  -15.3309 C   0  0  0  0  0  0  0  0  0  0  0  0
   17.2586  -13.1945  -17.7599 C   0  0  2  0  0  0  0  0  0  0  0  0
   17.5738  -14.0106  -18.8958 N   0  0  0  0  0  0  0  0  0  0  0  0
   17.5235  -11.7776  -18.0743 C   0  0  0  0  0  0  0  0  0  0  0  0
   18.6896  -11.4090  -18.3182 O   0  0  0  0  0  0  0  0  0  0  0  0
   15.2840   -8.7704  -18.6789 C   0  0  0  0  0  0  0  0  0  0  0  0
   16.5865   -9.4712  -18.4344 C   0  0  2  0  0  0  0  0  0  0  0  0
   16.4542  -10.8508  -18.0964 N   0  0  0  0  0  0  0  0  0  0  0  0
   17.3296   -8.7759  -17.3503 C   0  0  0  0  0  0  0  0  0  0  0  0
   17.1279   -9.1226  -16.1611 O   0  0  0  0  0  0  0  0  0  0  0  0
   18.2578   -7.7357  -17.6052 N   0  0  0  0  0  0  0  0  0  0  0  0
   18.9096   -7.0866  -16.4726 C   0  0  1  0  0  0  0  0  0  0  0  0
   20.3310   -6.7460  -16.7889 C   0  0  0  0  0  0  0  0  0  0  0  0
   20.9612   -6.0663  -15.6547 C   0  0  0  0  0  0  0  0  0  0  0  0
   20.4001   -5.8038  -14.4288 C   0  0  0  0  0  0  0  0  0  0  0  0
   21.3258   -5.1257  -13.6822 N   0  0  0  0  0  0  0  0  0  0  0  0
   22.4274   -4.9731  -14.4252 C   0  0  0  0  0  0  0  0  0  0  0  0
   22.2019   -5.5430  -15.6156 N   0  0  0  0  0  0  0  0  0  0  0  0
   18.1254   -5.9243  -16.0497 C   0  0  0  0  0  0  0  0  0  0  0  0
   17.5259   -5.2193  -16.9088 O   0  0  0  0  0  0  0  0  0  0  0  0
   18.0021   -5.5531  -14.7386 O   0  0  0  0  0  0  0  0  0  0  0  0
  1  2  1  0
  2  3  1  0
  3  5  1  0
  3  4  1  1
  5  7  1  0
  5  6  1  6
  7  8  2  0
  7 11  1  0
 10  9  1  1
 11 10  1  0
 12 14  1  0
 12 10  1  0
 13 12  2  0
 15 14  1  0
 15 22  1  0
 15 16  1  6
 16 17  1  0
 17 18  2  0
 18 19  1  0
 20 19  1  0
 21 17  1  0
 21 20  2  0
 22 24  1  0
 23 22  2  0
M  END
$$$$
