IAH.pdb
     RDKit          3D

 24 24  0  0  1  0  0  0  0  0999 V2000
   19.9352  -17.5911  -18.4226 C   0  0  0  0  0  0  0  0  0  0  0  0
   21.2454  -17.6114  -17.6894 C   0  0  0  0  0  0  0  0  0  0  0  0
   21.5563  -16.3288  -16.9564 C   0  0  2  0  0  0  0  0  0  0  0  0
   21.5124  -15.1167  -17.8579 C   0  0  0  0  0  0  0  0  0  0  0  0
   22.8352  -16.3899  -16.1747 C   0  0  2  0  0  0  0  0  0  0  0  0
   22.9662  -17.5747  -15.3779 N   0  0  0  0  0  0  0  0  0  0  0  0
   22.9687  -15.1955  -15.3189 C   0  0  0  0  0  0  0  0  0  0  0  0
   22.1548  -15.0079  -14.3929 O   0  0  0  0  0  0  0  0  0  0  0  0
   25.5939  -12.5707  -14.7516 C   0  0  0  0  0  0  0  0  0  0  0  0
   24.1728  -13.0329  -14.8715 C   0  0  2  0  0  0  0  0  0  0  0  0
   24.0173  -14.2750  -15.5556 N   0  0  0  0  0  0  0  0  0  0  0  0
   23.3686  -11.9930  -15.5663 C   0  0  0  0  0  0  0  0  0  0  0  0
   22.8370  -12.2761  -16.6674 O   0  0  0  0  0  0  0  0  0  0  0  0
   23.1774  -10.6930  -15.0353 N   0  0  0  0  0  0  0  0  0  0  0  0
   21.8836  -10.0445  -15.2214 C   0  0  1  0  0  0  0  0  0  0  0  0
   20.7733  -10.8871  -14.6795 C   0  0  0  0  0  0  0  0  0  0  0  0
   19.6825  -10.9873  -15.6519 C   0  0  0  0  0  0  0  0  0  0  0  0
   19.6251  -10.4093  -16.8966 C   0  0  0  0  0  0  0  0  0  0  0  0
   18.4174  -10.7349  -17.4531 N   0  0  0  0  0  0  0  0  0  0  0  0
   17.7474  -11.4922  -16.5776 C   0  0  0  0  0  0  0  0  0  0  0  0
   18.5160  -11.6415  -15.4915 N   0  0  0  0  0  0  0  0  0  0  0  0
   21.9154   -8.7007  -14.6403 C   0  0  0  0  0  0  0  0  0  0  0  0
   22.7652   -8.4161  -13.7507 O   0  0  0  0  0  0  0  0  0  0  0  0
   21.0524   -7.7097  -15.0217 O   0  0  0  0  0  0  0  0  0  0  0  0
  1  2  1  0
  2  3  1  0
  3  5  1  0
  3  4  1  6
  5  7  1  0
  5  6  1  1
  7  8  2  0
  7 11  1  0
 10  9  1  6
 11 10  1  0
 12 14  1  0
 12 10  1  0
 13 12  2  0
 15 14  1  0
 15 22  1  0
 15 16  1  1
 16 17  1  0
 17 18  2  0
 18 19  1  0
 20 19  1  0
 21 17  1  0
 21 20  2  0
 22 24  1  0
 23 22  2  0
M  END
$$$$
