IAH.pdb
     RDKit          3D

 24 24  0  0  1  0  0  0  0  0999 V2000
   27.5019  -16.1492  -14.8522 C   0  0  0  0  0  0  0  0  0  0  0  0
   26.0011  -16.1970  -14.8396 C   0  0  0  0  0  0  0  0  0  0  0  0
   25.3494  -15.1973  -15.7642 C   0  0  2  0  0  0  0  0  0  0  0  0
   25.7150  -13.7695  -15.4301 C   0  0  0  0  0  0  0  0  0  0  0  0
   23.8641  -15.3758  -15.8752 C   0  0  2  0  0  0  0  0  0  0  0  0
   23.4621  -16.7367  -16.0800 N   0  0  0  0  0  0  0  0  0  0  0  0
   23.3268  -14.5284  -16.9570 C   0  0  0  0  0  0  0  0  0  0  0  0
   23.4559  -14.8899  -18.1435 O   0  0  0  0  0  0  0  0  0  0  0  0
   20.9371  -13.0865  -18.3653 C   0  0  0  0  0  0  0  0  0  0  0  0
   22.0574  -12.4532  -17.5962 C   0  0  2  0  0  0  0  0  0  0  0  0
   22.6709  -13.3153  -16.6395 N   0  0  0  0  0  0  0  0  0  0  0  0
   21.5588  -11.2362  -16.9026 C   0  0  0  0  0  0  0  0  0  0  0  0
   21.6001  -11.1959  -15.6489 O   0  0  0  0  0  0  0  0  0  0  0  0
   21.0379  -10.1179  -17.6001 N   0  0  0  0  0  0  0  0  0  0  0  0
   20.8319   -8.8716  -16.8698 C   0  0  1  0  0  0  0  0  0  0  0  0
   22.0877   -8.4299  -16.1885 C   0  0  0  0  0  0  0  0  0  0  0  0
   21.8766   -7.1558  -15.4974 C   0  0  0  0  0  0  0  0  0  0  0  0
   20.7213   -6.4138  -15.4599 C   0  0  0  0  0  0  0  0  0  0  0  0
   20.9743   -5.2834  -14.7303 N   0  0  0  0  0  0  0  0  0  0  0  0
   22.2493   -5.3253  -14.3284 C   0  0  0  0  0  0  0  0  0  0  0  0
   22.7897   -6.4581  -14.7945 N   0  0  0  0  0  0  0  0  0  0  0  0
   20.2840   -7.8550  -17.7703 C   0  0  0  0  0  0  0  0  0  0  0  0
   20.1085   -8.1208  -18.9923 O   0  0  0  0  0  0  0  0  0  0  0  0
   19.9403   -6.6001  -17.3468 O   0  0  0  0  0  0  0  0  0  0  0  0
  1  2  1  0
  2  3  1  0
  3  5  1  0
  3  4  1  1
  5  7  1  0
  5  6  1  6
  7  8  2  0
  7 11  1  0
 10  9  1  1
 11 10  1  0
 12 14  1  0
 12 10  1  0
 13 12  2  0
 15 14  1  0
 15 22  1  0
 15 16  1  6
 16 17  1  0
 17 18  2  0
 18 19  1  0
 20 19  1  0
 21 17  1  0
 21 20  2  0
 22 24  1  0
 23 22  2  0
M  END
$$$$
