IAH.pdb
     RDKit          3D

 24 24  0  0  1  0  0  0  0  0999 V2000
   26.2601  -14.1352  -16.8435 C   0  0  0  0  0  0  0  0  0  0  0  0
   27.1096  -15.3715  -16.7750 C   0  0  0  0  0  0  0  0  0  0  0  0
   26.4735  -16.5094  -16.0137 C   0  0  2  0  0  0  0  0  0  0  0  0
   26.1998  -16.1631  -14.5684 C   0  0  0  0  0  0  0  0  0  0  0  0
   27.2286  -17.7996  -16.1393 C   0  0  2  0  0  0  0  0  0  0  0  0
   27.5170  -18.1677  -17.4946 N   0  0  0  0  0  0  0  0  0  0  0  0
   26.4922  -18.8900  -15.4717 C   0  0  0  0  0  0  0  0  0  0  0  0
   25.4195  -19.2972  -15.9603 O   0  0  0  0  0  0  0  0  0  0  0  0
   27.1139  -20.9260  -12.3140 C   0  0  0  0  0  0  0  0  0  0  0  0
   26.3620  -20.4906  -13.5358 C   0  0  2  0  0  0  0  0  0  0  0  0
   27.0084  -19.4632  -14.2853 N   0  0  0  0  0  0  0  0  0  0  0  0
   25.0051  -20.0248  -13.1451 C   0  0  0  0  0  0  0  0  0  0  0  0
   24.8975  -18.9600  -12.4895 O   0  0  0  0  0  0  0  0  0  0  0  0
   23.8263  -20.7351  -13.4830 N   0  0  0  0  0  0  0  0  0  0  0  0
   22.5337  -20.1172  -13.2067 C   0  0  1  0  0  0  0  0  0  0  0  0
   22.4749  -18.7226  -13.7435 C   0  0  0  0  0  0  0  0  0  0  0  0
   21.1506  -18.1396  -13.5155 C   0  0  0  0  0  0  0  0  0  0  0  0
   20.0796  -18.7318  -12.8919 C   0  0  0  0  0  0  0  0  0  0  0  0
   19.0356  -17.8469  -12.9244 N   0  0  0  0  0  0  0  0  0  0  0  0
   19.4492  -16.7395  -13.5501 C   0  0  0  0  0  0  0  0  0  0  0  0
   20.7273  -16.9216  -13.9051 N   0  0  0  0  0  0  0  0  0  0  0  0
   21.4581  -20.9702  -13.7168 C   0  0  0  0  0  0  0  0  0  0  0  0
   20.2547  -20.6027  -13.6098 O   0  0  0  0  0  0  0  0  0  0  0  0
   21.6936  -22.1747  -14.3217 O   0  0  0  0  0  0  0  0  0  0  0  0
  1  2  1  0
  2  3  1  0
  3  5  1  0
  3  4  1  1
  5  7  1  0
  5  6  1  6
  7  8  2  0
  7 11  1  0
 10  9  1  1
 11 10  1  0
 12 14  1  0
 12 10  1  0
 13 12  2  0
 15 14  1  0
 15 22  1  0
 15 16  1  6
 16 17  1  0
 17 18  2  0
 18 19  1  0
 20 19  1  0
 21 17  1  0
 21 20  2  0
 22 24  1  0
 23 22  2  0
M  END
$$$$
