IAH.pdb
     RDKit          3D

 24 24  0  0  1  0  0  0  0  0999 V2000
   26.9342  -16.9231  -15.0052 C   0  0  0  0  0  0  0  0  0  0  0  0
   25.5441  -16.9022  -15.5727 C   0  0  0  0  0  0  0  0  0  0  0  0
   25.0883  -15.5358  -16.0245 C   0  0  2  0  0  0  0  0  0  0  0  0
   25.0626  -14.5279  -14.8988 C   0  0  0  0  0  0  0  0  0  0  0  0
   23.7873  -15.5637  -16.7709 C   0  0  2  0  0  0  0  0  0  0  0  0
   23.7464  -16.5409  -17.8192 N   0  0  0  0  0  0  0  0  0  0  0  0
   23.4848  -14.2285  -17.3210 C   0  0  0  0  0  0  0  0  0  0  0  0
   24.1245  -13.8095  -18.3061 O   0  0  0  0  0  0  0  0  0  0  0  0
   20.5562  -12.1323  -17.5403 C   0  0  0  0  0  0  0  0  0  0  0  0
   22.0238  -12.1827  -17.2383 C   0  0  2  0  0  0  0  0  0  0  0  0
   22.4734  -13.4364  -16.7274 N   0  0  0  0  0  0  0  0  0  0  0  0
   22.3686  -11.1116  -16.2663 C   0  0  0  0  0  0  0  0  0  0  0  0
   22.1973  -11.3288  -15.0421 O   0  0  0  0  0  0  0  0  0  0  0  0
   22.8835   -9.8533  -16.6661 N   0  0  0  0  0  0  0  0  0  0  0  0
   23.2170   -8.8746  -15.6365 C   0  0  1  0  0  0  0  0  0  0  0  0
   24.4253   -8.0797  -16.0169 C   0  0  0  0  0  0  0  0  0  0  0  0
   25.5913   -8.9544  -16.1616 C   0  0  0  0  0  0  0  0  0  0  0  0
   25.6696  -10.2903  -15.8523 C   0  0  0  0  0  0  0  0  0  0  0  0
   26.9481  -10.7051  -16.1123 N   0  0  0  0  0  0  0  0  0  0  0  0
   27.6403   -9.6557  -16.5691 C   0  0  0  0  0  0  0  0  0  0  0  0
   26.8161   -8.6009  -16.5968 N   0  0  0  0  0  0  0  0  0  0  0  0
   22.0497   -8.0370  -15.3529 C   0  0  0  0  0  0  0  0  0  0  0  0
   21.0991   -7.9753  -16.1819 O   0  0  0  0  0  0  0  0  0  0  0  0
   21.9293   -7.3005  -14.2062 O   0  0  0  0  0  0  0  0  0  0  0  0
  1  2  1  0
  2  3  1  0
  3  5  1  0
  3  4  1  1
  5  7  1  0
  5  6  1  6
  7  8  2  0
  7 11  1  0
 10  9  1  1
 11 10  1  0
 12 14  1  0
 12 10  1  0
 13 12  2  0
 15 14  1  0
 15 22  1  0
 15 16  1  6
 16 17  1  0
 17 18  2  0
 18 19  1  0
 20 19  1  0
 21 17  1  0
 21 20  2  0
 22 24  1  0
 23 22  2  0
M  END
$$$$
