IAH.pdb
     RDKit          3D

 24 24  0  0  1  0  0  0  0  0999 V2000
   26.0271  -20.4819   -9.2814 C   0  0  0  0  0  0  0  0  0  0  0  0
   26.8628  -20.1697  -10.4892 C   0  0  0  0  0  0  0  0  0  0  0  0
   26.2144  -20.5528  -11.7975 C   0  0  2  0  0  0  0  0  0  0  0  0
   25.8264  -22.0123  -11.8507 C   0  0  0  0  0  0  0  0  0  0  0  0
   27.0213  -20.1515  -12.9968 C   0  0  2  0  0  0  0  0  0  0  0  0
   27.5089  -18.8046  -12.9376 N   0  0  0  0  0  0  0  0  0  0  0  0
   26.2343  -20.3437  -14.2300 C   0  0  0  0  0  0  0  0  0  0  0  0
   25.2423  -19.6196  -14.4459 O   0  0  0  0  0  0  0  0  0  0  0  0
   26.6289  -22.5593  -17.2917 C   0  0  0  0  0  0  0  0  0  0  0  0
   25.8918  -21.6585  -16.3467 C   0  0  2  0  0  0  0  0  0  0  0  0
   26.6113  -21.3459  -15.1553 N   0  0  0  0  0  0  0  0  0  0  0  0
   24.5920  -22.2800  -15.9791 C   0  0  0  0  0  0  0  0  0  0  0  0
   24.5925  -23.2685  -15.2057 O   0  0  0  0  0  0  0  0  0  0  0  0
   23.3506  -21.8013  -16.4669 N   0  0  0  0  0  0  0  0  0  0  0  0
   22.1529  -22.0152  -15.6615 C   0  0  1  0  0  0  0  0  0  0  0  0
   22.2648  -21.3350  -14.3344 C   0  0  0  0  0  0  0  0  0  0  0  0
   21.0385  -21.5225  -13.5557 C   0  0  0  0  0  0  0  0  0  0  0  0
   20.5551  -22.7003  -13.0400 C   0  0  0  0  0  0  0  0  0  0  0  0
   19.3701  -22.4262  -12.4117 N   0  0  0  0  0  0  0  0  0  0  0  0
   19.1278  -21.1166  -12.5354 C   0  0  0  0  0  0  0  0  0  0  0  0
   20.1384  -20.5756  -13.2272 N   0  0  0  0  0  0  0  0  0  0  0  0
   20.9682  -21.6010  -16.4163 C   0  0  0  0  0  0  0  0  0  0  0  0
   19.8327  -22.0642  -16.1155 O   0  0  0  0  0  0  0  0  0  0  0  0
   21.0271  -20.7132  -17.4558 O   0  0  0  0  0  0  0  0  0  0  0  0
  1  2  1  0
  2  3  1  0
  3  5  1  0
  3  4  1  1
  5  7  1  0
  5  6  1  1
  7  8  2  0
  7 11  1  0
 10  9  1  6
 11 10  1  0
 12 14  1  0
 12 10  1  0
 13 12  2  0
 15 14  1  0
 15 22  1  0
 15 16  1  1
 16 17  1  0
 17 18  2  0
 18 19  1  0
 20 19  1  0
 21 17  1  0
 21 20  2  0
 22 24  1  0
 23 22  2  0
M  END
$$$$
