IAH.pdb
     RDKit          3D

 24 24  0  0  1  0  0  0  0  0999 V2000
   28.8331  -12.1184  -16.1542 C   0  0  0  0  0  0  0  0  0  0  0  0
   27.6172  -12.7572  -16.7610 C   0  0  0  0  0  0  0  0  0  0  0  0
   26.5555  -11.7715  -17.1853 C   0  0  2  0  0  0  0  0  0  0  0  0
   25.9926  -10.9850  -16.0241 C   0  0  0  0  0  0  0  0  0  0  0  0
   25.4678  -12.3931  -18.0105 C   0  0  2  0  0  0  0  0  0  0  0  0
   25.9425  -13.3713  -18.9451 N   0  0  0  0  0  0  0  0  0  0  0  0
   24.7072  -11.3492  -18.7237 C   0  0  0  0  0  0  0  0  0  0  0  0
   25.2940  -10.6068  -19.5358 O   0  0  0  0  0  0  0  0  0  0  0  0
   21.3742  -10.9274  -19.9545 C   0  0  0  0  0  0  0  0  0  0  0  0
   22.4740  -10.2802  -19.1676 C   0  0  2  0  0  0  0  0  0  0  0  0
   23.3211  -11.1998  -18.4806 N   0  0  0  0  0  0  0  0  0  0  0  0
   21.8894   -9.3315  -18.1833 C   0  0  0  0  0  0  0  0  0  0  0  0
   21.1283   -8.4238  -18.5978 O   0  0  0  0  0  0  0  0  0  0  0  0
   22.1568   -9.4102  -16.7938 N   0  0  0  0  0  0  0  0  0  0  0  0
   21.4790   -8.4799  -15.8970 C   0  0  1  0  0  0  0  0  0  0  0  0
   20.9586   -9.1811  -14.6829 C   0  0  0  0  0  0  0  0  0  0  0  0
   19.8930  -10.1176  -15.0475 C   0  0  0  0  0  0  0  0  0  0  0  0
   19.3240  -10.2855  -16.2863 C   0  0  0  0  0  0  0  0  0  0  0  0
   18.3484  -11.2392  -16.1723 N   0  0  0  0  0  0  0  0  0  0  0  0
   18.3152  -11.6490  -14.8996 C   0  0  0  0  0  0  0  0  0  0  0  0
   19.2500  -10.9685  -14.2246 N   0  0  0  0  0  0  0  0  0  0  0  0
   22.3718   -7.3653  -15.5728 C   0  0  0  0  0  0  0  0  0  0  0  0
   23.4950   -7.2685  -16.1418 O   0  0  0  0  0  0  0  0  0  0  0  0
   22.0444   -6.3959  -14.6644 O   0  0  0  0  0  0  0  0  0  0  0  0
  1  2  1  0
  2  3  1  0
  3  5  1  0
  3  4  1  1
  5  7  1  0
  5  6  1  6
  7  8  2  0
  7 11  1  0
 10  9  1  1
 11 10  1  0
 12 14  1  0
 12 10  1  0
 13 12  2  0
 15 14  1  0
 15 22  1  0
 15 16  1  1
 16 17  1  0
 17 18  2  0
 18 19  1  0
 20 19  1  0
 21 17  1  0
 21 20  2  0
 22 24  1  0
 23 22  2  0
M  END
$$$$
