IAH.pdb
     RDKit          3D

 24 24  0  0  1  0  0  0  0  0999 V2000
   19.8730  -19.9885  -18.1670 C   0  0  0  0  0  0  0  0  0  0  0  0
   20.9945  -19.7269  -17.2034 C   0  0  0  0  0  0  0  0  0  0  0  0
   21.1316  -18.2779  -16.8031 C   0  0  2  0  0  0  0  0  0  0  0  0
   21.1467  -17.3437  -17.9909 C   0  0  0  0  0  0  0  0  0  0  0  0
   22.2922  -18.0252  -15.8867 C   0  0  2  0  0  0  0  0  0  0  0  0
   22.3764  -18.9521  -14.7962 N   0  0  0  0  0  0  0  0  0  0  0  0
   22.2418  -16.6455  -15.3665 C   0  0  0  0  0  0  0  0  0  0  0  0
   21.2646  -16.2810  -14.6827 O   0  0  0  0  0  0  0  0  0  0  0  0
   24.6944  -13.7602  -15.2765 C   0  0  0  0  0  0  0  0  0  0  0  0
   23.3301  -14.3811  -15.2448 C   0  0  2  0  0  0  0  0  0  0  0  0
   23.3006  -15.7494  -15.6470 N   0  0  0  0  0  0  0  0  0  0  0  0
   22.4083  -13.6009  -16.1122 C   0  0  0  0  0  0  0  0  0  0  0  0
   22.3876  -13.8431  -17.3434 O   0  0  0  0  0  0  0  0  0  0  0  0
   21.5508  -12.5931  -15.6048 N   0  0  0  0  0  0  0  0  0  0  0  0
   20.6931  -11.8695  -16.5375 C   0  0  1  0  0  0  0  0  0  0  0  0
   19.2548  -11.9731  -16.1415 C   0  0  0  0  0  0  0  0  0  0  0  0
   18.7857  -13.3551  -16.2665 C   0  0  0  0  0  0  0  0  0  0  0  0
   18.7281  -14.3044  -15.2754 C   0  0  0  0  0  0  0  0  0  0  0  0
   18.2581  -15.4629  -15.8333 N   0  0  0  0  0  0  0  0  0  0  0  0
   18.0318  -15.2363  -17.1319 C   0  0  0  0  0  0  0  0  0  0  0  0
   18.3521  -13.9619  -17.3883 N   0  0  0  0  0  0  0  0  0  0  0  0
   21.1524  -10.4842  -16.6595 C   0  0  0  0  0  0  0  0  0  0  0  0
   22.1672  -10.0954  -16.0165 O   0  0  0  0  0  0  0  0  0  0  0  0
   20.5258   -9.5651  -17.4562 O   0  0  0  0  0  0  0  0  0  0  0  0
  1  2  1  0
  2  3  1  0
  3  5  1  0
  3  4  1  6
  5  7  1  0
  5  6  1  1
  7  8  2  0
  7 11  1  0
 10  9  1  6
 11 10  1  0
 12 14  1  0
 12 10  1  0
 13 12  2  0
 15 14  1  0
 15 22  1  0
 15 16  1  1
 16 17  1  0
 17 18  2  0
 18 19  1  0
 20 19  1  0
 21 17  1  0
 21 20  2  0
 22 24  1  0
 23 22  2  0
M  END
$$$$
