IAH.pdb
     RDKit          3D

 24 24  0  0  1  0  0  0  0  0999 V2000
   23.2646  -19.2163  -18.5052 C   0  0  0  0  0  0  0  0  0  0  0  0
   24.2748  -18.8640  -17.4516 C   0  0  0  0  0  0  0  0  0  0  0  0
   24.2171  -17.4227  -17.0063 C   0  0  2  0  0  0  0  0  0  0  0  0
   24.2910  -16.4519  -18.1621 C   0  0  0  0  0  0  0  0  0  0  0  0
   25.2216  -17.0922  -15.9422 C   0  0  2  0  0  0  0  0  0  0  0  0
   25.1902  -17.9883  -14.8234 N   0  0  0  0  0  0  0  0  0  0  0  0
   25.0347  -15.7049  -15.4760 C   0  0  0  0  0  0  0  0  0  0  0  0
   24.0037  -15.4020  -14.8433 O   0  0  0  0  0  0  0  0  0  0  0  0
   27.2009  -12.5848  -15.5406 C   0  0  0  0  0  0  0  0  0  0  0  0
   25.9196  -13.3514  -15.4066 C   0  0  2  0  0  0  0  0  0  0  0  0
   26.0251  -14.7319  -15.7502 N   0  0  0  0  0  0  0  0  0  0  0  0
   24.8717  -12.7203  -16.2519 C   0  0  0  0  0  0  0  0  0  0  0  0
   24.7999  -13.0393  -17.4636 O   0  0  0  0  0  0  0  0  0  0  0  0
   23.9492  -11.7715  -15.7447 N   0  0  0  0  0  0  0  0  0  0  0  0
   22.9701  -11.1905  -16.6573 C   0  0  1  0  0  0  0  0  0  0  0  0
   21.6021  -11.1883  -16.0531 C   0  0  0  0  0  0  0  0  0  0  0  0
   21.4765  -10.1102  -15.0694 C   0  0  0  0  0  0  0  0  0  0  0  0
   22.4847   -9.5374  -14.3332 C   0  0  0  0  0  0  0  0  0  0  0  0
   21.9216   -8.5931  -13.5173 N   0  0  0  0  0  0  0  0  0  0  0  0
   20.6033   -8.5826  -13.7427 C   0  0  0  0  0  0  0  0  0  0  0  0
   20.3398   -9.5007  -14.6809 N   0  0  0  0  0  0  0  0  0  0  0  0
   23.4115   -9.8578  -17.0739 C   0  0  0  0  0  0  0  0  0  0  0  0
   22.7825   -9.2362  -17.9753 O   0  0  0  0  0  0  0  0  0  0  0  0
   24.4961   -9.2322  -16.5222 O   0  0  0  0  0  0  0  0  0  0  0  0
  1  2  1  0
  2  3  1  0
  3  5  1  0
  3  4  1  6
  5  7  1  0
  5  6  1  1
  7  8  2  0
  7 11  1  0
 10  9  1  6
 11 10  1  0
 12 14  1  0
 12 10  1  0
 13 12  2  0
 15 14  1  0
 15 22  1  0
 15 16  1  1
 16 17  1  0
 17 18  2  0
 18 19  1  0
 20 19  1  0
 21 17  1  0
 21 20  2  0
 22 24  1  0
 23 22  2  0
M  END
$$$$
