IAH.pdb
     RDKit          3D

 24 24  0  0  1  0  0  0  0  0999 V2000
   26.6614  -20.3656   -8.6545 C   0  0  0  0  0  0  0  0  0  0  0  0
   25.7808  -21.2492   -9.4903 C   0  0  0  0  0  0  0  0  0  0  0  0
   25.6538  -20.8034  -10.9270 C   0  0  2  0  0  0  0  0  0  0  0  0
   25.1775  -19.3749  -11.0544 C   0  0  0  0  0  0  0  0  0  0  0  0
   24.8311  -21.7370  -11.7649 C   0  0  2  0  0  0  0  0  0  0  0  0
   25.3346  -23.0791  -11.7937 N   0  0  0  0  0  0  0  0  0  0  0  0
   24.7127  -21.2187  -13.1412 C   0  0  0  0  0  0  0  0  0  0  0  0
   25.6996  -21.2623  -13.9022 O   0  0  0  0  0  0  0  0  0  0  0  0
   21.7798  -19.9534  -15.2015 C   0  0  0  0  0  0  0  0  0  0  0  0
   23.2225  -20.2491  -14.9206 C   0  0  2  0  0  0  0  0  0  0  0  0
   23.4826  -20.6778  -13.5851 N   0  0  0  0  0  0  0  0  0  0  0  0
   24.0429  -19.0436  -15.2110 C   0  0  0  0  0  0  0  0  0  0  0  0
   24.0817  -18.1203  -14.3618 O   0  0  0  0  0  0  0  0  0  0  0  0
   24.7842  -18.8939  -16.4096 N   0  0  0  0  0  0  0  0  0  0  0  0
   25.5545  -17.6706  -16.6078 C   0  0  1  0  0  0  0  0  0  0  0  0
   27.0169  -17.9639  -16.7164 C   0  0  0  0  0  0  0  0  0  0  0  0
   27.7611  -16.7481  -17.0533 C   0  0  0  0  0  0  0  0  0  0  0  0
   27.2525  -15.4828  -17.2176 C   0  0  0  0  0  0  0  0  0  0  0  0
   28.2899  -14.6563  -17.5568 N   0  0  0  0  0  0  0  0  0  0  0  0
   29.4076  -15.3896  -17.6010 C   0  0  0  0  0  0  0  0  0  0  0  0
   29.0827  -16.6521  -17.2962 N   0  0  0  0  0  0  0  0  0  0  0  0
   25.0324  -16.9387  -17.7639 C   0  0  0  0  0  0  0  0  0  0  0  0
   24.4627  -17.5623  -18.7026 O   0  0  0  0  0  0  0  0  0  0  0  0
   25.1289  -15.5791  -17.8832 O   0  0  0  0  0  0  0  0  0  0  0  0
  1  2  1  0
  2  3  1  0
  3  5  1  0
  3  4  1  1
  5  7  1  0
  5  6  1  6
  7  8  2  0
  7 11  1  0
 10  9  1  1
 11 10  1  0
 12 14  1  0
 12 10  1  0
 13 12  2  0
 15 14  1  0
 15 22  1  0
 15 16  1  6
 16 17  1  0
 17 18  2  0
 18 19  1  0
 20 19  1  0
 21 17  1  0
 21 20  2  0
 22 24  1  0
 23 22  2  0
M  END
$$$$
