IAH.pdb
     RDKit          3D

 24 24  0  0  1  0  0  0  0  0999 V2000
   15.5960  -13.7574  -11.9067 C   0  0  0  0  0  0  0  0  0  0  0  0
   14.9609  -13.0361  -10.7530 C   0  0  0  0  0  0  0  0  0  0  0  0
   15.2131  -11.5477  -10.7484 C   0  0  2  0  0  0  0  0  0  0  0  0
   16.6795  -11.2051  -10.6220 C   0  0  0  0  0  0  0  0  0  0  0  0
   14.3846  -10.8110   -9.7379 C   0  0  2  0  0  0  0  0  0  0  0  0
   13.0015  -11.1886   -9.7427 N   0  0  0  0  0  0  0  0  0  0  0  0
   14.5051   -9.3547   -9.9418 C   0  0  0  0  0  0  0  0  0  0  0  0
   14.1170   -8.8493  -11.0137 O   0  0  0  0  0  0  0  0  0  0  0  0
   15.4435   -6.4476   -7.7018 C   0  0  0  0  0  0  0  0  0  0  0  0
   15.2449   -7.1346   -9.0194 C   0  0  2  0  0  0  0  0  0  0  0  0
   15.0589   -8.5456   -8.9213 N   0  0  0  0  0  0  0  0  0  0  0  0
   16.4079   -6.8594   -9.9040 C   0  0  0  0  0  0  0  0  0  0  0  0
   17.4296   -7.5808   -9.8005 O   0  0  0  0  0  0  0  0  0  0  0  0
   16.4100   -5.8141  -10.8609 N   0  0  0  0  0  0  0  0  0  0  0  0
   17.1069   -6.0245  -12.1255 C   0  0  1  0  0  0  0  0  0  0  0  0
   16.6634   -7.2922  -12.7831 C   0  0  0  0  0  0  0  0  0  0  0  0
   17.3691   -7.4872  -14.0518 C   0  0  0  0  0  0  0  0  0  0  0  0
   18.2627   -6.6289  -14.6445 C   0  0  0  0  0  0  0  0  0  0  0  0
   18.6556   -7.1883  -15.8306 N   0  0  0  0  0  0  0  0  0  0  0  0
   18.0230   -8.3588  -15.9673 C   0  0  0  0  0  0  0  0  0  0  0  0
   17.2473   -8.5345  -14.8903 N   0  0  0  0  0  0  0  0  0  0  0  0
   16.9416   -4.8492  -12.9833 C   0  0  0  0  0  0  0  0  0  0  0  0
   17.5319   -4.7918  -14.0982 O   0  0  0  0  0  0  0  0  0  0  0  0
   16.1589   -3.7828  -12.6336 O   0  0  0  0  0  0  0  0  0  0  0  0
  1  2  1  0
  2  3  1  0
  3  5  1  0
  3  4  1  1
  5  7  1  0
  5  6  1  6
  7  8  2  0
  7 11  1  0
 10  9  1  1
 11 10  1  0
 12 14  1  0
 12 10  1  0
 13 12  2  0
 15 14  1  0
 15 22  1  0
 15 16  1  6
 16 17  1  0
 17 18  2  0
 18 19  1  0
 20 19  1  0
 21 17  1  0
 21 20  2  0
 22 24  1  0
 23 22  2  0
M  END
$$$$
