IAH.pdb
     RDKit          3D

 24 24  0  0  1  0  0  0  0  0999 V2000
   16.6997  -13.7108  -16.6411 C   0  0  0  0  0  0  0  0  0  0  0  0
   16.0564  -12.4665  -16.1001 C   0  0  0  0  0  0  0  0  0  0  0  0
   16.8532  -11.2085  -16.3480 C   0  0  2  0  0  0  0  0  0  0  0  0
   18.2674  -11.3011  -15.8232 C   0  0  0  0  0  0  0  0  0  0  0  0
   16.1642   -9.9673  -15.8631 C   0  0  2  0  0  0  0  0  0  0  0  0
   14.8384   -9.8046  -16.3842 N   0  0  0  0  0  0  0  0  0  0  0  0
   16.9747   -8.7758  -16.1797 C   0  0  0  0  0  0  0  0  0  0  0  0
   17.6789   -8.7664  -17.2088 O   0  0  0  0  0  0  0  0  0  0  0  0
   16.7869   -5.2047  -15.3564 C   0  0  0  0  0  0  0  0  0  0  0  0
   17.6296   -6.4281  -15.5584 C   0  0  2  0  0  0  0  0  0  0  0  0
   16.9460   -7.6562  -15.3146 N   0  0  0  0  0  0  0  0  0  0  0  0
   18.8274   -6.3575  -14.6802 C   0  0  0  0  0  0  0  0  0  0  0  0
   18.7111   -6.6804  -13.4730 O   0  0  0  0  0  0  0  0  0  0  0  0
   20.0970   -5.9397  -15.1511 N   0  0  0  0  0  0  0  0  0  0  0  0
   21.2464   -6.0542  -14.2595 C   0  0  1  0  0  0  0  0  0  0  0  0
   22.3657   -6.8002  -14.9130 C   0  0  0  0  0  0  0  0  0  0  0  0
   21.9153   -8.1237  -15.3499 C   0  0  0  0  0  0  0  0  0  0  0  0
   21.1257   -9.0038  -14.6509 C   0  0  0  0  0  0  0  0  0  0  0  0
   20.9766  -10.1295  -15.4156 N   0  0  0  0  0  0  0  0  0  0  0  0
   21.6546   -9.9505  -16.5546 C   0  0  0  0  0  0  0  0  0  0  0  0
   22.2197   -8.7375  -16.5097 N   0  0  0  0  0  0  0  0  0  0  0  0
   21.6440   -4.7249  -13.7912 C   0  0  0  0  0  0  0  0  0  0  0  0
   22.5896   -4.6026  -12.9633 O   0  0  0  0  0  0  0  0  0  0  0  0
   21.0313   -3.5776  -14.2160 O   0  0  0  0  0  0  0  0  0  0  0  0
  1  2  1  0
  2  3  1  0
  3  5  1  0
  3  4  1  1
  5  7  1  0
  5  6  1  6
  7  8  2  0
  7 11  1  0
 10  9  1  1
 11 10  1  0
 12 14  1  0
 12 10  1  0
 13 12  2  0
 15 14  1  0
 15 22  1  0
 15 16  1  6
 16 17  1  0
 17 18  2  0
 18 19  1  0
 20 19  1  0
 21 17  1  0
 21 20  2  0
 22 24  1  0
 23 22  2  0
M  END
$$$$
