NTE.pdb
     RDKit          3D

 25 24  0  0  1  0  0  0  0  0999 V2000
   16.1193  -15.2757  -15.0400 N   0  0  0  0  0  0  0  0  0  0  0  0
   16.5042  -14.1468  -14.3108 C   0  0  0  0  0  0  0  0  0  0  0  0
   16.1706  -14.1135  -13.0879 O   0  0  0  0  0  0  0  0  0  0  0  0
   17.2554  -12.9918  -14.8068 C   0  0  0  0  0  0  0  0  0  0  0  0
   17.4439  -12.9262  -16.2850 C   0  0  2  0  0  0  0  0  0  0  0  0
   18.4875  -13.9184  -16.6042 N   0  0  0  0  0  0  0  0  0  0  0  0
   17.9733  -11.6241  -16.7612 C   0  0  0  0  0  0  0  0  0  0  0  0
   19.1870  -11.4357  -17.0873 O   0  0  0  0  0  0  0  0  0  0  0  0
   16.9910   -7.1435  -18.6148 C   0  0  0  0  0  0  0  0  0  0  0  0
   16.5833   -8.5360  -18.1882 C   0  0  1  0  0  0  0  0  0  0  0  0
   16.2811   -9.3478  -19.2703 O   0  0  0  0  0  0  0  0  0  0  0  0
   17.6415   -9.1771  -17.3040 C   0  0  2  0  0  0  0  0  0  0  0  0
   17.1450  -10.4677  -16.8903 N   0  0  0  0  0  0  0  0  0  0  0  0
   17.8188   -8.2629  -16.1308 C   0  0  0  0  0  0  0  0  0  0  0  0
   16.9942   -8.2741  -15.1831 O   0  0  0  0  0  0  0  0  0  0  0  0
   18.9127   -7.3667  -16.0569 N   0  0  0  0  0  0  0  0  0  0  0  0
   19.0501   -6.4696  -14.8905 C   0  0  1  0  0  0  0  0  0  0  0  0
   20.4937   -6.1115  -14.7828 C   0  0  0  0  0  0  0  0  0  0  0  0
   20.7501   -5.2072  -13.6229 C   0  0  0  0  0  0  0  0  0  0  0  0
   22.2112   -4.9363  -13.4868 C   0  0  0  0  0  0  0  0  0  0  0  0
   22.9861   -5.8873  -13.3005 O   0  0  0  0  0  0  0  0  0  0  0  0
   18.2334   -5.2526  -15.1216 C   0  0  0  0  0  0  0  0  0  0  0  0
   17.5886   -4.5304  -14.1356 O   0  0  0  0  0  0  0  0  0  0  0  0
   22.6631   -3.6452  -13.5706 O   0  0  0  0  0  0  0  0  0  0  0  0
   18.0842   -4.8023  -16.3114 O   0  0  0  0  0  0  0  0  0  0  0  0
  1  2  1  0
  2  4  1  0
  3  2  2  0
  4  5  1  0
  5  6  1  1
  7  5  1  0
  8  7  2  0
 10  9  1  6
 10 11  1  0
 12 10  1  0
 12 13  1  1
 13  7  1  0
 14 12  1  0
 14 15  2  0
 16 14  1  0
 17 16  1  0
 17 18  1  6
 19 18  1  0
 20 19  1  0
 21 20  2  0
 22 17  1  0
 22 23  1  0
 24 20  1  0
 25 22  2  0
M  END
$$$$
