NTE.pdb
     RDKit          3D

 25 24  0  0  1  0  0  0  0  0999 V2000
   18.1073  -23.5535  -13.6956 N   0  0  0  0  0  0  0  0  0  0  0  0
   18.5115  -22.7294  -14.7501 C   0  0  0  0  0  0  0  0  0  0  0  0
   17.9331  -22.9010  -15.8654 O   0  0  0  0  0  0  0  0  0  0  0  0
   19.5351  -21.6831  -14.7078 C   0  0  0  0  0  0  0  0  0  0  0  0
   20.3849  -21.6555  -13.4822 C   0  0  2  0  0  0  0  0  0  0  0  0
   19.4791  -21.3134  -12.3696 N   0  0  0  0  0  0  0  0  0  0  0  0
   21.4177  -20.5899  -13.4970 C   0  0  0  0  0  0  0  0  0  0  0  0
   21.8566  -20.0218  -12.4484 O   0  0  0  0  0  0  0  0  0  0  0  0
   24.1583  -20.6290  -12.7090 C   0  0  0  0  0  0  0  0  0  0  0  0
   24.3168  -20.4772  -14.2053 C   0  0  1  0  0  0  0  0  0  0  0  0
   24.2514  -21.6943  -14.8650 O   0  0  0  0  0  0  0  0  0  0  0  0
   23.3053  -19.4938  -14.7731 C   0  0  2  0  0  0  0  0  0  0  0  0
   22.0045  -20.1163  -14.7099 N   0  0  0  0  0  0  0  0  0  0  0  0
   23.7164  -19.2397  -16.1908 C   0  0  0  0  0  0  0  0  0  0  0  0
   23.2661  -19.9515  -17.1229 O   0  0  0  0  0  0  0  0  0  0  0  0
   24.6175  -18.1977  -16.5186 N   0  0  0  0  0  0  0  0  0  0  0  0
   24.9255  -17.9110  -17.9352 C   0  0  1  0  0  0  0  0  0  0  0  0
   25.4572  -16.5190  -17.9934 C   0  0  0  0  0  0  0  0  0  0  0  0
   25.7642  -16.1066  -19.3951 C   0  0  0  0  0  0  0  0  0  0  0  0
   26.2978  -14.7133  -19.4230 C   0  0  0  0  0  0  0  0  0  0  0  0
   27.4221  -14.5076  -19.9058 O   0  0  0  0  0  0  0  0  0  0  0  0
   25.9503  -18.8740  -18.4084 C   0  0  0  0  0  0  0  0  0  0  0  0
   26.0304  -19.3814  -19.6914 O   0  0  0  0  0  0  0  0  0  0  0  0
   25.5348  -13.6942  -18.9153 O   0  0  0  0  0  0  0  0  0  0  0  0
   26.8480  -19.2976  -17.5989 O   0  0  0  0  0  0  0  0  0  0  0  0
  1  2  1  0
  2  4  1  0
  3  2  2  0
  4  5  1  0
  5  6  1  1
  7  5  1  0
  8  7  2  0
 10  9  1  1
 10 11  1  0
 12 10  1  0
 12 13  1  6
 13  7  1  0
 14 12  1  0
 14 15  2  0
 16 14  1  0
 17 16  1  0
 17 18  1  1
 19 18  1  0
 20 19  1  0
 21 20  2  0
 22 17  1  0
 22 23  1  0
 24 20  1  0
 25 22  2  0
M  END
$$$$
