NTE.pdb
     RDKit          3D

 25 24  0  0  1  0  0  0  0  0999 V2000
   16.2773  -12.7628  -18.3634 N   0  0  0  0  0  0  0  0  0  0  0  0
   15.8311  -11.8531  -17.4002 C   0  0  0  0  0  0  0  0  0  0  0  0
   14.5916  -11.5851  -17.3959 O   0  0  0  0  0  0  0  0  0  0  0  0
   16.6424  -11.1720  -16.3891 C   0  0  0  0  0  0  0  0  0  0  0  0
   18.1047  -11.4639  -16.4258 C   0  0  2  0  0  0  0  0  0  0  0  0
   18.2542  -12.8446  -15.9291 N   0  0  0  0  0  0  0  0  0  0  0  0
   18.9042  -10.6199  -15.5032 C   0  0  0  0  0  0  0  0  0  0  0  0
   18.5821  -10.4010  -14.2936 O   0  0  0  0  0  0  0  0  0  0  0  0
   22.5936  -11.1216  -14.7100 C   0  0  0  0  0  0  0  0  0  0  0  0
   22.3940   -9.7160  -15.2314 C   0  0  1  0  0  0  0  0  0  0  0  0
   22.7599   -9.5944  -16.5627 O   0  0  0  0  0  0  0  0  0  0  0  0
   20.9659   -9.2411  -15.0126 C   0  0  2  0  0  0  0  0  0  0  0  0
   20.1142   -9.9811  -15.9128 N   0  0  0  0  0  0  0  0  0  0  0  0
   20.9554   -7.7785  -15.3356 C   0  0  0  0  0  0  0  0  0  0  0  0
   20.5401   -7.3745  -16.4503 O   0  0  0  0  0  0  0  0  0  0  0  0
   21.4098   -6.8168  -14.4010 N   0  0  0  0  0  0  0  0  0  0  0  0
   21.3225   -5.3778  -14.7260 C   0  0  1  0  0  0  0  0  0  0  0  0
   19.8985   -4.9744  -14.5433 C   0  0  0  0  0  0  0  0  0  0  0  0
   19.6877   -3.5355  -14.8810 C   0  0  0  0  0  0  0  0  0  0  0  0
   18.2551   -3.1615  -14.6951 C   0  0  0  0  0  0  0  0  0  0  0  0
   17.4469   -4.0307  -14.3337 O   0  0  0  0  0  0  0  0  0  0  0  0
   22.1957   -4.6212  -13.7951 C   0  0  0  0  0  0  0  0  0  0  0  0
   22.6542   -3.3346  -14.0056 O   0  0  0  0  0  0  0  0  0  0  0  0
   17.8655   -1.8682  -14.9275 O   0  0  0  0  0  0  0  0  0  0  0  0
   22.5817   -5.1640  -12.7011 O   0  0  0  0  0  0  0  0  0  0  0  0
  1  2  1  0
  2  4  1  0
  3  2  2  0
  4  5  1  0
  5  6  1  1
  7  5  1  0
  8  7  2  0
 10  9  1  6
 10 11  1  0
 12 10  1  0
 12 13  1  6
 13  7  1  0
 14 12  1  0
 14 15  2  0
 16 14  1  0
 17 16  1  0
 17 18  1  1
 19 18  1  0
 20 19  1  0
 21 20  2  0
 22 17  1  0
 22 23  1  0
 24 20  1  0
 25 22  2  0
M  END
$$$$
