NTE.pdb
     RDKit          3D

 25 24  0  0  1  0  0  0  0  0999 V2000
   24.7206  -14.4438  -15.6558 N   0  0  0  0  0  0  0  0  0  0  0  0
   26.0355  -13.9700  -15.6849 C   0  0  0  0  0  0  0  0  0  0  0  0
   26.9465  -14.7876  -15.3538 O   0  0  0  0  0  0  0  0  0  0  0  0
   26.4792  -12.6254  -16.0583 C   0  0  0  0  0  0  0  0  0  0  0  0
   25.4027  -11.6757  -16.4633 C   0  0  2  0  0  0  0  0  0  0  0  0
   24.7935  -12.2489  -17.6781 N   0  0  0  0  0  0  0  0  0  0  0  0
   25.9071  -10.3386  -16.8636 C   0  0  0  0  0  0  0  0  0  0  0  0
   26.5455   -9.5654  -16.0829 O   0  0  0  0  0  0  0  0  0  0  0  0
   26.6050   -7.0816  -20.5830 C   0  0  0  0  0  0  0  0  0  0  0  0
   26.2185   -8.4551  -20.0818 C   0  0  1  0  0  0  0  0  0  0  0  0
   27.0869   -9.4389  -20.5281 O   0  0  0  0  0  0  0  0  0  0  0  0
   26.0998   -8.4790  -18.5659 C   0  0  2  0  0  0  0  0  0  0  0  0
   25.7094   -9.8131  -18.1769 N   0  0  0  0  0  0  0  0  0  0  0  0
   25.0419   -7.4796  -18.2115 C   0  0  0  0  0  0  0  0  0  0  0  0
   23.8303   -7.7280  -18.4316 O   0  0  0  0  0  0  0  0  0  0  0  0
   25.3747   -6.2355  -17.6227 N   0  0  0  0  0  0  0  0  0  0  0  0
   24.3017   -5.3022  -17.2208 C   0  0  1  0  0  0  0  0  0  0  0  0
   23.6168   -5.9060  -16.0417 C   0  0  0  0  0  0  0  0  0  0  0  0
   22.5381   -5.0165  -15.5182 C   0  0  0  0  0  0  0  0  0  0  0  0
   21.8475   -5.6600  -14.3625 C   0  0  0  0  0  0  0  0  0  0  0  0
   22.2913   -5.4794  -13.2180 O   0  0  0  0  0  0  0  0  0  0  0  0
   24.9105   -4.0003  -16.8520 C   0  0  0  0  0  0  0  0  0  0  0  0
   26.2627   -3.7787  -16.6731 O   0  0  0  0  0  0  0  0  0  0  0  0
   20.7405   -6.4349  -14.5914 O   0  0  0  0  0  0  0  0  0  0  0  0
   24.1629   -2.9760  -16.6724 O   0  0  0  0  0  0  0  0  0  0  0  0
  1  2  1  0
  2  4  1  0
  3  2  2  0
  4  5  1  0
  5  6  1  6
  7  5  1  0
  8  7  2  0
 10  9  1  1
 10 11  1  0
 12 10  1  0
 12 13  1  6
 13  7  1  0
 14 12  1  0
 14 15  2  0
 16 14  1  0
 17 16  1  0
 17 18  1  1
 19 18  1  0
 20 19  1  0
 21 20  2  0
 22 17  1  0
 22 23  1  0
 24 20  1  0
 25 22  2  0
M  END
$$$$
