NTE.pdb
     RDKit          3D

 25 24  0  0  1  0  0  0  0  0999 V2000
   16.7569  -12.1574  -18.0351 N   0  0  0  0  0  0  0  0  0  0  0  0
   16.3505  -11.1958  -17.1053 C   0  0  0  0  0  0  0  0  0  0  0  0
   15.1106  -10.9343  -17.0564 O   0  0  0  0  0  0  0  0  0  0  0  0
   17.2041  -10.4534  -16.1756 C   0  0  0  0  0  0  0  0  0  0  0  0
   18.6667  -10.7279  -16.2770 C   0  0  2  0  0  0  0  0  0  0  0  0
   18.8635  -12.0816  -15.7255 N   0  0  0  0  0  0  0  0  0  0  0  0
   19.5009   -9.8312  -15.4387 C   0  0  0  0  0  0  0  0  0  0  0  0
   20.0397  -10.1911  -14.3455 O   0  0  0  0  0  0  0  0  0  0  0  0
   23.1027   -7.2315  -14.6679 C   0  0  0  0  0  0  0  0  0  0  0  0
   22.0592   -8.1985  -15.1809 C   0  0  1  0  0  0  0  0  0  0  0  0
   22.1349   -9.4320  -14.5534 O   0  0  0  0  0  0  0  0  0  0  0  0
   20.6595   -7.6146  -15.0691 C   0  0  2  0  0  0  0  0  0  0  0  0
   19.7643   -8.4759  -15.8041 N   0  0  0  0  0  0  0  0  0  0  0  0
   20.7236   -6.2494  -15.6823 C   0  0  0  0  0  0  0  0  0  0  0  0
   20.9200   -6.1128  -16.9156 O   0  0  0  0  0  0  0  0  0  0  0  0
   20.5659   -5.0828  -14.8954 N   0  0  0  0  0  0  0  0  0  0  0  0
   20.5080   -3.7583  -15.5483 C   0  0  1  0  0  0  0  0  0  0  0  0
   19.3688   -3.0179  -14.9336 C   0  0  0  0  0  0  0  0  0  0  0  0
   19.2474   -1.6375  -15.4892 C   0  0  0  0  0  0  0  0  0  0  0  0
   18.1617   -0.8888  -14.7909 C   0  0  0  0  0  0  0  0  0  0  0  0
   18.4577    0.0993  -14.1013 O   0  0  0  0  0  0  0  0  0  0  0  0
   21.7831   -3.0426  -15.2970 C   0  0  0  0  0  0  0  0  0  0  0  0
   22.4260   -2.2235  -16.2055 O   0  0  0  0  0  0  0  0  0  0  0  0
   16.8644   -1.3091  -14.9272 O   0  0  0  0  0  0  0  0  0  0  0  0
   22.3707   -3.1668  -14.1657 O   0  0  0  0  0  0  0  0  0  0  0  0
  1  2  1  0
  2  4  1  0
  3  2  2  0
  4  5  1  0
  5  6  1  1
  7  5  1  0
  8  7  2  0
 10  9  1  1
 10 11  1  0
 12 10  1  0
 12 13  1  6
 13  7  1  0
 14 12  1  0
 14 15  2  0
 16 14  1  0
 17 16  1  0
 17 18  1  1
 19 18  1  0
 20 19  1  0
 21 20  2  0
 22 17  1  0
 22 23  1  0
 24 20  1  0
 25 22  2  0
M  END
$$$$
