NTE.pdb
     RDKit          3D

 25 24  0  0  1  0  0  0  0  0999 V2000
   16.5978  -11.7128  -19.7587 N   0  0  0  0  0  0  0  0  0  0  0  0
   16.2422  -10.8516  -18.7165 C   0  0  0  0  0  0  0  0  0  0  0  0
   15.1096  -10.2876  -18.8006 O   0  0  0  0  0  0  0  0  0  0  0  0
   17.0383  -10.5277  -17.5310 C   0  0  0  0  0  0  0  0  0  0  0  0
   18.3624  -11.2076  -17.4326 C   0  0  2  0  0  0  0  0  0  0  0  0
   18.0743  -12.5988  -17.0363 N   0  0  0  0  0  0  0  0  0  0  0  0
   19.2348  -10.6614  -16.3634 C   0  0  0  0  0  0  0  0  0  0  0  0
   18.9731  -10.7599  -15.1238 O   0  0  0  0  0  0  0  0  0  0  0  0
   23.7191   -9.2281  -14.9798 C   0  0  0  0  0  0  0  0  0  0  0  0
   22.7230   -9.9028  -15.8962 C   0  0  1  0  0  0  0  0  0  0  0  0
   22.7909  -11.2849  -15.8167 O   0  0  0  0  0  0  0  0  0  0  0  0
   21.3080   -9.4103  -15.6358 C   0  0  2  0  0  0  0  0  0  0  0  0
   20.4527   -9.9737  -16.6529 N   0  0  0  0  0  0  0  0  0  0  0  0
   21.3579   -7.9166  -15.7358 C   0  0  0  0  0  0  0  0  0  0  0  0
   21.6806   -7.3601  -16.8149 O   0  0  0  0  0  0  0  0  0  0  0  0
   21.0452   -7.0954  -14.6255 N   0  0  0  0  0  0  0  0  0  0  0  0
   21.2680   -5.6366  -14.7045 C   0  0  1  0  0  0  0  0  0  0  0  0
   19.9293   -4.9851  -14.6189 C   0  0  0  0  0  0  0  0  0  0  0  0
   20.0409   -3.4964  -14.6385 C   0  0  0  0  0  0  0  0  0  0  0  0
   18.6853   -2.8727  -14.6452 C   0  0  0  0  0  0  0  0  0  0  0  0
   17.6846   -3.6051  -14.6888 O   0  0  0  0  0  0  0  0  0  0  0  0
   22.1185   -5.2180  -13.5630 C   0  0  0  0  0  0  0  0  0  0  0  0
   22.3057   -5.9463  -12.4037 O   0  0  0  0  0  0  0  0  0  0  0  0
   18.5767   -1.5072  -14.6032 O   0  0  0  0  0  0  0  0  0  0  0  0
   22.7439   -4.1012  -13.6109 O   0  0  0  0  0  0  0  0  0  0  0  0
  1  2  1  0
  2  4  1  0
  3  2  2  0
  4  5  1  0
  5  6  1  1
  7  5  1  0
  8  7  2  0
 10  9  1  1
 10 11  1  0
 12 10  1  0
 12 13  1  6
 13  7  1  0
 14 12  1  0
 14 15  2  0
 16 14  1  0
 17 16  1  0
 17 18  1  1
 19 18  1  0
 20 19  1  0
 21 20  2  0
 22 17  1  0
 22 23  1  0
 24 20  1  0
 25 22  2  0
M  END
$$$$
