NTE.pdb
     RDKit          3D

 25 24  0  0  1  0  0  0  0  0999 V2000
   14.9001  -12.1398  -17.2828 N   0  0  0  0  0  0  0  0  0  0  0  0
   14.8892  -11.7603  -15.9373 C   0  0  0  0  0  0  0  0  0  0  0  0
   13.7564  -11.6856  -15.3723 O   0  0  0  0  0  0  0  0  0  0  0  0
   16.0490  -11.4380  -15.1036 C   0  0  0  0  0  0  0  0  0  0  0  0
   17.3772  -11.5272  -15.7767 C   0  0  2  0  0  0  0  0  0  0  0  0
   17.6839  -12.9664  -15.8772 N   0  0  0  0  0  0  0  0  0  0  0  0
   18.4866  -10.9378  -14.9865 C   0  0  0  0  0  0  0  0  0  0  0  0
   18.8420  -11.3677  -13.8446 O   0  0  0  0  0  0  0  0  0  0  0  0
   22.0967  -10.5249  -15.8418 C   0  0  0  0  0  0  0  0  0  0  0  0
   21.5411   -9.1438  -15.5754 C   0  0  1  0  0  0  0  0  0  0  0  0
   21.2834   -8.4482  -16.7462 O   0  0  0  0  0  0  0  0  0  0  0  0
   20.3038   -9.2046  -14.6933 C   0  0  2  0  0  0  0  0  0  0  0  0
   19.2493   -9.8263  -15.4581 N   0  0  0  0  0  0  0  0  0  0  0  0
   19.9619   -7.7870  -14.3509 C   0  0  0  0  0  0  0  0  0  0  0  0
   19.0175   -7.1997  -14.9353 O   0  0  0  0  0  0  0  0  0  0  0  0
   20.6878   -7.0737  -13.3663 N   0  0  0  0  0  0  0  0  0  0  0  0
   20.3906   -5.6465  -13.1244 C   0  0  1  0  0  0  0  0  0  0  0  0
   19.1674   -5.5933  -12.2730 C   0  0  0  0  0  0  0  0  0  0  0  0
   19.5112   -5.5069  -10.8227 C   0  0  0  0  0  0  0  0  0  0  0  0
   18.2711   -5.4093   -9.9985 C   0  0  0  0  0  0  0  0  0  0  0  0
   18.1297   -6.1706   -9.0291 O   0  0  0  0  0  0  0  0  0  0  0  0
   21.5390   -5.0301  -12.4153 C   0  0  0  0  0  0  0  0  0  0  0  0
   21.7629   -3.6716  -12.2980 O   0  0  0  0  0  0  0  0  0  0  0  0
   17.3180   -4.4822  -10.3308 O   0  0  0  0  0  0  0  0  0  0  0  0
   22.4171   -5.7765  -11.8564 O   0  0  0  0  0  0  0  0  0  0  0  0
  1  2  1  0
  2  4  1  0
  3  2  2  0
  4  5  1  0
  5  6  1  1
  7  5  1  0
  8  7  2  0
 10  9  1  6
 10 11  1  0
 12 10  1  0
 12 13  1  6
 13  7  1  0
 14 12  1  0
 14 15  2  0
 16 14  1  0
 17 16  1  0
 17 18  1  1
 19 18  1  0
 20 19  1  0
 21 20  2  0
 22 17  1  0
 22 23  1  0
 24 20  1  0
 25 22  2  0
M  END
$$$$
