NTE.pdb
     RDKit          3D

 25 24  0  0  1  0  0  0  0  0999 V2000
   16.0174  -15.5490  -15.8968 N   0  0  0  0  0  0  0  0  0  0  0  0
   16.4005  -14.5857  -14.9589 C   0  0  0  0  0  0  0  0  0  0  0  0
   15.7856  -14.5895  -13.8498 O   0  0  0  0  0  0  0  0  0  0  0  0
   17.4404  -13.5670  -15.1170 C   0  0  0  0  0  0  0  0  0  0  0  0
   18.0817  -13.4973  -16.4619 C   0  0  2  0  0  0  0  0  0  0  0  0
   18.9649  -14.6752  -16.5504 N   0  0  0  0  0  0  0  0  0  0  0  0
   18.9685  -12.3204  -16.6392 C   0  0  0  0  0  0  0  0  0  0  0  0
   20.1961  -12.3096  -16.3111 O   0  0  0  0  0  0  0  0  0  0  0  0
   19.3626  -10.1726  -19.8787 C   0  0  0  0  0  0  0  0  0  0  0  0
   18.9622   -9.2960  -18.7132 C   0  0  1  0  0  0  0  0  0  0  0  0
   17.6158   -8.9679  -18.7429 O   0  0  0  0  0  0  0  0  0  0  0  0
   19.3393   -9.9332  -17.3849 C   0  0  2  0  0  0  0  0  0  0  0  0
   18.5005  -11.0933  -17.2005 N   0  0  0  0  0  0  0  0  0  0  0  0
   19.0744   -8.9001  -16.3331 C   0  0  0  0  0  0  0  0  0  0  0  0
   18.0056   -8.9211  -15.6733 O   0  0  0  0  0  0  0  0  0  0  0  0
   20.0141   -7.8782  -16.0545 N   0  0  0  0  0  0  0  0  0  0  0  0
   19.7314   -6.8894  -14.9932 C   0  0  1  0  0  0  0  0  0  0  0  0
   21.0461   -6.3657  -14.5228 C   0  0  0  0  0  0  0  0  0  0  0  0
   20.8765   -5.3281  -13.4629 C   0  0  0  0  0  0  0  0  0  0  0  0
   22.2066   -4.8410  -12.9934 C   0  0  0  0  0  0  0  0  0  0  0  0
   22.7474   -3.8963  -13.5889 O   0  0  0  0  0  0  0  0  0  0  0  0
   18.9143   -5.7909  -15.5652 C   0  0  0  0  0  0  0  0  0  0  0  0
   18.0874   -4.9555  -14.8387 O   0  0  0  0  0  0  0  0  0  0  0  0
   22.7994   -5.4473  -11.9168 O   0  0  0  0  0  0  0  0  0  0  0  0
   18.9440   -5.5653  -16.8257 O   0  0  0  0  0  0  0  0  0  0  0  0
  1  2  1  0
  2  4  1  0
  3  2  2  0
  4  5  1  0
  5  6  1  1
  7  5  1  0
  8  7  2  0
 10  9  1  6
 10 11  1  0
 12 10  1  0
 12 13  1  1
 13  7  1  0
 14 12  1  0
 14 15  2  0
 16 14  1  0
 17 16  1  0
 17 18  1  6
 19 18  1  0
 20 19  1  0
 21 20  2  0
 22 17  1  0
 22 23  1  0
 24 20  1  0
 25 22  2  0
M  END
$$$$
