NTE.pdb
     RDKit          3D

 25 24  0  0  1  0  0  0  0  0999 V2000
   14.5798  -15.1760  -16.8111 N   0  0  0  0  0  0  0  0  0  0  0  0
   14.3361  -14.0716  -15.9894 C   0  0  0  0  0  0  0  0  0  0  0  0
   13.1370  -13.8848  -15.6215 O   0  0  0  0  0  0  0  0  0  0  0  0
   15.3191  -13.1013  -15.5033 C   0  0  0  0  0  0  0  0  0  0  0  0
   16.7222  -13.3128  -15.9632 C   0  0  2  0  0  0  0  0  0  0  0  0
   17.1880  -14.5396  -15.2897 N   0  0  0  0  0  0  0  0  0  0  0  0
   17.6577  -12.2434  -15.5344 C   0  0  0  0  0  0  0  0  0  0  0  0
   17.8164  -11.8924  -14.3234 O   0  0  0  0  0  0  0  0  0  0  0  0
   21.2909  -12.0651  -15.7127 C   0  0  0  0  0  0  0  0  0  0  0  0
   20.7744  -10.9023  -16.5302 C   0  0  1  0  0  0  0  0  0  0  0  0
   20.7939  -11.1687  -17.8902 O   0  0  0  0  0  0  0  0  0  0  0  0
   19.3857  -10.4794  -16.0770 C   0  0  2  0  0  0  0  0  0  0  0  0
   18.4617  -11.5179  -16.4655 N   0  0  0  0  0  0  0  0  0  0  0  0
   19.0859   -9.1941  -16.7853 C   0  0  0  0  0  0  0  0  0  0  0  0
   18.2374   -9.1589  -17.7111 O   0  0  0  0  0  0  0  0  0  0  0  0
   19.7453   -7.9911  -16.4345 N   0  0  0  0  0  0  0  0  0  0  0  0
   19.3852   -6.7301  -17.1158 C   0  0  1  0  0  0  0  0  0  0  0  0
   17.9915   -6.3943  -16.7049 C   0  0  0  0  0  0  0  0  0  0  0  0
   17.9410   -5.8789  -15.3046 C   0  0  0  0  0  0  0  0  0  0  0  0
   16.5470   -5.4871  -14.9440 C   0  0  0  0  0  0  0  0  0  0  0  0
   16.0860   -4.4234  -15.3861 O   0  0  0  0  0  0  0  0  0  0  0  0
   20.3215   -5.6645  -16.6804 C   0  0  0  0  0  0  0  0  0  0  0  0
   21.1904   -5.7600  -15.6102 O   0  0  0  0  0  0  0  0  0  0  0  0
   15.8089   -6.3100  -14.1338 O   0  0  0  0  0  0  0  0  0  0  0  0
   20.3592   -4.5521  -17.3142 O   0  0  0  0  0  0  0  0  0  0  0  0
  1  2  1  0
  2  4  1  0
  3  2  2  0
  4  5  1  0
  5  6  1  1
  7  5  1  0
  8  7  2  0
 10  9  1  1
 10 11  1  0
 12 10  1  0
 12 13  1  6
 13  7  1  0
 14 12  1  0
 14 15  2  0
 16 14  1  0
 17 16  1  0
 17 18  1  1
 19 18  1  0
 20 19  1  0
 21 20  2  0
 22 17  1  0
 22 23  1  0
 24 20  1  0
 25 22  2  0
M  END
$$$$
