NTE.pdb
     RDKit          3D

 25 24  0  0  1  0  0  0  0  0999 V2000
   18.8903  -14.1603  -18.0565 N   0  0  0  0  0  0  0  0  0  0  0  0
   18.5852  -12.9682  -18.7200 C   0  0  0  0  0  0  0  0  0  0  0  0
   18.6208  -12.9927  -19.9873 O   0  0  0  0  0  0  0  0  0  0  0  0
   18.2263  -11.6869  -18.1087 C   0  0  0  0  0  0  0  0  0  0  0  0
   18.3046  -11.6333  -16.6201 C   0  0  2  0  0  0  0  0  0  0  0  0
   17.1958  -12.4713  -16.1263 N   0  0  0  0  0  0  0  0  0  0  0  0
   18.0622  -10.2810  -16.0589 C   0  0  0  0  0  0  0  0  0  0  0  0
   17.0082   -9.6065  -16.2805 O   0  0  0  0  0  0  0  0  0  0  0  0
   17.3686   -9.0504  -12.7768 C   0  0  0  0  0  0  0  0  0  0  0  0
   18.6883   -8.4247  -13.1693 C   0  0  1  0  0  0  0  0  0  0  0  0
   19.7704   -9.1052  -12.6334 O   0  0  0  0  0  0  0  0  0  0  0  0
   18.8156   -8.3005  -14.6796 C   0  0  2  0  0  0  0  0  0  0  0  0
   19.0104   -9.6268  -15.2146 N   0  0  0  0  0  0  0  0  0  0  0  0
   20.0112   -7.4337  -14.9306 C   0  0  0  0  0  0  0  0  0  0  0  0
   21.1281   -7.9471  -15.1898 O   0  0  0  0  0  0  0  0  0  0  0  0
   19.9175   -6.0216  -14.8832 N   0  0  0  0  0  0  0  0  0  0  0  0
   21.1167   -5.1965  -15.1384 C   0  0  1  0  0  0  0  0  0  0  0  0
   20.6391   -3.8733  -15.6332 C   0  0  0  0  0  0  0  0  0  0  0  0
   21.7774   -2.9502  -15.9181 C   0  0  0  0  0  0  0  0  0  0  0  0
   21.2707   -1.6318  -16.3994 C   0  0  0  0  0  0  0  0  0  0  0  0
   20.0490   -1.4722  -16.5459 O   0  0  0  0  0  0  0  0  0  0  0  0
   21.8657   -5.0318  -13.8682 C   0  0  0  0  0  0  0  0  0  0  0  0
   23.2235   -4.7935  -13.7725 O   0  0  0  0  0  0  0  0  0  0  0  0
   22.1651   -0.6287  -16.6681 O   0  0  0  0  0  0  0  0  0  0  0  0
   21.2473   -5.1120  -12.7494 O   0  0  0  0  0  0  0  0  0  0  0  0
  1  2  1  0
  2  4  1  0
  3  2  2  0
  4  5  1  0
  5  6  1  1
  7  5  1  0
  8  7  2  0
 10  9  1  6
 10 11  1  0
 12 10  1  0
 12 13  1  6
 13  7  1  0
 14 12  1  0
 14 15  2  0
 16 14  1  0
 17 16  1  0
 17 18  1  1
 19 18  1  0
 20 19  1  0
 21 20  2  0
 22 17  1  0
 22 23  1  0
 24 20  1  0
 25 22  2  0
M  END
$$$$
