NTE.pdb
     RDKit          3D

 25 24  0  0  1  0  0  0  0  0999 V2000
   22.5253  -14.1493  -20.8022 N   0  0  0  0  0  0  0  0  0  0  0  0
   21.6292  -13.1890  -20.3234 C   0  0  0  0  0  0  0  0  0  0  0  0
   20.6392  -12.9093  -21.0648 O   0  0  0  0  0  0  0  0  0  0  0  0
   21.7083  -12.4668  -19.0520 C   0  0  0  0  0  0  0  0  0  0  0  0
   22.9262  -12.7283  -18.2316 C   0  0  2  0  0  0  0  0  0  0  0  0
   22.7386  -14.0684  -17.6447 N   0  0  0  0  0  0  0  0  0  0  0  0
   23.0774  -11.8062  -17.0785 C   0  0  0  0  0  0  0  0  0  0  0  0
   22.5038  -11.9817  -15.9583 O   0  0  0  0  0  0  0  0  0  0  0  0
   26.3134  -10.7511  -15.5087 C   0  0  0  0  0  0  0  0  0  0  0  0
   25.5756   -9.4864  -15.8873 C   0  0  1  0  0  0  0  0  0  0  0  0
   26.0926   -8.9013  -17.0324 O   0  0  0  0  0  0  0  0  0  0  0  0
   24.0824   -9.7370  -16.0292 C   0  0  2  0  0  0  0  0  0  0  0  0
   23.8916  -10.6346  -17.1434 N   0  0  0  0  0  0  0  0  0  0  0  0
   23.4557   -8.4026  -16.2946 C   0  0  0  0  0  0  0  0  0  0  0  0
   23.0726   -8.0965  -17.4512 O   0  0  0  0  0  0  0  0  0  0  0  0
   23.2787   -7.4552  -15.2572 N   0  0  0  0  0  0  0  0  0  0  0  0
   22.5084   -6.2203  -15.5135 C   0  0  1  0  0  0  0  0  0  0  0  0
   21.1197   -6.6364  -15.8630 C   0  0  0  0  0  0  0  0  0  0  0  0
   20.2636   -5.4615  -16.2030 C   0  0  0  0  0  0  0  0  0  0  0  0
   18.9217   -5.9138  -16.6736 C   0  0  0  0  0  0  0  0  0  0  0  0
   17.9072   -5.4990  -16.0921 O   0  0  0  0  0  0  0  0  0  0  0  0
   22.5037   -5.3927  -14.2820 C   0  0  0  0  0  0  0  0  0  0  0  0
   22.4142   -4.0140  -14.2524 O   0  0  0  0  0  0  0  0  0  0  0  0
   18.8407   -6.7758  -17.7360 O   0  0  0  0  0  0  0  0  0  0  0  0
   22.5905   -5.9569  -13.1354 O   0  0  0  0  0  0  0  0  0  0  0  0
  1  2  1  0
  2  4  1  0
  3  2  2  0
  4  5  1  0
  5  6  1  1
  7  5  1  0
  8  7  2  0
 10  9  1  6
 10 11  1  0
 12 10  1  0
 12 13  1  6
 13  7  1  0
 14 12  1  0
 14 15  2  0
 16 14  1  0
 17 16  1  0
 17 18  1  1
 19 18  1  0
 20 19  1  0
 21 20  2  0
 22 17  1  0
 22 23  1  0
 24 20  1  0
 25 22  2  0
M  END
$$$$
