NTE.pdb
     RDKit          3D

 25 24  0  0  1  0  0  0  0  0999 V2000
   18.1762  -14.9273  -15.1633 N   0  0  0  0  0  0  0  0  0  0  0  0
   17.6739  -13.7064  -14.7037 C   0  0  0  0  0  0  0  0  0  0  0  0
   16.8711  -13.7499  -13.7231 O   0  0  0  0  0  0  0  0  0  0  0  0
   17.9750  -12.3747  -15.2329 C   0  0  0  0  0  0  0  0  0  0  0  0
   16.8056  -11.4649  -15.4052 C   0  0  2  0  0  0  0  0  0  0  0  0
   16.0389  -12.0029  -16.5446 N   0  0  0  0  0  0  0  0  0  0  0  0
   17.1785  -10.0819  -15.7937 C   0  0  0  0  0  0  0  0  0  0  0  0
   17.2817   -9.6941  -16.9994 O   0  0  0  0  0  0  0  0  0  0  0  0
   17.4279   -5.3215  -14.7499 C   0  0  0  0  0  0  0  0  0  0  0  0
   16.9679   -6.7437  -14.5202 C   0  0  1  0  0  0  0  0  0  0  0  0
   15.6623   -6.9461  -14.9394 O   0  0  0  0  0  0  0  0  0  0  0  0
   17.9110   -7.7434  -15.1712 C   0  0  2  0  0  0  0  0  0  0  0  0
   17.4533   -9.0681  -14.8259 N   0  0  0  0  0  0  0  0  0  0  0  0
   19.2691   -7.4731  -14.6002 C   0  0  0  0  0  0  0  0  0  0  0  0
   19.5682   -7.8749  -13.4481 O   0  0  0  0  0  0  0  0  0  0  0  0
   20.2474   -6.7625  -15.3371 N   0  0  0  0  0  0  0  0  0  0  0  0
   21.6201   -6.6356  -14.8046 C   0  0  1  0  0  0  0  0  0  0  0  0
   22.5471   -6.6788  -15.9719 C   0  0  0  0  0  0  0  0  0  0  0  0
   23.9599   -6.4262  -15.5608 C   0  0  0  0  0  0  0  0  0  0  0  0
   24.8448   -6.3464  -16.7597 C   0  0  0  0  0  0  0  0  0  0  0  0
   25.5559   -5.3422  -16.9187 O   0  0  0  0  0  0  0  0  0  0  0  0
   21.7429   -5.3372  -14.0971 C   0  0  0  0  0  0  0  0  0  0  0  0
   22.5349   -5.1095  -12.9878 O   0  0  0  0  0  0  0  0  0  0  0  0
   24.8517   -7.3828  -17.6565 O   0  0  0  0  0  0  0  0  0  0  0  0
   21.0792   -4.3223  -14.5093 O   0  0  0  0  0  0  0  0  0  0  0  0
  1  2  1  0
  2  4  1  0
  3  2  2  0
  4  5  1  0
  5  6  1  6
  7  5  1  0
  8  7  2  0
 10  9  1  6
 10 11  1  0
 12 10  1  0
 12 13  1  1
 13  7  1  0
 14 12  1  0
 14 15  2  0
 16 14  1  0
 17 16  1  0
 17 18  1  6
 19 18  1  0
 20 19  1  0
 21 20  2  0
 22 17  1  0
 22 23  1  0
 24 20  1  0
 25 22  2  0
M  END
$$$$
