NTE.pdb
     RDKit          3D

 25 24  0  0  1  0  0  0  0  0999 V2000
   21.3255  -14.8032  -17.4744 N   0  0  0  0  0  0  0  0  0  0  0  0
   21.6569  -13.7058  -18.2746 C   0  0  0  0  0  0  0  0  0  0  0  0
   22.5428  -13.8911  -19.1627 O   0  0  0  0  0  0  0  0  0  0  0  0
   21.0896  -12.3579  -18.1998 C   0  0  0  0  0  0  0  0  0  0  0  0
   20.0715  -12.1404  -17.1316 C   0  0  2  0  0  0  0  0  0  0  0  0
   18.8686  -12.8766  -17.5633 N   0  0  0  0  0  0  0  0  0  0  0  0
   19.6446  -10.7257  -16.9941 C   0  0  0  0  0  0  0  0  0  0  0  0
   18.9929  -10.0982  -17.8866 O   0  0  0  0  0  0  0  0  0  0  0  0
   17.1723   -9.2125  -14.9387 C   0  0  0  0  0  0  0  0  0  0  0  0
   18.4807   -8.5847  -14.5130 C   0  0  1  0  0  0  0  0  0  0  0  0
   19.0028   -9.1819  -13.3763 O   0  0  0  0  0  0  0  0  0  0  0  0
   19.4938   -8.5914  -15.6471 C   0  0  2  0  0  0  0  0  0  0  0  0
   19.9391   -9.9521  -15.8302 N   0  0  0  0  0  0  0  0  0  0  0  0
   20.6204   -7.7066  -15.2093 C   0  0  0  0  0  0  0  0  0  0  0  0
   21.6394   -8.1956  -14.6610 O   0  0  0  0  0  0  0  0  0  0  0  0
   20.5693   -6.3043  -15.3995 N   0  0  0  0  0  0  0  0  0  0  0  0
   21.6687   -5.4541  -14.8971 C   0  0  1  0  0  0  0  0  0  0  0  0
   21.4599   -4.0904  -15.4634 C   0  0  0  0  0  0  0  0  0  0  0  0
   22.5069   -3.1349  -14.9947 C   0  0  0  0  0  0  0  0  0  0  0  0
   22.2660   -1.7773  -15.5653 C   0  0  0  0  0  0  0  0  0  0  0  0
   22.6249   -1.5399  -16.7291 O   0  0  0  0  0  0  0  0  0  0  0  0
   21.6047   -5.4119  -13.4153 C   0  0  0  0  0  0  0  0  0  0  0  0
   22.6804   -5.1750  -12.5808 O   0  0  0  0  0  0  0  0  0  0  0  0
   21.6547   -0.8252  -14.7920 O   0  0  0  0  0  0  0  0  0  0  0  0
   20.4874   -5.6077  -12.8205 O   0  0  0  0  0  0  0  0  0  0  0  0
  1  2  1  0
  2  4  1  0
  3  2  2  0
  4  5  1  0
  5  6  1  6
  7  5  1  0
  8  7  2  0
 10  9  1  6
 10 11  1  0
 12 10  1  0
 12 13  1  1
 13  7  1  0
 14 12  1  0
 14 15  2  0
 16 14  1  0
 17 16  1  0
 17 18  1  6
 19 18  1  0
 20 19  1  0
 21 20  2  0
 22 17  1  0
 22 23  1  0
 24 20  1  0
 25 22  2  0
M  END
$$$$
