NTE.pdb
     RDKit          3D

 25 24  0  0  1  0  0  0  0  0999 V2000
   14.0731  -12.5643   -9.6741 N   0  0  0  0  0  0  0  0  0  0  0  0
   14.7783  -12.2165  -10.8300 C   0  0  0  0  0  0  0  0  0  0  0  0
   15.1004  -13.1623  -11.6109 O   0  0  0  0  0  0  0  0  0  0  0  0
   15.1879  -10.8720  -11.2409 C   0  0  0  0  0  0  0  0  0  0  0  0
   14.9322   -9.7849  -10.2521 C   0  0  2  0  0  0  0  0  0  0  0  0
   13.4667   -9.6310  -10.1900 N   0  0  0  0  0  0  0  0  0  0  0  0
   15.4542   -8.4611  -10.6734 C   0  0  0  0  0  0  0  0  0  0  0  0
   14.9049   -7.7399  -11.5639 O   0  0  0  0  0  0  0  0  0  0  0  0
   15.5251   -5.2912   -9.2292 C   0  0  0  0  0  0  0  0  0  0  0  0
   16.9889   -5.6265   -9.4080 C   0  0  1  0  0  0  0  0  0  0  0  0
   17.5726   -6.0681   -8.2310 O   0  0  0  0  0  0  0  0  0  0  0  0
   17.1944   -6.6325  -10.5298 C   0  0  2  0  0  0  0  0  0  0  0  0
   16.6313   -7.8902  -10.1003 N   0  0  0  0  0  0  0  0  0  0  0  0
   18.6747   -6.7416  -10.7305 C   0  0  0  0  0  0  0  0  0  0  0  0
   19.3482   -7.5727  -10.0718 O   0  0  0  0  0  0  0  0  0  0  0  0
   19.3523   -5.9172  -11.6613 N   0  0  0  0  0  0  0  0  0  0  0  0
   20.7777   -6.1660  -11.9619 C   0  0  1  0  0  0  0  0  0  0  0  0
   20.8533   -7.4803  -12.6624 C   0  0  0  0  0  0  0  0  0  0  0  0
   20.0880   -7.4642  -13.9442 C   0  0  0  0  0  0  0  0  0  0  0  0
   20.2084   -8.7792  -14.6392 C   0  0  0  0  0  0  0  0  0  0  0  0
   21.3132   -9.3426  -14.6766 O   0  0  0  0  0  0  0  0  0  0  0  0
   21.2789   -5.0828  -12.8434 C   0  0  0  0  0  0  0  0  0  0  0  0
   22.6113   -4.8199  -13.0988 O   0  0  0  0  0  0  0  0  0  0  0  0
   19.0974   -9.3337  -15.2193 O   0  0  0  0  0  0  0  0  0  0  0  0
   20.4485   -4.3048  -13.4314 O   0  0  0  0  0  0  0  0  0  0  0  0
  1  2  1  0
  2  4  1  0
  3  2  2  0
  4  5  1  0
  5  6  1  6
  7  5  1  0
  8  7  2  0
 10  9  1  1
 10 11  1  0
 12 10  1  0
 12 13  1  1
 13  7  1  0
 14 12  1  0
 14 15  2  0
 16 14  1  0
 17 16  1  0
 17 18  1  6
 19 18  1  0
 20 19  1  0
 21 20  2  0
 22 17  1  0
 22 23  1  0
 24 20  1  0
 25 22  2  0
M  END
$$$$
