KWD.pdb
     RDKit          3D

 32 33  0  0  1  0  0  0  0  0999 V2000
   28.8212  -21.1755  -14.0745 N   0  0  0  0  0  0  0  0  0  0  0  0
   27.5687  -20.5428  -14.2735 C   0  0  1  0  0  0  0  0  0  0  0  0
   27.0748  -20.6305  -15.7131 C   0  0  0  0  0  0  0  0  0  0  0  0
   27.8570  -19.6330  -16.4887 C   0  0  0  0  0  0  0  0  0  0  0  0
   28.8335  -20.1288  -17.4801 C   0  0  0  0  0  0  0  0  0  0  0  0
   29.5312  -19.0212  -18.1989 C   0  0  0  0  0  0  0  0  0  0  0  0
   30.5600  -19.4999  -19.0717 N   0  0  0  0  0  0  0  0  0  0  0  0
   26.5800  -21.0536  -13.3109 C   0  0  0  0  0  0  0  0  0  0  0  0
   25.7918  -22.0078  -13.5464 O   0  0  0  0  0  0  0  0  0  0  0  0
   26.4762  -20.4564  -12.0158 N   0  0  0  0  0  0  0  0  0  0  0  0
   25.4775  -20.8705  -11.0892 C   0  0  1  0  0  0  0  0  0  0  0  0
   25.7767  -20.1570   -9.7590 C   0  0  0  0  0  0  0  0  0  0  0  0
   27.0987  -20.5050   -9.2408 C   0  0  0  0  0  0  0  0  0  0  0  0
   28.0639  -21.2739   -9.8380 C   0  0  0  0  0  0  0  0  0  0  0  0
   29.1516  -21.3616   -9.0345 N   0  0  0  0  0  0  0  0  0  0  0  0
   28.8843  -20.6539   -7.9308 C   0  0  0  0  0  0  0  0  0  0  0  0
   29.6563  -20.4260   -6.8118 C   0  0  0  0  0  0  0  0  0  0  0  0
   29.1896  -19.6554   -5.7689 C   0  0  0  0  0  0  0  0  0  0  0  0
   27.9277  -19.1126   -5.8651 C   0  0  0  0  0  0  0  0  0  0  0  0
   27.1628  -19.3418   -6.9799 C   0  0  0  0  0  0  0  0  0  0  0  0
   27.6176  -20.1107   -8.0303 C   0  0  0  0  0  0  0  0  0  0  0  0
   24.1012  -20.4870  -11.4432 C   0  0  0  0  0  0  0  0  0  0  0  0
   23.7339  -19.3119  -11.2747 O   0  0  0  0  0  0  0  0  0  0  0  0
   23.2217  -21.4457  -11.9637 N   0  0  0  0  0  0  0  0  0  0  0  0
   21.8855  -20.9940  -12.4157 C   0  0  1  0  0  0  0  0  0  0  0  0
   21.6211  -21.5172  -13.7942 C   0  0  0  0  0  0  0  0  0  0  0  0
   22.0051  -20.5328  -14.8032 C   0  0  0  0  0  0  0  0  0  0  0  0
   22.4289  -19.4104  -14.4901 O   0  0  0  0  0  0  0  0  0  0  0  0
   20.9389  -21.5925  -11.4123 C   0  0  0  0  0  0  0  0  0  0  0  0
   19.8434  -20.9350  -10.9174 O   0  0  0  0  0  0  0  0  0  0  0  0
   21.8958  -20.8546  -16.1468 O   0  0  0  0  0  0  0  0  0  0  0  0
   21.1330  -22.7633  -10.9786 O   0  0  0  0  0  0  0  0  0  0  0  0
  2  3  1  0
  2  1  1  6
  4  3  1  0
  5  4  1  0
  5  6  1  0
  7  6  1  0
  8  9  2  0
  8  2  1  0
 10  8  1  0
 11 10  1  0
 12 13  1  0
 11 12  1  1
 13 21  1  0
 14 13  2  0
 14 15  1  0
 15 16  1  0
 16 17  1  0
 17 18  2  0
 19 18  1  0
 20 19  2  0
 21 16  2  0
 21 20  1  0
 22 24  1  0
 22 11  1  0
 23 22  2  0
 25 24  1  0
 25 29  1  0
 25 26  1  6
 27 26  1  0
 28 27  2  0
 29 30  1  0
 31 27  1  0
 32 29  2  0
M  END
$$$$
