KWD.pdb
     RDKit          3D

 32 33  0  0  1  0  0  0  0  0999 V2000
   18.5404  -11.5946  -15.9721 N   0  0  0  0  0  0  0  0  0  0  0  0
   18.7893  -10.2586  -16.3746 C   0  0  1  0  0  0  0  0  0  0  0  0
   17.5185   -9.4284  -16.5154 C   0  0  0  0  0  0  0  0  0  0  0  0
   16.6310  -10.1708  -17.4479 C   0  0  0  0  0  0  0  0  0  0  0  0
   15.3679   -9.5307  -17.8688 C   0  0  0  0  0  0  0  0  0  0  0  0
   14.6174  -10.3486  -18.8677 C   0  0  0  0  0  0  0  0  0  0  0  0
   13.3521   -9.7708  -19.2060 N   0  0  0  0  0  0  0  0  0  0  0  0
   19.7717   -9.6297  -15.4778 C   0  0  0  0  0  0  0  0  0  0  0  0
   19.7463   -9.7271  -14.2220 O   0  0  0  0  0  0  0  0  0  0  0  0
   20.8378   -8.8511  -16.0274 N   0  0  0  0  0  0  0  0  0  0  0  0
   21.7556   -8.1584  -15.1876 C   0  0  1  0  0  0  0  0  0  0  0  0
   23.1697   -8.5156  -15.6784 C   0  0  0  0  0  0  0  0  0  0  0  0
   23.4620   -9.9376  -15.5057 C   0  0  0  0  0  0  0  0  0  0  0  0
   23.9131  -10.5760  -14.3795 C   0  0  0  0  0  0  0  0  0  0  0  0
   24.0621  -11.9006  -14.6239 N   0  0  0  0  0  0  0  0  0  0  0  0
   23.7089  -12.1083  -15.8978 C   0  0  0  0  0  0  0  0  0  0  0  0
   23.6803  -13.2734  -16.6340 C   0  0  0  0  0  0  0  0  0  0  0  0
   23.2777  -13.2737  -17.9520 C   0  0  0  0  0  0  0  0  0  0  0  0
   22.9013  -12.0797  -18.5254 C   0  0  0  0  0  0  0  0  0  0  0  0
   22.9312  -10.9229  -17.7896 C   0  0  0  0  0  0  0  0  0  0  0  0
   23.3319  -10.9086  -16.4703 C   0  0  0  0  0  0  0  0  0  0  0  0
   21.6736   -6.6902  -15.2518 C   0  0  0  0  0  0  0  0  0  0  0  0
   21.2260   -6.1495  -16.2773 O   0  0  0  0  0  0  0  0  0  0  0  0
   22.0993   -5.9192  -14.1620 N   0  0  0  0  0  0  0  0  0  0  0  0
   21.9545   -4.4477  -14.2496 C   0  0  1  0  0  0  0  0  0  0  0  0
   22.2591   -3.9980  -15.6457 C   0  0  0  0  0  0  0  0  0  0  0  0
   22.0713   -2.5550  -15.7764 C   0  0  0  0  0  0  0  0  0  0  0  0
   22.1678   -1.7945  -14.8018 O   0  0  0  0  0  0  0  0  0  0  0  0
   20.5137   -4.2008  -13.8972 C   0  0  0  0  0  0  0  0  0  0  0  0
   19.6474   -5.1899  -13.5113 O   0  0  0  0  0  0  0  0  0  0  0  0
   21.7776   -2.0148  -17.0185 O   0  0  0  0  0  0  0  0  0  0  0  0
   20.0406   -3.0304  -13.9491 O   0  0  0  0  0  0  0  0  0  0  0  0
  2  3  1  0
  2  1  1  1
  4  3  1  0
  5  4  1  0
  5  6  1  0
  7  6  1  0
  8  9  2  0
  8  2  1  0
 10  8  1  0
 11 10  1  0
 12 13  1  0
 11 12  1  6
 13 21  1  0
 14 13  2  0
 14 15  1  0
 15 16  1  0
 16 17  1  0
 17 18  2  0
 19 18  1  0
 20 19  2  0
 21 16  2  0
 21 20  1  0
 22 24  1  0
 22 11  1  0
 23 22  2  0
 25 24  1  0
 25 29  1  0
 25 26  1  6
 27 26  1  0
 28 27  2  0
 29 30  1  0
 31 27  1  0
 32 29  2  0
M  END
$$$$
