KWD.pdb
     RDKit          3D

 32 33  0  0  1  0  0  0  0  0999 V2000
   28.3842  -19.0737  -14.2083 N   0  0  0  0  0  0  0  0  0  0  0  0
   27.1094  -19.2574  -14.7997 C   0  0  1  0  0  0  0  0  0  0  0  0
   27.1823  -19.6606  -16.2681 C   0  0  0  0  0  0  0  0  0  0  0  0
   28.5845  -19.4256  -16.7006 C   0  0  0  0  0  0  0  0  0  0  0  0
   29.2164  -20.4195  -17.5923 C   0  0  0  0  0  0  0  0  0  0  0  0
   28.5511  -20.4950  -18.9271 C   0  0  0  0  0  0  0  0  0  0  0  0
   29.2424  -21.3611  -19.8334 N   0  0  0  0  0  0  0  0  0  0  0  0
   26.3065  -20.1968  -14.0009 C   0  0  0  0  0  0  0  0  0  0  0  0
   25.7947  -21.2539  -14.4566 O   0  0  0  0  0  0  0  0  0  0  0  0
   26.0697  -19.9286  -12.6164 N   0  0  0  0  0  0  0  0  0  0  0  0
   25.2045  -20.7526  -11.8419 C   0  0  1  0  0  0  0  0  0  0  0  0
   25.4685  -20.4151  -10.3639 C   0  0  0  0  0  0  0  0  0  0  0  0
   26.8528  -20.6898   -9.9824 C   0  0  0  0  0  0  0  0  0  0  0  0
   27.7979  -21.3931  -10.6834 C   0  0  0  0  0  0  0  0  0  0  0  0
   28.9623  -21.4252   -9.9908 N   0  0  0  0  0  0  0  0  0  0  0  0
   28.7636  -20.7472   -8.8544 C   0  0  0  0  0  0  0  0  0  0  0  0
   29.6269  -20.4866   -7.8118 C   0  0  0  0  0  0  0  0  0  0  0  0
   29.2204  -19.7570   -6.7156 C   0  0  0  0  0  0  0  0  0  0  0  0
   27.9258  -19.2891   -6.6796 C   0  0  0  0  0  0  0  0  0  0  0  0
   27.0701  -19.5507   -7.7188 C   0  0  0  0  0  0  0  0  0  0  0  0
   27.4639  -20.2791   -8.8213 C   0  0  0  0  0  0  0  0  0  0  0  0
   23.7668  -20.5168  -12.0510 C   0  0  0  0  0  0  0  0  0  0  0  0
   23.3022  -19.3799  -11.8617 O   0  0  0  0  0  0  0  0  0  0  0  0
   22.9388  -21.5711  -12.4589 N   0  0  0  0  0  0  0  0  0  0  0  0
   21.5392  -21.2564  -12.8277 C   0  0  1  0  0  0  0  0  0  0  0  0
   21.1231  -22.1117  -13.9850 C   0  0  0  0  0  0  0  0  0  0  0  0
   21.5017  -21.4884  -15.2509 C   0  0  0  0  0  0  0  0  0  0  0  0
   21.8638  -20.3039  -15.3112 O   0  0  0  0  0  0  0  0  0  0  0  0
   20.7519  -21.5891  -11.5905 C   0  0  0  0  0  0  0  0  0  0  0  0
   19.8548  -20.7317  -11.0094 O   0  0  0  0  0  0  0  0  0  0  0  0
   21.4579  -22.2336  -16.4186 O   0  0  0  0  0  0  0  0  0  0  0  0
   20.9001  -22.7107  -11.0281 O   0  0  0  0  0  0  0  0  0  0  0  0
  2  3  1  0
  2  1  1  1
  4  3  1  0
  5  4  1  0
  5  6  1  0
  7  6  1  0
  8  9  2  0
  8  2  1  0
 10  8  1  0
 11 10  1  0
 12 13  1  0
 11 12  1  1
 13 21  1  0
 14 13  2  0
 14 15  1  0
 15 16  1  0
 16 17  1  0
 17 18  2  0
 19 18  1  0
 20 19  2  0
 21 16  2  0
 21 20  1  0
 22 24  1  0
 22 11  1  0
 23 22  2  0
 25 24  1  0
 25 29  1  0
 25 26  1  6
 27 26  1  0
 28 27  2  0
 29 30  1  0
 31 27  1  0
 32 29  2  0
M  END
$$$$
