KWD.pdb
     RDKit          3D

 32 33  0  0  1  0  0  0  0  0999 V2000
   28.4208  -20.0352  -16.5301 N   0  0  0  0  0  0  0  0  0  0  0  0
   27.2576  -20.7510  -16.9086 C   0  0  1  0  0  0  0  0  0  0  0  0
   27.5504  -21.9207  -17.8412 C   0  0  0  0  0  0  0  0  0  0  0  0
   29.0189  -21.9207  -18.0692 C   0  0  0  0  0  0  0  0  0  0  0  0
   29.8907  -22.4636  -17.0073 C   0  0  0  0  0  0  0  0  0  0  0  0
   30.7824  -23.5547  -17.5018 C   0  0  0  0  0  0  0  0  0  0  0  0
   31.7839  -23.9168  -16.5451 N   0  0  0  0  0  0  0  0  0  0  0  0
   26.5007  -21.1626  -15.7158 C   0  0  0  0  0  0  0  0  0  0  0  0
   25.4938  -21.9193  -15.7439 O   0  0  0  0  0  0  0  0  0  0  0  0
   26.9017  -20.6961  -14.4249 N   0  0  0  0  0  0  0  0  0  0  0  0
   26.1283  -20.9804  -13.2636 C   0  0  1  0  0  0  0  0  0  0  0  0
   26.8703  -20.3581  -12.0676 C   0  0  0  0  0  0  0  0  0  0  0  0
   26.2112  -20.6654  -10.7993 C   0  0  0  0  0  0  0  0  0  0  0  0
   25.1945  -21.5562  -10.5704 C   0  0  0  0  0  0  0  0  0  0  0  0
   24.8588  -21.5513   -9.2575 N   0  0  0  0  0  0  0  0  0  0  0  0
   25.6549  -20.6634   -8.6505 C   0  0  0  0  0  0  0  0  0  0  0  0
   25.7184  -20.2852   -7.3265 C   0  0  0  0  0  0  0  0  0  0  0  0
   26.6246  -19.3394   -6.8982 C   0  0  0  0  0  0  0  0  0  0  0  0
   27.4728  -18.7740   -7.8240 C   0  0  0  0  0  0  0  0  0  0  0  0
   27.4064  -19.1529   -9.1402 C   0  0  0  0  0  0  0  0  0  0  0  0
   26.5046  -20.0979   -9.5819 C   0  0  0  0  0  0  0  0  0  0  0  0
   24.7831  -20.3833  -13.2488 C   0  0  0  0  0  0  0  0  0  0  0  0
   24.6595  -19.1565  -13.4040 O   0  0  0  0  0  0  0  0  0  0  0  0
   23.6595  -21.1991  -13.0603 N   0  0  0  0  0  0  0  0  0  0  0  0
   22.3203  -20.5721  -13.1438 C   0  0  1  0  0  0  0  0  0  0  0  0
   21.3284  -21.5770  -13.6443 C   0  0  0  0  0  0  0  0  0  0  0  0
   19.9997  -20.9802  -13.7566 C   0  0  0  0  0  0  0  0  0  0  0  0
   19.6577  -20.0152  -13.0569 O   0  0  0  0  0  0  0  0  0  0  0  0
   22.0191  -20.1642  -11.7282 C   0  0  0  0  0  0  0  0  0  0  0  0
   21.7302  -18.8777  -11.3550 O   0  0  0  0  0  0  0  0  0  0  0  0
   19.0926  -21.5002  -14.6663 O   0  0  0  0  0  0  0  0  0  0  0  0
   22.0243  -21.0275  -10.8056 O   0  0  0  0  0  0  0  0  0  0  0  0
  2  3  1  0
  2  1  1  1
  4  3  1  0
  5  4  1  0
  5  6  1  0
  7  6  1  0
  8  9  2  0
  8  2  1  0
 10  8  1  0
 11 10  1  0
 12 13  1  0
 11 12  1  1
 13 21  1  0
 14 13  2  0
 14 15  1  0
 15 16  1  0
 16 17  1  0
 17 18  2  0
 19 18  1  0
 20 19  2  0
 21 16  2  0
 21 20  1  0
 22 24  1  0
 22 11  1  0
 23 22  2  0
 25 24  1  0
 25 29  1  0
 25 26  1  1
 27 26  1  0
 28 27  2  0
 29 30  1  0
 31 27  1  0
 32 29  2  0
M  END
$$$$
