KWD.pdb
     RDKit          3D

 32 33  0  0  1  0  0  0  0  0999 V2000
   27.9734  -19.5383  -13.7029 N   0  0  0  0  0  0  0  0  0  0  0  0
   27.3401  -20.7667  -14.0168 C   0  0  1  0  0  0  0  0  0  0  0  0
   28.3172  -21.8473  -14.4659 C   0  0  0  0  0  0  0  0  0  0  0  0
   28.3850  -21.7648  -15.9481 C   0  0  0  0  0  0  0  0  0  0  0  0
   29.2805  -20.7567  -16.5515 C   0  0  0  0  0  0  0  0  0  0  0  0
   29.2416  -20.7776  -18.0442 C   0  0  0  0  0  0  0  0  0  0  0  0
   29.9903  -19.7043  -18.6247 N   0  0  0  0  0  0  0  0  0  0  0  0
   26.4959  -21.2073  -12.8951 C   0  0  0  0  0  0  0  0  0  0  0  0
   25.8111  -22.2647  -12.8986 O   0  0  0  0  0  0  0  0  0  0  0  0
   26.4214  -20.4130  -11.7084 N   0  0  0  0  0  0  0  0  0  0  0  0
   25.5095  -20.7317  -10.6622 C   0  0  1  0  0  0  0  0  0  0  0  0
   25.9889  -19.9828   -9.4061 C   0  0  0  0  0  0  0  0  0  0  0  0
   27.2442  -20.5292   -8.8935 C   0  0  0  0  0  0  0  0  0  0  0  0
   28.0770  -21.4378   -9.4938 C   0  0  0  0  0  0  0  0  0  0  0  0
   29.1423  -21.6908   -8.6952 N   0  0  0  0  0  0  0  0  0  0  0  0
   28.9920  -20.9494   -7.5914 C   0  0  0  0  0  0  0  0  0  0  0  0
   29.7953  -20.8417   -6.4763 C   0  0  0  0  0  0  0  0  0  0  0  0
   29.4574  -20.0077   -5.4326 C   0  0  0  0  0  0  0  0  0  0  0  0
   28.2934  -19.2776   -5.5238 C   0  0  0  0  0  0  0  0  0  0  0  0
   27.4970  -19.3877   -6.6348 C   0  0  0  0  0  0  0  0  0  0  0  0
   27.8234  -20.2182   -7.6860 C   0  0  0  0  0  0  0  0  0  0  0  0
   24.1247  -20.2852  -10.8847 C   0  0  0  0  0  0  0  0  0  0  0  0
   23.9174  -19.2321  -11.5109 O   0  0  0  0  0  0  0  0  0  0  0  0
   23.0579  -21.0475  -10.3903 N   0  0  0  0  0  0  0  0  0  0  0  0
   21.7505  -20.9468  -11.0791 C   0  0  1  0  0  0  0  0  0  0  0  0
   21.7392  -21.8614  -12.2655 C   0  0  0  0  0  0  0  0  0  0  0  0
   20.8938  -21.3203  -13.3272 C   0  0  0  0  0  0  0  0  0  0  0  0
   20.4317  -20.1711  -13.2700 O   0  0  0  0  0  0  0  0  0  0  0  0
   20.7557  -21.3856  -10.0404 C   0  0  0  0  0  0  0  0  0  0  0  0
   19.4438  -20.9899  -10.0322 O   0  0  0  0  0  0  0  0  0  0  0  0
   20.5964  -22.1056  -14.4297 O   0  0  0  0  0  0  0  0  0  0  0  0
   21.1130  -22.1607   -9.1088 O   0  0  0  0  0  0  0  0  0  0  0  0
  2  3  1  0
  2  1  1  1
  4  3  1  0
  5  4  1  0
  5  6  1  0
  7  6  1  0
  8  9  2  0
  8  2  1  0
 10  8  1  0
 11 10  1  0
 12 13  1  0
 11 12  1  1
 13 21  1  0
 14 13  2  0
 14 15  1  0
 15 16  1  0
 16 17  1  0
 17 18  2  0
 19 18  1  0
 20 19  2  0
 21 16  2  0
 21 20  1  0
 22 24  1  0
 22 11  1  0
 23 22  2  0
 25 24  1  0
 25 29  1  0
 25 26  1  6
 27 26  1  0
 28 27  2  0
 29 30  1  0
 31 27  1  0
 32 29  2  0
M  END
$$$$
