KWD.pdb
     RDKit          3D

 32 33  0  0  1  0  0  0  0  0999 V2000
   29.5602  -21.8103  -18.4036 N   0  0  0  0  0  0  0  0  0  0  0  0
   28.3344  -22.5217  -18.4083 C   0  0  1  0  0  0  0  0  0  0  0  0
   28.5103  -24.0174  -18.6447 C   0  0  0  0  0  0  0  0  0  0  0  0
   29.0581  -24.1655  -20.0182 C   0  0  0  0  0  0  0  0  0  0  0  0
   28.2279  -23.7146  -21.1538 C   0  0  0  0  0  0  0  0  0  0  0  0
   28.7016  -24.2603  -22.4607 C   0  0  0  0  0  0  0  0  0  0  0  0
   27.8509  -23.8853  -23.5493 N   0  0  0  0  0  0  0  0  0  0  0  0
   27.5729  -22.2350  -17.1823 C   0  0  0  0  0  0  0  0  0  0  0  0
   26.5804  -22.9064  -16.7935 O   0  0  0  0  0  0  0  0  0  0  0  0
   27.9520  -21.1336  -16.3527 N   0  0  0  0  0  0  0  0  0  0  0  0
   27.1877  -20.7752  -15.2060 C   0  0  1  0  0  0  0  0  0  0  0  0
   27.9562  -19.6514  -14.4885 C   0  0  0  0  0  0  0  0  0  0  0  0
   27.2540  -19.1908  -13.2919 C   0  0  0  0  0  0  0  0  0  0  0  0
   27.1330  -17.9073  -12.8256 C   0  0  0  0  0  0  0  0  0  0  0  0
   26.4041  -17.8943  -11.6832 N   0  0  0  0  0  0  0  0  0  0  0  0
   26.0611  -19.1607  -11.4203 C   0  0  0  0  0  0  0  0  0  0  0  0
   25.3229  -19.6846  -10.3806 C   0  0  0  0  0  0  0  0  0  0  0  0
   25.0781  -21.0379  -10.2916 C   0  0  0  0  0  0  0  0  0  0  0  0
   25.5881  -21.8646  -11.2676 C   0  0  0  0  0  0  0  0  0  0  0  0
   26.3220  -21.3395  -12.3001 C   0  0  0  0  0  0  0  0  0  0  0  0
   26.5743  -19.9877  -12.4012 C   0  0  0  0  0  0  0  0  0  0  0  0
   25.8545  -20.2220  -15.4934 C   0  0  0  0  0  0  0  0  0  0  0  0
   25.7002  -19.4879  -16.4842 O   0  0  0  0  0  0  0  0  0  0  0  0
   24.7765  -20.5258  -14.6512 N   0  0  0  0  0  0  0  0  0  0  0  0
   23.4423  -19.9886  -15.0045 C   0  0  1  0  0  0  0  0  0  0  0  0
   22.8691  -20.7810  -16.1393 C   0  0  0  0  0  0  0  0  0  0  0  0
   21.5110  -20.3377  -16.4453 C   0  0  0  0  0  0  0  0  0  0  0  0
   21.2820  -19.2082  -16.9028 O   0  0  0  0  0  0  0  0  0  0  0  0
   22.6331  -20.1659  -13.7496 C   0  0  0  0  0  0  0  0  0  0  0  0
   22.7566  -21.2448  -12.9140 O   0  0  0  0  0  0  0  0  0  0  0  0
   20.4462  -21.1961  -16.2213 O   0  0  0  0  0  0  0  0  0  0  0  0
   21.7826  -19.2931  -13.4159 O   0  0  0  0  0  0  0  0  0  0  0  0
  2  3  1  0
  2  1  1  1
  4  3  1  0
  5  4  1  0
  5  6  1  0
  7  6  1  0
  8  9  2  0
  8  2  1  0
 10  8  1  0
 11 10  1  0
 12 13  1  0
 11 12  1  6
 13 21  1  0
 14 13  2  0
 14 15  1  0
 15 16  1  0
 16 17  1  0
 17 18  2  0
 19 18  1  0
 20 19  2  0
 21 16  2  0
 21 20  1  0
 22 24  1  0
 22 11  1  0
 23 22  2  0
 25 24  1  0
 25 29  1  0
 25 26  1  6
 27 26  1  0
 28 27  2  0
 29 30  1  0
 31 27  1  0
 32 29  2  0
M  END
$$$$
