KWD.pdb
     RDKit          3D

 32 33  0  0  1  0  0  0  0  0999 V2000
   28.2237  -21.2557  -16.7050 N   0  0  0  0  0  0  0  0  0  0  0  0
   27.0958  -22.1117  -16.7650 C   0  0  1  0  0  0  0  0  0  0  0  0
   27.4333  -23.5143  -17.2579 C   0  0  0  0  0  0  0  0  0  0  0  0
   27.8986  -23.3673  -18.6615 C   0  0  0  0  0  0  0  0  0  0  0  0
   29.3397  -23.1474  -18.9004 C   0  0  0  0  0  0  0  0  0  0  0  0
   29.6616  -22.9895  -20.3501 C   0  0  0  0  0  0  0  0  0  0  0  0
   31.0683  -22.8685  -20.5868 N   0  0  0  0  0  0  0  0  0  0  0  0
   26.3968  -22.1270  -15.4703 C   0  0  0  0  0  0  0  0  0  0  0  0
   25.3879  -22.8388  -15.2201 O   0  0  0  0  0  0  0  0  0  0  0  0
   26.8613  -21.2960  -14.4033 N   0  0  0  0  0  0  0  0  0  0  0  0
   26.1923  -21.2644  -13.1467 C   0  0  1  0  0  0  0  0  0  0  0  0
   27.0369  -20.3812  -12.2113 C   0  0  0  0  0  0  0  0  0  0  0  0
   26.4415  -20.2742  -10.8804 C   0  0  0  0  0  0  0  0  0  0  0  0
   25.1112  -20.2476  -10.5504 C   0  0  0  0  0  0  0  0  0  0  0  0
   24.9673  -20.1393   -9.2072 N   0  0  0  0  0  0  0  0  0  0  0  0
   26.1971  -20.0968   -8.6814 C   0  0  0  0  0  0  0  0  0  0  0  0
   26.5992  -19.9914   -7.3671 C   0  0  0  0  0  0  0  0  0  0  0  0
   27.9353  -19.9651   -7.0306 C   0  0  0  0  0  0  0  0  0  0  0  0
   28.8697  -20.0465   -8.0389 C   0  0  0  0  0  0  0  0  0  0  0  0
   28.4655  -20.1511   -9.3452 C   0  0  0  0  0  0  0  0  0  0  0  0
   27.1322  -20.1786   -9.6955 C   0  0  0  0  0  0  0  0  0  0  0  0
   24.8542  -20.6516  -13.1681 C   0  0  0  0  0  0  0  0  0  0  0  0
   24.7465  -19.4310  -13.3746 O   0  0  0  0  0  0  0  0  0  0  0  0
   23.7195  -21.4459  -12.9559 N   0  0  0  0  0  0  0  0  0  0  0  0
   22.3885  -20.8318  -13.1682 C   0  0  1  0  0  0  0  0  0  0  0  0
   21.5974  -21.6717  -14.1237 C   0  0  0  0  0  0  0  0  0  0  0  0
   21.8827  -21.2907  -15.5050 C   0  0  0  0  0  0  0  0  0  0  0  0
   22.1101  -20.1139  -15.8225 O   0  0  0  0  0  0  0  0  0  0  0  0
   21.7660  -20.8269  -11.7993 C   0  0  0  0  0  0  0  0  0  0  0  0
   21.1054  -19.7490  -11.2708 O   0  0  0  0  0  0  0  0  0  0  0  0
   21.9015  -22.2641  -16.4914 O   0  0  0  0  0  0  0  0  0  0  0  0
   21.8368  -21.8546  -11.0678 O   0  0  0  0  0  0  0  0  0  0  0  0
  2  3  1  0
  2  1  1  1
  4  3  1  0
  5  4  1  0
  5  6  1  0
  7  6  1  0
  8  9  2  0
  8  2  1  0
 10  8  1  0
 11 10  1  0
 12 13  1  0
 11 12  1  1
 13 21  1  0
 14 13  2  0
 14 15  1  0
 15 16  1  0
 16 17  1  0
 17 18  2  0
 19 18  1  0
 20 19  2  0
 21 16  2  0
 21 20  1  0
 22 24  1  0
 22 11  1  0
 23 22  2  0
 25 24  1  0
 25 29  1  0
 25 26  1  6
 27 26  1  0
 28 27  2  0
 29 30  1  0
 31 27  1  0
 32 29  2  0
M  END
$$$$
