KWD.pdb
     RDKit          3D

 32 33  0  0  1  0  0  0  0  0999 V2000
   28.0705  -22.9531  -16.1587 N   0  0  0  0  0  0  0  0  0  0  0  0
   27.4361  -21.7109  -15.9074 C   0  0  1  0  0  0  0  0  0  0  0  0
   26.6181  -21.2054  -17.0904 C   0  0  0  0  0  0  0  0  0  0  0  0
   27.5631  -21.0705  -18.2294 C   0  0  0  0  0  0  0  0  0  0  0  0
   28.6377  -20.0617  -18.1298 C   0  0  0  0  0  0  0  0  0  0  0  0
   29.3489  -19.8539  -19.4263 C   0  0  0  0  0  0  0  0  0  0  0  0
   30.4655  -18.9669  -19.3003 N   0  0  0  0  0  0  0  0  0  0  0  0
   26.6436  -21.7833  -14.6698 C   0  0  0  0  0  0  0  0  0  0  0  0
   25.4359  -22.1388  -14.6236 O   0  0  0  0  0  0  0  0  0  0  0  0
   27.2462  -21.4368  -13.4201 N   0  0  0  0  0  0  0  0  0  0  0  0
   26.4731  -21.3441  -12.2278 C   0  0  1  0  0  0  0  0  0  0  0  0
   27.3854  -20.7354  -11.1483 C   0  0  0  0  0  0  0  0  0  0  0  0
   26.6929  -20.5923   -9.8688 C   0  0  0  0  0  0  0  0  0  0  0  0
   25.3437  -20.6347   -9.6298 C   0  0  0  0  0  0  0  0  0  0  0  0
   25.0997  -20.4599   -8.3083 N   0  0  0  0  0  0  0  0  0  0  0  0
   26.2847  -20.3064   -7.7059 C   0  0  0  0  0  0  0  0  0  0  0  0
   26.5865  -20.1002   -6.3767 C   0  0  0  0  0  0  0  0  0  0  0  0
   27.8916  -19.9667   -5.9548 C   0  0  0  0  0  0  0  0  0  0  0  0
   28.8974  -20.0435   -6.8921 C   0  0  0  0  0  0  0  0  0  0  0  0
   28.5930  -20.2487   -8.2134 C   0  0  0  0  0  0  0  0  0  0  0  0
   27.2917  -20.3840   -8.6488 C   0  0  0  0  0  0  0  0  0  0  0  0
   25.3061  -20.4510  -12.3094 C   0  0  0  0  0  0  0  0  0  0  0  0
   25.4664  -19.2699  -12.6610 O   0  0  0  0  0  0  0  0  0  0  0  0
   24.0313  -20.9376  -11.9909 N   0  0  0  0  0  0  0  0  0  0  0  0
   22.8592  -20.0982  -12.3304 C   0  0  1  0  0  0  0  0  0  0  0  0
   22.7059  -20.0330  -13.8192 C   0  0  0  0  0  0  0  0  0  0  0  0
   21.4486  -19.3828  -14.1813 C   0  0  0  0  0  0  0  0  0  0  0  0
   20.8242  -18.6773  -13.3751 O   0  0  0  0  0  0  0  0  0  0  0  0
   21.7007  -20.8131  -11.6918 C   0  0  0  0  0  0  0  0  0  0  0  0
   20.5829  -20.1755  -11.2209 O   0  0  0  0  0  0  0  0  0  0  0  0
   20.9344  -19.5542  -15.4569 O   0  0  0  0  0  0  0  0  0  0  0  0
   21.7242  -22.0699  -11.5648 O   0  0  0  0  0  0  0  0  0  0  0  0
  2  3  1  0
  2  1  1  6
  4  3  1  0
  5  4  1  0
  5  6  1  0
  7  6  1  0
  8  9  2  0
  8  2  1  0
 10  8  1  0
 11 10  1  0
 12 13  1  0
 11 12  1  1
 13 21  1  0
 14 13  2  0
 14 15  1  0
 15 16  1  0
 16 17  1  0
 17 18  2  0
 19 18  1  0
 20 19  2  0
 21 16  2  0
 21 20  1  0
 22 24  1  0
 22 11  1  0
 23 22  2  0
 25 24  1  0
 25 29  1  0
 25 26  1  6
 27 26  1  0
 28 27  2  0
 29 30  1  0
 31 27  1  0
 32 29  2  0
M  END
$$$$
