KWD.pdb
     RDKit          3D

 32 33  0  0  1  0  0  0  0  0999 V2000
   29.4771  -20.9617  -11.7937 N   0  0  0  0  0  0  0  0  0  0  0  0
   28.1033  -20.7216  -12.0463 C   0  0  1  0  0  0  0  0  0  0  0  0
   27.6344  -21.2759  -13.3868 C   0  0  0  0  0  0  0  0  0  0  0  0
   28.1930  -20.3796  -14.4322 C   0  0  0  0  0  0  0  0  0  0  0  0
   27.2513  -19.5854  -15.2476 C   0  0  0  0  0  0  0  0  0  0  0  0
   27.9477  -18.7259  -16.2508 C   0  0  0  0  0  0  0  0  0  0  0  0
   27.5109  -18.9858  -17.5891 N   0  0  0  0  0  0  0  0  0  0  0  0
   27.2853  -21.2067  -10.9235 C   0  0  0  0  0  0  0  0  0  0  0  0
   27.1488  -22.4222  -10.6219 O   0  0  0  0  0  0  0  0  0  0  0  0
   26.5857  -20.2711  -10.0989 N   0  0  0  0  0  0  0  0  0  0  0  0
   25.7079  -20.7083   -9.0665 C   0  0  1  0  0  0  0  0  0  0  0  0
   25.6320  -19.5719   -8.0316 C   0  0  0  0  0  0  0  0  0  0  0  0
   26.9234  -19.3354   -7.3883 C   0  0  0  0  0  0  0  0  0  0  0  0
   27.9066  -18.4579   -7.7661 C   0  0  0  0  0  0  0  0  0  0  0  0
   28.9538  -18.5359   -6.9095 N   0  0  0  0  0  0  0  0  0  0  0  0
   28.6429  -19.4570   -5.9900 C   0  0  0  0  0  0  0  0  0  0  0  0
   29.3630  -19.9086   -4.9048 C   0  0  0  0  0  0  0  0  0  0  0  0
   28.8558  -20.8777   -4.0664 C   0  0  0  0  0  0  0  0  0  0  0  0
   27.6064  -21.3912   -4.3340 C   0  0  0  0  0  0  0  0  0  0  0  0
   26.8933  -20.9393   -5.4146 C   0  0  0  0  0  0  0  0  0  0  0  0
   27.3890  -19.9703   -6.2612 C   0  0  0  0  0  0  0  0  0  0  0  0
   24.3194  -20.9511   -9.4901 C   0  0  0  0  0  0  0  0  0  0  0  0
   24.0261  -20.8649  -10.6945 O   0  0  0  0  0  0  0  0  0  0  0  0
   23.3453  -21.2750   -8.5362 N   0  0  0  0  0  0  0  0  0  0  0  0
   22.0358  -21.7722   -9.0175 C   0  0  1  0  0  0  0  0  0  0  0  0
   21.3538  -22.5281   -7.9185 C   0  0  0  0  0  0  0  0  0  0  0  0
   20.0328  -22.9825   -8.3462 C   0  0  0  0  0  0  0  0  0  0  0  0
   19.6978  -22.9794   -9.5401 O   0  0  0  0  0  0  0  0  0  0  0  0
   21.2791  -20.5225   -9.3734 C   0  0  0  0  0  0  0  0  0  0  0  0
   20.1046  -20.5225  -10.0793 O   0  0  0  0  0  0  0  0  0  0  0  0
   19.1254  -23.4301   -7.3992 O   0  0  0  0  0  0  0  0  0  0  0  0
   21.7203  -19.3926   -9.0198 O   0  0  0  0  0  0  0  0  0  0  0  0
  2  3  1  0
  2  1  1  1
  4  3  1  0
  5  4  1  0
  5  6  1  0
  7  6  1  0
  8  9  2  0
  8  2  1  0
 10  8  1  0
 11 10  1  0
 12 13  1  0
 11 12  1  1
 13 21  1  0
 14 13  2  0
 14 15  1  0
 15 16  1  0
 16 17  1  0
 17 18  2  0
 19 18  1  0
 20 19  2  0
 21 16  2  0
 21 20  1  0
 22 24  1  0
 22 11  1  0
 23 22  2  0
 25 24  1  0
 25 29  1  0
 25 26  1  1
 27 26  1  0
 28 27  2  0
 29 30  1  0
 31 27  1  0
 32 29  2  0
M  END
$$$$
