KWD.pdb
     RDKit          3D

 32 33  0  0  1  0  0  0  0  0999 V2000
   28.0329  -21.9444  -15.1262 N   0  0  0  0  0  0  0  0  0  0  0  0
   27.5478  -20.7828  -14.4751 C   0  0  1  0  0  0  0  0  0  0  0  0
   26.6763  -19.9120  -15.3732 C   0  0  0  0  0  0  0  0  0  0  0  0
   27.5646  -19.3887  -16.4434 C   0  0  0  0  0  0  0  0  0  0  0  0
   28.2762  -18.1170  -16.2010 C   0  0  0  0  0  0  0  0  0  0  0  0
   29.1250  -17.7069  -17.3592 C   0  0  0  0  0  0  0  0  0  0  0  0
   29.8720  -16.5149  -17.0933 N   0  0  0  0  0  0  0  0  0  0  0  0
   26.8703  -21.1459  -13.2204 C   0  0  0  0  0  0  0  0  0  0  0  0
   25.9313  -21.9820  -13.1405 O   0  0  0  0  0  0  0  0  0  0  0  0
   27.2742  -20.5335  -11.9930 N   0  0  0  0  0  0  0  0  0  0  0  0
   26.5197  -20.7066  -10.7978 C   0  0  1  0  0  0  0  0  0  0  0  0
   27.2824  -19.9786   -9.6769 C   0  0  0  0  0  0  0  0  0  0  0  0
   26.7662  -20.3257   -8.3539 C   0  0  0  0  0  0  0  0  0  0  0  0
   25.5794  -20.9384   -8.0449 C   0  0  0  0  0  0  0  0  0  0  0  0
   25.4674  -21.0850   -6.7023 N   0  0  0  0  0  0  0  0  0  0  0  0
   26.5747  -20.5694   -6.1560 C   0  0  0  0  0  0  0  0  0  0  0  0
   26.9514  -20.4716   -4.8336 C   0  0  0  0  0  0  0  0  0  0  0  0
   28.1520  -19.8979   -4.4752 C   0  0  0  0  0  0  0  0  0  0  0  0
   28.9759  -19.4200   -5.4697 C   0  0  0  0  0  0  0  0  0  0  0  0
   28.5975  -19.5192   -6.7840 C   0  0  0  0  0  0  0  0  0  0  0  0
   27.3992  -20.0908   -7.1562 C   0  0  0  0  0  0  0  0  0  0  0  0
   25.1759  -20.1064  -10.8165 C   0  0  0  0  0  0  0  0  0  0  0  0
   25.0443  -18.9179  -11.1546 O   0  0  0  0  0  0  0  0  0  0  0  0
   24.0627  -20.8763  -10.4540 N   0  0  0  0  0  0  0  0  0  0  0  0
   22.7322  -20.4561  -10.9509 C   0  0  1  0  0  0  0  0  0  0  0  0
   22.4418  -21.1478  -12.2476 C   0  0  0  0  0  0  0  0  0  0  0  0
   22.6934  -20.2557  -13.3770 C   0  0  0  0  0  0  0  0  0  0  0  0
   23.0734  -19.0870  -13.2119 O   0  0  0  0  0  0  0  0  0  0  0  0
   21.7831  -20.8968   -9.8711 C   0  0  0  0  0  0  0  0  0  0  0  0
   20.7205  -20.1452   -9.4425 O   0  0  0  0  0  0  0  0  0  0  0  0
   22.5050  -20.7206  -14.6689 O   0  0  0  0  0  0  0  0  0  0  0  0
   21.9432  -22.0149   -9.3048 O   0  0  0  0  0  0  0  0  0  0  0  0
  2  3  1  0
  2  1  1  6
  4  3  1  0
  5  4  1  0
  5  6  1  0
  7  6  1  0
  8  9  2  0
  8  2  1  0
 10  8  1  0
 11 10  1  0
 12 13  1  0
 11 12  1  1
 13 21  1  0
 14 13  2  0
 14 15  1  0
 15 16  1  0
 16 17  1  0
 17 18  2  0
 19 18  1  0
 20 19  2  0
 21 16  2  0
 21 20  1  0
 22 24  1  0
 22 11  1  0
 23 22  2  0
 25 24  1  0
 25 29  1  0
 25 26  1  6
 27 26  1  0
 28 27  2  0
 29 30  1  0
 31 27  1  0
 32 29  2  0
M  END
$$$$
