KEK.pdb
     RDKit          3D

 28 27  0  0  1  0  0  0  0  0999 V2000
    6.8383  -16.4274   20.4964 N   0  0  0  0  0  0  0  0  0  0  0  0
    7.9449  -15.7147   20.9885 C   0  0  1  0  0  0  0  0  0  0  0  0
    7.7342  -14.2060   21.0626 C   0  0  0  0  0  0  0  0  0  0  0  0
    7.4992  -13.6080   19.7290 C   0  0  0  0  0  0  0  0  0  0  0  0
    8.5365  -13.8398   18.6889 C   0  0  0  0  0  0  0  0  0  0  0  0
    8.1855  -13.2381   17.3492 C   0  0  0  0  0  0  0  0  0  0  0  0
    9.2579  -13.5263   16.4083 N   0  0  0  0  0  0  0  0  0  0  0  0
    8.5205  -16.2348   22.2309 C   0  0  0  0  0  0  0  0  0  0  0  0
    7.7011  -16.5746   23.1538 O   0  0  0  0  0  0  0  0  0  0  0  0
    9.8669  -16.3953   22.5085 N   0  0  0  0  0  0  0  0  0  0  0  0
   10.3611  -17.0130   23.7774 C   0  0  1  0  0  0  0  0  0  0  0  0
   11.6656  -17.6120   23.4060 C   0  0  0  0  0  0  0  0  0  0  0  0
   12.4870  -18.2343   24.4665 C   0  0  0  0  0  0  0  0  0  0  0  0
   13.7189  -18.8156   23.8919 C   0  0  0  0  0  0  0  0  0  0  0  0
   14.7846  -18.7282   24.5943 O   0  0  0  0  0  0  0  0  0  0  0  0
   10.2968  -16.0105   24.8187 C   0  0  0  0  0  0  0  0  0  0  0  0
   10.8091  -14.8511   24.6341 O   0  0  0  0  0  0  0  0  0  0  0  0
   13.7745  -19.4363   22.6578 O   0  0  0  0  0  0  0  0  0  0  0  0
    9.6853  -16.2307   26.0724 N   0  0  0  0  0  0  0  0  0  0  0  0
    9.6792  -15.2112   27.1004 C   0  0  1  0  0  0  0  0  0  0  0  0
    8.2814  -14.6481   27.1474 C   0  0  0  0  0  0  0  0  0  0  0  0
    8.2331  -13.1615   27.0083 C   0  0  0  0  0  0  0  0  0  0  0  0
    6.8535  -12.5881   27.0083 C   0  0  0  0  0  0  0  0  0  0  0  0
    6.8467  -11.0828   26.8484 C   0  0  0  0  0  0  0  0  0  0  0  0
    5.4449  -10.6490   26.9054 N   0  0  0  0  0  0  0  0  0  0  0  0
   10.1079  -15.7841   28.3835 C   0  0  0  0  0  0  0  0  0  0  0  0
   10.3474  -14.9353   29.4509 O   0  0  0  0  0  0  0  0  0  0  0  0
   10.2760  -17.0123   28.5853 O   0  0  0  0  0  0  0  0  0  0  0  0
  2  3  1  0
  2  1  1  1
  3  4  1  0
  5  4  1  0
  5  6  1  0
  7  6  1  0
  8  2  1  0
  8  9  2  0
 10  8  1  0
 11 10  1  0
 11 12  1  6
 13 12  1  0
 13 14  1  0
 14 15  2  0
 16 17  2  0
 16 11  1  0
 18 14  1  0
 19 16  1  0
 20 19  1  0
 20 21  1  1
 22 23  1  0
 22 21  1  0
 23 24  1  0
 24 25  1  0
 26 20  1  0
 27 26  1  0
 28 26  2  0
M  END
$$$$
