KEK.pdb
     RDKit          3D

 28 27  0  0  1  0  0  0  0  0999 V2000
    8.5753  -17.5931   18.7774 N   0  0  0  0  0  0  0  0  0  0  0  0
    9.6458  -16.7807   19.1881 C   0  0  1  0  0  0  0  0  0  0  0  0
    9.4413  -15.2936   18.9186 C   0  0  0  0  0  0  0  0  0  0  0  0
    8.3725  -14.7141   19.7632 C   0  0  0  0  0  0  0  0  0  0  0  0
    8.1397  -13.2494   19.6533 C   0  0  0  0  0  0  0  0  0  0  0  0
    7.0409  -12.7486   20.5598 C   0  0  0  0  0  0  0  0  0  0  0  0
    6.9096  -11.3091   20.3894 N   0  0  0  0  0  0  0  0  0  0  0  0
   10.1197  -17.0153   20.5541 C   0  0  0  0  0  0  0  0  0  0  0  0
    9.3586  -17.6978   21.3244 O   0  0  0  0  0  0  0  0  0  0  0  0
   11.3122  -16.5703   21.0978 N   0  0  0  0  0  0  0  0  0  0  0  0
   11.9489  -17.2182   22.2854 C   0  0  1  0  0  0  0  0  0  0  0  0
   13.3224  -16.6603   22.3108 C   0  0  0  0  0  0  0  0  0  0  0  0
   14.2334  -17.0700   23.4013 C   0  0  0  0  0  0  0  0  0  0  0  0
   15.5573  -16.4334   23.2354 C   0  0  0  0  0  0  0  0  0  0  0  0
   15.7774  -15.3674   23.9076 O   0  0  0  0  0  0  0  0  0  0  0  0
   11.0724  -17.0318   23.4213 C   0  0  0  0  0  0  0  0  0  0  0  0
   10.6987  -15.8559   23.7650 O   0  0  0  0  0  0  0  0  0  0  0  0
   16.5489  -16.9236   22.4061 O   0  0  0  0  0  0  0  0  0  0  0  0
   10.5822  -18.0978   24.2074 N   0  0  0  0  0  0  0  0  0  0  0  0
    9.8053  -17.8588   25.4056 C   0  0  1  0  0  0  0  0  0  0  0  0
    8.9453  -19.0787   25.6178 C   0  0  0  0  0  0  0  0  0  0  0  0
    8.1852  -19.0554   26.9037 C   0  0  0  0  0  0  0  0  0  0  0  0
    7.4520  -20.3211   27.2080 C   0  0  0  0  0  0  0  0  0  0  0  0
    6.5215  -20.1862   28.3944 C   0  0  0  0  0  0  0  0  0  0  0  0
    5.7222  -21.4163   28.4581 N   0  0  0  0  0  0  0  0  0  0  0  0
   10.6972  -17.5840   26.5402 C   0  0  0  0  0  0  0  0  0  0  0  0
   11.9226  -18.2257   26.6014 O   0  0  0  0  0  0  0  0  0  0  0  0
   10.4225  -16.7933   27.4766 O   0  0  0  0  0  0  0  0  0  0  0  0
  2  3  1  0
  2  1  1  1
  3  4  1  0
  5  4  1  0
  5  6  1  0
  7  6  1  0
  8  2  1  0
  8  9  2  0
 10  8  1  0
 11 10  1  0
 11 12  1  1
 13 12  1  0
 13 14  1  0
 14 15  2  0
 16 17  2  0
 16 11  1  0
 18 14  1  0
 19 16  1  0
 20 19  1  0
 20 21  1  1
 22 23  1  0
 22 21  1  0
 23 24  1  0
 24 25  1  0
 26 20  1  0
 27 26  1  0
 28 26  2  0
M  END
$$$$
