KEK.pdb
     RDKit          3D

 28 27  0  0  1  0  0  0  0  0999 V2000
    7.7997  -17.4422   19.1983 N   0  0  0  0  0  0  0  0  0  0  0  0
    9.0808  -17.0741   19.6431 C   0  0  1  0  0  0  0  0  0  0  0  0
    9.5235  -15.6854   19.1940 C   0  0  0  0  0  0  0  0  0  0  0  0
    8.6005  -14.6262   19.6604 C   0  0  0  0  0  0  0  0  0  0  0  0
    8.9778  -13.2185   19.3646 C   0  0  0  0  0  0  0  0  0  0  0  0
    7.9448  -12.2145   19.8172 C   0  0  0  0  0  0  0  0  0  0  0  0
    8.3914  -10.8798   19.4460 N   0  0  0  0  0  0  0  0  0  0  0  0
    9.3277  -17.2765   21.0726 C   0  0  0  0  0  0  0  0  0  0  0  0
    8.3100  -17.2464   21.8485 O   0  0  0  0  0  0  0  0  0  0  0  0
   10.5561  -17.4972   21.6710 N   0  0  0  0  0  0  0  0  0  0  0  0
   10.6981  -17.8388   23.1197 C   0  0  1  0  0  0  0  0  0  0  0  0
   12.0109  -18.5229   23.2047 C   0  0  0  0  0  0  0  0  0  0  0  0
   12.1359  -19.8876   22.6493 C   0  0  0  0  0  0  0  0  0  0  0  0
   13.0806  -20.6894   23.4556 C   0  0  0  0  0  0  0  0  0  0  0  0
   12.7344  -21.8893   23.7330 O   0  0  0  0  0  0  0  0  0  0  0  0
   10.4585  -16.6373   23.8892 C   0  0  0  0  0  0  0  0  0  0  0  0
   11.0673  -15.5489   23.5972 O   0  0  0  0  0  0  0  0  0  0  0  0
   14.2952  -20.2154   23.9155 O   0  0  0  0  0  0  0  0  0  0  0  0
    9.5658  -16.5798   24.9821 N   0  0  0  0  0  0  0  0  0  0  0  0
    9.4750  -15.4049   25.8233 C   0  0  1  0  0  0  0  0  0  0  0  0
    8.0665  -14.8834   25.6929 C   0  0  0  0  0  0  0  0  0  0  0  0
    7.7888  -13.6955   26.5551 C   0  0  0  0  0  0  0  0  0  0  0  0
    6.3883  -13.1832   26.4642 C   0  0  0  0  0  0  0  0  0  0  0  0
    6.1665  -11.9386   27.2970 C   0  0  0  0  0  0  0  0  0  0  0  0
    4.7670  -11.5364   27.1077 N   0  0  0  0  0  0  0  0  0  0  0  0
    9.8328  -15.7448   27.2071 C   0  0  0  0  0  0  0  0  0  0  0  0
   10.2917  -14.7441   28.0468 O   0  0  0  0  0  0  0  0  0  0  0  0
    9.7505  -16.9004   27.6923 O   0  0  0  0  0  0  0  0  0  0  0  0
  2  3  1  0
  2  1  1  1
  3  4  1  0
  5  4  1  0
  5  6  1  0
  7  6  1  0
  8  2  1  0
  8  9  2  0
 10  8  1  0
 11 10  1  0
 11 12  1  6
 13 12  1  0
 13 14  1  0
 14 15  2  0
 16 17  2  0
 16 11  1  0
 18 14  1  0
 19 16  1  0
 20 19  1  0
 20 21  1  1
 22 23  1  0
 22 21  1  0
 23 24  1  0
 24 25  1  0
 26 20  1  0
 27 26  1  0
 28 26  2  0
M  END
$$$$
