KEK.pdb
     RDKit          3D

 28 27  0  0  1  0  0  0  0  0999 V2000
    8.2691  -14.2153   17.4532 N   0  0  0  0  0  0  0  0  0  0  0  0
    9.2622  -13.5290   18.1724 C   0  0  1  0  0  0  0  0  0  0  0  0
    8.7253  -12.6528   19.2993 C   0  0  0  0  0  0  0  0  0  0  0  0
    7.5534  -13.2599   19.9697 C   0  0  0  0  0  0  0  0  0  0  0  0
    7.8211  -14.3281   20.9690 C   0  0  0  0  0  0  0  0  0  0  0  0
    6.5772  -14.8124   21.6750 C   0  0  0  0  0  0  0  0  0  0  0  0
    6.9289  -15.9358   22.5309 N   0  0  0  0  0  0  0  0  0  0  0  0
   10.3863  -14.3516   18.6254 C   0  0  0  0  0  0  0  0  0  0  0  0
   10.1023  -15.4169   19.2759 O   0  0  0  0  0  0  0  0  0  0  0  0
   11.7301  -14.0910   18.4205 N   0  0  0  0  0  0  0  0  0  0  0  0
   12.8109  -15.0142   18.8845 C   0  0  1  0  0  0  0  0  0  0  0  0
   13.9899  -14.6315   18.0708 C   0  0  0  0  0  0  0  0  0  0  0  0
   15.3130  -15.1794   18.4393 C   0  0  0  0  0  0  0  0  0  0  0  0
   16.3550  -14.6771   17.5188 C   0  0  0  0  0  0  0  0  0  0  0  0
   17.0075  -15.5497   16.8484 O   0  0  0  0  0  0  0  0  0  0  0  0
   12.8746  -14.9402   20.3280 C   0  0  0  0  0  0  0  0  0  0  0  0
   12.8303  -13.8057   20.9210 O   0  0  0  0  0  0  0  0  0  0  0  0
   16.6531  -13.3376   17.3505 O   0  0  0  0  0  0  0  0  0  0  0  0
   12.9870  -16.0758   21.1599 N   0  0  0  0  0  0  0  0  0  0  0  0
   13.1304  -15.9507   22.5952 C   0  0  1  0  0  0  0  0  0  0  0  0
   12.2508  -17.0068   23.2148 C   0  0  0  0  0  0  0  0  0  0  0  0
   12.4399  -17.1494   24.6897 C   0  0  0  0  0  0  0  0  0  0  0  0
   11.7513  -18.3333   25.2866 C   0  0  0  0  0  0  0  0  0  0  0  0
   11.8192  -18.3473   26.7989 C   0  0  0  0  0  0  0  0  0  0  0  0
   11.0228  -19.4932   27.2560 N   0  0  0  0  0  0  0  0  0  0  0  0
   14.5427  -16.0875   22.9763 C   0  0  0  0  0  0  0  0  0  0  0  0
   14.9576  -15.5965   24.2026 O   0  0  0  0  0  0  0  0  0  0  0  0
   15.4174  -16.6286   22.2554 O   0  0  0  0  0  0  0  0  0  0  0  0
  2  3  1  0
  2  1  1  1
  3  4  1  0
  5  4  1  0
  5  6  1  0
  7  6  1  0
  8  2  1  0
  8  9  2  0
 10  8  1  0
 11 10  1  0
 11 12  1  6
 13 12  1  0
 13 14  1  0
 14 15  2  0
 16 17  2  0
 16 11  1  0
 18 14  1  0
 19 16  1  0
 20 19  1  0
 20 21  1  1
 22 23  1  0
 22 21  1  0
 23 24  1  0
 24 25  1  0
 26 20  1  0
 27 26  1  0
 28 26  2  0
M  END
$$$$
