KEK.pdb
     RDKit          3D

 28 27  0  0  1  0  0  0  0  0999 V2000
   10.2952  -15.0004   17.6007 N   0  0  0  0  0  0  0  0  0  0  0  0
    9.0655  -14.8582   18.2655 C   0  0  1  0  0  0  0  0  0  0  0  0
    7.8493  -15.1975   17.4100 C   0  0  0  0  0  0  0  0  0  0  0  0
    8.1276  -15.0591   15.9627 C   0  0  0  0  0  0  0  0  0  0  0  0
    7.4674  -13.9337   15.2492 C   0  0  0  0  0  0  0  0  0  0  0  0
    7.8213  -13.8652   13.7829 C   0  0  0  0  0  0  0  0  0  0  0  0
    7.1545  -12.7147   13.1910 N   0  0  0  0  0  0  0  0  0  0  0  0
    8.9885  -15.4993   19.5803 C   0  0  0  0  0  0  0  0  0  0  0  0
    7.8649  -15.4410   20.1907 O   0  0  0  0  0  0  0  0  0  0  0  0
   10.0133  -16.1635   20.2317 N   0  0  0  0  0  0  0  0  0  0  0  0
    9.8201  -16.8584   21.5415 C   0  0  1  0  0  0  0  0  0  0  0  0
   10.8292  -17.9446   21.5288 C   0  0  0  0  0  0  0  0  0  0  0  0
   10.5577  -19.1546   20.7232 C   0  0  0  0  0  0  0  0  0  0  0  0
   11.6658  -20.1240   20.8568 C   0  0  0  0  0  0  0  0  0  0  0  0
   11.7510  -20.7595   21.9638 O   0  0  0  0  0  0  0  0  0  0  0  0
    9.8474  -15.8591   22.5875 C   0  0  0  0  0  0  0  0  0  0  0  0
   10.8725  -15.1059   22.7370 O   0  0  0  0  0  0  0  0  0  0  0  0
   12.5956  -20.3722   19.8643 O   0  0  0  0  0  0  0  0  0  0  0  0
    8.7813  -15.6493   23.4895 N   0  0  0  0  0  0  0  0  0  0  0  0
    8.8894  -14.7050   24.5817 C   0  0  1  0  0  0  0  0  0  0  0  0
    7.5814  -13.9578   24.6427 C   0  0  0  0  0  0  0  0  0  0  0  0
    7.5417  -12.9125   25.7092 C   0  0  0  0  0  0  0  0  0  0  0  0
    6.2201  -12.2309   25.8538 C   0  0  0  0  0  0  0  0  0  0  0  0
    6.2238  -11.1734   26.9369 C   0  0  0  0  0  0  0  0  0  0  0  0
    4.8484  -10.6731   27.0564 N   0  0  0  0  0  0  0  0  0  0  0  0
    9.2033  -15.4108   25.8314 C   0  0  0  0  0  0  0  0  0  0  0  0
    9.8721  -14.7319   26.8357 O   0  0  0  0  0  0  0  0  0  0  0  0
    8.9025  -16.6089   26.0581 O   0  0  0  0  0  0  0  0  0  0  0  0
  2  3  1  0
  2  1  1  6
  3  4  1  0
  5  4  1  0
  5  6  1  0
  7  6  1  0
  8  2  1  0
  8  9  2  0
 10  8  1  0
 11 10  1  0
 11 12  1  1
 13 12  1  0
 13 14  1  0
 14 15  2  0
 16 17  2  0
 16 11  1  0
 18 14  1  0
 19 16  1  0
 20 19  1  0
 20 21  1  1
 22 23  1  0
 22 21  1  0
 23 24  1  0
 24 25  1  0
 26 20  1  0
 27 26  1  0
 28 26  2  0
M  END
$$$$
