KEK.pdb
     RDKit          3D

 28 27  0  0  1  0  0  0  0  0999 V2000
   12.2805  -19.9094   19.3108 N   0  0  0  0  0  0  0  0  0  0  0  0
   11.8498  -18.7823   20.0311 C   0  0  1  0  0  0  0  0  0  0  0  0
   10.3544  -18.7654   20.3303 C   0  0  0  0  0  0  0  0  0  0  0  0
    9.5404  -19.0546   19.1282 C   0  0  0  0  0  0  0  0  0  0  0  0
    8.0638  -18.9444   19.2658 C   0  0  0  0  0  0  0  0  0  0  0  0
    7.3278  -19.0969   17.9562 C   0  0  0  0  0  0  0  0  0  0  0  0
    5.9069  -18.8814   18.1869 N   0  0  0  0  0  0  0  0  0  0  0  0
   12.6366  -18.4664   21.2256 C   0  0  0  0  0  0  0  0  0  0  0  0
   12.9889  -19.4489   21.9665 O   0  0  0  0  0  0  0  0  0  0  0  0
   13.0380  -17.2068   21.6354 N   0  0  0  0  0  0  0  0  0  0  0  0
   13.8029  -16.9752   22.8991 C   0  0  1  0  0  0  0  0  0  0  0  0
   14.6826  -15.8236   22.5856 C   0  0  0  0  0  0  0  0  0  0  0  0
   15.8594  -16.0465   21.7184 C   0  0  0  0  0  0  0  0  0  0  0  0
   16.6231  -14.7919   21.5508 C   0  0  0  0  0  0  0  0  0  0  0  0
   17.1906  -14.3139   22.5929 O   0  0  0  0  0  0  0  0  0  0  0  0
   12.8537  -16.8839   23.9873 C   0  0  0  0  0  0  0  0  0  0  0  0
   11.7513  -16.2501   23.8337 O   0  0  0  0  0  0  0  0  0  0  0  0
   16.7514  -14.1233   20.3475 O   0  0  0  0  0  0  0  0  0  0  0  0
   13.0673  -17.4673   25.2555 N   0  0  0  0  0  0  0  0  0  0  0  0
   12.0849  -17.3578   26.3135 C   0  0  1  0  0  0  0  0  0  0  0  0
   12.3776  -18.4632   27.2960 C   0  0  0  0  0  0  0  0  0  0  0  0
   11.4780  -18.4539   28.4886 C   0  0  0  0  0  0  0  0  0  0  0  0
   11.7634  -19.5317   29.4830 C   0  0  0  0  0  0  0  0  0  0  0  0
   10.8446  -19.4758   30.6847 C   0  0  0  0  0  0  0  0  0  0  0  0
   11.1897  -20.6145   31.5453 N   0  0  0  0  0  0  0  0  0  0  0  0
   12.1438  -16.0219   26.9220 C   0  0  0  0  0  0  0  0  0  0  0  0
   13.1396  -15.1462   26.5237 O   0  0  0  0  0  0  0  0  0  0  0  0
   11.3399  -15.6094   27.7945 O   0  0  0  0  0  0  0  0  0  0  0  0
  2  3  1  0
  2  1  1  1
  3  4  1  0
  5  4  1  0
  5  6  1  0
  7  6  1  0
  8  2  1  0
  8  9  2  0
 10  8  1  0
 11 10  1  0
 11 12  1  6
 13 12  1  0
 13 14  1  0
 14 15  2  0
 16 17  2  0
 16 11  1  0
 18 14  1  0
 19 16  1  0
 20 19  1  0
 20 21  1  1
 22 23  1  0
 22 21  1  0
 23 24  1  0
 24 25  1  0
 26 20  1  0
 27 26  1  0
 28 26  2  0
M  END
$$$$
