KEK.pdb
     RDKit          3D

 28 27  0  0  1  0  0  0  0  0999 V2000
   10.5307  -15.0896   18.1783 N   0  0  0  0  0  0  0  0  0  0  0  0
    9.4687  -14.6656   18.9950 C   0  0  1  0  0  0  0  0  0  0  0  0
    8.1322  -14.5451   18.2702 C   0  0  0  0  0  0  0  0  0  0  0  0
    8.2927  -14.5387   16.7986 C   0  0  0  0  0  0  0  0  0  0  0  0
    7.2092  -13.9058   16.0005 C   0  0  0  0  0  0  0  0  0  0  0  0
    7.4751  -13.9194   14.5141 C   0  0  0  0  0  0  0  0  0  0  0  0
    6.3412  -13.3181   13.8277 N   0  0  0  0  0  0  0  0  0  0  0  0
    9.3261  -15.3898   20.2602 C   0  0  0  0  0  0  0  0  0  0  0  0
    8.2903  -15.1294   20.9657 O   0  0  0  0  0  0  0  0  0  0  0  0
   10.2032  -16.3305   20.7717 N   0  0  0  0  0  0  0  0  0  0  0  0
    9.9261  -17.0930   22.0276 C   0  0  1  0  0  0  0  0  0  0  0  0
   10.8626  -18.2411   21.9698 C   0  0  0  0  0  0  0  0  0  0  0  0
   10.4732  -19.4342   21.1878 C   0  0  0  0  0  0  0  0  0  0  0  0
   11.5444  -20.4522   21.2302 C   0  0  0  0  0  0  0  0  0  0  0  0
   12.2167  -20.6329   20.1569 O   0  0  0  0  0  0  0  0  0  0  0  0
    9.9868  -16.1665   23.1373 C   0  0  0  0  0  0  0  0  0  0  0  0
   11.0467  -15.4796   23.3503 O   0  0  0  0  0  0  0  0  0  0  0  0
   11.8490  -21.2033   22.3502 O   0  0  0  0  0  0  0  0  0  0  0  0
    8.9173  -15.9598   24.0361 N   0  0  0  0  0  0  0  0  0  0  0  0
    9.0318  -15.0409   25.1491 C   0  0  1  0  0  0  0  0  0  0  0  0
    7.7767  -14.2057   25.1556 C   0  0  0  0  0  0  0  0  0  0  0  0
    7.7283  -13.2116   26.2696 C   0  0  0  0  0  0  0  0  0  0  0  0
    6.5004  -12.3606   26.2819 C   0  0  0  0  0  0  0  0  0  0  0  0
    6.5326  -11.3046   27.3661 C   0  0  0  0  0  0  0  0  0  0  0  0
    5.2107  -10.6654   27.3853 N   0  0  0  0  0  0  0  0  0  0  0  0
    9.2298  -15.7846   26.4006 C   0  0  0  0  0  0  0  0  0  0  0  0
    9.7114  -15.1129   27.5114 O   0  0  0  0  0  0  0  0  0  0  0  0
    8.9888  -17.0096   26.5376 O   0  0  0  0  0  0  0  0  0  0  0  0
  2  3  1  0
  2  1  1  6
  3  4  1  0
  5  4  1  0
  5  6  1  0
  7  6  1  0
  8  2  1  0
  8  9  2  0
 10  8  1  0
 11 10  1  0
 11 12  1  1
 13 12  1  0
 13 14  1  0
 14 15  2  0
 16 17  2  0
 16 11  1  0
 18 14  1  0
 19 16  1  0
 20 19  1  0
 20 21  1  1
 22 23  1  0
 22 21  1  0
 23 24  1  0
 24 25  1  0
 26 20  1  0
 27 26  1  0
 28 26  2  0
M  END
$$$$
