KEK.pdb
     RDKit          3D

 28 27  0  0  1  0  0  0  0  0999 V2000
    7.8606  -13.8995   17.5754 N   0  0  0  0  0  0  0  0  0  0  0  0
    8.9478  -13.3736   18.2938 C   0  0  1  0  0  0  0  0  0  0  0  0
    8.5503  -12.5258   19.4977 C   0  0  0  0  0  0  0  0  0  0  0  0
    8.2384  -13.3526   20.6853 C   0  0  0  0  0  0  0  0  0  0  0  0
    7.8091  -12.6375   21.9165 C   0  0  0  0  0  0  0  0  0  0  0  0
    7.4494  -13.5649   23.0525 C   0  0  0  0  0  0  0  0  0  0  0  0
    6.9871  -12.7700   24.1807 N   0  0  0  0  0  0  0  0  0  0  0  0
    9.9918  -14.3398   18.6430 C   0  0  0  0  0  0  0  0  0  0  0  0
    9.6149  -15.5362   18.8982 O   0  0  0  0  0  0  0  0  0  0  0  0
   11.3502  -14.0877   18.7258 N   0  0  0  0  0  0  0  0  0  0  0  0
   12.3498  -15.1508   19.0517 C   0  0  1  0  0  0  0  0  0  0  0  0
   13.4417  -14.9356   18.0719 C   0  0  0  0  0  0  0  0  0  0  0  0
   13.5993  -15.9014   16.9633 C   0  0  0  0  0  0  0  0  0  0  0  0
   15.0193  -16.0038   16.5649 C   0  0  0  0  0  0  0  0  0  0  0  0
   15.7776  -15.0165   16.8593 O   0  0  0  0  0  0  0  0  0  0  0  0
   12.6284  -15.0846   20.4699 C   0  0  0  0  0  0  0  0  0  0  0  0
   12.8883  -13.9610   21.0271 O   0  0  0  0  0  0  0  0  0  0  0  0
   15.5568  -17.0920   15.9030 O   0  0  0  0  0  0  0  0  0  0  0  0
   12.6341  -16.2167   21.3141 N   0  0  0  0  0  0  0  0  0  0  0  0
   12.9040  -16.1014   22.7320 C   0  0  1  0  0  0  0  0  0  0  0  0
   12.2627  -17.2933   23.3960 C   0  0  0  0  0  0  0  0  0  0  0  0
   12.5055  -17.3571   24.8686 C   0  0  0  0  0  0  0  0  0  0  0  0
   11.9555  -18.5783   25.5305 C   0  0  0  0  0  0  0  0  0  0  0  0
   12.0432  -18.5139   27.0404 C   0  0  0  0  0  0  0  0  0  0  0  0
   11.4763  -19.7651   27.5595 N   0  0  0  0  0  0  0  0  0  0  0  0
   14.3524  -16.0270   22.9667 C   0  0  0  0  0  0  0  0  0  0  0  0
   14.8219  -15.2791   24.0331 O   0  0  0  0  0  0  0  0  0  0  0  0
   15.2116  -16.6044   22.2555 O   0  0  0  0  0  0  0  0  0  0  0  0
  2  3  1  0
  2  1  1  1
  3  4  1  0
  5  4  1  0
  5  6  1  0
  7  6  1  0
  8  2  1  0
  8  9  2  0
 10  8  1  0
 11 10  1  0
 11 12  1  6
 13 12  1  0
 13 14  1  0
 14 15  2  0
 16 17  2  0
 16 11  1  0
 18 14  1  0
 19 16  1  0
 20 19  1  0
 20 21  1  1
 22 23  1  0
 22 21  1  0
 23 24  1  0
 24 25  1  0
 26 20  1  0
 27 26  1  0
 28 26  2  0
M  END
$$$$
