KEK.pdb
     RDKit          3D

 28 27  0  0  1  0  0  0  0  0999 V2000
    9.8363  -14.9360   18.6639 N   0  0  0  0  0  0  0  0  0  0  0  0
    8.9482  -14.5339   19.6760 C   0  0  1  0  0  0  0  0  0  0  0  0
    7.5027  -14.3799   19.2146 C   0  0  0  0  0  0  0  0  0  0  0  0
    7.4021  -13.6735   17.9176 C   0  0  0  0  0  0  0  0  0  0  0  0
    7.9616  -14.3622   16.7243 C   0  0  0  0  0  0  0  0  0  0  0  0
    7.9100  -13.5230   15.4701 C   0  0  0  0  0  0  0  0  0  0  0  0
    8.5528  -14.2538   14.3879 N   0  0  0  0  0  0  0  0  0  0  0  0
    9.0320  -15.3006   20.9213 C   0  0  0  0  0  0  0  0  0  0  0  0
    8.1147  -15.0990   21.7910 O   0  0  0  0  0  0  0  0  0  0  0  0
   10.0080  -16.2240   21.2535 N   0  0  0  0  0  0  0  0  0  0  0  0
    9.9686  -17.0199   22.5186 C   0  0  1  0  0  0  0  0  0  0  0  0
   11.0715  -17.9992   22.3665 C   0  0  0  0  0  0  0  0  0  0  0  0
   11.3956  -18.8839   23.5062 C   0  0  0  0  0  0  0  0  0  0  0  0
   12.5679  -19.7268   23.1890 C   0  0  0  0  0  0  0  0  0  0  0  0
   13.6736  -19.1235   22.9653 O   0  0  0  0  0  0  0  0  0  0  0  0
    9.9726  -16.0944   23.6308 C   0  0  0  0  0  0  0  0  0  0  0  0
   10.7348  -15.0652   23.6141 O   0  0  0  0  0  0  0  0  0  0  0  0
   12.5286  -21.1072   23.1235 O   0  0  0  0  0  0  0  0  0  0  0  0
    9.1636  -16.2540   24.7772 N   0  0  0  0  0  0  0  0  0  0  0  0
    9.1212  -15.2492   25.8188 C   0  0  1  0  0  0  0  0  0  0  0  0
    7.9463  -14.3550   25.5141 C   0  0  0  0  0  0  0  0  0  0  0  0
    7.7442  -13.2722   26.5232 C   0  0  0  0  0  0  0  0  0  0  0  0
    6.5109  -12.4560   26.3113 C   0  0  0  0  0  0  0  0  0  0  0  0
    6.3760  -11.3304   27.3145 C   0  0  0  0  0  0  0  0  0  0  0  0
    5.0756  -10.6920   27.0746 N   0  0  0  0  0  0  0  0  0  0  0  0
    9.0244  -15.8908   27.1369 C   0  0  0  0  0  0  0  0  0  0  0  0
    9.3080  -15.1453   28.2686 O   0  0  0  0  0  0  0  0  0  0  0  0
    8.6964  -17.0902   27.3139 O   0  0  0  0  0  0  0  0  0  0  0  0
  2  3  1  0
  2  1  1  6
  3  4  1  0
  5  4  1  0
  5  6  1  0
  7  6  1  0
  8  2  1  0
  8  9  2  0
 10  8  1  0
 11 10  1  0
 11 12  1  1
 13 12  1  0
 13 14  1  0
 14 15  2  0
 16 17  2  0
 16 11  1  0
 18 14  1  0
 19 16  1  0
 20 19  1  0
 20 21  1  6
 22 23  1  0
 22 21  1  0
 23 24  1  0
 24 25  1  0
 26 20  1  0
 27 26  1  0
 28 26  2  0
M  END
$$$$
