KEK.pdb
     RDKit          3D

 28 27  0  0  1  0  0  0  0  0999 V2000
    2.0744  -19.7262   20.0322 N   0  0  0  0  0  0  0  0  0  0  0  0
    2.3219  -18.8870   21.1318 C   0  0  1  0  0  0  0  0  0  0  0  0
    1.5563  -19.2686   22.3944 C   0  0  0  0  0  0  0  0  0  0  0  0
    1.2400  -20.7140   22.4411 C   0  0  0  0  0  0  0  0  0  0  0  0
    2.2542  -21.6112   23.0558 C   0  0  0  0  0  0  0  0  0  0  0  0
    1.8522  -23.0666   23.0421 C   0  0  0  0  0  0  0  0  0  0  0  0
    2.9956  -23.8745   23.4403 N   0  0  0  0  0  0  0  0  0  0  0  0
    3.7359  -18.6364   21.4204 C   0  0  0  0  0  0  0  0  0  0  0  0
    4.5129  -19.6534   21.4478 O   0  0  0  0  0  0  0  0  0  0  0  0
    4.3183  -17.4056   21.6683 N   0  0  0  0  0  0  0  0  0  0  0  0
    5.7942  -17.2292   21.8299 C   0  0  1  0  0  0  0  0  0  0  0  0
    6.0995  -15.9986   21.0611 C   0  0  0  0  0  0  0  0  0  0  0  0
    7.4716  -15.4502   21.1174 C   0  0  0  0  0  0  0  0  0  0  0  0
    7.5890  -14.2608   20.2474 C   0  0  0  0  0  0  0  0  0  0  0  0
    7.0564  -14.3355   19.0867 O   0  0  0  0  0  0  0  0  0  0  0  0
    6.1014  -17.2934   23.2423 C   0  0  0  0  0  0  0  0  0  0  0  0
    5.3289  -16.7368   24.0991 O   0  0  0  0  0  0  0  0  0  0  0  0
    8.2332  -13.0954   20.6191 O   0  0  0  0  0  0  0  0  0  0  0  0
    7.2377  -17.9521   23.7610 N   0  0  0  0  0  0  0  0  0  0  0  0
    7.5324  -17.9488   25.1786 C   0  0  1  0  0  0  0  0  0  0  0  0
    7.9218  -19.3581   25.5460 C   0  0  0  0  0  0  0  0  0  0  0  0
    8.2973  -19.5170   26.9832 C   0  0  0  0  0  0  0  0  0  0  0  0
    8.6884  -20.9069   27.3669 C   0  0  0  0  0  0  0  0  0  0  0  0
    9.0165  -21.0359   28.8391 C   0  0  0  0  0  0  0  0  0  0  0  0
    9.4621  -22.4171   29.0625 N   0  0  0  0  0  0  0  0  0  0  0  0
    8.5868  -16.9692   25.4737 C   0  0  0  0  0  0  0  0  0  0  0  0
    9.3257  -16.4429   24.4277 O   0  0  0  0  0  0  0  0  0  0  0  0
    8.8714  -16.5674   26.6291 O   0  0  0  0  0  0  0  0  0  0  0  0
  2  3  1  0
  2  1  1  6
  3  4  1  0
  5  4  1  0
  5  6  1  0
  7  6  1  0
  8  2  1  0
  8  9  2  0
 10  8  1  0
 11 10  1  0
 11 12  1  1
 13 12  1  0
 13 14  1  0
 14 15  2  0
 16 17  2  0
 16 11  1  0
 18 14  1  0
 19 16  1  0
 20 19  1  0
 20 21  1  6
 22 23  1  0
 22 21  1  0
 23 24  1  0
 24 25  1  0
 26 20  1  0
 27 26  1  0
 28 26  2  0
M  END
$$$$
