KEK.pdb
     RDKit          3D

 28 27  0  0  1  0  0  0  0  0999 V2000
    7.0468  -17.9747   20.2922 N   0  0  0  0  0  0  0  0  0  0  0  0
    8.2319  -17.2232   20.2194 C   0  0  1  0  0  0  0  0  0  0  0  0
    8.0216  -15.7147   20.3000 C   0  0  0  0  0  0  0  0  0  0  0  0
    7.7848  -15.1113   18.9692 C   0  0  0  0  0  0  0  0  0  0  0  0
    7.5865  -13.6384   18.9174 C   0  0  0  0  0  0  0  0  0  0  0  0
    7.2048  -13.1339   17.5463 C   0  0  0  0  0  0  0  0  0  0  0  0
    7.0123  -11.6926   17.6118 N   0  0  0  0  0  0  0  0  0  0  0  0
    9.3051  -17.6609   21.1150 C   0  0  0  0  0  0  0  0  0  0  0  0
    8.9552  -18.2159   22.2141 O   0  0  0  0  0  0  0  0  0  0  0  0
   10.6651  -17.5334   20.8914 N   0  0  0  0  0  0  0  0  0  0  0  0
   11.6908  -17.9611   21.8916 C   0  0  1  0  0  0  0  0  0  0  0  0
   12.8226  -18.4472   21.0663 C   0  0  0  0  0  0  0  0  0  0  0  0
   14.0954  -18.7861   21.7385 C   0  0  0  0  0  0  0  0  0  0  0  0
   15.1107  -19.1975   20.7459 C   0  0  0  0  0  0  0  0  0  0  0  0
   15.6474  -20.3475   20.9065 O   0  0  0  0  0  0  0  0  0  0  0  0
   11.8911  -16.8716   22.8223 C   0  0  0  0  0  0  0  0  0  0  0  0
   11.9964  -15.6679   22.3973 O   0  0  0  0  0  0  0  0  0  0  0  0
   15.5009  -18.4159   19.6743 O   0  0  0  0  0  0  0  0  0  0  0  0
   11.9823  -17.0507   24.2201 N   0  0  0  0  0  0  0  0  0  0  0  0
   12.2034  -15.9326   25.1130 C   0  0  1  0  0  0  0  0  0  0  0  0
   11.3916  -16.1997   26.3550 C   0  0  0  0  0  0  0  0  0  0  0  0
   11.5722  -15.1662   27.4184 C   0  0  0  0  0  0  0  0  0  0  0  0
   10.7585  -15.4010   28.6492 C   0  0  0  0  0  0  0  0  0  0  0  0
   10.9639  -14.3294   29.6984 C   0  0  0  0  0  0  0  0  0  0  0  0
   10.0736  -14.6488   30.8216 N   0  0  0  0  0  0  0  0  0  0  0  0
   13.6385  -15.7823   25.3896 C   0  0  0  0  0  0  0  0  0  0  0  0
   14.2339  -14.5477   25.1937 O   0  0  0  0  0  0  0  0  0  0  0  0
   14.3779  -16.7113   25.7988 O   0  0  0  0  0  0  0  0  0  0  0  0
  2  3  1  0
  2  1  1  1
  3  4  1  0
  5  4  1  0
  5  6  1  0
  7  6  1  0
  8  2  1  0
  8  9  2  0
 10  8  1  0
 11 10  1  0
 11 12  1  6
 13 12  1  0
 13 14  1  0
 14 15  2  0
 16 17  2  0
 16 11  1  0
 18 14  1  0
 19 16  1  0
 20 19  1  0
 20 21  1  1
 22 23  1  0
 22 21  1  0
 23 24  1  0
 24 25  1  0
 26 20  1  0
 27 26  1  0
 28 26  2  0
M  END
$$$$
