KEK.pdb
     RDKit          3D

 28 27  0  0  1  0  0  0  0  0999 V2000
   10.4730  -13.5064   18.5924 N   0  0  0  0  0  0  0  0  0  0  0  0
    9.2485  -13.5360   19.2811 C   0  0  1  0  0  0  0  0  0  0  0  0
    8.0213  -13.5090   18.3759 C   0  0  0  0  0  0  0  0  0  0  0  0
    8.1303  -14.4724   17.2573 C   0  0  0  0  0  0  0  0  0  0  0  0
    7.8368  -13.9626   15.8915 C   0  0  0  0  0  0  0  0  0  0  0  0
    7.9545  -15.0201   14.8201 C   0  0  0  0  0  0  0  0  0  0  0  0
    7.5769  -14.4379   13.5406 N   0  0  0  0  0  0  0  0  0  0  0  0
    9.1331  -14.5766   20.3055 C   0  0  0  0  0  0  0  0  0  0  0  0
    8.0161  -14.6614   20.9250 O   0  0  0  0  0  0  0  0  0  0  0  0
   10.1149  -15.4803   20.6729 N   0  0  0  0  0  0  0  0  0  0  0  0
    9.9462  -16.4374   21.8091 C   0  0  1  0  0  0  0  0  0  0  0  0
   10.9462  -17.4990   21.5416 C   0  0  0  0  0  0  0  0  0  0  0  0
   11.1092  -18.5846   22.5323 C   0  0  0  0  0  0  0  0  0  0  0  0
   12.2067  -19.4901   22.1310 C   0  0  0  0  0  0  0  0  0  0  0  0
   11.9011  -20.4708   21.3685 O   0  0  0  0  0  0  0  0  0  0  0  0
   10.0051  -15.6838   23.0428 C   0  0  0  0  0  0  0  0  0  0  0  0
   11.0386  -14.9814   23.3238 O   0  0  0  0  0  0  0  0  0  0  0  0
   13.5206  -19.3322   22.5314 O   0  0  0  0  0  0  0  0  0  0  0  0
    8.9621  -15.6690   23.9947 N   0  0  0  0  0  0  0  0  0  0  0  0
    9.0635  -14.8975   25.2157 C   0  0  1  0  0  0  0  0  0  0  0  0
    7.7813  -14.1151   25.3445 C   0  0  0  0  0  0  0  0  0  0  0  0
    7.7169  -13.2757   26.5786 C   0  0  0  0  0  0  0  0  0  0  0  0
    6.4373  -12.5227   26.7445 C   0  0  0  0  0  0  0  0  0  0  0  0
    6.4303  -11.6482   27.9801 C   0  0  0  0  0  0  0  0  0  0  0  0
    5.0794  -11.0857   28.1031 N   0  0  0  0  0  0  0  0  0  0  0  0
    9.3065  -15.7885   26.3583 C   0  0  0  0  0  0  0  0  0  0  0  0
    9.7499  -15.2440   27.5516 O   0  0  0  0  0  0  0  0  0  0  0  0
    9.1376  -17.0327   26.3295 O   0  0  0  0  0  0  0  0  0  0  0  0
  2  3  1  0
  2  1  1  6
  3  4  1  0
  5  4  1  0
  5  6  1  0
  7  6  1  0
  8  2  1  0
  8  9  2  0
 10  8  1  0
 11 10  1  0
 11 12  1  1
 13 12  1  0
 13 14  1  0
 14 15  2  0
 16 17  2  0
 16 11  1  0
 18 14  1  0
 19 16  1  0
 20 19  1  0
 20 21  1  1
 22 23  1  0
 22 21  1  0
 23 24  1  0
 24 25  1  0
 26 20  1  0
 27 26  1  0
 28 26  2  0
M  END
$$$$
