KEK.pdb
     RDKit          3D

 28 27  0  0  1  0  0  0  0  0999 V2000
    3.3527  -20.2202   21.3836 N   0  0  0  0  0  0  0  0  0  0  0  0
    3.9184  -21.3328   22.0291 C   0  0  1  0  0  0  0  0  0  0  0  0
    3.2112  -22.6520   21.7363 C   0  0  0  0  0  0  0  0  0  0  0  0
    2.1128  -22.4922   20.7568 C   0  0  0  0  0  0  0  0  0  0  0  0
    2.2793  -23.1553   19.4361 C   0  0  0  0  0  0  0  0  0  0  0  0
    1.0974  -22.9619   18.5164 C   0  0  0  0  0  0  0  0  0  0  0  0
    1.3855  -23.5988   17.2397 N   0  0  0  0  0  0  0  0  0  0  0  0
    5.3707  -21.4637   21.8903 C   0  0  0  0  0  0  0  0  0  0  0  0
    5.9059  -22.5282   22.3581 O   0  0  0  0  0  0  0  0  0  0  0  0
    6.2257  -20.5476   21.3026 N   0  0  0  0  0  0  0  0  0  0  0  0
    7.7057  -20.7508   21.2388 C   0  0  1  0  0  0  0  0  0  0  0  0
    8.1075  -20.0997   19.9688 C   0  0  0  0  0  0  0  0  0  0  0  0
    9.5454  -20.0355   19.6296 C   0  0  0  0  0  0  0  0  0  0  0  0
    9.7474  -19.2790   18.3756 C   0  0  0  0  0  0  0  0  0  0  0  0
    9.8951  -18.0125   18.4789 O   0  0  0  0  0  0  0  0  0  0  0  0
    8.2741  -20.3028   22.4917 C   0  0  0  0  0  0  0  0  0  0  0  0
    7.8685  -19.2161   23.0350 O   0  0  0  0  0  0  0  0  0  0  0  0
    9.7834  -19.8614   17.1223 O   0  0  0  0  0  0  0  0  0  0  0  0
    9.2839  -21.0077   23.1828 N   0  0  0  0  0  0  0  0  0  0  0  0
    9.8984  -20.4702   24.3785 C   0  0  1  0  0  0  0  0  0  0  0  0
   10.2243  -21.6442   25.2664 C   0  0  0  0  0  0  0  0  0  0  0  0
   10.7293  -21.2487   26.6156 C   0  0  0  0  0  0  0  0  0  0  0  0
   11.0939  -22.3983   27.4974 C   0  0  0  0  0  0  0  0  0  0  0  0
   11.5999  -21.9562   28.8539 C   0  0  0  0  0  0  0  0  0  0  0  0
   12.0191  -23.1657   29.5733 N   0  0  0  0  0  0  0  0  0  0  0  0
   11.0821  -19.6749   24.0252 C   0  0  0  0  0  0  0  0  0  0  0  0
   11.4640  -18.6348   24.8553 O   0  0  0  0  0  0  0  0  0  0  0  0
   11.7858  -19.8750   23.0043 O   0  0  0  0  0  0  0  0  0  0  0  0
  2  3  1  0
  2  1  1  6
  3  4  1  0
  5  4  1  0
  5  6  1  0
  7  6  1  0
  8  2  1  0
  8  9  2  0
 10  8  1  0
 11 10  1  0
 11 12  1  6
 13 12  1  0
 13 14  1  0
 14 15  2  0
 16 17  2  0
 16 11  1  0
 18 14  1  0
 19 16  1  0
 20 19  1  0
 20 21  1  1
 22 23  1  0
 22 21  1  0
 23 24  1  0
 24 25  1  0
 26 20  1  0
 27 26  1  0
 28 26  2  0
M  END
$$$$
