KEK.pdb
     RDKit          3D

 28 27  0  0  1  0  0  0  0  0999 V2000
    7.1112  -15.1893   20.0813 N   0  0  0  0  0  0  0  0  0  0  0  0
    8.3607  -14.5738   20.2671 C   0  0  1  0  0  0  0  0  0  0  0  0
    8.5675  -13.3142   19.4324 C   0  0  0  0  0  0  0  0  0  0  0  0
    7.8450  -13.3739   18.1417 C   0  0  0  0  0  0  0  0  0  0  0  0
    8.6524  -13.6524   16.9243 C   0  0  0  0  0  0  0  0  0  0  0  0
    7.8434  -13.6206   15.6497 C   0  0  0  0  0  0  0  0  0  0  0  0
    8.7143  -13.9507   14.5311 N   0  0  0  0  0  0  0  0  0  0  0  0
    8.7497  -14.3589   21.6628 C   0  0  0  0  0  0  0  0  0  0  0  0
    9.9410  -13.9423   21.8769 O   0  0  0  0  0  0  0  0  0  0  0  0
    7.9554  -14.5627   22.7778 N   0  0  0  0  0  0  0  0  0  0  0  0
    8.4682  -14.4053   24.1735 C   0  0  1  0  0  0  0  0  0  0  0  0
    7.4337  -13.5870   24.8506 C   0  0  0  0  0  0  0  0  0  0  0  0
    7.5806  -13.3142   26.2966 C   0  0  0  0  0  0  0  0  0  0  0  0
    6.4491  -12.4984   26.7862 C   0  0  0  0  0  0  0  0  0  0  0  0
    5.4311  -12.3970   26.0181 O   0  0  0  0  0  0  0  0  0  0  0  0
    8.7963  -15.7198   24.6814 C   0  0  0  0  0  0  0  0  0  0  0  0
    7.9325  -16.6646   24.6392 O   0  0  0  0  0  0  0  0  0  0  0  0
    6.4376  -11.8526   28.0086 O   0  0  0  0  0  0  0  0  0  0  0  0
   10.0509  -16.0450   25.2423 N   0  0  0  0  0  0  0  0  0  0  0  0
   10.3063  -17.3480   25.8195 C   0  0  1  0  0  0  0  0  0  0  0  0
   11.5853  -17.8548   25.2029 C   0  0  0  0  0  0  0  0  0  0  0  0
   11.8946  -19.2735   25.5538 C   0  0  0  0  0  0  0  0  0  0  0  0
   13.1046  -19.8258   24.8733 C   0  0  0  0  0  0  0  0  0  0  0  0
   13.3333  -21.2893   25.1856 C   0  0  0  0  0  0  0  0  0  0  0  0
   14.3737  -21.7691   24.2671 N   0  0  0  0  0  0  0  0  0  0  0  0
   10.3784  -17.2473   27.2835 C   0  0  0  0  0  0  0  0  0  0  0  0
   10.3636  -15.9939   27.8715 O   0  0  0  0  0  0  0  0  0  0  0  0
   10.4538  -18.2359   28.0545 O   0  0  0  0  0  0  0  0  0  0  0  0
  2  3  1  0
  2  1  1  1
  3  4  1  0
  5  4  1  0
  5  6  1  0
  7  6  1  0
  8  2  1  0
  8  9  2  0
 10  8  1  0
 11 10  1  0
 11 12  1  1
 13 12  1  0
 13 14  1  0
 14 15  2  0
 16 17  2  0
 16 11  1  0
 18 14  1  0
 19 16  1  0
 20 19  1  0
 20 21  1  6
 22 23  1  0
 22 21  1  0
 23 24  1  0
 24 25  1  0
 26 20  1  0
 27 26  1  0
 28 26  2  0
M  END
$$$$
