KEK.pdb
     RDKit          3D

 28 27  0  0  1  0  0  0  0  0999 V2000
   10.1994  -14.6297   17.4376 N   0  0  0  0  0  0  0  0  0  0  0  0
    9.1995  -14.2681   18.3563 C   0  0  1  0  0  0  0  0  0  0  0  0
    7.8282  -14.0382   17.7296 C   0  0  0  0  0  0  0  0  0  0  0  0
    7.8861  -14.0150   16.2506 C   0  0  0  0  0  0  0  0  0  0  0  0
    6.6128  -13.7616   15.5255 C   0  0  0  0  0  0  0  0  0  0  0  0
    6.7604  -13.8073   14.0234 C   0  0  0  0  0  0  0  0  0  0  0  0
    5.4602  -13.5664   13.4151 N   0  0  0  0  0  0  0  0  0  0  0  0
    9.1070  -15.1182   19.5455 C   0  0  0  0  0  0  0  0  0  0  0  0
    8.2339  -14.7957   20.4243 O   0  0  0  0  0  0  0  0  0  0  0  0
    9.8727  -16.2391   19.8157 N   0  0  0  0  0  0  0  0  0  0  0  0
    9.6354  -17.1101   21.0077 C   0  0  1  0  0  0  0  0  0  0  0  0
    9.8913  -18.4835   20.5109 C   0  0  0  0  0  0  0  0  0  0  0  0
    9.9507  -19.5910   21.4889 C   0  0  0  0  0  0  0  0  0  0  0  0
   10.2663  -20.8650   20.8085 C   0  0  0  0  0  0  0  0  0  0  0  0
   11.1979  -20.8400   19.9321 O   0  0  0  0  0  0  0  0  0  0  0  0
   10.4121  -16.5839   22.1091 C   0  0  0  0  0  0  0  0  0  0  0  0
   11.5759  -16.0902   21.9034 O   0  0  0  0  0  0  0  0  0  0  0  0
    9.6171  -22.0578   21.0676 O   0  0  0  0  0  0  0  0  0  0  0  0
    9.9583  -16.5773   23.4464 N   0  0  0  0  0  0  0  0  0  0  0  0
   10.8034  -16.1204   24.5296 C   0  0  1  0  0  0  0  0  0  0  0  0
    9.8885  -15.5659   25.5920 C   0  0  0  0  0  0  0  0  0  0  0  0
   10.6121  -15.0653   26.7993 C   0  0  0  0  0  0  0  0  0  0  0  0
    9.7327  -14.4189   27.8195 C   0  0  0  0  0  0  0  0  0  0  0  0
   10.5145  -13.8217   28.9701 C   0  0  0  0  0  0  0  0  0  0  0  0
    9.5551  -13.0990   29.8147 N   0  0  0  0  0  0  0  0  0  0  0  0
   11.6421  -17.2238   25.0168 C   0  0  0  0  0  0  0  0  0  0  0  0
   12.9094  -16.9416   25.4980 O   0  0  0  0  0  0  0  0  0  0  0  0
   11.2850  -18.4279   25.0282 O   0  0  0  0  0  0  0  0  0  0  0  0
  2  3  1  0
  2  1  1  6
  3  4  1  0
  5  4  1  0
  5  6  1  0
  7  6  1  0
  8  2  1  0
  8  9  2  0
 10  8  1  0
 11 10  1  0
 11 12  1  6
 13 12  1  0
 13 14  1  0
 14 15  2  0
 16 17  2  0
 16 11  1  0
 18 14  1  0
 19 16  1  0
 20 19  1  0
 20 21  1  1
 22 23  1  0
 22 21  1  0
 23 24  1  0
 24 25  1  0
 26 20  1  0
 27 26  1  0
 28 26  2  0
M  END
$$$$
