KEK.pdb
     RDKit          3D

 28 27  0  0  1  0  0  0  0  0999 V2000
    6.7092  -15.1169   22.2150 N   0  0  0  0  0  0  0  0  0  0  0  0
    7.7447  -14.8929   23.1381 C   0  0  1  0  0  0  0  0  0  0  0  0
    7.2777  -14.3341   24.4781 C   0  0  0  0  0  0  0  0  0  0  0  0
    7.0283  -12.8761   24.4196 C   0  0  0  0  0  0  0  0  0  0  0  0
    6.6762  -12.1961   25.6944 C   0  0  0  0  0  0  0  0  0  0  0  0
    6.3553  -10.7307   25.5219 C   0  0  0  0  0  0  0  0  0  0  0  0
    5.9474  -10.1837   26.8076 N   0  0  0  0  0  0  0  0  0  0  0  0
    8.6717  -16.0122   23.3206 C   0  0  0  0  0  0  0  0  0  0  0  0
    8.2204  -17.0491   23.9205 O   0  0  0  0  0  0  0  0  0  0  0  0
    9.9921  -16.0610   22.9086 N   0  0  0  0  0  0  0  0  0  0  0  0
   10.8412  -17.2819   23.0640 C   0  0  1  0  0  0  0  0  0  0  0  0
   11.7893  -17.2124   21.9261 C   0  0  0  0  0  0  0  0  0  0  0  0
   12.9003  -18.1866   21.8691 C   0  0  0  0  0  0  0  0  0  0  0  0
   13.7786  -17.9020   20.7145 C   0  0  0  0  0  0  0  0  0  0  0  0
   14.3224  -16.7449   20.6699 O   0  0  0  0  0  0  0  0  0  0  0  0
   11.3423  -17.3097   24.4210 C   0  0  0  0  0  0  0  0  0  0  0  0
   11.7440  -16.2323   24.9853 O   0  0  0  0  0  0  0  0  0  0  0  0
   14.0357  -18.8067   19.7012 O   0  0  0  0  0  0  0  0  0  0  0  0
   11.4225  -18.4878   25.1955 N   0  0  0  0  0  0  0  0  0  0  0  0
   11.9866  -18.4793   26.5290 C   0  0  1  0  0  0  0  0  0  0  0  0
   11.2743  -19.5540   27.3103 C   0  0  0  0  0  0  0  0  0  0  0  0
   11.8019  -19.7317   28.6966 C   0  0  0  0  0  0  0  0  0  0  0  0
   11.1778  -20.8590   29.4527 C   0  0  0  0  0  0  0  0  0  0  0  0
   11.6930  -20.9661   30.8721 C   0  0  0  0  0  0  0  0  0  0  0  0
   10.9818  -22.0834   31.5062 N   0  0  0  0  0  0  0  0  0  0  0  0
   13.4395  -18.6873   26.4649 C   0  0  0  0  0  0  0  0  0  0  0  0
   14.2456  -18.0914   27.4200 O   0  0  0  0  0  0  0  0  0  0  0  0
   14.0138  -19.3802   25.5888 O   0  0  0  0  0  0  0  0  0  0  0  0
  2  3  1  0
  2  1  1  6
  3  4  1  0
  5  4  1  0
  5  6  1  0
  7  6  1  0
  8  2  1  0
  8  9  2  0
 10  8  1  0
 11 10  1  0
 11 12  1  6
 13 12  1  0
 13 14  1  0
 14 15  2  0
 16 17  2  0
 16 11  1  0
 18 14  1  0
 19 16  1  0
 20 19  1  0
 20 21  1  1
 22 23  1  0
 22 21  1  0
 23 24  1  0
 24 25  1  0
 26 20  1  0
 27 26  1  0
 28 26  2  0
M  END
$$$$
