KEK.pdb
     RDKit          3D

 28 27  0  0  1  0  0  0  0  0999 V2000
   10.2676  -14.8631   20.6899 N   0  0  0  0  0  0  0  0  0  0  0  0
    9.1938  -14.5354   21.5349 C   0  0  1  0  0  0  0  0  0  0  0  0
    7.9993  -13.9165   20.8167 C   0  0  0  0  0  0  0  0  0  0  0  0
    8.3055  -13.5832   19.4073 C   0  0  0  0  0  0  0  0  0  0  0  0
    7.1987  -13.0244   18.5861 C   0  0  0  0  0  0  0  0  0  0  0  0
    7.5739  -12.8169   17.1383 C   0  0  0  0  0  0  0  0  0  0  0  0
    7.7595  -14.1162   16.5092 N   0  0  0  0  0  0  0  0  0  0  0  0
    8.7735  -15.5980   22.4514 C   0  0  0  0  0  0  0  0  0  0  0  0
    7.8106  -15.3292   23.2508 O   0  0  0  0  0  0  0  0  0  0  0  0
    9.3160  -16.8682   22.5406 N   0  0  0  0  0  0  0  0  0  0  0  0
   10.3506  -17.2342   23.5562 C   0  0  1  0  0  0  0  0  0  0  0  0
   11.5900  -16.5880   23.0614 C   0  0  0  0  0  0  0  0  0  0  0  0
   12.8051  -16.6493   23.9020 C   0  0  0  0  0  0  0  0  0  0  0  0
   13.9915  -16.2281   23.1270 C   0  0  0  0  0  0  0  0  0  0  0  0
   14.0140  -15.0185   22.7111 O   0  0  0  0  0  0  0  0  0  0  0  0
    9.8332  -16.8974   24.8647 C   0  0  0  0  0  0  0  0  0  0  0  0
    8.9007  -16.0281   24.9884 O   0  0  0  0  0  0  0  0  0  0  0  0
   15.0561  -17.0606   22.8355 O   0  0  0  0  0  0  0  0  0  0  0  0
   10.3038  -17.4831   26.0605 N   0  0  0  0  0  0  0  0  0  0  0  0
    9.3917  -17.9686   27.0747 C   0  0  1  0  0  0  0  0  0  0  0  0
    8.6379  -19.1237   26.4661 C   0  0  0  0  0  0  0  0  0  0  0  0
    7.7629  -19.8434   27.4398 C   0  0  0  0  0  0  0  0  0  0  0  0
    6.9590  -20.9518   26.8421 C   0  0  0  0  0  0  0  0  0  0  0  0
    6.0028  -21.5800   27.8334 C   0  0  0  0  0  0  0  0  0  0  0  0
    5.3785  -22.7276   27.1630 N   0  0  0  0  0  0  0  0  0  0  0  0
   10.1349  -18.3453   28.2848 C   0  0  0  0  0  0  0  0  0  0  0  0
    9.5257  -18.1985   29.5194 O   0  0  0  0  0  0  0  0  0  0  0  0
   11.3057  -18.7998   28.2792 O   0  0  0  0  0  0  0  0  0  0  0  0
  2  3  1  0
  2  1  1  6
  3  4  1  0
  5  4  1  0
  5  6  1  0
  7  6  1  0
  8  2  1  0
  8  9  2  0
 10  8  1  0
 11 10  1  0
 11 12  1  6
 13 12  1  0
 13 14  1  0
 14 15  2  0
 16 17  2  0
 16 11  1  0
 18 14  1  0
 19 16  1  0
 20 19  1  0
 20 21  1  6
 22 23  1  0
 22 21  1  0
 23 24  1  0
 24 25  1  0
 26 20  1  0
 27 26  1  0
 28 26  2  0
M  END
$$$$
