GKW.pdb
     RDKit          3D

 28 29  0  0  1  0  0  0  0  0999 V2000
   26.4915  -15.7977  -14.3930 N   0  0  0  0  0  0  0  0  0  0  0  0
   26.6226  -16.6257  -13.2031 C   0  0  0  0  0  0  0  0  0  0  0  0
   26.5568  -18.0825  -13.6049 C   0  0  0  0  0  0  0  0  0  0  0  0
   25.7308  -18.4729  -14.4651 O   0  0  0  0  0  0  0  0  0  0  0  0
   27.4186  -19.0358  -13.0255 N   0  0  0  0  0  0  0  0  0  0  0  0
   27.3069  -20.4324  -13.4804 C   0  0  1  0  0  0  0  0  0  0  0  0
   28.7272  -20.8718  -13.7086 C   0  0  0  0  0  0  0  0  0  0  0  0
   29.1934  -20.7069  -15.1040 C   0  0  0  0  0  0  0  0  0  0  0  0
   28.9101  -21.9643  -15.9191 C   0  0  0  0  0  0  0  0  0  0  0  0
   29.4061  -21.6894  -17.3329 C   0  0  0  0  0  0  0  0  0  0  0  0
   29.1846  -22.8450  -18.1469 N   0  0  0  0  0  0  0  0  0  0  0  0
   26.6910  -21.2562  -12.4026 C   0  0  0  0  0  0  0  0  0  0  0  0
   26.3471  -22.4172  -12.7013 O   0  0  0  0  0  0  0  0  0  0  0  0
   26.4981  -20.7551  -11.0893 N   0  0  0  0  0  0  0  0  0  0  0  0
   25.8473  -21.5552  -10.0987 C   0  0  1  0  0  0  0  0  0  0  0  0
   26.6322  -21.7978   -8.8597 C   0  0  0  0  0  0  0  0  0  0  0  0
   26.9215  -20.5630   -8.1103 C   0  0  0  0  0  0  0  0  0  0  0  0
   26.5612  -19.2928   -8.3976 C   0  0  0  0  0  0  0  0  0  0  0  0
   27.0536  -18.4669   -7.4258 N   0  0  0  0  0  0  0  0  0  0  0  0
   27.7197  -19.1882   -6.5268 C   0  0  0  0  0  0  0  0  0  0  0  0
   28.3995  -18.8592   -5.3709 C   0  0  0  0  0  0  0  0  0  0  0  0
   29.0048  -19.8692   -4.6371 C   0  0  0  0  0  0  0  0  0  0  0  0
   28.9297  -21.1800   -5.0534 C   0  0  0  0  0  0  0  0  0  0  0  0
   28.2519  -21.5213   -6.2084 C   0  0  0  0  0  0  0  0  0  0  0  0
   27.6562  -20.4979   -6.9242 C   0  0  0  0  0  0  0  0  0  0  0  0
   24.6109  -20.7925   -9.6720 C   0  0  0  0  0  0  0  0  0  0  0  0
   23.7067  -21.3618   -8.7734 O   0  0  0  0  0  0  0  0  0  0  0  0
   24.3499  -19.6451  -10.0954 O   0  0  0  0  0  0  0  0  0  0  0  0
  1  2  1  0
  2  3  1  0
  3  4  2  0
  5  6  1  0
  5  3  1  0
  6  7  1  1
  8  7  1  0
  9  8  1  0
 10  9  1  0
 11 10  1  0
 12  6  1  0
 12 13  2  0
 14 12  1  0
 15 14  1  0
 15 26  1  0
 15 16  1  1
 17 16  1  0
 18 17  2  0
 19 20  1  0
 19 18  1  0
 20 25  2  0
 21 20  1  0
 21 22  2  0
 22 23  1  0
 23 24  2  0
 25 17  1  0
 25 24  1  0
 26 28  2  0
 26 27  1  0
M  END
$$$$
