GKW.pdb
     RDKit          3D

 28 29  0  0  1  0  0  0  0  0999 V2000
   23.3914  -25.8973  -14.6691 N   0  0  0  0  0  0  0  0  0  0  0  0
   23.1583  -24.4655  -14.5501 C   0  0  0  0  0  0  0  0  0  0  0  0
   24.3918  -23.8105  -13.9690 C   0  0  0  0  0  0  0  0  0  0  0  0
   25.2638  -24.4952  -13.3813 O   0  0  0  0  0  0  0  0  0  0  0  0
   24.5928  -22.4190  -14.0721 N   0  0  0  0  0  0  0  0  0  0  0  0
   25.8418  -21.8607  -13.5263 C   0  0  1  0  0  0  0  0  0  0  0  0
   26.0543  -20.5847  -14.2938 C   0  0  0  0  0  0  0  0  0  0  0  0
   26.6021  -20.7828  -15.6548 C   0  0  0  0  0  0  0  0  0  0  0  0
   28.0190  -21.3431  -15.5893 C   0  0  0  0  0  0  0  0  0  0  0  0
   28.4613  -21.5816  -17.0273 C   0  0  0  0  0  0  0  0  0  0  0  0
   29.7894  -22.1138  -17.0335 N   0  0  0  0  0  0  0  0  0  0  0  0
   25.6566  -21.5546  -12.0801 C   0  0  0  0  0  0  0  0  0  0  0  0
   24.5406  -21.1220  -11.7293 O   0  0  0  0  0  0  0  0  0  0  0  0
   26.6953  -21.7421  -11.1320 N   0  0  0  0  0  0  0  0  0  0  0  0
   26.5237  -21.3153   -9.7778 C   0  0  1  0  0  0  0  0  0  0  0  0
   27.7681  -21.2536   -8.9670 C   0  0  0  0  0  0  0  0  0  0  0  0
   27.6591  -20.3444   -7.8131 C   0  0  0  0  0  0  0  0  0  0  0  0
   26.7840  -19.3355   -7.6084 C   0  0  0  0  0  0  0  0  0  0  0  0
   27.0561  -18.7574   -6.3997 N   0  0  0  0  0  0  0  0  0  0  0  0
   28.0874  -19.3799   -5.8330 C   0  0  0  0  0  0  0  0  0  0  0  0
   28.7553  -19.2006   -4.6379 C   0  0  0  0  0  0  0  0  0  0  0  0
   29.8198  -20.0360   -4.3316 C   0  0  0  0  0  0  0  0  0  0  0  0
   30.2057  -21.0292   -5.2045 C   0  0  0  0  0  0  0  0  0  0  0  0
   29.5445  -21.2181   -6.4033 C   0  0  0  0  0  0  0  0  0  0  0  0
   28.4862  -20.3734   -6.6879 C   0  0  0  0  0  0  0  0  0  0  0  0
   25.9878  -19.9003   -9.8361 C   0  0  0  0  0  0  0  0  0  0  0  0
   26.5645  -18.9631  -10.6954 O   0  0  0  0  0  0  0  0  0  0  0  0
   25.0270  -19.5163   -9.1337 O   0  0  0  0  0  0  0  0  0  0  0  0
  1  2  1  0
  2  3  1  0
  3  4  2  0
  5  6  1  0
  5  3  1  0
  6  7  1  6
  8  7  1  0
  9  8  1  0
 10  9  1  0
 11 10  1  0
 12  6  1  0
 12 13  2  0
 14 12  1  0
 15 14  1  0
 15 26  1  0
 15 16  1  1
 17 16  1  0
 18 17  2  0
 19 20  1  0
 19 18  1  0
 20 25  2  0
 21 20  1  0
 21 22  2  0
 22 23  1  0
 23 24  2  0
 25 17  1  0
 25 24  1  0
 26 28  2  0
 26 27  1  0
M  END
$$$$
