GKW.pdb
     RDKit          3D

 28 29  0  0  1  0  0  0  0  0999 V2000
   28.3744  -24.1166  -16.6389 N   0  0  0  0  0  0  0  0  0  0  0  0
   27.2597  -23.1806  -16.6367 C   0  0  0  0  0  0  0  0  0  0  0  0
   27.3968  -22.2515  -15.4510 C   0  0  0  0  0  0  0  0  0  0  0  0
   28.2490  -22.4750  -14.5574 O   0  0  0  0  0  0  0  0  0  0  0  0
   26.5737  -21.1147  -15.3194 N   0  0  0  0  0  0  0  0  0  0  0  0
   26.8006  -20.2294  -14.1642 C   0  0  1  0  0  0  0  0  0  0  0  0
   26.0837  -18.9548  -14.5164 C   0  0  0  0  0  0  0  0  0  0  0  0
   26.5971  -18.2904  -15.7356 C   0  0  0  0  0  0  0  0  0  0  0  0
   27.8992  -17.5535  -15.4404 C   0  0  0  0  0  0  0  0  0  0  0  0
   28.3701  -16.9532  -16.7588 C   0  0  0  0  0  0  0  0  0  0  0  0
   29.6858  -16.4161  -16.5929 N   0  0  0  0  0  0  0  0  0  0  0  0
   26.1867  -20.8342  -12.9490 C   0  0  0  0  0  0  0  0  0  0  0  0
   25.0913  -21.4128  -13.0939 O   0  0  0  0  0  0  0  0  0  0  0  0
   26.8093  -20.7630  -11.6761 N   0  0  0  0  0  0  0  0  0  0  0  0
   26.2746  -21.4920  -10.5680 C   0  0  1  0  0  0  0  0  0  0  0  0
   27.2149  -21.7134   -9.4381 C   0  0  0  0  0  0  0  0  0  0  0  0
   27.2589  -20.5822   -8.4955 C   0  0  0  0  0  0  0  0  0  0  0  0
   26.5287  -19.4453   -8.5007 C   0  0  0  0  0  0  0  0  0  0  0  0
   26.9092  -18.6750   -7.4372 N   0  0  0  0  0  0  0  0  0  0  0  0
   27.8670  -19.3008   -6.7568 C   0  0  0  0  0  0  0  0  0  0  0  0
   28.5874  -18.9728   -5.6254 C   0  0  0  0  0  0  0  0  0  0  0  0
   29.5428  -19.8626   -5.1562 C   0  0  0  0  0  0  0  0  0  0  0  0
   29.7705  -21.0550   -5.8071 C   0  0  0  0  0  0  0  0  0  0  0  0
   29.0554  -21.3941   -6.9401 C   0  0  0  0  0  0  0  0  0  0  0  0
   28.1080  -20.4916   -7.3901 C   0  0  0  0  0  0  0  0  0  0  0  0
   25.1371  -20.6607  -10.0133 C   0  0  0  0  0  0  0  0  0  0  0  0
   24.1531  -21.2532   -9.2196 O   0  0  0  0  0  0  0  0  0  0  0  0
   25.0302  -19.4347  -10.2357 O   0  0  0  0  0  0  0  0  0  0  0  0
  1  2  1  0
  2  3  1  0
  3  4  2  0
  5  6  1  0
  5  3  1  0
  6  7  1  6
  8  7  1  0
  9  8  1  0
 10  9  1  0
 11 10  1  0
 12  6  1  0
 12 13  2  0
 14 12  1  0
 15 14  1  0
 15 26  1  0
 15 16  1  1
 17 16  1  0
 18 17  2  0
 19 20  1  0
 19 18  1  0
 20 25  2  0
 21 20  1  0
 21 22  2  0
 22 23  1  0
 23 24  2  0
 25 17  1  0
 25 24  1  0
 26 28  2  0
 26 27  1  0
M  END
$$$$
