GKW.pdb
     RDKit          3D

 28 29  0  0  1  0  0  0  0  0999 V2000
   30.1034  -22.1521  -14.8065 N   0  0  0  0  0  0  0  0  0  0  0  0
   28.6591  -22.0841  -14.9732 C   0  0  0  0  0  0  0  0  0  0  0  0
   28.0751  -21.2211  -13.8767 C   0  0  0  0  0  0  0  0  0  0  0  0
   28.8198  -20.5268  -13.1431 O   0  0  0  0  0  0  0  0  0  0  0  0
   26.6843  -21.1745  -13.6514 N   0  0  0  0  0  0  0  0  0  0  0  0
   26.1777  -20.2028  -12.6671 C   0  0  1  0  0  0  0  0  0  0  0  0
   25.0699  -19.4799  -13.3831 C   0  0  0  0  0  0  0  0  0  0  0  0
   24.7979  -19.9904  -14.7459 C   0  0  0  0  0  0  0  0  0  0  0  0
   25.0143  -18.8952  -15.7849 C   0  0  0  0  0  0  0  0  0  0  0  0
   23.9035  -17.8732  -15.5802 C   0  0  0  0  0  0  0  0  0  0  0  0
   24.0168  -16.8445  -16.5680 N   0  0  0  0  0  0  0  0  0  0  0  0
   25.6265  -20.9317  -11.4905 C   0  0  0  0  0  0  0  0  0  0  0  0
   25.1297  -22.0563  -11.7006 O   0  0  0  0  0  0  0  0  0  0  0  0
   25.6586  -20.3831  -10.1824 N   0  0  0  0  0  0  0  0  0  0  0  0
   25.1137  -21.1121   -9.0793 C   0  0  1  0  0  0  0  0  0  0  0  0
   25.6006  -20.6955   -7.7380 C   0  0  0  0  0  0  0  0  0  0  0  0
   27.0696  -20.6218   -7.6560 C   0  0  0  0  0  0  0  0  0  0  0  0
   27.9892  -20.9733   -8.5815 C   0  0  0  0  0  0  0  0  0  0  0  0
   29.2359  -20.7376   -8.0725 N   0  0  0  0  0  0  0  0  0  0  0  0
   29.1258  -20.2431   -6.8415 C   0  0  0  0  0  0  0  0  0  0  0  0
   30.0533  -19.8421   -5.9004 C   0  0  0  0  0  0  0  0  0  0  0  0
   29.6055  -19.3612   -4.6786 C   0  0  0  0  0  0  0  0  0  0  0  0
   28.2574  -19.2842   -4.4065 C   0  0  0  0  0  0  0  0  0  0  0  0
   27.3199  -19.6824   -5.3407 C   0  0  0  0  0  0  0  0  0  0  0  0
   27.7892  -20.1587   -6.5521 C   0  0  0  0  0  0  0  0  0  0  0  0
   23.6219  -20.8529   -9.0855 C   0  0  0  0  0  0  0  0  0  0  0  0
   22.7957  -21.4678   -8.1429 O   0  0  0  0  0  0  0  0  0  0  0  0
   23.0753  -20.0940   -9.9159 O   0  0  0  0  0  0  0  0  0  0  0  0
  1  2  1  0
  2  3  1  0
  3  4  2  0
  5  6  1  0
  5  3  1  0
  6  7  1  6
  8  7  1  0
  9  8  1  0
 10  9  1  0
 11 10  1  0
 12  6  1  0
 12 13  2  0
 14 12  1  0
 15 14  1  0
 15 26  1  0
 15 16  1  1
 17 16  1  0
 18 17  2  0
 19 20  1  0
 19 18  1  0
 20 25  2  0
 21 20  1  0
 21 22  2  0
 22 23  1  0
 23 24  2  0
 25 17  1  0
 25 24  1  0
 26 28  2  0
 26 27  1  0
M  END
$$$$
