GKW.pdb
     RDKit          3D

 28 29  0  0  1  0  0  0  0  0999 V2000
   25.8666  -25.5600  -16.5270 N   0  0  0  0  0  0  0  0  0  0  0  0
   24.9763  -24.6320  -15.8451 C   0  0  0  0  0  0  0  0  0  0  0  0
   25.8049  -23.6099  -15.0991 C   0  0  0  0  0  0  0  0  0  0  0  0
   26.8044  -23.9627  -14.4273 O   0  0  0  0  0  0  0  0  0  0  0  0
   25.4770  -22.2394  -15.1388 N   0  0  0  0  0  0  0  0  0  0  0  0
   26.3311  -21.3043  -14.3866 C   0  0  1  0  0  0  0  0  0  0  0  0
   25.9332  -19.9421  -14.8853 C   0  0  0  0  0  0  0  0  0  0  0  0
   26.7123  -18.8311  -14.2935 C   0  0  0  0  0  0  0  0  0  0  0  0
   27.8553  -18.4225  -15.2168 C   0  0  0  0  0  0  0  0  0  0  0  0
   27.7058  -16.9265  -15.4613 C   0  0  0  0  0  0  0  0  0  0  0  0
   28.7708  -16.4742  -16.3029 N   0  0  0  0  0  0  0  0  0  0  0  0
   26.0278  -21.4174  -12.9324 C   0  0  0  0  0  0  0  0  0  0  0  0
   24.8641  -21.7376  -12.6180 O   0  0  0  0  0  0  0  0  0  0  0  0
   27.0099  -21.1746  -11.9376 N   0  0  0  0  0  0  0  0  0  0  0  0
   26.6745  -21.2754  -10.5510 C   0  0  1  0  0  0  0  0  0  0  0  0
   27.7956  -21.0330   -9.6054 C   0  0  0  0  0  0  0  0  0  0  0  0
   27.3608  -20.4066   -8.3451 C   0  0  0  0  0  0  0  0  0  0  0  0
   26.1583  -19.8750   -8.0332 C   0  0  0  0  0  0  0  0  0  0  0  0
   26.2075  -19.4011   -6.7518 N   0  0  0  0  0  0  0  0  0  0  0  0
   27.4180  -19.6215   -6.2439 C   0  0  0  0  0  0  0  0  0  0  0  0
   27.9900  -19.3464   -5.0176 C   0  0  0  0  0  0  0  0  0  0  0  0
   29.3097  -19.7117   -4.7949 C   0  0  0  0  0  0  0  0  0  0  0  0
   30.0396  -20.3391   -5.7803 C   0  0  0  0  0  0  0  0  0  0  0  0
   29.4777  -20.6197   -7.0114 C   0  0  0  0  0  0  0  0  0  0  0  0
   28.1604  -20.2464   -7.2111 C   0  0  0  0  0  0  0  0  0  0  0  0
   25.6495  -20.1955  -10.2754 C   0  0  0  0  0  0  0  0  0  0  0  0
   25.6269  -19.0319  -11.0467 O   0  0  0  0  0  0  0  0  0  0  0  0
   24.7970  -20.2947   -9.3658 O   0  0  0  0  0  0  0  0  0  0  0  0
  1  2  1  0
  2  3  1  0
  3  4  2  0
  5  6  1  0
  5  3  1  0
  6  7  1  6
  8  7  1  0
  9  8  1  0
 10  9  1  0
 11 10  1  0
 12  6  1  0
 12 13  2  0
 14 12  1  0
 15 14  1  0
 15 26  1  0
 15 16  1  1
 17 16  1  0
 18 17  2  0
 19 20  1  0
 19 18  1  0
 20 25  2  0
 21 20  1  0
 21 22  2  0
 22 23  1  0
 23 24  2  0
 25 17  1  0
 25 24  1  0
 26 28  2  0
 26 27  1  0
M  END
$$$$
