GKW.pdb
     RDKit          3D

 28 29  0  0  1  0  0  0  0  0999 V2000
   31.0060  -23.7744  -15.7023 N   0  0  0  0  0  0  0  0  0  0  0  0
   29.9754  -23.0408  -16.4223 C   0  0  0  0  0  0  0  0  0  0  0  0
   29.3608  -22.0148  -15.4963 C   0  0  0  0  0  0  0  0  0  0  0  0
   29.7041  -21.9529  -14.2909 O   0  0  0  0  0  0  0  0  0  0  0  0
   28.3898  -21.1049  -15.9616 N   0  0  0  0  0  0  0  0  0  0  0  0
   27.7948  -20.1738  -14.9876 C   0  0  1  0  0  0  0  0  0  0  0  0
   27.0339  -19.1832  -15.8256 C   0  0  0  0  0  0  0  0  0  0  0  0
   26.2408  -18.2110  -15.0399 C   0  0  0  0  0  0  0  0  0  0  0  0
   25.4583  -17.2826  -15.9627 C   0  0  0  0  0  0  0  0  0  0  0  0
   24.3399  -18.1162  -16.5748 C   0  0  0  0  0  0  0  0  0  0  0  0
   23.4946  -17.2717  -17.3619 N   0  0  0  0  0  0  0  0  0  0  0  0
   26.8524  -20.9167  -14.1047 C   0  0  0  0  0  0  0  0  0  0  0  0
   26.1799  -21.8265  -14.6295 O   0  0  0  0  0  0  0  0  0  0  0  0
   26.7156  -20.6135  -12.7254 N   0  0  0  0  0  0  0  0  0  0  0  0
   26.0776  -21.5393  -11.8416 C   0  0  1  0  0  0  0  0  0  0  0  0
   26.8418  -21.8754  -10.6116 C   0  0  0  0  0  0  0  0  0  0  0  0
   26.8568  -20.7808   -9.6259 C   0  0  0  0  0  0  0  0  0  0  0  0
   26.0701  -19.6840   -9.5648 C   0  0  0  0  0  0  0  0  0  0  0  0
   26.4428  -18.9367   -8.4824 N   0  0  0  0  0  0  0  0  0  0  0  0
   27.4512  -19.5379   -7.8548 C   0  0  0  0  0  0  0  0  0  0  0  0
   28.1879  -19.2170   -6.7319 C   0  0  0  0  0  0  0  0  0  0  0  0
   29.2009  -20.0736   -6.3259 C   0  0  0  0  0  0  0  0  0  0  0  0
   29.4691  -21.2264   -7.0304 C   0  0  0  0  0  0  0  0  0  0  0  0
   28.7383  -21.5580   -8.1556 C   0  0  0  0  0  0  0  0  0  0  0  0
   27.7331  -20.6892   -8.5421 C   0  0  0  0  0  0  0  0  0  0  0  0
   24.7975  -20.8785  -11.3754 C   0  0  0  0  0  0  0  0  0  0  0  0
   23.7874  -21.6386  -10.7827 O   0  0  0  0  0  0  0  0  0  0  0  0
   24.5921  -19.6510  -11.4973 O   0  0  0  0  0  0  0  0  0  0  0  0
  1  2  1  0
  2  3  1  0
  3  4  2  0
  5  6  1  0
  5  3  1  0
  6  7  1  6
  8  7  1  0
  9  8  1  0
 10  9  1  0
 11 10  1  0
 12  6  1  0
 12 13  2  0
 14 12  1  0
 15 14  1  0
 15 26  1  0
 15 16  1  1
 17 16  1  0
 18 17  2  0
 19 20  1  0
 19 18  1  0
 20 25  2  0
 21 20  1  0
 21 22  2  0
 22 23  1  0
 23 24  2  0
 25 17  1  0
 25 24  1  0
 26 28  2  0
 26 27  1  0
M  END
$$$$
