GKW.pdb
     RDKit          3D

 28 29  0  0  1  0  0  0  0  0999 V2000
   27.8980  -16.7512  -15.5663 N   0  0  0  0  0  0  0  0  0  0  0  0
   28.2903  -17.4242  -14.3368 C   0  0  0  0  0  0  0  0  0  0  0  0
   27.1964  -18.3861  -13.9291 C   0  0  0  0  0  0  0  0  0  0  0  0
   26.0335  -17.9738  -13.7006 O   0  0  0  0  0  0  0  0  0  0  0  0
   27.4542  -19.7656  -13.7956 N   0  0  0  0  0  0  0  0  0  0  0  0
   26.3520  -20.6321  -13.3437 C   0  0  1  0  0  0  0  0  0  0  0  0
   26.4900  -21.8825  -14.1684 C   0  0  0  0  0  0  0  0  0  0  0  0
   26.1720  -21.6981  -15.6024 C   0  0  0  0  0  0  0  0  0  0  0  0
   27.4460  -21.4921  -16.4150 C   0  0  0  0  0  0  0  0  0  0  0  0
   27.0145  -21.3050  -17.8638 C   0  0  0  0  0  0  0  0  0  0  0  0
   26.6123  -22.5665  -18.4060 N   0  0  0  0  0  0  0  0  0  0  0  0
   26.5368  -20.9562  -11.9014 C   0  0  0  0  0  0  0  0  0  0  0  0
   27.6629  -21.3610  -11.5498 O   0  0  0  0  0  0  0  0  0  0  0  0
   25.4868  -20.8152  -10.9577 N   0  0  0  0  0  0  0  0  0  0  0  0
   25.7147  -21.0997   -9.5748 C   0  0  1  0  0  0  0  0  0  0  0  0
   26.8304  -20.3457   -8.9451 C   0  0  0  0  0  0  0  0  0  0  0  0
   26.9864  -20.6398   -7.5101 C   0  0  0  0  0  0  0  0  0  0  0  0
   26.4708  -21.6626   -6.7932 C   0  0  0  0  0  0  0  0  0  0  0  0
   26.8735  -21.5337   -5.4932 N   0  0  0  0  0  0  0  0  0  0  0  0
   27.6350  -20.4488   -5.3706 C   0  0  0  0  0  0  0  0  0  0  0  0
   28.2846  -19.8694   -4.2986 C   0  0  0  0  0  0  0  0  0  0  0  0
   29.0158  -18.7084   -4.5040 C   0  0  0  0  0  0  0  0  0  0  0  0
   29.0939  -18.1411   -5.7568 C   0  0  0  0  0  0  0  0  0  0  0  0
   28.4482  -18.7122   -6.8371 C   0  0  0  0  0  0  0  0  0  0  0  0
   27.7249  -19.8694   -6.6089 C   0  0  0  0  0  0  0  0  0  0  0  0
   24.4582  -20.6882   -8.8369 C   0  0  0  0  0  0  0  0  0  0  0  0
   23.3669  -20.1710   -9.5374 O   0  0  0  0  0  0  0  0  0  0  0  0
   24.3440  -20.7906   -7.5957 O   0  0  0  0  0  0  0  0  0  0  0  0
  1  2  1  0
  2  3  1  0
  3  4  2  0
  5  6  1  0
  5  3  1  0
  6  7  1  6
  8  7  1  0
  9  8  1  0
 10  9  1  0
 11 10  1  0
 12  6  1  0
 12 13  2  0
 14 12  1  0
 15 14  1  0
 15 26  1  0
 15 16  1  1
 17 16  1  0
 18 17  2  0
 19 20  1  0
 19 18  1  0
 20 25  2  0
 21 20  1  0
 21 22  2  0
 22 23  1  0
 23 24  2  0
 25 17  1  0
 25 24  1  0
 26 28  2  0
 26 27  1  0
M  END
$$$$
