GKW.pdb
     RDKit          3D

 28 29  0  0  1  0  0  0  0  0999 V2000
   30.0568  -21.9074  -17.2251 N   0  0  0  0  0  0  0  0  0  0  0  0
   29.5230  -22.7031  -16.1294 C   0  0  0  0  0  0  0  0  0  0  0  0
   28.8066  -21.7904  -15.1590 C   0  0  0  0  0  0  0  0  0  0  0  0
   29.4397  -21.1941  -14.2543 O   0  0  0  0  0  0  0  0  0  0  0  0
   27.4144  -21.5867  -15.2453 N   0  0  0  0  0  0  0  0  0  0  0  0
   26.7980  -20.6324  -14.3078 C   0  0  1  0  0  0  0  0  0  0  0  0
   25.5613  -20.1503  -15.0155 C   0  0  0  0  0  0  0  0  0  0  0  0
   24.6770  -19.3075  -14.1793 C   0  0  0  0  0  0  0  0  0  0  0  0
   23.3879  -18.9750  -14.9234 C   0  0  0  0  0  0  0  0  0  0  0  0
   22.5605  -18.0975  -13.9930 C   0  0  0  0  0  0  0  0  0  0  0  0
   21.3181  -17.7747  -14.6250 N   0  0  0  0  0  0  0  0  0  0  0  0
   26.4174  -21.3444  -13.0557 C   0  0  0  0  0  0  0  0  0  0  0  0
   25.8581  -22.4523  -13.1798 O   0  0  0  0  0  0  0  0  0  0  0  0
   26.6738  -20.7983  -11.7716 N   0  0  0  0  0  0  0  0  0  0  0  0
   26.3164  -21.5248  -10.5926 C   0  0  1  0  0  0  0  0  0  0  0  0
   27.3637  -21.5843   -9.5393 C   0  0  0  0  0  0  0  0  0  0  0  0
   27.2477  -20.4990   -8.5500 C   0  0  0  0  0  0  0  0  0  0  0  0
   26.3480  -19.4923   -8.4974 C   0  0  0  0  0  0  0  0  0  0  0  0
   26.6232  -18.7149   -7.4070 N   0  0  0  0  0  0  0  0  0  0  0  0
   27.6803  -19.2086   -6.7661 C   0  0  0  0  0  0  0  0  0  0  0  0
   28.3620  -18.8167   -5.6311 C   0  0  0  0  0  0  0  0  0  0  0  0
   29.4542  -19.5627   -5.2124 C   0  0  0  0  0  0  0  0  0  0  0  0
   29.8538  -20.6772   -5.9164 C   0  0  0  0  0  0  0  0  0  0  0  0
   29.1791  -21.0791   -7.0537 C   0  0  0  0  0  0  0  0  0  0  0  0
   28.0931  -20.3201   -7.4526 C   0  0  0  0  0  0  0  0  0  0  0  0
   25.1402  -20.7965   -9.9771 C   0  0  0  0  0  0  0  0  0  0  0  0
   24.3186  -21.4412   -9.0506 O   0  0  0  0  0  0  0  0  0  0  0  0
   24.8583  -19.6124  -10.2642 O   0  0  0  0  0  0  0  0  0  0  0  0
  1  2  1  0
  2  3  1  0
  3  4  2  0
  5  6  1  0
  5  3  1  0
  6  7  1  6
  8  7  1  0
  9  8  1  0
 10  9  1  0
 11 10  1  0
 12  6  1  0
 12 13  2  0
 14 12  1  0
 15 14  1  0
 15 26  1  0
 15 16  1  1
 17 16  1  0
 18 17  2  0
 19 20  1  0
 19 18  1  0
 20 25  2  0
 21 20  1  0
 21 22  2  0
 22 23  1  0
 23 24  2  0
 25 17  1  0
 25 24  1  0
 26 28  2  0
 26 27  1  0
M  END
$$$$
