GKW.pdb
     RDKit          3D

 28 29  0  0  1  0  0  0  0  0999 V2000
   29.6658  -23.0398  -16.3061 N   0  0  0  0  0  0  0  0  0  0  0  0
   28.2686  -22.6430  -16.2108 C   0  0  0  0  0  0  0  0  0  0  0  0
   28.1037  -21.6895  -15.0481 C   0  0  0  0  0  0  0  0  0  0  0  0
   29.0678  -21.4367  -14.2856 O   0  0  0  0  0  0  0  0  0  0  0  0
   26.8674  -21.0625  -14.7920 N   0  0  0  0  0  0  0  0  0  0  0  0
   26.7834  -20.1496  -13.6391 C   0  0  1  0  0  0  0  0  0  0  0  0
   25.7608  -19.1227  -14.0421 C   0  0  0  0  0  0  0  0  0  0  0  0
   26.2873  -17.7407  -14.1103 C   0  0  0  0  0  0  0  0  0  0  0  0
   26.9480  -17.4816  -15.4602 C   0  0  0  0  0  0  0  0  0  0  0  0
   27.6387  -16.1280  -15.3558 C   0  0  0  0  0  0  0  0  0  0  0  0
   28.4156  -15.8992  -16.5353 N   0  0  0  0  0  0  0  0  0  0  0  0
   26.3007  -20.9012  -12.4468 C   0  0  0  0  0  0  0  0  0  0  0  0
   25.5169  -21.8494  -12.6520 O   0  0  0  0  0  0  0  0  0  0  0  0
   26.7065  -20.5643  -11.1296 N   0  0  0  0  0  0  0  0  0  0  0  0
   26.3949  -21.4290  -10.0339 C   0  0  1  0  0  0  0  0  0  0  0  0
   27.4373  -21.5196   -8.9779 C   0  0  0  0  0  0  0  0  0  0  0  0
   27.3985  -20.3910   -8.0320 C   0  0  0  0  0  0  0  0  0  0  0  0
   26.6983  -19.2383   -8.1157 C   0  0  0  0  0  0  0  0  0  0  0  0
   26.9721  -18.4780   -7.0130 N   0  0  0  0  0  0  0  0  0  0  0  0
   27.8327  -19.1256   -6.2307 C   0  0  0  0  0  0  0  0  0  0  0  0
   28.4270  -18.8150   -5.0237 C   0  0  0  0  0  0  0  0  0  0  0  0
   29.3035  -19.7261   -4.4525 C   0  0  0  0  0  0  0  0  0  0  0  0
   29.5779  -20.9223   -5.0779 C   0  0  0  0  0  0  0  0  0  0  0  0
   28.9888  -21.2441   -6.2861 C   0  0  0  0  0  0  0  0  0  0  0  0
   28.1183  -20.3205   -6.8371 C   0  0  0  0  0  0  0  0  0  0  0  0
   25.1657  -20.8514   -9.3645 C   0  0  0  0  0  0  0  0  0  0  0  0
   24.5056  -21.5678   -8.3644 O   0  0  0  0  0  0  0  0  0  0  0  0
   24.6972  -19.7329   -9.6702 O   0  0  0  0  0  0  0  0  0  0  0  0
  1  2  1  0
  2  3  1  0
  3  4  2  0
  5  6  1  0
  5  3  1  0
  6  7  1  6
  8  7  1  0
  9  8  1  0
 10  9  1  0
 11 10  1  0
 12  6  1  0
 12 13  2  0
 14 12  1  0
 15 14  1  0
 15 26  1  0
 15 16  1  1
 17 16  1  0
 18 17  2  0
 19 20  1  0
 19 18  1  0
 20 25  2  0
 21 20  1  0
 21 22  2  0
 22 23  1  0
 23 24  2  0
 25 17  1  0
 25 24  1  0
 26 28  2  0
 26 27  1  0
M  END
$$$$
