GKW.pdb
     RDKit          3D

 28 29  0  0  1  0  0  0  0  0999 V2000
   26.4908  -15.2782  -15.4357 N   0  0  0  0  0  0  0  0  0  0  0  0
   27.1124  -16.1590  -14.4577 C   0  0  0  0  0  0  0  0  0  0  0  0
   26.7828  -17.5938  -14.8048 C   0  0  0  0  0  0  0  0  0  0  0  0
   25.6104  -17.9276  -15.1027 O   0  0  0  0  0  0  0  0  0  0  0  0
   27.7805  -18.5898  -14.8027 N   0  0  0  0  0  0  0  0  0  0  0  0
   27.3704  -19.9768  -15.0816 C   0  0  1  0  0  0  0  0  0  0  0  0
   28.5923  -20.6212  -15.6766 C   0  0  0  0  0  0  0  0  0  0  0  0
   28.3825  -22.0176  -16.1214 C   0  0  0  0  0  0  0  0  0  0  0  0
   28.5885  -22.1404  -17.6275 C   0  0  0  0  0  0  0  0  0  0  0  0
   28.7224  -23.6273  -17.9302 C   0  0  0  0  0  0  0  0  0  0  0  0
   30.0996  -24.0064  -17.8479 N   0  0  0  0  0  0  0  0  0  0  0  0
   27.0146  -20.6543  -13.8034 C   0  0  0  0  0  0  0  0  0  0  0  0
   27.9537  -21.1151  -13.1241 O   0  0  0  0  0  0  0  0  0  0  0  0
   25.6707  -20.7771  -13.3652 N   0  0  0  0  0  0  0  0  0  0  0  0
   25.2829  -21.8622  -12.5182 C   0  0  1  0  0  0  0  0  0  0  0  0
   26.1701  -22.1073  -11.3509 C   0  0  0  0  0  0  0  0  0  0  0  0
   26.0104  -21.1029  -10.2852 C   0  0  0  0  0  0  0  0  0  0  0  0
   24.9634  -20.2841  -10.0419 C   0  0  0  0  0  0  0  0  0  0  0  0
   25.2541  -19.5131   -8.9510 N   0  0  0  0  0  0  0  0  0  0  0  0
   26.4656  -19.8264   -8.4969 C   0  0  0  0  0  0  0  0  0  0  0  0
   27.2271  -19.3599   -7.4438 C   0  0  0  0  0  0  0  0  0  0  0  0
   28.4847  -19.9056   -7.2309 C   0  0  0  0  0  0  0  0  0  0  0  0
   28.9678  -20.8973   -8.0558 C   0  0  0  0  0  0  0  0  0  0  0  0
   28.2145  -21.3723   -9.1127 C   0  0  0  0  0  0  0  0  0  0  0  0
   26.9636  -20.8134   -9.3062 C   0  0  0  0  0  0  0  0  0  0  0  0
   23.9269  -21.5018  -11.9489 C   0  0  0  0  0  0  0  0  0  0  0  0
   23.1750  -22.4563  -11.2613 O   0  0  0  0  0  0  0  0  0  0  0  0
   23.4310  -20.3598  -12.0662 O   0  0  0  0  0  0  0  0  0  0  0  0
  1  2  1  0
  2  3  1  0
  3  4  2  0
  5  6  1  0
  5  3  1  0
  6  7  1  1
  8  7  1  0
  9  8  1  0
 10  9  1  0
 11 10  1  0
 12  6  1  0
 12 13  2  0
 14 12  1  0
 15 14  1  0
 15 26  1  0
 15 16  1  1
 17 16  1  0
 18 17  2  0
 19 20  1  0
 19 18  1  0
 20 25  2  0
 21 20  1  0
 21 22  2  0
 22 23  1  0
 23 24  2  0
 25 17  1  0
 25 24  1  0
 26 28  2  0
 26 27  1  0
M  END
$$$$
