GKW.pdb
     RDKit          3D

 28 29  0  0  1  0  0  0  0  0999 V2000
   25.6711  -19.8224   -8.6909 N   0  0  0  0  0  0  0  0  0  0  0  0
   25.3234  -21.0404   -9.4080 C   0  0  0  0  0  0  0  0  0  0  0  0
   25.2671  -20.7426  -10.8899 C   0  0  0  0  0  0  0  0  0  0  0  0
   25.3206  -19.5606  -11.3081 O   0  0  0  0  0  0  0  0  0  0  0  0
   25.1536  -21.7812  -11.8363 N   0  0  0  0  0  0  0  0  0  0  0  0
   25.0945  -21.4121  -13.2610 C   0  0  1  0  0  0  0  0  0  0  0  0
   25.3271  -22.7029  -13.9973 C   0  0  0  0  0  0  0  0  0  0  0  0
   25.3784  -22.5574  -15.4697 C   0  0  0  0  0  0  0  0  0  0  0  0
   26.7731  -22.1373  -15.9216 C   0  0  0  0  0  0  0  0  0  0  0  0
   26.7123  -21.9781  -17.4353 C   0  0  0  0  0  0  0  0  0  0  0  0
   27.9827  -21.5298  -17.9169 N   0  0  0  0  0  0  0  0  0  0  0  0
   23.7374  -20.8868  -13.5803 C   0  0  0  0  0  0  0  0  0  0  0  0
   22.7643  -21.4857  -13.0804 O   0  0  0  0  0  0  0  0  0  0  0  0
   23.5453  -19.7556  -14.4149 N   0  0  0  0  0  0  0  0  0  0  0  0
   22.2492  -19.1655  -14.5456 C   0  0  1  0  0  0  0  0  0  0  0  0
   22.2328  -17.7740  -15.0684 C   0  0  0  0  0  0  0  0  0  0  0  0
   23.1637  -17.5699  -16.1918 C   0  0  0  0  0  0  0  0  0  0  0  0
   22.9488  -17.7476  -17.5139 C   0  0  0  0  0  0  0  0  0  0  0  0
   24.0975  -17.4427  -18.1896 N   0  0  0  0  0  0  0  0  0  0  0  0
   25.0377  -17.0749  -17.3220 C   0  0  0  0  0  0  0  0  0  0  0  0
   26.3513  -16.6755  -17.4688 C   0  0  0  0  0  0  0  0  0  0  0  0
   27.0855  -16.3521  -16.3369 C   0  0  0  0  0  0  0  0  0  0  0  0
   26.5148  -16.4275  -15.0855 C   0  0  0  0  0  0  0  0  0  0  0  0
   25.2009  -16.8257  -14.9264 C   0  0  0  0  0  0  0  0  0  0  0  0
   24.4880  -17.1434  -16.0689 C   0  0  0  0  0  0  0  0  0  0  0  0
   21.4932  -20.0040  -15.5546 C   0  0  0  0  0  0  0  0  0  0  0  0
   22.1812  -20.8610  -16.4156 O   0  0  0  0  0  0  0  0  0  0  0  0
   20.2475  -19.9675  -15.6597 O   0  0  0  0  0  0  0  0  0  0  0  0
  1  2  1  0
  2  3  1  0
  3  4  2  0
  5  6  1  0
  5  3  1  0
  6  7  1  6
  8  7  1  0
  9  8  1  0
 10  9  1  0
 11 10  1  0
 12  6  1  0
 12 13  2  0
 14 12  1  0
 15 14  1  0
 15 26  1  0
 15 16  1  6
 17 16  1  0
 18 17  2  0
 19 20  1  0
 19 18  1  0
 20 25  2  0
 21 20  1  0
 21 22  2  0
 22 23  1  0
 23 24  2  0
 25 17  1  0
 25 24  1  0
 26 28  2  0
 26 27  1  0
M  END
$$$$
