GKW.pdb
     RDKit          3D

 28 29  0  0  1  0  0  0  0  0999 V2000
   27.9996  -25.4949  -16.0206 N   0  0  0  0  0  0  0  0  0  0  0  0
   26.9922  -24.4568  -16.1819 C   0  0  0  0  0  0  0  0  0  0  0  0
   27.4144  -23.2326  -15.4003 C   0  0  0  0  0  0  0  0  0  0  0  0
   28.3870  -23.2820  -14.6089 O   0  0  0  0  0  0  0  0  0  0  0  0
   26.7288  -22.0088  -15.5400 N   0  0  0  0  0  0  0  0  0  0  0  0
   27.1581  -20.8782  -14.6991 C   0  0  1  0  0  0  0  0  0  0  0  0
   26.5684  -19.6650  -15.3645 C   0  0  0  0  0  0  0  0  0  0  0  0
   26.8696  -18.3910  -14.6734 C   0  0  0  0  0  0  0  0  0  0  0  0
   26.2919  -17.2093  -15.4453 C   0  0  0  0  0  0  0  0  0  0  0  0
   26.6557  -15.9553  -14.6608 C   0  0  0  0  0  0  0  0  0  0  0  0
   26.1736  -14.8026  -15.3579 N   0  0  0  0  0  0  0  0  0  0  0  0
   26.5853  -21.0325  -13.3325 C   0  0  0  0  0  0  0  0  0  0  0  0
   25.3787  -21.3379  -13.2534 O   0  0  0  0  0  0  0  0  0  0  0  0
   27.3664  -20.8433  -12.1632 N   0  0  0  0  0  0  0  0  0  0  0  0
   26.7991  -21.0710  -10.8703 C   0  0  1  0  0  0  0  0  0  0  0  0
   27.7524  -20.9872   -9.7328 C   0  0  0  0  0  0  0  0  0  0  0  0
   27.1148  -20.5534   -8.4777 C   0  0  0  0  0  0  0  0  0  0  0  0
   25.7993  -20.4537   -8.1854 C   0  0  0  0  0  0  0  0  0  0  0  0
   25.6685  -20.0035   -6.9012 N   0  0  0  0  0  0  0  0  0  0  0  0
   26.8755  -19.8154   -6.3723 C   0  0  0  0  0  0  0  0  0  0  0  0
   27.3046  -19.3789   -5.1346 C   0  0  0  0  0  0  0  0  0  0  0  0
   28.6671  -19.2884   -4.8896 C   0  0  0  0  0  0  0  0  0  0  0  0
   29.5791  -19.6281   -5.8644 C   0  0  0  0  0  0  0  0  0  0  0  0
   29.1614  -20.0664   -7.1068 C   0  0  0  0  0  0  0  0  0  0  0  0
   27.7982  -20.1488   -7.3288 C   0  0  0  0  0  0  0  0  0  0  0  0
   25.7793  -19.9741  -10.6474 C   0  0  0  0  0  0  0  0  0  0  0  0
   24.5788  -20.2509   -9.9906 O   0  0  0  0  0  0  0  0  0  0  0  0
   25.9620  -18.7985  -11.0326 O   0  0  0  0  0  0  0  0  0  0  0  0
  1  2  1  0
  2  3  1  0
  3  4  2  0
  5  6  1  0
  5  3  1  0
  6  7  1  6
  8  7  1  0
  9  8  1  0
 10  9  1  0
 11 10  1  0
 12  6  1  0
 12 13  2  0
 14 12  1  0
 15 14  1  0
 15 26  1  0
 15 16  1  1
 17 16  1  0
 18 17  2  0
 19 20  1  0
 19 18  1  0
 20 25  2  0
 21 20  1  0
 21 22  2  0
 22 23  1  0
 23 24  2  0
 25 17  1  0
 25 24  1  0
 26 28  2  0
 26 27  1  0
M  END
$$$$
