GKW.pdb
     RDKit          3D

 28 29  0  0  1  0  0  0  0  0999 V2000
   27.8416  -16.4061  -15.9076 N   0  0  0  0  0  0  0  0  0  0  0  0
   28.5278  -17.3795  -15.0708 C   0  0  0  0  0  0  0  0  0  0  0  0
   27.5201  -18.3784  -14.5467 C   0  0  0  0  0  0  0  0  0  0  0  0
   26.2992  -18.0921  -14.5001 O   0  0  0  0  0  0  0  0  0  0  0  0
   27.9249  -19.6522  -14.0985 N   0  0  0  0  0  0  0  0  0  0  0  0
   26.8900  -20.5587  -13.5723 C   0  0  1  0  0  0  0  0  0  0  0  0
   27.1173  -21.8562  -14.2985 C   0  0  0  0  0  0  0  0  0  0  0  0
   25.9920  -22.2664  -15.1685 C   0  0  0  0  0  0  0  0  0  0  0  0
   25.4731  -23.6427  -14.7658 C   0  0  0  0  0  0  0  0  0  0  0  0
   24.3378  -23.9791  -15.7241 C   0  0  0  0  0  0  0  0  0  0  0  0
   23.8143  -25.2718  -15.4048 N   0  0  0  0  0  0  0  0  0  0  0  0
   27.1008  -20.7551  -12.1106 C   0  0  0  0  0  0  0  0  0  0  0  0
   28.2601  -21.0199  -11.7344 O   0  0  0  0  0  0  0  0  0  0  0  0
   26.0387  -20.6485  -11.1759 N   0  0  0  0  0  0  0  0  0  0  0  0
   26.2666  -20.9148   -9.7894 C   0  0  1  0  0  0  0  0  0  0  0  0
   26.7928  -19.7708   -8.9993 C   0  0  0  0  0  0  0  0  0  0  0  0
   26.7351  -20.0001   -7.5453 C   0  0  0  0  0  0  0  0  0  0  0  0
   25.7195  -20.4959   -6.8048 C   0  0  0  0  0  0  0  0  0  0  0  0
   26.1073  -20.5279   -5.4943 N   0  0  0  0  0  0  0  0  0  0  0  0
   27.3498  -20.0620   -5.3883 C   0  0  0  0  0  0  0  0  0  0  0  0
   28.2000  -19.8806   -4.3155 C   0  0  0  0  0  0  0  0  0  0  0  0
   29.4651  -19.3580   -4.5420 C   0  0  0  0  0  0  0  0  0  0  0  0
   29.8685  -19.0248   -5.8162 C   0  0  0  0  0  0  0  0  0  0  0  0
   29.0262  -19.2021   -6.8976 C   0  0  0  0  0  0  0  0  0  0  0  0
   27.7695  -19.7245   -6.6481 C   0  0  0  0  0  0  0  0  0  0  0  0
   24.9197  -21.2579   -9.1889 C   0  0  0  0  0  0  0  0  0  0  0  0
   24.8218  -22.2180   -8.1800 O   0  0  0  0  0  0  0  0  0  0  0  0
   23.8589  -20.7098   -9.5609 O   0  0  0  0  0  0  0  0  0  0  0  0
  1  2  1  0
  2  3  1  0
  3  4  2  0
  5  6  1  0
  5  3  1  0
  6  7  1  6
  8  7  1  0
  9  8  1  0
 10  9  1  0
 11 10  1  0
 12  6  1  0
 12 13  2  0
 14 12  1  0
 15 14  1  0
 15 26  1  0
 15 16  1  1
 17 16  1  0
 18 17  2  0
 19 20  1  0
 19 18  1  0
 20 25  2  0
 21 20  1  0
 21 22  2  0
 22 23  1  0
 23 24  2  0
 25 17  1  0
 25 24  1  0
 26 28  2  0
 26 27  1  0
M  END
$$$$
