GKW.pdb
     RDKit          3D

 28 29  0  0  1  0  0  0  0  0999 V2000
   19.5065  -19.0188  -13.8518 N   0  0  0  0  0  0  0  0  0  0  0  0
   20.8271  -18.4422  -14.0574 C   0  0  0  0  0  0  0  0  0  0  0  0
   21.8670  -19.3616  -13.4563 C   0  0  0  0  0  0  0  0  0  0  0  0
   22.2463  -19.2104  -12.2697 O   0  0  0  0  0  0  0  0  0  0  0  0
   22.4349  -20.4082  -14.2107 N   0  0  0  0  0  0  0  0  0  0  0  0
   23.3783  -21.3136  -13.5324 C   0  0  1  0  0  0  0  0  0  0  0  0
   23.4074  -22.5461  -14.3941 C   0  0  0  0  0  0  0  0  0  0  0  0
   22.2607  -23.4582  -14.1822 C   0  0  0  0  0  0  0  0  0  0  0  0
   22.3818  -24.6918  -15.0706 C   0  0  0  0  0  0  0  0  0  0  0  0
   23.7959  -25.2268  -14.8848 C   0  0  0  0  0  0  0  0  0  0  0  0
   23.9414  -26.4479  -15.6161 N   0  0  0  0  0  0  0  0  0  0  0  0
   24.7298  -20.6875  -13.5017 C   0  0  0  0  0  0  0  0  0  0  0  0
   24.8939  -19.6564  -14.1840 O   0  0  0  0  0  0  0  0  0  0  0  0
   25.7932  -21.2295  -12.7346 N   0  0  0  0  0  0  0  0  0  0  0  0
   27.1120  -20.6868  -12.8423 C   0  0  1  0  0  0  0  0  0  0  0  0
   27.9184  -20.7204  -11.5940 C   0  0  0  0  0  0  0  0  0  0  0  0
   27.1126  -20.4942  -10.3817 C   0  0  0  0  0  0  0  0  0  0  0  0
   25.7732  -20.3580  -10.2671 C   0  0  0  0  0  0  0  0  0  0  0  0
   25.4639  -20.1583   -8.9505 N   0  0  0  0  0  0  0  0  0  0  0  0
   26.5811  -20.1651   -8.2267 C   0  0  0  0  0  0  0  0  0  0  0  0
   26.8310  -20.0104   -6.8776 C   0  0  0  0  0  0  0  0  0  0  0  0
   28.1416  -20.0686   -6.4263 C   0  0  0  0  0  0  0  0  0  0  0  0
   29.1786  -20.2773   -7.3086 C   0  0  0  0  0  0  0  0  0  0  0  0
   28.9405  -20.4337   -8.6610 C   0  0  0  0  0  0  0  0  0  0  0  0
   27.6260  -20.3719   -9.0885 C   0  0  0  0  0  0  0  0  0  0  0  0
   27.8517  -21.5466  -13.8455 C   0  0  0  0  0  0  0  0  0  0  0  0
   29.1410  -21.2011  -14.2546 O   0  0  0  0  0  0  0  0  0  0  0  0
   27.3527  -22.5807  -14.3411 O   0  0  0  0  0  0  0  0  0  0  0  0
  1  2  1  0
  2  3  1  0
  3  4  2  0
  5  6  1  0
  5  3  1  0
  6  7  1  6
  8  7  1  0
  9  8  1  0
 10  9  1  0
 11 10  1  0
 12  6  1  0
 12 13  2  0
 14 12  1  0
 15 14  1  0
 15 26  1  0
 15 16  1  1
 17 16  1  0
 18 17  2  0
 19 20  1  0
 19 18  1  0
 20 25  2  0
 21 20  1  0
 21 22  2  0
 22 23  1  0
 23 24  2  0
 25 17  1  0
 25 24  1  0
 26 28  2  0
 26 27  1  0
M  END
$$$$
