GKW.pdb
     RDKit          3D

 28 29  0  0  1  0  0  0  0  0999 V2000
   24.0344  -14.9426  -19.1101 N   0  0  0  0  0  0  0  0  0  0  0  0
   23.8644  -16.2708  -19.6808 C   0  0  0  0  0  0  0  0  0  0  0  0
   23.5491  -17.2490  -18.5710 C   0  0  0  0  0  0  0  0  0  0  0  0
   23.2419  -16.8401  -17.4250 O   0  0  0  0  0  0  0  0  0  0  0  0
   23.5920  -18.6402  -18.7944 N   0  0  0  0  0  0  0  0  0  0  0  0
   23.2411  -19.5294  -17.6737 C   0  0  1  0  0  0  0  0  0  0  0  0
   22.6741  -20.7592  -18.3284 C   0  0  0  0  0  0  0  0  0  0  0  0
   22.2349  -21.8029  -17.3747 C   0  0  0  0  0  0  0  0  0  0  0  0
   21.7196  -23.0304  -18.1186 C   0  0  0  0  0  0  0  0  0  0  0  0
   21.2713  -24.0276  -17.0580 C   0  0  0  0  0  0  0  0  0  0  0  0
   20.8167  -25.2256  -17.6946 N   0  0  0  0  0  0  0  0  0  0  0  0
   24.4751  -19.8838  -16.9180 C   0  0  0  0  0  0  0  0  0  0  0  0
   25.5259  -20.0174  -17.5765 O   0  0  0  0  0  0  0  0  0  0  0  0
   24.4702  -20.0643  -15.5107 N   0  0  0  0  0  0  0  0  0  0  0  0
   25.6993  -20.2338  -14.7994 C   0  0  1  0  0  0  0  0  0  0  0  0
   25.9061  -19.3070  -13.6557 C   0  0  0  0  0  0  0  0  0  0  0  0
   26.8705  -19.8190  -12.6668 C   0  0  0  0  0  0  0  0  0  0  0  0
   28.2090  -19.9623  -12.7833 C   0  0  0  0  0  0  0  0  0  0  0  0
   28.6977  -20.4810  -11.6166 N   0  0  0  0  0  0  0  0  0  0  0  0
   27.6952  -20.6699  -10.7614 C   0  0  0  0  0  0  0  0  0  0  0  0
   27.6361  -21.1604   -9.4720 C   0  0  0  0  0  0  0  0  0  0  0  0
   26.4048  -21.2338   -8.8371 C   0  0  0  0  0  0  0  0  0  0  0  0
   25.2581  -20.8243   -9.4811 C   0  0  0  0  0  0  0  0  0  0  0  0
   25.3050  -20.3315  -10.7715 C   0  0  0  0  0  0  0  0  0  0  0  0
   26.5436  -20.2675  -11.3850 C   0  0  0  0  0  0  0  0  0  0  0  0
   25.6686  -21.6288  -14.2114 C   0  0  0  0  0  0  0  0  0  0  0  0
   26.8361  -22.3917  -14.1456 O   0  0  0  0  0  0  0  0  0  0  0  0
   24.6208  -22.1485  -13.7687 O   0  0  0  0  0  0  0  0  0  0  0  0
  1  2  1  0
  2  3  1  0
  3  4  2  0
  5  6  1  0
  5  3  1  0
  6  7  1  6
  8  7  1  0
  9  8  1  0
 10  9  1  0
 11 10  1  0
 12  6  1  0
 12 13  2  0
 14 12  1  0
 15 14  1  0
 15 26  1  0
 15 16  1  1
 17 16  1  0
 18 17  2  0
 19 20  1  0
 19 18  1  0
 20 25  2  0
 21 20  1  0
 21 22  2  0
 22 23  1  0
 23 24  2  0
 25 17  1  0
 25 24  1  0
 26 28  2  0
 26 27  1  0
M  END
$$$$
