NQN.pdb
     RDKit          3D

 26 25  0  0  1  0  0  0  0  0999 V2000
    7.8622  -12.3394   17.5216 N   0  0  0  0  0  0  0  0  0  0  0  0
    7.4406  -13.3382   18.4163 C   0  0  0  0  0  0  0  0  0  0  0  0
    6.8082  -14.3277   17.9652 O   0  0  0  0  0  0  0  0  0  0  0  0
    7.6922  -13.3074   19.8742 C   0  0  0  0  0  0  0  0  0  0  0  0
    8.6049  -14.4254   20.3170 C   0  0  2  0  0  0  0  0  0  0  0  0
    8.0147  -15.7177   20.1866 N   0  0  0  0  0  0  0  0  0  0  0  0
    8.9877  -14.1381   21.7453 C   0  0  0  0  0  0  0  0  0  0  0  0
    9.6176  -13.0947   22.0515 O   0  0  0  0  0  0  0  0  0  0  0  0
    7.1630  -12.1237   26.5551 N   0  0  0  0  0  0  0  0  0  0  0  0
    6.3780  -13.1982   26.0567 C   0  0  0  0  0  0  0  0  0  0  0  0
    5.1905  -13.2741   26.3810 O   0  0  0  0  0  0  0  0  0  0  0  0
    6.9614  -14.2412   25.1459 C   0  0  0  0  0  0  0  0  0  0  0  0
    8.3994  -13.9202   24.9397 C   0  0  0  0  0  0  0  0  0  0  0  0
    9.1939  -14.9062   24.1521 C   0  0  2  0  0  0  0  0  0  0  0  0
    8.6471  -15.0399   22.7885 N   0  0  0  0  0  0  0  0  0  0  0  0
    9.3307  -16.2197   24.7808 C   0  0  0  0  0  0  0  0  0  0  0  0
    8.4523  -17.0953   24.6633 O   0  0  0  0  0  0  0  0  0  0  0  0
   13.7071  -17.8026   24.1435 N   0  0  0  0  0  0  0  0  0  0  0  0
   12.5488  -18.4578   24.6432 C   0  0  0  0  0  0  0  0  0  0  0  0
   11.9242  -19.2401   23.9028 O   0  0  0  0  0  0  0  0  0  0  0  0
   12.1130  -18.1993   26.0201 C   0  0  0  0  0  0  0  0  0  0  0  0
   10.6568  -17.8608   26.1860 C   0  0  2  0  0  0  0  0  0  0  0  0
   10.4830  -16.5301   25.5494 N   0  0  0  0  0  0  0  0  0  0  0  0
   10.3739  -17.6947   27.6426 C   0  0  0  0  0  0  0  0  0  0  0  0
   10.4213  -18.7449   28.5343 O   0  0  0  0  0  0  0  0  0  0  0  0
   10.0779  -16.5195   28.0477 O   0  0  0  0  0  0  0  0  0  0  0  0
  2  1  1  0
  2  3  2  0
  4  2  1  0
  5  7  1  0
  5  4  1  0
  5  6  1  1
  7  8  2  0
  9 10  1  0
 10 12  1  0
 11 10  2  0
 12 13  1  0
 14 13  1  1
 15  7  1  0
 15 14  1  0
 16 17  2  0
 16 14  1  0
 19 18  1  0
 19 21  1  0
 20 19  2  0
 22 21  1  1
 22 23  1  0
 23 16  1  0
 24 25  1  0
 24 22  1  0
 26 24  2  0
M  END
$$$$
