NQN.pdb
     RDKit          3D

 26 25  0  0  1  0  0  0  0  0999 V2000
   15.0088  -16.8398   14.7903 N   0  0  0  0  0  0  0  0  0  0  0  0
   15.4036  -16.9613   16.1338 C   0  0  0  0  0  0  0  0  0  0  0  0
   16.2048  -17.8786   16.4490 O   0  0  0  0  0  0  0  0  0  0  0  0
   14.9363  -16.0724   17.2205 C   0  0  0  0  0  0  0  0  0  0  0  0
   13.8106  -15.1714   16.7731 C   0  0  2  0  0  0  0  0  0  0  0  0
   14.2120  -14.2145   15.7940 N   0  0  0  0  0  0  0  0  0  0  0  0
   13.2705  -14.4995   18.0084 C   0  0  0  0  0  0  0  0  0  0  0  0
   13.9714  -13.6905   18.6667 O   0  0  0  0  0  0  0  0  0  0  0  0
    7.2903  -13.4067   19.4959 N   0  0  0  0  0  0  0  0  0  0  0  0
    8.0115  -13.2437   18.2824 C   0  0  0  0  0  0  0  0  0  0  0  0
    7.4044  -12.8994   17.2656 O   0  0  0  0  0  0  0  0  0  0  0  0
    9.4935  -13.4811   18.2110 C   0  0  0  0  0  0  0  0  0  0  0  0
    9.9613  -13.8828   19.5650 C   0  0  0  0  0  0  0  0  0  0  0  0
   11.4177  -14.1700   19.7066 C   0  0  2  0  0  0  0  0  0  0  0  0
   11.9513  -14.7618   18.4651 N   0  0  0  0  0  0  0  0  0  0  0  0
   11.7660  -14.9986   20.8606 C   0  0  0  0  0  0  0  0  0  0  0  0
   11.4084  -16.1891   20.9421 O   0  0  0  0  0  0  0  0  0  0  0  0
   13.1354  -17.2030   25.1642 N   0  0  0  0  0  0  0  0  0  0  0  0
   12.0492  -17.3405   24.2576 C   0  0  0  0  0  0  0  0  0  0  0  0
   11.3211  -18.3482   24.3274 O   0  0  0  0  0  0  0  0  0  0  0  0
   11.8079  -16.2932   23.2589 C   0  0  0  0  0  0  0  0  0  0  0  0
   12.9066  -15.2770   23.1072 C   0  0  2  0  0  0  0  0  0  0  0  0
   12.5296  -14.4570   21.9276 N   0  0  0  0  0  0  0  0  0  0  0  0
   14.1691  -15.9952   22.7617 C   0  0  0  0  0  0  0  0  0  0  0  0
   14.3506  -16.6449   21.5595 O   0  0  0  0  0  0  0  0  0  0  0  0
   15.1000  -15.9899   23.6372 O   0  0  0  0  0  0  0  0  0  0  0  0
  2  1  1  0
  2  3  2  0
  4  2  1  0
  5  7  1  0
  5  4  1  0
  5  6  1  6
  7  8  2  0
  9 10  1  0
 10 12  1  0
 11 10  2  0
 12 13  1  0
 14 13  1  6
 15  7  1  0
 15 14  1  0
 16 17  2  0
 16 14  1  0
 19 18  1  0
 19 21  1  0
 20 19  2  0
 22 21  1  6
 22 23  1  0
 23 16  1  0
 24 25  1  0
 24 22  1  0
 26 24  2  0
M  END
$$$$
