NQN.pdb
     RDKit          3D

 26 25  0  0  1  0  0  0  0  0999 V2000
    7.8863  -18.4003   17.5774 N   0  0  0  0  0  0  0  0  0  0  0  0
    7.2133  -17.5138   18.4359 C   0  0  0  0  0  0  0  0  0  0  0  0
    6.0754  -17.0938   18.1018 O   0  0  0  0  0  0  0  0  0  0  0  0
    7.7571  -17.0323   19.7250 C   0  0  0  0  0  0  0  0  0  0  0  0
    7.9766  -15.5387   19.7267 C   0  0  2  0  0  0  0  0  0  0  0  0
    8.8280  -15.0945   18.6716 N   0  0  0  0  0  0  0  0  0  0  0  0
    8.5422  -15.1810   21.0762 C   0  0  0  0  0  0  0  0  0  0  0  0
    9.7618  -15.3423   21.3326 O   0  0  0  0  0  0  0  0  0  0  0  0
    5.1655  -12.8105   26.3606 N   0  0  0  0  0  0  0  0  0  0  0  0
    6.5197  -12.4016   26.2254 C   0  0  0  0  0  0  0  0  0  0  0  0
    6.8410  -11.2645   26.5786 O   0  0  0  0  0  0  0  0  0  0  0  0
    7.5660  -13.3218   25.6629 C   0  0  0  0  0  0  0  0  0  0  0  0
    7.2470  -13.5601   24.2294 C   0  0  0  0  0  0  0  0  0  0  0  0
    8.2081  -14.4080   23.4671 C   0  0  2  0  0  0  0  0  0  0  0  0
    7.7118  -14.6504   22.0991 N   0  0  0  0  0  0  0  0  0  0  0  0
    8.5556  -15.6710   24.1179 C   0  0  0  0  0  0  0  0  0  0  0  0
    7.8198  -16.6729   24.0353 O   0  0  0  0  0  0  0  0  0  0  0  0
   11.5549  -19.3639   26.3636 N   0  0  0  0  0  0  0  0  0  0  0  0
   12.2138  -18.5547   25.3983 C   0  0  0  0  0  0  0  0  0  0  0  0
   13.3534  -18.8740   25.0113 O   0  0  0  0  0  0  0  0  0  0  0  0
   11.5384  -17.3608   24.8778 C   0  0  0  0  0  0  0  0  0  0  0  0
   10.1809  -17.0782   25.4610 C   0  0  2  0  0  0  0  0  0  0  0  0
    9.7551  -15.7846   24.8682 N   0  0  0  0  0  0  0  0  0  0  0  0
   10.3342  -16.8625   26.9303 C   0  0  0  0  0  0  0  0  0  0  0  0
   10.3578  -17.9010   27.8365 O   0  0  0  0  0  0  0  0  0  0  0  0
   10.4447  -15.6547   27.3329 O   0  0  0  0  0  0  0  0  0  0  0  0
  2  1  1  0
  2  3  2  0
  4  2  1  0
  5  7  1  0
  5  4  1  0
  5  6  1  6
  7  8  2  0
  9 10  1  0
 10 12  1  0
 11 10  2  0
 12 13  1  0
 14 13  1  1
 15  7  1  0
 15 14  1  0
 16 17  2  0
 16 14  1  0
 19 18  1  0
 19 21  1  0
 20 19  2  0
 22 21  1  6
 22 23  1  0
 23 16  1  0
 24 25  1  0
 24 22  1  0
 26 24  2  0
M  END
$$$$
