NQN.pdb
     RDKit          3D

 26 25  0  0  1  0  0  0  0  0999 V2000
    8.0746  -12.0754   18.2889 N   0  0  0  0  0  0  0  0  0  0  0  0
    7.7399  -13.4189   18.5311 C   0  0  0  0  0  0  0  0  0  0  0  0
    7.8048  -14.2401   17.5803 O   0  0  0  0  0  0  0  0  0  0  0  0
    7.3099  -13.9436   19.8461 C   0  0  0  0  0  0  0  0  0  0  0  0
    8.3411  -14.8622   20.4561 C   0  0  2  0  0  0  0  0  0  0  0  0
    8.5421  -16.0587   19.7056 N   0  0  0  0  0  0  0  0  0  0  0  0
    7.8828  -15.1644   21.8589 C   0  0  0  0  0  0  0  0  0  0  0  0
    7.5943  -14.2410   22.6609 O   0  0  0  0  0  0  0  0  0  0  0  0
    6.1473  -20.8478   23.8814 N   0  0  0  0  0  0  0  0  0  0  0  0
    5.2922  -19.9702   23.1617 C   0  0  0  0  0  0  0  0  0  0  0  0
    4.2429  -20.4111   22.6867 O   0  0  0  0  0  0  0  0  0  0  0  0
    5.6376  -18.5209   22.9670 C   0  0  0  0  0  0  0  0  0  0  0  0
    6.8459  -18.2219   23.7820 C   0  0  0  0  0  0  0  0  0  0  0  0
    7.3741  -16.8297   23.7010 C   0  0  2  0  0  0  0  0  0  0  0  0
    7.7634  -16.5040   22.3158 N   0  0  0  0  0  0  0  0  0  0  0  0
    8.4712  -16.5395   24.6238 C   0  0  0  0  0  0  0  0  0  0  0  0
    9.6601  -16.7360   24.3080 O   0  0  0  0  0  0  0  0  0  0  0  0
   10.8084  -14.9175   29.1141 N   0  0  0  0  0  0  0  0  0  0  0  0
    9.6293  -14.1727   28.8386 C   0  0  0  0  0  0  0  0  0  0  0  0
    9.3471  -13.1925   29.5528 O   0  0  0  0  0  0  0  0  0  0  0  0
    8.7696  -14.5733   27.7193 C   0  0  0  0  0  0  0  0  0  0  0  0
    9.2962  -15.6956   26.8672 C   0  0  2  0  0  0  0  0  0  0  0  0
    8.2017  -16.0206   25.9172 N   0  0  0  0  0  0  0  0  0  0  0  0
    9.4982  -16.8929   27.7359 C   0  0  0  0  0  0  0  0  0  0  0  0
    8.6866  -18.0052   27.6706 O   0  0  0  0  0  0  0  0  0  0  0  0
   10.4707  -16.8538   28.5640 O   0  0  0  0  0  0  0  0  0  0  0  0
  2  1  1  0
  2  3  2  0
  4  2  1  0
  5  7  1  0
  5  4  1  0
  5  6  1  6
  7  8  2  0
  9 10  1  0
 10 12  1  0
 11 10  2  0
 12 13  1  0
 14 13  1  6
 15  7  1  0
 15 14  1  0
 16 17  2  0
 16 14  1  0
 19 18  1  0
 19 21  1  0
 20 19  2  0
 22 21  1  1
 22 23  1  0
 23 16  1  0
 24 25  1  0
 24 22  1  0
 26 24  2  0
M  END
$$$$
