NQN.pdb
     RDKit          3D

 26 25  0  0  1  0  0  0  0  0999 V2000
   12.2678  -16.1507   12.8791 N   0  0  0  0  0  0  0  0  0  0  0  0
   13.1194  -16.2038   13.9961 C   0  0  0  0  0  0  0  0  0  0  0  0
   14.0045  -17.0967   14.0409 O   0  0  0  0  0  0  0  0  0  0  0  0
   13.0473  -15.2689   15.1408 C   0  0  0  0  0  0  0  0  0  0  0  0
   12.9440  -15.9939   16.4609 C   0  0  2  0  0  0  0  0  0  0  0  0
   11.9175  -16.9846   16.4792 N   0  0  0  0  0  0  0  0  0  0  0  0
   12.7150  -14.9463   17.5188 C   0  0  0  0  0  0  0  0  0  0  0  0
   13.6041  -14.1048   17.8026 O   0  0  0  0  0  0  0  0  0  0  0  0
    7.2073  -12.5475   19.6149 N   0  0  0  0  0  0  0  0  0  0  0  0
    7.6775  -13.0024   18.3535 C   0  0  0  0  0  0  0  0  0  0  0  0
    6.8616  -13.2410   17.4599 O   0  0  0  0  0  0  0  0  0  0  0  0
    9.1429  -13.1985   18.0851 C   0  0  0  0  0  0  0  0  0  0  0  0
    9.8059  -13.5355   19.3737 C   0  0  0  0  0  0  0  0  0  0  0  0
   11.2508  -13.8976   19.3025 C   0  0  2  0  0  0  0  0  0  0  0  0
   11.4855  -14.8796   18.2269 N   0  0  0  0  0  0  0  0  0  0  0  0
   11.8232  -14.3706   20.5627 C   0  0  0  0  0  0  0  0  0  0  0  0
   11.6394  -13.7611   21.6335 O   0  0  0  0  0  0  0  0  0  0  0  0
   13.8063  -17.3978   24.2627 N   0  0  0  0  0  0  0  0  0  0  0  0
   12.5452  -17.6802   23.6703 C   0  0  0  0  0  0  0  0  0  0  0  0
   11.7900  -18.5093   24.2113 O   0  0  0  0  0  0  0  0  0  0  0  0
   12.1593  -16.9897   22.4347 C   0  0  0  0  0  0  0  0  0  0  0  0
   13.1948  -16.0619   21.8605 C   0  0  2  0  0  0  0  0  0  0  0  0
   12.6115  -15.5506   20.5938 N   0  0  0  0  0  0  0  0  0  0  0  0
   14.4004  -16.8654   21.4999 C   0  0  0  0  0  0  0  0  0  0  0  0
   14.3715  -17.8664   20.5526 O   0  0  0  0  0  0  0  0  0  0  0  0
   15.4876  -16.5906   22.1127 O   0  0  0  0  0  0  0  0  0  0  0  0
  2  1  1  0
  2  3  2  0
  4  2  1  0
  5  7  1  0
  5  4  1  0
  5  6  1  6
  7  8  2  0
  9 10  1  0
 10 12  1  0
 11 10  2  0
 12 13  1  0
 14 13  1  1
 15  7  1  0
 15 14  1  0
 16 17  2  0
 16 14  1  0
 19 18  1  0
 19 21  1  0
 20 19  2  0
 22 21  1  6
 22 23  1  0
 23 16  1  0
 24 25  1  0
 24 22  1  0
 26 24  2  0
M  END
$$$$
