NQN.pdb
     RDKit          3D

 26 25  0  0  1  0  0  0  0  0999 V2000
    8.8003  -13.6882   11.2035 N   0  0  0  0  0  0  0  0  0  0  0  0
    9.7264  -14.5714   11.7847 C   0  0  0  0  0  0  0  0  0  0  0  0
   10.7928  -14.8237   11.1668 O   0  0  0  0  0  0  0  0  0  0  0  0
    9.5326  -15.2357   13.0927 C   0  0  0  0  0  0  0  0  0  0  0  0
   10.7069  -16.1076   13.4667 C   0  0  2  0  0  0  0  0  0  0  0  0
   10.8087  -17.2859   12.6688 N   0  0  0  0  0  0  0  0  0  0  0  0
   10.5542  -16.4447   14.9268 C   0  0  0  0  0  0  0  0  0  0  0  0
   10.5586  -15.5456   15.8048 O   0  0  0  0  0  0  0  0  0  0  0  0
    7.7744  -21.3622   17.3527 N   0  0  0  0  0  0  0  0  0  0  0  0
    8.5240  -20.9711   18.4948 C   0  0  0  0  0  0  0  0  0  0  0  0
    8.3645  -21.5812   19.5547 O   0  0  0  0  0  0  0  0  0  0  0  0
    9.5042  -19.8335   18.4396 C   0  0  0  0  0  0  0  0  0  0  0  0
    9.5512  -19.3337   17.0390 C   0  0  0  0  0  0  0  0  0  0  0  0
   10.4512  -18.1739   16.7774 C   0  0  2  0  0  0  0  0  0  0  0  0
   10.4006  -17.7907   15.3537 N   0  0  0  0  0  0  0  0  0  0  0  0
   11.8357  -18.3678   17.2075 C   0  0  0  0  0  0  0  0  0  0  0  0
   12.6593  -18.9814   16.5023 O   0  0  0  0  0  0  0  0  0  0  0  0
   14.7161  -21.8855   19.1277 N   0  0  0  0  0  0  0  0  0  0  0  0
   14.1476  -20.7896   19.8322 C   0  0  0  0  0  0  0  0  0  0  0  0
   14.5165  -20.5579   20.9987 O   0  0  0  0  0  0  0  0  0  0  0  0
   13.1386  -19.9542   19.1715 C   0  0  0  0  0  0  0  0  0  0  0  0
   13.4070  -18.4743   19.1939 C   0  0  2  0  0  0  0  0  0  0  0  0
   12.2776  -17.8543   18.4548 N   0  0  0  0  0  0  0  0  0  0  0  0
   14.6488  -18.2080   18.4089 C   0  0  0  0  0  0  0  0  0  0  0  0
   14.9140  -18.8233   17.2042 O   0  0  0  0  0  0  0  0  0  0  0  0
   15.4802  -17.3716   18.9011 O   0  0  0  0  0  0  0  0  0  0  0  0
  2  1  1  0
  2  3  2  0
  4  2  1  0
  5  7  1  0
  5  4  1  0
  5  6  1  6
  7  8  2  0
  9 10  1  0
 10 12  1  0
 11 10  2  0
 12 13  1  0
 14 13  1  6
 15  7  1  0
 15 14  1  0
 16 17  2  0
 16 14  1  0
 19 18  1  0
 19 21  1  0
 20 19  2  0
 22 21  1  6
 22 23  1  0
 23 16  1  0
 24 25  1  0
 24 22  1  0
 26 24  2  0
M  END
$$$$
