NQN.pdb
     RDKit          3D

 26 25  0  0  1  0  0  0  0  0999 V2000
    8.8965  -15.6600   11.9276 N   0  0  0  0  0  0  0  0  0  0  0  0
   10.1262  -15.9415   12.5476 C   0  0  0  0  0  0  0  0  0  0  0  0
   10.8999  -16.7739   12.0080 O   0  0  0  0  0  0  0  0  0  0  0  0
   10.5819  -15.3182   13.8098 C   0  0  0  0  0  0  0  0  0  0  0  0
   10.6276  -16.3085   14.9484 C   0  0  2  0  0  0  0  0  0  0  0  0
    9.4182  -17.0506   15.0966 N   0  0  0  0  0  0  0  0  0  0  0  0
   10.9485  -15.5269   16.1955 C   0  0  0  0  0  0  0  0  0  0  0  0
   12.0336  -14.9035   16.3100 O   0  0  0  0  0  0  0  0  0  0  0  0
    6.8412  -13.1651   20.2969 N   0  0  0  0  0  0  0  0  0  0  0  0
    6.9935  -12.8992   18.9094 C   0  0  0  0  0  0  0  0  0  0  0  0
    6.1298  -12.2391   18.3268 O   0  0  0  0  0  0  0  0  0  0  0  0
    8.1806  -13.4034   18.1384 C   0  0  0  0  0  0  0  0  0  0  0  0
    9.0589  -14.1484   19.0803 C   0  0  0  0  0  0  0  0  0  0  0  0
   10.3169  -14.7116   18.5111 C   0  0  2  0  0  0  0  0  0  0  0  0
   10.0322  -15.4722   17.2795 N   0  0  0  0  0  0  0  0  0  0  0  0
   11.0990  -15.5215   19.4448 C   0  0  0  0  0  0  0  0  0  0  0  0
   10.9032  -16.7452   19.5713 O   0  0  0  0  0  0  0  0  0  0  0  0
   15.2727  -13.6276   19.6246 N   0  0  0  0  0  0  0  0  0  0  0  0
   15.0526  -14.8815   20.2570 C   0  0  0  0  0  0  0  0  0  0  0  0
   15.6110  -15.8983   19.8045 O   0  0  0  0  0  0  0  0  0  0  0  0
   14.1729  -14.9523   21.4289 C   0  0  0  0  0  0  0  0  0  0  0  0
   12.8886  -15.7098   21.2302 C   0  0  2  0  0  0  0  0  0  0  0  0
   12.1123  -14.9228   20.2382 N   0  0  0  0  0  0  0  0  0  0  0  0
   12.1229  -15.6848   22.5118 C   0  0  0  0  0  0  0  0  0  0  0  0
   12.4894  -16.4297   23.6123 O   0  0  0  0  0  0  0  0  0  0  0  0
   11.0903  -14.9335   22.5582 O   0  0  0  0  0  0  0  0  0  0  0  0
  2  1  1  0
  2  3  2  0
  4  2  1  0
  5  7  1  0
  5  4  1  0
  5  6  1  1
  7  8  2  0
  9 10  1  0
 10 12  1  0
 11 10  2  0
 12 13  1  0
 14 13  1  1
 15  7  1  0
 15 14  1  0
 16 17  2  0
 16 14  1  0
 19 18  1  0
 19 21  1  0
 20 19  2  0
 22 21  1  1
 22 23  1  0
 23 16  1  0
 24 25  1  0
 24 22  1  0
 26 24  2  0
M  END
$$$$
