NQN.pdb
     RDKit          3D

 26 25  0  0  1  0  0  0  0  0999 V2000
   13.7988  -21.1135   21.0429 N   0  0  0  0  0  0  0  0  0  0  0  0
   14.1076  -21.5448   22.3446 C   0  0  0  0  0  0  0  0  0  0  0  0
   15.1432  -22.2363   22.5237 O   0  0  0  0  0  0  0  0  0  0  0  0
   13.2879  -21.2382   23.5377 C   0  0  0  0  0  0  0  0  0  0  0  0
   12.0419  -20.4614   23.1866 C   0  0  2  0  0  0  0  0  0  0  0  0
   12.3182  -19.1709   22.6446 N   0  0  0  0  0  0  0  0  0  0  0  0
   11.2181  -20.3640   24.4439 C   0  0  0  0  0  0  0  0  0  0  0  0
   11.3889  -19.4248   25.2612 O   0  0  0  0  0  0  0  0  0  0  0  0
    5.7548  -23.2127   25.0793 N   0  0  0  0  0  0  0  0  0  0  0  0
    5.9196  -22.7831   26.4238 C   0  0  0  0  0  0  0  0  0  0  0  0
    5.0227  -23.0089   27.2397 O   0  0  0  0  0  0  0  0  0  0  0  0
    7.1592  -22.0618   26.8719 C   0  0  0  0  0  0  0  0  0  0  0  0
    8.0515  -21.9028   25.6921 C   0  0  0  0  0  0  0  0  0  0  0  0
    9.3607  -21.2315   25.9349 C   0  0  2  0  0  0  0  0  0  0  0  0
   10.2230  -21.3327   24.7422 N   0  0  0  0  0  0  0  0  0  0  0  0
   10.0733  -21.6979   27.1241 C   0  0  0  0  0  0  0  0  0  0  0  0
   10.7666  -22.7328   27.1066 O   0  0  0  0  0  0  0  0  0  0  0  0
   13.2247  -20.8170   30.4941 N   0  0  0  0  0  0  0  0  0  0  0  0
   12.1621  -19.9748   30.9212 C   0  0  0  0  0  0  0  0  0  0  0  0
   12.4096  -19.0191   31.6799 O   0  0  0  0  0  0  0  0  0  0  0  0
   10.7966  -20.2484   30.4598 C   0  0  0  0  0  0  0  0  0  0  0  0
   10.6394  -21.4609   29.5836 C   0  0  2  0  0  0  0  0  0  0  0  0
    9.9895  -20.9718   28.3408 N   0  0  0  0  0  0  0  0  0  0  0  0
    9.6833  -22.3990   30.2432 C   0  0  0  0  0  0  0  0  0  0  0  0
   10.0588  -23.2521   31.2588 O   0  0  0  0  0  0  0  0  0  0  0  0
    8.4755  -22.3875   29.8261 O   0  0  0  0  0  0  0  0  0  0  0  0
  2  1  1  0
  2  3  2  0
  4  2  1  0
  5  7  1  0
  5  4  1  0
  5  6  1  1
  7  8  2  0
  9 10  1  0
 10 12  1  0
 11 10  2  0
 12 13  1  0
 14 13  1  6
 15  7  1  0
 15 14  1  0
 16 17  2  0
 16 14  1  0
 19 18  1  0
 19 21  1  0
 20 19  2  0
 22 21  1  1
 22 23  1  0
 23 16  1  0
 24 25  1  0
 24 22  1  0
 26 24  2  0
M  END
$$$$
