NQN.pdb
     RDKit          3D

 26 25  0  0  1  0  0  0  0  0999 V2000
   14.5317  -14.0743   13.4873 N   0  0  0  0  0  0  0  0  0  0  0  0
   14.7728  -14.3979   14.8337 C   0  0  0  0  0  0  0  0  0  0  0  0
   15.8446  -14.9848   15.1330 O   0  0  0  0  0  0  0  0  0  0  0  0
   13.8404  -14.0922   15.9413 C   0  0  0  0  0  0  0  0  0  0  0  0
   13.4583  -15.3279   16.7198 C   0  0  2  0  0  0  0  0  0  0  0  0
   12.4297  -16.0919   16.0921 N   0  0  0  0  0  0  0  0  0  0  0  0
   13.0412  -14.8688   18.0925 C   0  0  0  0  0  0  0  0  0  0  0  0
   13.8926  -14.5031   18.9414 O   0  0  0  0  0  0  0  0  0  0  0  0
    7.1542  -13.5141   19.9800 N   0  0  0  0  0  0  0  0  0  0  0  0
    7.7791  -13.3713   18.7118 C   0  0  0  0  0  0  0  0  0  0  0  0
    7.0939  -13.0482   17.7386 O   0  0  0  0  0  0  0  0  0  0  0  0
    9.2524  -13.6048   18.5310 C   0  0  0  0  0  0  0  0  0  0  0  0
    9.8108  -14.0547   19.8345 C   0  0  0  0  0  0  0  0  0  0  0  0
   11.2389  -14.4840   19.8328 C   0  0  2  0  0  0  0  0  0  0  0  0
   11.6715  -14.8361   18.4671 N   0  0  0  0  0  0  0  0  0  0  0  0
   11.5507  -15.5672   20.7649 C   0  0  0  0  0  0  0  0  0  0  0  0
   12.1792  -16.5801   20.4031 O   0  0  0  0  0  0  0  0  0  0  0  0
   12.8162  -18.1736   24.9938 N   0  0  0  0  0  0  0  0  0  0  0  0
   13.6429  -17.3281   24.2048 C   0  0  0  0  0  0  0  0  0  0  0  0
   14.8770  -17.3594   24.3668 O   0  0  0  0  0  0  0  0  0  0  0  0
   13.0260  -16.4366   23.2163 C   0  0  0  0  0  0  0  0  0  0  0  0
   11.5276  -16.5213   23.1133 C   0  0  2  0  0  0  0  0  0  0  0  0
   11.1383  -15.4872   22.1207 N   0  0  0  0  0  0  0  0  0  0  0  0
   10.9409  -16.1182   24.4257 C   0  0  0  0  0  0  0  0  0  0  0  0
   10.9558  -16.9408   25.5317 O   0  0  0  0  0  0  0  0  0  0  0  0
   10.4099  -14.9578   24.4939 O   0  0  0  0  0  0  0  0  0  0  0  0
  2  1  1  0
  2  3  2  0
  4  2  1  0
  5  7  1  0
  5  4  1  0
  5  6  1  6
  7  8  2  0
  9 10  1  0
 10 12  1  0
 11 10  2  0
 12 13  1  0
 14 13  1  6
 15  7  1  0
 15 14  1  0
 16 17  2  0
 16 14  1  0
 19 18  1  0
 19 21  1  0
 20 19  2  0
 22 21  1  1
 22 23  1  0
 23 16  1  0
 24 25  1  0
 24 22  1  0
 26 24  2  0
M  END
$$$$
