NQN.pdb
     RDKit          3D

 26 25  0  0  1  0  0  0  0  0999 V2000
   14.7864  -15.6772   16.2005 N   0  0  0  0  0  0  0  0  0  0  0  0
   15.1432  -14.6959   17.1414 C   0  0  0  0  0  0  0  0  0  0  0  0
   16.3147  -14.2376   17.1239 O   0  0  0  0  0  0  0  0  0  0  0  0
   14.2237  -14.1553   18.1670 C   0  0  0  0  0  0  0  0  0  0  0  0
   13.5416  -15.2496   18.9521 C   0  0  2  0  0  0  0  0  0  0  0  0
   12.7859  -16.1411   18.1337 N   0  0  0  0  0  0  0  0  0  0  0  0
   12.6700  -14.5740   19.9782 C   0  0  0  0  0  0  0  0  0  0  0  0
   13.1676  -13.8539   20.8800 O   0  0  0  0  0  0  0  0  0  0  0  0
    6.8234  -13.9960   18.8084 N   0  0  0  0  0  0  0  0  0  0  0  0
    7.9423  -13.4231   18.1458 C   0  0  0  0  0  0  0  0  0  0  0  0
    7.8723  -13.1993   16.9350 O   0  0  0  0  0  0  0  0  0  0  0  0
    9.2056  -13.0851   18.8859 C   0  0  0  0  0  0  0  0  0  0  0  0
    9.0979  -13.6448   20.2602 C   0  0  0  0  0  0  0  0  0  0  0  0
   10.3759  -14.0439   20.9170 C   0  0  2  0  0  0  0  0  0  0  0  0
   11.2586  -14.7318   19.9558 N   0  0  0  0  0  0  0  0  0  0  0  0
   10.2135  -14.8461   22.1291 C   0  0  0  0  0  0  0  0  0  0  0  0
    9.1670  -14.8065   22.8038 O   0  0  0  0  0  0  0  0  0  0  0  0
    9.8865  -20.0793   23.6515 N   0  0  0  0  0  0  0  0  0  0  0  0
    9.7623  -18.7485   24.1354 C   0  0  0  0  0  0  0  0  0  0  0  0
    9.4313  -18.5597   25.3208 O   0  0  0  0  0  0  0  0  0  0  0  0
   10.0264  -17.6252   23.2293 C   0  0  0  0  0  0  0  0  0  0  0  0
   11.0663  -16.6448   23.6986 C   0  0  2  0  0  0  0  0  0  0  0  0
   11.2590  -15.6991   22.5697 N   0  0  0  0  0  0  0  0  0  0  0  0
   12.3538  -17.3768   23.8875 C   0  0  0  0  0  0  0  0  0  0  0  0
   12.6770  -18.0235   25.0612 O   0  0  0  0  0  0  0  0  0  0  0  0
   13.1684  -17.3849   22.9029 O   0  0  0  0  0  0  0  0  0  0  0  0
  2  1  1  0
  2  3  2  0
  4  2  1  0
  5  7  1  0
  5  4  1  0
  5  6  1  6
  7  8  2  0
  9 10  1  0
 10 12  1  0
 11 10  2  0
 12 13  1  0
 14 13  1  6
 15  7  1  0
 15 14  1  0
 16 17  2  0
 16 14  1  0
 19 18  1  0
 19 21  1  0
 20 19  2  0
 22 21  1  6
 22 23  1  0
 23 16  1  0
 24 25  1  0
 24 22  1  0
 26 24  2  0
M  END
$$$$
