NQN.pdb
     RDKit          3D

 26 25  0  0  1  0  0  0  0  0999 V2000
    7.3134  -13.1783   14.8556 N   0  0  0  0  0  0  0  0  0  0  0  0
    8.2422  -14.0971   15.3742 C   0  0  0  0  0  0  0  0  0  0  0  0
    8.6941  -14.9942   14.6169 O   0  0  0  0  0  0  0  0  0  0  0  0
    8.7336  -14.0832   16.7698 C   0  0  0  0  0  0  0  0  0  0  0  0
    9.0581  -15.4696   17.2717 C   0  0  2  0  0  0  0  0  0  0  0  0
    7.9690  -16.3824   17.1451 N   0  0  0  0  0  0  0  0  0  0  0  0
    9.4895  -15.3253   18.7077 C   0  0  0  0  0  0  0  0  0  0  0  0
   10.4099  -14.5338   19.0329 O   0  0  0  0  0  0  0  0  0  0  0  0
    6.6945  -18.3412   23.4351 N   0  0  0  0  0  0  0  0  0  0  0  0
    6.1061  -17.2774   22.6994 C   0  0  0  0  0  0  0  0  0  0  0  0
    4.8878  -17.0999   22.7720 O   0  0  0  0  0  0  0  0  0  0  0  0
    6.9334  -16.3664   21.8371 C   0  0  0  0  0  0  0  0  0  0  0  0
    8.3651  -16.7193   22.0354 C   0  0  0  0  0  0  0  0  0  0  0  0
    9.3454  -16.0507   21.1323 C   0  0  2  0  0  0  0  0  0  0  0  0
    8.8673  -16.0810   19.7370 N   0  0  0  0  0  0  0  0  0  0  0  0
   10.7087  -16.5736   21.2188 C   0  0  0  0  0  0  0  0  0  0  0  0
   10.9926  -17.7248   20.8366 O   0  0  0  0  0  0  0  0  0  0  0  0
   13.4828  -13.6149   19.5268 N   0  0  0  0  0  0  0  0  0  0  0  0
   13.9300  -14.8966   19.9488 C   0  0  0  0  0  0  0  0  0  0  0  0
   14.2280  -15.7502   19.0927 O   0  0  0  0  0  0  0  0  0  0  0  0
   14.0313  -15.1876   21.3832 C   0  0  0  0  0  0  0  0  0  0  0  0
   13.1375  -16.2882   21.8858 C   0  0  2  0  0  0  0  0  0  0  0  0
   11.7525  -15.7699   21.7473 N   0  0  0  0  0  0  0  0  0  0  0  0
   13.3957  -16.4767   23.3442 C   0  0  0  0  0  0  0  0  0  0  0  0
   12.4873  -16.1104   24.3142 O   0  0  0  0  0  0  0  0  0  0  0  0
   14.5135  -17.0005   23.6745 O   0  0  0  0  0  0  0  0  0  0  0  0
  2  1  1  0
  2  3  2  0
  4  2  1  0
  5  7  1  0
  5  4  1  0
  5  6  1  1
  7  8  2  0
  9 10  1  0
 10 12  1  0
 11 10  2  0
 12 13  1  0
 14 13  1  1
 15  7  1  0
 15 14  1  0
 16 17  2  0
 16 14  1  0
 19 18  1  0
 19 21  1  0
 20 19  2  0
 22 21  1  1
 22 23  1  0
 23 16  1  0
 24 25  1  0
 24 22  1  0
 26 24  2  0
M  END
$$$$
