MDA.pdb
     RDKit          3D

 22 21  0  0  1  0  0  0  0  0999 V2000
   44.5834  -10.0565   -1.1461 C   0  0  0  0  0  0  0  0  0  0  0  0
   43.5444   -9.9370   -2.5974 S   0  0  0  0  0  0  0  0  0  0  0  0
   44.4544   -9.7302   -4.0982 C   0  0  0  0  0  0  0  0  0  0  0  0
   43.7288   -9.4899   -5.3602 C   0  0  0  0  0  0  0  0  0  0  0  0
   43.3771  -10.6381   -6.2240 C   0  0  2  0  0  0  0  0  0  0  0  0
   44.5710  -11.2918   -6.7848 N   0  0  0  0  0  0  0  0  0  0  0  0
   42.6356  -10.0728   -7.4109 C   0  0  0  0  0  0  0  0  0  0  0  0
   43.3073   -9.7590   -8.4174 O   0  0  0  0  0  0  0  0  0  0  0  0
   41.2346   -9.8882   -7.4299 N   0  0  0  0  0  0  0  0  0  0  0  0
   40.5217   -9.2400   -8.5308 C   0  0  1  0  0  0  0  0  0  0  0  0
   39.2070   -9.9253   -8.7525 C   0  0  0  0  0  0  0  0  0  0  0  0
   38.3725   -9.3853   -9.8238 C   0  0  0  0  0  0  0  0  0  0  0  0
   38.3007   -9.8232  -10.9901 O   0  0  0  0  0  0  0  0  0  0  0  0
   40.4109   -7.8083   -8.1811 C   0  0  0  0  0  0  0  0  0  0  0  0
   40.7397   -7.3748   -7.0507 O   0  0  0  0  0  0  0  0  0  0  0  0
   37.5589   -8.2685   -9.5591 O   0  0  0  0  0  0  0  0  0  0  0  0
   41.2245   -4.9179   -8.5805 C   0  0  0  0  0  0  0  0  0  0  0  0
   39.8188   -5.4569   -8.7815 C   0  0  2  0  0  0  0  0  0  0  0  0
   39.9156   -6.8622   -9.1440 N   0  0  0  0  0  0  0  0  0  0  0  0
   39.1988   -4.6779   -9.8867 C   0  0  0  0  0  0  0  0  0  0  0  0
   39.0105   -5.2692  -11.1202 O   0  0  0  0  0  0  0  0  0  0  0  0
   38.8542   -3.4674   -9.6580 O   0  0  0  0  0  0  0  0  0  0  0  0
  2  1  1  0
  3  4  1  0
  3  2  1  0
  4  5  1  0
  5  7  1  0
  5  6  1  6
  7  8  2  0
  9 10  1  0
  9  7  1  0
 10 14  1  0
 10 11  1  1
 12 11  1  0
 13 12  2  0
 14 15  2  0
 14 19  1  0
 16 12  1  0
 18 17  1  6
 19 18  1  0
 20 21  1  0
 20 18  1  0
 22 20  2  0
M  END
$$$$
