MDA.pdb
     RDKit          3D

 22 21  0  0  1  0  0  0  0  0999 V2000
   36.9997  -31.5931  -17.6380 C   0  0  0  0  0  0  0  0  0  0  0  0
   35.5765  -30.5711  -17.9988 S   0  0  0  0  0  0  0  0  0  0  0  0
   35.6083  -29.0065  -17.1779 C   0  0  0  0  0  0  0  0  0  0  0  0
   34.5312  -28.0308  -17.4322 C   0  0  0  0  0  0  0  0  0  0  0  0
   34.1962  -27.6679  -18.8265 C   0  0  2  0  0  0  0  0  0  0  0  0
   34.3866  -26.2307  -19.0826 N   0  0  0  0  0  0  0  0  0  0  0  0
   32.7158  -27.9111  -18.9910 C   0  0  0  0  0  0  0  0  0  0  0  0
   31.9336  -27.0397  -18.5533 O   0  0  0  0  0  0  0  0  0  0  0  0
   32.1870  -29.0656  -19.6112 N   0  0  0  0  0  0  0  0  0  0  0  0
   30.7584  -29.2684  -19.8528 C   0  0  1  0  0  0  0  0  0  0  0  0
   30.5453  -29.7181  -21.2669 C   0  0  0  0  0  0  0  0  0  0  0  0
   29.1588  -29.9480  -21.6670 C   0  0  0  0  0  0  0  0  0  0  0  0
   28.7746  -30.7024  -22.5838 O   0  0  0  0  0  0  0  0  0  0  0  0
   30.2862  -30.2264  -18.8314 C   0  0  0  0  0  0  0  0  0  0  0  0
   30.8857  -31.3056  -18.6075 O   0  0  0  0  0  0  0  0  0  0  0  0
   28.1297  -29.2770  -20.9814 O   0  0  0  0  0  0  0  0  0  0  0  0
   27.5560  -30.2271  -16.2355 C   0  0  0  0  0  0  0  0  0  0  0  0
   28.7085  -30.8554  -16.9995 C   0  0  2  0  0  0  0  0  0  0  0  0
   29.1091  -29.9401  -18.0565 N   0  0  0  0  0  0  0  0  0  0  0  0
   28.2127  -32.1321  -17.5797 C   0  0  0  0  0  0  0  0  0  0  0  0
   28.0512  -32.2469  -18.9462 O   0  0  0  0  0  0  0  0  0  0  0  0
   27.9472  -33.0984  -16.7845 O   0  0  0  0  0  0  0  0  0  0  0  0
  2  1  1  0
  3  4  1  0
  3  2  1  0
  4  5  1  0
  5  7  1  0
  5  6  1  1
  7  8  2  0
  9 10  1  0
  9  7  1  0
 10 14  1  0
 10 11  1  6
 12 11  1  0
 13 12  2  0
 14 15  2  0
 14 19  1  0
 16 12  1  0
 18 17  1  6
 19 18  1  0
 20 21  1  0
 20 18  1  0
 22 20  2  0
M  END
$$$$
