MDA.pdb
     RDKit          3D

 22 21  0  0  1  0  0  0  0  0999 V2000
   29.2660  -20.4744   -7.6025 C   0  0  0  0  0  0  0  0  0  0  0  0
   27.5833  -20.1072   -7.1191 S   0  0  0  0  0  0  0  0  0  0  0  0
   26.3757  -20.7273   -8.2505 C   0  0  0  0  0  0  0  0  0  0  0  0
   26.3556  -20.2262   -9.6381 C   0  0  0  0  0  0  0  0  0  0  0  0
   25.3155  -20.7139  -10.5700 C   0  0  2  0  0  0  0  0  0  0  0  0
   25.4337  -22.1599  -10.8196 N   0  0  0  0  0  0  0  0  0  0  0  0
   25.5860  -20.0546  -11.9004 C   0  0  0  0  0  0  0  0  0  0  0  0
   25.6461  -18.8063  -11.9265 O   0  0  0  0  0  0  0  0  0  0  0  0
   25.7722  -20.7807  -13.0985 N   0  0  0  0  0  0  0  0  0  0  0  0
   25.9437  -20.1479  -14.4064 C   0  0  1  0  0  0  0  0  0  0  0  0
   27.2685  -20.5419  -14.9870 C   0  0  0  0  0  0  0  0  0  0  0  0
   27.5294  -21.9768  -15.0791 C   0  0  0  0  0  0  0  0  0  0  0  0
   26.6717  -22.8826  -15.0454 O   0  0  0  0  0  0  0  0  0  0  0  0
   24.7784  -20.5421  -15.2255 C   0  0  0  0  0  0  0  0  0  0  0  0
   24.6586  -20.1856  -16.4224 O   0  0  0  0  0  0  0  0  0  0  0  0
   28.8564  -22.4223  -15.2197 O   0  0  0  0  0  0  0  0  0  0  0  0
   21.9732  -22.7957  -15.4560 C   0  0  0  0  0  0  0  0  0  0  0  0
   22.4167  -21.3548  -15.2717 C   0  0  2  0  0  0  0  0  0  0  0  0
   23.7369  -21.3573  -14.6612 N   0  0  0  0  0  0  0  0  0  0  0  0
   21.4307  -20.6987  -14.3717 C   0  0  0  0  0  0  0  0  0  0  0  0
   20.2965  -20.1186  -14.9044 O   0  0  0  0  0  0  0  0  0  0  0  0
   21.6663  -20.6916  -13.1143 O   0  0  0  0  0  0  0  0  0  0  0  0
  2  1  1  0
  3  4  1  0
  3  2  1  0
  4  5  1  0
  5  7  1  0
  5  6  1  6
  7  8  2  0
  9 10  1  0
  9  7  1  0
 10 14  1  0
 10 11  1  6
 12 11  1  0
 13 12  2  0
 14 15  2  0
 14 19  1  0
 16 12  1  0
 18 17  1  1
 19 18  1  0
 20 21  1  0
 20 18  1  0
 22 20  2  0
M  END
$$$$
