MDA.pdb
     RDKit          3D

 22 21  0  0  1  0  0  0  0  0999 V2000
   25.0045  -19.8852   -7.3873 C   0  0  0  0  0  0  0  0  0  0  0  0
   26.4891  -19.7572   -8.3772 S   0  0  0  0  0  0  0  0  0  0  0  0
   26.5269  -20.8856   -9.7366 C   0  0  0  0  0  0  0  0  0  0  0  0
   25.8077  -20.5490  -10.9801 C   0  0  0  0  0  0  0  0  0  0  0  0
   25.8072  -21.5141  -12.1012 C   0  0  2  0  0  0  0  0  0  0  0  0
   27.1588  -21.7293  -12.6434 N   0  0  0  0  0  0  0  0  0  0  0  0
   25.0242  -20.8731  -13.2209 C   0  0  0  0  0  0  0  0  0  0  0  0
   25.6410  -20.1114  -13.9968 O   0  0  0  0  0  0  0  0  0  0  0  0
   23.6437  -21.0969  -13.4246 N   0  0  0  0  0  0  0  0  0  0  0  0
   22.9354  -20.7087  -14.6445 C   0  0  1  0  0  0  0  0  0  0  0  0
   22.4507  -21.9350  -15.3576 C   0  0  0  0  0  0  0  0  0  0  0  0
   21.5041  -22.7733  -14.6250 C   0  0  0  0  0  0  0  0  0  0  0  0
   21.7919  -23.6054  -13.7408 O   0  0  0  0  0  0  0  0  0  0  0  0
   21.8627  -19.7781  -14.2354 C   0  0  0  0  0  0  0  0  0  0  0  0
   21.2581  -19.9026  -13.1431 O   0  0  0  0  0  0  0  0  0  0  0  0
   20.1311  -22.6643  -14.9116 O   0  0  0  0  0  0  0  0  0  0  0  0
   20.2265  -16.7367  -15.7467 C   0  0  0  0  0  0  0  0  0  0  0  0
   20.3380  -17.8632  -14.7341 C   0  0  2  0  0  0  0  0  0  0  0  0
   21.4798  -18.6894  -15.0934 N   0  0  0  0  0  0  0  0  0  0  0  0
   19.0808  -18.6546  -14.8106 C   0  0  0  0  0  0  0  0  0  0  0  0
   18.0328  -18.3598  -13.9613 O   0  0  0  0  0  0  0  0  0  0  0  0
   19.0076  -19.5972  -15.6723 O   0  0  0  0  0  0  0  0  0  0  0  0
  2  1  1  0
  3  4  1  0
  3  2  1  0
  4  5  1  0
  5  7  1  0
  5  6  1  6
  7  8  2  0
  9 10  1  0
  9  7  1  0
 10 14  1  0
 10 11  1  1
 12 11  1  0
 13 12  2  0
 14 15  2  0
 14 19  1  0
 16 12  1  0
 18 17  1  6
 19 18  1  0
 20 21  1  0
 20 18  1  0
 22 20  2  0
M  END
$$$$
