MDA.pdb
     RDKit          3D

 22 21  0  0  1  0  0  0  0  0999 V2000
   27.7020  -11.8896  -15.2741 C   0  0  0  0  0  0  0  0  0  0  0  0
   26.4473  -13.1520  -15.4543 S   0  0  0  0  0  0  0  0  0  0  0  0
   25.5643  -13.0523  -16.9818 C   0  0  0  0  0  0  0  0  0  0  0  0
   24.5742  -11.9763  -17.1794 C   0  0  0  0  0  0  0  0  0  0  0  0
   23.1423  -12.2550  -16.9348 C   0  0  2  0  0  0  0  0  0  0  0  0
   22.5791  -13.1697  -17.9415 N   0  0  0  0  0  0  0  0  0  0  0  0
   22.4105  -10.9490  -17.1269 C   0  0  0  0  0  0  0  0  0  0  0  0
   22.2377  -10.5489  -18.2985 O   0  0  0  0  0  0  0  0  0  0  0  0
   21.9198  -10.1734  -16.0522 N   0  0  0  0  0  0  0  0  0  0  0  0
   21.0897   -8.9820  -16.2310 C   0  0  1  0  0  0  0  0  0  0  0  0
   19.7321   -9.2206  -15.6414 C   0  0  0  0  0  0  0  0  0  0  0  0
   18.9236  -10.2536  -16.2854 C   0  0  0  0  0  0  0  0  0  0  0  0
   18.8912  -10.5052  -17.5072 O   0  0  0  0  0  0  0  0  0  0  0  0
   21.8277   -7.8546  -15.6239 C   0  0  0  0  0  0  0  0  0  0  0  0
   22.4739   -7.9838  -14.5563 O   0  0  0  0  0  0  0  0  0  0  0  0
   18.0902  -11.0626  -15.4916 O   0  0  0  0  0  0  0  0  0  0  0  0
   22.5617   -4.2979  -16.6296 C   0  0  0  0  0  0  0  0  0  0  0  0
   22.6325   -5.4908  -15.6921 C   0  0  2  0  0  0  0  0  0  0  0  0
   21.8231   -6.5614  -16.2526 N   0  0  0  0  0  0  0  0  0  0  0  0
   22.0820   -5.0572  -14.3800 C   0  0  0  0  0  0  0  0  0  0  0  0
   22.9007   -4.4166  -13.4713 O   0  0  0  0  0  0  0  0  0  0  0  0
   20.8500   -5.2941  -14.1297 O   0  0  0  0  0  0  0  0  0  0  0  0
  2  1  1  0
  3  4  1  0
  3  2  1  0
  4  5  1  0
  5  7  1  0
  5  6  1  6
  7  8  2  0
  9 10  1  0
  9  7  1  0
 10 14  1  0
 10 11  1  1
 12 11  1  0
 13 12  2  0
 14 15  2  0
 14 19  1  0
 16 12  1  0
 18 17  1  6
 19 18  1  0
 20 21  1  0
 20 18  1  0
 22 20  2  0
M  END
$$$$
