MDA.pdb
     RDKit          3D

 22 21  0  0  1  0  0  0  0  0999 V2000
   16.9105  -13.4418  -19.9148 C   0  0  0  0  0  0  0  0  0  0  0  0
   17.0651  -11.8755  -19.0646 S   0  0  0  0  0  0  0  0  0  0  0  0
   17.8812  -12.0014  -17.5022 C   0  0  0  0  0  0  0  0  0  0  0  0
   18.1930  -10.7742  -16.7447 C   0  0  0  0  0  0  0  0  0  0  0  0
   19.6020  -10.4590  -16.4233 C   0  0  2  0  0  0  0  0  0  0  0  0
   20.2376  -11.5237  -15.6298 N   0  0  0  0  0  0  0  0  0  0  0  0
   19.5777   -9.2486  -15.5221 C   0  0  0  0  0  0  0  0  0  0  0  0
   18.8514   -9.2977  -14.5059 O   0  0  0  0  0  0  0  0  0  0  0  0
   20.3322   -8.0810  -15.7766 N   0  0  0  0  0  0  0  0  0  0  0  0
   20.2797   -6.8872  -14.9324 C   0  0  1  0  0  0  0  0  0  0  0  0
   21.6636   -6.5272  -14.4822 C   0  0  0  0  0  0  0  0  0  0  0  0
   21.7698   -5.3785  -13.5851 C   0  0  0  0  0  0  0  0  0  0  0  0
   22.8293   -4.8733  -13.1615 O   0  0  0  0  0  0  0  0  0  0  0  0
   19.6038   -5.8370  -15.7226 C   0  0  0  0  0  0  0  0  0  0  0  0
   19.9554   -5.5600  -16.8946 O   0  0  0  0  0  0  0  0  0  0  0  0
   20.5933   -4.7538  -13.1327 O   0  0  0  0  0  0  0  0  0  0  0  0
   16.5847   -3.6494  -15.2928 C   0  0  0  0  0  0  0  0  0  0  0  0
   17.9306   -3.9914  -15.9080 C   0  0  2  0  0  0  0  0  0  0  0  0
   18.5087   -5.0955  -15.1581 N   0  0  0  0  0  0  0  0  0  0  0  0
   18.7899   -2.7823  -15.7957 C   0  0  0  0  0  0  0  0  0  0  0  0
   18.7821   -1.8400  -16.8049 O   0  0  0  0  0  0  0  0  0  0  0  0
   19.5200   -2.6503  -14.7537 O   0  0  0  0  0  0  0  0  0  0  0  0
  2  1  1  0
  3  4  1  0
  3  2  1  0
  4  5  1  0
  5  7  1  0
  5  6  1  1
  7  8  2  0
  9 10  1  0
  9  7  1  0
 10 14  1  0
 10 11  1  6
 12 11  1  0
 13 12  2  0
 14 15  2  0
 14 19  1  0
 16 12  1  0
 18 17  1  1
 19 18  1  0
 20 21  1  0
 20 18  1  0
 22 20  2  0
M  END
$$$$
