MDA.pdb
     RDKit          3D

 22 21  0  0  1  0  0  0  0  0999 V2000
   28.9559  -11.8410  -17.4246 C   0  0  0  0  0  0  0  0  0  0  0  0
   27.5266  -11.1591  -18.2567 S   0  0  0  0  0  0  0  0  0  0  0  0
   26.0170  -11.9827  -17.8497 C   0  0  0  0  0  0  0  0  0  0  0  0
   25.0644  -11.3383  -16.9255 C   0  0  0  0  0  0  0  0  0  0  0  0
   25.3998  -10.0217  -16.3406 C   0  0  2  0  0  0  0  0  0  0  0  0
   26.3858  -10.1369  -15.2535 N   0  0  0  0  0  0  0  0  0  0  0  0
   24.1407   -9.5080  -15.6860 C   0  0  0  0  0  0  0  0  0  0  0  0
   23.7684  -10.0642  -14.6302 O   0  0  0  0  0  0  0  0  0  0  0  0
   23.3784   -8.4395  -16.2101 N   0  0  0  0  0  0  0  0  0  0  0  0
   22.2057   -7.8800  -15.5378 C   0  0  1  0  0  0  0  0  0  0  0  0
   22.3129   -6.3852  -15.4983 C   0  0  0  0  0  0  0  0  0  0  0  0
   22.5050   -5.7886  -14.1782 C   0  0  0  0  0  0  0  0  0  0  0  0
   22.3761   -6.3725  -13.0829 O   0  0  0  0  0  0  0  0  0  0  0  0
   21.0198   -8.3866  -16.2596 C   0  0  0  0  0  0  0  0  0  0  0  0
   20.8882   -8.2456  -17.4993 O   0  0  0  0  0  0  0  0  0  0  0  0
   22.8698   -4.4329  -14.0876 O   0  0  0  0  0  0  0  0  0  0  0  0
   18.1496  -10.6405  -15.4447 C   0  0  0  0  0  0  0  0  0  0  0  0
   18.8124   -9.5561  -16.2762 C   0  0  2  0  0  0  0  0  0  0  0  0
   19.9710   -9.0647  -15.5469 N   0  0  0  0  0  0  0  0  0  0  0  0
   17.8161   -8.4672  -16.4609 C   0  0  0  0  0  0  0  0  0  0  0  0
   17.1577   -8.3382  -17.6678 O   0  0  0  0  0  0  0  0  0  0  0  0
   17.5962   -7.6723  -15.4831 O   0  0  0  0  0  0  0  0  0  0  0  0
  2  1  1  0
  3  4  1  0
  3  2  1  0
  4  5  1  0
  5  7  1  0
  5  6  1  1
  7  8  2  0
  9 10  1  0
  9  7  1  0
 10 14  1  0
 10 11  1  6
 12 11  1  0
 13 12  2  0
 14 15  2  0
 14 19  1  0
 16 12  1  0
 18 17  1  1
 19 18  1  0
 20 21  1  0
 20 18  1  0
 22 20  2  0
M  END
$$$$
