MDA.pdb
     RDKit          3D

 22 21  0  0  1  0  0  0  0  0999 V2000
   14.8404  -14.5425  -15.5353 C   0  0  0  0  0  0  0  0  0  0  0  0
   15.2253  -14.4807  -17.2812 S   0  0  0  0  0  0  0  0  0  0  0  0
   16.9598  -14.4471  -17.6178 C   0  0  0  0  0  0  0  0  0  0  0  0
   17.8110  -13.4475  -16.9446 C   0  0  0  0  0  0  0  0  0  0  0  0
   19.2725  -13.4690  -17.1720 C   0  0  2  0  0  0  0  0  0  0  0  0
   19.9119  -14.6331  -16.5370 N   0  0  0  0  0  0  0  0  0  0  0  0
   19.8368  -12.2642  -16.4594 C   0  0  0  0  0  0  0  0  0  0  0  0
   20.0335  -12.3589  -15.2285 O   0  0  0  0  0  0  0  0  0  0  0  0
   20.1480  -11.0530  -17.1177 N   0  0  0  0  0  0  0  0  0  0  0  0
   20.6137   -9.8535  -16.4215 C   0  0  1  0  0  0  0  0  0  0  0  0
   21.7256   -9.2182  -17.2010 C   0  0  0  0  0  0  0  0  0  0  0  0
   22.2380   -7.9540  -16.6769 C   0  0  0  0  0  0  0  0  0  0  0  0
   21.6092   -6.8782  -16.6100 O   0  0  0  0  0  0  0  0  0  0  0  0
   19.4318   -8.9871  -16.2301 C   0  0  0  0  0  0  0  0  0  0  0  0
   18.6487   -8.7167  -17.1723 O   0  0  0  0  0  0  0  0  0  0  0  0
   23.5577   -7.8999  -16.1925 O   0  0  0  0  0  0  0  0  0  0  0  0
   17.3204   -7.7266  -13.5268 C   0  0  0  0  0  0  0  0  0  0  0  0
   18.0854   -7.4375  -14.8066 C   0  0  2  0  0  0  0  0  0  0  0  0
   19.1459   -8.4242  -14.9381 N   0  0  0  0  0  0  0  0  0  0  0  0
   18.6609   -6.0716  -14.6808 C   0  0  0  0  0  0  0  0  0  0  0  0
   17.8244   -4.9730  -14.6798 O   0  0  0  0  0  0  0  0  0  0  0  0
   19.9304   -5.9543  -14.5759 O   0  0  0  0  0  0  0  0  0  0  0  0
  2  1  1  0
  3  4  1  0
  3  2  1  0
  4  5  1  0
  5  7  1  0
  5  6  1  1
  7  8  2  0
  9 10  1  0
  9  7  1  0
 10 14  1  0
 10 11  1  6
 12 11  1  0
 13 12  2  0
 14 15  2  0
 14 19  1  0
 16 12  1  0
 18 17  1  1
 19 18  1  0
 20 21  1  0
 20 18  1  0
 22 20  2  0
M  END
$$$$
