MDA.pdb
     RDKit          3D

 22 21  0  0  1  0  0  0  0  0999 V2000
   10.8477  -10.8779   -9.6059 C   0  0  0  0  0  0  0  0  0  0  0  0
   11.3516  -12.5035  -10.1568 S   0  0  0  0  0  0  0  0  0  0  0  0
   12.8351  -12.4917  -11.1170 C   0  0  0  0  0  0  0  0  0  0  0  0
   13.8346  -11.4290  -10.8965 C   0  0  0  0  0  0  0  0  0  0  0  0
   15.0444  -11.3841  -11.7465 C   0  0  2  0  0  0  0  0  0  0  0  0
   15.9259  -12.5395  -11.5116 N   0  0  0  0  0  0  0  0  0  0  0  0
   15.8375  -10.1789  -11.3032 C   0  0  0  0  0  0  0  0  0  0  0  0
   16.5479  -10.2970  -10.2814 O   0  0  0  0  0  0  0  0  0  0  0  0
   15.8104   -8.9424  -11.9869 N   0  0  0  0  0  0  0  0  0  0  0  0
   16.6281   -7.7912  -11.6039 C   0  0  1  0  0  0  0  0  0  0  0  0
   17.2451   -7.1823  -12.8269 C   0  0  0  0  0  0  0  0  0  0  0  0
   18.0891   -6.0099  -12.6059 C   0  0  0  0  0  0  0  0  0  0  0  0
   18.3400   -5.4833  -11.5027 O   0  0  0  0  0  0  0  0  0  0  0  0
   15.7475   -6.8773  -10.8466 C   0  0  0  0  0  0  0  0  0  0  0  0
   14.6574   -6.4684  -11.3143 O   0  0  0  0  0  0  0  0  0  0  0  0
   18.6946   -5.3857  -13.7118 O   0  0  0  0  0  0  0  0  0  0  0  0
   15.6587   -5.6142   -7.3131 C   0  0  0  0  0  0  0  0  0  0  0  0
   15.1943   -5.6216   -8.7592 C   0  0  2  0  0  0  0  0  0  0  0  0
   16.1248   -6.4274   -9.5340 N   0  0  0  0  0  0  0  0  0  0  0  0
   15.2066   -4.2128   -9.2364 C   0  0  0  0  0  0  0  0  0  0  0  0
   14.2644   -3.3209   -8.7639 O   0  0  0  0  0  0  0  0  0  0  0  0
   16.1017   -3.8653  -10.0816 O   0  0  0  0  0  0  0  0  0  0  0  0
  2  1  1  0
  3  4  1  0
  3  2  1  0
  4  5  1  0
  5  7  1  0
  5  6  1  1
  7  8  2  0
  9 10  1  0
  9  7  1  0
 10 14  1  0
 10 11  1  6
 12 11  1  0
 13 12  2  0
 14 15  2  0
 14 19  1  0
 16 12  1  0
 18 17  1  1
 19 18  1  0
 20 21  1  0
 20 18  1  0
 22 20  2  0
M  END
$$$$
