MDA.pdb
     RDKit          3D

 22 21  0  0  1  0  0  0  0  0999 V2000
   28.0812  -13.9014  -15.3974 C   0  0  0  0  0  0  0  0  0  0  0  0
   27.0515  -12.4554  -15.6193 S   0  0  0  0  0  0  0  0  0  0  0  0
   25.3218  -12.8174  -15.6181 C   0  0  0  0  0  0  0  0  0  0  0  0
   24.3496  -11.7180  -15.7690 C   0  0  0  0  0  0  0  0  0  0  0  0
   22.9056  -12.0315  -15.8381 C   0  0  2  0  0  0  0  0  0  0  0  0
   22.5904  -12.9318  -16.9594 N   0  0  0  0  0  0  0  0  0  0  0  0
   22.1984  -10.7361  -16.1539 C   0  0  0  0  0  0  0  0  0  0  0  0
   22.0418  -10.4405  -17.3584 O   0  0  0  0  0  0  0  0  0  0  0  0
   21.7128   -9.8587  -15.1581 N   0  0  0  0  0  0  0  0  0  0  0  0
   20.9739   -8.6315  -15.4556 C   0  0  1  0  0  0  0  0  0  0  0  0
   19.5483   -8.7828  -15.0171 C   0  0  0  0  0  0  0  0  0  0  0  0
   18.7706   -9.8132  -15.7018 C   0  0  0  0  0  0  0  0  0  0  0  0
   18.6834   -9.9678  -16.9370 O   0  0  0  0  0  0  0  0  0  0  0  0
   21.7003   -7.5270  -14.7948 C   0  0  0  0  0  0  0  0  0  0  0  0
   22.2370   -7.6666  -13.6694 O   0  0  0  0  0  0  0  0  0  0  0  0
   18.0371  -10.7376  -14.9358 O   0  0  0  0  0  0  0  0  0  0  0  0
   22.6412   -4.0013  -15.7345 C   0  0  0  0  0  0  0  0  0  0  0  0
   22.5464   -5.1767  -14.7773 C   0  0  2  0  0  0  0  0  0  0  0  0
   21.8116   -6.2450  -15.4364 N   0  0  0  0  0  0  0  0  0  0  0  0
   21.8112   -4.7090  -13.5717 C   0  0  0  0  0  0  0  0  0  0  0  0
   22.4841   -4.0173  -12.5841 O   0  0  0  0  0  0  0  0  0  0  0  0
   20.5609   -4.9652  -13.4850 O   0  0  0  0  0  0  0  0  0  0  0  0
  2  1  1  0
  3  4  1  0
  3  2  1  0
  4  5  1  0
  5  7  1  0
  5  6  1  6
  7  8  2  0
  9 10  1  0
  9  7  1  0
 10 14  1  0
 10 11  1  1
 12 11  1  0
 13 12  2  0
 14 15  2  0
 14 19  1  0
 16 12  1  0
 18 17  1  6
 19 18  1  0
 20 21  1  0
 20 18  1  0
 22 20  2  0
M  END
$$$$
