MDA.pdb
     RDKit          3D

 22 21  0  0  1  0  0  0  0  0999 V2000
   26.8941  -18.5760   -6.9242 C   0  0  0  0  0  0  0  0  0  0  0  0
   28.2223  -19.7093   -7.3136 S   0  0  0  0  0  0  0  0  0  0  0  0
   28.7672  -19.6038   -8.9913 C   0  0  0  0  0  0  0  0  0  0  0  0
   27.8453  -19.9815  -10.0795 C   0  0  0  0  0  0  0  0  0  0  0  0
   27.0504  -21.2230   -9.9579 C   0  0  2  0  0  0  0  0  0  0  0  0
   27.8733  -22.4264  -10.1631 N   0  0  0  0  0  0  0  0  0  0  0  0
   26.0620  -21.2149  -11.0985 C   0  0  0  0  0  0  0  0  0  0  0  0
   26.3592  -21.8602  -12.1270 O   0  0  0  0  0  0  0  0  0  0  0  0
   24.8329  -20.5190  -11.0504 N   0  0  0  0  0  0  0  0  0  0  0  0
   23.7128  -20.7979  -11.9493 C   0  0  1  0  0  0  0  0  0  0  0  0
   22.4256  -20.4102  -11.2858 C   0  0  0  0  0  0  0  0  0  0  0  0
   21.2186  -20.5367  -12.0998 C   0  0  0  0  0  0  0  0  0  0  0  0
   20.5412  -19.5950  -12.5597 O   0  0  0  0  0  0  0  0  0  0  0  0
   23.9894  -20.0772  -13.2096 C   0  0  0  0  0  0  0  0  0  0  0  0
   24.1885  -18.8388  -13.2349 O   0  0  0  0  0  0  0  0  0  0  0  0
   20.7409  -21.8210  -12.4184 O   0  0  0  0  0  0  0  0  0  0  0  0
   24.9350  -20.9994  -16.6854 C   0  0  0  0  0  0  0  0  0  0  0  0
   24.2798  -20.0570  -15.6906 C   0  0  2  0  0  0  0  0  0  0  0  0
   24.0382  -20.7898  -14.4577 N   0  0  0  0  0  0  0  0  0  0  0  0
   22.9935  -19.6069  -16.2867 C   0  0  0  0  0  0  0  0  0  0  0  0
   22.9608  -18.4673  -17.0658 O   0  0  0  0  0  0  0  0  0  0  0  0
   21.9421  -20.2983  -16.0565 O   0  0  0  0  0  0  0  0  0  0  0  0
  2  1  1  0
  3  4  1  0
  3  2  1  0
  4  5  1  0
  5  7  1  0
  5  6  1  6
  7  8  2  0
  9 10  1  0
  9  7  1  0
 10 14  1  0
 10 11  1  1
 12 11  1  0
 13 12  2  0
 14 15  2  0
 14 19  1  0
 16 12  1  0
 18 17  1  6
 19 18  1  0
 20 21  1  0
 20 18  1  0
 22 20  2  0
M  END
$$$$
