MDA.pdb
     RDKit          3D

 22 21  0  0  1  0  0  0  0  0999 V2000
   27.0386  -14.4028  -15.1716 C   0  0  0  0  0  0  0  0  0  0  0  0
   25.4132  -14.7377  -15.8395 S   0  0  0  0  0  0  0  0  0  0  0  0
   25.0609  -13.8353  -17.3175 C   0  0  0  0  0  0  0  0  0  0  0  0
   24.2764  -12.5883  -17.2376 C   0  0  0  0  0  0  0  0  0  0  0  0
   24.5223  -11.6474  -16.1229 C   0  0  2  0  0  0  0  0  0  0  0  0
   24.1780  -12.2366  -14.8185 N   0  0  0  0  0  0  0  0  0  0  0  0
   23.5614  -10.4986  -16.3093 C   0  0  0  0  0  0  0  0  0  0  0  0
   23.6304   -9.8534  -17.3778 O   0  0  0  0  0  0  0  0  0  0  0  0
   22.6013  -10.1298  -15.3401 N   0  0  0  0  0  0  0  0  0  0  0  0
   21.6275   -9.0560  -15.5378 C   0  0  1  0  0  0  0  0  0  0  0  0
   20.2984   -9.4726  -14.9833 C   0  0  0  0  0  0  0  0  0  0  0  0
   19.6056  -10.5379  -15.7050 C   0  0  0  0  0  0  0  0  0  0  0  0
   18.8560  -11.3989  -15.2011 O   0  0  0  0  0  0  0  0  0  0  0  0
   22.1966   -7.8450  -14.9101 C   0  0  0  0  0  0  0  0  0  0  0  0
   22.7028   -7.8690  -13.7624 O   0  0  0  0  0  0  0  0  0  0  0  0
   19.7710  -10.6387  -17.0985 O   0  0  0  0  0  0  0  0  0  0  0  0
   22.7350   -4.2725  -15.9832 C   0  0  0  0  0  0  0  0  0  0  0  0
   22.7537   -5.4108  -14.9779 C   0  0  2  0  0  0  0  0  0  0  0  0
   22.1839   -6.5896  -15.6113 N   0  0  0  0  0  0  0  0  0  0  0  0
   21.9217   -4.9922  -13.8181 C   0  0  0  0  0  0  0  0  0  0  0  0
   22.4613   -4.1703  -12.8486 O   0  0  0  0  0  0  0  0  0  0  0  0
   20.7151   -5.4120  -13.7528 O   0  0  0  0  0  0  0  0  0  0  0  0
  2  1  1  0
  3  4  1  0
  3  2  1  0
  4  5  1  0
  5  7  1  0
  5  6  1  1
  7  8  2  0
  9 10  1  0
  9  7  1  0
 10 14  1  0
 10 11  1  1
 12 11  1  0
 13 12  2  0
 14 15  2  0
 14 19  1  0
 16 12  1  0
 18 17  1  6
 19 18  1  0
 20 21  1  0
 20 18  1  0
 22 20  2  0
M  END
$$$$
