MDA.pdb
     RDKit          3D

 22 21  0  0  1  0  0  0  0  0999 V2000
   27.7201  -12.1142  -15.2266 C   0  0  0  0  0  0  0  0  0  0  0  0
   27.0729  -13.6879  -14.6746 S   0  0  0  0  0  0  0  0  0  0  0  0
   25.3995  -13.9713  -15.1667 C   0  0  0  0  0  0  0  0  0  0  0  0
   24.5897  -12.8452  -15.6698 C   0  0  0  0  0  0  0  0  0  0  0  0
   23.1653  -13.0676  -16.0010 C   0  0  2  0  0  0  0  0  0  0  0  0
   22.9984  -14.0531  -17.0818 N   0  0  0  0  0  0  0  0  0  0  0  0
   22.6454  -11.7665  -16.5619 C   0  0  0  0  0  0  0  0  0  0  0  0
   22.7894  -11.5655  -17.7873 O   0  0  0  0  0  0  0  0  0  0  0  0
   22.0114  -10.7826  -15.7700 N   0  0  0  0  0  0  0  0  0  0  0  0
   21.4160   -9.5650  -16.3207 C   0  0  1  0  0  0  0  0  0  0  0  0
   19.9283   -9.7271  -16.4093 C   0  0  0  0  0  0  0  0  0  0  0  0
   19.1791   -8.5556  -16.8586 C   0  0  0  0  0  0  0  0  0  0  0  0
   19.3441   -7.9474  -17.9356 O   0  0  0  0  0  0  0  0  0  0  0  0
   21.8566   -8.4485  -15.4584 C   0  0  0  0  0  0  0  0  0  0  0  0
   21.8097   -8.5196  -14.2066 O   0  0  0  0  0  0  0  0  0  0  0  0
   18.1689   -8.0321  -16.0313 O   0  0  0  0  0  0  0  0  0  0  0  0
   23.2979   -5.0143  -16.0471 C   0  0  0  0  0  0  0  0  0  0  0  0
   22.7559   -6.1350  -15.1771 C   0  0  2  0  0  0  0  0  0  0  0  0
   22.3582   -7.2342  -16.0427 N   0  0  0  0  0  0  0  0  0  0  0  0
   21.5770   -5.5984  -14.4458 C   0  0  0  0  0  0  0  0  0  0  0  0
   20.3052   -5.8343  -14.9290 O   0  0  0  0  0  0  0  0  0  0  0  0
   21.7796   -4.9255  -13.3769 O   0  0  0  0  0  0  0  0  0  0  0  0
  2  1  1  0
  3  4  1  0
  3  2  1  0
  4  5  1  0
  5  7  1  0
  5  6  1  6
  7  8  2  0
  9 10  1  0
  9  7  1  0
 10 14  1  0
 10 11  1  1
 12 11  1  0
 13 12  2  0
 14 15  2  0
 14 19  1  0
 16 12  1  0
 18 17  1  6
 19 18  1  0
 20 21  1  0
 20 18  1  0
 22 20  2  0
M  END
$$$$
