MDA.pdb
     RDKit          3D

 22 21  0  0  1  0  0  0  0  0999 V2000
   11.3093   -9.1339  -16.2569 C   0  0  0  0  0  0  0  0  0  0  0  0
   12.9234   -8.4687  -15.8665 S   0  0  0  0  0  0  0  0  0  0  0  0
   13.8997   -9.5406  -14.8560 C   0  0  0  0  0  0  0  0  0  0  0  0
   15.3520   -9.3072  -14.7415 C   0  0  0  0  0  0  0  0  0  0  0  0
   16.2905  -10.2415  -15.4005 C   0  0  2  0  0  0  0  0  0  0  0  0
   16.1545  -11.6138  -14.8853 N   0  0  0  0  0  0  0  0  0  0  0  0
   17.6806   -9.8030  -15.0090 C   0  0  0  0  0  0  0  0  0  0  0  0
   18.1030  -10.1519  -13.8854 O   0  0  0  0  0  0  0  0  0  0  0  0
   18.5109   -9.0270  -15.8491 N   0  0  0  0  0  0  0  0  0  0  0  0
   19.9257   -8.7753  -15.5745 C   0  0  1  0  0  0  0  0  0  0  0  0
   20.7653   -9.3854  -16.6564 C   0  0  0  0  0  0  0  0  0  0  0  0
   22.2088   -9.1922  -16.5366 C   0  0  0  0  0  0  0  0  0  0  0  0
   23.0073   -9.0199  -17.4800 O   0  0  0  0  0  0  0  0  0  0  0  0
   20.0785   -7.3117  -15.4374 C   0  0  0  0  0  0  0  0  0  0  0  0
   19.4458   -6.5084  -16.1643 O   0  0  0  0  0  0  0  0  0  0  0  0
   22.7945   -9.1933  -15.2575 O   0  0  0  0  0  0  0  0  0  0  0  0
   22.0015   -5.0196  -13.1458 C   0  0  0  0  0  0  0  0  0  0  0  0
   21.1223   -5.3214  -14.3469 C   0  0  2  0  0  0  0  0  0  0  0  0
   20.9703   -6.7642  -14.4512 N   0  0  0  0  0  0  0  0  0  0  0  0
   21.8144   -4.7848  -15.5493 C   0  0  0  0  0  0  0  0  0  0  0  0
   21.6388   -3.4632  -15.9084 O   0  0  0  0  0  0  0  0  0  0  0  0
   22.5614   -5.5746  -16.2236 O   0  0  0  0  0  0  0  0  0  0  0  0
  2  1  1  0
  3  4  1  0
  3  2  1  0
  4  5  1  0
  5  7  1  0
  5  6  1  1
  7  8  2  0
  9 10  1  0
  9  7  1  0
 10 14  1  0
 10 11  1  6
 12 11  1  0
 13 12  2  0
 14 15  2  0
 14 19  1  0
 16 12  1  0
 18 17  1  1
 19 18  1  0
 20 21  1  0
 20 18  1  0
 22 20  2  0
M  END
$$$$
