LFG.pdb
     RDKit          3D

 24 24  0  0  1  0  0  0  0  0999 V2000
   29.1873  -18.2293  -13.6621 C   0  0  0  0  0  0  0  0  0  0  0  0
   28.5079  -19.4557  -14.1825 C   0  0  2  0  0  0  0  0  0  0  0  0
   27.7773  -19.1010  -15.4634 C   0  0  0  0  0  0  0  0  0  0  0  0
   27.5526  -20.0761  -13.1978 C   0  0  0  0  0  0  0  0  0  0  0  0
   28.3045  -20.4937  -11.9559 C   0  0  2  0  0  0  0  0  0  0  0  0
   29.2960  -21.4962  -12.2374 N   0  0  0  0  0  0  0  0  0  0  0  0
   27.4346  -20.9337  -10.8715 C   0  0  0  0  0  0  0  0  0  0  0  0
   27.0790  -22.1248  -10.6704 O   0  0  0  0  0  0  0  0  0  0  0  0
   26.9289  -19.9757   -9.9502 N   0  0  0  0  0  0  0  0  0  0  0  0
   25.9800  -20.3476   -8.8894 C   0  0  1  0  0  0  0  0  0  0  0  0
   26.1265  -19.3961   -7.7329 C   0  0  0  0  0  0  0  0  0  0  0  0
   27.0962  -19.7456   -6.7048 C   0  0  0  0  0  0  0  0  0  0  0  0
   28.2027  -18.9172   -6.4632 C   0  0  0  0  0  0  0  0  0  0  0  0
   29.1343  -19.2229   -5.4985 C   0  0  0  0  0  0  0  0  0  0  0  0
   29.0079  -20.3605   -4.7347 C   0  0  0  0  0  0  0  0  0  0  0  0
   27.9354  -21.1963   -4.9439 C   0  0  0  0  0  0  0  0  0  0  0  0
   27.0074  -20.8817   -5.9126 C   0  0  0  0  0  0  0  0  0  0  0  0
   24.6323  -20.2436   -9.4878 C   0  0  0  0  0  0  0  0  0  0  0  0
   24.3636  -19.3177  -10.3349 O   0  0  0  0  0  0  0  0  0  0  0  0
   23.5439  -21.1146   -9.2091 N   0  0  0  0  0  0  0  0  0  0  0  0
   22.1663  -20.7372   -9.5413 C   0  0  0  0  0  0  0  0  0  0  0  0
   21.7659  -21.2450  -10.8623 C   0  0  0  0  0  0  0  0  0  0  0  0
   20.6113  -21.0593  -11.2823 O   0  0  0  0  0  0  0  0  0  0  0  0
   22.6774  -21.9270  -11.6304 O   0  0  0  0  0  0  0  0  0  0  0  0
  2  1  1  1
  3  2  1  0
  4  2  1  0
  4  5  1  0
  5  6  1  6
  7  5  1  0
  7  8  2  0
  9  7  1  0
 10  9  1  0
 10 11  1  1
 11 12  1  0
 12 17  2  0
 13 12  1  0
 13 14  2  0
 14 15  1  0
 15 16  2  0
 17 16  1  0
 18 10  1  0
 19 18  2  0
 20 18  1  0
 21 22  1  0
 21 20  1  0
 22 24  1  0
 23 22  2  0
M  END
$$$$
