LFG.pdb
     RDKit          3D

 24 24  0  0  1  0  0  0  0  0999 V2000
   27.7545  -21.1327  -17.3529 C   0  0  0  0  0  0  0  0  0  0  0  0
   28.6129  -21.3141  -16.1418 C   0  0  2  0  0  0  0  0  0  0  0  0
   29.7721  -22.2247  -16.4987 C   0  0  0  0  0  0  0  0  0  0  0  0
   27.8679  -21.8670  -14.9557 C   0  0  0  0  0  0  0  0  0  0  0  0
   26.6894  -20.9772  -14.6373 C   0  0  2  0  0  0  0  0  0  0  0  0
   27.0662  -19.5920  -14.5553 N   0  0  0  0  0  0  0  0  0  0  0  0
   25.9689  -21.3771  -13.4343 C   0  0  0  0  0  0  0  0  0  0  0  0
   25.8388  -22.5633  -13.0326 O   0  0  0  0  0  0  0  0  0  0  0  0
   25.3526  -20.3818  -12.6269 N   0  0  0  0  0  0  0  0  0  0  0  0
   24.5841  -20.7294  -11.4216 C   0  0  1  0  0  0  0  0  0  0  0  0
   24.8634  -19.7181  -10.3429 C   0  0  0  0  0  0  0  0  0  0  0  0
   25.8862  -20.0575   -9.3640 C   0  0  0  0  0  0  0  0  0  0  0  0
   26.5837  -19.0450   -8.6877 C   0  0  0  0  0  0  0  0  0  0  0  0
   27.5548  -19.3367   -7.7581 C   0  0  0  0  0  0  0  0  0  0  0  0
   27.8740  -20.6419   -7.4611 C   0  0  0  0  0  0  0  0  0  0  0  0
   27.2105  -21.6607   -8.1048 C   0  0  0  0  0  0  0  0  0  0  0  0
   26.2393  -21.3586   -9.0344 C   0  0  0  0  0  0  0  0  0  0  0  0
   23.1602  -20.6956  -11.8175 C   0  0  0  0  0  0  0  0  0  0  0  0
   22.7419  -19.8406  -12.6782 O   0  0  0  0  0  0  0  0  0  0  0  0
   22.1514  -21.5637  -11.3179 N   0  0  0  0  0  0  0  0  0  0  0  0
   20.7399  -21.3629  -11.6615 C   0  0  0  0  0  0  0  0  0  0  0  0
   20.4045  -21.9653  -12.9606 C   0  0  0  0  0  0  0  0  0  0  0  0
   21.2624  -22.5981  -13.5989 O   0  0  0  0  0  0  0  0  0  0  0  0
   19.1351  -21.8239  -13.4651 O   0  0  0  0  0  0  0  0  0  0  0  0
  2  1  1  6
  3  2  1  0
  4  2  1  0
  4  5  1  0
  5  6  1  1
  7  5  1  0
  7  8  2  0
  9  7  1  0
 10  9  1  0
 10 11  1  1
 11 12  1  0
 12 17  2  0
 13 12  1  0
 13 14  2  0
 14 15  1  0
 15 16  2  0
 17 16  1  0
 18 10  1  0
 19 18  2  0
 20 18  1  0
 21 22  1  0
 21 20  1  0
 22 24  1  0
 23 22  2  0
M  END
$$$$
