LFG.pdb
     RDKit          3D

 24 24  0  0  1  0  0  0  0  0999 V2000
   24.4009  -31.7241    2.8375 C   0  0  0  0  0  0  0  0  0  0  0  0
   24.2548  -30.7500    3.9628 C   0  0  2  0  0  0  0  0  0  0  0  0
   23.2730  -29.6709    3.5482 C   0  0  0  0  0  0  0  0  0  0  0  0
   25.5574  -30.1269    4.3899 C   0  0  0  0  0  0  0  0  0  0  0  0
   26.4952  -31.2020    4.8864 C   0  0  2  0  0  0  0  0  0  0  0  0
   25.8355  -32.1294    5.7650 N   0  0  0  0  0  0  0  0  0  0  0  0
   27.6988  -30.6752    5.5190 C   0  0  0  0  0  0  0  0  0  0  0  0
   28.4750  -29.8301    5.0005 O   0  0  0  0  0  0  0  0  0  0  0  0
   28.0572  -31.1248    6.8196 N   0  0  0  0  0  0  0  0  0  0  0  0
   29.2577  -30.6254    7.5078 C   0  0  1  0  0  0  0  0  0  0  0  0
   28.8574  -29.9904    8.8120 C   0  0  0  0  0  0  0  0  0  0  0  0
   28.3900  -28.6124    8.7631 C   0  0  0  0  0  0  0  0  0  0  0  0
   27.0164  -28.3315    8.7057 C   0  0  0  0  0  0  0  0  0  0  0  0
   26.5468  -27.0395    8.6587 C   0  0  0  0  0  0  0  0  0  0  0  0
   27.4180  -25.9743    8.6666 C   0  0  0  0  0  0  0  0  0  0  0  0
   28.7719  -26.2120    8.7223 C   0  0  0  0  0  0  0  0  0  0  0  0
   29.2327  -27.5097    8.7691 C   0  0  0  0  0  0  0  0  0  0  0  0
   30.1192  -31.8040    7.7400 C   0  0  0  0  0  0  0  0  0  0  0  0
   29.6078  -32.9277    8.0904 O   0  0  0  0  0  0  0  0  0  0  0  0
   31.5341  -31.8228    7.6036 N   0  0  0  0  0  0  0  0  0  0  0  0
   32.2932  -33.0694    7.7465 C   0  0  0  0  0  0  0  0  0  0  0  0
   32.6176  -33.3513    9.1531 C   0  0  0  0  0  0  0  0  0  0  0  0
   32.2175  -32.5938   10.0532 O   0  0  0  0  0  0  0  0  0  0  0  0
   33.3666  -34.4588    9.4666 O   0  0  0  0  0  0  0  0  0  0  0  0
  2  1  1  6
  3  2  1  0
  4  2  1  0
  4  5  1  0
  5  6  1  1
  7  5  1  0
  7  8  2  0
  9  7  1  0
 10  9  1  0
 10 11  1  1
 11 12  1  0
 12 17  2  0
 13 12  1  0
 13 14  2  0
 14 15  1  0
 15 16  2  0
 17 16  1  0
 18 10  1  0
 19 18  2  0
 20 18  1  0
 21 22  1  0
 21 20  1  0
 22 24  1  0
 23 22  2  0
M  END
$$$$
