LFG.pdb
     RDKit          3D

 24 24  0  0  1  0  0  0  0  0999 V2000
   26.8673  -21.2141  -18.9241 C   0  0  0  0  0  0  0  0  0  0  0  0
   27.9033  -21.5871  -17.9122 C   0  0  2  0  0  0  0  0  0  0  0  0
   28.9542  -22.4484  -18.5861 C   0  0  0  0  0  0  0  0  0  0  0  0
   27.3403  -22.3027  -16.7129 C   0  0  0  0  0  0  0  0  0  0  0  0
   26.3893  -21.3885  -15.9770 C   0  0  2  0  0  0  0  0  0  0  0  0
   26.7297  -20.0025  -16.1519 N   0  0  0  0  0  0  0  0  0  0  0  0
   26.2631  -21.7028  -14.5586 C   0  0  0  0  0  0  0  0  0  0  0  0
   26.1000  -22.8593  -14.0881 O   0  0  0  0  0  0  0  0  0  0  0  0
   26.3237  -20.6515  -13.6030 N   0  0  0  0  0  0  0  0  0  0  0  0
   26.1005  -20.8947  -12.1694 C   0  0  1  0  0  0  0  0  0  0  0  0
   27.0837  -20.0861  -11.3670 C   0  0  0  0  0  0  0  0  0  0  0  0
   26.9260  -20.0958   -9.9198 C   0  0  0  0  0  0  0  0  0  0  0  0
   27.5586  -21.0795   -9.1445 C   0  0  0  0  0  0  0  0  0  0  0  0
   27.4270  -21.1127   -7.7757 C   0  0  0  0  0  0  0  0  0  0  0  0
   26.6643  -20.1736   -7.1199 C   0  0  0  0  0  0  0  0  0  0  0  0
   26.0295  -19.1940   -7.8479 C   0  0  0  0  0  0  0  0  0  0  0  0
   26.1672  -19.1690   -9.2187 C   0  0  0  0  0  0  0  0  0  0  0  0
   24.7142  -20.4641  -11.8899 C   0  0  0  0  0  0  0  0  0  0  0  0
   24.2280  -19.4202  -12.4563 O   0  0  0  0  0  0  0  0  0  0  0  0
   23.8129  -21.1265  -11.0125 N   0  0  0  0  0  0  0  0  0  0  0  0
   22.4898  -20.5657  -10.7196 C   0  0  0  0  0  0  0  0  0  0  0  0
   21.4806  -21.0155  -11.6904 C   0  0  0  0  0  0  0  0  0  0  0  0
   21.8108  -21.7256  -12.6551 O   0  0  0  0  0  0  0  0  0  0  0  0
   20.1687  -20.6453  -11.5241 O   0  0  0  0  0  0  0  0  0  0  0  0
  2  1  1  6
  3  2  1  0
  4  2  1  0
  4  5  1  0
  5  6  1  1
  7  5  1  0
  7  8  2  0
  9  7  1  0
 10  9  1  0
 10 11  1  1
 11 12  1  0
 12 17  2  0
 13 12  1  0
 13 14  2  0
 14 15  1  0
 15 16  2  0
 17 16  1  0
 18 10  1  0
 19 18  2  0
 20 18  1  0
 21 22  1  0
 21 20  1  0
 22 24  1  0
 23 22  2  0
M  END
$$$$
