LFG.pdb
     RDKit          3D

 24 24  0  0  1  0  0  0  0  0999 V2000
   25.7857  -18.1549  -14.6603 C   0  0  0  0  0  0  0  0  0  0  0  0
   25.5239  -19.5303  -15.1858 C   0  0  2  0  0  0  0  0  0  0  0  0
   24.2975  -19.4857  -16.0770 C   0  0  0  0  0  0  0  0  0  0  0  0
   25.3388  -20.5609  -14.1037 C   0  0  0  0  0  0  0  0  0  0  0  0
   26.5444  -20.5626  -13.1934 C   0  0  2  0  0  0  0  0  0  0  0  0
   27.6349  -21.3208  -13.7442 N   0  0  0  0  0  0  0  0  0  0  0  0
   26.2481  -21.0143  -11.8390 C   0  0  0  0  0  0  0  0  0  0  0  0
   26.2631  -22.2149  -11.4598 O   0  0  0  0  0  0  0  0  0  0  0  0
   25.9124  -20.0573  -10.8422 N   0  0  0  0  0  0  0  0  0  0  0  0
   25.5842  -20.4566   -9.4649 C   0  0  1  0  0  0  0  0  0  0  0  0
   26.0021  -19.3661   -8.5160 C   0  0  0  0  0  0  0  0  0  0  0  0
   27.2096  -19.5929   -7.7349 C   0  0  0  0  0  0  0  0  0  0  0  0
   27.6270  -18.6483   -6.7850 C   0  0  0  0  0  0  0  0  0  0  0  0
   28.7634  -18.8366   -6.0332 C   0  0  0  0  0  0  0  0  0  0  0  0
   29.5317  -19.9672   -6.1917 C   0  0  0  0  0  0  0  0  0  0  0  0
   29.1528  -20.9150   -7.1141 C   0  0  0  0  0  0  0  0  0  0  0  0
   28.0128  -20.7174   -7.8625 C   0  0  0  0  0  0  0  0  0  0  0  0
   24.1190  -20.6500   -9.4306 C   0  0  0  0  0  0  0  0  0  0  0  0
   23.3383  -19.8339  -10.0401 O   0  0  0  0  0  0  0  0  0  0  0  0
   23.4489  -21.7079   -8.7578 N   0  0  0  0  0  0  0  0  0  0  0  0
   21.9849  -21.7947   -8.7502 C   0  0  0  0  0  0  0  0  0  0  0  0
   21.4870  -22.4927   -7.5552 C   0  0  0  0  0  0  0  0  0  0  0  0
   22.2825  -22.9273   -6.7054 O   0  0  0  0  0  0  0  0  0  0  0  0
   20.1350  -22.6616   -7.3838 O   0  0  0  0  0  0  0  0  0  0  0  0
  2  1  1  1
  3  2  1  0
  4  2  1  0
  4  5  1  0
  5  6  1  6
  7  5  1  0
  7  8  2  0
  9  7  1  0
 10  9  1  0
 10 11  1  1
 11 12  1  0
 12 17  2  0
 13 12  1  0
 13 14  2  0
 14 15  1  0
 15 16  2  0
 17 16  1  0
 18 10  1  0
 19 18  2  0
 20 18  1  0
 21 22  1  0
 21 20  1  0
 22 24  1  0
 23 22  2  0
M  END
$$$$
