LFG.pdb
     RDKit          3D

 24 24  0  0  1  0  0  0  0  0999 V2000
   11.3572  -14.7451    7.0300 C   0  0  0  0  0  0  0  0  0  0  0  0
   11.1821  -14.4026    5.5848 C   0  0  2  0  0  0  0  0  0  0  0  0
    9.7607  -14.7364    5.1742 C   0  0  0  0  0  0  0  0  0  0  0  0
   12.1595  -15.1039    4.6793 C   0  0  0  0  0  0  0  0  0  0  0  0
   13.5696  -14.7164    5.0579 C   0  0  2  0  0  0  0  0  0  0  0  0
   13.8775  -13.3640    4.6787 N   0  0  0  0  0  0  0  0  0  0  0  0
   14.5814  -15.6295    4.5393 C   0  0  0  0  0  0  0  0  0  0  0  0
   14.5763  -16.1305    3.3841 O   0  0  0  0  0  0  0  0  0  0  0  0
   15.6721  -16.0070    5.3700 N   0  0  0  0  0  0  0  0  0  0  0  0
   16.7491  -16.8828    4.8832 C   0  0  1  0  0  0  0  0  0  0  0  0
   18.0636  -16.1562    4.9761 C   0  0  0  0  0  0  0  0  0  0  0  0
   18.4739  -15.3762    3.8174 C   0  0  0  0  0  0  0  0  0  0  0  0
   18.4506  -13.9739    3.8627 C   0  0  0  0  0  0  0  0  0  0  0  0
   18.8327  -13.2119    2.7831 C   0  0  0  0  0  0  0  0  0  0  0  0
   19.2529  -13.8075    1.6159 C   0  0  0  0  0  0  0  0  0  0  0  0
   19.2886  -15.1804    1.5354 C   0  0  0  0  0  0  0  0  0  0  0  0
   18.9039  -15.9352    2.6221 C   0  0  0  0  0  0  0  0  0  0  0  0
   16.7424  -18.0711    5.7625 C   0  0  0  0  0  0  0  0  0  0  0  0
   16.3549  -17.9784    6.9824 O   0  0  0  0  0  0  0  0  0  0  0  0
   17.1392  -19.3794    5.3730 N   0  0  0  0  0  0  0  0  0  0  0  0
   17.1943  -20.4761    6.3451 C   0  0  0  0  0  0  0  0  0  0  0  0
   16.0328  -21.3702    6.2238 C   0  0  0  0  0  0  0  0  0  0  0  0
   15.1319  -21.1208    5.4052 O   0  0  0  0  0  0  0  0  0  0  0  0
   15.9497  -22.4845    7.0221 O   0  0  0  0  0  0  0  0  0  0  0  0
  2  1  1  1
  3  2  1  0
  4  2  1  0
  4  5  1  0
  5  6  1  6
  7  5  1  0
  7  8  2  0
  9  7  1  0
 10  9  1  0
 10 11  1  1
 11 12  1  0
 12 17  2  0
 13 12  1  0
 13 14  2  0
 14 15  1  0
 15 16  2  0
 17 16  1  0
 18 10  1  0
 19 18  2  0
 20 18  1  0
 21 22  1  0
 21 20  1  0
 22 24  1  0
 23 22  2  0
M  END
$$$$
