LFG.pdb
     RDKit          3D

 24 24  0  0  1  0  0  0  0  0999 V2000
   26.0944  -21.8997  -18.3350 C   0  0  0  0  0  0  0  0  0  0  0  0
   27.1973  -22.5112  -17.5314 C   0  0  2  0  0  0  0  0  0  0  0  0
   27.7069  -23.7400  -18.2599 C   0  0  0  0  0  0  0  0  0  0  0  0
   26.7873  -22.8751  -16.1289 C   0  0  0  0  0  0  0  0  0  0  0  0
   26.3265  -21.6362  -15.3977 C   0  0  2  0  0  0  0  0  0  0  0  0
   27.1626  -20.5011  -15.6798 N   0  0  0  0  0  0  0  0  0  0  0  0
   26.2008  -21.8258  -13.9573 C   0  0  0  0  0  0  0  0  0  0  0  0
   25.6461  -22.8124  -13.4056 O   0  0  0  0  0  0  0  0  0  0  0  0
   26.7319  -20.8447  -13.0755 N   0  0  0  0  0  0  0  0  0  0  0  0
   26.6003  -20.9640  -11.6151 C   0  0  1  0  0  0  0  0  0  0  0  0
   27.6681  -20.1392  -10.9489 C   0  0  0  0  0  0  0  0  0  0  0  0
   27.6807  -20.1209   -9.4932 C   0  0  0  0  0  0  0  0  0  0  0  0
   26.9439  -19.1556   -8.7901 C   0  0  0  0  0  0  0  0  0  0  0  0
   26.9376  -19.1149   -7.4152 C   0  0  0  0  0  0  0  0  0  0  0  0
   27.6601  -20.0278   -6.6817 C   0  0  0  0  0  0  0  0  0  0  0  0
   28.3943  -20.9888   -7.3375 C   0  0  0  0  0  0  0  0  0  0  0  0
   28.3944  -21.0215   -8.7150 C   0  0  0  0  0  0  0  0  0  0  0  0
   25.2548  -20.4514  -11.2800 C   0  0  0  0  0  0  0  0  0  0  0  0
   24.7829  -19.4174  -11.8760 O   0  0  0  0  0  0  0  0  0  0  0  0
   24.3798  -21.0199  -10.3146 N   0  0  0  0  0  0  0  0  0  0  0  0
   23.0481  -20.4553  -10.0725 C   0  0  0  0  0  0  0  0  0  0  0  0
   22.3523  -21.1506   -8.9791 C   0  0  0  0  0  0  0  0  0  0  0  0
   21.2069  -20.8046   -8.6441 O   0  0  0  0  0  0  0  0  0  0  0  0
   22.9772  -22.1864   -8.3292 O   0  0  0  0  0  0  0  0  0  0  0  0
  2  1  1  6
  3  2  1  0
  4  2  1  0
  4  5  1  0
  5  6  1  1
  7  5  1  0
  7  8  2  0
  9  7  1  0
 10  9  1  0
 10 11  1  1
 11 12  1  0
 12 17  2  0
 13 12  1  0
 13 14  2  0
 14 15  1  0
 15 16  2  0
 17 16  1  0
 18 10  1  0
 19 18  2  0
 20 18  1  0
 21 22  1  0
 21 20  1  0
 22 24  1  0
 23 22  2  0
M  END
$$$$
