LFG.pdb
     RDKit          3D

 24 24  0  0  1  0  0  0  0  0999 V2000
   15.6139  -20.9196    3.8468 C   0  0  0  0  0  0  0  0  0  0  0  0
   15.9676  -19.7621    2.9684 C   0  0  2  0  0  0  0  0  0  0  0  0
   16.2340  -20.2780    1.5672 C   0  0  0  0  0  0  0  0  0  0  0  0
   17.1516  -18.9738    3.4624 C   0  0  0  0  0  0  0  0  0  0  0  0
   16.8822  -18.4788    4.8639 C   0  0  2  0  0  0  0  0  0  0  0  0
   15.7016  -17.6608    4.9294 N   0  0  0  0  0  0  0  0  0  0  0  0
   18.0148  -17.7802    5.4602 C   0  0  0  0  0  0  0  0  0  0  0  0
   19.2244  -18.0132    5.1990 O   0  0  0  0  0  0  0  0  0  0  0  0
   17.7771  -16.7516    6.4129 N   0  0  0  0  0  0  0  0  0  0  0  0
   18.8761  -15.9633    6.9916 C   0  0  1  0  0  0  0  0  0  0  0  0
   18.4173  -14.5454    7.1999 C   0  0  0  0  0  0  0  0  0  0  0  0
   19.3073  -13.4866    6.7455 C   0  0  0  0  0  0  0  0  0  0  0  0
   19.0377  -12.7970    5.5536 C   0  0  0  0  0  0  0  0  0  0  0  0
   19.8611  -11.7926    5.1006 C   0  0  0  0  0  0  0  0  0  0  0  0
   20.9839  -11.4309    5.8091 C   0  0  0  0  0  0  0  0  0  0  0  0
   21.2796  -12.0855    6.9825 C   0  0  0  0  0  0  0  0  0  0  0  0
   20.4488  -13.0903    7.4282 C   0  0  0  0  0  0  0  0  0  0  0  0
   19.2064  -16.6036    8.2825 C   0  0  0  0  0  0  0  0  0  0  0  0
   18.2955  -17.1842    8.9753 O   0  0  0  0  0  0  0  0  0  0  0  0
   20.5021  -16.6483    8.8657 N   0  0  0  0  0  0  0  0  0  0  0  0
   20.7206  -17.2566   10.1821 C   0  0  0  0  0  0  0  0  0  0  0  0
   20.7361  -18.7254   10.1076 C   0  0  0  0  0  0  0  0  0  0  0  0
   20.4824  -19.3019    9.0365 O   0  0  0  0  0  0  0  0  0  0  0  0
   21.0331  -19.4573   11.2309 O   0  0  0  0  0  0  0  0  0  0  0  0
  2  1  1  1
  3  2  1  0
  4  2  1  0
  4  5  1  0
  5  6  1  6
  7  5  1  0
  7  8  2  0
  9  7  1  0
 10  9  1  0
 10 11  1  1
 11 12  1  0
 12 17  2  0
 13 12  1  0
 13 14  2  0
 14 15  1  0
 15 16  2  0
 17 16  1  0
 18 10  1  0
 19 18  2  0
 20 18  1  0
 21 22  1  0
 21 20  1  0
 22 24  1  0
 23 22  2  0
M  END
$$$$
