LFG.pdb
     RDKit          3D

 24 24  0  0  1  0  0  0  0  0999 V2000
   23.1195  -18.7514  -16.3847 C   0  0  0  0  0  0  0  0  0  0  0  0
   22.7950  -20.2058  -16.5107 C   0  0  2  0  0  0  0  0  0  0  0  0
   21.3015  -20.3541  -16.7294 C   0  0  0  0  0  0  0  0  0  0  0  0
   23.2265  -21.0221  -15.3213 C   0  0  0  0  0  0  0  0  0  0  0  0
   24.7306  -20.9720  -15.1906 C   0  0  2  0  0  0  0  0  0  0  0  0
   25.3880  -21.6943  -16.2458 N   0  0  0  0  0  0  0  0  0  0  0  0
   25.2154  -21.4229  -13.8913 C   0  0  0  0  0  0  0  0  0  0  0  0
   25.2944  -22.6263  -13.5292 O   0  0  0  0  0  0  0  0  0  0  0  0
   25.6401  -20.4618  -12.9332 N   0  0  0  0  0  0  0  0  0  0  0  0
   26.0408  -20.8503  -11.5720 C   0  0  1  0  0  0  0  0  0  0  0  0
   27.0498  -19.8645  -11.0483 C   0  0  0  0  0  0  0  0  0  0  0  0
   27.5134  -20.0527   -9.6811 C   0  0  0  0  0  0  0  0  0  0  0  0
   26.9364  -19.3234   -8.6304 C   0  0  0  0  0  0  0  0  0  0  0  0
   27.3546  -19.4810   -7.3295 C   0  0  0  0  0  0  0  0  0  0  0  0
   28.3604  -20.3665   -7.0169 C   0  0  0  0  0  0  0  0  0  0  0  0
   28.9494  -21.0987   -8.0218 C   0  0  0  0  0  0  0  0  0  0  0  0
   28.5236  -20.9339   -9.3218 C   0  0  0  0  0  0  0  0  0  0  0  0
   24.8079  -20.8234  -10.7568 C   0  0  0  0  0  0  0  0  0  0  0  0
   23.9891  -19.8390  -10.8435 O   0  0  0  0  0  0  0  0  0  0  0  0
   24.4121  -21.8339   -9.8386 N   0  0  0  0  0  0  0  0  0  0  0  0
   23.1851  -21.7003   -9.0465 C   0  0  0  0  0  0  0  0  0  0  0  0
   23.4768  -21.3957   -7.6375 C   0  0  0  0  0  0  0  0  0  0  0  0
   24.6504  -21.2445   -7.2584 O   0  0  0  0  0  0  0  0  0  0  0  0
   22.4426  -21.2792   -6.7416 O   0  0  0  0  0  0  0  0  0  0  0  0
  2  1  1  1
  3  2  1  0
  4  2  1  0
  4  5  1  0
  5  6  1  6
  7  5  1  0
  7  8  2  0
  9  7  1  0
 10  9  1  0
 10 11  1  1
 11 12  1  0
 12 17  2  0
 13 12  1  0
 13 14  2  0
 14 15  1  0
 15 16  2  0
 17 16  1  0
 18 10  1  0
 19 18  2  0
 20 18  1  0
 21 22  1  0
 21 20  1  0
 22 24  1  0
 23 22  2  0
M  END
$$$$
