LFG.pdb
     RDKit          3D

 24 24  0  0  1  0  0  0  0  0999 V2000
   28.8260  -17.7467  -13.8644 C   0  0  0  0  0  0  0  0  0  0  0  0
   28.1617  -18.9544  -14.4444 C   0  0  2  0  0  0  0  0  0  0  0  0
   27.2860  -18.5188  -15.6036 C   0  0  0  0  0  0  0  0  0  0  0  0
   27.3461  -19.7295  -13.4437 C   0  0  0  0  0  0  0  0  0  0  0  0
   28.2384  -20.2041  -12.3210 C   0  0  2  0  0  0  0  0  0  0  0  0
   29.2329  -21.1357  -12.7796 N   0  0  0  0  0  0  0  0  0  0  0  0
   27.5034  -20.7641  -11.1929 C   0  0  0  0  0  0  0  0  0  0  0  0
   27.2963  -21.9919  -11.0053 O   0  0  0  0  0  0  0  0  0  0  0  0
   26.9641  -19.8907  -10.2088 N   0  0  0  0  0  0  0  0  0  0  0  0
   26.1196  -20.3879   -9.1117 C   0  0  1  0  0  0  0  0  0  0  0  0
   26.1563  -19.4081   -7.9702 C   0  0  0  0  0  0  0  0  0  0  0  0
   27.0111  -19.7388   -6.8392 C   0  0  0  0  0  0  0  0  0  0  0  0
   27.9196  -18.7944   -6.3373 C   0  0  0  0  0  0  0  0  0  0  0  0
   28.7392  -19.0798   -5.2701 C   0  0  0  0  0  0  0  0  0  0  0  0
   28.6922  -20.3109   -4.6573 C   0  0  0  0  0  0  0  0  0  0  0  0
   27.8135  -21.2617   -5.1226 C   0  0  0  0  0  0  0  0  0  0  0  0
   26.9965  -20.9666   -6.1922 C   0  0  0  0  0  0  0  0  0  0  0  0
   24.7527  -20.5009   -9.6633 C   0  0  0  0  0  0  0  0  0  0  0  0
   24.2260  -19.5244  -10.3081 O   0  0  0  0  0  0  0  0  0  0  0  0
   23.9168  -21.6452   -9.5500 N   0  0  0  0  0  0  0  0  0  0  0  0
   22.6585  -21.7420  -10.2971 C   0  0  0  0  0  0  0  0  0  0  0  0
   21.4983  -21.4143   -9.4547 C   0  0  0  0  0  0  0  0  0  0  0  0
   21.6623  -21.0004   -8.2946 O   0  0  0  0  0  0  0  0  0  0  0  0
   20.2303  -21.5687   -9.9587 O   0  0  0  0  0  0  0  0  0  0  0  0
  2  1  1  1
  3  2  1  0
  4  2  1  0
  4  5  1  0
  5  6  1  6
  7  5  1  0
  7  8  2  0
  9  7  1  0
 10  9  1  0
 10 11  1  1
 11 12  1  0
 12 17  2  0
 13 12  1  0
 13 14  2  0
 14 15  1  0
 15 16  2  0
 17 16  1  0
 18 10  1  0
 19 18  2  0
 20 18  1  0
 21 22  1  0
 21 20  1  0
 22 24  1  0
 23 22  2  0
M  END
$$$$
