LFG.pdb
     RDKit          3D

 24 24  0  0  1  0  0  0  0  0999 V2000
   27.4686  -17.6321  -16.7860 C   0  0  0  0  0  0  0  0  0  0  0  0
   28.5281  -18.2291  -15.9157 C   0  0  2  0  0  0  0  0  0  0  0  0
   29.6963  -18.6471  -16.7880 C   0  0  0  0  0  0  0  0  0  0  0  0
   28.0462  -19.4006  -15.1016 C   0  0  0  0  0  0  0  0  0  0  0  0
   26.9003  -18.9670  -14.2180 C   0  0  2  0  0  0  0  0  0  0  0  0
   27.2436  -17.8287  -13.4094 N   0  0  0  0  0  0  0  0  0  0  0  0
   26.3736  -20.0399  -13.3827 C   0  0  0  0  0  0  0  0  0  0  0  0
   26.4707  -21.2685  -13.6408 O   0  0  0  0  0  0  0  0  0  0  0  0
   25.6924  -19.7154  -12.1773 N   0  0  0  0  0  0  0  0  0  0  0  0
   25.0716  -20.7504  -11.3361 C   0  0  1  0  0  0  0  0  0  0  0  0
   25.2380  -20.3815   -9.8868 C   0  0  0  0  0  0  0  0  0  0  0  0
   26.5708  -20.5163   -9.3167 C   0  0  0  0  0  0  0  0  0  0  0  0
   27.5326  -21.3217   -9.9456 C   0  0  0  0  0  0  0  0  0  0  0  0
   28.7992  -21.4671   -9.4293 C   0  0  0  0  0  0  0  0  0  0  0  0
   29.1642  -20.8213   -8.2703 C   0  0  0  0  0  0  0  0  0  0  0  0
   28.2471  -20.0233   -7.6266 C   0  0  0  0  0  0  0  0  0  0  0  0
   26.9807  -19.8838   -8.1514 C   0  0  0  0  0  0  0  0  0  0  0  0
   23.6416  -20.7810  -11.7096 C   0  0  0  0  0  0  0  0  0  0  0  0
   22.9646  -19.6938  -11.7912 O   0  0  0  0  0  0  0  0  0  0  0  0
   22.8990  -21.9559  -12.0081 N   0  0  0  0  0  0  0  0  0  0  0  0
   21.4604  -21.8936  -12.2861 C   0  0  0  0  0  0  0  0  0  0  0  0
   21.1914  -21.6306  -13.7079 C   0  0  0  0  0  0  0  0  0  0  0  0
   21.3389  -22.5311  -14.5513 O   0  0  0  0  0  0  0  0  0  0  0  0
   20.7754  -20.3816  -14.0988 O   0  0  0  0  0  0  0  0  0  0  0  0
  2  1  1  6
  3  2  1  0
  4  2  1  0
  4  5  1  0
  5  6  1  1
  7  5  1  0
  7  8  2  0
  9  7  1  0
 10  9  1  0
 10 11  1  1
 11 12  1  0
 12 17  2  0
 13 12  1  0
 13 14  2  0
 14 15  1  0
 15 16  2  0
 17 16  1  0
 18 10  1  0
 19 18  2  0
 20 18  1  0
 21 22  1  0
 21 20  1  0
 22 24  1  0
 23 22  2  0
M  END
$$$$
