LFG.pdb
     RDKit          3D

 24 24  0  0  1  0  0  0  0  0999 V2000
   26.2949  -16.6551  -16.4013 C   0  0  0  0  0  0  0  0  0  0  0  0
   27.0607  -16.2095  -15.1965 C   0  0  2  0  0  0  0  0  0  0  0  0
   28.3196  -15.4989  -15.6552 C   0  0  0  0  0  0  0  0  0  0  0  0
   27.4145  -17.3346  -14.2604 C   0  0  0  0  0  0  0  0  0  0  0  0
   26.2412  -18.2778  -14.1348 C   0  0  2  0  0  0  0  0  0  0  0  0
   25.0929  -17.6357  -13.5548 N   0  0  0  0  0  0  0  0  0  0  0  0
   26.5564  -19.5022  -13.4082 C   0  0  0  0  0  0  0  0  0  0  0  0
   27.5506  -20.2404  -13.6364 O   0  0  0  0  0  0  0  0  0  0  0  0
   25.7008  -19.9287  -12.3555 N   0  0  0  0  0  0  0  0  0  0  0  0
   25.9474  -21.1754  -11.6145 C   0  0  1  0  0  0  0  0  0  0  0  0
   25.6159  -20.9662  -10.1616 C   0  0  0  0  0  0  0  0  0  0  0  0
   26.6954  -20.5210   -9.2922 C   0  0  0  0  0  0  0  0  0  0  0  0
   27.9139  -21.2163   -9.2624 C   0  0  0  0  0  0  0  0  0  0  0  0
   28.9506  -20.8182   -8.4508 C   0  0  0  0  0  0  0  0  0  0  0  0
   28.8226  -19.7163   -7.6366 C   0  0  0  0  0  0  0  0  0  0  0  0
   27.6420  -19.0101   -7.6397 C   0  0  0  0  0  0  0  0  0  0  0  0
   26.6091  -19.4167   -8.4562 C   0  0  0  0  0  0  0  0  0  0  0  0
   25.0593  -22.1934  -12.2147 C   0  0  0  0  0  0  0  0  0  0  0  0
   25.0689  -23.4029  -11.7857 O   0  0  0  0  0  0  0  0  0  0  0  0
   24.1418  -21.9563  -13.2744 N   0  0  0  0  0  0  0  0  0  0  0  0
   23.2989  -23.0337  -13.8030 C   0  0  0  0  0  0  0  0  0  0  0  0
   22.3760  -22.5449  -14.8386 C   0  0  0  0  0  0  0  0  0  0  0  0
   22.7785  -21.7699  -15.7225 O   0  0  0  0  0  0  0  0  0  0  0  0
   21.0642  -22.9509  -14.8230 O   0  0  0  0  0  0  0  0  0  0  0  0
  2  1  1  6
  3  2  1  0
  4  2  1  0
  4  5  1  0
  5  6  1  1
  7  5  1  0
  7  8  2  0
  9  7  1  0
 10  9  1  0
 10 11  1  1
 11 12  1  0
 12 17  2  0
 13 12  1  0
 13 14  2  0
 14 15  1  0
 15 16  2  0
 17 16  1  0
 18 10  1  0
 19 18  2  0
 20 18  1  0
 21 22  1  0
 21 20  1  0
 22 24  1  0
 23 22  2  0
M  END
$$$$
