LFG.pdb
     RDKit          3D

 24 24  0  0  1  0  0  0  0  0999 V2000
   28.6796  -17.5776  -16.2024 C   0  0  0  0  0  0  0  0  0  0  0  0
   27.7466  -18.4759  -16.9500 C   0  0  2  0  0  0  0  0  0  0  0  0
   26.8558  -17.6250  -17.8347 C   0  0  0  0  0  0  0  0  0  0  0  0
   26.9053  -19.3463  -16.0545 C   0  0  0  0  0  0  0  0  0  0  0  0
   27.8019  -20.1786  -15.1683 C   0  0  2  0  0  0  0  0  0  0  0  0
   28.5922  -21.1116  -15.9249 N   0  0  0  0  0  0  0  0  0  0  0  0
   27.0848  -20.8704  -14.1036 C   0  0  0  0  0  0  0  0  0  0  0  0
   26.5980  -22.0280  -14.1961 O   0  0  0  0  0  0  0  0  0  0  0  0
   26.9005  -20.2225  -12.8512 N   0  0  0  0  0  0  0  0  0  0  0  0
   26.1844  -20.8714  -11.7420 C   0  0  1  0  0  0  0  0  0  0  0  0
   26.8185  -20.4718  -10.4371 C   0  0  0  0  0  0  0  0  0  0  0  0
   28.1823  -20.9212  -10.1972 C   0  0  0  0  0  0  0  0  0  0  0  0
   29.1067  -20.9750  -11.2516 C   0  0  0  0  0  0  0  0  0  0  0  0
   30.4013  -21.3954  -11.0536 C   0  0  0  0  0  0  0  0  0  0  0  0
   30.8325  -21.7792   -9.8045 C   0  0  0  0  0  0  0  0  0  0  0  0
   29.9535  -21.7393   -8.7470 C   0  0  0  0  0  0  0  0  0  0  0  0
   28.6586  -21.3168   -8.9551 C   0  0  0  0  0  0  0  0  0  0  0  0
   24.7883  -20.3909  -11.8166 C   0  0  0  0  0  0  0  0  0  0  0  0
   24.4978  -19.1788  -11.5113 O   0  0  0  0  0  0  0  0  0  0  0  0
   23.6732  -21.1762  -12.2177 N   0  0  0  0  0  0  0  0  0  0  0  0
   22.3177  -20.6166  -12.2324 C   0  0  0  0  0  0  0  0  0  0  0  0
   21.3408  -21.5700  -12.7797 C   0  0  0  0  0  0  0  0  0  0  0  0
   21.7167  -22.6681  -13.2235 O   0  0  0  0  0  0  0  0  0  0  0  0
   20.0081  -21.2391  -12.7973 O   0  0  0  0  0  0  0  0  0  0  0  0
  2  1  1  1
  3  2  1  0
  4  2  1  0
  4  5  1  0
  5  6  1  6
  7  5  1  0
  7  8  2  0
  9  7  1  0
 10  9  1  0
 10 11  1  1
 11 12  1  0
 12 17  2  0
 13 12  1  0
 13 14  2  0
 14 15  1  0
 15 16  2  0
 17 16  1  0
 18 10  1  0
 19 18  2  0
 20 18  1  0
 21 22  1  0
 21 20  1  0
 22 24  1  0
 23 22  2  0
M  END
$$$$
