HAK.pdb
     RDKit          3D

 25 25  0  0  1  0  0  0  0  0999 V2000
   13.2380  -15.8553   17.3725 N   0  0  0  0  0  0  0  0  0  0  0  0
   13.3979  -15.7365   18.8051 C   0  0  1  0  0  0  0  0  0  0  0  0
   13.7558  -14.2945   19.0953 C   0  0  0  0  0  0  0  0  0  0  0  0
   15.2085  -14.1464   18.7875 C   0  0  0  0  0  0  0  0  0  0  0  0
   16.2205  -14.4649   19.6557 C   0  0  0  0  0  0  0  0  0  0  0  0
   17.3938  -14.1914   19.0124 N   0  0  0  0  0  0  0  0  0  0  0  0
   17.1307  -13.7207   17.7909 C   0  0  0  0  0  0  0  0  0  0  0  0
   15.7968  -13.6973   17.6641 N   0  0  0  0  0  0  0  0  0  0  0  0
   12.1679  -16.1630   19.5250 C   0  0  0  0  0  0  0  0  0  0  0  0
   11.0224  -15.9754   19.0749 O   0  0  0  0  0  0  0  0  0  0  0  0
   11.4158  -18.8501   21.6053 C   0  0  0  0  0  0  0  0  0  0  0  0
   11.1703  -17.3472   21.4622 C   0  0  2  0  0  0  0  0  0  0  0  0
   12.3339  -16.8126   20.7826 N   0  0  0  0  0  0  0  0  0  0  0  0
   11.1122  -16.6993   22.8070 C   0  0  0  0  0  0  0  0  0  0  0  0
   12.1978  -16.4166   23.3639 O   0  0  0  0  0  0  0  0  0  0  0  0
    9.9016  -16.4030   23.4537 N   0  0  0  0  0  0  0  0  0  0  0  0
    9.9195  -15.7745   24.7660 C   0  0  1  0  0  0  0  0  0  0  0  0
    8.6761  -14.9486   24.8595 C   0  0  0  0  0  0  0  0  0  0  0  0
    8.4784  -14.2391   26.1443 C   0  0  0  0  0  0  0  0  0  0  0  0
    7.2639  -13.3961   26.1923 C   0  0  0  0  0  0  0  0  0  0  0  0
    7.1862  -12.7158   27.5656 C   0  0  0  0  0  0  0  0  0  0  0  0
    6.1251  -11.7496   27.5918 N   0  0  0  0  0  0  0  0  0  0  0  0
   10.2318  -16.7006   25.8363 C   0  0  0  0  0  0  0  0  0  0  0  0
   10.6210  -16.2883   26.9566 O   0  0  0  0  0  0  0  0  0  0  0  0
   10.1354  -18.0915   25.7244 O   0  0  0  0  0  0  0  0  0  0  0  0
  2  9  1  0
  2  1  1  6
  3  2  1  0
  4  3  1  0
  5  4  2  0
  6  7  1  0
  6  5  1  0
  7  8  2  0
  8  4  1  0
  9 10  2  0
 12 11  1  1
 13 12  1  0
 13  9  1  0
 14 15  2  0
 14 12  1  0
 16 14  1  0
 17 16  1  0
 18 19  1  0
 17 18  1  1
 19 20  1  0
 20 21  1  0
 21 22  1  0
 23 17  1  0
 23 25  1  0
 24 23  2  0
M  END
$$$$
