HAK.pdb
     RDKit          3D

 25 25  0  0  1  0  0  0  0  0999 V2000
   11.5379  -15.3201   17.5673 N   0  0  0  0  0  0  0  0  0  0  0  0
   11.8350  -15.2873   18.9825 C   0  0  1  0  0  0  0  0  0  0  0  0
   12.6168  -14.0177   19.2441 C   0  0  0  0  0  0  0  0  0  0  0  0
   14.0561  -14.3543   19.0389 C   0  0  0  0  0  0  0  0  0  0  0  0
   14.6703  -14.4153   17.8148 C   0  0  0  0  0  0  0  0  0  0  0  0
   15.9744  -14.7503   18.0433 N   0  0  0  0  0  0  0  0  0  0  0  0
   16.1721  -14.8941   19.3560 C   0  0  0  0  0  0  0  0  0  0  0  0
   14.9974  -14.6506   19.9532 N   0  0  0  0  0  0  0  0  0  0  0  0
   10.5932  -15.3575   19.7988 C   0  0  0  0  0  0  0  0  0  0  0  0
    9.4551  -15.2369   19.3089 O   0  0  0  0  0  0  0  0  0  0  0  0
    9.2899  -17.4376   21.5065 C   0  0  0  0  0  0  0  0  0  0  0  0
    9.5928  -16.0124   21.9714 C   0  0  2  0  0  0  0  0  0  0  0  0
   10.7388  -15.5728   21.2001 N   0  0  0  0  0  0  0  0  0  0  0  0
   10.0044  -16.0101   23.4074 C   0  0  0  0  0  0  0  0  0  0  0  0
   10.6377  -17.0034   23.8327 O   0  0  0  0  0  0  0  0  0  0  0  0
    9.7090  -14.9493   24.2788 N   0  0  0  0  0  0  0  0  0  0  0  0
    9.2506  -15.2322   25.6306 C   0  0  1  0  0  0  0  0  0  0  0  0
    7.8152  -14.8157   25.6892 C   0  0  0  0  0  0  0  0  0  0  0  0
    7.5697  -13.4488   26.2034 C   0  0  0  0  0  0  0  0  0  0  0  0
    6.1470  -13.0439   26.1975 C   0  0  0  0  0  0  0  0  0  0  0  0
    6.0300  -11.6341   26.7923 C   0  0  0  0  0  0  0  0  0  0  0  0
    4.6637  -11.1945   26.7858 N   0  0  0  0  0  0  0  0  0  0  0  0
    9.6190  -16.5562   26.0910 C   0  0  0  0  0  0  0  0  0  0  0  0
    9.2323  -17.5843   25.4828 O   0  0  0  0  0  0  0  0  0  0  0  0
   10.4093  -16.8040   27.2182 O   0  0  0  0  0  0  0  0  0  0  0  0
  2  9  1  0
  2  1  1  6
  3  2  1  0
  4  3  1  0
  5  4  2  0
  6  7  1  0
  6  5  1  0
  7  8  2  0
  8  4  1  0
  9 10  2  0
 12 11  1  6
 13 12  1  0
 13  9  1  0
 14 15  2  0
 14 12  1  0
 16 14  1  0
 17 16  1  0
 18 19  1  0
 17 18  1  6
 19 20  1  0
 20 21  1  0
 21 22  1  0
 23 17  1  0
 23 25  1  0
 24 23  2  0
M  END
$$$$
