HAK.pdb
     RDKit          3D

 25 25  0  0  1  0  0  0  0  0999 V2000
    8.2962  -17.2981   17.1351 N   0  0  0  0  0  0  0  0  0  0  0  0
    8.5078  -16.2248   18.0812 C   0  0  1  0  0  0  0  0  0  0  0  0
    7.5867  -15.0916   17.6825 C   0  0  0  0  0  0  0  0  0  0  0  0
    8.0910  -14.5724   16.3774 C   0  0  0  0  0  0  0  0  0  0  0  0
    9.1624  -15.0929   15.6987 C   0  0  0  0  0  0  0  0  0  0  0  0
    9.3071  -14.3519   14.5607 N   0  0  0  0  0  0  0  0  0  0  0  0
    8.3662  -13.4051   14.5251 C   0  0  0  0  0  0  0  0  0  0  0  0
    7.6309  -13.5483   15.6363 N   0  0  0  0  0  0  0  0  0  0  0  0
    8.2654  -16.6774   19.4775 C   0  0  0  0  0  0  0  0  0  0  0  0
    7.1324  -16.9615   19.9084 O   0  0  0  0  0  0  0  0  0  0  0  0
   10.3731  -18.3507   21.8416 C   0  0  0  0  0  0  0  0  0  0  0  0
    9.2259  -17.3553   21.6610 C   0  0  2  0  0  0  0  0  0  0  0  0
    9.3949  -16.7823   20.3402 N   0  0  0  0  0  0  0  0  0  0  0  0
    9.3488  -16.2363   22.6430 C   0  0  0  0  0  0  0  0  0  0  0  0
   10.2438  -15.3832   22.4439 O   0  0  0  0  0  0  0  0  0  0  0  0
    8.5081  -16.1136   23.7611 N   0  0  0  0  0  0  0  0  0  0  0  0
    8.7450  -15.0531   24.7290 C   0  0  1  0  0  0  0  0  0  0  0  0
    7.4572  -14.3046   24.8640 C   0  0  0  0  0  0  0  0  0  0  0  0
    7.4368  -13.2569   25.9106 C   0  0  0  0  0  0  0  0  0  0  0  0
    6.1056  -12.6548   26.1416 C   0  0  0  0  0  0  0  0  0  0  0  0
    6.2072  -11.6572   27.3032 C   0  0  0  0  0  0  0  0  0  0  0  0
    4.9402  -11.0256   27.5395 N   0  0  0  0  0  0  0  0  0  0  0  0
    9.4197  -15.5153   25.9257 C   0  0  0  0  0  0  0  0  0  0  0  0
    9.3327  -16.7115   26.2972 O   0  0  0  0  0  0  0  0  0  0  0  0
   10.2008  -14.7000   26.7514 O   0  0  0  0  0  0  0  0  0  0  0  0
  2  9  1  0
  2  1  1  6
  3  2  1  0
  4  3  1  0
  5  4  2  0
  6  7  1  0
  6  5  1  0
  7  8  2  0
  8  4  1  0
  9 10  2  0
 12 11  1  1
 13 12  1  0
 13  9  1  0
 14 15  2  0
 14 12  1  0
 16 14  1  0
 17 16  1  0
 18 19  1  0
 17 18  1  1
 19 20  1  0
 20 21  1  0
 21 22  1  0
 23 17  1  0
 23 25  1  0
 24 23  2  0
M  END
$$$$
