HAK.pdb
     RDKit          3D

 25 25  0  0  1  0  0  0  0  0999 V2000
    7.3030  -15.4668   20.6122 N   0  0  0  0  0  0  0  0  0  0  0  0
    8.4671  -14.6363   20.8293 C   0  0  1  0  0  0  0  0  0  0  0  0
    8.1619  -13.2776   20.2356 C   0  0  0  0  0  0  0  0  0  0  0  0
    8.1365  -13.4564   18.7542 C   0  0  0  0  0  0  0  0  0  0  0  0
    7.0806  -13.1121   17.9506 C   0  0  0  0  0  0  0  0  0  0  0  0
    7.4387  -13.4275   16.6709 N   0  0  0  0  0  0  0  0  0  0  0  0
    8.6682  -13.9483   16.6698 C   0  0  0  0  0  0  0  0  0  0  0  0
    9.0841  -13.9614   17.9437 N   0  0  0  0  0  0  0  0  0  0  0  0
    8.8101  -14.5508   22.2743 C   0  0  0  0  0  0  0  0  0  0  0  0
    9.7615  -13.8724   22.7038 O   0  0  0  0  0  0  0  0  0  0  0  0
    6.9381  -14.8596   25.2758 C   0  0  0  0  0  0  0  0  0  0  0  0
    8.2726  -15.1953   24.6080 C   0  0  2  0  0  0  0  0  0  0  0  0
    7.9995  -15.2863   23.1872 N   0  0  0  0  0  0  0  0  0  0  0  0
    8.7512  -16.5399   25.0490 C   0  0  0  0  0  0  0  0  0  0  0  0
    8.0658  -17.5367   24.7245 O   0  0  0  0  0  0  0  0  0  0  0  0
    9.9232  -16.7178   25.8017 N   0  0  0  0  0  0  0  0  0  0  0  0
   10.2702  -18.0422   26.2947 C   0  0  1  0  0  0  0  0  0  0  0  0
   11.5829  -18.3976   25.6722 C   0  0  0  0  0  0  0  0  0  0  0  0
   11.6318  -18.3079   24.1948 C   0  0  0  0  0  0  0  0  0  0  0  0
   12.9305  -18.6994   23.6050 C   0  0  0  0  0  0  0  0  0  0  0  0
   12.8083  -18.6746   22.0754 C   0  0  0  0  0  0  0  0  0  0  0  0
   14.0678  -18.9881   21.4626 N   0  0  0  0  0  0  0  0  0  0  0  0
   10.1122  -18.1749   27.7293 C   0  0  0  0  0  0  0  0  0  0  0  0
    9.8751  -17.1744   28.4500 O   0  0  0  0  0  0  0  0  0  0  0  0
   10.2087  -19.3866   28.4214 O   0  0  0  0  0  0  0  0  0  0  0  0
  2  9  1  0
  2  1  1  1
  3  2  1  0
  4  3  1  0
  5  4  2  0
  6  7  1  0
  6  5  1  0
  7  8  2  0
  8  4  1  0
  9 10  2  0
 12 11  1  1
 13 12  1  0
 13  9  1  0
 14 15  2  0
 14 12  1  0
 16 14  1  0
 17 16  1  0
 18 19  1  0
 17 18  1  1
 19 20  1  0
 20 21  1  0
 21 22  1  0
 23 17  1  0
 23 25  1  0
 24 23  2  0
M  END
$$$$
