HAK.pdb
     RDKit          3D

 25 25  0  0  1  0  0  0  0  0999 V2000
    8.7046  -17.2554   18.8644 N   0  0  0  0  0  0  0  0  0  0  0  0
    9.0622  -16.3780   19.9572 C   0  0  1  0  0  0  0  0  0  0  0  0
    7.9541  -15.3549   20.0879 C   0  0  0  0  0  0  0  0  0  0  0  0
    7.9406  -14.5770   18.8144 C   0  0  0  0  0  0  0  0  0  0  0  0
    8.6923  -13.4539   18.5850 C   0  0  0  0  0  0  0  0  0  0  0  0
    8.4038  -13.0376   17.3166 N   0  0  0  0  0  0  0  0  0  0  0  0
    7.5083  -13.8643   16.7713 C   0  0  0  0  0  0  0  0  0  0  0  0
    7.2329  -14.7984   17.6920 N   0  0  0  0  0  0  0  0  0  0  0  0
    9.2715  -17.1398   21.2178 C   0  0  0  0  0  0  0  0  0  0  0  0
    8.3381  -17.4574   21.9779 O   0  0  0  0  0  0  0  0  0  0  0  0
   12.1625  -19.0632   22.4655 C   0  0  0  0  0  0  0  0  0  0  0  0
   10.8455  -18.3285   22.7209 C   0  0  2  0  0  0  0  0  0  0  0  0
   10.6074  -17.5106   21.5479 N   0  0  0  0  0  0  0  0  0  0  0  0
   10.9851  -17.3990   23.8820 C   0  0  0  0  0  0  0  0  0  0  0  0
   11.6482  -16.3503   23.7112 O   0  0  0  0  0  0  0  0  0  0  0  0
   10.4072  -17.6595   25.1349 N   0  0  0  0  0  0  0  0  0  0  0  0
   10.5983  -16.7175   26.2275 C   0  0  1  0  0  0  0  0  0  0  0  0
    9.4652  -15.7440   26.1532 C   0  0  0  0  0  0  0  0  0  0  0  0
    9.4829  -14.6680   27.1707 C   0  0  0  0  0  0  0  0  0  0  0  0
    8.3136  -13.7635   27.1189 C   0  0  0  0  0  0  0  0  0  0  0  0
    8.4583  -12.7022   28.2178 C   0  0  0  0  0  0  0  0  0  0  0  0
    7.2954  -11.8623   28.2657 N   0  0  0  0  0  0  0  0  0  0  0  0
   10.8895  -17.3638   27.4917 C   0  0  0  0  0  0  0  0  0  0  0  0
   10.4194  -18.4958   27.7638 O   0  0  0  0  0  0  0  0  0  0  0  0
   11.6908  -16.8054   28.4930 O   0  0  0  0  0  0  0  0  0  0  0  0
  2  9  1  0
  2  1  1  6
  3  2  1  0
  4  3  1  0
  5  4  2  0
  6  7  1  0
  6  5  1  0
  7  8  2  0
  8  4  1  0
  9 10  2  0
 12 11  1  6
 13 12  1  0
 13  9  1  0
 14 15  2  0
 14 12  1  0
 16 14  1  0
 17 16  1  0
 18 19  1  0
 17 18  1  1
 19 20  1  0
 20 21  1  0
 21 22  1  0
 23 17  1  0
 23 25  1  0
 24 23  2  0
M  END
$$$$
