HAK.pdb
     RDKit          3D

 25 25  0  0  1  0  0  0  0  0999 V2000
    8.6978  -19.0654   17.3283 N   0  0  0  0  0  0  0  0  0  0  0  0
    8.9019  -17.7098   17.7896 C   0  0  1  0  0  0  0  0  0  0  0  0
    7.7718  -16.8735   17.2285 C   0  0  0  0  0  0  0  0  0  0  0  0
    7.9122  -16.9098   15.7432 C   0  0  0  0  0  0  0  0  0  0  0  0
    8.7407  -16.0884   15.0233 C   0  0  0  0  0  0  0  0  0  0  0  0
    8.5877  -16.4265   13.7090 N   0  0  0  0  0  0  0  0  0  0  0  0
    7.7002  -17.4188   13.6065 C   0  0  0  0  0  0  0  0  0  0  0  0
    7.2950  -17.7056   14.8513 N   0  0  0  0  0  0  0  0  0  0  0  0
    8.9609  -17.6457   19.2747 C   0  0  0  0  0  0  0  0  0  0  0  0
    9.2317  -16.6012   19.8955 O   0  0  0  0  0  0  0  0  0  0  0  0
    8.0667  -20.0162   21.9729 C   0  0  0  0  0  0  0  0  0  0  0  0
    8.9332  -18.8812   21.4248 C   0  0  2  0  0  0  0  0  0  0  0  0
    8.6919  -18.8453   19.9958 N   0  0  0  0  0  0  0  0  0  0  0  0
   10.3814  -19.1932   21.6168 C   0  0  0  0  0  0  0  0  0  0  0  0
   10.8907  -20.0684   20.8798 O   0  0  0  0  0  0  0  0  0  0  0  0
   11.1743  -18.5480   22.5795 N   0  0  0  0  0  0  0  0  0  0  0  0
   12.5511  -18.9732   22.7829 C   0  0  1  0  0  0  0  0  0  0  0  0
   13.4182  -17.8771   22.2503 C   0  0  0  0  0  0  0  0  0  0  0  0
   14.8743  -18.0673   22.4422 C   0  0  0  0  0  0  0  0  0  0  0  0
   15.7001  -16.9225   22.0000 C   0  0  0  0  0  0  0  0  0  0  0  0
   17.1725  -17.2240   22.3098 C   0  0  0  0  0  0  0  0  0  0  0  0
   18.0022  -16.1071   21.9572 N   0  0  0  0  0  0  0  0  0  0  0  0
   12.7985  -19.4811   24.1177 C   0  0  0  0  0  0  0  0  0  0  0  0
   12.0827  -19.1295   25.0875 O   0  0  0  0  0  0  0  0  0  0  0  0
   13.8237  -20.3766   24.4397 O   0  0  0  0  0  0  0  0  0  0  0  0
  2  9  1  0
  2  1  1  1
  3  2  1  0
  4  3  1  0
  5  4  2  0
  6  7  1  0
  6  5  1  0
  7  8  2  0
  8  4  1  0
  9 10  2  0
 12 11  1  1
 13 12  1  0
 13  9  1  0
 14 15  2  0
 14 12  1  0
 16 14  1  0
 17 16  1  0
 18 19  1  0
 17 18  1  1
 19 20  1  0
 20 21  1  0
 21 22  1  0
 23 17  1  0
 23 25  1  0
 24 23  2  0
M  END
$$$$
