HAK.pdb
     RDKit          3D

 25 25  0  0  1  0  0  0  0  0999 V2000
    9.6993  -16.4393   18.2149 N   0  0  0  0  0  0  0  0  0  0  0  0
    8.6370  -15.6336   18.7754 C   0  0  1  0  0  0  0  0  0  0  0  0
    7.4873  -15.6652   17.7911 C   0  0  0  0  0  0  0  0  0  0  0  0
    7.9873  -15.0384   16.5324 C   0  0  0  0  0  0  0  0  0  0  0  0
    8.5259  -13.7802   16.4547 C   0  0  0  0  0  0  0  0  0  0  0  0
    8.8603  -13.5736   15.1468 N   0  0  0  0  0  0  0  0  0  0  0  0
    8.5452  -14.6564   14.4319 C   0  0  0  0  0  0  0  0  0  0  0  0
    8.0142  -15.5426   15.2855 N   0  0  0  0  0  0  0  0  0  0  0  0
    8.2352  -16.1262   20.1204 C   0  0  0  0  0  0  0  0  0  0  0  0
    7.2324  -15.7013   20.7236 O   0  0  0  0  0  0  0  0  0  0  0  0
    9.5311  -18.9133   22.2247 C   0  0  0  0  0  0  0  0  0  0  0  0
    8.6665  -17.6694   22.0132 C   0  0  2  0  0  0  0  0  0  0  0  0
    9.0494  -17.1281   20.7240 N   0  0  0  0  0  0  0  0  0  0  0  0
    8.9893  -16.6313   23.0376 C   0  0  0  0  0  0  0  0  0  0  0  0
   10.0457  -15.9753   22.8883 O   0  0  0  0  0  0  0  0  0  0  0  0
    8.1611  -16.3729   24.1417 N   0  0  0  0  0  0  0  0  0  0  0  0
    8.5278  -15.3328   25.0911 C   0  0  1  0  0  0  0  0  0  0  0  0
    7.2995  -14.5097   25.3163 C   0  0  0  0  0  0  0  0  0  0  0  0
    7.4483  -13.3948   26.2797 C   0  0  0  0  0  0  0  0  0  0  0  0
    6.1885  -12.6813   26.5826 C   0  0  0  0  0  0  0  0  0  0  0  0
    6.4685  -11.6092   27.6442 C   0  0  0  0  0  0  0  0  0  0  0  0
    5.2509  -10.9618   28.0423 N   0  0  0  0  0  0  0  0  0  0  0  0
    9.2558  -15.8397   26.2374 C   0  0  0  0  0  0  0  0  0  0  0  0
    9.0060  -16.9745   26.7131 O   0  0  0  0  0  0  0  0  0  0  0  0
   10.2668  -15.1357   26.8997 O   0  0  0  0  0  0  0  0  0  0  0  0
  2  9  1  0
  2  1  1  6
  3  2  1  0
  4  3  1  0
  5  4  2  0
  6  7  1  0
  6  5  1  0
  7  8  2  0
  8  4  1  0
  9 10  2  0
 12 11  1  1
 13 12  1  0
 13  9  1  0
 14 15  2  0
 14 12  1  0
 16 14  1  0
 17 16  1  0
 18 19  1  0
 17 18  1  1
 19 20  1  0
 20 21  1  0
 21 22  1  0
 23 17  1  0
 23 25  1  0
 24 23  2  0
M  END
$$$$
