HAK.pdb
     RDKit          3D

 25 25  0  0  1  0  0  0  0  0999 V2000
    9.9727  -15.8413   19.0674 N   0  0  0  0  0  0  0  0  0  0  0  0
    9.0014  -16.3847   19.9911 C   0  0  1  0  0  0  0  0  0  0  0  0
    8.9352  -17.8763   19.7413 C   0  0  0  0  0  0  0  0  0  0  0  0
    8.5476  -18.0515   18.3108 C   0  0  0  0  0  0  0  0  0  0  0  0
    7.2689  -17.9232   17.8336 C   0  0  0  0  0  0  0  0  0  0  0  0
    7.3237  -18.1560   16.4890 N   0  0  0  0  0  0  0  0  0  0  0  0
    8.5841  -18.4196   16.1354 C   0  0  0  0  0  0  0  0  0  0  0  0
    9.3213  -18.3534   17.2525 N   0  0  0  0  0  0  0  0  0  0  0  0
    9.3580  -16.0692   21.4005 C   0  0  0  0  0  0  0  0  0  0  0  0
   10.3982  -16.4852   21.9434 O   0  0  0  0  0  0  0  0  0  0  0  0
    7.6853  -13.9244   23.9612 C   0  0  0  0  0  0  0  0  0  0  0  0
    8.7936  -14.8708   23.4970 C   0  0  2  0  0  0  0  0  0  0  0  0
    8.4537  -15.2534   22.1407 N   0  0  0  0  0  0  0  0  0  0  0  0
    8.7899  -16.1186   24.3182 C   0  0  0  0  0  0  0  0  0  0  0  0
    8.1435  -17.0993   23.8835 O   0  0  0  0  0  0  0  0  0  0  0  0
    9.4755  -16.2243   25.5391 N   0  0  0  0  0  0  0  0  0  0  0  0
    9.9051  -17.5308   26.0147 C   0  0  1  0  0  0  0  0  0  0  0  0
   10.8803  -18.0510   25.0069 C   0  0  0  0  0  0  0  0  0  0  0  0
   10.4592  -19.2746   24.2866 C   0  0  0  0  0  0  0  0  0  0  0  0
   11.4349  -19.7556   23.2843 C   0  0  0  0  0  0  0  0  0  0  0  0
   10.8523  -20.9857   22.5754 C   0  0  0  0  0  0  0  0  0  0  0  0
   11.7958  -21.5218   21.6360 N   0  0  0  0  0  0  0  0  0  0  0  0
   10.2726  -17.5334   27.4167 C   0  0  0  0  0  0  0  0  0  0  0  0
   10.8204  -16.5346   27.9445 O   0  0  0  0  0  0  0  0  0  0  0  0
   10.0616  -18.6121   28.2819 O   0  0  0  0  0  0  0  0  0  0  0  0
  2  9  1  0
  2  1  1  6
  3  2  1  0
  4  3  1  0
  5  4  2  0
  6  7  1  0
  6  5  1  0
  7  8  2  0
  8  4  1  0
  9 10  2  0
 12 11  1  1
 13 12  1  0
 13  9  1  0
 14 15  2  0
 14 12  1  0
 16 14  1  0
 17 16  1  0
 18 19  1  0
 17 18  1  6
 19 20  1  0
 20 21  1  0
 21 22  1  0
 23 17  1  0
 23 25  1  0
 24 23  2  0
M  END
$$$$
