HAK.pdb
     RDKit          3D

 25 25  0  0  1  0  0  0  0  0999 V2000
   12.3319  -14.8542   17.8600 N   0  0  0  0  0  0  0  0  0  0  0  0
   13.0257  -15.2719   19.0583 C   0  0  1  0  0  0  0  0  0  0  0  0
   13.5845  -14.0237   19.7075 C   0  0  0  0  0  0  0  0  0  0  0  0
   14.8726  -13.7245   19.0158 C   0  0  0  0  0  0  0  0  0  0  0  0
   15.8744  -14.6385   18.8151 C   0  0  0  0  0  0  0  0  0  0  0  0
   16.8766  -13.9876   18.1540 N   0  0  0  0  0  0  0  0  0  0  0  0
   16.5200  -12.7175   17.9475 C   0  0  0  0  0  0  0  0  0  0  0  0
   15.2977  -12.5678   18.4763 N   0  0  0  0  0  0  0  0  0  0  0  0
   12.1238  -16.0220   19.9733 C   0  0  0  0  0  0  0  0  0  0  0  0
   10.9568  -15.6626   20.2159 O   0  0  0  0  0  0  0  0  0  0  0  0
   11.7903  -19.3992   20.9189 C   0  0  0  0  0  0  0  0  0  0  0  0
   11.7877  -17.9718   21.4684 C   0  0  2  0  0  0  0  0  0  0  0  0
   12.6410  -17.2000   20.5866 N   0  0  0  0  0  0  0  0  0  0  0  0
   12.4126  -17.9356   22.8248 C   0  0  0  0  0  0  0  0  0  0  0  0
   13.5419  -17.4047   22.9311 O   0  0  0  0  0  0  0  0  0  0  0  0
   11.7852  -18.4681   23.9626 N   0  0  0  0  0  0  0  0  0  0  0  0
   12.5503  -18.6593   25.1856 C   0  0  1  0  0  0  0  0  0  0  0  0
   11.5612  -18.9788   26.2610 C   0  0  0  0  0  0  0  0  0  0  0  0
   12.1431  -19.3391   27.5743 C   0  0  0  0  0  0  0  0  0  0  0  0
   11.1446  -19.7158   28.5985 C   0  0  0  0  0  0  0  0  0  0  0  0
   11.8780  -20.0752   29.8977 C   0  0  0  0  0  0  0  0  0  0  0  0
   10.9495  -20.5312   30.8927 N   0  0  0  0  0  0  0  0  0  0  0  0
   13.7007  -19.5229   25.0078 C   0  0  0  0  0  0  0  0  0  0  0  0
   14.7801  -19.2955   25.6077 O   0  0  0  0  0  0  0  0  0  0  0  0
   13.7168  -20.6490   24.1782 O   0  0  0  0  0  0  0  0  0  0  0  0
  2  9  1  0
  2  1  1  6
  3  2  1  0
  4  3  1  0
  5  4  2  0
  6  7  1  0
  6  5  1  0
  7  8  2  0
  8  4  1  0
  9 10  2  0
 12 11  1  6
 13 12  1  0
 13  9  1  0
 14 15  2  0
 14 12  1  0
 16 14  1  0
 17 16  1  0
 18 19  1  0
 17 18  1  1
 19 20  1  0
 20 21  1  0
 21 22  1  0
 23 17  1  0
 23 25  1  0
 24 23  2  0
M  END
$$$$
