HAK.pdb
     RDKit          3D

 25 25  0  0  1  0  0  0  0  0999 V2000
    9.5467  -16.5847   19.9265 N   0  0  0  0  0  0  0  0  0  0  0  0
    9.2945  -15.8423   21.1419 C   0  0  1  0  0  0  0  0  0  0  0  0
    7.8130  -15.5336   21.1760 C   0  0  0  0  0  0  0  0  0  0  0  0
    7.5232  -14.7039   19.9698 C   0  0  0  0  0  0  0  0  0  0  0  0
    7.9212  -13.4016   19.8119 C   0  0  0  0  0  0  0  0  0  0  0  0
    7.4684  -12.9956   18.5890 N   0  0  0  0  0  0  0  0  0  0  0  0
    6.8133  -14.0004   18.0025 C   0  0  0  0  0  0  0  0  0  0  0  0
    6.8525  -15.0361   18.8521 N   0  0  0  0  0  0  0  0  0  0  0  0
    9.7351  -16.6023   22.3425 C   0  0  0  0  0  0  0  0  0  0  0  0
    9.6413  -17.8406   22.4300 O   0  0  0  0  0  0  0  0  0  0  0  0
   11.6064  -15.5080   25.3764 C   0  0  0  0  0  0  0  0  0  0  0  0
   10.8908  -16.5671   24.5364 C   0  0  2  0  0  0  0  0  0  0  0  0
   10.2850  -15.8581   23.4265 N   0  0  0  0  0  0  0  0  0  0  0  0
    9.7797  -17.1878   25.3186 C   0  0  0  0  0  0  0  0  0  0  0  0
    8.6146  -16.7882   25.0917 O   0  0  0  0  0  0  0  0  0  0  0  0
    9.9967  -18.1862   26.2818 N   0  0  0  0  0  0  0  0  0  0  0  0
    8.8598  -18.8357   26.9166 C   0  0  1  0  0  0  0  0  0  0  0  0
    8.1304  -19.5688   25.8361 C   0  0  0  0  0  0  0  0  0  0  0  0
    7.0265  -20.4436   26.2938 C   0  0  0  0  0  0  0  0  0  0  0  0
    6.4449  -21.2937   25.2323 C   0  0  0  0  0  0  0  0  0  0  0  0
    5.2393  -22.0496   25.8069 C   0  0  0  0  0  0  0  0  0  0  0  0
    4.5195  -22.7216   24.7627 N   0  0  0  0  0  0  0  0  0  0  0  0
    9.2135  -19.5420   28.1318 C   0  0  0  0  0  0  0  0  0  0  0  0
    8.7335  -19.2026   29.2413 O   0  0  0  0  0  0  0  0  0  0  0  0
   10.0941  -20.6277   28.1812 O   0  0  0  0  0  0  0  0  0  0  0  0
  2  9  1  0
  2  1  1  6
  3  2  1  0
  4  3  1  0
  5  4  2  0
  6  7  1  0
  6  5  1  0
  7  8  2  0
  8  4  1  0
  9 10  2  0
 12 11  1  1
 13 12  1  0
 13  9  1  0
 14 15  2  0
 14 12  1  0
 16 14  1  0
 17 16  1  0
 18 19  1  0
 17 18  1  6
 19 20  1  0
 20 21  1  0
 21 22  1  0
 23 17  1  0
 23 25  1  0
 24 23  2  0
M  END
$$$$
