HAK.pdb
     RDKit          3D

 25 25  0  0  1  0  0  0  0  0999 V2000
   11.3201  -20.6934   18.4606 N   0  0  0  0  0  0  0  0  0  0  0  0
   11.7249  -19.3096   18.3464 C   0  0  1  0  0  0  0  0  0  0  0  0
   10.9599  -18.7163   17.1827 C   0  0  0  0  0  0  0  0  0  0  0  0
   11.6360  -19.1940   15.9410 C   0  0  0  0  0  0  0  0  0  0  0  0
   11.1001  -20.1063   15.0694 C   0  0  0  0  0  0  0  0  0  0  0  0
   12.0133  -20.2808   14.0691 N   0  0  0  0  0  0  0  0  0  0  0  0
   13.0789  -19.5105   14.3018 C   0  0  0  0  0  0  0  0  0  0  0  0
   12.8387  -18.8527   15.4444 N   0  0  0  0  0  0  0  0  0  0  0  0
   11.4810  -18.5673   19.6124 C   0  0  0  0  0  0  0  0  0  0  0  0
   11.8405  -17.3878   19.7839 O   0  0  0  0  0  0  0  0  0  0  0  0
    9.1259  -18.9907   22.3275 C   0  0  0  0  0  0  0  0  0  0  0  0
   10.5327  -18.5654   21.9039 C   0  0  2  0  0  0  0  0  0  0  0  0
   10.8046  -19.2579   20.6597 N   0  0  0  0  0  0  0  0  0  0  0  0
   11.5412  -19.0397   22.8987 C   0  0  0  0  0  0  0  0  0  0  0  0
   11.8759  -20.2459   22.8579 O   0  0  0  0  0  0  0  0  0  0  0  0
   12.1145  -18.1916   23.8599 N   0  0  0  0  0  0  0  0  0  0  0  0
   12.9723  -18.7494   24.8945 C   0  0  1  0  0  0  0  0  0  0  0  0
   14.3161  -18.1163   24.7204 C   0  0  0  0  0  0  0  0  0  0  0  0
   15.3643  -18.5795   25.6585 C   0  0  0  0  0  0  0  0  0  0  0  0
   16.7098  -18.0286   25.3863 C   0  0  0  0  0  0  0  0  0  0  0  0
   17.7084  -18.6481   26.3733 C   0  0  0  0  0  0  0  0  0  0  0  0
   19.0415  -18.1951   26.0947 N   0  0  0  0  0  0  0  0  0  0  0  0
   12.3570  -18.7458   26.2069 C   0  0  0  0  0  0  0  0  0  0  0  0
   12.8378  -19.4218   27.1494 O   0  0  0  0  0  0  0  0  0  0  0  0
   11.2086  -18.0172   26.5339 O   0  0  0  0  0  0  0  0  0  0  0  0
  2  9  1  0
  2  1  1  1
  3  2  1  0
  4  3  1  0
  5  4  2  0
  6  7  1  0
  6  5  1  0
  7  8  2  0
  8  4  1  0
  9 10  2  0
 12 11  1  1
 13 12  1  0
 13  9  1  0
 14 15  2  0
 14 12  1  0
 16 14  1  0
 17 16  1  0
 18 19  1  0
 17 18  1  1
 19 20  1  0
 20 21  1  0
 21 22  1  0
 23 17  1  0
 23 25  1  0
 24 23  2  0
M  END
$$$$
