HAK.pdb
     RDKit          3D

 25 25  0  0  1  0  0  0  0  0999 V2000
    8.0778  -17.6315   18.6316 N   0  0  0  0  0  0  0  0  0  0  0  0
    8.1565  -16.7380   19.7663 C   0  0  1  0  0  0  0  0  0  0  0  0
    7.0432  -15.7238   19.6126 C   0  0  0  0  0  0  0  0  0  0  0  0
    7.6915  -14.3797   19.5946 C   0  0  0  0  0  0  0  0  0  0  0  0
    9.0459  -14.1726   19.6356 C   0  0  0  0  0  0  0  0  0  0  0  0
    9.2402  -12.8212   19.6015 N   0  0  0  0  0  0  0  0  0  0  0  0
    8.0575  -12.2043   19.5416 C   0  0  0  0  0  0  0  0  0  0  0  0
    7.1209  -13.1628   19.5379 N   0  0  0  0  0  0  0  0  0  0  0  0
    8.0609  -17.4830   21.0504 C   0  0  0  0  0  0  0  0  0  0  0  0
    6.9992  -17.5900   21.6918 O   0  0  0  0  0  0  0  0  0  0  0  0
    9.7791  -20.1952   22.5307 C   0  0  0  0  0  0  0  0  0  0  0  0
    9.2056  -18.8049   22.8090 C   0  0  2  0  0  0  0  0  0  0  0  0
    9.2497  -18.0919   21.5475 N   0  0  0  0  0  0  0  0  0  0  0  0
   10.0826  -18.0618   23.7630 C   0  0  0  0  0  0  0  0  0  0  0  0
   11.0885  -17.4798   23.2961 O   0  0  0  0  0  0  0  0  0  0  0  0
    9.8195  -17.9969   25.1408 N   0  0  0  0  0  0  0  0  0  0  0  0
   10.7312  -17.2759   26.0164 C   0  0  1  0  0  0  0  0  0  0  0  0
    9.8805  -16.5139   26.9821 C   0  0  0  0  0  0  0  0  0  0  0  0
   10.6170  -15.7738   28.0324 C   0  0  0  0  0  0  0  0  0  0  0  0
    9.7539  -14.9853   28.9387 C   0  0  0  0  0  0  0  0  0  0  0  0
   10.6389  -14.2666   29.9659 C   0  0  0  0  0  0  0  0  0  0  0  0
    9.8428  -13.4428   30.8306 N   0  0  0  0  0  0  0  0  0  0  0  0
   11.8055  -18.1047   26.5261 C   0  0  0  0  0  0  0  0  0  0  0  0
   11.6225  -19.3218   26.7743 O   0  0  0  0  0  0  0  0  0  0  0  0
   13.1002  -17.6419   26.7832 O   0  0  0  0  0  0  0  0  0  0  0  0
  2  9  1  0
  2  1  1  6
  3  2  1  0
  4  3  1  0
  5  4  2  0
  6  7  1  0
  6  5  1  0
  7  8  2  0
  8  4  1  0
  9 10  2  0
 12 11  1  6
 13 12  1  0
 13  9  1  0
 14 15  2  0
 14 12  1  0
 16 14  1  0
 17 16  1  0
 18 19  1  0
 17 18  1  1
 19 20  1  0
 20 21  1  0
 21 22  1  0
 23 17  1  0
 23 25  1  0
 24 23  2  0
M  END
$$$$
