HAK.pdb
     RDKit          3D

 25 25  0  0  1  0  0  0  0  0999 V2000
    8.0753  -13.4091   19.3759 N   0  0  0  0  0  0  0  0  0  0  0  0
    7.8656  -14.5867   20.1891 C   0  0  1  0  0  0  0  0  0  0  0  0
    8.4909  -15.7529   19.4538 C   0  0  0  0  0  0  0  0  0  0  0  0
    7.7048  -15.9355   18.1985 C   0  0  0  0  0  0  0  0  0  0  0  0
    6.4415  -16.4654   18.1461 C   0  0  0  0  0  0  0  0  0  0  0  0
    6.0675  -16.4660   16.8326 N   0  0  0  0  0  0  0  0  0  0  0  0
    7.0542  -15.9579   16.0901 C   0  0  0  0  0  0  0  0  0  0  0  0
    8.0466  -15.6379   16.9319 N   0  0  0  0  0  0  0  0  0  0  0  0
    8.4373  -14.4134   21.5515 C   0  0  0  0  0  0  0  0  0  0  0  0
    9.6590  -14.4725   21.7840 O   0  0  0  0  0  0  0  0  0  0  0  0
    6.9110  -13.3960   24.7868 C   0  0  0  0  0  0  0  0  0  0  0  0
    8.0406  -14.0231   23.9682 C   0  0  2  0  0  0  0  0  0  0  0  0
    7.5269  -14.1700   22.6206 N   0  0  0  0  0  0  0  0  0  0  0  0
    8.3480  -15.3955   24.4719 C   0  0  0  0  0  0  0  0  0  0  0  0
    7.4882  -16.2879   24.2906 O   0  0  0  0  0  0  0  0  0  0  0  0
    9.5480  -15.7101   25.1297 N   0  0  0  0  0  0  0  0  0  0  0  0
    9.7566  -17.0544   25.6464 C   0  0  1  0  0  0  0  0  0  0  0  0
   11.0785  -17.5131   25.1180 C   0  0  0  0  0  0  0  0  0  0  0  0
   11.1669  -17.6362   23.6447 C   0  0  0  0  0  0  0  0  0  0  0  0
   12.4605  -18.1604   23.1554 C   0  0  0  0  0  0  0  0  0  0  0  0
   12.4741  -18.0955   21.6222 C   0  0  0  0  0  0  0  0  0  0  0  0
   13.7460  -18.5190   21.1096 N   0  0  0  0  0  0  0  0  0  0  0  0
    9.4889  -17.1660   27.0665 C   0  0  0  0  0  0  0  0  0  0  0  0
    9.3360  -16.1436   27.7791 O   0  0  0  0  0  0  0  0  0  0  0  0
    9.3825  -18.3804   27.7526 O   0  0  0  0  0  0  0  0  0  0  0  0
  2  9  1  0
  2  1  1  6
  3  2  1  0
  4  3  1  0
  5  4  2  0
  6  7  1  0
  6  5  1  0
  7  8  2  0
  8  4  1  0
  9 10  2  0
 12 11  1  1
 13 12  1  0
 13  9  1  0
 14 15  2  0
 14 12  1  0
 16 14  1  0
 17 16  1  0
 18 19  1  0
 17 18  1  1
 19 20  1  0
 20 21  1  0
 21 22  1  0
 23 17  1  0
 23 25  1  0
 24 23  2  0
M  END
$$$$
