TQG.pdb
     RDKit          3D

 21 20  0  0  1  0  0  0  0  0999 V2000
   12.4723  -18.2916   17.7410 C   0  0  0  0  0  0  0  0  0  0  0  0
   12.8266  -17.6972   19.0862 C   0  0  1  0  0  0  0  0  0  0  0  0
   13.3123  -16.4052   18.8456 O   0  0  0  0  0  0  0  0  0  0  0  0
   11.5553  -17.5990   19.8905 C   0  0  2  0  0  0  0  0  0  0  0  0
   10.5552  -16.9230   19.1214 N   0  0  0  0  0  0  0  0  0  0  0  0
   11.7671  -16.9249   21.1908 C   0  0  0  0  0  0  0  0  0  0  0  0
   11.7098  -15.6764   21.3297 O   0  0  0  0  0  0  0  0  0  0  0  0
   11.3647  -19.7465   26.8058 N   0  0  0  0  0  0  0  0  0  0  0  0
   11.7334  -18.4387   27.1504 C   0  0  0  0  0  0  0  0  0  0  0  0
   11.9178  -18.1132   28.3320 O   0  0  0  0  0  0  0  0  0  0  0  0
   11.9066  -17.4241   26.0805 C   0  0  0  0  0  0  0  0  0  0  0  0
   11.6515  -18.0067   24.7169 C   0  0  0  0  0  0  0  0  0  0  0  0
   12.2453  -17.1625   23.6644 C   0  0  2  0  0  0  0  0  0  0  0  0
   12.0441  -17.6972   22.3248 N   0  0  0  0  0  0  0  0  0  0  0  0
   13.6702  -16.8341   23.7932 C   0  0  0  0  0  0  0  0  0  0  0  0
   14.0897  -16.1661   24.7480 O   0  0  0  0  0  0  0  0  0  0  0  0
   14.6440  -17.2689   22.8233 N   0  0  0  0  0  0  0  0  0  0  0  0
   16.0491  -17.0643   23.0925 C   0  0  0  0  0  0  0  0  0  0  0  0
   16.4343  -15.6540   23.0509 C   0  0  0  0  0  0  0  0  0  0  0  0
   16.3329  -14.9493   24.0842 O   0  0  0  0  0  0  0  0  0  0  0  0
   16.9136  -15.0539   21.9019 O   0  0  0  0  0  0  0  0  0  0  0  0
  2  4  1  0
  2  1  1  6
  3  2  1  0
  4  5  1  6
  6  4  1  0
  7  6  2  0
  8  9  1  0
  9 10  2  0
 11  9  1  0
 11 12  1  0
 13 12  1  1
 13 15  1  0
 13 14  1  0
 14  6  1  0
 15 17  1  0
 16 15  2  0
 17 18  1  0
 18 19  1  0
 19 20  2  0
 19 21  1  0
M  END
$$$$
