TQG.pdb
     RDKit          3D

 21 20  0  0  1  0  0  0  0  0999 V2000
    6.9586  -14.3387   17.4504 C   0  0  0  0  0  0  0  0  0  0  0  0
    7.6280  -14.6396   18.7732 C   0  0  1  0  0  0  0  0  0  0  0  0
    8.9591  -14.9729   18.4898 O   0  0  0  0  0  0  0  0  0  0  0  0
    7.6054  -13.3751   19.5937 C   0  0  2  0  0  0  0  0  0  0  0  0
    8.2319  -12.3184   18.8591 N   0  0  0  0  0  0  0  0  0  0  0  0
    8.2489  -13.5541   20.9144 C   0  0  0  0  0  0  0  0  0  0  0  0
    9.3802  -13.0806   21.1923 O   0  0  0  0  0  0  0  0  0  0  0  0
    6.8715  -17.1736   25.1441 N   0  0  0  0  0  0  0  0  0  0  0  0
    7.6000  -16.3198   25.9839 C   0  0  0  0  0  0  0  0  0  0  0  0
    8.1314  -16.7392   27.0219 O   0  0  0  0  0  0  0  0  0  0  0  0
    7.7379  -14.8861   25.6237 C   0  0  0  0  0  0  0  0  0  0  0  0
    7.1150  -14.5876   24.2870 C   0  0  0  0  0  0  0  0  0  0  0  0
    8.1320  -14.5909   23.2198 C   0  0  2  0  0  0  0  0  0  0  0  0
    7.5816  -14.2798   21.9080 N   0  0  0  0  0  0  0  0  0  0  0  0
    8.9467  -15.8032   23.0744 C   0  0  0  0  0  0  0  0  0  0  0  0
    8.4488  -16.8658   22.6784 O   0  0  0  0  0  0  0  0  0  0  0  0
   10.3548  -15.8176   23.3825 N   0  0  0  0  0  0  0  0  0  0  0  0
   11.1098  -17.0333   23.1807 C   0  0  0  0  0  0  0  0  0  0  0  0
   12.4947  -16.9224   23.6377 C   0  0  0  0  0  0  0  0  0  0  0  0
   13.1268  -15.8534   23.4580 O   0  0  0  0  0  0  0  0  0  0  0  0
   13.1482  -17.9631   24.2702 O   0  0  0  0  0  0  0  0  0  0  0  0
  2  4  1  0
  2  1  1  6
  3  2  1  0
  4  5  1  6
  6  4  1  0
  7  6  2  0
  8  9  1  0
  9 10  2  0
 11  9  1  0
 11 12  1  0
 13 12  1  1
 13 15  1  0
 13 14  1  0
 14  6  1  0
 15 17  1  0
 16 15  2  0
 17 18  1  0
 18 19  1  0
 19 20  2  0
 19 21  1  0
M  END
$$$$
