TQG.pdb
     RDKit          3D

 21 20  0  0  1  0  0  0  0  0999 V2000
    9.6045  -16.3819   17.0971 C   0  0  0  0  0  0  0  0  0  0  0  0
    9.3826  -14.9162   16.7958 C   0  0  1  0  0  0  0  0  0  0  0  0
    8.4364  -14.8510   15.7644 O   0  0  0  0  0  0  0  0  0  0  0  0
    8.8015  -14.2792   18.0324 C   0  0  2  0  0  0  0  0  0  0  0  0
    8.2307  -13.0113   17.6927 N   0  0  0  0  0  0  0  0  0  0  0  0
    9.8045  -14.1351   19.1110 C   0  0  0  0  0  0  0  0  0  0  0  0
   10.7064  -13.2589   19.0918 O   0  0  0  0  0  0  0  0  0  0  0  0
    9.5362  -16.8077   24.8810 N   0  0  0  0  0  0  0  0  0  0  0  0
   10.8689  -16.3819   24.7938 C   0  0  0  0  0  0  0  0  0  0  0  0
   11.6429  -16.4920   25.7555 O   0  0  0  0  0  0  0  0  0  0  0  0
   11.3631  -15.7879   23.5262 C   0  0  0  0  0  0  0  0  0  0  0  0
   10.2801  -15.7255   22.4835 C   0  0  0  0  0  0  0  0  0  0  0  0
   10.7672  -15.0678   21.2574 C   0  0  2  0  0  0  0  0  0  0  0  0
    9.7605  -15.0045   20.2070 N   0  0  0  0  0  0  0  0  0  0  0  0
   11.9945  -15.6005   20.6535 C   0  0  0  0  0  0  0  0  0  0  0  0
   11.9545  -16.5271   19.8327 O   0  0  0  0  0  0  0  0  0  0  0  0
   13.2964  -15.0764   20.9827 N   0  0  0  0  0  0  0  0  0  0  0  0
   14.4745  -15.7380   20.4699 C   0  0  0  0  0  0  0  0  0  0  0  0
   15.7031  -14.9878   20.7286 C   0  0  0  0  0  0  0  0  0  0  0  0
   16.0876  -14.8094   21.9097 O   0  0  0  0  0  0  0  0  0  0  0  0
   16.4721  -14.4578   19.7099 O   0  0  0  0  0  0  0  0  0  0  0  0
  2  4  1  0
  2  1  1  1
  3  2  1  0
  4  5  1  6
  6  4  1  0
  7  6  2  0
  8  9  1  0
  9 10  2  0
 11  9  1  0
 11 12  1  0
 13 12  1  1
 13 15  1  0
 13 14  1  0
 14  6  1  0
 15 17  1  0
 16 15  2  0
 17 18  1  0
 18 19  1  0
 19 20  2  0
 19 21  1  0
M  END
$$$$
