TQG.pdb
     RDKit          3D

 21 20  0  0  1  0  0  0  0  0999 V2000
    8.0709  -14.7367   17.0339 C   0  0  0  0  0  0  0  0  0  0  0  0
    8.4548  -14.8410   18.4934 C   0  0  1  0  0  0  0  0  0  0  0  0
    9.8434  -14.6668   18.5628 O   0  0  0  0  0  0  0  0  0  0  0  0
    7.7832  -13.7062   19.2239 C   0  0  2  0  0  0  0  0  0  0  0  0
    8.1216  -12.4664   18.5937 N   0  0  0  0  0  0  0  0  0  0  0  0
    8.1340  -13.6813   20.6614 C   0  0  0  0  0  0  0  0  0  0  0  0
    8.8751  -12.8007   21.1680 O   0  0  0  0  0  0  0  0  0  0  0  0
    6.6275  -18.0215   24.7584 N   0  0  0  0  0  0  0  0  0  0  0  0
    6.9947  -16.9852   25.6279 C   0  0  0  0  0  0  0  0  0  0  0  0
    7.2661  -17.2091   26.8163 O   0  0  0  0  0  0  0  0  0  0  0  0
    7.0599  -15.5929   25.1165 C   0  0  0  0  0  0  0  0  0  0  0  0
    6.7908  -15.5322   23.6373 C   0  0  0  0  0  0  0  0  0  0  0  0
    7.7977  -14.7009   22.9529 C   0  0  2  0  0  0  0  0  0  0  0  0
    7.6265  -14.6745   21.5070 N   0  0  0  0  0  0  0  0  0  0  0  0
    9.2093  -15.0030   23.2193 C   0  0  0  0  0  0  0  0  0  0  0  0
    9.7017  -14.8247   24.3416 O   0  0  0  0  0  0  0  0  0  0  0  0
   10.0853  -15.5178   22.1969 N   0  0  0  0  0  0  0  0  0  0  0  0
   11.4115  -15.9622   22.5610 C   0  0  0  0  0  0  0  0  0  0  0  0
   12.1531  -16.5180   21.4295 C   0  0  0  0  0  0  0  0  0  0  0  0
   13.3132  -16.9636   21.6029 O   0  0  0  0  0  0  0  0  0  0  0  0
   11.6212  -16.5742   20.1551 O   0  0  0  0  0  0  0  0  0  0  0  0
  2  4  1  0
  2  1  1  6
  3  2  1  0
  4  5  1  6
  6  4  1  0
  7  6  2  0
  8  9  1  0
  9 10  2  0
 11  9  1  0
 11 12  1  0
 13 12  1  1
 13 15  1  0
 13 14  1  0
 14  6  1  0
 15 17  1  0
 16 15  2  0
 17 18  1  0
 18 19  1  0
 19 20  2  0
 19 21  1  0
M  END
$$$$
