TQG.pdb
     RDKit          3D

 21 20  0  0  1  0  0  0  0  0999 V2000
   12.4583  -19.2446   17.8974 C   0  0  0  0  0  0  0  0  0  0  0  0
   11.0719  -18.7318   17.5760 C   0  0  1  0  0  0  0  0  0  0  0  0
   10.6121  -19.4641   16.4735 O   0  0  0  0  0  0  0  0  0  0  0  0
   10.1896  -19.0286   18.7617 C   0  0  2  0  0  0  0  0  0  0  0  0
    8.8165  -18.8970   18.3795 N   0  0  0  0  0  0  0  0  0  0  0  0
   10.5006  -18.1625   19.9207 C   0  0  0  0  0  0  0  0  0  0  0  0
   10.1659  -16.9517   19.9774 O   0  0  0  0  0  0  0  0  0  0  0  0
   12.5775  -19.9486   25.3721 N   0  0  0  0  0  0  0  0  0  0  0  0
   12.6886  -18.5584   25.5127 C   0  0  0  0  0  0  0  0  0  0  0  0
   13.3516  -18.0564   26.4316 O   0  0  0  0  0  0  0  0  0  0  0  0
   11.9996  -17.6701   24.5430 C   0  0  0  0  0  0  0  0  0  0  0  0
   11.3501  -18.4552   23.4359 C   0  0  0  0  0  0  0  0  0  0  0  0
   11.7354  -17.9222   22.1165 C   0  0  2  0  0  0  0  0  0  0  0  0
   11.1974  -18.7001   21.0092 N   0  0  0  0  0  0  0  0  0  0  0  0
   13.1688  -17.7351   21.8620 C   0  0  0  0  0  0  0  0  0  0  0  0
   13.6913  -18.1385   20.8141 O   0  0  0  0  0  0  0  0  0  0  0  0
   14.0327  -17.0781   22.8107 N   0  0  0  0  0  0  0  0  0  0  0  0
   15.3771  -16.7246   22.4151 C   0  0  0  0  0  0  0  0  0  0  0  0
   16.1492  -16.1271   23.5041 C   0  0  0  0  0  0  0  0  0  0  0  0
   17.3598  -15.8471   23.3294 O   0  0  0  0  0  0  0  0  0  0  0  0
   15.5924  -15.8527   24.7390 O   0  0  0  0  0  0  0  0  0  0  0  0
  2  4  1  0
  2  1  1  1
  3  2  1  0
  4  5  1  6
  6  4  1  0
  7  6  2  0
  8  9  1  0
  9 10  2  0
 11  9  1  0
 11 12  1  0
 13 12  1  1
 13 15  1  0
 13 14  1  0
 14  6  1  0
 15 17  1  0
 16 15  2  0
 17 18  1  0
 18 19  1  0
 19 20  2  0
 19 21  1  0
M  END
$$$$
