TQG.pdb
     RDKit          3D

 21 20  0  0  1  0  0  0  0  0999 V2000
   11.4022  -24.9844   23.7096 C   0  0  0  0  0  0  0  0  0  0  0  0
   12.2249  -24.0330   24.5499 C   0  0  1  0  0  0  0  0  0  0  0  0
   12.5927  -22.9677   23.7173 O   0  0  0  0  0  0  0  0  0  0  0  0
   11.3356  -23.5093   25.6487 C   0  0  2  0  0  0  0  0  0  0  0  0
   10.2017  -22.8527   25.0726 N   0  0  0  0  0  0  0  0  0  0  0  0
   12.0587  -22.6041   26.5696 C   0  0  0  0  0  0  0  0  0  0  0  0
   12.1002  -21.3577   26.4088 O   0  0  0  0  0  0  0  0  0  0  0  0
   13.8689  -20.2907   33.0542 N   0  0  0  0  0  0  0  0  0  0  0  0
   13.1722  -21.0300   32.0882 C   0  0  0  0  0  0  0  0  0  0  0  0
   12.0344  -21.4676   32.3112 O   0  0  0  0  0  0  0  0  0  0  0  0
   13.8086  -21.2940   30.7732 C   0  0  0  0  0  0  0  0  0  0  0  0
   12.9012  -22.0790   29.8653 C   0  0  0  0  0  0  0  0  0  0  0  0
   13.5700  -22.3830   28.5872 C   0  0  2  0  0  0  0  0  0  0  0  0
   12.7306  -23.1441   27.6724 N   0  0  0  0  0  0  0  0  0  0  0  0
   14.8687  -23.0637   28.6558 C   0  0  0  0  0  0  0  0  0  0  0  0
   14.9676  -24.2100   29.1139 O   0  0  0  0  0  0  0  0  0  0  0  0
   16.0834  -22.4373   28.1974 N   0  0  0  0  0  0  0  0  0  0  0  0
   17.3288  -23.1659   28.2806 C   0  0  0  0  0  0  0  0  0  0  0  0
   17.9759  -23.0342   29.5855 C   0  0  0  0  0  0  0  0  0  0  0  0
   17.3797  -22.4472   30.5207 O   0  0  0  0  0  0  0  0  0  0  0  0
   19.2383  -23.5375   29.8369 O   0  0  0  0  0  0  0  0  0  0  0  0
  2  4  1  0
  2  1  1  6
  3  2  1  0
  4  5  1  6
  6  4  1  0
  7  6  2  0
  8  9  1  0
  9 10  2  0
 11  9  1  0
 11 12  1  0
 13 12  1  1
 13 15  1  0
 13 14  1  0
 14  6  1  0
 15 17  1  0
 16 15  2  0
 17 18  1  0
 18 19  1  0
 19 20  2  0
 19 21  1  0
M  END
$$$$
