TQG.pdb
     RDKit          3D

 21 20  0  0  1  0  0  0  0  0999 V2000
    7.6872  -13.6039   18.3993 C   0  0  0  0  0  0  0  0  0  0  0  0
    7.7007  -14.0745   19.8369 C   0  0  1  0  0  0  0  0  0  0  0  0
    8.0609  -15.4285   19.8189 O   0  0  0  0  0  0  0  0  0  0  0  0
    8.7679  -13.2949   20.5620 C   0  0  2  0  0  0  0  0  0  0  0  0
   10.0170  -13.4478   19.8799 N   0  0  0  0  0  0  0  0  0  0  0  0
    8.8880  -13.6979   21.9809 C   0  0  0  0  0  0  0  0  0  0  0  0
    9.8567  -14.3686   22.4203 O   0  0  0  0  0  0  0  0  0  0  0  0
    4.9993  -12.3987   27.7671 N   0  0  0  0  0  0  0  0  0  0  0  0
    6.3093  -12.0919   27.3737 C   0  0  0  0  0  0  0  0  0  0  0  0
    6.8438  -11.0220   27.6984 O   0  0  0  0  0  0  0  0  0  0  0  0
    7.0712  -13.0664   26.5527 C   0  0  0  0  0  0  0  0  0  0  0  0
    7.1355  -12.6454   25.1096 C   0  0  0  0  0  0  0  0  0  0  0  0
    7.9067  -13.6162   24.3120 C   0  0  2  0  0  0  0  0  0  0  0  0
    7.8876  -13.3238   22.8855 N   0  0  0  0  0  0  0  0  0  0  0  0
    7.5657  -15.0351   24.4707 C   0  0  0  0  0  0  0  0  0  0  0  0
    6.7043  -15.5702   23.7598 O   0  0  0  0  0  0  0  0  0  0  0  0
    8.2107  -15.8693   25.4535 N   0  0  0  0  0  0  0  0  0  0  0  0
    7.7429  -17.2230   25.6476 C   0  0  0  0  0  0  0  0  0  0  0  0
    8.8328  -18.1721   25.8719 C   0  0  0  0  0  0  0  0  0  0  0  0
   10.0219  -17.8061   25.7080 O   0  0  0  0  0  0  0  0  0  0  0  0
    8.6050  -19.4778   26.2635 O   0  0  0  0  0  0  0  0  0  0  0  0
  2  4  1  0
  2  1  1  6
  3  2  1  0
  4  5  1  6
  6  4  1  0
  7  6  2  0
  8  9  1  0
  9 10  2  0
 11  9  1  0
 11 12  1  0
 13 12  1  1
 13 15  1  0
 13 14  1  0
 14  6  1  0
 15 17  1  0
 16 15  2  0
 17 18  1  0
 18 19  1  0
 19 20  2  0
 19 21  1  0
M  END
$$$$
