TQG.pdb
     RDKit          3D

 21 20  0  0  1  0  0  0  0  0999 V2000
   10.3819  -20.2753   20.8452 C   0  0  0  0  0  0  0  0  0  0  0  0
   10.6965  -19.9782   19.3957 C   0  0  1  0  0  0  0  0  0  0  0  0
   10.3879  -21.1342   18.6665 O   0  0  0  0  0  0  0  0  0  0  0  0
    9.7856  -18.8625   18.9507 C   0  0  2  0  0  0  0  0  0  0  0  0
    9.7765  -18.7954   17.5209 N   0  0  0  0  0  0  0  0  0  0  0  0
   10.1694  -17.5595   19.5382 C   0  0  0  0  0  0  0  0  0  0  0  0
   11.0172  -16.7957   19.0099 O   0  0  0  0  0  0  0  0  0  0  0  0
    7.2627  -12.4078   19.2282 N   0  0  0  0  0  0  0  0  0  0  0  0
    7.4268  -13.3365   20.2653 C   0  0  0  0  0  0  0  0  0  0  0  0
    6.6592  -13.3557   21.2381 O   0  0  0  0  0  0  0  0  0  0  0  0
    8.5406  -14.3158   20.1978 C   0  0  0  0  0  0  0  0  0  0  0  0
    8.7830  -14.9731   21.5293 C   0  0  0  0  0  0  0  0  0  0  0  0
    9.9076  -15.9230   21.4505 C   0  0  2  0  0  0  0  0  0  0  0  0
    9.5712  -17.1453   20.7339 N   0  0  0  0  0  0  0  0  0  0  0  0
   10.5402  -16.3188   22.7146 C   0  0  0  0  0  0  0  0  0  0  0  0
    9.8752  -16.8066   23.6384 O   0  0  0  0  0  0  0  0  0  0  0  0
   11.9549  -16.1609   22.9419 N   0  0  0  0  0  0  0  0  0  0  0  0
   12.5044  -16.4968   24.2357 C   0  0  0  0  0  0  0  0  0  0  0  0
   13.9482  -16.2767   24.3122 C   0  0  0  0  0  0  0  0  0  0  0  0
   14.5655  -15.8358   23.3127 O   0  0  0  0  0  0  0  0  0  0  0  0
   14.6744  -16.5383   25.4587 O   0  0  0  0  0  0  0  0  0  0  0  0
  2  4  1  0
  2  1  1  1
  3  2  1  0
  4  5  1  6
  6  4  1  0
  7  6  2  0
  8  9  1  0
  9 10  2  0
 11  9  1  0
 11 12  1  0
 13 12  1  1
 13 15  1  0
 13 14  1  0
 14  6  1  0
 15 17  1  0
 16 15  2  0
 17 18  1  0
 18 19  1  0
 19 20  2  0
 19 21  1  0
M  END
$$$$
