TQG.pdb
     RDKit          3D

 21 20  0  0  1  0  0  0  0  0999 V2000
    7.0454  -16.0396   19.8134 C   0  0  0  0  0  0  0  0  0  0  0  0
    7.8932  -15.0003   19.1139 C   0  0  1  0  0  0  0  0  0  0  0  0
    7.4020  -14.8864   17.8066 O   0  0  0  0  0  0  0  0  0  0  0  0
    7.6888  -13.6887   19.8284 C   0  0  2  0  0  0  0  0  0  0  0  0
    8.1641  -12.6182   19.0057 N   0  0  0  0  0  0  0  0  0  0  0  0
    8.3443  -13.6667   21.1550 C   0  0  0  0  0  0  0  0  0  0  0  0
    9.5557  -13.3688   21.3129 O   0  0  0  0  0  0  0  0  0  0  0  0
    5.3816  -12.2575   26.4371 N   0  0  0  0  0  0  0  0  0  0  0  0
    6.6476  -12.6228   26.9153 C   0  0  0  0  0  0  0  0  0  0  0  0
    6.9496  -12.4797   28.1087 O   0  0  0  0  0  0  0  0  0  0  0  0
    7.6458  -13.1920   25.9752 C   0  0  0  0  0  0  0  0  0  0  0  0
    7.1302  -13.2087   24.5618 C   0  0  0  0  0  0  0  0  0  0  0  0
    8.0818  -13.8860   23.6624 C   0  0  2  0  0  0  0  0  0  0  0  0
    7.5962  -13.9891   22.2933 N   0  0  0  0  0  0  0  0  0  0  0  0
    8.5477  -15.2196   24.0612 C   0  0  0  0  0  0  0  0  0  0  0  0
    7.7909  -16.1993   24.0269 O   0  0  0  0  0  0  0  0  0  0  0  0
    9.8978  -15.4537   24.5089 N   0  0  0  0  0  0  0  0  0  0  0  0
   10.3273  -16.8065   24.7809 C   0  0  0  0  0  0  0  0  0  0  0  0
   10.4503  -17.0849   26.2114 C   0  0  0  0  0  0  0  0  0  0  0  0
    9.9941  -16.2676   27.0470 O   0  0  0  0  0  0  0  0  0  0  0  0
   11.0582  -18.2300   26.6904 O   0  0  0  0  0  0  0  0  0  0  0  0
  2  4  1  0
  2  1  1  1
  3  2  1  0
  4  5  1  6
  6  4  1  0
  7  6  2  0
  8  9  1  0
  9 10  2  0
 11  9  1  0
 11 12  1  0
 13 12  1  1
 13 15  1  0
 13 14  1  0
 14  6  1  0
 15 17  1  0
 16 15  2  0
 17 18  1  0
 18 19  1  0
 19 20  2  0
 19 21  1  0
M  END
$$$$
