TQG.pdb
     RDKit          3D

 21 20  0  0  1  0  0  0  0  0999 V2000
    6.7773  -16.1880   20.4042 C   0  0  0  0  0  0  0  0  0  0  0  0
    7.6488  -15.1716   19.7002 C   0  0  1  0  0  0  0  0  0  0  0  0
    7.1257  -15.0099   18.4104 O   0  0  0  0  0  0  0  0  0  0  0  0
    7.5217  -13.8674   20.4456 C   0  0  2  0  0  0  0  0  0  0  0  0
    7.9003  -12.7875   19.5858 N   0  0  0  0  0  0  0  0  0  0  0  0
    8.3202  -13.8555   21.6916 C   0  0  0  0  0  0  0  0  0  0  0  0
    9.5461  -13.5763   21.7140 O   0  0  0  0  0  0  0  0  0  0  0  0
    6.0289  -10.8492   26.8977 N   0  0  0  0  0  0  0  0  0  0  0  0
    6.1088  -12.1701   26.4354 C   0  0  0  0  0  0  0  0  0  0  0  0
    5.4566  -13.0784   26.9697 O   0  0  0  0  0  0  0  0  0  0  0  0
    6.9909  -12.4876   25.2843 C   0  0  0  0  0  0  0  0  0  0  0  0
    7.4649  -13.9151   25.3258 C   0  0  0  0  0  0  0  0  0  0  0  0
    8.3695  -14.2023   24.1978 C   0  0  2  0  0  0  0  0  0  0  0  0
    7.6979  -14.1666   22.9061 N   0  0  0  0  0  0  0  0  0  0  0  0
    9.1368  -15.4523   24.2557 C   0  0  0  0  0  0  0  0  0  0  0  0
    8.5748  -16.5531   24.1762 O   0  0  0  0  0  0  0  0  0  0  0  0
   10.5704  -15.4612   24.4067 N   0  0  0  0  0  0  0  0  0  0  0  0
   11.2099  -16.6070   25.0124 C   0  0  0  0  0  0  0  0  0  0  0  0
   11.7352  -17.5499   24.0255 C   0  0  0  0  0  0  0  0  0  0  0  0
   10.9722  -18.0261   23.1505 O   0  0  0  0  0  0  0  0  0  0  0  0
   13.0594  -17.9456   24.0153 O   0  0  0  0  0  0  0  0  0  0  0  0
  2  4  1  0
  2  1  1  1
  3  2  1  0
  4  5  1  6
  6  4  1  0
  7  6  2  0
  8  9  1  0
  9 10  2  0
 11  9  1  0
 11 12  1  0
 13 12  1  1
 13 15  1  0
 13 14  1  0
 14  6  1  0
 15 17  1  0
 16 15  2  0
 17 18  1  0
 18 19  1  0
 19 20  2  0
 19 21  1  0
M  END
$$$$
