TQG.pdb
     RDKit          3D

 21 20  0  0  1  0  0  0  0  0999 V2000
   14.5508  -21.9082   27.1906 C   0  0  0  0  0  0  0  0  0  0  0  0
   13.1229  -22.0822   26.7227 C   0  0  1  0  0  0  0  0  0  0  0  0
   13.1796  -22.6593   25.4472 O   0  0  0  0  0  0  0  0  0  0  0  0
   12.4483  -23.0462   27.6652 C   0  0  2  0  0  0  0  0  0  0  0  0
   11.1414  -23.3594   27.1725 N   0  0  0  0  0  0  0  0  0  0  0  0
   12.3801  -22.5215   29.0473 C   0  0  0  0  0  0  0  0  0  0  0  0
   11.4852  -21.7263   29.4321 O   0  0  0  0  0  0  0  0  0  0  0  0
   14.2637  -23.6835   34.7193 N   0  0  0  0  0  0  0  0  0  0  0  0
   14.4796  -24.6864   33.7641 C   0  0  0  0  0  0  0  0  0  0  0  0
   15.2001  -25.6642   34.0106 O   0  0  0  0  0  0  0  0  0  0  0  0
   13.8334  -24.5760   32.4321 C   0  0  0  0  0  0  0  0  0  0  0  0
   12.9422  -23.3667   32.3464 C   0  0  0  0  0  0  0  0  0  0  0  0
   13.4442  -22.4130   31.3407 C   0  0  2  0  0  0  0  0  0  0  0  0
   13.3469  -22.9184   29.9784 N   0  0  0  0  0  0  0  0  0  0  0  0
   14.8099  -21.9060   31.5210 C   0  0  0  0  0  0  0  0  0  0  0  0
   15.7620  -22.3945   30.8975 O   0  0  0  0  0  0  0  0  0  0  0  0
   15.1087  -20.8236   32.4249 N   0  0  0  0  0  0  0  0  0  0  0  0
   16.4689  -20.3470   32.5312 C   0  0  0  0  0  0  0  0  0  0  0  0
   17.2581  -21.0993   33.5059 C   0  0  0  0  0  0  0  0  0  0  0  0
   16.7492  -22.0848   34.0927 O   0  0  0  0  0  0  0  0  0  0  0  0
   18.5634  -20.7652   33.8137 O   0  0  0  0  0  0  0  0  0  0  0  0
  2  4  1  0
  2  1  1  1
  3  2  1  0
  4  5  1  6
  6  4  1  0
  7  6  2  0
  8  9  1  0
  9 10  2  0
 11  9  1  0
 11 12  1  0
 13 12  1  1
 13 15  1  0
 13 14  1  0
 14  6  1  0
 15 17  1  0
 16 15  2  0
 17 18  1  0
 18 19  1  0
 19 20  2  0
 19 21  1  0
M  END
$$$$
