TQG.pdb
     RDKit          3D

 21 20  0  0  1  0  0  0  0  0999 V2000
    7.4714  -16.2860   20.1029 C   0  0  0  0  0  0  0  0  0  0  0  0
    8.1719  -15.1234   19.4352 C   0  0  1  0  0  0  0  0  0  0  0  0
    7.7585  -15.1130   18.0964 O   0  0  0  0  0  0  0  0  0  0  0  0
    7.6950  -13.8589   20.1032 C   0  0  2  0  0  0  0  0  0  0  0  0
    8.0052  -12.7347   19.2734 N   0  0  0  0  0  0  0  0  0  0  0  0
    8.2692  -13.6909   21.4568 C   0  0  0  0  0  0  0  0  0  0  0  0
    9.3739  -13.1271   21.6644 O   0  0  0  0  0  0  0  0  0  0  0  0
    5.2140  -12.8275   26.7876 N   0  0  0  0  0  0  0  0  0  0  0  0
    6.3814  -12.0634   26.6529 C   0  0  0  0  0  0  0  0  0  0  0  0
    6.5787  -11.0619   27.3557 O   0  0  0  0  0  0  0  0  0  0  0  0
    7.4011  -12.4608   25.6496 C   0  0  0  0  0  0  0  0  0  0  0  0
    6.9804  -13.6875   24.8868 C   0  0  0  0  0  0  0  0  0  0  0  0
    8.0315  -14.1060   23.9417 C   0  0  2  0  0  0  0  0  0  0  0  0
    7.5638  -14.1755   22.5643 N   0  0  0  0  0  0  0  0  0  0  0  0
    8.7286  -15.3653   24.2295 C   0  0  0  0  0  0  0  0  0  0  0  0
    8.1017  -16.4190   24.4040 O   0  0  0  0  0  0  0  0  0  0  0  0
   10.1653  -15.4379   24.3224 N   0  0  0  0  0  0  0  0  0  0  0  0
   10.7842  -16.6735   24.7457 C   0  0  0  0  0  0  0  0  0  0  0  0
   11.5800  -17.2989   23.6899 C   0  0  0  0  0  0  0  0  0  0  0  0
   11.0172  -18.0137   22.8256 O   0  0  0  0  0  0  0  0  0  0  0  0
   12.9493  -17.1334   23.6021 O   0  0  0  0  0  0  0  0  0  0  0  0
  2  4  1  0
  2  1  1  1
  3  2  1  0
  4  5  1  6
  6  4  1  0
  7  6  2  0
  8  9  1  0
  9 10  2  0
 11  9  1  0
 11 12  1  0
 13 12  1  1
 13 15  1  0
 13 14  1  0
 14  6  1  0
 15 17  1  0
 16 15  2  0
 17 18  1  0
 18 19  1  0
 19 20  2  0
 19 21  1  0
M  END
$$$$
