TQG.pdb
     RDKit          3D

 21 20  0  0  1  0  0  0  0  0999 V2000
    7.9279  -15.1288   20.2292 C   0  0  0  0  0  0  0  0  0  0  0  0
    7.3356  -16.2953   20.9886 C   0  0  1  0  0  0  0  0  0  0  0  0
    8.3651  -17.2282   21.1703 O   0  0  0  0  0  0  0  0  0  0  0  0
    6.8953  -15.7852   22.3371 C   0  0  2  0  0  0  0  0  0  0  0  0
    5.8178  -14.8582   22.1680 N   0  0  0  0  0  0  0  0  0  0  0  0
    8.0087  -15.1690   23.0925 C   0  0  0  0  0  0  0  0  0  0  0  0
    8.3252  -13.9576   22.9752 O   0  0  0  0  0  0  0  0  0  0  0  0
   11.4963  -15.4084   29.4469 N   0  0  0  0  0  0  0  0  0  0  0  0
   10.3966  -15.3905   28.5779 C   0  0  0  0  0  0  0  0  0  0  0  0
    9.2502  -15.6232   28.9872 O   0  0  0  0  0  0  0  0  0  0  0  0
   10.6084  -15.0872   27.1401 C   0  0  0  0  0  0  0  0  0  0  0  0
    9.5513  -15.7219   26.2777 C   0  0  0  0  0  0  0  0  0  0  0  0
    9.8064  -15.4553   24.8504 C   0  0  2  0  0  0  0  0  0  0  0  0
    8.7514  -15.9560   23.9803 N   0  0  0  0  0  0  0  0  0  0  0  0
   11.0843  -15.9224   24.2994 C   0  0  0  0  0  0  0  0  0  0  0  0
   11.2631  -17.1154   24.0191 O   0  0  0  0  0  0  0  0  0  0  0  0
   12.1855  -15.0237   24.0591 N   0  0  0  0  0  0  0  0  0  0  0  0
   13.3619  -15.5144   23.3780 C   0  0  0  0  0  0  0  0  0  0  0  0
   14.3545  -16.0747   24.2944 C   0  0  0  0  0  0  0  0  0  0  0  0
   15.5109  -16.3311   23.8801 O   0  0  0  0  0  0  0  0  0  0  0  0
   14.0681  -16.3386   25.6205 O   0  0  0  0  0  0  0  0  0  0  0  0
  2  4  1  0
  2  1  1  6
  3  2  1  0
  4  5  1  6
  6  4  1  0
  7  6  2  0
  8  9  1  0
  9 10  2  0
 11  9  1  0
 11 12  1  0
 13 12  1  1
 13 15  1  0
 13 14  1  0
 14  6  1  0
 15 17  1  0
 16 15  2  0
 17 18  1  0
 18 19  1  0
 19 20  2  0
 19 21  1  0
M  END
$$$$
