LKV.pdb
     RDKit          3D

 25 24  0  0  1  0  0  0  0  0999 V2000
    9.5018  -12.8289   19.1793 C   0  0  0  0  0  0  0  0  0  0  0  0
    8.0561  -13.2058   19.3983 C   0  0  2  0  0  0  0  0  0  0  0  0
    7.1913  -11.9810   19.2856 C   0  0  0  0  0  0  0  0  0  0  0  0
    7.8231  -13.8912   20.7075 C   0  0  0  0  0  0  0  0  0  0  0  0
    8.6364  -15.1254   20.9010 C   0  0  2  0  0  0  0  0  0  0  0  0
    8.2797  -16.1967   20.0146 N   0  0  0  0  0  0  0  0  0  0  0  0
    8.4631  -15.5491   22.3364 C   0  0  0  0  0  0  0  0  0  0  0  0
    7.6002  -14.9498   22.9855 O   0  0  0  0  0  0  0  0  0  0  0  0
    9.2402  -16.5645   22.8928 N   0  0  0  0  0  0  0  0  0  0  0  0
    9.1623  -17.1044   24.2063 C   0  0  1  0  0  0  0  0  0  0  0  0
    9.4675  -18.6123   24.2843 C   0  0  0  0  0  0  0  0  0  0  0  0
    8.4538  -19.3903   23.4853 C   0  0  0  0  0  0  0  0  0  0  0  0
    8.8120  -20.8635   23.5258 C   0  0  0  0  0  0  0  0  0  0  0  0
    9.0703  -21.4399   22.1694 C   0  0  0  0  0  0  0  0  0  0  0  0
    9.4299  -22.8541   22.3597 N   0  0  0  0  0  0  0  0  0  0  0  0
    9.9684  -16.4127   25.1946 C   0  0  0  0  0  0  0  0  0  0  0  0
   11.1820  -16.0840   24.9488 O   0  0  0  0  0  0  0  0  0  0  0  0
    8.5331  -14.1902   28.6705 C   0  0  0  0  0  0  0  0  0  0  0  0
    9.8025  -14.0498   27.8995 C   0  0  2  0  0  0  0  0  0  0  0  0
    9.6275  -13.1491   26.7105 C   0  0  0  0  0  0  0  0  0  0  0  0
   10.3752  -15.3581   27.4217 C   0  0  2  0  0  0  0  0  0  0  0  0
    9.5028  -16.0414   26.4990 N   0  0  0  0  0  0  0  0  0  0  0  0
   10.7350  -16.2675   28.5112 C   0  0  0  0  0  0  0  0  0  0  0  0
   10.1134  -17.4987   28.5968 O   0  0  0  0  0  0  0  0  0  0  0  0
   11.5927  -15.9718   29.3784 O   0  0  0  0  0  0  0  0  0  0  0  0
  2  1  1  1
  3  2  1  0
  4  2  1  0
  4  5  1  0
  5  7  1  0
  5  6  1  6
  7  8  2  0
  9 10  1  0
  9  7  1  0
 11 12  1  0
 10 11  1  6
 13 12  1  0
 13 14  1  0
 15 14  1  0
 16 10  1  0
 17 16  2  0
 19 18  1  6
 19 21  1  0
 20 19  1  0
 21 23  1  0
 21 22  1  6
 22 16  1  0
 23 24  1  0
 25 23  2  0
M  END
$$$$
