LKV.pdb
     RDKit          3D

 25 24  0  0  1  0  0  0  0  0999 V2000
    9.4298  -14.3469   18.9189 C   0  0  0  0  0  0  0  0  0  0  0  0
    7.9676  -13.9758   18.8536 C   0  0  2  0  0  0  0  0  0  0  0  0
    7.8304  -12.4882   18.6826 C   0  0  0  0  0  0  0  0  0  0  0  0
    7.1937  -14.4379   20.0475 C   0  0  0  0  0  0  0  0  0  0  0  0
    7.2467  -15.9104   20.2738 C   0  0  2  0  0  0  0  0  0  0  0  0
    6.3517  -16.6560   19.4349 N   0  0  0  0  0  0  0  0  0  0  0  0
    6.9269  -16.1467   21.7270 C   0  0  0  0  0  0  0  0  0  0  0  0
    5.9001  -15.6122   22.1572 O   0  0  0  0  0  0  0  0  0  0  0  0
    7.7523  -16.9285   22.5345 N   0  0  0  0  0  0  0  0  0  0  0  0
    7.6467  -17.1518   23.9351 C   0  0  1  0  0  0  0  0  0  0  0  0
    8.2348  -18.4967   24.4024 C   0  0  0  0  0  0  0  0  0  0  0  0
    8.0128  -18.6755   25.8823 C   0  0  0  0  0  0  0  0  0  0  0  0
    6.8734  -19.6526   26.1005 C   0  0  0  0  0  0  0  0  0  0  0  0
    7.3075  -21.0826   26.0269 C   0  0  0  0  0  0  0  0  0  0  0  0
    6.1040  -21.9113   26.2019 N   0  0  0  0  0  0  0  0  0  0  0  0
    8.1925  -16.0909   24.7608 C   0  0  0  0  0  0  0  0  0  0  0  0
    9.4127  -15.7191   24.6424 O   0  0  0  0  0  0  0  0  0  0  0  0
    6.5706  -12.5606   25.4602 C   0  0  0  0  0  0  0  0  0  0  0  0
    7.1158  -13.1464   26.7192 C   0  0  2  0  0  0  0  0  0  0  0  0
    7.8261  -12.1122   27.5449 C   0  0  0  0  0  0  0  0  0  0  0  0
    8.0553  -14.3025   26.4987 C   0  0  2  0  0  0  0  0  0  0  0  0
    7.4462  -15.3783   25.7564 N   0  0  0  0  0  0  0  0  0  0  0  0
    8.6258  -14.8325   27.7386 C   0  0  0  0  0  0  0  0  0  0  0  0
    9.6276  -14.1268   28.3772 O   0  0  0  0  0  0  0  0  0  0  0  0
    8.2384  -15.9113   28.2496 O   0  0  0  0  0  0  0  0  0  0  0  0
  2  1  1  1
  3  2  1  0
  4  2  1  0
  4  5  1  0
  5  7  1  0
  5  6  1  6
  7  8  2  0
  9 10  1  0
  9  7  1  0
 11 12  1  0
 10 11  1  6
 13 12  1  0
 13 14  1  0
 15 14  1  0
 16 10  1  0
 17 16  2  0
 19 18  1  6
 19 21  1  0
 20 19  1  0
 21 23  1  0
 21 22  1  1
 22 16  1  0
 23 24  1  0
 25 23  2  0
M  END
$$$$
