LKV.pdb
     RDKit          3D

 25 24  0  0  1  0  0  0  0  0999 V2000
    9.5565  -13.8492   19.4162 C   0  0  0  0  0  0  0  0  0  0  0  0
    8.1414  -13.7244   18.9046 C   0  0  2  0  0  0  0  0  0  0  0  0
    7.7685  -12.2717   18.7974 C   0  0  0  0  0  0  0  0  0  0  0  0
    7.1481  -14.4578   19.7492 C   0  0  0  0  0  0  0  0  0  0  0  0
    7.6659  -15.7284   20.3319 C   0  0  2  0  0  0  0  0  0  0  0  0
    7.1880  -16.9064   19.6650 N   0  0  0  0  0  0  0  0  0  0  0  0
    7.2646  -15.7454   21.7840 C   0  0  0  0  0  0  0  0  0  0  0  0
    6.6466  -14.7581   22.1945 O   0  0  0  0  0  0  0  0  0  0  0  0
    7.5789  -16.8226   22.6118 N   0  0  0  0  0  0  0  0  0  0  0  0
    7.3133  -16.9629   24.0020 C   0  0  1  0  0  0  0  0  0  0  0  0
    7.6239  -18.3639   24.5621 C   0  0  0  0  0  0  0  0  0  0  0  0
    7.3512  -18.4040   26.0438 C   0  0  0  0  0  0  0  0  0  0  0  0
    7.5834  -19.8129   26.5550 C   0  0  0  0  0  0  0  0  0  0  0  0
    7.2601  -19.9685   28.0077 C   0  0  0  0  0  0  0  0  0  0  0  0
    7.5269  -21.3711   28.3642 N   0  0  0  0  0  0  0  0  0  0  0  0
    7.9536  -15.9703   24.8445 C   0  0  0  0  0  0  0  0  0  0  0  0
    9.2063  -15.7220   24.7426 O   0  0  0  0  0  0  0  0  0  0  0  0
    7.6048  -11.6125   27.0301 C   0  0  0  0  0  0  0  0  0  0  0  0
    6.9773  -12.8414   26.4630 C   0  0  2  0  0  0  0  0  0  0  0  0
    5.7399  -13.2277   27.2215 C   0  0  0  0  0  0  0  0  0  0  0  0
    7.8970  -14.0332   26.4199 C   0  0  2  0  0  0  0  0  0  0  0  0
    7.2715  -15.1958   25.8399 N   0  0  0  0  0  0  0  0  0  0  0  0
    8.4540  -14.3850   27.7274 C   0  0  0  0  0  0  0  0  0  0  0  0
    8.1970  -15.6351   28.2572 O   0  0  0  0  0  0  0  0  0  0  0  0
    9.1617  -13.5902   28.3927 O   0  0  0  0  0  0  0  0  0  0  0  0
  2  1  1  1
  3  2  1  0
  4  2  1  0
  4  5  1  0
  5  7  1  0
  5  6  1  6
  7  8  2  0
  9 10  1  0
  9  7  1  0
 11 12  1  0
 10 11  1  1
 13 12  1  0
 13 14  1  0
 15 14  1  0
 16 10  1  0
 17 16  2  0
 19 18  1  1
 19 21  1  0
 20 19  1  0
 21 23  1  0
 21 22  1  1
 22 16  1  0
 23 24  1  0
 25 23  2  0
M  END
$$$$
