LKV.pdb
     RDKit          3D

 25 24  0  0  1  0  0  0  0  0999 V2000
    9.9295  -13.4594   19.4781 C   0  0  0  0  0  0  0  0  0  0  0  0
    8.4769  -13.2499   19.1231 C   0  0  2  0  0  0  0  0  0  0  0  0
    7.7719  -12.5647   20.2608 C   0  0  0  0  0  0  0  0  0  0  0  0
    7.7746  -14.5206   18.7626 C   0  0  0  0  0  0  0  0  0  0  0  0
    8.3401  -15.7347   19.4170 C   0  0  2  0  0  0  0  0  0  0  0  0
    8.1415  -16.9414   18.6651 N   0  0  0  0  0  0  0  0  0  0  0  0
    7.6953  -15.8471   20.7741 C   0  0  0  0  0  0  0  0  0  0  0  0
    6.4647  -15.7485   20.8072 O   0  0  0  0  0  0  0  0  0  0  0  0
    8.4558  -16.0516   21.9248 N   0  0  0  0  0  0  0  0  0  0  0  0
    7.9933  -16.3490   23.2365 C   0  0  1  0  0  0  0  0  0  0  0  0
    8.2927  -17.7883   23.6964 C   0  0  0  0  0  0  0  0  0  0  0  0
    7.6627  -18.0466   25.0408 C   0  0  0  0  0  0  0  0  0  0  0  0
    8.0009  -19.4563   25.4869 C   0  0  0  0  0  0  0  0  0  0  0  0
    7.4135  -19.8051   26.8180 C   0  0  0  0  0  0  0  0  0  0  0  0
    7.7996  -21.1942   27.1126 N   0  0  0  0  0  0  0  0  0  0  0  0
    8.4451  -15.4273   24.2619 C   0  0  0  0  0  0  0  0  0  0  0  0
    9.6909  -15.2862   24.5250 O   0  0  0  0  0  0  0  0  0  0  0  0
    5.8258  -12.9795   26.8009 C   0  0  0  0  0  0  0  0  0  0  0  0
    7.1891  -12.5678   26.3566 C   0  0  2  0  0  0  0  0  0  0  0  0
    7.1292  -11.6836   25.1441 C   0  0  0  0  0  0  0  0  0  0  0  0
    8.1083  -13.7221   26.0554 C   0  0  2  0  0  0  0  0  0  0  0  0
    7.5723  -14.6114   25.0547 N   0  0  0  0  0  0  0  0  0  0  0  0
    8.4779  -14.4958   27.2422 C   0  0  0  0  0  0  0  0  0  0  0  0
    9.3333  -13.9379   28.1731 O   0  0  0  0  0  0  0  0  0  0  0  0
    8.0455  -15.6555   27.4503 O   0  0  0  0  0  0  0  0  0  0  0  0
  2  1  1  1
  3  2  1  0
  4  2  1  0
  4  5  1  0
  5  7  1  0
  5  6  1  6
  7  8  2  0
  9 10  1  0
  9  7  1  0
 11 12  1  0
 10 11  1  1
 13 12  1  0
 13 14  1  0
 15 14  1  0
 16 10  1  0
 17 16  2  0
 19 18  1  6
 19 21  1  0
 20 19  1  0
 21 23  1  0
 21 22  1  6
 22 16  1  0
 23 24  1  0
 25 23  2  0
M  END
$$$$
