LKV.pdb
     RDKit          3D

 25 24  0  0  1  0  0  0  0  0999 V2000
    9.3384  -12.8936   19.6404 C   0  0  0  0  0  0  0  0  0  0  0  0
    7.9893  -13.3854   19.1732 C   0  0  2  0  0  0  0  0  0  0  0  0
    7.1351  -12.2146   18.7725 C   0  0  0  0  0  0  0  0  0  0  0  0
    7.2854  -14.2197   20.1961 C   0  0  0  0  0  0  0  0  0  0  0  0
    8.1436  -15.2646   20.8237 C   0  0  2  0  0  0  0  0  0  0  0  0
    8.1372  -16.5160   20.1202 N   0  0  0  0  0  0  0  0  0  0  0  0
    7.6526  -15.4513   22.2358 C   0  0  0  0  0  0  0  0  0  0  0  0
    7.1810  -14.4533   22.7896 O   0  0  0  0  0  0  0  0  0  0  0  0
    7.7310  -16.6884   22.8744 N   0  0  0  0  0  0  0  0  0  0  0  0
    7.4114  -16.9960   24.2257 C   0  0  1  0  0  0  0  0  0  0  0  0
    7.1467  -18.4915   24.4833 C   0  0  0  0  0  0  0  0  0  0  0  0
    5.9617  -18.9567   23.6768 C   0  0  0  0  0  0  0  0  0  0  0  0
    5.8042  -20.4561   23.8422 C   0  0  0  0  0  0  0  0  0  0  0  0
    4.6966  -21.0229   23.0110 C   0  0  0  0  0  0  0  0  0  0  0  0
    4.6566  -22.4709   23.2700 N   0  0  0  0  0  0  0  0  0  0  0  0
    8.3737  -16.5171   25.2002 C   0  0  0  0  0  0  0  0  0  0  0  0
    9.6255  -16.7559   25.0693 O   0  0  0  0  0  0  0  0  0  0  0  0
    8.1216  -12.8884   26.9600 C   0  0  0  0  0  0  0  0  0  0  0  0
    8.6333  -13.9333   27.8937 C   0  0  2  0  0  0  0  0  0  0  0  0
    9.7868  -13.4247   28.7101 C   0  0  0  0  0  0  0  0  0  0  0  0
    9.0614  -15.2058   27.2115 C   0  0  2  0  0  0  0  0  0  0  0  0
    8.0309  -15.7554   26.3657 N   0  0  0  0  0  0  0  0  0  0  0  0
    9.5244  -16.2368   28.1422 C   0  0  0  0  0  0  0  0  0  0  0  0
   10.7794  -16.1214   28.7088 O   0  0  0  0  0  0  0  0  0  0  0  0
    8.8215  -17.2302   28.4491 O   0  0  0  0  0  0  0  0  0  0  0  0
  2  1  1  1
  3  2  1  0
  4  2  1  0
  4  5  1  0
  5  7  1  0
  5  6  1  6
  7  8  2  0
  9 10  1  0
  9  7  1  0
 11 12  1  0
 10 11  1  6
 13 12  1  0
 13 14  1  0
 15 14  1  0
 16 10  1  0
 17 16  2  0
 19 18  1  6
 19 21  1  0
 20 19  1  0
 21 23  1  0
 21 22  1  1
 22 16  1  0
 23 24  1  0
 25 23  2  0
M  END
$$$$
