LKV.pdb
     RDKit          3D

 25 24  0  0  1  0  0  0  0  0999 V2000
    9.3871  -13.1839   18.7335 C   0  0  0  0  0  0  0  0  0  0  0  0
    7.9541  -13.6334   18.5767 C   0  0  2  0  0  0  0  0  0  0  0  0
    7.1071  -12.4755   18.1268 C   0  0  0  0  0  0  0  0  0  0  0  0
    7.3919  -14.2384   19.8240 C   0  0  0  0  0  0  0  0  0  0  0  0
    8.2245  -15.3340   20.3972 C   0  0  2  0  0  0  0  0  0  0  0  0
    8.2045  -16.5412   19.6205 N   0  0  0  0  0  0  0  0  0  0  0  0
    7.7142  -15.5952   21.7905 C   0  0  0  0  0  0  0  0  0  0  0  0
    6.9046  -14.7786   22.2408 O   0  0  0  0  0  0  0  0  0  0  0  0
    8.1392  -16.7023   22.5240 N   0  0  0  0  0  0  0  0  0  0  0  0
    7.8265  -17.0297   23.8723 C   0  0  1  0  0  0  0  0  0  0  0  0
    8.2438  -18.4537   24.2855 C   0  0  0  0  0  0  0  0  0  0  0  0
    7.9052  -18.6955   25.7340 C   0  0  0  0  0  0  0  0  0  0  0  0
    8.3463  -20.0938   26.1221 C   0  0  0  0  0  0  0  0  0  0  0  0
    8.0174  -20.4380   27.5405 C   0  0  0  0  0  0  0  0  0  0  0  0
    6.5685  -20.6880   27.6020 N   0  0  0  0  0  0  0  0  0  0  0  0
    8.3311  -16.0907   24.8565 C   0  0  0  0  0  0  0  0  0  0  0  0
    9.5785  -15.8063   24.9239 O   0  0  0  0  0  0  0  0  0  0  0  0
    6.2934  -12.7258   25.7093 C   0  0  0  0  0  0  0  0  0  0  0  0
    6.9937  -13.2753   26.9065 C   0  0  2  0  0  0  0  0  0  0  0  0
    7.6404  -12.1864   27.7138 C   0  0  0  0  0  0  0  0  0  0  0  0
    8.0403  -14.3084   26.5818 C   0  0  2  0  0  0  0  0  0  0  0  0
    7.5122  -15.4116   25.8180 N   0  0  0  0  0  0  0  0  0  0  0  0
    8.7328  -14.8256   27.7635 C   0  0  0  0  0  0  0  0  0  0  0  0
    9.6882  -14.0430   28.3834 O   0  0  0  0  0  0  0  0  0  0  0  0
    8.4917  -15.9610   28.2408 O   0  0  0  0  0  0  0  0  0  0  0  0
  2  1  1  1
  3  2  1  0
  4  2  1  0
  4  5  1  0
  5  7  1  0
  5  6  1  6
  7  8  2  0
  9 10  1  0
  9  7  1  0
 11 12  1  0
 10 11  1  1
 13 12  1  0
 13 14  1  0
 15 14  1  0
 16 10  1  0
 17 16  2  0
 19 18  1  6
 19 21  1  0
 20 19  1  0
 21 23  1  0
 21 22  1  1
 22 16  1  0
 23 24  1  0
 25 23  2  0
M  END
$$$$
