LKV.pdb
     RDKit          3D

 25 24  0  0  1  0  0  0  0  0999 V2000
    9.4240  -13.3808   18.6889 C   0  0  0  0  0  0  0  0  0  0  0  0
    7.9528  -13.6899   18.5472 C   0  0  2  0  0  0  0  0  0  0  0  0
    7.2149  -12.4518   18.1188 C   0  0  0  0  0  0  0  0  0  0  0  0
    7.3508  -14.2509   19.7964 C   0  0  0  0  0  0  0  0  0  0  0  0
    8.2020  -15.2669   20.4786 C   0  0  2  0  0  0  0  0  0  0  0  0
    8.2539  -16.5288   19.7961 N   0  0  0  0  0  0  0  0  0  0  0  0
    7.6523  -15.4425   21.8703 C   0  0  0  0  0  0  0  0  0  0  0  0
    7.1539  -14.4414   22.3943 O   0  0  0  0  0  0  0  0  0  0  0  0
    7.7080  -16.6734   22.5231 N   0  0  0  0  0  0  0  0  0  0  0  0
    7.3192  -16.9728   23.8581 C   0  0  1  0  0  0  0  0  0  0  0  0
    7.4499  -18.4617   24.2310 C   0  0  0  0  0  0  0  0  0  0  0  0
    7.0644  -18.6728   25.6725 C   0  0  0  0  0  0  0  0  0  0  0  0
    7.2577  -20.1338   26.0310 C   0  0  0  0  0  0  0  0  0  0  0  0
    6.7834  -20.4649   27.4110 C   0  0  0  0  0  0  0  0  0  0  0  0
    7.1979  -21.8485   27.6924 N   0  0  0  0  0  0  0  0  0  0  0  0
    7.9805  -16.1767   24.8749 C   0  0  0  0  0  0  0  0  0  0  0  0
    9.2561  -16.1788   24.9938 O   0  0  0  0  0  0  0  0  0  0  0  0
    6.6012  -12.4763   25.8012 C   0  0  0  0  0  0  0  0  0  0  0  0
    7.1960  -13.1788   26.9752 C   0  0  2  0  0  0  0  0  0  0  0  0
    8.0447  -12.2529   27.7986 C   0  0  0  0  0  0  0  0  0  0  0  0
    8.0249  -14.3825   26.6117 C   0  0  2  0  0  0  0  0  0  0  0  0
    7.2957  -15.3378   25.8147 N   0  0  0  0  0  0  0  0  0  0  0  0
    8.6033  -15.0619   27.7725 C   0  0  0  0  0  0  0  0  0  0  0  0
    9.7805  -14.5855   28.3171 O   0  0  0  0  0  0  0  0  0  0  0  0
    8.0685  -16.0686   28.2977 O   0  0  0  0  0  0  0  0  0  0  0  0
  2  1  1  1
  3  2  1  0
  4  2  1  0
  4  5  1  0
  5  7  1  0
  5  6  1  6
  7  8  2  0
  9 10  1  0
  9  7  1  0
 11 12  1  0
 10 11  1  1
 13 12  1  0
 13 14  1  0
 15 14  1  0
 16 10  1  0
 17 16  2  0
 19 18  1  6
 19 21  1  0
 20 19  1  0
 21 23  1  0
 21 22  1  1
 22 16  1  0
 23 24  1  0
 25 23  2  0
M  END
$$$$
