LKV.pdb
     RDKit          3D

 25 24  0  0  1  0  0  0  0  0999 V2000
    7.7888  -12.0680   20.7536 C   0  0  0  0  0  0  0  0  0  0  0  0
    8.3339  -13.4682   20.6048 C   0  0  2  0  0  0  0  0  0  0  0  0
    9.2996  -13.5153   19.4531 C   0  0  0  0  0  0  0  0  0  0  0  0
    7.2620  -14.4969   20.4301 C   0  0  0  0  0  0  0  0  0  0  0  0
    7.7569  -15.9027   20.4638 C   0  0  2  0  0  0  0  0  0  0  0  0
    6.9648  -16.8124   19.6855 N   0  0  0  0  0  0  0  0  0  0  0  0
    7.7819  -16.3287   21.9087 C   0  0  0  0  0  0  0  0  0  0  0  0
    6.6989  -16.3218   22.5020 O   0  0  0  0  0  0  0  0  0  0  0  0
    8.9693  -16.7086   22.5334 N   0  0  0  0  0  0  0  0  0  0  0  0
    9.1544  -17.1189   23.8825 C   0  0  1  0  0  0  0  0  0  0  0  0
   10.0624  -18.3527   24.0445 C   0  0  0  0  0  0  0  0  0  0  0  0
   10.1358  -18.7580   25.4942 C   0  0  0  0  0  0  0  0  0  0  0  0
   11.0507  -19.9601   25.6296 C   0  0  0  0  0  0  0  0  0  0  0  0
   11.1395  -20.4721   27.0327 C   0  0  0  0  0  0  0  0  0  0  0  0
   12.1754  -21.5172   27.0490 N   0  0  0  0  0  0  0  0  0  0  0  0
    9.6213  -16.0746   24.7750 C   0  0  0  0  0  0  0  0  0  0  0  0
   10.7457  -15.4914   24.5830 O   0  0  0  0  0  0  0  0  0  0  0  0
    7.6140  -12.9605   26.2474 C   0  0  0  0  0  0  0  0  0  0  0  0
    8.4081  -13.6452   27.3086 C   0  0  2  0  0  0  0  0  0  0  0  0
    9.0840  -12.6563   28.2146 C   0  0  0  0  0  0  0  0  0  0  0  0
    9.4531  -14.5900   26.7763 C   0  0  2  0  0  0  0  0  0  0  0  0
    8.8958  -15.6081   25.9204 N   0  0  0  0  0  0  0  0  0  0  0  0
   10.2518  -15.2248   27.8265 C   0  0  0  0  0  0  0  0  0  0  0  0
   11.4367  -14.6352   28.2238 O   0  0  0  0  0  0  0  0  0  0  0  0
    9.9009  -16.2922   28.3855 O   0  0  0  0  0  0  0  0  0  0  0  0
  2  1  1  6
  3  2  1  0
  4  2  1  0
  4  5  1  0
  5  7  1  0
  5  6  1  6
  7  8  2  0
  9 10  1  0
  9  7  1  0
 11 12  1  0
 10 11  1  6
 13 12  1  0
 13 14  1  0
 15 14  1  0
 16 10  1  0
 17 16  2  0
 19 18  1  6
 19 21  1  0
 20 19  1  0
 21 23  1  0
 21 22  1  1
 22 16  1  0
 23 24  1  0
 25 23  2  0
M  END
$$$$
