LKV.pdb
     RDKit          3D

 25 24  0  0  1  0  0  0  0  0999 V2000
    9.4692  -13.8394   19.3880 C   0  0  0  0  0  0  0  0  0  0  0  0
    8.0310  -13.8163   18.9285 C   0  0  2  0  0  0  0  0  0  0  0  0
    7.6189  -12.4020   18.6272 C   0  0  0  0  0  0  0  0  0  0  0  0
    7.0924  -14.4349   19.9154 C   0  0  0  0  0  0  0  0  0  0  0  0
    7.5162  -15.7806   20.3968 C   0  0  2  0  0  0  0  0  0  0  0  0
    7.0109  -16.8637   19.6016 N   0  0  0  0  0  0  0  0  0  0  0  0
    7.0459  -15.9092   21.8224 C   0  0  0  0  0  0  0  0  0  0  0  0
    6.1283  -15.1582   22.1677 O   0  0  0  0  0  0  0  0  0  0  0  0
    7.6222  -16.8296   22.6970 N   0  0  0  0  0  0  0  0  0  0  0  0
    7.3409  -17.0167   24.0786 C   0  0  1  0  0  0  0  0  0  0  0  0
    7.7095  -18.4145   24.6106 C   0  0  0  0  0  0  0  0  0  0  0  0
    7.3842  -18.5149   26.0787 C   0  0  0  0  0  0  0  0  0  0  0  0
    7.6398  -19.9338   26.5497 C   0  0  0  0  0  0  0  0  0  0  0  0
    7.1943  -20.1714   27.9582 C   0  0  0  0  0  0  0  0  0  0  0  0
    7.3951  -21.6014   28.2418 N   0  0  0  0  0  0  0  0  0  0  0  0
    7.9185  -16.0156   24.9556 C   0  0  0  0  0  0  0  0  0  0  0  0
    9.1746  -15.7641   24.9390 O   0  0  0  0  0  0  0  0  0  0  0  0
    6.1298  -12.4595   25.8366 C   0  0  0  0  0  0  0  0  0  0  0  0
    6.8300  -13.0726   27.0024 C   0  0  2  0  0  0  0  0  0  0  0  0
    7.5713  -12.0412   27.8038 C   0  0  0  0  0  0  0  0  0  0  0  0
    7.7963  -14.1658   26.6293 C   0  0  2  0  0  0  0  0  0  0  0  0
    7.1669  -15.2355   25.8950 N   0  0  0  0  0  0  0  0  0  0  0  0
    8.5141  -14.7237   27.7769 C   0  0  0  0  0  0  0  0  0  0  0  0
    9.5463  -14.0013   28.3445 O   0  0  0  0  0  0  0  0  0  0  0  0
    8.2276  -15.8415   28.2705 O   0  0  0  0  0  0  0  0  0  0  0  0
  2  1  1  1
  3  2  1  0
  4  2  1  0
  4  5  1  0
  5  7  1  0
  5  6  1  6
  7  8  2  0
  9 10  1  0
  9  7  1  0
 11 12  1  0
 10 11  1  1
 13 12  1  0
 13 14  1  0
 15 14  1  0
 16 10  1  0
 17 16  2  0
 19 18  1  6
 19 21  1  0
 20 19  1  0
 21 23  1  0
 21 22  1  1
 22 16  1  0
 23 24  1  0
 25 23  2  0
M  END
$$$$
