LKV.pdb
     RDKit          3D

 25 24  0  0  1  0  0  0  0  0999 V2000
    7.4987  -12.1452   19.9639 C   0  0  0  0  0  0  0  0  0  0  0  0
    8.1445  -13.4441   20.3833 C   0  0  2  0  0  0  0  0  0  0  0  0
    9.6148  -13.4018   20.0715 C   0  0  0  0  0  0  0  0  0  0  0  0
    7.5106  -14.6425   19.7510 C   0  0  0  0  0  0  0  0  0  0  0  0
    7.9878  -15.9437   20.2999 C   0  0  2  0  0  0  0  0  0  0  0  0
    7.4618  -17.0884   19.6116 N   0  0  0  0  0  0  0  0  0  0  0  0
    7.5994  -15.9793   21.7552 C   0  0  0  0  0  0  0  0  0  0  0  0
    6.6039  -15.3218   22.0741 O   0  0  0  0  0  0  0  0  0  0  0  0
    8.3312  -16.7180   22.6842 N   0  0  0  0  0  0  0  0  0  0  0  0
    8.0207  -16.9551   24.0518 C   0  0  1  0  0  0  0  0  0  0  0  0
    7.9093  -18.4466   24.4208 C   0  0  0  0  0  0  0  0  0  0  0  0
    6.5191  -18.9516   24.1320 C   0  0  0  0  0  0  0  0  0  0  0  0
    6.6006  -20.0933   23.1369 C   0  0  0  0  0  0  0  0  0  0  0  0
    5.2575  -20.5584   22.6695 C   0  0  0  0  0  0  0  0  0  0  0  0
    5.4869  -21.6147   21.6709 N   0  0  0  0  0  0  0  0  0  0  0  0
    8.9093  -16.3051   24.9966 C   0  0  0  0  0  0  0  0  0  0  0  0
   10.1628  -16.1904   24.7577 O   0  0  0  0  0  0  0  0  0  0  0  0
    7.9391  -12.9976   27.0774 C   0  0  0  0  0  0  0  0  0  0  0  0
    8.7580  -13.9437   27.8898 C   0  0  2  0  0  0  0  0  0  0  0  0
    9.8194  -13.2227   28.6703 C   0  0  0  0  0  0  0  0  0  0  0  0
    9.4198  -15.0285   27.0816 C   0  0  2  0  0  0  0  0  0  0  0  0
    8.4875  -15.7461   26.2479 N   0  0  0  0  0  0  0  0  0  0  0  0
   10.1736  -15.9828   27.8969 C   0  0  0  0  0  0  0  0  0  0  0  0
   11.4892  -15.7069   28.2171 O   0  0  0  0  0  0  0  0  0  0  0  0
    9.6689  -17.0509   28.3207 O   0  0  0  0  0  0  0  0  0  0  0  0
  2  1  1  6
  3  2  1  0
  4  2  1  0
  4  5  1  0
  5  7  1  0
  5  6  1  6
  7  8  2  0
  9 10  1  0
  9  7  1  0
 11 12  1  0
 10 11  1  6
 13 12  1  0
 13 14  1  0
 15 14  1  0
 16 10  1  0
 17 16  2  0
 19 18  1  6
 19 21  1  0
 20 19  1  0
 21 23  1  0
 21 22  1  1
 22 16  1  0
 23 24  1  0
 25 23  2  0
M  END
$$$$
