LKV.pdb
     RDKit          3D

 25 24  0  0  1  0  0  0  0  0999 V2000
    9.4924  -13.1862   19.2359 C   0  0  0  0  0  0  0  0  0  0  0  0
    8.0049  -13.3620   19.4273 C   0  0  2  0  0  0  0  0  0  0  0  0
    7.3282  -12.0197   19.3910 C   0  0  0  0  0  0  0  0  0  0  0  0
    7.6600  -14.0870   20.6894 C   0  0  0  0  0  0  0  0  0  0  0  0
    8.3274  -15.4124   20.8312 C   0  0  2  0  0  0  0  0  0  0  0  0
    7.8453  -16.4030   19.9108 N   0  0  0  0  0  0  0  0  0  0  0  0
    8.1147  -15.8654   22.2523 C   0  0  0  0  0  0  0  0  0  0  0  0
    7.2978  -15.2210   22.9176 O   0  0  0  0  0  0  0  0  0  0  0  0
    8.8077  -16.9549   22.7787 N   0  0  0  0  0  0  0  0  0  0  0  0
    8.7571  -17.4642   24.1057 C   0  0  1  0  0  0  0  0  0  0  0  0
    9.1847  -18.9390   24.2287 C   0  0  0  0  0  0  0  0  0  0  0  0
    9.0217  -19.4111   25.6506 C   0  0  0  0  0  0  0  0  0  0  0  0
    7.7276  -20.1928   25.7707 C   0  0  0  0  0  0  0  0  0  0  0  0
    7.4023  -20.5721   27.1811 C   0  0  0  0  0  0  0  0  0  0  0  0
    6.1969  -21.4150   27.1372 N   0  0  0  0  0  0  0  0  0  0  0  0
    9.4902  -16.6821   25.0834 C   0  0  0  0  0  0  0  0  0  0  0  0
   10.6973  -16.3116   24.8666 O   0  0  0  0  0  0  0  0  0  0  0  0
    8.2376  -13.4216   26.6360 C   0  0  0  0  0  0  0  0  0  0  0  0
    8.8851  -14.2256   27.7129 C   0  0  2  0  0  0  0  0  0  0  0  0
    9.7597  -13.3726   28.5864 C   0  0  0  0  0  0  0  0  0  0  0  0
    9.7075  -15.3797   27.2034 C   0  0  2  0  0  0  0  0  0  0  0  0
    8.9549  -16.2609   26.3451 N   0  0  0  0  0  0  0  0  0  0  0  0
   10.3344  -16.1624   28.2702 C   0  0  0  0  0  0  0  0  0  0  0  0
    9.9763  -17.4867   28.4365 O   0  0  0  0  0  0  0  0  0  0  0  0
   11.1915  -15.6751   29.0468 O   0  0  0  0  0  0  0  0  0  0  0  0
  2  1  1  1
  3  2  1  0
  4  2  1  0
  4  5  1  0
  5  7  1  0
  5  6  1  6
  7  8  2  0
  9 10  1  0
  9  7  1  0
 11 12  1  0
 10 11  1  6
 13 12  1  0
 13 14  1  0
 15 14  1  0
 16 10  1  0
 17 16  2  0
 19 18  1  6
 19 21  1  0
 20 19  1  0
 21 23  1  0
 21 22  1  1
 22 16  1  0
 23 24  1  0
 25 23  2  0
M  END
$$$$
