LKV.pdb
     RDKit          3D

 25 24  0  0  1  0  0  0  0  0999 V2000
    9.5088  -12.9202   19.7196 C   0  0  0  0  0  0  0  0  0  0  0  0
    8.0425  -13.2174   19.5151 C   0  0  2  0  0  0  0  0  0  0  0  0
    7.2975  -11.9365   19.2603 C   0  0  0  0  0  0  0  0  0  0  0  0
    7.4311  -13.9580   20.6621 C   0  0  0  0  0  0  0  0  0  0  0  0
    8.1556  -15.2063   21.0354 C   0  0  2  0  0  0  0  0  0  0  0  0
    7.9043  -16.3068   20.1485 N   0  0  0  0  0  0  0  0  0  0  0  0
    7.7396  -15.5561   22.4406 C   0  0  0  0  0  0  0  0  0  0  0  0
    7.0309  -14.7307   23.0250 O   0  0  0  0  0  0  0  0  0  0  0  0
    8.1387  -16.7501   23.0401 N   0  0  0  0  0  0  0  0  0  0  0  0
    7.9235  -17.1686   24.3823 C   0  0  1  0  0  0  0  0  0  0  0  0
    7.7960  -18.6944   24.5513 C   0  0  0  0  0  0  0  0  0  0  0  0
    6.5470  -19.1909   23.8697 C   0  0  0  0  0  0  0  0  0  0  0  0
    6.5341  -20.7073   23.8965 C   0  0  0  0  0  0  0  0  0  0  0  0
    5.3880  -21.2957   23.1356 C   0  0  0  0  0  0  0  0  0  0  0  0
    5.5550  -22.7576   23.1606 N   0  0  0  0  0  0  0  0  0  0  0  0
    8.8985  -16.6726   25.3354 C   0  0  0  0  0  0  0  0  0  0  0  0
   10.1486  -16.6517   25.0557 O   0  0  0  0  0  0  0  0  0  0  0  0
    8.3135  -13.4202   27.6269 C   0  0  0  0  0  0  0  0  0  0  0  0
    9.0445  -14.4930   28.3620 C   0  0  2  0  0  0  0  0  0  0  0  0
   10.1808  -13.9318   29.1679 C   0  0  0  0  0  0  0  0  0  0  0  0
    9.5868  -15.5818   27.4741 C   0  0  2  0  0  0  0  0  0  0  0  0
    8.5710  -16.1741   26.6393 N   0  0  0  0  0  0  0  0  0  0  0  0
   10.2849  -16.6378   28.2097 C   0  0  0  0  0  0  0  0  0  0  0  0
   11.5857  -16.4255   28.6250 O   0  0  0  0  0  0  0  0  0  0  0  0
    9.7452  -17.7379   28.4808 O   0  0  0  0  0  0  0  0  0  0  0  0
  2  1  1  1
  3  2  1  0
  4  2  1  0
  4  5  1  0
  5  7  1  0
  5  6  1  6
  7  8  2  0
  9 10  1  0
  9  7  1  0
 11 12  1  0
 10 11  1  6
 13 12  1  0
 13 14  1  0
 15 14  1  0
 16 10  1  0
 17 16  2  0
 19 18  1  6
 19 21  1  0
 20 19  1  0
 21 23  1  0
 21 22  1  1
 22 16  1  0
 23 24  1  0
 25 23  2  0
M  END
$$$$
