LKV.pdb
     RDKit          3D

 25 24  0  0  1  0  0  0  0  0999 V2000
    9.1628  -12.8558   18.7102 C   0  0  0  0  0  0  0  0  0  0  0  0
    7.8175  -13.5061   18.9279 C   0  0  2  0  0  0  0  0  0  0  0  0
    6.7257  -12.4969   18.7033 C   0  0  0  0  0  0  0  0  0  0  0  0
    7.6823  -14.1298   20.2808 C   0  0  0  0  0  0  0  0  0  0  0  0
    8.7398  -15.1316   20.5971 C   0  0  2  0  0  0  0  0  0  0  0  0
    8.7323  -16.2734   19.7269 N   0  0  0  0  0  0  0  0  0  0  0  0
    8.5326  -15.5576   22.0273 C   0  0  0  0  0  0  0  0  0  0  0  0
    7.7985  -14.8394   22.7132 O   0  0  0  0  0  0  0  0  0  0  0  0
    9.1415  -16.7026   22.5396 N   0  0  0  0  0  0  0  0  0  0  0  0
    9.0715  -17.2104   23.8662 C   0  0  1  0  0  0  0  0  0  0  0  0
    9.6246  -18.6398   24.0213 C   0  0  0  0  0  0  0  0  0  0  0  0
    9.4323  -19.1214   25.4363 C   0  0  0  0  0  0  0  0  0  0  0  0
    9.9572  -20.5394   25.5555 C   0  0  0  0  0  0  0  0  0  0  0  0
    9.7714  -21.1185   26.9226 C   0  0  0  0  0  0  0  0  0  0  0  0
   10.3126  -22.4867   26.8919 N   0  0  0  0  0  0  0  0  0  0  0  0
    9.6810  -16.3618   24.8729 C   0  0  0  0  0  0  0  0  0  0  0  0
   10.9134  -16.0206   24.7955 O   0  0  0  0  0  0  0  0  0  0  0  0
    8.4358  -12.9280   25.9145 C   0  0  0  0  0  0  0  0  0  0  0  0
    8.8052  -13.6737   27.1526 C   0  0  2  0  0  0  0  0  0  0  0  0
    9.5428  -12.7970   28.1237 C   0  0  0  0  0  0  0  0  0  0  0  0
    9.6366  -14.9038   26.9002 C   0  0  2  0  0  0  0  0  0  0  0  0
    8.9884  -15.8391   26.0145 N   0  0  0  0  0  0  0  0  0  0  0  0
   10.0368  -15.5964   28.1264 C   0  0  0  0  0  0  0  0  0  0  0  0
   11.0154  -15.0403   28.9280 O   0  0  0  0  0  0  0  0  0  0  0  0
    9.5225  -16.6845   28.4824 O   0  0  0  0  0  0  0  0  0  0  0  0
  2  1  1  1
  3  2  1  0
  4  2  1  0
  4  5  1  0
  5  7  1  0
  5  6  1  6
  7  8  2  0
  9 10  1  0
  9  7  1  0
 11 12  1  0
 10 11  1  6
 13 12  1  0
 13 14  1  0
 15 14  1  0
 16 10  1  0
 17 16  2  0
 19 18  1  6
 19 21  1  0
 20 19  1  0
 21 23  1  0
 21 22  1  6
 22 16  1  0
 23 24  1  0
 25 23  2  0
M  END
$$$$
