LKV.pdb
     RDKit          3D

 25 24  0  0  1  0  0  0  0  0999 V2000
    9.3808  -13.3574   19.0071 C   0  0  0  0  0  0  0  0  0  0  0  0
    7.9019  -13.6114   18.8385 C   0  0  2  0  0  0  0  0  0  0  0  0
    7.1906  -12.3105   18.5879 C   0  0  0  0  0  0  0  0  0  0  0  0
    7.2945  -14.3224   20.0061 C   0  0  0  0  0  0  0  0  0  0  0  0
    8.1929  -15.3295   20.6393 C   0  0  2  0  0  0  0  0  0  0  0  0
    8.2160  -16.5924   19.9572 N   0  0  0  0  0  0  0  0  0  0  0  0
    7.7267  -15.5067   22.0610 C   0  0  0  0  0  0  0  0  0  0  0  0
    7.3172  -14.4928   22.6350 O   0  0  0  0  0  0  0  0  0  0  0  0
    7.7598  -16.7527   22.6861 N   0  0  0  0  0  0  0  0  0  0  0  0
    7.4208  -17.0644   24.0318 C   0  0  1  0  0  0  0  0  0  0  0  0
    7.4717  -18.5687   24.3596 C   0  0  0  0  0  0  0  0  0  0  0  0
    7.1011  -18.7997   25.8020 C   0  0  0  0  0  0  0  0  0  0  0  0
    7.2162  -20.2793   26.1151 C   0  0  0  0  0  0  0  0  0  0  0  0
    6.8833  -20.6035   27.5374 C   0  0  0  0  0  0  0  0  0  0  0  0
    7.0651  -22.0541   27.7061 N   0  0  0  0  0  0  0  0  0  0  0  0
    8.1843  -16.3421   25.0320 C   0  0  0  0  0  0  0  0  0  0  0  0
    9.4605  -16.4388   25.0902 O   0  0  0  0  0  0  0  0  0  0  0  0
    7.2742  -12.5466   25.9423 C   0  0  0  0  0  0  0  0  0  0  0  0
    7.7577  -13.2992   27.1361 C   0  0  2  0  0  0  0  0  0  0  0  0
    8.6985  -12.4719   27.9644 C   0  0  0  0  0  0  0  0  0  0  0  0
    8.4395  -14.6002   26.8035 C   0  0  2  0  0  0  0  0  0  0  0  0
    7.6063  -15.4785   26.0200 N   0  0  0  0  0  0  0  0  0  0  0  0
    8.9263  -15.3192   27.9823 C   0  0  0  0  0  0  0  0  0  0  0  0
   10.0975  -14.9075   28.5891 O   0  0  0  0  0  0  0  0  0  0  0  0
    8.3177  -16.3032   28.4685 O   0  0  0  0  0  0  0  0  0  0  0  0
  2  1  1  1
  3  2  1  0
  4  2  1  0
  4  5  1  0
  5  7  1  0
  5  6  1  6
  7  8  2  0
  9 10  1  0
  9  7  1  0
 11 12  1  0
 10 11  1  1
 13 12  1  0
 13 14  1  0
 15 14  1  0
 16 10  1  0
 17 16  2  0
 19 18  1  6
 19 21  1  0
 20 19  1  0
 21 23  1  0
 21 22  1  1
 22 16  1  0
 23 24  1  0
 25 23  2  0
M  END
$$$$
