LKV.pdb
     RDKit          3D

 25 24  0  0  1  0  0  0  0  0999 V2000
    9.4125  -13.5141   18.8642 C   0  0  0  0  0  0  0  0  0  0  0  0
    7.9455  -13.8120   18.6664 C   0  0  2  0  0  0  0  0  0  0  0  0
    7.2622  -12.6138   18.0679 C   0  0  0  0  0  0  0  0  0  0  0  0
    7.2588  -14.2289   19.9283 C   0  0  0  0  0  0  0  0  0  0  0  0
    7.9136  -15.3705   20.6284 C   0  0  2  0  0  0  0  0  0  0  0  0
    7.6836  -16.6411   20.0011 N   0  0  0  0  0  0  0  0  0  0  0  0
    7.3941  -15.3792   22.0427 C   0  0  0  0  0  0  0  0  0  0  0  0
    7.1380  -14.2783   22.5403 O   0  0  0  0  0  0  0  0  0  0  0  0
    7.2157  -16.5714   22.7435 N   0  0  0  0  0  0  0  0  0  0  0  0
    6.7535  -16.7397   24.0780 C   0  0  1  0  0  0  0  0  0  0  0  0
    6.4073  -18.1956   24.4435 C   0  0  0  0  0  0  0  0  0  0  0  0
    7.4948  -19.1241   23.9678 C   0  0  0  0  0  0  0  0  0  0  0  0
    7.1548  -20.5430   24.3820 C   0  0  0  0  0  0  0  0  0  0  0  0
    8.1578  -21.5468   23.9074 C   0  0  0  0  0  0  0  0  0  0  0  0
    7.6401  -22.8783   24.2604 N   0  0  0  0  0  0  0  0  0  0  0  0
    7.6333  -16.1987   25.0969 C   0  0  0  0  0  0  0  0  0  0  0  0
    8.9049  -16.3318   25.0144 O   0  0  0  0  0  0  0  0  0  0  0  0
    6.5741  -12.5886   26.1948 C   0  0  0  0  0  0  0  0  0  0  0  0
    7.2831  -13.2747   27.3137 C   0  0  2  0  0  0  0  0  0  0  0  0
    8.2453  -12.3512   28.0041 C   0  0  0  0  0  0  0  0  0  0  0  0
    8.0329  -14.5118   26.8948 C   0  0  2  0  0  0  0  0  0  0  0  0
    7.1827  -15.4862   26.2567 N   0  0  0  0  0  0  0  0  0  0  0  0
    8.7607  -15.1501   27.9932 C   0  0  0  0  0  0  0  0  0  0  0  0
    9.8498  -14.5049   28.5472 O   0  0  0  0  0  0  0  0  0  0  0  0
    8.4328  -16.2696   28.4561 O   0  0  0  0  0  0  0  0  0  0  0  0
  2  1  1  1
  3  2  1  0
  4  2  1  0
  4  5  1  0
  5  7  1  0
  5  6  1  6
  7  8  2  0
  9 10  1  0
  9  7  1  0
 11 12  1  0
 10 11  1  1
 13 12  1  0
 13 14  1  0
 15 14  1  0
 16 10  1  0
 17 16  2  0
 19 18  1  6
 19 21  1  0
 20 19  1  0
 21 23  1  0
 21 22  1  1
 22 16  1  0
 23 24  1  0
 25 23  2  0
M  END
$$$$
