CWC.pdb
     RDKit          3D

 27 28  0  0  1  0  0  0  0  0999 V2000
   17.8977  -14.4765  -17.5583 N   0  0  0  0  0  0  0  0  0  0  0  0
   18.6252  -13.2822  -17.9487 C   0  0  1  0  0  0  0  0  0  0  0  0
   18.1297  -12.8871  -19.3296 C   0  0  0  0  0  0  0  0  0  0  0  0
   16.4641  -12.1946  -19.2504 S   0  0  0  0  0  0  0  0  0  0  0  0
   18.3357  -12.1945  -16.9689 C   0  0  0  0  0  0  0  0  0  0  0  0
   17.2122  -12.0998  -16.4359 O   0  0  0  0  0  0  0  0  0  0  0  0
   19.3203  -11.2607  -16.6306 N   0  0  0  0  0  0  0  0  0  0  0  0
   19.1480  -10.1389  -15.7151 C   0  0  1  0  0  0  0  0  0  0  0  0
   20.3807  -10.0910  -14.8800 C   0  0  0  0  0  0  0  0  0  0  0  0
   20.4851   -9.0145  -13.8947 C   0  0  0  0  0  0  0  0  0  0  0  0
   19.8736   -8.9175  -12.6448 C   0  0  0  0  0  0  0  0  0  0  0  0
   20.2345   -7.7591  -12.1200 N   0  0  0  0  0  0  0  0  0  0  0  0
   21.0455   -7.0681  -12.9249 C   0  0  0  0  0  0  0  0  0  0  0  0
   21.6962   -5.8595  -12.8597 C   0  0  0  0  0  0  0  0  0  0  0  0
   22.5045   -5.4065  -13.8723 C   0  0  0  0  0  0  0  0  0  0  0  0
   22.6864   -6.1692  -15.0016 C   0  0  0  0  0  0  0  0  0  0  0  0
   22.0404   -7.3725  -15.0716 C   0  0  0  0  0  0  0  0  0  0  0  0
   21.2125   -7.8536  -14.0541 C   0  0  0  0  0  0  0  0  0  0  0  0
   18.7172   -8.9130  -16.3586 C   0  0  0  0  0  0  0  0  0  0  0  0
   19.2015   -8.5709  -17.4633 O   0  0  0  0  0  0  0  0  0  0  0  0
   17.7404   -8.0287  -15.8014 N   0  0  0  0  0  0  0  0  0  0  0  0
   17.3883   -6.7963  -16.4345 C   0  0  1  0  0  0  0  0  0  0  0  0
   15.9178   -6.7677  -16.7731 C   0  0  0  0  0  0  0  0  0  0  0  0
   15.5494   -5.3074  -17.7787 S   0  0  0  0  0  0  0  0  0  0  0  0
   17.6538   -5.6173  -15.5425 C   0  0  0  0  0  0  0  0  0  0  0  0
   17.3827   -5.6181  -14.3198 O   0  0  0  0  0  0  0  0  0  0  0  0
   18.2244   -4.4818  -16.1024 O   0  0  0  0  0  0  0  0  0  0  0  0
  2  1  1  1
  2  5  1  0
  3  2  1  0
  4  3  1  0
  5  6  2  0
  7  5  1  0
  7  8  1  0
  8  9  1  6
 10  9  1  0
 11 10  2  0
 12 13  1  0
 12 11  1  0
 13 18  2  0
 14 15  2  0
 14 13  1  0
 15 16  1  0
 16 17  2  0
 18 17  1  0
 18 10  1  0
 19 21  1  0
 19  8  1  0
 20 19  2  0
 22 23  1  1
 22 21  1  0
 23 24  1  0
 25 22  1  0
 25 27  1  0
 26 25  2  0
M  END
$$$$
