CWC.pdb
     RDKit          3D

 27 28  0  0  1  0  0  0  0  0999 V2000
   28.6548  -20.8809  -17.7085 N   0  0  0  0  0  0  0  0  0  0  0  0
   28.1234  -19.8645  -16.8182 C   0  0  1  0  0  0  0  0  0  0  0  0
   27.3349  -18.8873  -17.6736 C   0  0  0  0  0  0  0  0  0  0  0  0
   28.3131  -17.4180  -18.0534 S   0  0  0  0  0  0  0  0  0  0  0  0
   27.2242  -20.5144  -15.8202 C   0  0  0  0  0  0  0  0  0  0  0  0
   26.5145  -21.4882  -16.1414 O   0  0  0  0  0  0  0  0  0  0  0  0
   27.1613  -20.0422  -14.5053 N   0  0  0  0  0  0  0  0  0  0  0  0
   26.3152  -20.5836  -13.4482 C   0  0  1  0  0  0  0  0  0  0  0  0
   26.9746  -20.2222  -12.1622 C   0  0  0  0  0  0  0  0  0  0  0  0
   26.3872  -20.7530  -10.9318 C   0  0  0  0  0  0  0  0  0  0  0  0
   25.6204  -21.9057  -10.7612 C   0  0  0  0  0  0  0  0  0  0  0  0
   25.2851  -21.9686   -9.4841 N   0  0  0  0  0  0  0  0  0  0  0  0
   25.7705  -20.9425   -8.7808 C   0  0  0  0  0  0  0  0  0  0  0  0
   25.7309  -20.5486   -7.4649 C   0  0  0  0  0  0  0  0  0  0  0  0
   26.3622  -19.4140   -7.0200 C   0  0  0  0  0  0  0  0  0  0  0  0
   27.0651  -18.6268   -7.9009 C   0  0  0  0  0  0  0  0  0  0  0  0
   27.1068  -19.0140   -9.2118 C   0  0  0  0  0  0  0  0  0  0  0  0
   26.4718  -20.1640   -9.6876 C   0  0  0  0  0  0  0  0  0  0  0  0
   24.9078  -20.2695  -13.5999 C   0  0  0  0  0  0  0  0  0  0  0  0
   24.5458  -19.1133  -13.9227 O   0  0  0  0  0  0  0  0  0  0  0  0
   23.8592  -21.2217  -13.3990 N   0  0  0  0  0  0  0  0  0  0  0  0
   22.4810  -20.8693  -13.5412 C   0  0  1  0  0  0  0  0  0  0  0  0
   21.7777  -21.8203  -14.4787 C   0  0  0  0  0  0  0  0  0  0  0  0
   22.7433  -23.3434  -14.6436 S   0  0  0  0  0  0  0  0  0  0  0  0
   21.7530  -20.9318  -12.2289 C   0  0  0  0  0  0  0  0  0  0  0  0
   20.5479  -20.6135  -12.1067 O   0  0  0  0  0  0  0  0  0  0  0  0
   22.4503  -21.3617  -11.1076 O   0  0  0  0  0  0  0  0  0  0  0  0
  2  1  1  6
  2  5  1  0
  3  2  1  0
  4  3  1  0
  5  6  2  0
  7  5  1  0
  7  8  1  0
  8  9  1  1
 10  9  1  0
 11 10  2  0
 12 13  1  0
 12 11  1  0
 13 18  2  0
 14 15  2  0
 14 13  1  0
 15 16  1  0
 16 17  2  0
 18 17  1  0
 18 10  1  0
 19 21  1  0
 19  8  1  0
 20 19  2  0
 22 23  1  6
 22 21  1  0
 23 24  1  0
 25 22  1  0
 25 27  1  0
 26 25  2  0
M  END
$$$$
