CWC.pdb
     RDKit          3D

 27 28  0  0  1  0  0  0  0  0999 V2000
   28.6770  -21.7882  -15.5823 N   0  0  0  0  0  0  0  0  0  0  0  0
   28.5060  -20.6868  -14.6518 C   0  0  1  0  0  0  0  0  0  0  0  0
   27.8700  -19.5429  -15.4235 C   0  0  0  0  0  0  0  0  0  0  0  0
   29.0343  -18.8259  -16.6025 S   0  0  0  0  0  0  0  0  0  0  0  0
   27.6057  -21.1217  -13.5440 C   0  0  0  0  0  0  0  0  0  0  0  0
   26.6294  -21.8638  -13.7707 O   0  0  0  0  0  0  0  0  0  0  0  0
   27.8411  -20.7042  -12.2301 N   0  0  0  0  0  0  0  0  0  0  0  0
   26.9495  -20.9226  -11.0971 C   0  0  1  0  0  0  0  0  0  0  0  0
   27.7209  -20.5394   -9.8816 C   0  0  0  0  0  0  0  0  0  0  0  0
   27.0135  -20.5598   -8.6010 C   0  0  0  0  0  0  0  0  0  0  0  0
   25.6674  -20.8308   -8.3555 C   0  0  0  0  0  0  0  0  0  0  0  0
   25.4728  -20.7053   -7.0540 N   0  0  0  0  0  0  0  0  0  0  0  0
   26.5899  -20.3700   -6.4039 C   0  0  0  0  0  0  0  0  0  0  0  0
   26.9301  -20.1371   -5.0930 C   0  0  0  0  0  0  0  0  0  0  0  0
   28.2094  -19.8155   -4.7137 C   0  0  0  0  0  0  0  0  0  0  0  0
   29.2033  -19.7166   -5.6582 C   0  0  0  0  0  0  0  0  0  0  0  0
   28.8697  -19.9466   -6.9643 C   0  0  0  0  0  0  0  0  0  0  0  0
   27.5748  -20.2746   -7.3739 C   0  0  0  0  0  0  0  0  0  0  0  0
   25.6273  -20.3526  -11.2684 C   0  0  0  0  0  0  0  0  0  0  0  0
   25.4782  -19.1119  -11.3699 O   0  0  0  0  0  0  0  0  0  0  0  0
   24.4313  -21.1351  -11.3316 N   0  0  0  0  0  0  0  0  0  0  0  0
   23.1538  -20.5439  -11.5811 C   0  0  1  0  0  0  0  0  0  0  0  0
   22.4532  -21.2412  -12.7216 C   0  0  0  0  0  0  0  0  0  0  0  0
   23.5701  -21.3662  -14.1416 S   0  0  0  0  0  0  0  0  0  0  0  0
   22.2505  -20.6470  -10.3855 C   0  0  0  0  0  0  0  0  0  0  0  0
   21.1146  -20.1209  -10.3470 O   0  0  0  0  0  0  0  0  0  0  0  0
   22.6987  -21.3570   -9.2794 O   0  0  0  0  0  0  0  0  0  0  0  0
  2  1  1  6
  2  5  1  0
  3  2  1  0
  4  3  1  0
  5  6  2  0
  7  5  1  0
  7  8  1  0
  8  9  1  1
 10  9  1  0
 11 10  2  0
 12 13  1  0
 12 11  1  0
 13 18  2  0
 14 15  2  0
 14 13  1  0
 15 16  1  0
 16 17  2  0
 18 17  1  0
 18 10  1  0
 19 21  1  0
 19  8  1  0
 20 19  2  0
 22 23  1  6
 22 21  1  0
 23 24  1  0
 25 22  1  0
 25 27  1  0
 26 25  2  0
M  END
$$$$
