CWC.pdb
     RDKit          3D

 27 28  0  0  1  0  0  0  0  0999 V2000
   27.7557  -24.5486  -16.7642 N   0  0  0  0  0  0  0  0  0  0  0  0
   26.8137  -23.4566  -16.9322 C   0  0  1  0  0  0  0  0  0  0  0  0
   26.0531  -23.7154  -18.2218 C   0  0  0  0  0  0  0  0  0  0  0  0
   26.7680  -25.1007  -19.1327 S   0  0  0  0  0  0  0  0  0  0  0  0
   25.8721  -23.4445  -15.7746 C   0  0  0  0  0  0  0  0  0  0  0  0
   25.7631  -24.4402  -15.0317 O   0  0  0  0  0  0  0  0  0  0  0  0
   25.0939  -22.3148  -15.5020 N   0  0  0  0  0  0  0  0  0  0  0  0
   24.1263  -22.1917  -14.4181 C   0  0  1  0  0  0  0  0  0  0  0  0
   24.4459  -20.9157  -13.7188 C   0  0  0  0  0  0  0  0  0  0  0  0
   24.4800  -20.9396  -12.2563 C   0  0  0  0  0  0  0  0  0  0  0  0
   25.5220  -21.3343  -11.4172 C   0  0  0  0  0  0  0  0  0  0  0  0
   25.0911  -21.2148  -10.1732 N   0  0  0  0  0  0  0  0  0  0  0  0
   23.8343  -20.7676  -10.1124 C   0  0  0  0  0  0  0  0  0  0  0  0
   22.9482  -20.4645   -9.1067 C   0  0  0  0  0  0  0  0  0  0  0  0
   21.6852  -19.9909   -9.3606 C   0  0  0  0  0  0  0  0  0  0  0  0
   21.2676  -19.8043  -10.6570 C   0  0  0  0  0  0  0  0  0  0  0  0
   22.1455  -20.1052  -11.6614 C   0  0  0  0  0  0  0  0  0  0  0  0
   23.4351  -20.5889  -11.4272 C   0  0  0  0  0  0  0  0  0  0  0  0
   22.7527  -22.4158  -14.8251 C   0  0  0  0  0  0  0  0  0  0  0  0
   22.3238  -21.9414  -15.9034 O   0  0  0  0  0  0  0  0  0  0  0  0
   21.8126  -23.1692  -14.0535 N   0  0  0  0  0  0  0  0  0  0  0  0
   20.4357  -23.2666  -14.4253 C   0  0  1  0  0  0  0  0  0  0  0  0
   19.8274  -24.5448  -13.9018 C   0  0  0  0  0  0  0  0  0  0  0  0
   18.0736  -24.6157  -14.3478 S   0  0  0  0  0  0  0  0  0  0  0  0
   19.6260  -22.1345  -13.8606 C   0  0  0  0  0  0  0  0  0  0  0  0
   19.7053  -21.7761  -12.6632 O   0  0  0  0  0  0  0  0  0  0  0  0
   18.7548  -21.4605  -14.7063 O   0  0  0  0  0  0  0  0  0  0  0  0
  2  1  1  1
  2  5  1  0
  3  2  1  0
  4  3  1  0
  5  6  2  0
  7  5  1  0
  7  8  1  0
  8  9  1  6
 10  9  1  0
 11 10  2  0
 12 13  1  0
 12 11  1  0
 13 18  2  0
 14 15  2  0
 14 13  1  0
 15 16  1  0
 16 17  2  0
 18 17  1  0
 18 10  1  0
 19 21  1  0
 19  8  1  0
 20 19  2  0
 22 23  1  1
 22 21  1  0
 23 24  1  0
 25 22  1  0
 25 27  1  0
 26 25  2  0
M  END
$$$$
