CWC.pdb
     RDKit          3D

 27 28  0  0  1  0  0  0  0  0999 V2000
   28.4631  -21.8077  -16.5379 N   0  0  0  0  0  0  0  0  0  0  0  0
   28.7081  -20.9967  -15.3588 C   0  0  1  0  0  0  0  0  0  0  0  0
   28.5535  -19.5435  -15.7745 C   0  0  0  0  0  0  0  0  0  0  0  0
   26.8219  -19.1348  -16.0822 S   0  0  0  0  0  0  0  0  0  0  0  0
   27.7004  -21.3414  -14.3136 C   0  0  0  0  0  0  0  0  0  0  0  0
   26.6207  -21.8830  -14.6238 O   0  0  0  0  0  0  0  0  0  0  0  0
   27.9492  -21.0630  -12.9658 N   0  0  0  0  0  0  0  0  0  0  0  0
   26.9995  -21.2381  -11.8732 C   0  0  1  0  0  0  0  0  0  0  0  0
   27.7872  -21.1161  -10.6146 C   0  0  0  0  0  0  0  0  0  0  0  0
   27.0677  -20.7115   -9.4065 C   0  0  0  0  0  0  0  0  0  0  0  0
   25.6939  -20.5534   -9.2246 C   0  0  0  0  0  0  0  0  0  0  0  0
   25.5066  -20.1484   -7.9803 N   0  0  0  0  0  0  0  0  0  0  0  0
   26.6544  -20.0225   -7.3096 C   0  0  0  0  0  0  0  0  0  0  0  0
   27.0100  -19.6614   -6.0323 C   0  0  0  0  0  0  0  0  0  0  0  0
   28.3168  -19.6416   -5.6130 C   0  0  0  0  0  0  0  0  0  0  0  0
   29.3239  -19.9905   -6.4813 C   0  0  0  0  0  0  0  0  0  0  0  0
   28.9752  -20.3499   -7.7539 C   0  0  0  0  0  0  0  0  0  0  0  0
   27.6525  -20.3769   -8.2031 C   0  0  0  0  0  0  0  0  0  0  0  0
   25.7982  -20.4363  -12.0013 C   0  0  0  0  0  0  0  0  0  0  0  0
   25.8742  -19.2202  -12.2968 O   0  0  0  0  0  0  0  0  0  0  0  0
   24.4785  -20.9529  -11.8063 N   0  0  0  0  0  0  0  0  0  0  0  0
   23.3237  -20.2938  -12.3314 C   0  0  1  0  0  0  0  0  0  0  0  0
   23.4072  -20.1805  -13.8341 C   0  0  0  0  0  0  0  0  0  0  0  0
   21.8691  -19.4773  -14.4815 S   0  0  0  0  0  0  0  0  0  0  0  0
   22.0630  -21.0486  -12.0200 C   0  0  0  0  0  0  0  0  0  0  0  0
   21.0132  -20.4847  -11.6348 O   0  0  0  0  0  0  0  0  0  0  0  0
   22.0674  -22.4294  -12.1676 O   0  0  0  0  0  0  0  0  0  0  0  0
  2  1  1  6
  2  5  1  0
  3  2  1  0
  4  3  1  0
  5  6  2  0
  7  5  1  0
  7  8  1  0
  8  9  1  1
 10  9  1  0
 11 10  2  0
 12 13  1  0
 12 11  1  0
 13 18  2  0
 14 15  2  0
 14 13  1  0
 15 16  1  0
 16 17  2  0
 18 17  1  0
 18 10  1  0
 19 21  1  0
 19  8  1  0
 20 19  2  0
 22 23  1  6
 22 21  1  0
 23 24  1  0
 25 22  1  0
 25 27  1  0
 26 25  2  0
M  END
$$$$
