CWC.pdb
     RDKit          3D

 27 28  0  0  1  0  0  0  0  0999 V2000
   19.4573  -14.7360  -18.4130 N   0  0  0  0  0  0  0  0  0  0  0  0
   20.0422  -13.5003  -18.9018 C   0  0  1  0  0  0  0  0  0  0  0  0
   18.9378  -12.7291  -19.6047 C   0  0  0  0  0  0  0  0  0  0  0  0
   18.4358  -13.5550  -21.1297 S   0  0  0  0  0  0  0  0  0  0  0  0
   20.5587  -12.7151  -17.7427 C   0  0  0  0  0  0  0  0  0  0  0  0
   19.8552  -12.5396  -16.7280 O   0  0  0  0  0  0  0  0  0  0  0  0
   21.8426  -12.1613  -17.7736 N   0  0  0  0  0  0  0  0  0  0  0  0
   22.4702  -11.4114  -16.6920 C   0  0  1  0  0  0  0  0  0  0  0  0
   23.9045  -11.8139  -16.6851 C   0  0  0  0  0  0  0  0  0  0  0  0
   24.2175  -13.1841  -16.2784 C   0  0  0  0  0  0  0  0  0  0  0  0
   23.8234  -13.8597  -15.1235 C   0  0  0  0  0  0  0  0  0  0  0  0
   24.3661  -15.0643  -15.1688 N   0  0  0  0  0  0  0  0  0  0  0  0
   25.0971  -15.2502  -16.2707 C   0  0  0  0  0  0  0  0  0  0  0  0
   25.8341  -16.2840  -16.7965 C   0  0  0  0  0  0  0  0  0  0  0  0
   26.4845  -16.1823  -18.0009 C   0  0  0  0  0  0  0  0  0  0  0  0
   26.4122  -15.0167  -18.7261 C   0  0  0  0  0  0  0  0  0  0  0  0
   25.6806  -13.9846  -18.2067 C   0  0  0  0  0  0  0  0  0  0  0  0
   25.0110  -14.0649  -16.9832 C   0  0  0  0  0  0  0  0  0  0  0  0
   22.1641   -9.9941  -16.7015 C   0  0  0  0  0  0  0  0  0  0  0  0
   22.6000   -9.2558  -17.6162 O   0  0  0  0  0  0  0  0  0  0  0  0
   21.3689   -9.3505  -15.7015 N   0  0  0  0  0  0  0  0  0  0  0  0
   21.0970   -7.9475  -15.7397 C   0  0  1  0  0  0  0  0  0  0  0  0
   19.6147   -7.6910  -15.8616 C   0  0  0  0  0  0  0  0  0  0  0  0
   18.9876   -8.4380  -17.3875 S   0  0  0  0  0  0  0  0  0  0  0  0
   21.5579   -7.2577  -14.4875 C   0  0  0  0  0  0  0  0  0  0  0  0
   22.0490   -7.8754  -13.5151 O   0  0  0  0  0  0  0  0  0  0  0  0
   21.4319   -5.8769  -14.4106 O   0  0  0  0  0  0  0  0  0  0  0  0
  2  1  1  1
  2  5  1  0
  3  2  1  0
  4  3  1  0
  5  6  2  0
  7  5  1  0
  7  8  1  0
  8  9  1  6
 10  9  1  0
 11 10  2  0
 12 13  1  0
 12 11  1  0
 13 18  2  0
 14 15  2  0
 14 13  1  0
 15 16  1  0
 16 17  2  0
 18 17  1  0
 18 10  1  0
 19 21  1  0
 19  8  1  0
 20 19  2  0
 22 23  1  1
 22 21  1  0
 23 24  1  0
 25 22  1  0
 25 27  1  0
 26 25  2  0
M  END
$$$$
