CWC.pdb
     RDKit          3D

 27 28  0  0  1  0  0  0  0  0999 V2000
   28.7933  -22.3511  -16.9149 N   0  0  0  0  0  0  0  0  0  0  0  0
   28.4607  -21.1461  -16.1764 C   0  0  1  0  0  0  0  0  0  0  0  0
   27.8782  -20.1570  -17.1718 C   0  0  0  0  0  0  0  0  0  0  0  0
   29.1612  -19.4875  -18.2516 S   0  0  0  0  0  0  0  0  0  0  0  0
   27.4483  -21.4797  -15.1322 C   0  0  0  0  0  0  0  0  0  0  0  0
   26.5322  -22.2919  -15.3695 O   0  0  0  0  0  0  0  0  0  0  0  0
   27.5089  -20.8866  -13.8670 N   0  0  0  0  0  0  0  0  0  0  0  0
   26.5945  -21.1486  -12.7618 C   0  0  1  0  0  0  0  0  0  0  0  0
   27.2892  -20.6834  -11.5287 C   0  0  0  0  0  0  0  0  0  0  0  0
   26.5309  -20.7105  -10.2778 C   0  0  0  0  0  0  0  0  0  0  0  0
   25.2419  -21.1937  -10.0526 C   0  0  0  0  0  0  0  0  0  0  0  0
   24.9612  -20.9843   -8.7779 N   0  0  0  0  0  0  0  0  0  0  0  0
   25.9675  -20.3955   -8.1269 C   0  0  0  0  0  0  0  0  0  0  0  0
   26.1935  -19.9844   -6.8353 C   0  0  0  0  0  0  0  0  0  0  0  0
   27.3756  -19.4054   -6.4464 C   0  0  0  0  0  0  0  0  0  0  0  0
   28.3846  -19.2189   -7.3614 C   0  0  0  0  0  0  0  0  0  0  0  0
   28.1643  -19.6256   -8.6483 C   0  0  0  0  0  0  0  0  0  0  0  0
   26.9695  -20.2164   -9.0671 C   0  0  0  0  0  0  0  0  0  0  0  0
   25.2406  -20.6838  -12.9932 C   0  0  0  0  0  0  0  0  0  0  0  0
   25.0286  -19.5090  -13.3762 O   0  0  0  0  0  0  0  0  0  0  0  0
   24.0816  -21.5016  -12.8077 N   0  0  0  0  0  0  0  0  0  0  0  0
   22.7640  -21.0173  -13.0779 C   0  0  1  0  0  0  0  0  0  0  0  0
   21.7690  -22.1519  -13.0999 C   0  0  0  0  0  0  0  0  0  0  0  0
   20.0993  -21.4973  -13.3515 S   0  0  0  0  0  0  0  0  0  0  0  0
   22.3004  -20.0506  -12.0259 C   0  0  0  0  0  0  0  0  0  0  0  0
   22.5033  -20.2310  -10.8033 O   0  0  0  0  0  0  0  0  0  0  0  0
   21.6192  -18.9106  -12.4318 O   0  0  0  0  0  0  0  0  0  0  0  0
  2  1  1  6
  2  5  1  0
  3  2  1  0
  4  3  1  0
  5  6  2  0
  7  5  1  0
  7  8  1  0
  8  9  1  1
 10  9  1  0
 11 10  2  0
 12 13  1  0
 12 11  1  0
 13 18  2  0
 14 15  2  0
 14 13  1  0
 15 16  1  0
 16 17  2  0
 18 17  1  0
 18 10  1  0
 19 21  1  0
 19  8  1  0
 20 19  2  0
 22 23  1  1
 22 21  1  0
 23 24  1  0
 25 22  1  0
 25 27  1  0
 26 25  2  0
M  END
$$$$
