CWC.pdb
     RDKit          3D

 27 28  0  0  1  0  0  0  0  0999 V2000
   20.8299  -10.8791  -19.6020 N   0  0  0  0  0  0  0  0  0  0  0  0
   20.8027   -9.4645  -19.9280 C   0  0  1  0  0  0  0  0  0  0  0  0
   19.8207   -9.2875  -21.0739 C   0  0  0  0  0  0  0  0  0  0  0  0
   20.5932   -9.6747  -22.6592 S   0  0  0  0  0  0  0  0  0  0  0  0
   20.3406   -8.6991  -18.7333 C   0  0  0  0  0  0  0  0  0  0  0  0
   19.2671   -8.9877  -18.1680 O   0  0  0  0  0  0  0  0  0  0  0  0
   21.1041   -7.6430  -18.2257 N   0  0  0  0  0  0  0  0  0  0  0  0
   20.7331   -6.7901  -17.1026 C   0  0  1  0  0  0  0  0  0  0  0  0
   21.9131   -6.7633  -16.1937 C   0  0  0  0  0  0  0  0  0  0  0  0
   22.0756   -7.8848  -15.2681 C   0  0  0  0  0  0  0  0  0  0  0  0
   23.0408   -8.8917  -15.2831 C   0  0  0  0  0  0  0  0  0  0  0  0
   22.7781   -9.7024  -14.2726 N   0  0  0  0  0  0  0  0  0  0  0  0
   21.7062   -9.3151  -13.5768 C   0  0  0  0  0  0  0  0  0  0  0  0
   21.0369   -9.7754  -12.4684 C   0  0  0  0  0  0  0  0  0  0  0  0
   19.9370   -9.1331  -11.9569 C   0  0  0  0  0  0  0  0  0  0  0  0
   19.4684   -7.9877  -12.5555 C   0  0  0  0  0  0  0  0  0  0  0  0
   20.1305   -7.5260  -13.6594 C   0  0  0  0  0  0  0  0  0  0  0  0
   21.2513   -8.1630  -14.1979 C   0  0  0  0  0  0  0  0  0  0  0  0
   20.1492   -5.5214  -17.4928 C   0  0  0  0  0  0  0  0  0  0  0  0
   20.6965   -4.8131  -18.3707 O   0  0  0  0  0  0  0  0  0  0  0  0
   18.9453   -4.9974  -16.9249 N   0  0  0  0  0  0  0  0  0  0  0  0
   18.4148   -3.7290  -17.3167 C   0  0  1  0  0  0  0  0  0  0  0  0
   17.1290   -3.9000  -18.0883 C   0  0  0  0  0  0  0  0  0  0  0  0
   16.1682   -2.3663  -18.0248 S   0  0  0  0  0  0  0  0  0  0  0  0
   18.0989   -2.8673  -16.1276 C   0  0  0  0  0  0  0  0  0  0  0  0
   17.9958   -1.6213  -16.2020 O   0  0  0  0  0  0  0  0  0  0  0  0
   17.9141   -3.4834  -14.8970 O   0  0  0  0  0  0  0  0  0  0  0  0
  2  1  1  1
  2  5  1  0
  3  2  1  0
  4  3  1  0
  5  6  2  0
  7  5  1  0
  7  8  1  0
  8  9  1  6
 10  9  1  0
 11 10  2  0
 12 13  1  0
 12 11  1  0
 13 18  2  0
 14 15  2  0
 14 13  1  0
 15 16  1  0
 16 17  2  0
 18 17  1  0
 18 10  1  0
 19 21  1  0
 19  8  1  0
 20 19  2  0
 22 23  1  1
 22 21  1  0
 23 24  1  0
 25 22  1  0
 25 27  1  0
 26 25  2  0
M  END
$$$$
