CWC.pdb
     RDKit          3D

 27 28  0  0  1  0  0  0  0  0999 V2000
   27.4025  -19.3368  -14.9552 N   0  0  0  0  0  0  0  0  0  0  0  0
   27.8468  -20.2336  -13.9033 C   0  0  1  0  0  0  0  0  0  0  0  0
   29.3338  -19.9916  -13.7067 C   0  0  0  0  0  0  0  0  0  0  0  0
   30.0089  -21.0830  -12.4366 S   0  0  0  0  0  0  0  0  0  0  0  0
   27.1048  -19.9161  -12.6482 C   0  0  0  0  0  0  0  0  0  0  0  0
   26.8848  -18.7332  -12.3201 O   0  0  0  0  0  0  0  0  0  0  0  0
   26.6423  -20.9408  -11.8162 N   0  0  0  0  0  0  0  0  0  0  0  0
   25.9736  -20.7566  -10.5336 C   0  0  1  0  0  0  0  0  0  0  0  0
   24.7153  -21.5512  -10.6033 C   0  0  0  0  0  0  0  0  0  0  0  0
   23.5937  -20.9726  -11.3436 C   0  0  0  0  0  0  0  0  0  0  0  0
   23.4195  -20.8783  -12.7243 C   0  0  0  0  0  0  0  0  0  0  0  0
   22.2725  -20.2553  -12.9335 N   0  0  0  0  0  0  0  0  0  0  0  0
   21.6602  -19.9232  -11.7942 C   0  0  0  0  0  0  0  0  0  0  0  0
   20.4827  -19.2992  -11.4587 C   0  0  0  0  0  0  0  0  0  0  0  0
   20.0999  -19.1083  -10.1545 C   0  0  0  0  0  0  0  0  0  0  0  0
   20.9042  -19.5471   -9.1296 C   0  0  0  0  0  0  0  0  0  0  0  0
   22.0775  -20.1680   -9.4583 C   0  0  0  0  0  0  0  0  0  0  0  0
   22.4880  -20.3728  -10.7780 C   0  0  0  0  0  0  0  0  0  0  0  0
   26.8363  -20.9528   -9.3848 C   0  0  0  0  0  0  0  0  0  0  0  0
   27.4328  -22.0427   -9.2166 O   0  0  0  0  0  0  0  0  0  0  0  0
   27.0649  -19.9525   -8.3880 N   0  0  0  0  0  0  0  0  0  0  0  0
   27.8982  -20.1946   -7.2518 C   0  0  1  0  0  0  0  0  0  0  0  0
   28.5896  -18.9267   -6.8133 C   0  0  0  0  0  0  0  0  0  0  0  0
   27.3553  -17.6778   -6.3707 S   0  0  0  0  0  0  0  0  0  0  0  0
   27.1049  -20.6882   -6.0757 C   0  0  0  0  0  0  0  0  0  0  0  0
   25.8589  -20.8123   -6.1028 O   0  0  0  0  0  0  0  0  0  0  0  0
   27.7869  -21.0198   -4.9124 O   0  0  0  0  0  0  0  0  0  0  0  0
  2  1  1  6
  2  5  1  0
  3  2  1  0
  4  3  1  0
  5  6  2  0
  7  5  1  0
  7  8  1  0
  8  9  1  1
 10  9  1  0
 11 10  2  0
 12 13  1  0
 12 11  1  0
 13 18  2  0
 14 15  2  0
 14 13  1  0
 15 16  1  0
 16 17  2  0
 18 17  1  0
 18 10  1  0
 19 21  1  0
 19  8  1  0
 20 19  2  0
 22 23  1  1
 22 21  1  0
 23 24  1  0
 25 22  1  0
 25 27  1  0
 26 25  2  0
M  END
$$$$
