AWD.pdb
     RDKit          3D

 28 29  0  0  1  0  0  0  0  0999 V2000
    6.5372  -14.4548   20.8478 C   0  0  0  0  0  0  0  0  0  0  0  0
    7.3398  -15.7196   21.0758 C   0  0  2  0  0  0  0  0  0  0  0  0
    6.4443  -16.7423   21.5428 N   0  0  0  0  0  0  0  0  0  0  0  0
    8.4315  -15.4827   22.0735 C   0  0  0  0  0  0  0  0  0  0  0  0
    9.3293  -14.6359   21.7774 O   0  0  0  0  0  0  0  0  0  0  0  0
    8.4076  -16.2108   23.2902 N   0  0  0  0  0  0  0  0  0  0  0  0
    9.4722  -16.0735   24.2590 C   0  0  1  0  0  0  0  0  0  0  0  0
    8.9241  -16.0681   25.6429 C   0  0  0  0  0  0  0  0  0  0  0  0
    7.7464  -15.2294   25.8253 C   0  0  0  0  0  0  0  0  0  0  0  0
    6.4375  -15.6603   25.7416 C   0  0  0  0  0  0  0  0  0  0  0  0
    5.6586  -14.5869   25.9730 N   0  0  0  0  0  0  0  0  0  0  0  0
    6.4398  -13.5007   26.1980 C   0  0  0  0  0  0  0  0  0  0  0  0
    6.1414  -12.1753   26.4793 C   0  0  0  0  0  0  0  0  0  0  0  0
    7.1731  -11.2660   26.6653 C   0  0  0  0  0  0  0  0  0  0  0  0
    8.4931  -11.6780   26.5708 C   0  0  0  0  0  0  0  0  0  0  0  0
    8.8178  -12.9724   26.2955 C   0  0  0  0  0  0  0  0  0  0  0  0
    7.7652  -13.8716   26.1122 C   0  0  0  0  0  0  0  0  0  0  0  0
   10.4631  -17.1471   24.0054 C   0  0  0  0  0  0  0  0  0  0  0  0
   10.1603  -18.3583   24.0981 O   0  0  0  0  0  0  0  0  0  0  0  0
   11.8208  -16.8587   23.6411 N   0  0  0  0  0  0  0  0  0  0  0  0
   12.8425  -17.8667   23.6299 C   0  0  1  0  0  0  0  0  0  0  0  0
   13.6118  -17.9023   22.3268 C   0  0  0  0  0  0  0  0  0  0  0  0
   13.8703  -16.5027   21.9453 C   0  0  0  0  0  0  0  0  0  0  0  0
   14.6471  -15.8098   22.6346 O   0  0  0  0  0  0  0  0  0  0  0  0
   13.8210  -17.5790   24.7067 C   0  0  0  0  0  0  0  0  0  0  0  0
   14.8923  -18.2588   24.7809 O   0  0  0  0  0  0  0  0  0  0  0  0
   13.2578  -15.9663   20.8363 O   0  0  0  0  0  0  0  0  0  0  0  0
   13.5828  -16.5811   25.6304 O   0  0  0  0  0  0  0  0  0  0  0  0
  2  1  1  1
  3  2  1  0
  4  5  2  0
  4  2  1  0
  6  4  1  0
  7  6  1  0
  7  8  1  1
  9 17  1  0
  9  8  1  0
 10  9  2  0
 11 10  1  0
 11 12  1  0
 12 13  1  0
 12 17  2  0
 13 14  2  0
 14 15  1  0
 16 15  2  0
 17 16  1  0
 18 19  2  0
 18  7  1  0
 20 18  1  0
 21 22  1  6
 21 20  1  0
 23 24  2  0
 23 22  1  0
 25 21  1  0
 26 25  2  0
 27 23  1  0
 28 25  1  0
M  END
$$$$
