AWD.pdb
     RDKit          3D

 28 29  0  0  1  0  0  0  0  0999 V2000
    7.8612  -16.7301   19.5678 C   0  0  0  0  0  0  0  0  0  0  0  0
    7.3618  -15.5419   20.3646 C   0  0  2  0  0  0  0  0  0  0  0  0
    7.2411  -14.4212   19.4728 N   0  0  0  0  0  0  0  0  0  0  0  0
    8.3022  -15.2215   21.4853 C   0  0  0  0  0  0  0  0  0  0  0  0
    9.2008  -14.3509   21.2723 O   0  0  0  0  0  0  0  0  0  0  0  0
    8.1430  -15.9016   22.7195 N   0  0  0  0  0  0  0  0  0  0  0  0
    9.0021  -15.6092   23.8451 C   0  0  1  0  0  0  0  0  0  0  0  0
    8.3170  -15.9343   25.1259 C   0  0  0  0  0  0  0  0  0  0  0  0
    7.2012  -15.0569   25.4563 C   0  0  0  0  0  0  0  0  0  0  0  0
    5.8786  -15.4431   25.5410 C   0  0  0  0  0  0  0  0  0  0  0  0
    5.1724  -14.3448   25.8688 N   0  0  0  0  0  0  0  0  0  0  0  0
    6.0122  -13.2863   25.9910 C   0  0  0  0  0  0  0  0  0  0  0  0
    5.7973  -11.9525   26.3066 C   0  0  0  0  0  0  0  0  0  0  0  0
    6.8745  -11.0791   26.3581 C   0  0  0  0  0  0  0  0  0  0  0  0
    8.1568  -11.5351   26.0963 C   0  0  0  0  0  0  0  0  0  0  0  0
    8.3997  -12.8389   25.7832 C   0  0  0  0  0  0  0  0  0  0  0  0
    7.3025  -13.7014   25.7369 C   0  0  0  0  0  0  0  0  0  0  0  0
   10.2817  -16.3309   23.6439 C   0  0  0  0  0  0  0  0  0  0  0  0
   10.3124  -17.5419   23.3278 O   0  0  0  0  0  0  0  0  0  0  0  0
   11.5529  -15.6837   23.8002 N   0  0  0  0  0  0  0  0  0  0  0  0
   12.7952  -16.3856   23.6449 C   0  0  1  0  0  0  0  0  0  0  0  0
   13.9898  -15.4567   23.6162 C   0  0  0  0  0  0  0  0  0  0  0  0
   15.1562  -16.2729   23.2357 C   0  0  0  0  0  0  0  0  0  0  0  0
   14.9805  -17.4074   22.7451 O   0  0  0  0  0  0  0  0  0  0  0  0
   12.9826  -17.3024   24.7955 C   0  0  0  0  0  0  0  0  0  0  0  0
   13.6226  -18.3889   24.6361 O   0  0  0  0  0  0  0  0  0  0  0  0
   16.4291  -15.7849   23.4215 O   0  0  0  0  0  0  0  0  0  0  0  0
   12.4703  -16.9905   26.0389 O   0  0  0  0  0  0  0  0  0  0  0  0
  2  1  1  6
  3  2  1  0
  4  5  2  0
  4  2  1  0
  6  4  1  0
  7  6  1  0
  7  8  1  1
  9 17  1  0
  9  8  1  0
 10  9  2  0
 11 10  1  0
 11 12  1  0
 12 13  1  0
 12 17  2  0
 13 14  2  0
 14 15  1  0
 16 15  2  0
 17 16  1  0
 18 19  2  0
 18  7  1  0
 20 18  1  0
 21 22  1  1
 21 20  1  0
 23 24  2  0
 23 22  1  0
 25 21  1  0
 26 25  2  0
 27 23  1  0
 28 25  1  0
M  END
$$$$
