AWD.pdb
     RDKit          3D

 28 29  0  0  1  0  0  0  0  0999 V2000
    6.2600  -15.3126   20.5350 C   0  0  0  0  0  0  0  0  0  0  0  0
    7.4257  -16.2098   20.8984 C   0  0  2  0  0  0  0  0  0  0  0  0
    6.9062  -17.3785   21.5543 N   0  0  0  0  0  0  0  0  0  0  0  0
    8.3895  -15.4917   21.7921 C   0  0  0  0  0  0  0  0  0  0  0  0
    8.9720  -14.4637   21.3285 O   0  0  0  0  0  0  0  0  0  0  0  0
    8.6016  -15.9923   23.1018 N   0  0  0  0  0  0  0  0  0  0  0  0
    9.4745  -15.3052   24.0273 C   0  0  1  0  0  0  0  0  0  0  0  0
    9.0458  -15.5490   25.4317 C   0  0  0  0  0  0  0  0  0  0  0  0
    7.7638  -14.9533   25.7862 C   0  0  0  0  0  0  0  0  0  0  0  0
    6.5511  -15.6130   25.7948 C   0  0  0  0  0  0  0  0  0  0  0  0
    5.6228  -14.7163   26.1777 N   0  0  0  0  0  0  0  0  0  0  0  0
    6.2177  -13.5189   26.4079 C   0  0  0  0  0  0  0  0  0  0  0  0
    5.7201  -12.2891   26.8137 C   0  0  0  0  0  0  0  0  0  0  0  0
    6.5874  -11.2168   26.9683 C   0  0  0  0  0  0  0  0  0  0  0  0
    7.9419  -11.3724   26.7194 C   0  0  0  0  0  0  0  0  0  0  0  0
    8.4605  -12.5673   26.3193 C   0  0  0  0  0  0  0  0  0  0  0  0
    7.5712  -13.6335   26.1700 C   0  0  0  0  0  0  0  0  0  0  0  0
   10.8676  -15.7237   23.7393 C   0  0  0  0  0  0  0  0  0  0  0  0
   11.8510  -15.1100   24.2123 O   0  0  0  0  0  0  0  0  0  0  0  0
   11.1658  -16.8522   22.9044 N   0  0  0  0  0  0  0  0  0  0  0  0
   12.3272  -17.6707   23.1073 C   0  0  1  0  0  0  0  0  0  0  0  0
   12.2618  -18.4668   24.3930 C   0  0  0  0  0  0  0  0  0  0  0  0
   13.5157  -19.2353   24.4835 C   0  0  0  0  0  0  0  0  0  0  0  0
   14.5301  -18.8327   23.8773 O   0  0  0  0  0  0  0  0  0  0  0  0
   12.4349  -18.6459   21.9951 C   0  0  0  0  0  0  0  0  0  0  0  0
   11.5147  -19.5051   21.8209 O   0  0  0  0  0  0  0  0  0  0  0  0
   13.5647  -20.3887   25.2320 O   0  0  0  0  0  0  0  0  0  0  0  0
   13.5230  -18.6323   21.1456 O   0  0  0  0  0  0  0  0  0  0  0  0
  2  1  1  1
  3  2  1  0
  4  5  2  0
  4  2  1  0
  6  4  1  0
  7  6  1  0
  7  8  1  1
  9 17  1  0
  9  8  1  0
 10  9  2  0
 11 10  1  0
 11 12  1  0
 12 13  1  0
 12 17  2  0
 13 14  2  0
 14 15  1  0
 16 15  2  0
 17 16  1  0
 18 19  2  0
 18  7  1  0
 20 18  1  0
 21 22  1  1
 21 20  1  0
 23 24  2  0
 23 22  1  0
 25 21  1  0
 26 25  2  0
 27 23  1  0
 28 25  1  0
M  END
$$$$
