AWD.pdb
     RDKit          3D

 28 29  0  0  1  0  0  0  0  0999 V2000
    6.6029  -14.5551   20.8514 C   0  0  0  0  0  0  0  0  0  0  0  0
    7.4839  -15.7569   21.1263 C   0  0  2  0  0  0  0  0  0  0  0  0
    6.6451  -16.8381   21.5660 N   0  0  0  0  0  0  0  0  0  0  0  0
    8.5122  -15.4343   22.1663 C   0  0  0  0  0  0  0  0  0  0  0  0
    9.3246  -14.4904   21.9215 O   0  0  0  0  0  0  0  0  0  0  0  0
    8.5266  -16.1937   23.3639 N   0  0  0  0  0  0  0  0  0  0  0  0
    9.4922  -15.9207   24.4049 C   0  0  1  0  0  0  0  0  0  0  0  0
    8.8401  -15.9397   25.7428 C   0  0  0  0  0  0  0  0  0  0  0  0
    7.6442  -15.1132   25.8461 C   0  0  0  0  0  0  0  0  0  0  0  0
    6.3469  -15.5637   25.7056 C   0  0  0  0  0  0  0  0  0  0  0  0
    5.5438  -14.4962   25.8728 N   0  0  0  0  0  0  0  0  0  0  0  0
    6.2988  -13.3948   26.1129 C   0  0  0  0  0  0  0  0  0  0  0  0
    5.9699  -12.0677   26.3488 C   0  0  0  0  0  0  0  0  0  0  0  0
    6.9793  -11.1406   26.5666 C   0  0  0  0  0  0  0  0  0  0  0  0
    8.3074  -11.5366   26.5488 C   0  0  0  0  0  0  0  0  0  0  0  0
    8.6619  -12.8322   26.3194 C   0  0  0  0  0  0  0  0  0  0  0  0
    7.6314  -13.7494   26.1030 C   0  0  0  0  0  0  0  0  0  0  0  0
   10.6060  -16.8891   24.2615 C   0  0  0  0  0  0  0  0  0  0  0  0
   10.4161  -18.1251   24.3218 O   0  0  0  0  0  0  0  0  0  0  0  0
   11.9600  -16.4650   24.0468 N   0  0  0  0  0  0  0  0  0  0  0  0
   12.9013  -17.2521   23.3020 C   0  0  1  0  0  0  0  0  0  0  0  0
   12.4663  -17.4803   21.8703 C   0  0  0  0  0  0  0  0  0  0  0  0
   12.4638  -18.9375   21.6521 C   0  0  0  0  0  0  0  0  0  0  0  0
   12.0922  -19.3949   20.5514 O   0  0  0  0  0  0  0  0  0  0  0  0
   14.2011  -16.5396   23.2551 C   0  0  0  0  0  0  0  0  0  0  0  0
   14.4209  -15.6926   22.3333 O   0  0  0  0  0  0  0  0  0  0  0  0
   12.8687  -19.7857   22.6568 O   0  0  0  0  0  0  0  0  0  0  0  0
   15.1764  -16.7847   24.2008 O   0  0  0  0  0  0  0  0  0  0  0  0
  2  1  1  1
  3  2  1  0
  4  5  2  0
  4  2  1  0
  6  4  1  0
  7  6  1  0
  7  8  1  1
  9 17  1  0
  9  8  1  0
 10  9  2  0
 11 10  1  0
 11 12  1  0
 12 13  1  0
 12 17  2  0
 13 14  2  0
 14 15  1  0
 16 15  2  0
 17 16  1  0
 18 19  2  0
 18  7  1  0
 20 18  1  0
 21 22  1  6
 21 20  1  0
 23 24  2  0
 23 22  1  0
 25 21  1  0
 26 25  2  0
 27 23  1  0
 28 25  1  0
M  END
$$$$
