AWD.pdb
     RDKit          3D

 28 29  0  0  1  0  0  0  0  0999 V2000
    9.5713  -18.7745   18.9256 C   0  0  0  0  0  0  0  0  0  0  0  0
    9.0702  -17.3462   18.8555 C   0  0  2  0  0  0  0  0  0  0  0  0
    9.8215  -16.6554   17.8435 N   0  0  0  0  0  0  0  0  0  0  0  0
    9.2238  -16.6643   20.1801 C   0  0  0  0  0  0  0  0  0  0  0  0
   10.3796  -16.2494   20.5008 O   0  0  0  0  0  0  0  0  0  0  0  0
    8.0789  -16.5171   21.0037 N   0  0  0  0  0  0  0  0  0  0  0  0
    8.1910  -15.9850   22.3434 C   0  0  1  0  0  0  0  0  0  0  0  0
    6.8709  -15.4933   22.8244 C   0  0  0  0  0  0  0  0  0  0  0  0
    6.8343  -15.1390   24.2376 C   0  0  0  0  0  0  0  0  0  0  0  0
    6.5177  -15.9997   25.2694 C   0  0  0  0  0  0  0  0  0  0  0  0
    6.6002  -15.2882   26.4093 N   0  0  0  0  0  0  0  0  0  0  0  0
    6.9578  -14.0115   26.1212 C   0  0  0  0  0  0  0  0  0  0  0  0
    7.1749  -12.8975   26.9192 C   0  0  0  0  0  0  0  0  0  0  0  0
    7.5400  -11.6948   26.3310 C   0  0  0  0  0  0  0  0  0  0  0  0
    7.6870  -11.6059   24.9557 C   0  0  0  0  0  0  0  0  0  0  0  0
    7.4803  -12.6820   24.1457 C   0  0  0  0  0  0  0  0  0  0  0  0
    7.1140  -13.8827   24.7571 C   0  0  0  0  0  0  0  0  0  0  0  0
    8.7958  -17.0314   23.2025 C   0  0  0  0  0  0  0  0  0  0  0  0
    8.3794  -18.2121   23.1945 O   0  0  0  0  0  0  0  0  0  0  0  0
    9.8887  -16.7502   24.0889 N   0  0  0  0  0  0  0  0  0  0  0  0
   10.4308  -17.7397   24.9761 C   0  0  1  0  0  0  0  0  0  0  0  0
   11.8401  -18.1471   24.6034 C   0  0  0  0  0  0  0  0  0  0  0  0
   12.4711  -16.9740   23.9733 C   0  0  0  0  0  0  0  0  0  0  0  0
   12.6681  -15.9431   24.6494 O   0  0  0  0  0  0  0  0  0  0  0  0
   10.4862  -17.1829   26.3496 C   0  0  0  0  0  0  0  0  0  0  0  0
   10.8888  -17.9135   27.3085 O   0  0  0  0  0  0  0  0  0  0  0  0
   12.8392  -17.0179   22.6484 O   0  0  0  0  0  0  0  0  0  0  0  0
   10.1057  -15.8797   26.6002 O   0  0  0  0  0  0  0  0  0  0  0  0
  2  1  1  1
  3  2  1  0
  4  5  2  0
  4  2  1  0
  6  4  1  0
  7  6  1  0
  7  8  1  1
  9 17  1  0
  9  8  1  0
 10  9  2  0
 11 10  1  0
 11 12  1  0
 12 13  1  0
 12 17  2  0
 13 14  2  0
 14 15  1  0
 16 15  2  0
 17 16  1  0
 18 19  2  0
 18  7  1  0
 20 18  1  0
 21 22  1  6
 21 20  1  0
 23 24  2  0
 23 22  1  0
 25 21  1  0
 26 25  2  0
 27 23  1  0
 28 25  1  0
M  END
$$$$
