AWD.pdb
     RDKit          3D

 28 29  0  0  1  0  0  0  0  0999 V2000
    8.7565  -19.6902   19.3646 C   0  0  0  0  0  0  0  0  0  0  0  0
    8.2679  -18.2718   19.1512 C   0  0  2  0  0  0  0  0  0  0  0  0
    8.7744  -17.8070   17.8890 N   0  0  0  0  0  0  0  0  0  0  0  0
    8.7285  -17.3791   20.2621 C   0  0  0  0  0  0  0  0  0  0  0  0
    9.9376  -16.9934   20.2478 O   0  0  0  0  0  0  0  0  0  0  0  0
    7.7977  -17.0117   21.2669 N   0  0  0  0  0  0  0  0  0  0  0  0
    8.1943  -16.1731   22.3760 C   0  0  1  0  0  0  0  0  0  0  0  0
    7.0463  -15.3524   22.8494 C   0  0  0  0  0  0  0  0  0  0  0  0
    7.4213  -14.1012   23.4958 C   0  0  0  0  0  0  0  0  0  0  0  0
    8.1539  -13.0878   22.9110 C   0  0  0  0  0  0  0  0  0  0  0  0
    8.2801  -12.1159   23.8340 N   0  0  0  0  0  0  0  0  0  0  0  0
    7.6500  -12.4910   24.9754 C   0  0  0  0  0  0  0  0  0  0  0  0
    7.4859  -11.8656   26.2030 C   0  0  0  0  0  0  0  0  0  0  0  0
    6.7761  -12.5067   27.2085 C   0  0  0  0  0  0  0  0  0  0  0  0
    6.2343  -13.7634   26.9890 C   0  0  0  0  0  0  0  0  0  0  0  0
    6.3788  -14.4033   25.7946 C   0  0  0  0  0  0  0  0  0  0  0  0
    7.0960  -13.7411   24.7961 C   0  0  0  0  0  0  0  0  0  0  0  0
    8.7858  -17.0443   23.4200 C   0  0  0  0  0  0  0  0  0  0  0  0
    8.1853  -18.0536   23.8536 O   0  0  0  0  0  0  0  0  0  0  0  0
   10.0758  -16.7798   23.9905 N   0  0  0  0  0  0  0  0  0  0  0  0
   10.6599  -17.6265   24.9915 C   0  0  1  0  0  0  0  0  0  0  0  0
   12.0342  -18.1270   24.6019 C   0  0  0  0  0  0  0  0  0  0  0  0
   12.6852  -17.0423   23.8463 C   0  0  0  0  0  0  0  0  0  0  0  0
   12.9231  -15.9547   24.4114 O   0  0  0  0  0  0  0  0  0  0  0  0
   10.8163  -16.8558   26.2489 C   0  0  0  0  0  0  0  0  0  0  0  0
   10.5582  -15.6114   26.2600 O   0  0  0  0  0  0  0  0  0  0  0  0
   13.0270  -17.2300   22.5270 O   0  0  0  0  0  0  0  0  0  0  0  0
   11.2391  -17.4735   27.4089 O   0  0  0  0  0  0  0  0  0  0  0  0
  2  1  1  1
  3  2  1  0
  4  5  2  0
  4  2  1  0
  6  4  1  0
  7  6  1  0
  7  8  1  1
  9 17  1  0
  9  8  1  0
 10  9  2  0
 11 10  1  0
 11 12  1  0
 12 13  1  0
 12 17  2  0
 13 14  2  0
 14 15  1  0
 16 15  2  0
 17 16  1  0
 18 19  2  0
 18  7  1  0
 20 18  1  0
 21 22  1  6
 21 20  1  0
 23 24  2  0
 23 22  1  0
 25 21  1  0
 26 25  2  0
 27 23  1  0
 28 25  1  0
M  END
$$$$
