AWD.pdb
     RDKit          3D

 28 29  0  0  1  0  0  0  0  0999 V2000
    9.4411  -18.4446   19.0607 C   0  0  0  0  0  0  0  0  0  0  0  0
    8.8658  -17.0433   19.0235 C   0  0  2  0  0  0  0  0  0  0  0  0
    9.5298  -16.3123   17.9791 N   0  0  0  0  0  0  0  0  0  0  0  0
    9.0510  -16.3583   20.3424 C   0  0  0  0  0  0  0  0  0  0  0  0
   10.0966  -15.6569   20.5026 O   0  0  0  0  0  0  0  0  0  0  0  0
    8.0562  -16.5261   21.3391 N   0  0  0  0  0  0  0  0  0  0  0  0
    8.2018  -15.9194   22.6434 C   0  0  1  0  0  0  0  0  0  0  0  0
    6.8711  -15.7173   23.2791 C   0  0  0  0  0  0  0  0  0  0  0  0
    6.9226  -15.2298   24.6515 C   0  0  0  0  0  0  0  0  0  0  0  0
    6.8759  -16.0198   25.7826 C   0  0  0  0  0  0  0  0  0  0  0  0
    6.9513  -15.1903   26.8404 N   0  0  0  0  0  0  0  0  0  0  0  0
    7.0433  -13.9087   26.4049 C   0  0  0  0  0  0  0  0  0  0  0  0
    7.1425  -12.6975   27.0744 C   0  0  0  0  0  0  0  0  0  0  0  0
    7.2230  -11.5181   26.3475 C   0  0  0  0  0  0  0  0  0  0  0  0
    7.2046  -11.5488   24.9620 C   0  0  0  0  0  0  0  0  0  0  0  0
    7.1076  -12.7223   24.2761 C   0  0  0  0  0  0  0  0  0  0  0  0
    7.0280  -13.8975   25.0261 C   0  0  0  0  0  0  0  0  0  0  0  0
    9.1299  -16.7595   23.4381 C   0  0  0  0  0  0  0  0  0  0  0  0
    9.0421  -18.0083   23.4496 O   0  0  0  0  0  0  0  0  0  0  0  0
   10.1774  -16.1898   24.2366 N   0  0  0  0  0  0  0  0  0  0  0  0
   11.1154  -16.9988   24.9617 C   0  0  1  0  0  0  0  0  0  0  0  0
   12.5072  -16.4043   24.9783 C   0  0  0  0  0  0  0  0  0  0  0  0
   13.0942  -16.6547   23.6502 C   0  0  0  0  0  0  0  0  0  0  0  0
   12.7162  -17.6419   22.9858 O   0  0  0  0  0  0  0  0  0  0  0  0
   10.6718  -17.1110   26.3725 C   0  0  0  0  0  0  0  0  0  0  0  0
    9.6468  -16.4685   26.7622 O   0  0  0  0  0  0  0  0  0  0  0  0
   14.0526  -15.8045   23.1487 O   0  0  0  0  0  0  0  0  0  0  0  0
   11.3586  -17.9052   27.2687 O   0  0  0  0  0  0  0  0  0  0  0  0
  2  1  1  1
  3  2  1  0
  4  5  2  0
  4  2  1  0
  6  4  1  0
  7  6  1  0
  7  8  1  1
  9 17  1  0
  9  8  1  0
 10  9  2  0
 11 10  1  0
 11 12  1  0
 12 13  1  0
 12 17  2  0
 13 14  2  0
 14 15  1  0
 16 15  2  0
 17 16  1  0
 18 19  2  0
 18  7  1  0
 20 18  1  0
 21 22  1  1
 21 20  1  0
 23 24  2  0
 23 22  1  0
 25 21  1  0
 26 25  2  0
 27 23  1  0
 28 25  1  0
M  END
$$$$
