AWD.pdb
     RDKit          3D

 28 29  0  0  1  0  0  0  0  0999 V2000
    7.9684  -16.8818   20.0010 C   0  0  0  0  0  0  0  0  0  0  0  0
    7.5122  -15.7066   20.8417 C   0  0  2  0  0  0  0  0  0  0  0  0
    7.3568  -14.5689   19.9772 N   0  0  0  0  0  0  0  0  0  0  0  0
    8.5046  -15.4113   21.9239 C   0  0  0  0  0  0  0  0  0  0  0  0
    9.4256  -14.5759   21.6695 O   0  0  0  0  0  0  0  0  0  0  0  0
    8.3667  -16.0748   23.1696 N   0  0  0  0  0  0  0  0  0  0  0  0
    9.2704  -15.7966   24.2635 C   0  0  1  0  0  0  0  0  0  0  0  0
    8.5783  -15.9633   25.5707 C   0  0  0  0  0  0  0  0  0  0  0  0
    7.3885  -15.1381   25.7363 C   0  0  0  0  0  0  0  0  0  0  0  0
    6.0865  -15.5943   25.6881 C   0  0  0  0  0  0  0  0  0  0  0  0
    5.2920  -14.5259   25.8879 N   0  0  0  0  0  0  0  0  0  0  0  0
    6.0569  -13.4185   26.0588 C   0  0  0  0  0  0  0  0  0  0  0  0
    5.7391  -12.0882   26.2917 C   0  0  0  0  0  0  0  0  0  0  0  0
    6.7571  -11.1548   26.4271 C   0  0  0  0  0  0  0  0  0  0  0  0
    8.0827  -11.5477   26.3305 C   0  0  0  0  0  0  0  0  0  0  0  0
    8.4264  -12.8464   26.1019 C   0  0  0  0  0  0  0  0  0  0  0  0
    7.3874  -13.7699   25.9691 C   0  0  0  0  0  0  0  0  0  0  0  0
   10.4669  -16.6569   24.0989 C   0  0  0  0  0  0  0  0  0  0  0  0
   10.3783  -17.8379   23.6929 O   0  0  0  0  0  0  0  0  0  0  0  0
   11.7895  -16.1855   24.3953 N   0  0  0  0  0  0  0  0  0  0  0  0
   12.9136  -17.0716   24.5017 C   0  0  1  0  0  0  0  0  0  0  0  0
   14.2386  -16.3448   24.4174 C   0  0  0  0  0  0  0  0  0  0  0  0
   14.3708  -15.8572   23.0332 C   0  0  0  0  0  0  0  0  0  0  0  0
   13.9592  -16.5634   22.0895 O   0  0  0  0  0  0  0  0  0  0  0  0
   12.8725  -17.7531   25.8182 C   0  0  0  0  0  0  0  0  0  0  0  0
   13.7448  -18.6342   26.0977 O   0  0  0  0  0  0  0  0  0  0  0  0
   14.9448  -14.6316   22.7860 O   0  0  0  0  0  0  0  0  0  0  0  0
   11.8978  -17.4423   26.7452 O   0  0  0  0  0  0  0  0  0  0  0  0
  2  1  1  6
  3  2  1  0
  4  5  2  0
  4  2  1  0
  6  4  1  0
  7  6  1  0
  7  8  1  1
  9 17  1  0
  9  8  1  0
 10  9  2  0
 11 10  1  0
 11 12  1  0
 12 13  1  0
 12 17  2  0
 13 14  2  0
 14 15  1  0
 16 15  2  0
 17 16  1  0
 18 19  2  0
 18  7  1  0
 20 18  1  0
 21 22  1  1
 21 20  1  0
 23 24  2  0
 23 22  1  0
 25 21  1  0
 26 25  2  0
 27 23  1  0
 28 25  1  0
M  END
$$$$
