ASP.pdb
     RDKit          3D

 19 19  0  0  1  0  0  0  0  0999 V2000
   21.1464  -10.3679  -19.3328 C   0  0  0  0  0  0  0  0  0  0  0  0
   21.2762  -11.0600  -17.9969 C   0  0  2  0  0  0  0  0  0  0  0  0
   20.6336  -12.3442  -18.0255 N   0  0  0  0  0  0  0  0  0  0  0  0
   20.7472  -10.1765  -16.9263 C   0  0  0  0  0  0  0  0  0  0  0  0
   19.5149  -10.1894  -16.7176 O   0  0  0  0  0  0  0  0  0  0  0  0
   21.1443   -8.2892  -12.6436 O   0  0  0  0  0  0  0  0  0  0  0  0
   21.4926   -9.0569  -13.7242 C   0  0  0  0  0  0  0  0  0  0  0  0
   21.0634   -8.4873  -15.0540 C   0  0  2  0  0  0  0  0  0  0  0  0
   21.5512   -9.3345  -16.1426 N   0  0  0  0  0  0  0  0  0  0  0  0
   21.4360   -7.0923  -15.2923 C   0  0  0  0  0  0  0  0  0  0  0  0
   22.6192   -6.9256  -15.7768 O   0  0  0  0  0  0  0  0  0  0  0  0
   20.6862   -5.9309  -15.0667 N   0  0  0  0  0  0  0  0  0  0  0  0
   19.2626   -6.0141  -14.6405 C   0  0  0  0  0  0  0  0  0  0  0  0
   18.6706   -4.8073  -15.3458 C   0  0  0  0  0  0  0  0  0  0  0  0
   19.6818   -3.7811  -14.8917 C   0  0  0  0  0  0  0  0  0  0  0  0
   21.0022   -4.5210  -15.1677 C   0  0  1  0  0  0  0  0  0  0  0  0
   22.0181   -4.0720  -14.2157 C   0  0  0  0  0  0  0  0  0  0  0  0
   22.2362   -4.7326  -13.1785 O   0  0  0  0  0  0  0  0  0  0  0  0
   22.7476   -2.9279  -14.4392 O   0  0  0  0  0  0  0  0  0  0  0  0
  2  1  1  6
  2  3  1  0
  4  5  2  0
  4  2  1  0
  6  7  1  0
  8  7  1  1
  8  9  1  0
  9  4  1  0
 10 12  1  0
 10  8  1  0
 11 10  2  0
 12 16  1  0
 13 12  1  0
 13 14  1  0
 14 15  1  0
 16 15  1  0
 16 17  1  1
 17 19  1  0
 18 17  2  0
M  END
$$$$
