ASP.pdb
     RDKit          3D

 19 19  0  0  1  0  0  0  0  0999 V2000
   15.6751  -12.0204  -16.5335 C   0  0  0  0  0  0  0  0  0  0  0  0
   17.0567  -11.5422  -16.1553 C   0  0  2  0  0  0  0  0  0  0  0  0
   17.6350  -12.3981  -15.1574 N   0  0  0  0  0  0  0  0  0  0  0  0
   16.9905  -10.1218  -15.7258 C   0  0  0  0  0  0  0  0  0  0  0  0
   15.8601   -9.5997  -15.6152 O   0  0  0  0  0  0  0  0  0  0  0  0
   18.1091   -8.4842  -12.4240 O   0  0  0  0  0  0  0  0  0  0  0  0
   17.3391   -8.1049  -13.4924 C   0  0  0  0  0  0  0  0  0  0  0  0
   18.0884   -8.0251  -14.7998 C   0  0  2  0  0  0  0  0  0  0  0  0
   18.1206   -9.3406  -15.4396 N   0  0  0  0  0  0  0  0  0  0  0  0
   19.4393   -7.4682  -14.7193 C   0  0  0  0  0  0  0  0  0  0  0  0
   20.3593   -8.3247  -14.4323 O   0  0  0  0  0  0  0  0  0  0  0  0
   19.8579   -6.1452  -14.9109 N   0  0  0  0  0  0  0  0  0  0  0  0
   18.8726   -5.0699  -15.2073 C   0  0  0  0  0  0  0  0  0  0  0  0
   19.6731   -4.1843  -16.1451 C   0  0  0  0  0  0  0  0  0  0  0  0
   20.9162   -4.0497  -15.2975 C   0  0  0  0  0  0  0  0  0  0  0  0
   21.1612   -5.5136  -14.8928 C   0  0  1  0  0  0  0  0  0  0  0  0
   21.8202   -5.5524  -13.5873 C   0  0  0  0  0  0  0  0  0  0  0  0
   21.1701   -5.8717  -12.5698 O   0  0  0  0  0  0  0  0  0  0  0  0
   23.1534   -5.2435  -13.4529 O   0  0  0  0  0  0  0  0  0  0  0  0
  2  1  1  1
  2  3  1  0
  4  5  2  0
  4  2  1  0
  6  7  1  0
  8  7  1  1
  8  9  1  0
  9  4  1  0
 10 12  1  0
 10  8  1  0
 11 10  2  0
 12 16  1  0
 13 12  1  0
 13 14  1  0
 14 15  1  0
 16 15  1  0
 16 17  1  1
 17 19  1  0
 18 17  2  0
M  END
$$$$
