ASP.pdb
     RDKit          3D

 19 19  0  0  1  0  0  0  0  0999 V2000
   18.7212  -15.2833  -18.4082 C   0  0  0  0  0  0  0  0  0  0  0  0
   18.3149  -13.9167  -17.9104 C   0  0  2  0  0  0  0  0  0  0  0  0
   17.5692  -13.2112  -18.9148 N   0  0  0  0  0  0  0  0  0  0  0  0
   19.5198  -13.1732  -17.4610 C   0  0  0  0  0  0  0  0  0  0  0  0
   20.1218  -13.5972  -16.4510 O   0  0  0  0  0  0  0  0  0  0  0  0
   22.9174   -9.8246  -18.5737 O   0  0  0  0  0  0  0  0  0  0  0  0
   21.8276  -10.5983  -18.8771 C   0  0  0  0  0  0  0  0  0  0  0  0
   21.1990  -11.2788  -17.6860 C   0  0  2  0  0  0  0  0  0  0  0  0
   20.0146  -12.0288  -18.1051 N   0  0  0  0  0  0  0  0  0  0  0  0
   20.8717  -10.4036  -16.5599 C   0  0  0  0  0  0  0  0  0  0  0  0
   19.6871   -9.8958  -16.5983 O   0  0  0  0  0  0  0  0  0  0  0  0
   21.6652  -10.0504  -15.4610 N   0  0  0  0  0  0  0  0  0  0  0  0
   22.9831  -10.7030  -15.2319 C   0  0  0  0  0  0  0  0  0  0  0  0
   23.0302  -10.7525  -13.7155 C   0  0  0  0  0  0  0  0  0  0  0  0
   22.6899   -9.3054  -13.4470 C   0  0  0  0  0  0  0  0  0  0  0  0
   21.4822   -9.1052  -14.3788 C   0  0  1  0  0  0  0  0  0  0  0  0
   21.4311   -7.7094  -14.8137 C   0  0  0  0  0  0  0  0  0  0  0  0
   21.8603   -7.3918  -15.9428 O   0  0  0  0  0  0  0  0  0  0  0  0
   20.9146   -6.7283  -14.0003 O   0  0  0  0  0  0  0  0  0  0  0  0
  2  1  1  6
  2  3  1  0
  4  5  2  0
  4  2  1  0
  6  7  1  0
  8  7  1  6
  8  9  1  0
  9  4  1  0
 10 12  1  0
 10  8  1  0
 11 10  2  0
 12 16  1  0
 13 12  1  0
 13 14  1  0
 14 15  1  0
 16 15  1  0
 16 17  1  6
 17 19  1  0
 18 17  2  0
M  END
$$$$
