ASP.pdb
     RDKit          3D

 19 19  0  0  1  0  0  0  0  0999 V2000
   19.3287  -20.3571  -13.3660 C   0  0  0  0  0  0  0  0  0  0  0  0
   20.4454  -21.2805  -13.7916 C   0  0  2  0  0  0  0  0  0  0  0  0
   20.1981  -22.6201  -13.3366 N   0  0  0  0  0  0  0  0  0  0  0  0
   21.7447  -20.7419  -13.3137 C   0  0  0  0  0  0  0  0  0  0  0  0
   21.9242  -20.6666  -12.0790 O   0  0  0  0  0  0  0  0  0  0  0  0
   25.0982  -22.4875  -12.7089 O   0  0  0  0  0  0  0  0  0  0  0  0
   24.3278  -22.1525  -13.7919 C   0  0  0  0  0  0  0  0  0  0  0  0
   24.1859  -20.6671  -14.0164 C   0  0  2  0  0  0  0  0  0  0  0  0
   22.7735  -20.3163  -14.1680 N   0  0  0  0  0  0  0  0  0  0  0  0
   24.9653  -20.1200  -15.1276 C   0  0  0  0  0  0  0  0  0  0  0  0
   24.4736  -20.3519  -16.2967 O   0  0  0  0  0  0  0  0  0  0  0  0
   26.1586  -19.3875  -15.0880 N   0  0  0  0  0  0  0  0  0  0  0  0
   26.8310  -19.0963  -13.7925 C   0  0  0  0  0  0  0  0  0  0  0  0
   27.4067  -17.7174  -14.0603 C   0  0  0  0  0  0  0  0  0  0  0  0
   28.0884  -18.0252  -15.3727 C   0  0  0  0  0  0  0  0  0  0  0  0
   26.9731  -18.7777  -16.1189 C   0  0  1  0  0  0  0  0  0  0  0  0
   27.5719  -19.7379  -17.0460 C   0  0  0  0  0  0  0  0  0  0  0  0
   27.6233  -20.9485  -16.7432 O   0  0  0  0  0  0  0  0  0  0  0  0
   28.0838  -19.3346  -18.2569 O   0  0  0  0  0  0  0  0  0  0  0  0
  2  1  1  1
  2  3  1  0
  4  5  2  0
  4  2  1  0
  6  7  1  0
  8  7  1  6
  8  9  1  0
  9  4  1  0
 10 12  1  0
 10  8  1  0
 11 10  2  0
 12 16  1  0
 13 12  1  0
 13 14  1  0
 14 15  1  0
 16 15  1  0
 16 17  1  6
 17 19  1  0
 18 17  2  0
M  END
$$$$
