ASP.pdb
     RDKit          3D

 19 19  0  0  1  0  0  0  0  0999 V2000
   17.6189  -10.9045  -17.1276 C   0  0  0  0  0  0  0  0  0  0  0  0
   18.7150   -9.9447  -17.5254 C   0  0  2  0  0  0  0  0  0  0  0  0
   19.9128  -10.6572  -17.8724 N   0  0  0  0  0  0  0  0  0  0  0  0
   18.9290   -8.9564  -16.4372 C   0  0  0  0  0  0  0  0  0  0  0  0
   17.9419   -8.2942  -16.0507 O   0  0  0  0  0  0  0  0  0  0  0  0
   20.8594   -9.3423  -12.9386 O   0  0  0  0  0  0  0  0  0  0  0  0
   21.3849   -8.3668  -13.7452 C   0  0  0  0  0  0  0  0  0  0  0  0
   20.4041   -7.7833  -14.7324 C   0  0  2  0  0  0  0  0  0  0  0  0
   20.1708   -8.7284  -15.8247 N   0  0  0  0  0  0  0  0  0  0  0  0
   20.7557   -6.4675  -15.2679 C   0  0  0  0  0  0  0  0  0  0  0  0
   21.5138   -6.4949  -16.3105 O   0  0  0  0  0  0  0  0  0  0  0  0
   20.3816   -5.2002  -14.8030 N   0  0  0  0  0  0  0  0  0  0  0  0
   19.3242   -5.0507  -13.7664 C   0  0  0  0  0  0  0  0  0  0  0  0
   18.6628   -3.7556  -14.2018 C   0  0  0  0  0  0  0  0  0  0  0  0
   19.9114   -2.9156  -14.3336 C   0  0  0  0  0  0  0  0  0  0  0  0
   20.8239   -3.8612  -15.1337 C   0  0  1  0  0  0  0  0  0  0  0  0
   22.2203   -3.5962  -14.7873 C   0  0  0  0  0  0  0  0  0  0  0  0
   22.7989   -4.3089  -13.9405 O   0  0  0  0  0  0  0  0  0  0  0  0
   22.9188   -2.5705  -15.3798 O   0  0  0  0  0  0  0  0  0  0  0  0
  2  1  1  1
  2  3  1  0
  4  5  2  0
  4  2  1  0
  6  7  1  0
  8  7  1  1
  8  9  1  0
  9  4  1  0
 10 12  1  0
 10  8  1  0
 11 10  2  0
 12 16  1  0
 13 12  1  0
 13 14  1  0
 14 15  1  0
 16 15  1  0
 16 17  1  1
 17 19  1  0
 18 17  2  0
M  END
$$$$
