ASP.pdb
     RDKit          3D

 19 19  0  0  1  0  0  0  0  0999 V2000
   29.8494  -21.6796  -18.3126 C   0  0  0  0  0  0  0  0  0  0  0  0
   28.4499  -21.8293  -17.7655 C   0  0  2  0  0  0  0  0  0  0  0  0
   27.4750  -21.4945  -18.7656 N   0  0  0  0  0  0  0  0  0  0  0  0
   28.3094  -21.0152  -16.5309 C   0  0  0  0  0  0  0  0  0  0  0  0
   29.1297  -20.0900  -16.3479 O   0  0  0  0  0  0  0  0  0  0  0  0
   25.6251  -18.0273  -14.9211 O   0  0  0  0  0  0  0  0  0  0  0  0
   26.2238  -19.0501  -15.6093 C   0  0  0  0  0  0  0  0  0  0  0  0
   26.7125  -20.1813  -14.7383 C   0  0  2  0  0  0  0  0  0  0  0  0
   27.3124  -21.2278  -15.5664 N   0  0  0  0  0  0  0  0  0  0  0  0
   25.7152  -20.7589  -13.8365 C   0  0  0  0  0  0  0  0  0  0  0  0
   24.8194  -21.4829  -14.4160 O   0  0  0  0  0  0  0  0  0  0  0  0
   25.6080  -20.6304  -12.4458 N   0  0  0  0  0  0  0  0  0  0  0  0
   26.6379  -19.8895  -11.6676 C   0  0  0  0  0  0  0  0  0  0  0  0
   26.6692  -20.6906  -10.3786 C   0  0  0  0  0  0  0  0  0  0  0  0
   25.1835  -20.7088  -10.1060 C   0  0  0  0  0  0  0  0  0  0  0  0
   24.6317  -21.1044  -11.4865 C   0  0  1  0  0  0  0  0  0  0  0  0
   23.3000  -20.5248  -11.6611 C   0  0  0  0  0  0  0  0  0  0  0  0
   22.3255  -21.0037  -11.0439 O   0  0  0  0  0  0  0  0  0  0  0  0
   23.0939  -19.4523  -12.4967 O   0  0  0  0  0  0  0  0  0  0  0  0
  2  1  1  6
  2  3  1  0
  4  5  2  0
  4  2  1  0
  6  7  1  0
  8  7  1  6
  8  9  1  0
  9  4  1  0
 10 12  1  0
 10  8  1  0
 11 10  2  0
 12 16  1  0
 13 12  1  0
 13 14  1  0
 14 15  1  0
 16 15  1  0
 16 17  1  6
 17 19  1  0
 18 17  2  0
M  END
$$$$
