ASP.pdb
     RDKit          3D

 19 19  0  0  1  0  0  0  0  0999 V2000
   17.6324  -11.9957  -18.9652 C   0  0  0  0  0  0  0  0  0  0  0  0
   18.6654  -12.9727  -18.4565 C   0  0  2  0  0  0  0  0  0  0  0  0
   18.0339  -14.1426  -17.9130 N   0  0  0  0  0  0  0  0  0  0  0  0
   19.5535  -12.2926  -17.4791 C   0  0  0  0  0  0  0  0  0  0  0  0
   19.0675  -11.9808  -16.3705 O   0  0  0  0  0  0  0  0  0  0  0  0
   24.1546  -10.9210  -16.3990 O   0  0  0  0  0  0  0  0  0  0  0  0
   23.2334  -11.5220  -17.2167 C   0  0  0  0  0  0  0  0  0  0  0  0
   21.8010  -11.3327  -16.7818 C   0  0  2  0  0  0  0  0  0  0  0  0
   20.8989  -11.9838  -17.7321 N   0  0  0  0  0  0  0  0  0  0  0  0
   21.3874   -9.9467  -16.5595 C   0  0  0  0  0  0  0  0  0  0  0  0
   21.0065   -9.3209  -17.6205 O   0  0  0  0  0  0  0  0  0  0  0  0
   21.3512   -9.2210  -15.3618 N   0  0  0  0  0  0  0  0  0  0  0  0
   21.6239   -9.8872  -14.0591 C   0  0  0  0  0  0  0  0  0  0  0  0
   20.6839   -9.1318  -13.1371 C   0  0  0  0  0  0  0  0  0  0  0  0
   21.0886   -7.7295  -13.5268 C   0  0  0  0  0  0  0  0  0  0  0  0
   21.0755   -7.8311  -15.0619 C   0  0  1  0  0  0  0  0  0  0  0  0
   22.0565   -6.8993  -15.6181 C   0  0  0  0  0  0  0  0  0  0  0  0
   23.1339   -7.3301  -16.0800 O   0  0  0  0  0  0  0  0  0  0  0  0
   21.8168   -5.5455  -15.6461 O   0  0  0  0  0  0  0  0  0  0  0  0
  2  1  1  1
  2  3  1  0
  4  5  2  0
  4  2  1  0
  6  7  1  0
  8  7  1  6
  8  9  1  0
  9  4  1  0
 10 12  1  0
 10  8  1  0
 11 10  2  0
 12 16  1  0
 13 12  1  0
 13 14  1  0
 14 15  1  0
 16 15  1  0
 16 17  1  6
 17 19  1  0
 18 17  2  0
M  END
$$$$
