ASP.pdb
     RDKit          3D

 19 19  0  0  1  0  0  0  0  0999 V2000
   16.9554  -14.6986  -16.5966 C   0  0  0  0  0  0  0  0  0  0  0  0
   16.8807  -13.1982  -16.4420 C   0  0  2  0  0  0  0  0  0  0  0  0
   16.1530  -12.6108  -17.5320 N   0  0  0  0  0  0  0  0  0  0  0  0
   18.2520  -12.6444  -16.3019 C   0  0  0  0  0  0  0  0  0  0  0  0
   19.0008  -13.1561  -15.4418 O   0  0  0  0  0  0  0  0  0  0  0  0
   20.8613  -11.4227  -19.1478 O   0  0  0  0  0  0  0  0  0  0  0  0
   20.5634  -10.4463  -18.2332 C   0  0  0  0  0  0  0  0  0  0  0  0
   20.0638  -10.9687  -16.9087 C   0  0  2  0  0  0  0  0  0  0  0  0
   18.7477  -11.5853  -17.0778 N   0  0  0  0  0  0  0  0  0  0  0  0
   20.0294   -9.9930  -15.8185 C   0  0  0  0  0  0  0  0  0  0  0  0
   18.9000   -9.3886  -15.6714 O   0  0  0  0  0  0  0  0  0  0  0  0
   21.0481   -9.6351  -14.9262 N   0  0  0  0  0  0  0  0  0  0  0  0
   22.3412  -10.3718  -14.9112 C   0  0  0  0  0  0  0  0  0  0  0  0
   22.6886  -10.3316  -13.4340 C   0  0  0  0  0  0  0  0  0  0  0  0
   22.5011   -8.8489  -13.2140 C   0  0  0  0  0  0  0  0  0  0  0  0
   21.1460   -8.6141  -13.9035 C   0  0  1  0  0  0  0  0  0  0  0  0
   21.0968   -7.2478  -14.4240 C   0  0  0  0  0  0  0  0  0  0  0  0
   21.3599   -7.0280  -15.6249 O   0  0  0  0  0  0  0  0  0  0  0  0
   20.7625   -6.1885  -13.6134 O   0  0  0  0  0  0  0  0  0  0  0  0
  2  1  1  6
  2  3  1  0
  4  5  2  0
  4  2  1  0
  6  7  1  0
  8  7  1  6
  8  9  1  0
  9  4  1  0
 10 12  1  0
 10  8  1  0
 11 10  2  0
 12 16  1  0
 13 12  1  0
 13 14  1  0
 14 15  1  0
 16 15  1  0
 16 17  1  6
 17 19  1  0
 18 17  2  0
M  END
$$$$
