ASP.pdb
     RDKit          3D

 19 19  0  0  1  0  0  0  0  0999 V2000
   16.3023   -9.8990  -16.3184 C   0  0  0  0  0  0  0  0  0  0  0  0
   17.4458  -10.8498  -16.0564 C   0  0  2  0  0  0  0  0  0  0  0  0
   17.0685  -11.8445  -15.0916 N   0  0  0  0  0  0  0  0  0  0  0  0
   18.6485  -10.0797  -15.6476 C   0  0  0  0  0  0  0  0  0  0  0  0
   18.6720   -9.6092  -14.4898 O   0  0  0  0  0  0  0  0  0  0  0  0
   22.6592  -10.7870  -16.8174 O   0  0  0  0  0  0  0  0  0  0  0  0
   22.1049   -9.5520  -17.0319 C   0  0  0  0  0  0  0  0  0  0  0  0
   20.9928   -9.1967  -16.0759 C   0  0  2  0  0  0  0  0  0  0  0  0
   19.7513   -9.8539  -16.4855 N   0  0  0  0  0  0  0  0  0  0  0  0
   20.7657   -7.7648  -15.8769 C   0  0  0  0  0  0  0  0  0  0  0  0
   19.8525   -7.2540  -16.6302 O   0  0  0  0  0  0  0  0  0  0  0  0
   21.4013   -6.8889  -14.9876 N   0  0  0  0  0  0  0  0  0  0  0  0
   22.4120   -7.3899  -14.0167 C   0  0  0  0  0  0  0  0  0  0  0  0
   22.1522   -6.4862  -12.8250 C   0  0  0  0  0  0  0  0  0  0  0  0
   22.1896   -5.1627  -13.5524 C   0  0  0  0  0  0  0  0  0  0  0  0
   21.2891   -5.4623  -14.7632 C   0  0  1  0  0  0  0  0  0  0  0  0
   21.7184   -4.6483  -15.9004 C   0  0  0  0  0  0  0  0  0  0  0  0
   22.5189   -5.1175  -16.7364 O   0  0  0  0  0  0  0  0  0  0  0  0
   21.2549   -3.3652  -16.0732 O   0  0  0  0  0  0  0  0  0  0  0  0
  2  1  1  1
  2  3  1  0
  4  5  2  0
  4  2  1  0
  6  7  1  0
  8  7  1  6
  8  9  1  0
  9  4  1  0
 10 12  1  0
 10  8  1  0
 11 10  2  0
 12 16  1  0
 13 12  1  0
 13 14  1  0
 14 15  1  0
 16 15  1  0
 16 17  1  6
 17 19  1  0
 18 17  2  0
M  END
$$$$
