ASP.pdb
     RDKit          3D

 19 19  0  0  1  0  0  0  0  0999 V2000
   21.1691  -11.3346  -19.8370 C   0  0  0  0  0  0  0  0  0  0  0  0
   22.1070  -10.5317  -18.9674 C   0  0  2  0  0  0  0  0  0  0  0  0
   22.7910  -11.3844  -18.0359 N   0  0  0  0  0  0  0  0  0  0  0  0
   21.3531   -9.4395  -18.3000 C   0  0  0  0  0  0  0  0  0  0  0  0
   20.9341   -8.5021  -19.0128 O   0  0  0  0  0  0  0  0  0  0  0  0
   20.3802   -9.3966  -14.0529 O   0  0  0  0  0  0  0  0  0  0  0  0
   19.5481   -9.0221  -15.0754 C   0  0  0  0  0  0  0  0  0  0  0  0
   20.2555   -8.4027  -16.2557 C   0  0  2  0  0  0  0  0  0  0  0  0
   21.0882   -9.4043  -16.9223 N   0  0  0  0  0  0  0  0  0  0  0  0
   21.0427   -7.2047  -15.9614 C   0  0  0  0  0  0  0  0  0  0  0  0
   22.2995   -7.4191  -15.7694 O   0  0  0  0  0  0  0  0  0  0  0  0
   20.6157   -5.8742  -15.8627 N   0  0  0  0  0  0  0  0  0  0  0  0
   19.2149   -5.4972  -16.1951 C   0  0  0  0  0  0  0  0  0  0  0  0
   19.4143   -4.1206  -16.8030 C   0  0  0  0  0  0  0  0  0  0  0  0
   20.2640   -3.5265  -15.7043 C   0  0  0  0  0  0  0  0  0  0  0  0
   21.2897   -4.6508  -15.4795 C   0  0  1  0  0  0  0  0  0  0  0  0
   21.7339   -4.6308  -14.0858 C   0  0  0  0  0  0  0  0  0  0  0  0
   21.3319   -5.5058  -13.2905 O   0  0  0  0  0  0  0  0  0  0  0  0
   22.5943   -3.6615  -13.6263 O   0  0  0  0  0  0  0  0  0  0  0  0
  2  1  1  1
  2  3  1  0
  4  5  2  0
  4  2  1  0
  6  7  1  0
  8  7  1  1
  8  9  1  0
  9  4  1  0
 10 12  1  0
 10  8  1  0
 11 10  2  0
 12 16  1  0
 13 12  1  0
 13 14  1  0
 14 15  1  0
 16 15  1  0
 16 17  1  1
 17 19  1  0
 18 17  2  0
M  END
$$$$
