ASP.pdb
     RDKit          3D

 19 19  0  0  1  0  0  0  0  0999 V2000
   26.2381  -25.6130  -18.1828 C   0  0  0  0  0  0  0  0  0  0  0  0
   26.7410  -25.1814  -16.8258 C   0  0  2  0  0  0  0  0  0  0  0  0
   25.9896  -24.0583  -16.3393 N   0  0  0  0  0  0  0  0  0  0  0  0
   28.1992  -24.9084  -16.9003 C   0  0  0  0  0  0  0  0  0  0  0  0
   28.5670  -23.8682  -17.4878 O   0  0  0  0  0  0  0  0  0  0  0  0
   32.6694  -26.1382  -15.2744 O   0  0  0  0  0  0  0  0  0  0  0  0
   31.3022  -26.2324  -15.2611 C   0  0  0  0  0  0  0  0  0  0  0  0
   30.6184  -25.4911  -16.3835 C   0  0  2  0  0  0  0  0  0  0  0  0
   29.1786  -25.7497  -16.3504 N   0  0  0  0  0  0  0  0  0  0  0  0
   31.1481  -25.7476  -17.7233 C   0  0  0  0  0  0  0  0  0  0  0  0
   30.5854  -26.7256  -18.3474 O   0  0  0  0  0  0  0  0  0  0  0  0
   32.1715  -25.0790  -18.4072 N   0  0  0  0  0  0  0  0  0  0  0  0
   32.7316  -23.8038  -17.8825 C   0  0  0  0  0  0  0  0  0  0  0  0
   33.0321  -23.0593  -19.1709 C   0  0  0  0  0  0  0  0  0  0  0  0
   33.8026  -24.1536  -19.8714 C   0  0  0  0  0  0  0  0  0  0  0  0
   32.8821  -25.3637  -19.6368 C   0  0  1  0  0  0  0  0  0  0  0  0
   33.6879  -26.5837  -19.5863 C   0  0  0  0  0  0  0  0  0  0  0  0
   34.1232  -27.0878  -20.6428 O   0  0  0  0  0  0  0  0  0  0  0  0
   33.9817  -27.1942  -18.3897 O   0  0  0  0  0  0  0  0  0  0  0  0
  2  1  1  6
  2  3  1  0
  4  5  2  0
  4  2  1  0
  6  7  1  0
  8  7  1  1
  8  9  1  0
  9  4  1  0
 10 12  1  0
 10  8  1  0
 11 10  2  0
 12 16  1  0
 13 12  1  0
 13 14  1  0
 14 15  1  0
 16 15  1  0
 16 17  1  1
 17 19  1  0
 18 17  2  0
M  END
$$$$
