ASP.pdb
     RDKit          3D

 19 19  0  0  1  0  0  0  0  0999 V2000
   14.5156  -12.4044  -13.3507 C   0  0  0  0  0  0  0  0  0  0  0  0
   14.1801  -10.9400  -13.5039 C   0  0  2  0  0  0  0  0  0  0  0  0
   14.5237  -10.4750  -14.8186 N   0  0  0  0  0  0  0  0  0  0  0  0
   14.8458  -10.1626  -12.4272 C   0  0  0  0  0  0  0  0  0  0  0  0
   14.4548  -10.3418  -11.2536 O   0  0  0  0  0  0  0  0  0  0  0  0
   18.8451   -8.9034  -12.1118 O   0  0  0  0  0  0  0  0  0  0  0  0
   17.8663   -7.9441  -12.1063 C   0  0  0  0  0  0  0  0  0  0  0  0
   16.5229   -8.4313  -11.6217 C   0  0  2  0  0  0  0  0  0  0  0  0
   15.8824   -9.2446  -12.6557 N   0  0  0  0  0  0  0  0  0  0  0  0
   15.6054   -7.3909  -11.1555 C   0  0  0  0  0  0  0  0  0  0  0  0
   14.8598   -6.8785  -12.0742 O   0  0  0  0  0  0  0  0  0  0  0  0
   15.4333   -6.8861   -9.8603 N   0  0  0  0  0  0  0  0  0  0  0  0
   16.1780   -7.4684   -8.7107 C   0  0  0  0  0  0  0  0  0  0  0  0
   15.1555   -7.3349   -7.5966 C   0  0  0  0  0  0  0  0  0  0  0  0
   14.8161   -5.8765   -7.7961 C   0  0  0  0  0  0  0  0  0  0  0  0
   14.6100   -5.8240   -9.3198 C   0  0  1  0  0  0  0  0  0  0  0  0
   14.9631   -4.4923   -9.8116 C   0  0  0  0  0  0  0  0  0  0  0  0
   16.0687   -4.3031  -10.3609 O   0  0  0  0  0  0  0  0  0  0  0  0
   14.0961   -3.4326   -9.6832 O   0  0  0  0  0  0  0  0  0  0  0  0
  2  1  1  6
  2  3  1  0
  4  5  2  0
  4  2  1  0
  6  7  1  0
  8  7  1  6
  8  9  1  0
  9  4  1  0
 10 12  1  0
 10  8  1  0
 11 10  2  0
 12 16  1  0
 13 12  1  0
 13 14  1  0
 14 15  1  0
 16 15  1  0
 16 17  1  6
 17 19  1  0
 18 17  2  0
M  END
$$$$
