ASP.pdb
     RDKit          3D

 19 19  0  0  1  0  0  0  0  0999 V2000
   13.8837   -9.8545  -14.5142 C   0  0  0  0  0  0  0  0  0  0  0  0
   14.4952  -10.8280  -15.4934 C   0  0  2  0  0  0  0  0  0  0  0  0
   14.0961  -12.1735  -15.1882 N   0  0  0  0  0  0  0  0  0  0  0  0
   15.9706  -10.6558  -15.5093 C   0  0  0  0  0  0  0  0  0  0  0  0
   16.6061  -10.9891  -14.4858 O   0  0  0  0  0  0  0  0  0  0  0  0
   19.9615   -9.6423  -18.1861 O   0  0  0  0  0  0  0  0  0  0  0  0
   18.6281   -9.9302  -18.0539 C   0  0  0  0  0  0  0  0  0  0  0  0
   18.1292   -9.9186  -16.6298 C   0  0  2  0  0  0  0  0  0  0  0  0
   16.6836  -10.1429  -16.6038 N   0  0  0  0  0  0  0  0  0  0  0  0
   18.4707   -8.7271  -15.8517 C   0  0  0  0  0  0  0  0  0  0  0  0
   17.5677   -7.8068  -15.8507 O   0  0  0  0  0  0  0  0  0  0  0  0
   19.6335   -8.4594  -15.1180 N   0  0  0  0  0  0  0  0  0  0  0  0
   20.6624   -9.5144  -14.9095 C   0  0  0  0  0  0  0  0  0  0  0  0
   21.1541   -9.1776  -13.5134 C   0  0  0  0  0  0  0  0  0  0  0  0
   21.4137   -7.7055  -13.7311 C   0  0  0  0  0  0  0  0  0  0  0  0
   20.1167   -7.2753  -14.4380 C   0  0  1  0  0  0  0  0  0  0  0  0
   20.4009   -6.1532  -15.3325 C   0  0  0  0  0  0  0  0  0  0  0  0
   20.4920   -6.3442  -16.5634 O   0  0  0  0  0  0  0  0  0  0  0  0
   20.5703   -4.8787  -14.8447 O   0  0  0  0  0  0  0  0  0  0  0  0
  2  1  1  1
  2  3  1  0
  4  5  2  0
  4  2  1  0
  6  7  1  0
  8  7  1  6
  8  9  1  0
  9  4  1  0
 10 12  1  0
 10  8  1  0
 11 10  2  0
 12 16  1  0
 13 12  1  0
 13 14  1  0
 14 15  1  0
 16 15  1  0
 16 17  1  6
 17 19  1  0
 18 17  2  0
M  END
$$$$
