EVP.pdb
     RDKit          3D

 24 24  0  0  1  0  0  0  0  0999 V2000
    8.9294  -15.3661   20.3555 N   0  0  0  0  0  0  0  0  0  0  0  0
    8.8950  -16.1744   21.5909 C   0  0  1  0  0  0  0  0  0  0  0  0
   10.1157  -17.0605   21.4926 C   0  0  0  0  0  0  0  0  0  0  0  0
    9.9309  -18.2419   20.5803 C   0  0  0  0  0  0  0  0  0  0  0  0
   11.2112  -19.0317   20.6496 C   0  0  0  0  0  0  0  0  0  0  0  0
   12.1761  -18.7076   21.3542 O   0  0  0  0  0  0  0  0  0  0  0  0
    9.0681  -15.2376   22.7040 C   0  0  0  0  0  0  0  0  0  0  0  0
    9.9915  -14.3459   22.7014 O   0  0  0  0  0  0  0  0  0  0  0  0
   11.2652  -20.1852   19.8577 O   0  0  0  0  0  0  0  0  0  0  0  0
    6.8284  -12.9832   24.5239 C   0  0  0  0  0  0  0  0  0  0  0  0
    7.3343  -13.9438   25.6102 C   0  0  1  0  0  0  0  0  0  0  0  0
    6.2852  -14.9998   25.8218 C   0  0  0  0  0  0  0  0  0  0  0  0
    8.6222  -14.5278   25.0705 C   0  0  2  0  0  0  0  0  0  0  0  0
    8.2389  -15.2409   23.8489 N   0  0  0  0  0  0  0  0  0  0  0  0
    9.3112  -15.3863   26.0344 C   0  0  0  0  0  0  0  0  0  0  0  0
    9.5844  -16.5747   25.6373 O   0  0  0  0  0  0  0  0  0  0  0  0
    9.6829  -14.9964   27.3371 N   0  0  0  0  0  0  0  0  0  0  0  0
    9.1521  -13.8927   28.0968 C   0  0  0  0  0  0  0  0  0  0  0  0
   10.2751  -13.4950   29.0618 C   0  0  0  0  0  0  0  0  0  0  0  0
   11.3919  -14.4457   28.7666 C   0  0  0  0  0  0  0  0  0  0  0  0
   10.6759  -15.6349   28.1610 C   0  0  1  0  0  0  0  0  0  0  0  0
   10.0747  -16.5026   29.2035 C   0  0  0  0  0  0  0  0  0  0  0  0
   10.7113  -17.1909   30.0122 O   0  0  0  0  0  0  0  0  0  0  0  0
    8.6857  -16.5374   29.2678 O   0  0  0  0  0  0  0  0  0  0  0  0
  2  1  1  6
  2  3  1  0
  3  4  1  0
  4  5  1  0
  5  9  1  0
  5  6  2  0
  7  2  1  0
  8  7  2  0
 11 10  1  6
 11 12  1  0
 11 13  1  0
 13 14  1  6
 14  7  1  0
 15 17  1  0
 15 13  1  0
 16 15  2  0
 17 21  1  0
 18 19  1  0
 18 17  1  0
 19 20  1  0
 21 20  1  0
 22 24  1  0
 21 22  1  1
 23 22  2  0
M  END
$$$$
