EVP.pdb
     RDKit          3D

 24 24  0  0  1  0  0  0  0  0999 V2000
   12.4109  -17.0125   20.7062 N   0  0  0  0  0  0  0  0  0  0  0  0
   11.4294  -17.4855   21.7029 C   0  0  1  0  0  0  0  0  0  0  0  0
   12.2718  -18.1202   22.7858 C   0  0  0  0  0  0  0  0  0  0  0  0
   11.4649  -18.7011   23.9143 C   0  0  0  0  0  0  0  0  0  0  0  0
   11.0877  -20.0954   23.4882 C   0  0  0  0  0  0  0  0  0  0  0  0
    9.9255  -20.4431   23.2416 O   0  0  0  0  0  0  0  0  0  0  0  0
   10.7753  -16.2897   22.2402 C   0  0  0  0  0  0  0  0  0  0  0  0
   11.4460  -15.3272   22.7613 O   0  0  0  0  0  0  0  0  0  0  0  0
   12.1416  -21.0107   23.3795 O   0  0  0  0  0  0  0  0  0  0  0  0
    6.8378  -13.4306   22.5729 C   0  0  0  0  0  0  0  0  0  0  0  0
    7.5484  -14.6276   21.9241 C   0  0  1  0  0  0  0  0  0  0  0  0
    7.9434  -14.2326   20.5282 C   0  0  0  0  0  0  0  0  0  0  0  0
    8.7549  -14.9064   22.7946 C   0  0  2  0  0  0  0  0  0  0  0  0
    9.3739  -16.1048   22.2215 N   0  0  0  0  0  0  0  0  0  0  0  0
    8.4172  -15.0653   24.2094 C   0  0  0  0  0  0  0  0  0  0  0  0
    8.5837  -16.2379   24.7011 O   0  0  0  0  0  0  0  0  0  0  0  0
    7.9336  -14.0353   25.0415 N   0  0  0  0  0  0  0  0  0  0  0  0
    7.5079  -12.7197   24.6352 C   0  0  0  0  0  0  0  0  0  0  0  0
    7.7332  -11.8298   25.8632 C   0  0  0  0  0  0  0  0  0  0  0  0
    8.2816  -12.7479   26.9095 C   0  0  0  0  0  0  0  0  0  0  0  0
    7.7747  -14.1059   26.4706 C   0  0  1  0  0  0  0  0  0  0  0  0
    6.3633  -14.3214   26.8740 C   0  0  0  0  0  0  0  0  0  0  0  0
    5.3800  -14.1682   26.1373 O   0  0  0  0  0  0  0  0  0  0  0  0
    6.1396  -14.7273   28.1854 O   0  0  0  0  0  0  0  0  0  0  0  0
  2  1  1  6
  2  3  1  0
  3  4  1  0
  4  5  1  0
  5  9  1  0
  5  6  2  0
  7  2  1  0
  8  7  2  0
 11 10  1  1
 11 12  1  0
 11 13  1  0
 13 14  1  6
 14  7  1  0
 15 17  1  0
 15 13  1  0
 16 15  2  0
 17 21  1  0
 18 19  1  0
 18 17  1  0
 19 20  1  0
 21 20  1  0
 22 24  1  0
 21 22  1  6
 23 22  2  0
M  END
$$$$
