EVP.pdb
     RDKit          3D

 24 24  0  0  1  0  0  0  0  0999 V2000
    9.6498  -15.3000   20.6051 N   0  0  0  0  0  0  0  0  0  0  0  0
    9.2797  -16.2031   21.7134 C   0  0  1  0  0  0  0  0  0  0  0  0
   10.3950  -17.2227   21.7536 C   0  0  0  0  0  0  0  0  0  0  0  0
   10.3520  -18.2080   20.6180 C   0  0  0  0  0  0  0  0  0  0  0  0
   11.4504  -19.2037   20.8826 C   0  0  0  0  0  0  0  0  0  0  0  0
   12.5493  -19.1753   20.3135 O   0  0  0  0  0  0  0  0  0  0  0  0
    9.3198  -15.3968   22.9360 C   0  0  0  0  0  0  0  0  0  0  0  0
   10.3466  -14.6933   23.2500 O   0  0  0  0  0  0  0  0  0  0  0  0
   11.1663  -20.1944   21.8303 O   0  0  0  0  0  0  0  0  0  0  0  0
    7.0989  -13.5718   26.8976 C   0  0  0  0  0  0  0  0  0  0  0  0
    7.0022  -14.1312   25.4705 C   0  0  1  0  0  0  0  0  0  0  0  0
    6.6035  -13.0061   24.5565 C   0  0  0  0  0  0  0  0  0  0  0  0
    8.3825  -14.6604   25.1455 C   0  0  2  0  0  0  0  0  0  0  0  0
    8.2427  -15.3291   23.8489 N   0  0  0  0  0  0  0  0  0  0  0  0
    8.9175  -15.5431   26.1826 C   0  0  0  0  0  0  0  0  0  0  0  0
    8.7852  -16.8018   25.9759 O   0  0  0  0  0  0  0  0  0  0  0  0
    9.5524  -15.1053   27.3626 N   0  0  0  0  0  0  0  0  0  0  0  0
    9.3212  -13.8677   28.0642 C   0  0  0  0  0  0  0  0  0  0  0  0
   10.6342  -13.5734   28.7989 C   0  0  0  0  0  0  0  0  0  0  0  0
   11.5363  -14.7145   28.4486 C   0  0  0  0  0  0  0  0  0  0  0  0
   10.5644  -15.8209   28.0950 C   0  0  1  0  0  0  0  0  0  0  0  0
   10.0242  -16.4848   29.3068 C   0  0  0  0  0  0  0  0  0  0  0  0
    8.8712  -16.3522   29.7383 O   0  0  0  0  0  0  0  0  0  0  0  0
   10.8905  -17.3195   30.0050 O   0  0  0  0  0  0  0  0  0  0  0  0
  2  1  1  6
  2  3  1  0
  3  4  1  0
  4  5  1  0
  5  9  1  0
  5  6  2  0
  7  2  1  0
  8  7  2  0
 11 10  1  1
 11 12  1  0
 11 13  1  0
 13 14  1  6
 14  7  1  0
 15 17  1  0
 15 13  1  0
 16 15  2  0
 17 21  1  0
 18 19  1  0
 18 17  1  0
 19 20  1  0
 21 20  1  0
 22 24  1  0
 21 22  1  1
 23 22  2  0
M  END
$$$$
