EVP.pdb
     RDKit          3D

 24 24  0  0  1  0  0  0  0  0999 V2000
    8.4135  -14.2913   20.3444 N   0  0  0  0  0  0  0  0  0  0  0  0
    8.4027  -15.3724   21.3503 C   0  0  1  0  0  0  0  0  0  0  0  0
    9.6122  -16.2127   21.0096 C   0  0  0  0  0  0  0  0  0  0  0  0
    9.9039  -17.2870   22.0211 C   0  0  0  0  0  0  0  0  0  0  0  0
   10.9974  -18.1367   21.4292 C   0  0  0  0  0  0  0  0  0  0  0  0
   12.1949  -18.0033   21.7130 O   0  0  0  0  0  0  0  0  0  0  0  0
    8.6126  -14.7308   22.6506 C   0  0  0  0  0  0  0  0  0  0  0  0
    9.4574  -13.7771   22.8067 O   0  0  0  0  0  0  0  0  0  0  0  0
   10.5884  -19.1152   20.5151 O   0  0  0  0  0  0  0  0  0  0  0  0
    6.9519  -13.4225   26.9482 C   0  0  0  0  0  0  0  0  0  0  0  0
    6.8540  -13.7556   25.4521 C   0  0  1  0  0  0  0  0  0  0  0  0
    6.6856  -12.4653   24.6990 C   0  0  0  0  0  0  0  0  0  0  0  0
    8.1541  -14.4476   25.1026 C   0  0  2  0  0  0  0  0  0  0  0  0
    7.9061  -15.1050   23.8165 N   0  0  0  0  0  0  0  0  0  0  0  0
    8.6041  -15.3795   26.1370 C   0  0  0  0  0  0  0  0  0  0  0  0
    8.2415  -16.6010   25.9926 O   0  0  0  0  0  0  0  0  0  0  0  0
    9.3910  -15.0252   27.2517 N   0  0  0  0  0  0  0  0  0  0  0  0
    9.2210  -13.8748   28.1030 C   0  0  0  0  0  0  0  0  0  0  0  0
   10.6169  -13.5850   28.6667 C   0  0  0  0  0  0  0  0  0  0  0  0
   11.4985  -14.6386   28.0741 C   0  0  0  0  0  0  0  0  0  0  0  0
   10.5266  -15.7546   27.7524 C   0  0  1  0  0  0  0  0  0  0  0  0
   10.1980  -16.5595   28.9547 C   0  0  0  0  0  0  0  0  0  0  0  0
    9.1135  -16.5386   29.5519 O   0  0  0  0  0  0  0  0  0  0  0  0
   11.1944  -17.3999   29.4399 O   0  0  0  0  0  0  0  0  0  0  0  0
  2  1  1  6
  2  3  1  0
  3  4  1  0
  4  5  1  0
  5  9  1  0
  5  6  2  0
  7  2  1  0
  8  7  2  0
 11 10  1  1
 11 12  1  0
 11 13  1  0
 13 14  1  6
 14  7  1  0
 15 17  1  0
 15 13  1  0
 16 15  2  0
 17 21  1  0
 18 19  1  0
 18 17  1  0
 19 20  1  0
 21 20  1  0
 22 24  1  0
 21 22  1  1
 23 22  2  0
M  END
$$$$
