EVP.pdb
     RDKit          3D

 24 24  0  0  1  0  0  0  0  0999 V2000
    9.4793  -15.1949   20.5730 N   0  0  0  0  0  0  0  0  0  0  0  0
    9.1032  -16.0908   21.6850 C   0  0  1  0  0  0  0  0  0  0  0  0
   10.1884  -17.1429   21.7015 C   0  0  0  0  0  0  0  0  0  0  0  0
   10.0259  -18.1931   20.6371 C   0  0  0  0  0  0  0  0  0  0  0  0
   11.0294  -19.2708   20.9523 C   0  0  0  0  0  0  0  0  0  0  0  0
   10.7290  -20.4634   21.0931 O   0  0  0  0  0  0  0  0  0  0  0  0
    9.1894  -15.2905   22.9092 C   0  0  0  0  0  0  0  0  0  0  0  0
   10.2270  -14.5879   23.1874 O   0  0  0  0  0  0  0  0  0  0  0  0
   12.3592  -18.8527   21.0833 O   0  0  0  0  0  0  0  0  0  0  0  0
    7.1458  -13.5632   27.0121 C   0  0  0  0  0  0  0  0  0  0  0  0
    6.9795  -14.0920   25.5797 C   0  0  1  0  0  0  0  0  0  0  0  0
    6.5189  -12.9521   24.7143 C   0  0  0  0  0  0  0  0  0  0  0  0
    8.3469  -14.5953   25.1696 C   0  0  2  0  0  0  0  0  0  0  0  0
    8.1477  -15.2280   23.8628 N   0  0  0  0  0  0  0  0  0  0  0  0
    8.9433  -15.5010   26.1519 C   0  0  0  0  0  0  0  0  0  0  0  0
    8.8923  -16.7512   25.8708 O   0  0  0  0  0  0  0  0  0  0  0  0
    9.5539  -15.0933   27.3553 N   0  0  0  0  0  0  0  0  0  0  0  0
    9.2763  -13.8950   28.1064 C   0  0  0  0  0  0  0  0  0  0  0  0
   10.5730  -13.5895   28.8651 C   0  0  0  0  0  0  0  0  0  0  0  0
   11.5150  -14.6846   28.4754 C   0  0  0  0  0  0  0  0  0  0  0  0
   10.5831  -15.8060   28.0662 C   0  0  1  0  0  0  0  0  0  0  0  0
   10.0555  -16.5382   29.2438 C   0  0  0  0  0  0  0  0  0  0  0  0
    8.8984  -16.4532   29.6763 O   0  0  0  0  0  0  0  0  0  0  0  0
   10.9394  -17.3837   29.9059 O   0  0  0  0  0  0  0  0  0  0  0  0
  2  1  1  6
  2  3  1  0
  3  4  1  0
  4  5  1  0
  5  9  1  0
  5  6  2  0
  7  2  1  0
  8  7  2  0
 11 10  1  1
 11 12  1  0
 11 13  1  0
 13 14  1  6
 14  7  1  0
 15 17  1  0
 15 13  1  0
 16 15  2  0
 17 21  1  0
 18 19  1  0
 18 17  1  0
 19 20  1  0
 21 20  1  0
 22 24  1  0
 21 22  1  1
 23 22  2  0
M  END
$$$$
