EVP.pdb
     RDKit          3D

 24 24  0  0  1  0  0  0  0  0999 V2000
    9.5596  -15.1640   20.4329 N   0  0  0  0  0  0  0  0  0  0  0  0
    9.2353  -16.1010   21.5273 C   0  0  1  0  0  0  0  0  0  0  0  0
   10.3472  -17.1241   21.4858 C   0  0  0  0  0  0  0  0  0  0  0  0
   10.2024  -18.1269   20.3743 C   0  0  0  0  0  0  0  0  0  0  0  0
   11.3259  -19.1144   20.5490 C   0  0  0  0  0  0  0  0  0  0  0  0
   12.1795  -19.0265   21.4412 O   0  0  0  0  0  0  0  0  0  0  0  0
    9.3323  -15.3341   22.7719 C   0  0  0  0  0  0  0  0  0  0  0  0
   10.2932  -14.5106   22.9867 O   0  0  0  0  0  0  0  0  0  0  0  0
   11.3648  -20.1697   19.6297 O   0  0  0  0  0  0  0  0  0  0  0  0
    7.3277  -13.5784   26.8332 C   0  0  0  0  0  0  0  0  0  0  0  0
    7.1984  -14.1621   25.4184 C   0  0  1  0  0  0  0  0  0  0  0  0
    6.8061  -13.0467   24.4897 C   0  0  0  0  0  0  0  0  0  0  0  0
    8.5637  -14.7227   25.0823 C   0  0  2  0  0  0  0  0  0  0  0  0
    8.3846  -15.4377   23.8156 N   0  0  0  0  0  0  0  0  0  0  0  0
    9.1109  -15.5731   26.1397 C   0  0  0  0  0  0  0  0  0  0  0  0
    9.0953  -16.8353   25.9136 O   0  0  0  0  0  0  0  0  0  0  0  0
    9.6400  -15.1015   27.3583 N   0  0  0  0  0  0  0  0  0  0  0  0
    9.2663  -13.8985   28.0584 C   0  0  0  0  0  0  0  0  0  0  0  0
   10.5069  -13.5063   28.8693 C   0  0  0  0  0  0  0  0  0  0  0  0
   11.5203  -14.5623   28.5588 C   0  0  0  0  0  0  0  0  0  0  0  0
   10.6667  -15.7407   28.1392 C   0  0  1  0  0  0  0  0  0  0  0  0
   10.1181  -16.4659   29.3116 C   0  0  0  0  0  0  0  0  0  0  0  0
    8.9323  -16.4519   29.6675 O   0  0  0  0  0  0  0  0  0  0  0  0
   11.0162  -17.2171   30.0623 O   0  0  0  0  0  0  0  0  0  0  0  0
  2  1  1  6
  2  3  1  0
  3  4  1  0
  4  5  1  0
  5  9  1  0
  5  6  2  0
  7  2  1  0
  8  7  2  0
 11 10  1  1
 11 12  1  0
 11 13  1  0
 13 14  1  6
 14  7  1  0
 15 17  1  0
 15 13  1  0
 16 15  2  0
 17 21  1  0
 18 19  1  0
 18 17  1  0
 19 20  1  0
 21 20  1  0
 22 24  1  0
 21 22  1  1
 23 22  2  0
M  END
$$$$
