EVP.pdb
     RDKit          3D

 24 24  0  0  1  0  0  0  0  0999 V2000
    9.0216  -14.7263   20.3552 N   0  0  0  0  0  0  0  0  0  0  0  0
    8.7985  -15.7238   21.4210 C   0  0  1  0  0  0  0  0  0  0  0  0
    9.9194  -16.7218   21.2401 C   0  0  0  0  0  0  0  0  0  0  0  0
    9.5783  -17.8479   20.3031 C   0  0  0  0  0  0  0  0  0  0  0  0
   10.6212  -18.9113   20.5258 C   0  0  0  0  0  0  0  0  0  0  0  0
   11.6207  -19.0482   19.8084 O   0  0  0  0  0  0  0  0  0  0  0  0
    8.9810  -15.0196   22.6927 C   0  0  0  0  0  0  0  0  0  0  0  0
    9.9798  -14.2399   22.8977 O   0  0  0  0  0  0  0  0  0  0  0  0
   10.4049  -19.7656   21.6138 O   0  0  0  0  0  0  0  0  0  0  0  0
    7.2286  -13.4132   26.9389 C   0  0  0  0  0  0  0  0  0  0  0  0
    6.9743  -14.0680   25.5730 C   0  0  1  0  0  0  0  0  0  0  0  0
    6.3237  -13.0465   24.6821 C   0  0  0  0  0  0  0  0  0  0  0  0
    8.3368  -14.4799   25.0584 C   0  0  2  0  0  0  0  0  0  0  0  0
    8.0799  -15.1397   23.7752 N   0  0  0  0  0  0  0  0  0  0  0  0
    9.0709  -15.3310   25.9953 C   0  0  0  0  0  0  0  0  0  0  0  0
    9.3177  -16.5252   25.5985 O   0  0  0  0  0  0  0  0  0  0  0  0
    9.5111  -14.9282   27.2725 N   0  0  0  0  0  0  0  0  0  0  0  0
    9.0059  -13.8304   28.0579 C   0  0  0  0  0  0  0  0  0  0  0  0
   10.1762  -13.4081   28.9537 C   0  0  0  0  0  0  0  0  0  0  0  0
   11.2908  -14.3403   28.5971 C   0  0  0  0  0  0  0  0  0  0  0  0
   10.5620  -15.5449   28.0390 C   0  0  1  0  0  0  0  0  0  0  0  0
   10.0387  -16.4181   29.1184 C   0  0  0  0  0  0  0  0  0  0  0  0
    8.8484  -16.5102   29.4467 O   0  0  0  0  0  0  0  0  0  0  0  0
   10.9679  -17.1893   29.8087 O   0  0  0  0  0  0  0  0  0  0  0  0
  2  1  1  6
  2  3  1  0
  3  4  1  0
  4  5  1  0
  5  9  1  0
  5  6  2  0
  7  2  1  0
  8  7  2  0
 11 10  1  1
 11 12  1  0
 11 13  1  0
 13 14  1  6
 14  7  1  0
 15 17  1  0
 15 13  1  0
 16 15  2  0
 17 21  1  0
 18 19  1  0
 18 17  1  0
 19 20  1  0
 21 20  1  0
 22 24  1  0
 21 22  1  1
 23 22  2  0
M  END
$$$$
