EVP.pdb
     RDKit          3D

 24 24  0  0  1  0  0  0  0  0999 V2000
    7.9996  -16.8304   21.0913 N   0  0  0  0  0  0  0  0  0  0  0  0
    7.5958  -16.9696   22.5049 C   0  0  1  0  0  0  0  0  0  0  0  0
    8.2495  -18.2557   22.9560 C   0  0  0  0  0  0  0  0  0  0  0  0
    8.8947  -19.0281   21.8383 C   0  0  0  0  0  0  0  0  0  0  0  0
    9.5620  -20.2168   22.4784 C   0  0  0  0  0  0  0  0  0  0  0  0
   10.7806  -20.4275   22.4232 O   0  0  0  0  0  0  0  0  0  0  0  0
    8.2012  -15.8442   23.2216 C   0  0  0  0  0  0  0  0  0  0  0  0
    9.2112  -15.2065   22.7516 O   0  0  0  0  0  0  0  0  0  0  0  0
    8.7179  -21.1016   23.1605 O   0  0  0  0  0  0  0  0  0  0  0  0
    7.7838  -12.4427   26.7221 C   0  0  0  0  0  0  0  0  0  0  0  0
    7.1705  -13.6303   25.9655 C   0  0  1  0  0  0  0  0  0  0  0  0
    6.0240  -13.1139   25.1414 C   0  0  0  0  0  0  0  0  0  0  0  0
    8.2839  -14.1816   25.1008 C   0  0  2  0  0  0  0  0  0  0  0  0
    7.7222  -15.3777   24.4670 N   0  0  0  0  0  0  0  0  0  0  0  0
    9.5085  -14.4610   25.8513 C   0  0  0  0  0  0  0  0  0  0  0  0
   10.5855  -14.5500   25.1611 O   0  0  0  0  0  0  0  0  0  0  0  0
    9.5737  -14.6332   27.2490 N   0  0  0  0  0  0  0  0  0  0  0  0
    8.5668  -14.2734   28.2153 C   0  0  0  0  0  0  0  0  0  0  0  0
    9.3344  -14.0254   29.5189 C   0  0  0  0  0  0  0  0  0  0  0  0
   10.7682  -14.2817   29.1770 C   0  0  0  0  0  0  0  0  0  0  0  0
   10.6732  -15.2059   27.9809 C   0  0  1  0  0  0  0  0  0  0  0  0
   10.4125  -16.6079   28.3902 C   0  0  0  0  0  0  0  0  0  0  0  0
    9.3213  -17.1860   28.2993 O   0  0  0  0  0  0  0  0  0  0  0  0
   11.4861  -17.3190   28.9159 O   0  0  0  0  0  0  0  0  0  0  0  0
  2  1  1  6
  2  3  1  0
  3  4  1  0
  4  5  1  0
  5  9  1  0
  5  6  2  0
  7  2  1  0
  8  7  2  0
 11 10  1  6
 11 12  1  0
 11 13  1  0
 13 14  1  1
 14  7  1  0
 15 17  1  0
 15 13  1  0
 16 15  2  0
 17 21  1  0
 18 19  1  0
 18 17  1  0
 19 20  1  0
 21 20  1  0
 22 24  1  0
 21 22  1  1
 23 22  2  0
M  END
$$$$
