EVP.pdb
     RDKit          3D

 24 24  0  0  1  0  0  0  0  0999 V2000
   13.1315  -15.3797   17.5196 N   0  0  0  0  0  0  0  0  0  0  0  0
   12.1345  -16.2547   18.1685 C   0  0  1  0  0  0  0  0  0  0  0  0
   12.9618  -17.2510   18.9481 C   0  0  0  0  0  0  0  0  0  0  0  0
   13.7424  -18.1978   18.0782 C   0  0  0  0  0  0  0  0  0  0  0  0
   14.4783  -19.1198   19.0143 C   0  0  0  0  0  0  0  0  0  0  0  0
   15.7120  -19.1515   19.1117 O   0  0  0  0  0  0  0  0  0  0  0  0
   11.3889  -15.4100   19.1051 C   0  0  0  0  0  0  0  0  0  0  0  0
   11.9822  -14.6169   19.9215 O   0  0  0  0  0  0  0  0  0  0  0  0
   13.6819  -19.9668   19.7945 O   0  0  0  0  0  0  0  0  0  0  0  0
    7.1296  -13.6950   20.8068 C   0  0  0  0  0  0  0  0  0  0  0  0
    7.9611  -14.2502   19.6409 C   0  0  1  0  0  0  0  0  0  0  0  0
    8.1552  -13.1445   18.6408 C   0  0  0  0  0  0  0  0  0  0  0  0
    9.2725  -14.6959   20.2513 C   0  0  2  0  0  0  0  0  0  0  0  0
    9.9771  -15.4005   19.1766 N   0  0  0  0  0  0  0  0  0  0  0  0
    9.0979  -15.5192   21.4482 C   0  0  0  0  0  0  0  0  0  0  0  0
    9.3579  -16.7680   21.3171 O   0  0  0  0  0  0  0  0  0  0  0  0
    8.6730  -15.0354   22.7023 N   0  0  0  0  0  0  0  0  0  0  0  0
    8.1617  -13.7205   22.9969 C   0  0  0  0  0  0  0  0  0  0  0  0
    8.4888  -13.4868   24.4764 C   0  0  0  0  0  0  0  0  0  0  0  0
    9.1781  -14.7379   24.9213 C   0  0  0  0  0  0  0  0  0  0  0  0
    8.6726  -15.7733   23.9384 C   0  0  1  0  0  0  0  0  0  0  0  0
    7.3214  -16.2641   24.3050 C   0  0  0  0  0  0  0  0  0  0  0  0
    7.0654  -16.9895   25.2754 O   0  0  0  0  0  0  0  0  0  0  0  0
    6.2671  -15.8721   23.4870 O   0  0  0  0  0  0  0  0  0  0  0  0
  2  1  1  1
  2  3  1  0
  3  4  1  0
  4  5  1  0
  5  9  1  0
  5  6  2  0
  7  2  1  0
  8  7  2  0
 11 10  1  1
 11 12  1  0
 11 13  1  0
 13 14  1  6
 14  7  1  0
 15 17  1  0
 15 13  1  0
 16 15  2  0
 17 21  1  0
 18 19  1  0
 18 17  1  0
 19 20  1  0
 21 20  1  0
 22 24  1  0
 21 22  1  1
 23 22  2  0
M  END
$$$$
