EVP.pdb
     RDKit          3D

 24 24  0  0  1  0  0  0  0  0999 V2000
   11.2661  -16.4280   20.0931 N   0  0  0  0  0  0  0  0  0  0  0  0
   10.9281  -17.2493   21.2729 C   0  0  1  0  0  0  0  0  0  0  0  0
   12.2041  -17.9963   21.5869 C   0  0  0  0  0  0  0  0  0  0  0  0
   12.1144  -18.8497   22.8222 C   0  0  0  0  0  0  0  0  0  0  0  0
   13.4555  -19.5187   22.9700 C   0  0  0  0  0  0  0  0  0  0  0  0
   14.0209  -19.6817   24.0591 O   0  0  0  0  0  0  0  0  0  0  0  0
   10.6384  -16.3119   22.3610 C   0  0  0  0  0  0  0  0  0  0  0  0
   11.4594  -15.3817   22.6902 O   0  0  0  0  0  0  0  0  0  0  0  0
   14.0545  -19.9627   21.7849 O   0  0  0  0  0  0  0  0  0  0  0  0
    7.4854  -14.3184   25.5023 C   0  0  0  0  0  0  0  0  0  0  0  0
    7.7625  -15.1000   24.2096 C   0  0  1  0  0  0  0  0  0  0  0  0
    7.4441  -14.2021   23.0465 C   0  0  0  0  0  0  0  0  0  0  0  0
    9.2317  -15.4610   24.2583 C   0  0  2  0  0  0  0  0  0  0  0  0
    9.4456  -16.3568   23.1184 N   0  0  0  0  0  0  0  0  0  0  0  0
    9.6335  -16.0595   25.5316 C   0  0  0  0  0  0  0  0  0  0  0  0
    9.8619  -17.3213   25.5149 O   0  0  0  0  0  0  0  0  0  0  0  0
    9.7810  -15.3521   26.7420 N   0  0  0  0  0  0  0  0  0  0  0  0
    9.1220  -14.1261   27.1160 C   0  0  0  0  0  0  0  0  0  0  0  0
   10.0663  -13.4551   28.1203 C   0  0  0  0  0  0  0  0  0  0  0  0
   11.2251  -14.3931   28.2462 C   0  0  0  0  0  0  0  0  0  0  0  0
   10.6297  -15.7260   27.8430 C   0  0  1  0  0  0  0  0  0  0  0  0
    9.8720  -16.3479   28.9568 C   0  0  0  0  0  0  0  0  0  0  0  0
   10.3748  -16.8169   29.9866 O   0  0  0  0  0  0  0  0  0  0  0  0
    8.4888  -16.4028   28.8223 O   0  0  0  0  0  0  0  0  0  0  0  0
  2  1  1  6
  2  3  1  0
  3  4  1  0
  4  5  1  0
  5  9  1  0
  5  6  2  0
  7  2  1  0
  8  7  2  0
 11 10  1  1
 11 12  1  0
 11 13  1  0
 13 14  1  6
 14  7  1  0
 15 17  1  0
 15 13  1  0
 16 15  2  0
 17 21  1  0
 18 19  1  0
 18 17  1  0
 19 20  1  0
 21 20  1  0
 22 24  1  0
 21 22  1  1
 23 22  2  0
M  END
$$$$
