EVP.pdb
     RDKit          3D

 24 24  0  0  1  0  0  0  0  0999 V2000
   11.5547  -17.3199   20.2805 N   0  0  0  0  0  0  0  0  0  0  0  0
   11.6203  -17.3845   21.7543 C   0  0  1  0  0  0  0  0  0  0  0  0
   13.0834  -17.1781   22.0733 C   0  0  0  0  0  0  0  0  0  0  0  0
   13.7169  -18.3456   22.7789 C   0  0  0  0  0  0  0  0  0  0  0  0
   15.1794  -18.3104   22.4216 C   0  0  0  0  0  0  0  0  0  0  0  0
   15.6744  -17.4763   21.6524 O   0  0  0  0  0  0  0  0  0  0  0  0
   10.8524  -16.2411   22.2538 C   0  0  0  0  0  0  0  0  0  0  0  0
   11.4188  -15.1383   22.5867 O   0  0  0  0  0  0  0  0  0  0  0  0
   15.9808  -19.2928   23.0158 O   0  0  0  0  0  0  0  0  0  0  0  0
    6.6544  -13.8609   22.7843 C   0  0  0  0  0  0  0  0  0  0  0  0
    7.4070  -15.0754   22.2210 C   0  0  1  0  0  0  0  0  0  0  0  0
    7.6094  -14.8541   20.7477 C   0  0  0  0  0  0  0  0  0  0  0  0
    8.7212  -15.1242   22.9703 C   0  0  2  0  0  0  0  0  0  0  0  0
    9.4466  -16.2631   22.4007 N   0  0  0  0  0  0  0  0  0  0  0  0
    8.5517  -15.2290   24.4198 C   0  0  0  0  0  0  0  0  0  0  0  0
    9.0203  -16.2895   24.9676 O   0  0  0  0  0  0  0  0  0  0  0  0
    7.9220  -14.2608   25.2281 N   0  0  0  0  0  0  0  0  0  0  0  0
    7.2407  -13.0706   24.7847 C   0  0  0  0  0  0  0  0  0  0  0  0
    7.3504  -12.0875   25.9560 C   0  0  0  0  0  0  0  0  0  0  0  0
    8.1064  -12.8294   27.0127 C   0  0  0  0  0  0  0  0  0  0  0  0
    7.8427  -14.2797   26.6654 C   0  0  1  0  0  0  0  0  0  0  0  0
    6.5156  -14.7283   27.1540 C   0  0  0  0  0  0  0  0  0  0  0  0
    5.4655  -14.6931   26.4989 O   0  0  0  0  0  0  0  0  0  0  0  0
    6.4590  -15.2258   28.4517 O   0  0  0  0  0  0  0  0  0  0  0  0
  2  1  1  6
  2  3  1  0
  3  4  1  0
  4  5  1  0
  5  9  1  0
  5  6  2  0
  7  2  1  0
  8  7  2  0
 11 10  1  1
 11 12  1  0
 11 13  1  0
 13 14  1  6
 14  7  1  0
 15 17  1  0
 15 13  1  0
 16 15  2  0
 17 21  1  0
 18 19  1  0
 18 17  1  0
 19 20  1  0
 21 20  1  0
 22 24  1  0
 21 22  1  6
 23 22  2  0
M  END
$$$$
