EVP.pdb
     RDKit          3D

 24 24  0  0  1  0  0  0  0  0999 V2000
   13.0642  -14.1886   18.7520 N   0  0  0  0  0  0  0  0  0  0  0  0
   12.5247  -15.1227   19.7605 C   0  0  1  0  0  0  0  0  0  0  0  0
   13.6840  -15.3719   20.6980 C   0  0  0  0  0  0  0  0  0  0  0  0
   14.6018  -16.4729   20.2422 C   0  0  0  0  0  0  0  0  0  0  0  0
   15.6863  -16.5746   21.2821 C   0  0  0  0  0  0  0  0  0  0  0  0
   16.7543  -15.9520   21.2180 O   0  0  0  0  0  0  0  0  0  0  0  0
   11.4730  -14.3968   20.4772 C   0  0  0  0  0  0  0  0  0  0  0  0
   11.6891  -13.2548   21.0220 O   0  0  0  0  0  0  0  0  0  0  0  0
   15.4264  -17.4308   22.3591 O   0  0  0  0  0  0  0  0  0  0  0  0
    6.8367  -13.4999   21.4753 C   0  0  0  0  0  0  0  0  0  0  0  0
    7.9380  -14.0642   20.5656 C   0  0  1  0  0  0  0  0  0  0  0  0
    8.1546  -13.0913   19.4400 C   0  0  0  0  0  0  0  0  0  0  0  0
    9.1645  -14.1946   21.4429 C   0  0  2  0  0  0  0  0  0  0  0  0
   10.1557  -14.8900   20.6172 N   0  0  0  0  0  0  0  0  0  0  0  0
    8.8962  -14.8836   22.7055 C   0  0  0  0  0  0  0  0  0  0  0  0
    9.3150  -16.0928   22.7888 O   0  0  0  0  0  0  0  0  0  0  0  0
    8.2239  -14.3137   23.8058 N   0  0  0  0  0  0  0  0  0  0  0  0
    7.4327  -13.1090   23.8098 C   0  0  0  0  0  0  0  0  0  0  0  0
    7.5102  -12.5848   25.2484 C   0  0  0  0  0  0  0  0  0  0  0  0
    8.3646  -13.5756   25.9744 C   0  0  0  0  0  0  0  0  0  0  0  0
    8.2038  -14.8343   25.1478 C   0  0  1  0  0  0  0  0  0  0  0  0
    6.9373  -15.5398   25.4631 C   0  0  0  0  0  0  0  0  0  0  0  0
    5.9074  -15.4967   24.7771 O   0  0  0  0  0  0  0  0  0  0  0  0
    6.9173  -16.3069   26.6232 O   0  0  0  0  0  0  0  0  0  0  0  0
  2  1  1  6
  2  3  1  0
  3  4  1  0
  4  5  1  0
  5  9  1  0
  5  6  2  0
  7  2  1  0
  8  7  2  0
 11 10  1  1
 11 12  1  0
 11 13  1  0
 13 14  1  6
 14  7  1  0
 15 17  1  0
 15 13  1  0
 16 15  2  0
 17 21  1  0
 18 19  1  0
 18 17  1  0
 19 20  1  0
 21 20  1  0
 22 24  1  0
 21 22  1  1
 23 22  2  0
M  END
$$$$
