EVP.pdb
     RDKit          3D

 24 24  0  0  1  0  0  0  0  0999 V2000
    9.4765  -14.9970   20.4457 N   0  0  0  0  0  0  0  0  0  0  0  0
    9.1909  -15.9557   21.5320 C   0  0  1  0  0  0  0  0  0  0  0  0
   10.3347  -16.9420   21.4710 C   0  0  0  0  0  0  0  0  0  0  0  0
   10.2849  -17.8492   20.2723 C   0  0  0  0  0  0  0  0  0  0  0  0
   11.4577  -18.7848   20.4034 C   0  0  0  0  0  0  0  0  0  0  0  0
   12.6002  -18.5059   20.0170 O   0  0  0  0  0  0  0  0  0  0  0  0
    9.2731  -15.1996   22.7842 C   0  0  0  0  0  0  0  0  0  0  0  0
   10.2335  -14.3811   23.0193 O   0  0  0  0  0  0  0  0  0  0  0  0
   11.1918  -20.0233   21.0000 O   0  0  0  0  0  0  0  0  0  0  0  0
    7.2562  -13.6398   26.9414 C   0  0  0  0  0  0  0  0  0  0  0  0
    7.1112  -14.1697   25.5071 C   0  0  1  0  0  0  0  0  0  0  0  0
    6.6255  -13.0404   24.6416 C   0  0  0  0  0  0  0  0  0  0  0  0
    8.4932  -14.6364   25.1032 C   0  0  2  0  0  0  0  0  0  0  0  0
    8.3105  -15.3086   23.8137 N   0  0  0  0  0  0  0  0  0  0  0  0
    9.1241  -15.4961   26.1051 C   0  0  0  0  0  0  0  0  0  0  0  0
    9.2365  -16.7354   25.7952 O   0  0  0  0  0  0  0  0  0  0  0  0
    9.6030  -15.0561   27.3558 N   0  0  0  0  0  0  0  0  0  0  0  0
    9.1158  -13.9407   28.1276 C   0  0  0  0  0  0  0  0  0  0  0  0
   10.3116  -13.4869   28.9729 C   0  0  0  0  0  0  0  0  0  0  0  0
   11.4207  -14.4213   28.6050 C   0  0  0  0  0  0  0  0  0  0  0  0
   10.6828  -15.6452   28.1037 C   0  0  1  0  0  0  0  0  0  0  0  0
   10.2014  -16.4921   29.2227 C   0  0  0  0  0  0  0  0  0  0  0  0
   10.9259  -17.1465   29.9843 O   0  0  0  0  0  0  0  0  0  0  0  0
    8.8260  -16.5475   29.4222 O   0  0  0  0  0  0  0  0  0  0  0  0
  2  1  1  6
  2  3  1  0
  3  4  1  0
  4  5  1  0
  5  9  1  0
  5  6  2  0
  7  2  1  0
  8  7  2  0
 11 10  1  1
 11 12  1  0
 11 13  1  0
 13 14  1  6
 14  7  1  0
 15 17  1  0
 15 13  1  0
 16 15  2  0
 17 21  1  0
 18 19  1  0
 18 17  1  0
 19 20  1  0
 21 20  1  0
 22 24  1  0
 21 22  1  1
 23 22  2  0
M  END
$$$$
