EVP.pdb
     RDKit          3D

 24 24  0  0  1  0  0  0  0  0999 V2000
   12.5377  -17.0821   21.1016 N   0  0  0  0  0  0  0  0  0  0  0  0
   11.1171  -17.4007   21.3487 C   0  0  1  0  0  0  0  0  0  0  0  0
   11.1568  -18.5634   22.3139 C   0  0  0  0  0  0  0  0  0  0  0  0
   12.1450  -18.3839   23.4334 C   0  0  0  0  0  0  0  0  0  0  0  0
   12.0206  -19.6058   24.3048 C   0  0  0  0  0  0  0  0  0  0  0  0
   12.0546  -20.7631   23.8668 O   0  0  0  0  0  0  0  0  0  0  0  0
   10.5420  -16.2341   22.0231 C   0  0  0  0  0  0  0  0  0  0  0  0
   11.2261  -15.5187   22.8403 O   0  0  0  0  0  0  0  0  0  0  0  0
   11.8597  -19.3692   25.6754 O   0  0  0  0  0  0  0  0  0  0  0  0
    6.9727  -12.9117   22.3825 C   0  0  0  0  0  0  0  0  0  0  0  0
    7.5016  -14.1754   21.6881 C   0  0  1  0  0  0  0  0  0  0  0  0
    7.9390  -13.7948   20.3009 C   0  0  0  0  0  0  0  0  0  0  0  0
    8.6622  -14.6508   22.5354 C   0  0  2  0  0  0  0  0  0  0  0  0
    9.2083  -15.8100   21.8241 N   0  0  0  0  0  0  0  0  0  0  0  0
    8.2778  -14.9617   23.9126 C   0  0  0  0  0  0  0  0  0  0  0  0
    8.3103  -16.2007   24.2416 O   0  0  0  0  0  0  0  0  0  0  0  0
    7.8850  -14.0074   24.8730 N   0  0  0  0  0  0  0  0  0  0  0  0
    7.6142  -12.6100   24.6470 C   0  0  0  0  0  0  0  0  0  0  0  0
    7.9001  -11.9254   25.9886 C   0  0  0  0  0  0  0  0  0  0  0  0
    8.3181  -13.0319   26.9048 C   0  0  0  0  0  0  0  0  0  0  0  0
    7.6806  -14.2536   26.2765 C   0  0  1  0  0  0  0  0  0  0  0  0
    6.2437  -14.3652   26.6290 C   0  0  0  0  0  0  0  0  0  0  0  0
    5.3083  -13.9022   25.9629 O   0  0  0  0  0  0  0  0  0  0  0  0
    5.9356  -15.0456   27.8023 O   0  0  0  0  0  0  0  0  0  0  0  0
  2  1  1  1
  2  3  1  0
  3  4  1  0
  4  5  1  0
  5  9  1  0
  5  6  2  0
  7  2  1  0
  8  7  2  0
 11 10  1  1
 11 12  1  0
 11 13  1  0
 13 14  1  6
 14  7  1  0
 15 17  1  0
 15 13  1  0
 16 15  2  0
 17 21  1  0
 18 19  1  0
 18 17  1  0
 19 20  1  0
 21 20  1  0
 22 24  1  0
 21 22  1  6
 23 22  2  0
M  END
$$$$
