EVP.pdb
     RDKit          3D

 24 24  0  0  1  0  0  0  0  0999 V2000
   12.7022  -17.0752   21.3275 N   0  0  0  0  0  0  0  0  0  0  0  0
   11.3799  -17.4759   21.8488 C   0  0  1  0  0  0  0  0  0  0  0  0
   11.6959  -18.4381   22.9711 C   0  0  0  0  0  0  0  0  0  0  0  0
   13.1695  -18.6440   23.1914 C   0  0  0  0  0  0  0  0  0  0  0  0
   13.2923  -19.6206   24.3311 C   0  0  0  0  0  0  0  0  0  0  0  0
   13.0549  -20.8306   24.2221 O   0  0  0  0  0  0  0  0  0  0  0  0
   10.7711  -16.2664   22.4083 C   0  0  0  0  0  0  0  0  0  0  0  0
   11.4611  -15.3969   23.0529 O   0  0  0  0  0  0  0  0  0  0  0  0
   13.6997  -19.0841   25.5586 O   0  0  0  0  0  0  0  0  0  0  0  0
    6.9846  -13.1885   22.7096 C   0  0  0  0  0  0  0  0  0  0  0  0
    7.5898  -14.4495   22.0752 C   0  0  1  0  0  0  0  0  0  0  0  0
    7.9497  -14.1265   20.6516 C   0  0  0  0  0  0  0  0  0  0  0  0
    8.8120  -14.7775   22.9059 C   0  0  2  0  0  0  0  0  0  0  0  0
    9.3959  -15.9661   22.2782 N   0  0  0  0  0  0  0  0  0  0  0  0
    8.5059  -14.9782   24.3226 C   0  0  0  0  0  0  0  0  0  0  0  0
    8.7302  -16.1520   24.7876 O   0  0  0  0  0  0  0  0  0  0  0  0
    7.9938  -13.9861   25.1832 N   0  0  0  0  0  0  0  0  0  0  0  0
    7.6209  -12.6395   24.8300 C   0  0  0  0  0  0  0  0  0  0  0  0
    7.7891  -11.8270   26.1192 C   0  0  0  0  0  0  0  0  0  0  0  0
    8.2537  -12.8165   27.1408 C   0  0  0  0  0  0  0  0  0  0  0  0
    7.7466  -14.1345   26.5937 C   0  0  1  0  0  0  0  0  0  0  0  0
    6.3091  -14.3385   26.8988 C   0  0  0  0  0  0  0  0  0  0  0  0
    5.3716  -14.0429   26.1459 O   0  0  0  0  0  0  0  0  0  0  0  0
    6.0027  -14.9075   28.1305 O   0  0  0  0  0  0  0  0  0  0  0  0
  2  1  1  1
  2  3  1  0
  3  4  1  0
  4  5  1  0
  5  9  1  0
  5  6  2  0
  7  2  1  0
  8  7  2  0
 11 10  1  1
 11 12  1  0
 11 13  1  0
 13 14  1  6
 14  7  1  0
 15 17  1  0
 15 13  1  0
 16 15  2  0
 17 21  1  0
 18 19  1  0
 18 17  1  0
 19 20  1  0
 21 20  1  0
 22 24  1  0
 21 22  1  6
 23 22  2  0
M  END
$$$$
