EVP.pdb
     RDKit          3D

 24 24  0  0  1  0  0  0  0  0999 V2000
    9.2328  -15.0360   20.5991 N   0  0  0  0  0  0  0  0  0  0  0  0
    8.6288  -15.8497   21.6732 C   0  0  1  0  0  0  0  0  0  0  0  0
    9.4241  -17.1351   21.6613 C   0  0  0  0  0  0  0  0  0  0  0  0
    8.7955  -18.2251   20.8373 C   0  0  0  0  0  0  0  0  0  0  0  0
    9.8661  -18.7125   19.8969 C   0  0  0  0  0  0  0  0  0  0  0  0
   10.6920  -19.5848   20.1957 O   0  0  0  0  0  0  0  0  0  0  0  0
    8.8846  -15.1365   22.9271 C   0  0  0  0  0  0  0  0  0  0  0  0
   10.0331  -14.6303   23.1962 O   0  0  0  0  0  0  0  0  0  0  0  0
    9.8878  -18.1176   18.6295 O   0  0  0  0  0  0  0  0  0  0  0  0
    7.2292  -13.3165   27.1725 C   0  0  0  0  0  0  0  0  0  0  0  0
    6.9429  -13.7553   25.7287 C   0  0  1  0  0  0  0  0  0  0  0  0
    6.5642  -12.5336   24.9384 C   0  0  0  0  0  0  0  0  0  0  0  0
    8.2299  -14.3749   25.2280 C   0  0  2  0  0  0  0  0  0  0  0  0
    7.8974  -14.9494   23.9215 N   0  0  0  0  0  0  0  0  0  0  0  0
    8.7903  -15.3602   26.1533 C   0  0  0  0  0  0  0  0  0  0  0  0
    8.5720  -16.5910   25.8674 O   0  0  0  0  0  0  0  0  0  0  0  0
    9.5356  -15.0464   27.3080 N   0  0  0  0  0  0  0  0  0  0  0  0
    9.4308  -13.8539   28.1106 C   0  0  0  0  0  0  0  0  0  0  0  0
   10.8097  -13.6865   28.7596 C   0  0  0  0  0  0  0  0  0  0  0  0
   11.6140  -14.8454   28.2607 C   0  0  0  0  0  0  0  0  0  0  0  0
   10.5545  -15.8682   27.9072 C   0  0  1  0  0  0  0  0  0  0  0  0
   10.0667  -16.5904   29.1079 C   0  0  0  0  0  0  0  0  0  0  0  0
   10.7299  -17.3977   29.7725 O   0  0  0  0  0  0  0  0  0  0  0  0
    8.7602  -16.3323   29.5088 O   0  0  0  0  0  0  0  0  0  0  0  0
  2  1  1  6
  2  3  1  0
  3  4  1  0
  4  5  1  0
  5  9  1  0
  5  6  2  0
  7  2  1  0
  8  7  2  0
 11 10  1  1
 11 12  1  0
 11 13  1  0
 13 14  1  6
 14  7  1  0
 15 17  1  0
 15 13  1  0
 16 15  2  0
 17 21  1  0
 18 19  1  0
 18 17  1  0
 19 20  1  0
 21 20  1  0
 22 24  1  0
 21 22  1  1
 23 22  2  0
M  END
$$$$
