YDH.pdb
     RDKit          3D

 31 32  0  0  1  0  0  0  0  0999 V2000
    5.5230  -12.4576   18.8704 O   0  0  0  0  0  0  0  0  0  0  0  0
    6.8193  -12.8912   19.0686 C   0  0  0  0  0  0  0  0  0  0  0  0
    7.0908  -14.0813   19.7021 C   0  0  0  0  0  0  0  0  0  0  0  0
    8.4023  -14.4796   19.8801 C   0  0  0  0  0  0  0  0  0  0  0  0
    9.4293  -13.6935   19.4275 C   0  0  0  0  0  0  0  0  0  0  0  0
   10.8219  -14.1268   19.6173 C   0  0  0  0  0  0  0  0  0  0  0  0
   11.3762  -14.6377   18.3296 C   0  0  2  0  0  0  0  0  0  0  0  0
   10.5541  -15.6817   17.7989 N   0  0  0  0  0  0  0  0  0  0  0  0
   12.7918  -15.0919   18.4469 C   0  0  0  0  0  0  0  0  0  0  0  0
   12.9489  -16.3417   18.6063 O   0  0  0  0  0  0  0  0  0  0  0  0
    9.1453  -12.5123   18.7991 C   0  0  0  0  0  0  0  0  0  0  0  0
    7.8428  -12.0910   18.6087 C   0  0  0  0  0  0  0  0  0  0  0  0
   13.8866  -14.2215   18.3884 N   0  0  0  0  0  0  0  0  0  0  0  0
   15.2268  -14.7461   18.5857 C   0  0  1  0  0  0  0  0  0  0  0  0
   16.1956  -13.9073   17.7838 C   0  0  0  0  0  0  0  0  0  0  0  0
   17.5758  -14.3857   17.8823 C   0  0  0  0  0  0  0  0  0  0  0  0
   18.4242  -13.7171   18.5066 O   0  0  0  0  0  0  0  0  0  0  0  0
   15.5460  -14.6233   20.0539 C   0  0  0  0  0  0  0  0  0  0  0  0
   15.6529  -13.5116   20.6200 O   0  0  0  0  0  0  0  0  0  0  0  0
   17.9436  -15.5716   17.2892 O   0  0  0  0  0  0  0  0  0  0  0  0
   15.7207  -15.8088   20.7737 N   0  0  0  0  0  0  0  0  0  0  0  0
   16.1132  -15.8481   22.1805 C   0  0  1  0  0  0  0  0  0  0  0  0
   15.4789  -17.1016   22.7568 C   0  0  0  0  0  0  0  0  0  0  0  0
   14.0716  -16.7822   23.0998 C   0  0  0  0  0  0  0  0  0  0  0  0
   13.4210  -15.5675   22.9500 C   0  0  0  0  0  0  0  0  0  0  0  0
   12.1495  -15.6678   23.3674 N   0  0  0  0  0  0  0  0  0  0  0  0
   11.9796  -16.9200   23.7793 C   0  0  0  0  0  0  0  0  0  0  0  0
   13.1430  -17.6068   23.6209 N   0  0  0  0  0  0  0  0  0  0  0  0
   17.5864  -15.9070   22.2301 C   0  0  0  0  0  0  0  0  0  0  0  0
   18.3100  -15.7880   23.4104 O   0  0  0  0  0  0  0  0  0  0  0  0
   18.2466  -16.0712   21.1744 O   0  0  0  0  0  0  0  0  0  0  0  0
  2  1  1  0
  3  2  2  0
  4  3  1  0
  5 11  1  0
  5  4  2  0
  6  5  1  0
  7  6  1  0
  7  8  1  1
  9 10  2  0
  9  7  1  0
 11 12  2  0
 12  2  1  0
 13  9  1  0
 14 13  1  0
 14 15  1  6
 16 15  1  0
 16 17  2  0
 18 14  1  0
 19 18  2  0
 20 16  1  0
 21 18  1  0
 22 21  1  0
 23 24  1  0
 22 23  1  6
 24 25  2  0
 26 25  1  0
 27 26  1  0
 28 27  2  0
 28 24  1  0
 29 22  1  0
 29 30  1  0
 31 29  2  0
M  END
$$$$
