YDH.pdb
     RDKit          3D

 31 32  0  0  1  0  0  0  0  0999 V2000
    6.9311  -12.1249   17.2885 O   0  0  0  0  0  0  0  0  0  0  0  0
    7.4023  -12.8561   18.3614 C   0  0  0  0  0  0  0  0  0  0  0  0
    6.5556  -13.3315   19.3353 C   0  0  0  0  0  0  0  0  0  0  0  0
    7.0672  -14.0598   20.3927 C   0  0  0  0  0  0  0  0  0  0  0  0
    8.4123  -14.3085   20.4720 C   0  0  0  0  0  0  0  0  0  0  0  0
    8.9480  -15.0879   21.5984 C   0  0  0  0  0  0  0  0  0  0  0  0
    9.3017  -16.4641   21.1427 C   0  0  2  0  0  0  0  0  0  0  0  0
    8.1363  -17.1745   20.7131 N   0  0  0  0  0  0  0  0  0  0  0  0
   10.0419  -17.2447   22.1755 C   0  0  0  0  0  0  0  0  0  0  0  0
    9.3276  -17.7196   23.1116 O   0  0  0  0  0  0  0  0  0  0  0  0
    9.2432  -13.8299   19.4966 C   0  0  0  0  0  0  0  0  0  0  0  0
    8.7572  -13.0989   18.4292 C   0  0  0  0  0  0  0  0  0  0  0  0
   11.4256  -17.4531   22.1375 N   0  0  0  0  0  0  0  0  0  0  0  0
   12.0724  -18.1532   23.2337 C   0  0  1  0  0  0  0  0  0  0  0  0
   13.4611  -18.5581   22.7946 C   0  0  0  0  0  0  0  0  0  0  0  0
   13.4488  -19.5914   21.7573 C   0  0  0  0  0  0  0  0  0  0  0  0
   14.3802  -19.6547   20.9297 O   0  0  0  0  0  0  0  0  0  0  0  0
   12.1678  -17.1894   24.3888 C   0  0  0  0  0  0  0  0  0  0  0  0
   12.4714  -15.9855   24.2265 O   0  0  0  0  0  0  0  0  0  0  0  0
   12.4137  -20.4955   21.6902 O   0  0  0  0  0  0  0  0  0  0  0  0
   11.9015  -17.6907   25.6663 N   0  0  0  0  0  0  0  0  0  0  0  0
   11.5653  -16.8463   26.8104 C   0  0  1  0  0  0  0  0  0  0  0  0
   10.2954  -16.1078   26.4263 C   0  0  0  0  0  0  0  0  0  0  0  0
    9.9149  -15.2360   27.5644 C   0  0  0  0  0  0  0  0  0  0  0  0
   10.6566  -14.2081   28.1253 C   0  0  0  0  0  0  0  0  0  0  0  0
    9.9780  -13.6452   29.1371 N   0  0  0  0  0  0  0  0  0  0  0  0
    8.8219  -14.2943   29.2305 C   0  0  0  0  0  0  0  0  0  0  0  0
    8.7732  -15.2643   28.2782 N   0  0  0  0  0  0  0  0  0  0  0  0
   11.3542  -17.7325   27.9707 C   0  0  0  0  0  0  0  0  0  0  0  0
   11.5782  -17.3302   29.2818 O   0  0  0  0  0  0  0  0  0  0  0  0
   10.9540  -18.9105   27.7996 O   0  0  0  0  0  0  0  0  0  0  0  0
  2  1  1  0
  3  2  2  0
  4  3  1  0
  5 11  1  0
  5  4  2  0
  6  5  1  0
  7  6  1  0
  7  8  1  1
  9 10  2  0
  9  7  1  0
 11 12  2  0
 12  2  1  0
 13  9  1  0
 14 13  1  0
 14 15  1  6
 16 15  1  0
 16 17  2  0
 18 14  1  0
 19 18  2  0
 20 16  1  0
 21 18  1  0
 22 21  1  0
 23 24  1  0
 22 23  1  6
 24 25  2  0
 26 25  1  0
 27 26  1  0
 28 27  2  0
 28 24  1  0
 29 22  1  0
 29 30  1  0
 31 29  2  0
M  END
$$$$
