YDH.pdb
     RDKit          3D

 31 32  0  0  1  0  0  0  0  0999 V2000
    8.4817  -12.7474   17.0065 O   0  0  0  0  0  0  0  0  0  0  0  0
    8.1838  -13.2361   18.2635 C   0  0  0  0  0  0  0  0  0  0  0  0
    7.2126  -12.6592   19.0480 C   0  0  0  0  0  0  0  0  0  0  0  0
    6.9444  -13.1792   20.3002 C   0  0  0  0  0  0  0  0  0  0  0  0
    7.6419  -14.2652   20.7598 C   0  0  0  0  0  0  0  0  0  0  0  0
    7.3474  -14.8149   22.0919 C   0  0  0  0  0  0  0  0  0  0  0  0
    7.4355  -16.3040   22.0591 C   0  0  2  0  0  0  0  0  0  0  0  0
    6.1355  -16.8894   21.9370 N   0  0  0  0  0  0  0  0  0  0  0  0
    8.1574  -16.8685   23.2356 C   0  0  0  0  0  0  0  0  0  0  0  0
    7.4177  -17.3828   24.1302 O   0  0  0  0  0  0  0  0  0  0  0  0
    8.6051  -14.8294   19.9694 C   0  0  0  0  0  0  0  0  0  0  0  0
    8.8929  -14.3287   18.7137 C   0  0  0  0  0  0  0  0  0  0  0  0
    9.5509  -16.8450   23.3672 N   0  0  0  0  0  0  0  0  0  0  0  0
   10.1690  -17.4673   24.5252 C   0  0  1  0  0  0  0  0  0  0  0  0
   11.5042  -18.0411   24.1088 C   0  0  0  0  0  0  0  0  0  0  0  0
   12.2081  -18.6973   25.2122 C   0  0  0  0  0  0  0  0  0  0  0  0
   11.5975  -19.4903   25.9570 O   0  0  0  0  0  0  0  0  0  0  0  0
   10.3814  -16.3879   25.5558 C   0  0  0  0  0  0  0  0  0  0  0  0
   11.1559  -15.4241   25.3589 O   0  0  0  0  0  0  0  0  0  0  0  0
   13.5424  -18.4440   25.4328 O   0  0  0  0  0  0  0  0  0  0  0  0
    9.6741  -16.4993   26.7564 N   0  0  0  0  0  0  0  0  0  0  0  0
    9.8377  -15.5770   27.8778 C   0  0  1  0  0  0  0  0  0  0  0  0
    8.4353  -15.1618   28.2858 C   0  0  0  0  0  0  0  0  0  0  0  0
    7.9356  -14.1961   27.2769 C   0  0  0  0  0  0  0  0  0  0  0  0
    6.8568  -14.3521   26.4207 C   0  0  0  0  0  0  0  0  0  0  0  0
    6.7110  -13.2599   25.6546 N   0  0  0  0  0  0  0  0  0  0  0  0
    7.6746  -12.4145   26.0060 C   0  0  0  0  0  0  0  0  0  0  0  0
    8.4255  -12.9742   26.9924 N   0  0  0  0  0  0  0  0  0  0  0  0
   10.5290  -16.3070   28.9573 C   0  0  0  0  0  0  0  0  0  0  0  0
   10.8934  -15.7141   30.1600 O   0  0  0  0  0  0  0  0  0  0  0  0
   10.8157  -17.5212   28.8139 O   0  0  0  0  0  0  0  0  0  0  0  0
  2  1  1  0
  3  2  2  0
  4  3  1  0
  5 11  1  0
  5  4  2  0
  6  5  1  0
  7  6  1  0
  7  8  1  1
  9 10  2  0
  9  7  1  0
 11 12  2  0
 12  2  1  0
 13  9  1  0
 14 13  1  0
 14 15  1  6
 16 15  1  0
 16 17  2  0
 18 14  1  0
 19 18  2  0
 20 16  1  0
 21 18  1  0
 22 21  1  0
 23 24  1  0
 22 23  1  1
 24 25  2  0
 26 25  1  0
 27 26  1  0
 28 27  2  0
 28 24  1  0
 29 22  1  0
 29 30  1  0
 31 29  2  0
M  END
$$$$
