YDH.pdb
     RDKit          3D

 31 32  0  0  1  0  0  0  0  0999 V2000
    7.6816  -12.6878   27.7925 O   0  0  0  0  0  0  0  0  0  0  0  0
    7.3672  -13.2055   26.5512 C   0  0  0  0  0  0  0  0  0  0  0  0
    6.3282  -14.0906   26.3831 C   0  0  0  0  0  0  0  0  0  0  0  0
    6.0457  -14.5851   25.1238 C   0  0  0  0  0  0  0  0  0  0  0  0
    6.7965  -14.1959   24.0457 C   0  0  0  0  0  0  0  0  0  0  0  0
    6.4865  -14.7236   22.7083 C   0  0  0  0  0  0  0  0  0  0  0  0
    6.6474  -16.2070   22.6964 C   0  0  2  0  0  0  0  0  0  0  0  0
    6.3133  -16.7666   23.9702 N   0  0  0  0  0  0  0  0  0  0  0  0
    8.0108  -16.6393   22.2741 C   0  0  0  0  0  0  0  0  0  0  0  0
    8.2849  -16.4492   21.0490 O   0  0  0  0  0  0  0  0  0  0  0  0
    7.8269  -13.3149   24.2268 C   0  0  0  0  0  0  0  0  0  0  0  0
    8.1304  -12.8059   25.4754 C   0  0  0  0  0  0  0  0  0  0  0  0
    8.9402  -17.2161   23.1476 N   0  0  0  0  0  0  0  0  0  0  0  0
   10.3368  -17.2920   22.7553 C   0  0  1  0  0  0  0  0  0  0  0  0
   10.6920  -16.0365   21.9919 C   0  0  0  0  0  0  0  0  0  0  0  0
   11.8953  -16.1926   21.1725 C   0  0  0  0  0  0  0  0  0  0  0  0
   12.2016  -17.3153   20.7226 O   0  0  0  0  0  0  0  0  0  0  0  0
   11.1555  -17.3645   24.0191 C   0  0  0  0  0  0  0  0  0  0  0  0
   12.3891  -17.5777   24.0004 O   0  0  0  0  0  0  0  0  0  0  0  0
   12.6921  -15.1057   20.8950 O   0  0  0  0  0  0  0  0  0  0  0  0
   10.4825  -17.1823   25.2307 N   0  0  0  0  0  0  0  0  0  0  0  0
   11.1350  -17.2599   26.5357 C   0  0  1  0  0  0  0  0  0  0  0  0
   10.0500  -16.9885   27.5626 C   0  0  0  0  0  0  0  0  0  0  0  0
    9.0545  -18.0844   27.4723 C   0  0  0  0  0  0  0  0  0  0  0  0
    9.0340  -19.1338   26.5670 C   0  0  0  0  0  0  0  0  0  0  0  0
    7.9782  -19.9283   26.8017 N   0  0  0  0  0  0  0  0  0  0  0  0
    7.3281  -19.4051   27.8363 C   0  0  0  0  0  0  0  0  0  0  0  0
    7.9745  -18.2828   28.2521 N   0  0  0  0  0  0  0  0  0  0  0  0
   11.6932  -18.6184   26.6742 C   0  0  0  0  0  0  0  0  0  0  0  0
   12.3858  -19.0414   27.8020 O   0  0  0  0  0  0  0  0  0  0  0  0
   11.5531  -19.4549   25.7479 O   0  0  0  0  0  0  0  0  0  0  0  0
  2  1  1  0
  3  2  2  0
  4  3  1  0
  5 11  1  0
  5  4  2  0
  6  5  1  0
  7  6  1  0
  7  8  1  1
  9 10  2  0
  9  7  1  0
 11 12  2  0
 12  2  1  0
 13  9  1  0
 14 13  1  0
 14 15  1  1
 16 15  1  0
 16 17  2  0
 18 14  1  0
 19 18  2  0
 20 16  1  0
 21 18  1  0
 22 21  1  0
 23 24  1  0
 22 23  1  1
 24 25  2  0
 26 25  1  0
 27 26  1  0
 28 27  2  0
 28 24  1  0
 29 22  1  0
 29 30  1  0
 31 29  2  0
M  END
$$$$
