YDH.pdb
     RDKit          3D

 31 32  0  0  1  0  0  0  0  0999 V2000
    6.6076  -12.2960   16.9606 O   0  0  0  0  0  0  0  0  0  0  0  0
    7.3346  -13.0577   17.8546 C   0  0  0  0  0  0  0  0  0  0  0  0
    6.7458  -13.6281   18.9588 C   0  0  0  0  0  0  0  0  0  0  0  0
    7.5086  -14.3840   19.8289 C   0  0  0  0  0  0  0  0  0  0  0  0
    8.8461  -14.5659   19.5938 C   0  0  0  0  0  0  0  0  0  0  0  0
    9.6498  -15.3752   20.5224 C   0  0  0  0  0  0  0  0  0  0  0  0
    9.9990  -16.6804   19.8891 C   0  0  2  0  0  0  0  0  0  0  0  0
    8.8196  -17.4302   19.5822 N   0  0  0  0  0  0  0  0  0  0  0  0
   10.9380  -17.4930   20.7149 C   0  0  0  0  0  0  0  0  0  0  0  0
   10.3906  -18.3600   21.4636 O   0  0  0  0  0  0  0  0  0  0  0  0
    9.4191  -13.9931   18.4917 C   0  0  0  0  0  0  0  0  0  0  0  0
    8.6789  -13.2326   17.6064 C   0  0  0  0  0  0  0  0  0  0  0  0
   12.3280  -17.3302   20.6842 N   0  0  0  0  0  0  0  0  0  0  0  0
   13.1529  -18.0567   21.6339 C   0  0  1  0  0  0  0  0  0  0  0  0
   14.5414  -18.2019   21.0541 C   0  0  0  0  0  0  0  0  0  0  0  0
   14.7652  -17.3357   19.8951 C   0  0  0  0  0  0  0  0  0  0  0  0
   14.1645  -17.5592   18.8247 O   0  0  0  0  0  0  0  0  0  0  0  0
   13.2150  -17.2350   22.8962 C   0  0  0  0  0  0  0  0  0  0  0  0
   13.6419  -16.0580   22.9027 O   0  0  0  0  0  0  0  0  0  0  0  0
   15.6360  -16.2737   19.9799 O   0  0  0  0  0  0  0  0  0  0  0  0
   12.7729  -17.8388   24.0770 N   0  0  0  0  0  0  0  0  0  0  0  0
   11.6768  -17.3156   24.8892 C   0  0  1  0  0  0  0  0  0  0  0  0
   10.5165  -17.0963   23.9346 C   0  0  0  0  0  0  0  0  0  0  0  0
    9.3760  -16.5648   24.7201 C   0  0  0  0  0  0  0  0  0  0  0  0
    9.4296  -15.7629   25.8494 C   0  0  0  0  0  0  0  0  0  0  0  0
    8.1892  -15.4815   26.2777 N   0  0  0  0  0  0  0  0  0  0  0  0
    7.3499  -16.0882   25.4445 C   0  0  0  0  0  0  0  0  0  0  0  0
    8.0615  -16.7503   24.4930 N   0  0  0  0  0  0  0  0  0  0  0  0
   11.3595  -18.3283   25.9139 C   0  0  0  0  0  0  0  0  0  0  0  0
   11.5744  -19.6883   25.7270 O   0  0  0  0  0  0  0  0  0  0  0  0
   10.8714  -17.9777   27.0167 O   0  0  0  0  0  0  0  0  0  0  0  0
  2  1  1  0
  3  2  2  0
  4  3  1  0
  5 11  1  0
  5  4  2  0
  6  5  1  0
  7  6  1  0
  7  8  1  1
  9 10  2  0
  9  7  1  0
 11 12  2  0
 12  2  1  0
 13  9  1  0
 14 13  1  0
 14 15  1  6
 16 15  1  0
 16 17  2  0
 18 14  1  0
 19 18  2  0
 20 16  1  0
 21 18  1  0
 22 21  1  0
 23 24  1  0
 22 23  1  6
 24 25  2  0
 26 25  1  0
 27 26  1  0
 28 27  2  0
 28 24  1  0
 29 22  1  0
 29 30  1  0
 31 29  2  0
M  END
$$$$
