YDH.pdb
     RDKit          3D

 31 32  0  0  1  0  0  0  0  0999 V2000
    7.4893  -12.5544   17.0537 O   0  0  0  0  0  0  0  0  0  0  0  0
    7.7036  -13.1001   18.3043 C   0  0  0  0  0  0  0  0  0  0  0  0
    8.9514  -13.5206   18.7014 C   0  0  0  0  0  0  0  0  0  0  0  0
    9.1238  -14.0608   19.9618 C   0  0  0  0  0  0  0  0  0  0  0  0
    8.0573  -14.1774   20.8140 C   0  0  0  0  0  0  0  0  0  0  0  0
    8.2503  -14.7495   22.1552 C   0  0  0  0  0  0  0  0  0  0  0  0
    8.5608  -16.2050   22.0480 C   0  0  2  0  0  0  0  0  0  0  0  0
    7.4008  -16.9466   21.6582 N   0  0  0  0  0  0  0  0  0  0  0  0
    9.1476  -16.7666   23.2986 C   0  0  0  0  0  0  0  0  0  0  0  0
    8.3079  -17.2230   24.1344 O   0  0  0  0  0  0  0  0  0  0  0  0
    6.8218  -13.7552   20.4065 C   0  0  0  0  0  0  0  0  0  0  0  0
    6.6223  -13.2118   19.1515 C   0  0  0  0  0  0  0  0  0  0  0  0
   10.5233  -16.7995   23.5559 N   0  0  0  0  0  0  0  0  0  0  0  0
   11.0040  -17.3895   24.7933 C   0  0  1  0  0  0  0  0  0  0  0  0
   12.4521  -17.7825   24.6091 C   0  0  0  0  0  0  0  0  0  0  0  0
   12.6452  -18.7401   23.5185 C   0  0  0  0  0  0  0  0  0  0  0  0
   11.8610  -19.7014   23.3870 O   0  0  0  0  0  0  0  0  0  0  0  0
   10.8983  -16.3348   25.8651 C   0  0  0  0  0  0  0  0  0  0  0  0
   11.4659  -15.2235   25.7622 O   0  0  0  0  0  0  0  0  0  0  0  0
   13.6891  -18.5854   22.6355 O   0  0  0  0  0  0  0  0  0  0  0  0
   10.1337  -16.6421   26.9942 N   0  0  0  0  0  0  0  0  0  0  0  0
   10.0448  -15.7768   28.1683 C   0  0  1  0  0  0  0  0  0  0  0  0
    8.5690  -15.4692   28.3502 C   0  0  0  0  0  0  0  0  0  0  0  0
    8.2112  -14.3836   27.4048 C   0  0  0  0  0  0  0  0  0  0  0  0
    9.0391  -13.7570   26.4865 C   0  0  0  0  0  0  0  0  0  0  0  0
    8.3545  -12.8256   25.8048 N   0  0  0  0  0  0  0  0  0  0  0  0
    7.1100  -12.8475   26.2713 C   0  0  0  0  0  0  0  0  0  0  0  0
    7.0119  -13.7920   27.2452 N   0  0  0  0  0  0  0  0  0  0  0  0
   10.5940  -16.5248   29.3151 C   0  0  0  0  0  0  0  0  0  0  0  0
   10.9033  -15.9275   30.5310 O   0  0  0  0  0  0  0  0  0  0  0  0
   10.8034  -17.7595   29.2204 O   0  0  0  0  0  0  0  0  0  0  0  0
  2  1  1  0
  3  2  2  0
  4  3  1  0
  5 11  1  0
  5  4  2  0
  6  5  1  0
  7  6  1  0
  7  8  1  1
  9 10  2  0
  9  7  1  0
 11 12  2  0
 12  2  1  0
 13  9  1  0
 14 13  1  0
 14 15  1  6
 16 15  1  0
 16 17  2  0
 18 14  1  0
 19 18  2  0
 20 16  1  0
 21 18  1  0
 22 21  1  0
 23 24  1  0
 22 23  1  1
 24 25  2  0
 26 25  1  0
 27 26  1  0
 28 27  2  0
 28 24  1  0
 29 22  1  0
 29 30  1  0
 31 29  2  0
M  END
$$$$
