YDH.pdb
     RDKit          3D

 31 32  0  0  1  0  0  0  0  0999 V2000
   10.6659  -13.8504   29.2390 O   0  0  0  0  0  0  0  0  0  0  0  0
    9.7466  -14.1468   28.2516 C   0  0  0  0  0  0  0  0  0  0  0  0
    8.4348  -13.7448   28.3460 C   0  0  0  0  0  0  0  0  0  0  0  0
    7.5464  -14.0613   27.3357 C   0  0  0  0  0  0  0  0  0  0  0  0
    7.9690  -14.7723   26.2434 C   0  0  0  0  0  0  0  0  0  0  0  0
    7.0180  -15.1013   25.1707 C   0  0  0  0  0  0  0  0  0  0  0  0
    6.8276  -16.5793   25.0947 C   0  0  2  0  0  0  0  0  0  0  0  0
    7.3571  -17.2223   26.2581 N   0  0  0  0  0  0  0  0  0  0  0  0
    7.4055  -17.1756   23.8560 C   0  0  0  0  0  0  0  0  0  0  0  0
    8.4904  -17.8152   24.0170 O   0  0  0  0  0  0  0  0  0  0  0  0
    9.2764  -15.1659   26.1620 C   0  0  0  0  0  0  0  0  0  0  0  0
   10.1848  -14.8627   27.1585 C   0  0  0  0  0  0  0  0  0  0  0  0
    6.8126  -17.0528   22.5938 N   0  0  0  0  0  0  0  0  0  0  0  0
    7.4087  -17.7314   21.4561 C   0  0  1  0  0  0  0  0  0  0  0  0
    6.3110  -18.0950   20.4824 C   0  0  0  0  0  0  0  0  0  0  0  0
    6.8014  -18.8630   19.3364 C   0  0  0  0  0  0  0  0  0  0  0  0
    7.7076  -19.7061   19.4930 O   0  0  0  0  0  0  0  0  0  0  0  0
    8.3629  -16.7632   20.8046 C   0  0  0  0  0  0  0  0  0  0  0  0
    8.0480  -16.1010   19.7897 O   0  0  0  0  0  0  0  0  0  0  0  0
    6.2672  -18.6601   18.0848 O   0  0  0  0  0  0  0  0  0  0  0  0
    9.6296  -16.6259   21.3796 N   0  0  0  0  0  0  0  0  0  0  0  0
   10.6751  -15.7643   20.8323 C   0  0  1  0  0  0  0  0  0  0  0  0
   10.2204  -14.3389   21.0914 C   0  0  0  0  0  0  0  0  0  0  0  0
    9.3021  -13.9483   19.9939 C   0  0  0  0  0  0  0  0  0  0  0  0
    8.0982  -13.2699   20.1017 C   0  0  0  0  0  0  0  0  0  0  0  0
    7.5545  -13.0943   18.8873 N   0  0  0  0  0  0  0  0  0  0  0  0
    8.3875  -13.6472   18.0115 C   0  0  0  0  0  0  0  0  0  0  0  0
    9.4542  -14.1698   18.6742 N   0  0  0  0  0  0  0  0  0  0  0  0
   11.9283  -16.0776   21.5445 C   0  0  0  0  0  0  0  0  0  0  0  0
   12.0280  -17.0875   22.4938 O   0  0  0  0  0  0  0  0  0  0  0  0
   12.9710  -15.4199   21.3049 O   0  0  0  0  0  0  0  0  0  0  0  0
  2  1  1  0
  3  2  2  0
  4  3  1  0
  5 11  1  0
  5  4  2  0
  6  5  1  0
  7  6  1  0
  7  8  1  1
  9 10  2  0
  9  7  1  0
 11 12  2  0
 12  2  1  0
 13  9  1  0
 14 13  1  0
 14 15  1  6
 16 15  1  0
 16 17  2  0
 18 14  1  0
 19 18  2  0
 20 16  1  0
 21 18  1  0
 22 21  1  0
 23 24  1  0
 22 23  1  1
 24 25  2  0
 26 25  1  0
 27 26  1  0
 28 27  2  0
 28 24  1  0
 29 22  1  0
 29 30  1  0
 31 29  2  0
M  END
$$$$
