YDH.pdb
     RDKit          3D

 31 32  0  0  1  0  0  0  0  0999 V2000
    7.7609  -12.0242   17.1388 O   0  0  0  0  0  0  0  0  0  0  0  0
    7.9676  -12.8197   18.2489 C   0  0  0  0  0  0  0  0  0  0  0  0
    9.0287  -13.6915   18.3217 C   0  0  0  0  0  0  0  0  0  0  0  0
    9.2005  -14.4696   19.4509 C   0  0  0  0  0  0  0  0  0  0  0  0
    8.3184  -14.3740   20.4950 C   0  0  0  0  0  0  0  0  0  0  0  0
    8.5108  -15.2027   21.6948 C   0  0  0  0  0  0  0  0  0  0  0  0
    8.6937  -16.6309   21.3033 C   0  0  2  0  0  0  0  0  0  0  0  0
    7.4543  -17.2060   20.8783 N   0  0  0  0  0  0  0  0  0  0  0  0
    9.3121  -17.4536   22.3824 C   0  0  0  0  0  0  0  0  0  0  0  0
    8.4955  -17.9696   23.2064 O   0  0  0  0  0  0  0  0  0  0  0  0
    7.2674  -13.5029   20.4097 C   0  0  0  0  0  0  0  0  0  0  0  0
    7.0729  -12.7138   19.2918 C   0  0  0  0  0  0  0  0  0  0  0  0
   10.6921  -17.6574   22.4998 N   0  0  0  0  0  0  0  0  0  0  0  0
   11.2023  -18.4833   23.5804 C   0  0  1  0  0  0  0  0  0  0  0  0
   12.6827  -18.6997   23.3640 C   0  0  0  0  0  0  0  0  0  0  0  0
   12.9764  -19.3960   22.1100 C   0  0  0  0  0  0  0  0  0  0  0  0
   13.9438  -19.0361   21.4091 O   0  0  0  0  0  0  0  0  0  0  0  0
   10.9840  -17.7268   24.8659 C   0  0  0  0  0  0  0  0  0  0  0  0
   11.5066  -16.6086   25.0760 O   0  0  0  0  0  0  0  0  0  0  0  0
   12.1899  -20.4476   21.6991 O   0  0  0  0  0  0  0  0  0  0  0  0
   10.1661  -18.3231   25.8300 N   0  0  0  0  0  0  0  0  0  0  0  0
   10.0009  -17.7988   27.1839 C   0  0  1  0  0  0  0  0  0  0  0  0
    8.5036  -17.6790   27.4061 C   0  0  0  0  0  0  0  0  0  0  0  0
    8.0102  -16.5513   26.5785 C   0  0  0  0  0  0  0  0  0  0  0  0
    8.7660  -15.6047   25.9048 C   0  0  0  0  0  0  0  0  0  0  0  0
    7.9634  -14.7438   25.2599 N   0  0  0  0  0  0  0  0  0  0  0  0
    6.7146  -15.1238   25.5105 C   0  0  0  0  0  0  0  0  0  0  0  0
    6.7316  -16.2227   26.3119 N   0  0  0  0  0  0  0  0  0  0  0  0
   10.6173  -18.7644   28.1133 C   0  0  0  0  0  0  0  0  0  0  0  0
   11.2168  -19.9449   27.6917 O   0  0  0  0  0  0  0  0  0  0  0  0
   10.6167  -18.5385   29.3488 O   0  0  0  0  0  0  0  0  0  0  0  0
  2  1  1  0
  3  2  2  0
  4  3  1  0
  5 11  1  0
  5  4  2  0
  6  5  1  0
  7  6  1  0
  7  8  1  1
  9 10  2  0
  9  7  1  0
 11 12  2  0
 12  2  1  0
 13  9  1  0
 14 13  1  0
 14 15  1  6
 16 15  1  0
 16 17  2  0
 18 14  1  0
 19 18  2  0
 20 16  1  0
 21 18  1  0
 22 21  1  0
 23 24  1  0
 22 23  1  1
 24 25  2  0
 26 25  1  0
 27 26  1  0
 28 27  2  0
 28 24  1  0
 29 22  1  0
 29 30  1  0
 31 29  2  0
M  END
$$$$
