YDH.pdb
     RDKit          3D

 31 32  0  0  1  0  0  0  0  0999 V2000
    7.5198  -12.0819   17.6628 O   0  0  0  0  0  0  0  0  0  0  0  0
    7.6130  -12.7950   18.8421 C   0  0  0  0  0  0  0  0  0  0  0  0
    6.4985  -13.3119   19.4602 C   0  0  0  0  0  0  0  0  0  0  0  0
    6.6349  -14.0202   20.6391 C   0  0  0  0  0  0  0  0  0  0  0  0
    7.8748  -14.2083   21.1912 C   0  0  0  0  0  0  0  0  0  0  0  0
    8.0116  -14.9669   22.4438 C   0  0  0  0  0  0  0  0  0  0  0  0
    8.4699  -16.3562   22.1502 C   0  0  2  0  0  0  0  0  0  0  0  0
    7.3701  -17.1847   21.7610 N   0  0  0  0  0  0  0  0  0  0  0  0
    9.2164  -16.9727   23.2844 C   0  0  0  0  0  0  0  0  0  0  0  0
    8.5225  -17.7026   24.0575 O   0  0  0  0  0  0  0  0  0  0  0  0
    8.9750  -13.6890   20.5661 C   0  0  0  0  0  0  0  0  0  0  0  0
    8.8659  -12.9767   19.3867 C   0  0  0  0  0  0  0  0  0  0  0  0
   10.5851  -16.7757   23.5025 N   0  0  0  0  0  0  0  0  0  0  0  0
   11.2237  -17.4052   24.6453 C   0  0  1  0  0  0  0  0  0  0  0  0
   12.6694  -17.6796   24.2991 C   0  0  0  0  0  0  0  0  0  0  0  0
   13.3610  -18.4576   25.3287 C   0  0  0  0  0  0  0  0  0  0  0  0
   12.7117  -19.2114   26.0814 O   0  0  0  0  0  0  0  0  0  0  0  0
   11.1543  -16.4300   25.7927 C   0  0  0  0  0  0  0  0  0  0  0  0
   11.8124  -15.3648   25.8003 O   0  0  0  0  0  0  0  0  0  0  0  0
   14.7263  -18.3622   25.4709 O   0  0  0  0  0  0  0  0  0  0  0  0
   10.3182  -16.7581   26.8638 N   0  0  0  0  0  0  0  0  0  0  0  0
   10.2144  -15.9567   28.0812 C   0  0  1  0  0  0  0  0  0  0  0  0
    8.7299  -15.8333   28.3754 C   0  0  0  0  0  0  0  0  0  0  0  0
    8.1865  -14.7479   27.5228 C   0  0  0  0  0  0  0  0  0  0  0  0
    8.8906  -13.9088   26.6735 C   0  0  0  0  0  0  0  0  0  0  0  0
    8.0527  -13.0545   26.0659 N   0  0  0  0  0  0  0  0  0  0  0  0
    6.8321  -13.3333   26.5120 C   0  0  0  0  0  0  0  0  0  0  0  0
    6.9021  -14.3621   27.3991 N   0  0  0  0  0  0  0  0  0  0  0  0
   10.9269  -16.6794   29.1519 C   0  0  0  0  0  0  0  0  0  0  0  0
   11.5187  -17.9223   28.9627 O   0  0  0  0  0  0  0  0  0  0  0  0
   11.0205  -16.1754   30.2984 O   0  0  0  0  0  0  0  0  0  0  0  0
  2  1  1  0
  3  2  2  0
  4  3  1  0
  5 11  1  0
  5  4  2  0
  6  5  1  0
  7  6  1  0
  7  8  1  1
  9 10  2  0
  9  7  1  0
 11 12  2  0
 12  2  1  0
 13  9  1  0
 14 13  1  0
 14 15  1  6
 16 15  1  0
 16 17  2  0
 18 14  1  0
 19 18  2  0
 20 16  1  0
 21 18  1  0
 22 21  1  0
 23 24  1  0
 22 23  1  1
 24 25  2  0
 26 25  1  0
 27 26  1  0
 28 27  2  0
 28 24  1  0
 29 22  1  0
 29 30  1  0
 31 29  2  0
M  END
$$$$
