YDH.pdb
     RDKit          3D

 31 32  0  0  1  0  0  0  0  0999 V2000
    7.6322  -12.1908   17.3999 O   0  0  0  0  0  0  0  0  0  0  0  0
    7.7617  -12.8198   18.6227 C   0  0  0  0  0  0  0  0  0  0  0  0
    8.9921  -13.0103   19.2069 C   0  0  0  0  0  0  0  0  0  0  0  0
    9.0785  -13.6439   20.4322 C   0  0  0  0  0  0  0  0  0  0  0  0
    7.9440  -14.0809   21.0641 C   0  0  0  0  0  0  0  0  0  0  0  0
    8.0445  -14.7505   22.3698 C   0  0  0  0  0  0  0  0  0  0  0  0
    8.4817  -16.1650   22.1843 C   0  0  2  0  0  0  0  0  0  0  0  0
    7.4235  -16.9586   21.6386 N   0  0  0  0  0  0  0  0  0  0  0  0
    9.0063  -16.7792   23.4379 C   0  0  0  0  0  0  0  0  0  0  0  0
    8.1225  -17.1814   24.2559 O   0  0  0  0  0  0  0  0  0  0  0  0
    6.7266  -13.8849   20.4721 C   0  0  0  0  0  0  0  0  0  0  0  0
    6.6128  -13.2545   19.2474 C   0  0  0  0  0  0  0  0  0  0  0  0
   10.3717  -16.9140   23.7159 N   0  0  0  0  0  0  0  0  0  0  0  0
   10.7895  -17.4215   25.0113 C   0  0  1  0  0  0  0  0  0  0  0  0
   12.1145  -18.1305   24.8466 C   0  0  0  0  0  0  0  0  0  0  0  0
   12.0861  -19.1478   23.7940 C   0  0  0  0  0  0  0  0  0  0  0  0
   12.6956  -18.9534   22.7229 O   0  0  0  0  0  0  0  0  0  0  0  0
   10.9606  -16.2350   25.9252 C   0  0  0  0  0  0  0  0  0  0  0  0
   11.6538  -15.2431   25.6038 O   0  0  0  0  0  0  0  0  0  0  0  0
   11.3896  -20.3198   23.9798 O   0  0  0  0  0  0  0  0  0  0  0  0
   10.3096  -16.2785   27.1615 N   0  0  0  0  0  0  0  0  0  0  0  0
   10.4776  -15.2623   28.1980 C   0  0  1  0  0  0  0  0  0  0  0  0
    9.0922  -15.0123   28.7670 C   0  0  0  0  0  0  0  0  0  0  0  0
    8.3118  -14.2648   27.7509 C   0  0  0  0  0  0  0  0  0  0  0  0
    8.7403  -13.8372   26.5040 C   0  0  0  0  0  0  0  0  0  0  0  0
    7.7480  -13.1961   25.8673 N   0  0  0  0  0  0  0  0  0  0  0  0
    6.6992  -13.2073   26.6839 C   0  0  0  0  0  0  0  0  0  0  0  0
    7.0315  -13.8551   27.8329 N   0  0  0  0  0  0  0  0  0  0  0  0
   11.3965  -15.8102   29.2136 C   0  0  0  0  0  0  0  0  0  0  0  0
   11.9473  -17.0832   29.1289 O   0  0  0  0  0  0  0  0  0  0  0  0
   11.7154  -15.1198   30.2131 O   0  0  0  0  0  0  0  0  0  0  0  0
  2  1  1  0
  3  2  2  0
  4  3  1  0
  5 11  1  0
  5  4  2  0
  6  5  1  0
  7  6  1  0
  7  8  1  1
  9 10  2  0
  9  7  1  0
 11 12  2  0
 12  2  1  0
 13  9  1  0
 14 13  1  0
 14 15  1  6
 16 15  1  0
 16 17  2  0
 18 14  1  0
 19 18  2  0
 20 16  1  0
 21 18  1  0
 22 21  1  0
 23 24  1  0
 22 23  1  1
 24 25  2  0
 26 25  1  0
 27 26  1  0
 28 27  2  0
 28 24  1  0
 29 22  1  0
 29 30  1  0
 31 29  2  0
M  END
$$$$
