YDH.pdb
     RDKit          3D

 31 32  0  0  1  0  0  0  0  0999 V2000
    7.4702  -14.2499   23.8355 O   0  0  0  0  0  0  0  0  0  0  0  0
    7.6167  -13.8546   22.5202 C   0  0  0  0  0  0  0  0  0  0  0  0
    8.5727  -12.9394   22.1463 C   0  0  0  0  0  0  0  0  0  0  0  0
    8.6870  -12.5708   20.8192 C   0  0  0  0  0  0  0  0  0  0  0  0
    7.8524  -13.1142   19.8781 C   0  0  0  0  0  0  0  0  0  0  0  0
    7.9835  -12.7196   18.4673 C   0  0  0  0  0  0  0  0  0  0  0  0
    8.8583  -13.6899   17.7464 C   0  0  2  0  0  0  0  0  0  0  0  0
    8.8129  -13.4658   16.3339 N   0  0  0  0  0  0  0  0  0  0  0  0
    8.5335  -15.1104   18.0636 C   0  0  0  0  0  0  0  0  0  0  0  0
    7.5065  -15.5754   17.4797 O   0  0  0  0  0  0  0  0  0  0  0  0
    6.9060  -14.0234   20.2635 C   0  0  0  0  0  0  0  0  0  0  0  0
    6.7707  -14.4087   21.5839 C   0  0  0  0  0  0  0  0  0  0  0  0
    9.2918  -15.8960   18.9397 N   0  0  0  0  0  0  0  0  0  0  0  0
   10.0568  -17.0141   18.4154 C   0  0  1  0  0  0  0  0  0  0  0  0
   10.6785  -16.5988   17.1015 C   0  0  0  0  0  0  0  0  0  0  0  0
   11.3758  -17.6983   16.4318 C   0  0  0  0  0  0  0  0  0  0  0  0
   12.6152  -17.8019   16.5298 O   0  0  0  0  0  0  0  0  0  0  0  0
   11.1429  -17.3232   19.4139 C   0  0  0  0  0  0  0  0  0  0  0  0
   11.5987  -18.4798   19.5634 O   0  0  0  0  0  0  0  0  0  0  0  0
   10.6703  -18.6203   15.6933 O   0  0  0  0  0  0  0  0  0  0  0  0
   11.6328  -16.2605   20.1786 N   0  0  0  0  0  0  0  0  0  0  0  0
   12.6329  -16.4182   21.2321 C   0  0  1  0  0  0  0  0  0  0  0  0
   13.3985  -15.1078   21.2814 C   0  0  0  0  0  0  0  0  0  0  0  0
   14.1258  -14.9578   19.9974 C   0  0  0  0  0  0  0  0  0  0  0  0
   13.6855  -14.3221   18.8471 C   0  0  0  0  0  0  0  0  0  0  0  0
   14.6257  -14.3885   17.8917 N   0  0  0  0  0  0  0  0  0  0  0  0
   15.6528  -15.0533   18.4111 C   0  0  0  0  0  0  0  0  0  0  0  0
   15.3591  -15.4044   19.6921 N   0  0  0  0  0  0  0  0  0  0  0  0
   11.9136  -16.6805   22.4930 C   0  0  0  0  0  0  0  0  0  0  0  0
   12.5613  -16.9397   23.6948 O   0  0  0  0  0  0  0  0  0  0  0  0
   10.6579  -16.6765   22.5150 O   0  0  0  0  0  0  0  0  0  0  0  0
  2  1  1  0
  3  2  2  0
  4  3  1  0
  5 11  1  0
  5  4  2  0
  6  5  1  0
  7  6  1  0
  7  8  1  6
  9 10  2  0
  9  7  1  0
 11 12  2  0
 12  2  1  0
 13  9  1  0
 14 13  1  0
 14 15  1  6
 16 15  1  0
 16 17  2  0
 18 14  1  0
 19 18  2  0
 20 16  1  0
 21 18  1  0
 22 21  1  0
 23 24  1  0
 22 23  1  1
 24 25  2  0
 26 25  1  0
 27 26  1  0
 28 27  2  0
 28 24  1  0
 29 22  1  0
 29 30  1  0
 31 29  2  0
M  END
$$$$
