YDH.pdb
     RDKit          3D

 31 32  0  0  1  0  0  0  0  0999 V2000
    8.6529  -12.3589   17.9543 O   0  0  0  0  0  0  0  0  0  0  0  0
    8.1794  -13.0125   19.0752 C   0  0  0  0  0  0  0  0  0  0  0  0
    7.2338  -14.0068   18.9824 C   0  0  0  0  0  0  0  0  0  0  0  0
    6.7866  -14.6367   20.1284 C   0  0  0  0  0  0  0  0  0  0  0  0
    7.2825  -14.2738   21.3531 C   0  0  0  0  0  0  0  0  0  0  0  0
    6.8043  -14.9521   22.5673 C   0  0  0  0  0  0  0  0  0  0  0  0
    6.9926  -16.4263   22.4347 C   0  0  2  0  0  0  0  0  0  0  0  0
    5.7407  -17.0826   22.2120 N   0  0  0  0  0  0  0  0  0  0  0  0
    7.7009  -17.0279   23.6011 C   0  0  0  0  0  0  0  0  0  0  0  0
    6.9485  -17.4806   24.5180 O   0  0  0  0  0  0  0  0  0  0  0  0
    8.2226  -13.2834   21.4312 C   0  0  0  0  0  0  0  0  0  0  0  0
    8.6863  -12.6376   20.3007 C   0  0  0  0  0  0  0  0  0  0  0  0
    9.0954  -17.0999   23.7010 N   0  0  0  0  0  0  0  0  0  0  0  0
    9.6962  -17.7170   24.8708 C   0  0  1  0  0  0  0  0  0  0  0  0
   10.8032  -18.6397   24.4142 C   0  0  0  0  0  0  0  0  0  0  0  0
   11.4182  -19.3774   25.5192 C   0  0  0  0  0  0  0  0  0  0  0  0
   10.7421  -19.6696   26.5261 O   0  0  0  0  0  0  0  0  0  0  0  0
   10.2755  -16.6107   25.7151 C   0  0  0  0  0  0  0  0  0  0  0  0
   11.2727  -15.9478   25.3489 O   0  0  0  0  0  0  0  0  0  0  0  0
   12.7408  -19.7513   25.4533 O   0  0  0  0  0  0  0  0  0  0  0  0
    9.6534  -16.3442   26.9382 N   0  0  0  0  0  0  0  0  0  0  0  0
   10.1291  -15.3360   27.8827 C   0  0  1  0  0  0  0  0  0  0  0  0
    8.8851  -14.7030   28.4806 C   0  0  0  0  0  0  0  0  0  0  0  0
    8.1430  -14.0353   27.3835 C   0  0  0  0  0  0  0  0  0  0  0  0
    8.5219  -13.9214   26.0551 C   0  0  0  0  0  0  0  0  0  0  0  0
    7.5878  -13.2519   25.3621 N   0  0  0  0  0  0  0  0  0  0  0  0
    6.6245  -12.9381   26.2226 C   0  0  0  0  0  0  0  0  0  0  0  0
    6.9523  -13.4101   27.4555 N   0  0  0  0  0  0  0  0  0  0  0  0
   10.9365  -16.0290   28.9045 C   0  0  0  0  0  0  0  0  0  0  0  0
   11.1407  -17.4035   28.9045 O   0  0  0  0  0  0  0  0  0  0  0  0
   11.4775  -15.3754   29.8304 O   0  0  0  0  0  0  0  0  0  0  0  0
  2  1  1  0
  3  2  2  0
  4  3  1  0
  5 11  1  0
  5  4  2  0
  6  5  1  0
  7  6  1  0
  7  8  1  1
  9 10  2  0
  9  7  1  0
 11 12  2  0
 12  2  1  0
 13  9  1  0
 14 13  1  0
 14 15  1  6
 16 15  1  0
 16 17  2  0
 18 14  1  0
 19 18  2  0
 20 16  1  0
 21 18  1  0
 22 21  1  0
 23 24  1  0
 22 23  1  1
 24 25  2  0
 26 25  1  0
 27 26  1  0
 28 27  2  0
 28 24  1  0
 29 22  1  0
 29 30  1  0
 31 29  2  0
M  END
$$$$
