YDH.pdb
     RDKit          3D

 31 32  0  0  1  0  0  0  0  0999 V2000
    6.7615  -11.9975   17.7831 O   0  0  0  0  0  0  0  0  0  0  0  0
    7.1685  -12.6964   18.9028 C   0  0  0  0  0  0  0  0  0  0  0  0
    6.2877  -13.4570   19.6356 C   0  0  0  0  0  0  0  0  0  0  0  0
    6.7354  -14.1417   20.7495 C   0  0  0  0  0  0  0  0  0  0  0  0
    8.0512  -14.0647   21.1238 C   0  0  0  0  0  0  0  0  0  0  0  0
    8.5202  -14.7999   22.3081 C   0  0  0  0  0  0  0  0  0  0  0  0
    9.1509  -16.0866   21.8920 C   0  0  2  0  0  0  0  0  0  0  0  0
    8.1768  -16.9763   21.3379 N   0  0  0  0  0  0  0  0  0  0  0  0
    9.8995  -16.7501   22.9980 C   0  0  0  0  0  0  0  0  0  0  0  0
    9.2290  -17.5814   23.6845 O   0  0  0  0  0  0  0  0  0  0  0  0
    8.9167  -13.3047   20.3861 C   0  0  0  0  0  0  0  0  0  0  0  0
    8.4946  -12.6101   19.2683 C   0  0  0  0  0  0  0  0  0  0  0  0
   11.2463  -16.4916   23.2790 N   0  0  0  0  0  0  0  0  0  0  0  0
   11.9046  -17.2200   24.3497 C   0  0  1  0  0  0  0  0  0  0  0  0
   13.3999  -17.1261   24.1481 C   0  0  0  0  0  0  0  0  0  0  0  0
   14.1559  -17.8627   25.1628 C   0  0  0  0  0  0  0  0  0  0  0  0
   13.6987  -18.9245   25.6320 O   0  0  0  0  0  0  0  0  0  0  0  0
   11.5259  -16.5521   25.6469 C   0  0  0  0  0  0  0  0  0  0  0  0
   11.3917  -15.3107   25.7409 O   0  0  0  0  0  0  0  0  0  0  0  0
   15.3708  -17.3897   25.6027 O   0  0  0  0  0  0  0  0  0  0  0  0
   11.3255  -17.3762   26.7581 N   0  0  0  0  0  0  0  0  0  0  0  0
   10.7791  -16.9008   28.0271 C   0  0  1  0  0  0  0  0  0  0  0  0
    9.2730  -16.8492   27.8409 C   0  0  0  0  0  0  0  0  0  0  0  0
    8.9084  -15.4603   27.4692 C   0  0  0  0  0  0  0  0  0  0  0  0
    9.7495  -14.3623   27.3780 C   0  0  0  0  0  0  0  0  0  0  0  0
    9.0546  -13.2752   27.0089 N   0  0  0  0  0  0  0  0  0  0  0  0
    7.7905  -13.6598   26.8644 C   0  0  0  0  0  0  0  0  0  0  0  0
    7.6905  -14.9877   27.1421 N   0  0  0  0  0  0  0  0  0  0  0  0
   11.1695  -17.8682   29.0701 C   0  0  0  0  0  0  0  0  0  0  0  0
   11.8577  -19.0433   28.7939 O   0  0  0  0  0  0  0  0  0  0  0  0
   10.8814  -17.6491   30.2727 O   0  0  0  0  0  0  0  0  0  0  0  0
  2  1  1  0
  3  2  2  0
  4  3  1  0
  5 11  1  0
  5  4  2  0
  6  5  1  0
  7  6  1  0
  7  8  1  1
  9 10  2  0
  9  7  1  0
 11 12  2  0
 12  2  1  0
 13  9  1  0
 14 13  1  0
 14 15  1  6
 16 15  1  0
 16 17  2  0
 18 14  1  0
 19 18  2  0
 20 16  1  0
 21 18  1  0
 22 21  1  0
 23 24  1  0
 22 23  1  6
 24 25  2  0
 26 25  1  0
 27 26  1  0
 28 27  2  0
 28 24  1  0
 29 22  1  0
 29 30  1  0
 31 29  2  0
M  END
$$$$
