YDH.pdb
     RDKit          3D

 31 32  0  0  1  0  0  0  0  0999 V2000
    9.0553  -12.1448   19.9651 O   0  0  0  0  0  0  0  0  0  0  0  0
    8.3106  -13.0941   20.6375 C   0  0  0  0  0  0  0  0  0  0  0  0
    8.4768  -13.3171   21.9843 C   0  0  0  0  0  0  0  0  0  0  0  0
    7.7110  -14.2761   22.6200 C   0  0  0  0  0  0  0  0  0  0  0  0
    6.7891  -15.0025   21.9131 C   0  0  0  0  0  0  0  0  0  0  0  0
    5.9753  -16.0182   22.5981 C   0  0  0  0  0  0  0  0  0  0  0  0
    6.3917  -17.3832   22.1621 C   0  0  2  0  0  0  0  0  0  0  0  0
    5.4925  -18.3759   22.6656 N   0  0  0  0  0  0  0  0  0  0  0  0
    7.7976  -17.7086   22.5383 C   0  0  0  0  0  0  0  0  0  0  0  0
    7.9546  -18.1529   23.7173 O   0  0  0  0  0  0  0  0  0  0  0  0
    6.6339  -14.7706   20.5740 C   0  0  0  0  0  0  0  0  0  0  0  0
    7.3871  -13.8178   19.9145 C   0  0  0  0  0  0  0  0  0  0  0  0
    8.8840  -17.5446   21.6708 N   0  0  0  0  0  0  0  0  0  0  0  0
   10.2243  -17.8509   22.1396 C   0  0  1  0  0  0  0  0  0  0  0  0
   11.1839  -17.7129   20.9797 C   0  0  0  0  0  0  0  0  0  0  0  0
   12.5746  -17.9660   21.3613 C   0  0  0  0  0  0  0  0  0  0  0  0
   12.8482  -18.9110   22.1286 O   0  0  0  0  0  0  0  0  0  0  0  0
   10.5696  -16.8418   23.2048 C   0  0  0  0  0  0  0  0  0  0  0  0
   10.7242  -15.6269   22.9443 O   0  0  0  0  0  0  0  0  0  0  0  0
   13.5840  -17.1659   20.8773 O   0  0  0  0  0  0  0  0  0  0  0  0
   10.7130  -17.3135   24.5129 N   0  0  0  0  0  0  0  0  0  0  0  0
   10.8657  -16.4392   25.6736 C   0  0  1  0  0  0  0  0  0  0  0  0
    9.4907  -15.8521   25.9388 C   0  0  0  0  0  0  0  0  0  0  0  0
    9.5794  -15.0234   27.1659 C   0  0  0  0  0  0  0  0  0  0  0  0
    9.8597  -15.4504   28.4544 C   0  0  0  0  0  0  0  0  0  0  0  0
    9.8572  -14.4078   29.2993 N   0  0  0  0  0  0  0  0  0  0  0  0
    9.5808  -13.3285   28.5745 C   0  0  0  0  0  0  0  0  0  0  0  0
    9.4100  -13.6918   27.2749 N   0  0  0  0  0  0  0  0  0  0  0  0
   11.3326  -17.2710   26.7989 C   0  0  0  0  0  0  0  0  0  0  0  0
   12.0201  -16.7528   27.8897 O   0  0  0  0  0  0  0  0  0  0  0  0
   11.1149  -18.5078   26.8015 O   0  0  0  0  0  0  0  0  0  0  0  0
  2  1  1  0
  3  2  2  0
  4  3  1  0
  5 11  1  0
  5  4  2  0
  6  5  1  0
  7  6  1  0
  7  8  1  1
  9 10  2  0
  9  7  1  0
 11 12  2  0
 12  2  1  0
 13  9  1  0
 14 13  1  0
 14 15  1  6
 16 15  1  0
 16 17  2  0
 18 14  1  0
 19 18  2  0
 20 16  1  0
 21 18  1  0
 22 21  1  0
 23 24  1  0
 22 23  1  1
 24 25  2  0
 26 25  1  0
 27 26  1  0
 28 27  2  0
 28 24  1  0
 29 22  1  0
 29 30  1  0
 31 29  2  0
M  END
$$$$
