YDH.pdb
     RDKit          3D

 31 32  0  0  1  0  0  0  0  0999 V2000
    6.3770  -12.0526   16.2129 O   0  0  0  0  0  0  0  0  0  0  0  0
    7.0590  -12.7696   17.1765 C   0  0  0  0  0  0  0  0  0  0  0  0
    6.6710  -14.0386   17.5380 C   0  0  0  0  0  0  0  0  0  0  0  0
    7.3809  -14.7228   18.5065 C   0  0  0  0  0  0  0  0  0  0  0  0
    8.4675  -14.1411   19.1051 C   0  0  0  0  0  0  0  0  0  0  0  0
    9.2200  -14.8777   20.1319 C   0  0  0  0  0  0  0  0  0  0  0  0
   10.3970  -15.5545   19.5131 C   0  0  2  0  0  0  0  0  0  0  0  0
    9.9859  -16.4302   18.4588 N   0  0  0  0  0  0  0  0  0  0  0  0
   11.2344  -16.2858   20.5070 C   0  0  0  0  0  0  0  0  0  0  0  0
   10.8348  -17.4556   20.7968 O   0  0  0  0  0  0  0  0  0  0  0  0
    8.8427  -12.8785   18.7362 C   0  0  0  0  0  0  0  0  0  0  0  0
    8.1498  -12.1728   17.7708 C   0  0  0  0  0  0  0  0  0  0  0  0
   12.3839  -15.7426   21.0929 N   0  0  0  0  0  0  0  0  0  0  0  0
   13.1227  -16.5217   22.0713 C   0  0  1  0  0  0  0  0  0  0  0  0
   14.5997  -16.3876   21.7786 C   0  0  0  0  0  0  0  0  0  0  0  0
   14.8660  -15.8030   20.4629 C   0  0  0  0  0  0  0  0  0  0  0  0
   15.3330  -14.6493   20.3765 O   0  0  0  0  0  0  0  0  0  0  0  0
   12.8210  -15.9408   23.4292 C   0  0  0  0  0  0  0  0  0  0  0  0
   13.3741  -14.8964   23.8430 O   0  0  0  0  0  0  0  0  0  0  0  0
   14.6038  -16.5206   19.3185 O   0  0  0  0  0  0  0  0  0  0  0  0
   11.8891  -16.6156   24.2230 N   0  0  0  0  0  0  0  0  0  0  0  0
   11.9131  -18.0598   24.4442 C   0  0  1  0  0  0  0  0  0  0  0  0
   12.7072  -18.6464   23.2906 C   0  0  0  0  0  0  0  0  0  0  0  0
   12.5330  -20.1192   23.3215 C   0  0  0  0  0  0  0  0  0  0  0  0
   11.7543  -20.8589   24.1977 C   0  0  0  0  0  0  0  0  0  0  0  0
   11.8471  -22.1664   23.9099 N   0  0  0  0  0  0  0  0  0  0  0  0
   12.6684  -22.2721   22.8702 C   0  0  0  0  0  0  0  0  0  0  0  0
   13.0916  -21.0322   22.5042 N   0  0  0  0  0  0  0  0  0  0  0  0
   12.5724  -18.3004   25.7417 C   0  0  0  0  0  0  0  0  0  0  0  0
   13.9384  -18.1386   25.9389 O   0  0  0  0  0  0  0  0  0  0  0  0
   11.8963  -18.6695   26.7336 O   0  0  0  0  0  0  0  0  0  0  0  0
  2  1  1  0
  3  2  2  0
  4  3  1  0
  5 11  1  0
  5  4  2  0
  6  5  1  0
  7  6  1  0
  7  8  1  6
  9 10  2  0
  9  7  1  0
 11 12  2  0
 12  2  1  0
 13  9  1  0
 14 13  1  0
 14 15  1  6
 16 15  1  0
 16 17  2  0
 18 14  1  0
 19 18  2  0
 20 16  1  0
 21 18  1  0
 22 21  1  0
 23 24  1  0
 22 23  1  6
 24 25  2  0
 26 25  1  0
 27 26  1  0
 28 27  2  0
 28 24  1  0
 29 22  1  0
 29 30  1  0
 31 29  2  0
M  END
$$$$
