YDH.pdb
     RDKit          3D

 31 32  0  0  1  0  0  0  0  0999 V2000
    7.7721  -11.7249   17.5499 O   0  0  0  0  0  0  0  0  0  0  0  0
    8.1100  -12.5810   18.5798 C   0  0  0  0  0  0  0  0  0  0  0  0
    9.4175  -12.7597   18.9670 C   0  0  0  0  0  0  0  0  0  0  0  0
    9.7134  -13.6253   20.0030 C   0  0  0  0  0  0  0  0  0  0  0  0
    8.7096  -14.3034   20.6433 C   0  0  0  0  0  0  0  0  0  0  0  0
    9.0329  -15.2195   21.7476 C   0  0  0  0  0  0  0  0  0  0  0  0
    9.7167  -16.4350   21.2171 C   0  0  2  0  0  0  0  0  0  0  0  0
    8.8377  -17.1891   20.3768 N   0  0  0  0  0  0  0  0  0  0  0  0
   10.2834  -17.2979   22.2933 C   0  0  0  0  0  0  0  0  0  0  0  0
    9.4503  -18.0633   22.8698 O   0  0  0  0  0  0  0  0  0  0  0  0
    7.4136  -14.1164   20.2482 C   0  0  0  0  0  0  0  0  0  0  0  0
    7.0908  -13.2569   19.2151 C   0  0  0  0  0  0  0  0  0  0  0  0
   11.6342  -17.2833   22.6602 N   0  0  0  0  0  0  0  0  0  0  0  0
   12.0794  -18.0986   23.7770 C   0  0  1  0  0  0  0  0  0  0  0  0
   13.5888  -18.0451   23.8413 C   0  0  0  0  0  0  0  0  0  0  0  0
   14.1459  -18.9527   24.8461 C   0  0  0  0  0  0  0  0  0  0  0  0
   15.2220  -18.6718   25.4114 O   0  0  0  0  0  0  0  0  0  0  0  0
   11.4978  -17.4985   25.0316 C   0  0  0  0  0  0  0  0  0  0  0  0
   11.7024  -16.3063   25.3547 O   0  0  0  0  0  0  0  0  0  0  0  0
   13.4876  -20.1163   25.1715 O   0  0  0  0  0  0  0  0  0  0  0  0
   10.7101  -18.3287   25.8343 N   0  0  0  0  0  0  0  0  0  0  0  0
   10.1592  -17.9179   27.1237 C   0  0  1  0  0  0  0  0  0  0  0  0
    8.6693  -18.2017   27.0514 C   0  0  0  0  0  0  0  0  0  0  0  0
    8.0443  -17.1411   26.2239 C   0  0  0  0  0  0  0  0  0  0  0  0
    8.6365  -15.9806   25.7508 C   0  0  0  0  0  0  0  0  0  0  0  0
    7.7537  -15.2688   25.0331 N   0  0  0  0  0  0  0  0  0  0  0  0
    6.6140  -15.9526   25.0413 C   0  0  0  0  0  0  0  0  0  0  0  0
    6.7797  -17.0935   25.7631 N   0  0  0  0  0  0  0  0  0  0  0  0
   10.8205  -18.7238   28.1674 C   0  0  0  0  0  0  0  0  0  0  0  0
   11.6628  -19.7910   27.8803 O   0  0  0  0  0  0  0  0  0  0  0  0
   10.6343  -18.4590   29.3808 O   0  0  0  0  0  0  0  0  0  0  0  0
  2  1  1  0
  3  2  2  0
  4  3  1  0
  5 11  1  0
  5  4  2  0
  6  5  1  0
  7  6  1  0
  7  8  1  1
  9 10  2  0
  9  7  1  0
 11 12  2  0
 12  2  1  0
 13  9  1  0
 14 13  1  0
 14 15  1  1
 16 15  1  0
 16 17  2  0
 18 14  1  0
 19 18  2  0
 20 16  1  0
 21 18  1  0
 22 21  1  0
 23 24  1  0
 22 23  1  6
 24 25  2  0
 26 25  1  0
 27 26  1  0
 28 27  2  0
 28 24  1  0
 29 22  1  0
 29 30  1  0
 31 29  2  0
M  END
$$$$
