VPS.pdb
     RDKit          3D

 21 21  0  0  1  0  0  0  0  0999 V2000
   21.0183  -21.6642  -11.3335 C   0  0  0  0  0  0  0  0  0  0  0  0
   21.9751  -20.8245  -12.1687 C   0  0  2  0  0  0  0  0  0  0  0  0
   22.0723  -21.5051  -13.5155 C   0  0  0  0  0  0  0  0  0  0  0  0
   23.3437  -20.7525  -11.4673 C   0  0  2  0  0  0  0  0  0  0  0  0
   23.1203  -20.2894  -10.1747 N   0  0  0  0  0  0  0  0  0  0  0  0
   24.3436  -20.0822  -12.2929 C   0  0  0  0  0  0  0  0  0  0  0  0
   24.1040  -18.8817  -12.6038 O   0  0  0  0  0  0  0  0  0  0  0  0
   25.5682  -20.6710  -12.7763 N   0  0  0  0  0  0  0  0  0  0  0  0
   26.0458  -21.9996  -12.5432 C   0  0  0  0  0  0  0  0  0  0  0  0
   27.0375  -22.2672  -13.6417 C   0  0  0  0  0  0  0  0  0  0  0  0
   27.7349  -20.8973  -13.6922 C   0  0  0  0  0  0  0  0  0  0  0  0
   26.5412  -19.9781  -13.5904 C   0  0  1  0  0  0  0  0  0  0  0  0
   26.0100  -19.5970  -14.9152 C   0  0  0  0  0  0  0  0  0  0  0  0
   25.1141  -20.3294  -15.4155 O   0  0  0  0  0  0  0  0  0  0  0  0
   27.4183  -16.3307  -16.7821 O   0  0  0  0  0  0  0  0  0  0  0  0
   26.1147  -16.6413  -17.1690 C   0  0  0  0  0  0  0  0  0  0  0  0
   25.8651  -18.1333  -16.9714 C   0  0  2  0  0  0  0  0  0  0  0  0
   26.4153  -18.4765  -15.6826 N   0  0  0  0  0  0  0  0  0  0  0  0
   26.5478  -18.8325  -18.0846 C   0  0  0  0  0  0  0  0  0  0  0  0
   26.0331  -18.6278  -19.3584 O   0  0  0  0  0  0  0  0  0  0  0  0
   27.5488  -19.5823  -17.9128 O   0  0  0  0  0  0  0  0  0  0  0  0
  2  3  1  6
  2  1  1  0
  4  2  1  0
  4  5  1  1
  6  8  1  0
  6  4  1  0
  7  6  2  0
  8 12  1  0
  9 10  1  0
  9  8  1  0
 10 11  1  0
 11 12  1  0
 12 13  1  6
 13 18  1  0
 14 13  2  0
 16 15  1  0
 17 19  1  0
 17 16  1  6
 18 17  1  0
 19 20  1  0
 21 19  2  0
M  END
$$$$
