VPS.pdb
     RDKit          3D

 21 21  0  0  1  0  0  0  0  0999 V2000
   11.7123  -11.2439  -11.3124 C   0  0  0  0  0  0  0  0  0  0  0  0
   12.4527  -11.6749  -12.5709 C   0  0  2  0  0  0  0  0  0  0  0  0
   11.5474  -12.6558  -13.2813 C   0  0  0  0  0  0  0  0  0  0  0  0
   13.7964  -12.3186  -12.1830 C   0  0  2  0  0  0  0  0  0  0  0  0
   13.5078  -13.5102  -11.5257 N   0  0  0  0  0  0  0  0  0  0  0  0
   14.6941  -11.3611  -11.5441 C   0  0  0  0  0  0  0  0  0  0  0  0
   14.5490  -11.1967  -10.3003 O   0  0  0  0  0  0  0  0  0  0  0  0
   15.7211  -10.5971  -12.2086 N   0  0  0  0  0  0  0  0  0  0  0  0
   16.0691  -10.6297  -13.5962 C   0  0  0  0  0  0  0  0  0  0  0  0
   16.7898   -9.3362  -13.8590 C   0  0  0  0  0  0  0  0  0  0  0  0
   17.6260   -9.2463  -12.5713 C   0  0  0  0  0  0  0  0  0  0  0  0
   16.5956   -9.6558  -11.5462 C   0  0  1  0  0  0  0  0  0  0  0  0
   15.8691   -8.4982  -10.9854 C   0  0  0  0  0  0  0  0  0  0  0  0
   14.8772   -8.0650  -11.6318 O   0  0  0  0  0  0  0  0  0  0  0  0
   14.8857   -5.6534   -7.1983 O   0  0  0  0  0  0  0  0  0  0  0  0
   15.5737   -6.7323   -7.7534 C   0  0  0  0  0  0  0  0  0  0  0  0
   15.4592   -6.6831   -9.2739 C   0  0  2  0  0  0  0  0  0  0  0  0
   16.1840   -7.8238   -9.7792 N   0  0  0  0  0  0  0  0  0  0  0  0
   16.0526   -5.3966   -9.7064 C   0  0  0  0  0  0  0  0  0  0  0  0
   15.2577   -4.2658   -9.5680 O   0  0  0  0  0  0  0  0  0  0  0  0
   17.2190   -5.3037  -10.1801 O   0  0  0  0  0  0  0  0  0  0  0  0
  2  3  1  1
  2  1  1  0
  4  2  1  0
  4  5  1  1
  6  8  1  0
  6  4  1  0
  7  6  2  0
  8 12  1  0
  9 10  1  0
  9  8  1  0
 10 11  1  0
 11 12  1  0
 12 13  1  6
 13 18  1  0
 14 13  2  0
 16 15  1  0
 17 19  1  0
 17 16  1  1
 18 17  1  0
 19 20  1  0
 21 19  2  0
M  END
$$$$
