VPS.pdb
     RDKit          3D

 21 21  0  0  1  0  0  0  0  0999 V2000
   23.3518  -13.1856  -20.6650 C   0  0  0  0  0  0  0  0  0  0  0  0
   23.2077  -12.1057  -19.6015 C   0  0  2  0  0  0  0  0  0  0  0  0
   23.9680  -10.9026  -20.1123 C   0  0  0  0  0  0  0  0  0  0  0  0
   23.7812  -12.6171  -18.2674 C   0  0  2  0  0  0  0  0  0  0  0  0
   23.1611  -13.8313  -17.9908 N   0  0  0  0  0  0  0  0  0  0  0  0
   23.7840  -11.5778  -17.2423 C   0  0  0  0  0  0  0  0  0  0  0  0
   22.6546  -11.1622  -16.8589 O   0  0  0  0  0  0  0  0  0  0  0  0
   24.9564  -10.9941  -16.6385 N   0  0  0  0  0  0  0  0  0  0  0  0
   26.3252  -11.2870  -16.9354 C   0  0  0  0  0  0  0  0  0  0  0  0
   27.1045  -10.0969  -16.4474 C   0  0  0  0  0  0  0  0  0  0  0  0
   26.3530   -9.8240  -15.1335 C   0  0  0  0  0  0  0  0  0  0  0  0
   24.9251   -9.9956  -15.5936 C   0  0  1  0  0  0  0  0  0  0  0  0
   24.3202   -8.7230  -16.0375 C   0  0  0  0  0  0  0  0  0  0  0  0
   24.4993   -8.3811  -17.2376 O   0  0  0  0  0  0  0  0  0  0  0  0
   20.9620   -5.3282  -15.3813 O   0  0  0  0  0  0  0  0  0  0  0  0
   21.6529   -6.4440  -14.9090 C   0  0  0  0  0  0  0  0  0  0  0  0
   22.9302   -6.6352  -15.7211 C   0  0  2  0  0  0  0  0  0  0  0  0
   23.5509   -7.8436  -15.2353 N   0  0  0  0  0  0  0  0  0  0  0  0
   23.7673   -5.4350  -15.4909 C   0  0  0  0  0  0  0  0  0  0  0  0
   23.3818   -4.2714  -16.1445 O   0  0  0  0  0  0  0  0  0  0  0  0
   24.7848   -5.4411  -14.7438 O   0  0  0  0  0  0  0  0  0  0  0  0
  2  3  1  6
  2  1  1  0
  4  2  1  0
  4  5  1  1
  6  8  1  0
  6  4  1  0
  7  6  2  0
  8 12  1  0
  9 10  1  0
  9  8  1  0
 10 11  1  0
 11 12  1  0
 12 13  1  6
 13 18  1  0
 14 13  2  0
 16 15  1  0
 17 19  1  0
 17 16  1  1
 18 17  1  0
 19 20  1  0
 21 19  2  0
M  END
$$$$
