VPS.pdb
     RDKit          3D

 21 21  0  0  1  0  0  0  0  0999 V2000
   16.7775  -11.0960  -18.7042 C   0  0  0  0  0  0  0  0  0  0  0  0
   17.3626  -10.0779  -17.7351 C   0  0  2  0  0  0  0  0  0  0  0  0
   18.2098   -9.1399  -18.5651 C   0  0  0  0  0  0  0  0  0  0  0  0
   18.1989  -10.8054  -16.6666 C   0  0  2  0  0  0  0  0  0  0  0  0
   17.3690  -11.7447  -16.0630 N   0  0  0  0  0  0  0  0  0  0  0  0
   18.9353   -9.8699  -15.8221 C   0  0  0  0  0  0  0  0  0  0  0  0
   18.2440   -9.0554  -15.1484 O   0  0  0  0  0  0  0  0  0  0  0  0
   20.3702   -9.8007  -15.6949 N   0  0  0  0  0  0  0  0  0  0  0  0
   21.3399  -10.6584  -16.3044 C   0  0  0  0  0  0  0  0  0  0  0  0
   22.6274   -9.8813  -16.2903 C   0  0  0  0  0  0  0  0  0  0  0  0
   22.5229   -9.2440  -14.8944 C   0  0  0  0  0  0  0  0  0  0  0  0
   21.0723   -8.8246  -14.8924 C   0  0  1  0  0  0  0  0  0  0  0  0
   20.8856   -7.4428  -15.3806 C   0  0  0  0  0  0  0  0  0  0  0  0
   20.7945   -7.2732  -16.6264 O   0  0  0  0  0  0  0  0  0  0  0  0
   19.6110   -4.3792  -13.0887 O   0  0  0  0  0  0  0  0  0  0  0  0
   19.5759   -4.2399  -14.4760 C   0  0  0  0  0  0  0  0  0  0  0  0
   20.7883   -4.9334  -15.0898 C   0  0  2  0  0  0  0  0  0  0  0  0
   20.7977   -6.2808  -14.5739 N   0  0  0  0  0  0  0  0  0  0  0  0
   21.9803   -4.1582  -14.6746 C   0  0  0  0  0  0  0  0  0  0  0  0
   22.1046   -2.8776  -15.1983 O   0  0  0  0  0  0  0  0  0  0  0  0
   22.8546   -4.6137  -13.8862 O   0  0  0  0  0  0  0  0  0  0  0  0
  2  3  1  6
  2  1  1  0
  4  2  1  0
  4  5  1  1
  6  8  1  0
  6  4  1  0
  7  6  2  0
  8 12  1  0
  9 10  1  0
  9  8  1  0
 10 11  1  0
 11 12  1  0
 12 13  1  6
 13 18  1  0
 14 13  2  0
 16 15  1  0
 17 19  1  0
 17 16  1  1
 18 17  1  0
 19 20  1  0
 21 19  2  0
M  END
$$$$
