VPS.pdb
     RDKit          3D

 21 21  0  0  1  0  0  0  0  0999 V2000
   27.5035  -16.9916  -17.3911 C   0  0  0  0  0  0  0  0  0  0  0  0
   26.9447  -17.7491  -16.1945 C   0  0  2  0  0  0  0  0  0  0  0  0
   27.3293  -16.9508  -14.9692 C   0  0  0  0  0  0  0  0  0  0  0  0
   27.5407  -19.1683  -16.1594 C   0  0  2  0  0  0  0  0  0  0  0  0
   27.2907  -19.7509  -17.3976 N   0  0  0  0  0  0  0  0  0  0  0  0
   27.1559  -19.8903  -14.9504 C   0  0  0  0  0  0  0  0  0  0  0  0
   25.9585  -20.2872  -14.8889 O   0  0  0  0  0  0  0  0  0  0  0  0
   28.0206  -20.1844  -13.8343 N   0  0  0  0  0  0  0  0  0  0  0  0
   29.3923  -19.8096  -13.6742 C   0  0  0  0  0  0  0  0  0  0  0  0
   29.6588  -19.8872  -12.1962 C   0  0  0  0  0  0  0  0  0  0  0  0
   28.8782  -21.1704  -11.8653 C   0  0  0  0  0  0  0  0  0  0  0  0
   27.6208  -20.9414  -12.6695 C   0  0  1  0  0  0  0  0  0  0  0  0
   26.5659  -20.2677  -11.8847 C   0  0  0  0  0  0  0  0  0  0  0  0
   26.7129  -19.0384  -11.6471 O   0  0  0  0  0  0  0  0  0  0  0  0
   22.8799  -21.6267  -11.4210 O   0  0  0  0  0  0  0  0  0  0  0  0
   23.1205  -20.3573  -10.8955 C   0  0  0  0  0  0  0  0  0  0  0  0
   24.5481  -20.2878  -10.3619 C   0  0  2  0  0  0  0  0  0  0  0  0
   25.3946  -20.8777  -11.3703 N   0  0  0  0  0  0  0  0  0  0  0  0
   24.5669  -21.0467   -9.0899 C   0  0  0  0  0  0  0  0  0  0  0  0
   23.7913  -20.5444   -8.0528 O   0  0  0  0  0  0  0  0  0  0  0  0
   25.2444  -22.0996   -8.9292 O   0  0  0  0  0  0  0  0  0  0  0  0
  2  3  1  1
  2  1  1  0
  4  2  1  0
  4  5  1  6
  6  8  1  0
  6  4  1  0
  7  6  2  0
  8 12  1  0
  9 10  1  0
  9  8  1  0
 10 11  1  0
 11 12  1  0
 12 13  1  1
 13 18  1  0
 14 13  2  0
 16 15  1  0
 17 19  1  0
 17 16  1  6
 18 17  1  0
 19 20  1  0
 21 19  2  0
M  END
$$$$
