VPS.pdb
     RDKit          3D

 21 21  0  0  1  0  0  0  0  0999 V2000
   20.0498  -11.8444  -20.3531 C   0  0  0  0  0  0  0  0  0  0  0  0
   20.1375  -10.8644  -19.1912 C   0  0  2  0  0  0  0  0  0  0  0  0
   21.3391   -9.9881  -19.4647 C   0  0  0  0  0  0  0  0  0  0  0  0
   20.2891  -11.6427  -17.8715 C   0  0  2  0  0  0  0  0  0  0  0  0
   19.2319  -12.5441  -17.8010 N   0  0  0  0  0  0  0  0  0  0  0  0
   20.5331  -10.7530  -16.7402 C   0  0  0  0  0  0  0  0  0  0  0  0
   19.6732   -9.8503  -16.5382 O   0  0  0  0  0  0  0  0  0  0  0  0
   21.6616  -10.8199  -15.8447 N   0  0  0  0  0  0  0  0  0  0  0  0
   22.7185  -11.7846  -15.8477 C   0  0  0  0  0  0  0  0  0  0  0  0
   23.8550  -11.1361  -15.1064 C   0  0  0  0  0  0  0  0  0  0  0  0
   23.0639  -10.4527  -13.9783 C   0  0  0  0  0  0  0  0  0  0  0  0
   21.8986   -9.8945  -14.7598 C   0  0  1  0  0  0  0  0  0  0  0  0
   22.1448   -8.5154  -15.2288 C   0  0  0  0  0  0  0  0  0  0  0  0
   22.3127   -8.3429  -16.4663 O   0  0  0  0  0  0  0  0  0  0  0  0
   20.7474   -4.5045  -16.0765 O   0  0  0  0  0  0  0  0  0  0  0  0
   20.8121   -5.7821  -15.5208 C   0  0  0  0  0  0  0  0  0  0  0  0
   22.1950   -6.0070  -14.9170 C   0  0  2  0  0  0  0  0  0  0  0  0
   22.2099   -7.3586  -14.4124 N   0  0  0  0  0  0  0  0  0  0  0  0
   22.3628   -4.9990  -13.8447 C   0  0  0  0  0  0  0  0  0  0  0  0
   22.8957   -3.7723  -14.2202 O   0  0  0  0  0  0  0  0  0  0  0  0
   22.0461   -5.2169  -12.6423 O   0  0  0  0  0  0  0  0  0  0  0  0
  2  3  1  6
  2  1  1  0
  4  2  1  0
  4  5  1  1
  6  8  1  0
  6  4  1  0
  7  6  2  0
  8 12  1  0
  9 10  1  0
  9  8  1  0
 10 11  1  0
 11 12  1  0
 12 13  1  6
 13 18  1  0
 14 13  2  0
 16 15  1  0
 17 19  1  0
 17 16  1  1
 18 17  1  0
 19 20  1  0
 21 19  2  0
M  END
$$$$
