VPS.pdb
     RDKit          3D

 21 21  0  0  1  0  0  0  0  0999 V2000
   18.4581  -11.8620  -19.1748 C   0  0  0  0  0  0  0  0  0  0  0  0
   18.8765  -10.8638  -18.1041 C   0  0  2  0  0  0  0  0  0  0  0  0
   19.9468   -9.9963  -18.7274 C   0  0  0  0  0  0  0  0  0  0  0  0
   19.4040  -11.6212  -16.8718 C   0  0  2  0  0  0  0  0  0  0  0  0
   18.4116  -12.5144  -16.4813 N   0  0  0  0  0  0  0  0  0  0  0  0
   19.9676  -10.7147  -15.8760 C   0  0  0  0  0  0  0  0  0  0  0  0
   19.1666   -9.8975  -15.3413 O   0  0  0  0  0  0  0  0  0  0  0  0
   21.3471  -10.6765  -15.4574 N   0  0  0  0  0  0  0  0  0  0  0  0
   22.4095  -11.5354  -15.8833 C   0  0  0  0  0  0  0  0  0  0  0  0
   23.6770  -10.7838  -15.5832 C   0  0  0  0  0  0  0  0  0  0  0  0
   23.2984  -10.1838  -14.2187 C   0  0  0  0  0  0  0  0  0  0  0  0
   21.8835   -9.7368  -14.4988 C   0  0  1  0  0  0  0  0  0  0  0  0
   21.8183   -8.3387  -14.9715 C   0  0  0  0  0  0  0  0  0  0  0  0
   22.0183   -8.1293  -16.1985 O   0  0  0  0  0  0  0  0  0  0  0  0
   19.4009   -5.5913  -13.7973 O   0  0  0  0  0  0  0  0  0  0  0  0
   20.1867   -5.4055  -14.9346 C   0  0  0  0  0  0  0  0  0  0  0  0
   21.6196   -5.8400  -14.6418 C   0  0  2  0  0  0  0  0  0  0  0  0
   21.5494   -7.2015  -14.1695 N   0  0  0  0  0  0  0  0  0  0  0  0
   22.1478   -4.9101  -13.6169 C   0  0  0  0  0  0  0  0  0  0  0  0
   22.3438   -3.5929  -14.0121 O   0  0  0  0  0  0  0  0  0  0  0  0
   22.4148   -5.2696  -12.4366 O   0  0  0  0  0  0  0  0  0  0  0  0
  2  3  1  6
  2  1  1  0
  4  2  1  0
  4  5  1  1
  6  8  1  0
  6  4  1  0
  7  6  2  0
  8 12  1  0
  9 10  1  0
  9  8  1  0
 10 11  1  0
 11 12  1  0
 12 13  1  6
 13 18  1  0
 14 13  2  0
 16 15  1  0
 17 19  1  0
 17 16  1  1
 18 17  1  0
 19 20  1  0
 21 19  2  0
M  END
$$$$
