VPS.pdb
     RDKit          3D

 21 21  0  0  1  0  0  0  0  0999 V2000
   18.3257  -10.3571  -17.2710 C   0  0  0  0  0  0  0  0  0  0  0  0
   18.2432   -9.0338  -16.5225 C   0  0  2  0  0  0  0  0  0  0  0  0
   18.7037   -7.9684  -17.4916 C   0  0  0  0  0  0  0  0  0  0  0  0
   19.1401   -9.0924  -15.2725 C   0  0  2  0  0  0  0  0  0  0  0  0
   18.7817  -10.2330  -14.5613 N   0  0  0  0  0  0  0  0  0  0  0  0
   19.1843   -7.8114  -14.5740 C   0  0  0  0  0  0  0  0  0  0  0  0
   18.0942   -7.3965  -14.0895 O   0  0  0  0  0  0  0  0  0  0  0  0
   20.3566   -6.9910  -14.3934 N   0  0  0  0  0  0  0  0  0  0  0  0
   21.6893   -7.2690  -14.8342 C   0  0  0  0  0  0  0  0  0  0  0  0
   22.3855   -5.9365  -14.8701 C   0  0  0  0  0  0  0  0  0  0  0  0
   21.8158   -5.3186  -13.5820 C   0  0  0  0  0  0  0  0  0  0  0  0
   20.3654   -5.7208  -13.7032 C   0  0  1  0  0  0  0  0  0  0  0  0
   19.5519   -4.6939  -14.3859 C   0  0  0  0  0  0  0  0  0  0  0  0
   19.5237   -4.7169  -15.6460 O   0  0  0  0  0  0  0  0  0  0  0  0
   16.1425   -1.2519  -14.1256 O   0  0  0  0  0  0  0  0  0  0  0  0
   16.9693   -2.1722  -13.4815 C   0  0  0  0  0  0  0  0  0  0  0  0
   18.0272   -2.6786  -14.4572 C   0  0  2  0  0  0  0  0  0  0  0  0
   18.7935   -3.6777  -13.7528 N   0  0  0  0  0  0  0  0  0  0  0  0
   18.8450   -1.5070  -14.8478 C   0  0  0  0  0  0  0  0  0  0  0  0
   18.3246   -0.6866  -15.8407 O   0  0  0  0  0  0  0  0  0  0  0  0
   19.9619   -1.2436  -14.3217 O   0  0  0  0  0  0  0  0  0  0  0  0
  2  3  1  6
  2  1  1  0
  4  2  1  0
  4  5  1  1
  6  8  1  0
  6  4  1  0
  7  6  2  0
  8 12  1  0
  9 10  1  0
  9  8  1  0
 10 11  1  0
 11 12  1  0
 12 13  1  6
 13 18  1  0
 14 13  2  0
 16 15  1  0
 17 19  1  0
 17 16  1  1
 18 17  1  0
 19 20  1  0
 21 19  2  0
M  END
$$$$
