VPS.pdb
     RDKit          3D

 21 21  0  0  1  0  0  0  0  0999 V2000
   14.0712  -22.0266    4.7413 C   0  0  0  0  0  0  0  0  0  0  0  0
   13.9751  -21.4690    3.3279 C   0  0  2  0  0  0  0  0  0  0  0  0
   13.1005  -22.4277    2.5518 C   0  0  0  0  0  0  0  0  0  0  0  0
   15.3852  -21.3644    2.7186 C   0  0  2  0  0  0  0  0  0  0  0  0
   15.8226  -22.6608    2.4674 N   0  0  0  0  0  0  0  0  0  0  0  0
   16.2441  -20.4671    3.4855 C   0  0  0  0  0  0  0  0  0  0  0  0
   16.9919  -21.0054    4.3494 O   0  0  0  0  0  0  0  0  0  0  0  0
   16.3084  -19.0339    3.3390 N   0  0  0  0  0  0  0  0  0  0  0  0
   15.6888  -18.2342    2.3270 C   0  0  0  0  0  0  0  0  0  0  0  0
   15.6219  -16.8450    2.8992 C   0  0  0  0  0  0  0  0  0  0  0  0
   16.9980  -16.7868    3.5836 C   0  0  0  0  0  0  0  0  0  0  0  0
   17.0464  -18.1558    4.2189 C   0  0  1  0  0  0  0  0  0  0  0  0
   16.5189  -18.1547    5.5988 C   0  0  0  0  0  0  0  0  0  0  0  0
   15.2937  -18.4082    5.7536 O   0  0  0  0  0  0  0  0  0  0  0  0
   18.2248  -19.5835    8.7610 O   0  0  0  0  0  0  0  0  0  0  0  0
   17.8202  -18.2820    9.0571 C   0  0  0  0  0  0  0  0  0  0  0  0
   16.7051  -17.8644    8.1033 C   0  0  2  0  0  0  0  0  0  0  0  0
   17.2663  -17.8940    6.7744 N   0  0  0  0  0  0  0  0  0  0  0  0
   16.2808  -16.5047    8.5101 C   0  0  0  0  0  0  0  0  0  0  0  0
   15.6133  -16.3970    9.7235 O   0  0  0  0  0  0  0  0  0  0  0  0
   16.5017  -15.4785    7.8089 O   0  0  0  0  0  0  0  0  0  0  0  0
  2  3  1  6
  2  1  1  0
  4  2  1  0
  4  5  1  1
  6  8  1  0
  6  4  1  0
  7  6  2  0
  8 12  1  0
  9 10  1  0
  9  8  1  0
 10 11  1  0
 11 12  1  0
 12 13  1  1
 13 18  1  0
 14 13  2  0
 16 15  1  0
 17 19  1  0
 17 16  1  1
 18 17  1  0
 19 20  1  0
 21 19  2  0
M  END
$$$$
