VPS.pdb
     RDKit          3D

 21 21  0  0  1  0  0  0  0  0999 V2000
   14.7471   -8.9325  -12.7204 C   0  0  0  0  0  0  0  0  0  0  0  0
   16.0570   -8.1804  -12.5297 C   0  0  2  0  0  0  0  0  0  0  0  0
   16.4116   -7.5964  -13.8786 C   0  0  0  0  0  0  0  0  0  0  0  0
   17.1404   -9.1522  -12.0275 C   0  0  2  0  0  0  0  0  0  0  0  0
   16.7159   -9.6422  -10.7967 N   0  0  0  0  0  0  0  0  0  0  0  0
   18.4782   -8.5778  -12.1338 C   0  0  0  0  0  0  0  0  0  0  0  0
   18.7717   -7.6763  -11.2993 O   0  0  0  0  0  0  0  0  0  0  0  0
   19.4802   -8.9511  -13.1015 N   0  0  0  0  0  0  0  0  0  0  0  0
   19.4514  -10.0663  -13.9976 C   0  0  0  0  0  0  0  0  0  0  0  0
   20.4162   -9.7209  -15.0982 C   0  0  0  0  0  0  0  0  0  0  0  0
   21.5353   -9.0786  -14.2613 C   0  0  0  0  0  0  0  0  0  0  0  0
   20.7181   -8.2349  -13.3123 C   0  0  1  0  0  0  0  0  0  0  0  0
   20.5055   -6.8637  -13.8193 C   0  0  0  0  0  0  0  0  0  0  0  0
   19.4922   -6.6608  -14.5412 O   0  0  0  0  0  0  0  0  0  0  0  0
   22.0301   -2.2293  -14.0004 O   0  0  0  0  0  0  0  0  0  0  0  0
   22.2506   -3.5464  -13.5981 C   0  0  0  0  0  0  0  0  0  0  0  0
   21.1485   -4.4420  -14.1557 C   0  0  2  0  0  0  0  0  0  0  0  0
   21.3396   -5.7457  -13.5679 N   0  0  0  0  0  0  0  0  0  0  0  0
   21.3107   -4.4538  -15.6280 C   0  0  0  0  0  0  0  0  0  0  0  0
   20.5100   -3.5782  -16.3504 O   0  0  0  0  0  0  0  0  0  0  0  0
   22.1275   -5.2109  -16.2223 O   0  0  0  0  0  0  0  0  0  0  0  0
  2  3  1  6
  2  1  1  0
  4  2  1  0
  4  5  1  1
  6  8  1  0
  6  4  1  0
  7  6  2  0
  8 12  1  0
  9 10  1  0
  9  8  1  0
 10 11  1  0
 11 12  1  0
 12 13  1  6
 13 18  1  0
 14 13  2  0
 16 15  1  0
 17 19  1  0
 17 16  1  1
 18 17  1  0
 19 20  1  0
 21 19  2  0
M  END
$$$$
