VPS.pdb
     RDKit          3D

 21 21  0  0  1  0  0  0  0  0999 V2000
   17.8106  -11.7694  -18.9980 C   0  0  0  0  0  0  0  0  0  0  0  0
   18.2604  -10.8353  -17.8830 C   0  0  2  0  0  0  0  0  0  0  0  0
   19.1709   -9.8138  -18.5264 C   0  0  0  0  0  0  0  0  0  0  0  0
   18.9913  -11.6449  -16.7964 C   0  0  2  0  0  0  0  0  0  0  0  0
   18.1269  -12.6533  -16.3826 N   0  0  0  0  0  0  0  0  0  0  0  0
   19.5983  -10.7799  -15.7893 C   0  0  0  0  0  0  0  0  0  0  0  0
   18.8087  -10.0605  -15.1154 O   0  0  0  0  0  0  0  0  0  0  0  0
   21.0085  -10.6812  -15.5039 N   0  0  0  0  0  0  0  0  0  0  0  0
   22.0597  -11.5052  -16.0172 C   0  0  0  0  0  0  0  0  0  0  0  0
   23.3186  -10.6999  -15.8485 C   0  0  0  0  0  0  0  0  0  0  0  0
   23.0463  -10.0922  -14.4622 C   0  0  0  0  0  0  0  0  0  0  0  0
   21.5944   -9.7053  -14.6128 C   0  0  1  0  0  0  0  0  0  0  0  0
   21.4288   -8.3189  -15.0954 C   0  0  0  0  0  0  0  0  0  0  0  0
   21.4365   -8.1320  -16.3421 O   0  0  0  0  0  0  0  0  0  0  0  0
   19.6843   -3.9671  -14.8423 O   0  0  0  0  0  0  0  0  0  0  0  0
   19.8094   -5.2867  -14.4083 C   0  0  0  0  0  0  0  0  0  0  0  0
   21.1867   -5.8211  -14.7891 C   0  0  2  0  0  0  0  0  0  0  0  0
   21.2601   -7.1701  -14.2827 N   0  0  0  0  0  0  0  0  0  0  0  0
   22.1830   -4.9236  -14.1598 C   0  0  0  0  0  0  0  0  0  0  0  0
   22.5416   -3.7897  -14.8776 O   0  0  0  0  0  0  0  0  0  0  0  0
   22.6962   -5.1533  -13.0296 O   0  0  0  0  0  0  0  0  0  0  0  0
  2  3  1  6
  2  1  1  0
  4  2  1  0
  4  5  1  1
  6  8  1  0
  6  4  1  0
  7  6  2  0
  8 12  1  0
  9 10  1  0
  9  8  1  0
 10 11  1  0
 11 12  1  0
 12 13  1  6
 13 18  1  0
 14 13  2  0
 16 15  1  0
 17 19  1  0
 17 16  1  1
 18 17  1  0
 19 20  1  0
 21 19  2  0
M  END
$$$$
