VPS.pdb
     RDKit          3D

 21 21  0  0  1  0  0  0  0  0999 V2000
   23.7941   -9.9467  -17.1054 C   0  0  0  0  0  0  0  0  0  0  0  0
   23.5409  -10.7885  -15.8624 C   0  0  2  0  0  0  0  0  0  0  0  0
   24.2123  -12.1209  -16.1079 C   0  0  0  0  0  0  0  0  0  0  0  0
   22.0246  -10.9463  -15.6473 C   0  0  2  0  0  0  0  0  0  0  0  0
   21.5476  -11.7677  -16.6637 N   0  0  0  0  0  0  0  0  0  0  0  0
   21.3714   -9.6617  -15.4146 C   0  0  0  0  0  0  0  0  0  0  0  0
   21.0871   -8.9809  -16.4397 O   0  0  0  0  0  0  0  0  0  0  0  0
   21.0279   -9.1132  -14.1258 N   0  0  0  0  0  0  0  0  0  0  0  0
   21.1848   -9.7342  -12.8462 C   0  0  0  0  0  0  0  0  0  0  0  0
   21.1803   -8.6071  -11.8506 C   0  0  0  0  0  0  0  0  0  0  0  0
   20.0717   -7.7338  -12.4621 C   0  0  0  0  0  0  0  0  0  0  0  0
   20.4397   -7.8081  -13.9248 C   0  0  1  0  0  0  0  0  0  0  0  0
   21.3360   -6.7080  -14.3360 C   0  0  0  0  0  0  0  0  0  0  0  0
   22.4025   -7.0184  -14.9322 O   0  0  0  0  0  0  0  0  0  0  0  0
   21.6889   -4.9858  -17.3120 O   0  0  0  0  0  0  0  0  0  0  0  0
   20.7788   -4.5504  -16.3490 C   0  0  0  0  0  0  0  0  0  0  0  0
   21.5111   -4.2854  -15.0371 C   0  0  2  0  0  0  0  0  0  0  0  0
   21.1078   -5.3256  -14.1223 N   0  0  0  0  0  0  0  0  0  0  0  0
   21.0987   -2.9376  -14.5816 C   0  0  0  0  0  0  0  0  0  0  0  0
   21.9874   -1.8982  -14.8255 O   0  0  0  0  0  0  0  0  0  0  0  0
   20.0011   -2.7163  -13.9987 O   0  0  0  0  0  0  0  0  0  0  0  0
  2  3  1  6
  2  1  1  0
  4  2  1  0
  4  5  1  6
  6  8  1  0
  6  4  1  0
  7  6  2  0
  8 12  1  0
  9 10  1  0
  9  8  1  0
 10 11  1  0
 11 12  1  0
 12 13  1  1
 13 18  1  0
 14 13  2  0
 16 15  1  0
 17 19  1  0
 17 16  1  6
 18 17  1  0
 19 20  1  0
 21 19  2  0
M  END
$$$$
