VPS.pdb
     RDKit          3D

 21 21  0  0  1  0  0  0  0  0999 V2000
   34.2930   -7.5779  -18.8915 C   0  0  0  0  0  0  0  0  0  0  0  0
   34.2875   -9.0867  -18.6876 C   0  0  2  0  0  0  0  0  0  0  0  0
   33.8020   -9.6889  -19.9869 C   0  0  0  0  0  0  0  0  0  0  0  0
   33.3592   -9.4442  -17.5126 C   0  0  2  0  0  0  0  0  0  0  0  0
   32.0573   -9.1669  -17.9169 N   0  0  0  0  0  0  0  0  0  0  0  0
   33.8389   -8.8874  -16.2513 C   0  0  0  0  0  0  0  0  0  0  0  0
   33.3529   -7.7738  -15.9065 O   0  0  0  0  0  0  0  0  0  0  0  0
   34.8100   -9.4976  -15.3769 N   0  0  0  0  0  0  0  0  0  0  0  0
   35.4393  -10.7733  -15.5315 C   0  0  0  0  0  0  0  0  0  0  0  0
   36.6884  -10.7076  -14.6965 C   0  0  0  0  0  0  0  0  0  0  0  0
   36.1368   -9.9529  -13.4751 C   0  0  0  0  0  0  0  0  0  0  0  0
   35.3045   -8.8951  -14.1595 C   0  0  1  0  0  0  0  0  0  0  0  0
   36.0648   -7.6525  -14.4050 C   0  0  0  0  0  0  0  0  0  0  0  0
   36.6580   -7.5423  -15.5119 O   0  0  0  0  0  0  0  0  0  0  0  0
   37.4089   -3.2193  -12.8849 O   0  0  0  0  0  0  0  0  0  0  0  0
   36.6504   -4.3739  -12.6930 C   0  0  0  0  0  0  0  0  0  0  0  0
   37.0442   -5.4218  -13.7295 C   0  0  2  0  0  0  0  0  0  0  0  0
   36.1909   -6.5636  -13.5065 N   0  0  0  0  0  0  0  0  0  0  0  0
   38.4754   -5.7301  -13.5040 C   0  0  0  0  0  0  0  0  0  0  0  0
   39.3974   -4.8582  -14.0691 O   0  0  0  0  0  0  0  0  0  0  0  0
   38.8654   -6.7278  -12.8362 O   0  0  0  0  0  0  0  0  0  0  0  0
  2  3  1  6
  2  1  1  0
  4  2  1  0
  4  5  1  6
  6  8  1  0
  6  4  1  0
  7  6  2  0
  8 12  1  0
  9 10  1  0
  9  8  1  0
 10 11  1  0
 11 12  1  0
 12 13  1  6
 13 18  1  0
 14 13  2  0
 16 15  1  0
 17 19  1  0
 17 16  1  1
 18 17  1  0
 19 20  1  0
 21 19  2  0
M  END
$$$$
