VPS.pdb
     RDKit          3D

 21 21  0  0  1  0  0  0  0  0999 V2000
   17.8752  -11.0168  -16.2439 C   0  0  0  0  0  0  0  0  0  0  0  0
   18.5329  -11.4449  -17.5486 C   0  0  2  0  0  0  0  0  0  0  0  0
   17.6170  -12.4770  -18.1670 C   0  0  0  0  0  0  0  0  0  0  0  0
   19.9286  -12.0250  -17.2556 C   0  0  2  0  0  0  0  0  0  0  0  0
   19.7413  -13.2667  -16.6570 N   0  0  0  0  0  0  0  0  0  0  0  0
   20.7962  -11.0508  -16.6006 C   0  0  0  0  0  0  0  0  0  0  0  0
   20.6811  -10.9476  -15.3471 O   0  0  0  0  0  0  0  0  0  0  0  0
   21.7627  -10.2072  -17.2594 N   0  0  0  0  0  0  0  0  0  0  0  0
   22.1470  -10.2366  -18.6375 C   0  0  0  0  0  0  0  0  0  0  0  0
   22.7486   -8.8864  -18.9145 C   0  0  0  0  0  0  0  0  0  0  0  0
   23.5400   -8.6897  -17.6104 C   0  0  0  0  0  0  0  0  0  0  0  0
   22.5274   -9.1730  -16.5998 C   0  0  1  0  0  0  0  0  0  0  0  0
   21.6809   -8.0778  -16.0836 C   0  0  0  0  0  0  0  0  0  0  0  0
   20.6364   -7.7953  -16.7306 O   0  0  0  0  0  0  0  0  0  0  0  0
   21.0887   -7.1961  -12.3616 O   0  0  0  0  0  0  0  0  0  0  0  0
   20.2820   -6.6273  -13.3470 C   0  0  0  0  0  0  0  0  0  0  0  0
   21.1495   -6.1678  -14.5148 C   0  0  2  0  0  0  0  0  0  0  0  0
   21.9338   -7.3090  -14.9201 N   0  0  0  0  0  0  0  0  0  0  0  0
   21.9864   -5.0531  -14.0136 C   0  0  0  0  0  0  0  0  0  0  0  0
   23.3582   -5.2691  -13.9814 O   0  0  0  0  0  0  0  0  0  0  0  0
   21.5037   -3.9519  -13.6289 O   0  0  0  0  0  0  0  0  0  0  0  0
  2  3  1  1
  2  1  1  0
  4  2  1  0
  4  5  1  1
  6  8  1  0
  6  4  1  0
  7  6  2  0
  8 12  1  0
  9 10  1  0
  9  8  1  0
 10 11  1  0
 11 12  1  0
 12 13  1  6
 13 18  1  0
 14 13  2  0
 16 15  1  0
 17 19  1  0
 17 16  1  1
 18 17  1  0
 19 20  1  0
 21 19  2  0
M  END
$$$$
