VPS.pdb
     RDKit          3D

 21 21  0  0  1  0  0  0  0  0999 V2000
   24.0917  -12.5869  -20.4317 C   0  0  0  0  0  0  0  0  0  0  0  0
   25.5646  -12.7336  -20.0753 C   0  0  2  0  0  0  0  0  0  0  0  0
   26.1814  -13.5858  -21.1616 C   0  0  0  0  0  0  0  0  0  0  0  0
   25.6961  -13.3935  -18.6906 C   0  0  2  0  0  0  0  0  0  0  0  0
   25.2509  -14.7056  -18.8155 N   0  0  0  0  0  0  0  0  0  0  0  0
   25.1356  -12.5570  -17.6337 C   0  0  0  0  0  0  0  0  0  0  0  0
   23.9125  -12.7279  -17.3695 O   0  0  0  0  0  0  0  0  0  0  0  0
   25.8556  -11.5637  -16.8754 N   0  0  0  0  0  0  0  0  0  0  0  0
   27.2342  -11.2022  -17.0033 C   0  0  0  0  0  0  0  0  0  0  0  0
   27.3465   -9.8304  -16.3973 C   0  0  0  0  0  0  0  0  0  0  0  0
   26.4200  -10.0135  -15.1833 C   0  0  0  0  0  0  0  0  0  0  0  0
   25.2744  -10.7609  -15.8231 C   0  0  1  0  0  0  0  0  0  0  0  0
   24.2160   -9.8547  -16.3141 C   0  0  0  0  0  0  0  0  0  0  0  0
   24.4369   -9.2289  -17.3860 O   0  0  0  0  0  0  0  0  0  0  0  0
   20.5512   -9.7167  -14.5371 O   0  0  0  0  0  0  0  0  0  0  0  0
   20.6035   -9.4061  -15.8959 C   0  0  0  0  0  0  0  0  0  0  0  0
   21.9432   -8.7517  -16.2189 C   0  0  2  0  0  0  0  0  0  0  0  0
   22.9654   -9.6213  -15.6894 N   0  0  0  0  0  0  0  0  0  0  0  0
   21.9374   -7.4208  -15.5684 C   0  0  0  0  0  0  0  0  0  0  0  0
   22.8137   -7.2427  -14.5055 O   0  0  0  0  0  0  0  0  0  0  0  0
   21.1845   -6.4784  -15.9408 O   0  0  0  0  0  0  0  0  0  0  0  0
  2  3  1  6
  2  1  1  0
  4  2  1  0
  4  5  1  6
  6  8  1  0
  6  4  1  0
  7  6  2  0
  8 12  1  0
  9 10  1  0
  9  8  1  0
 10 11  1  0
 11 12  1  0
 12 13  1  6
 13 18  1  0
 14 13  2  0
 16 15  1  0
 17 19  1  0
 17 16  1  1
 18 17  1  0
 19 20  1  0
 21 19  2  0
M  END
$$$$
