VPS.pdb
     RDKit          3D

 21 21  0  0  1  0  0  0  0  0999 V2000
   10.8639   -8.9233  -11.2641 C   0  0  0  0  0  0  0  0  0  0  0  0
   11.7636  -10.1054  -11.5975 C   0  0  2  0  0  0  0  0  0  0  0  0
   10.8799  -11.1379  -12.2604 C   0  0  0  0  0  0  0  0  0  0  0  0
   12.4016  -10.6475  -10.3054 C   0  0  2  0  0  0  0  0  0  0  0  0
   11.3747  -11.1731   -9.5279 N   0  0  0  0  0  0  0  0  0  0  0  0
   13.3173   -9.6826   -9.7043 C   0  0  0  0  0  0  0  0  0  0  0  0
   12.8350   -8.9280   -8.8137 O   0  0  0  0  0  0  0  0  0  0  0  0
   14.7108   -9.5225  -10.0396 N   0  0  0  0  0  0  0  0  0  0  0  0
   15.4804  -10.3062  -10.9568 C   0  0  0  0  0  0  0  0  0  0  0  0
   16.6583   -9.4476  -11.3271 C   0  0  0  0  0  0  0  0  0  0  0  0
   16.9715   -8.8401   -9.9492 C   0  0  0  0  0  0  0  0  0  0  0  0
   15.5771   -8.5155   -9.4693 C   0  0  1  0  0  0  0  0  0  0  0  0
   15.1659   -7.1414   -9.8231 C   0  0  0  0  0  0  0  0  0  0  0  0
   14.6801   -6.9569  -10.9717 O   0  0  0  0  0  0  0  0  0  0  0  0
   15.8521   -3.9840   -7.3089 O   0  0  0  0  0  0  0  0  0  0  0  0
   14.7088   -3.8643   -8.0989 C   0  0  0  0  0  0  0  0  0  0  0  0
   14.8894   -4.6672   -9.3835 C   0  0  2  0  0  0  0  0  0  0  0  0
   15.2663   -6.0020   -8.9862 N   0  0  0  0  0  0  0  0  0  0  0  0
   15.9472   -3.9883  -10.1674 C   0  0  0  0  0  0  0  0  0  0  0  0
   15.6658   -2.7025  -10.6114 O   0  0  0  0  0  0  0  0  0  0  0  0
   17.0572   -4.5275  -10.4331 O   0  0  0  0  0  0  0  0  0  0  0  0
  2  3  1  1
  2  1  1  0
  4  2  1  0
  4  5  1  1
  6  8  1  0
  6  4  1  0
  7  6  2  0
  8 12  1  0
  9 10  1  0
  9  8  1  0
 10 11  1  0
 11 12  1  0
 12 13  1  6
 13 18  1  0
 14 13  2  0
 16 15  1  0
 17 19  1  0
 17 16  1  1
 18 17  1  0
 19 20  1  0
 21 19  2  0
M  END
$$$$
