HML.pdb
     RDKit          3D

 27 27  0  0  1  0  0  0  0  0999 V2000
   26.5072  -19.7318  -16.1678 N   0  0  0  0  0  0  0  0  0  0  0  0
   25.6639  -19.1179  -15.1912 C   0  0  1  0  0  0  0  0  0  0  0  0
   24.4877  -18.4529  -15.8819 C   0  0  0  0  0  0  0  0  0  0  0  0
   24.9429  -17.3989  -16.8168 C   0  0  0  0  0  0  0  0  0  0  0  0
   25.6279  -16.2642  -16.5062 C   0  0  0  0  0  0  0  0  0  0  0  0
   25.8251  -15.6165  -17.6669 N   0  0  0  0  0  0  0  0  0  0  0  0
   25.2810  -16.3206  -18.6825 C   0  0  0  0  0  0  0  0  0  0  0  0
   24.7362  -17.4250  -18.1419 N   0  0  0  0  0  0  0  0  0  0  0  0
   25.2271  -20.0361  -14.1185 C   0  0  0  0  0  0  0  0  0  0  0  0
   24.5336  -21.0243  -14.4149 O   0  0  0  0  0  0  0  0  0  0  0  0
   26.3404  -19.2599   -7.4658 C   0  0  0  0  0  0  0  0  0  0  0  0
   26.3587  -21.0637   -7.7736 S   0  0  0  0  0  0  0  0  0  0  0  0
   25.4471  -21.3546   -9.2974 C   0  0  0  0  0  0  0  0  0  0  0  0
   25.8520  -20.4310  -10.3980 C   0  0  0  0  0  0  0  0  0  0  0  0
   25.1234  -20.6346  -11.6789 C   0  0  2  0  0  0  0  0  0  0  0  0
   25.5816  -19.8127  -12.7584 N   0  0  0  0  0  0  0  0  0  0  0  0
   23.6453  -20.5693  -11.4888 C   0  0  0  0  0  0  0  0  0  0  0  0
   22.9874  -19.5002  -11.4450 O   0  0  0  0  0  0  0  0  0  0  0  0
   20.6004  -24.2548  -13.9425 C   0  0  0  0  0  0  0  0  0  0  0  0
   21.1360  -22.9913  -13.2897 C   0  0  1  0  0  0  0  0  0  0  0  0
   20.4148  -21.8476  -13.9926 C   0  0  0  0  0  0  0  0  0  0  0  0
   20.8655  -22.9782  -11.8123 C   0  0  0  0  0  0  0  0  0  0  0  0
   21.4846  -21.7594  -11.1911 C   0  0  2  0  0  0  0  0  0  0  0  0
   22.9341  -21.7811  -11.3502 N   0  0  0  0  0  0  0  0  0  0  0  0
   21.1943  -21.5706   -9.7805 C   0  0  0  0  0  0  0  0  0  0  0  0
   22.0536  -21.9591   -8.9115 O   0  0  0  0  0  0  0  0  0  0  0  0
   20.0570  -20.9995   -9.2571 O   0  0  0  0  0  0  0  0  0  0  0  0
  2  9  1  0
  2  3  1  0
  2  1  1  6
  3  4  1  0
  4  5  2  0
  4  8  1  0
  5  6  1  0
  6  7  1  0
  8  7  2  0
  9 10  2  0
 11 12  1  0
 13 12  1  0
 14 13  1  0
 15 14  1  1
 15 17  1  0
 16 15  1  0
 16  9  1  0
 17 24  1  0
 17 18  2  0
 20 19  1  6
 20 21  1  0
 22 20  1  0
 23 22  1  1
 24 23  1  0
 25 27  1  0
 25 23  1  0
 26 25  2  0
M  END
$$$$
