HML.pdb
     RDKit          3D

 27 27  0  0  1  0  0  0  0  0999 V2000
   16.3641  -10.8586  -17.3542 N   0  0  0  0  0  0  0  0  0  0  0  0
   17.4392  -10.0112  -17.7639 C   0  0  1  0  0  0  0  0  0  0  0  0
   16.9032   -8.9055  -18.6544 C   0  0  0  0  0  0  0  0  0  0  0  0
   16.4852   -9.4357  -19.9721 C   0  0  0  0  0  0  0  0  0  0  0  0
   17.0115   -9.1243  -21.1883 C   0  0  0  0  0  0  0  0  0  0  0  0
   16.3233   -9.8451  -22.0897 N   0  0  0  0  0  0  0  0  0  0  0  0
   15.3886  -10.5910  -21.4624 C   0  0  0  0  0  0  0  0  0  0  0  0
   15.4991  -10.3279  -20.1482 N   0  0  0  0  0  0  0  0  0  0  0  0
   18.2387   -9.4771  -16.6413 C   0  0  0  0  0  0  0  0  0  0  0  0
   17.6622   -9.1606  -15.5865 O   0  0  0  0  0  0  0  0  0  0  0  0
   22.7009   -9.2897  -11.2898 C   0  0  0  0  0  0  0  0  0  0  0  0
   21.6211   -9.7716  -12.6865 S   0  0  0  0  0  0  0  0  0  0  0  0
   22.4593   -9.2844  -14.2023 C   0  0  0  0  0  0  0  0  0  0  0  0
   21.6956   -9.6564  -15.4298 C   0  0  0  0  0  0  0  0  0  0  0  0
   20.4693   -8.8484  -15.6667 C   0  0  2  0  0  0  0  0  0  0  0  0
   19.6492   -9.3174  -16.7430 N   0  0  0  0  0  0  0  0  0  0  0  0
   20.7792   -7.3926  -15.7671 C   0  0  0  0  0  0  0  0  0  0  0  0
   21.2787   -6.8472  -16.7823 O   0  0  0  0  0  0  0  0  0  0  0  0
   17.4749   -3.4484  -15.5682 C   0  0  0  0  0  0  0  0  0  0  0  0
   18.7578   -4.2393  -15.7625 C   0  0  1  0  0  0  0  0  0  0  0  0
   19.5325   -3.4785  -16.8317 C   0  0  0  0  0  0  0  0  0  0  0  0
   19.5439   -4.3349  -14.4862 C   0  0  0  0  0  0  0  0  0  0  0  0
   20.7893   -5.1425  -14.7134 C   0  0  2  0  0  0  0  0  0  0  0  0
   20.4944   -6.5695  -14.6558 N   0  0  0  0  0  0  0  0  0  0  0  0
   21.8759   -4.8747  -13.7874 C   0  0  0  0  0  0  0  0  0  0  0  0
   22.0487   -5.6594  -12.7880 O   0  0  0  0  0  0  0  0  0  0  0  0
   22.7719   -3.8336  -13.8696 O   0  0  0  0  0  0  0  0  0  0  0  0
  2  9  1  0
  2  3  1  0
  2  1  1  1
  3  4  1  0
  4  5  2  0
  4  8  1  0
  5  6  1  0
  6  7  1  0
  8  7  2  0
  9 10  2  0
 11 12  1  0
 13 12  1  0
 14 13  1  0
 15 14  1  6
 15 17  1  0
 16 15  1  0
 16  9  1  0
 17 24  1  0
 17 18  2  0
 20 19  1  1
 20 21  1  0
 22 20  1  0
 23 22  1  1
 24 23  1  0
 25 27  1  0
 25 23  1  0
 26 25  2  0
M  END
$$$$
