HML.pdb
     RDKit          3D

 27 27  0  0  1  0  0  0  0  0999 V2000
   20.8114  -15.4339  -17.2136 N   0  0  0  0  0  0  0  0  0  0  0  0
   20.8749  -14.1172  -17.7652 C   0  0  1  0  0  0  0  0  0  0  0  0
   19.5563  -13.7847  -18.4388 C   0  0  0  0  0  0  0  0  0  0  0  0
   19.2917  -14.6963  -19.5750 C   0  0  0  0  0  0  0  0  0  0  0  0
   19.5440  -14.4632  -20.8923 C   0  0  0  0  0  0  0  0  0  0  0  0
   19.1460  -15.5651  -21.5504 N   0  0  0  0  0  0  0  0  0  0  0  0
   18.6561  -16.4693  -20.6753 C   0  0  0  0  0  0  0  0  0  0  0  0
   18.7519  -15.9182  -19.4523 N   0  0  0  0  0  0  0  0  0  0  0  0
   21.2733  -13.0806  -16.7899 C   0  0  0  0  0  0  0  0  0  0  0  0
   20.7797  -13.1032  -15.6492 O   0  0  0  0  0  0  0  0  0  0  0  0
   26.4612  -14.1934  -15.8001 C   0  0  0  0  0  0  0  0  0  0  0  0
   25.2319  -13.1657  -16.6843 S   0  0  0  0  0  0  0  0  0  0  0  0
   25.1096  -11.6022  -15.8022 C   0  0  0  0  0  0  0  0  0  0  0  0
   24.1004  -10.6791  -16.4003 C   0  0  0  0  0  0  0  0  0  0  0  0
   22.6852  -11.0879  -16.1929 C   0  0  2  0  0  0  0  0  0  0  0  0
   22.2060  -12.0604  -17.1285 N   0  0  0  0  0  0  0  0  0  0  0  0
   21.7822   -9.9067  -16.0722 C   0  0  0  0  0  0  0  0  0  0  0  0
   21.0486   -9.4833  -16.9998 O   0  0  0  0  0  0  0  0  0  0  0  0
   18.5569   -8.7840  -11.8241 C   0  0  0  0  0  0  0  0  0  0  0  0
   19.1532   -8.8162  -13.2215 C   0  0  1  0  0  0  0  0  0  0  0  0
   18.0286   -8.3565  -14.1413 C   0  0  0  0  0  0  0  0  0  0  0  0
   20.3483   -7.9130  -13.3307 C   0  0  0  0  0  0  0  0  0  0  0  0
   20.9363   -8.0093  -14.7091 C   0  0  2  0  0  0  0  0  0  0  0  0
   21.7429   -9.2171  -14.8408 N   0  0  0  0  0  0  0  0  0  0  0  0
   21.7569   -6.8800  -15.1102 C   0  0  0  0  0  0  0  0  0  0  0  0
   23.0301   -7.0238  -15.1617 O   0  0  0  0  0  0  0  0  0  0  0  0
   21.2998   -5.6283  -15.4536 O   0  0  0  0  0  0  0  0  0  0  0  0
  2  9  1  0
  2  3  1  0
  2  1  1  1
  3  4  1  0
  4  5  2  0
  4  8  1  0
  5  6  1  0
  6  7  1  0
  8  7  2  0
  9 10  2  0
 11 12  1  0
 13 12  1  0
 14 13  1  0
 15 14  1  6
 15 17  1  0
 16 15  1  0
 16  9  1  0
 17 24  1  0
 17 18  2  0
 20 19  1  1
 20 21  1  0
 22 20  1  0
 23 22  1  1
 24 23  1  0
 25 27  1  0
 25 23  1  0
 26 25  2  0
M  END
$$$$
