HML.pdb
     RDKit          3D

 27 27  0  0  1  0  0  0  0  0999 V2000
   27.9954  -21.2412  -16.3846 N   0  0  0  0  0  0  0  0  0  0  0  0
   27.4787  -20.3127  -15.4291 C   0  0  1  0  0  0  0  0  0  0  0  0
   26.7073  -19.2211  -16.1476 C   0  0  0  0  0  0  0  0  0  0  0  0
   27.5959  -18.4305  -17.0294 C   0  0  0  0  0  0  0  0  0  0  0  0
   28.6349  -17.6365  -16.6510 C   0  0  0  0  0  0  0  0  0  0  0  0
   29.1482  -17.1268  -17.7835 N   0  0  0  0  0  0  0  0  0  0  0  0
   28.4545  -17.5848  -18.8476 C   0  0  0  0  0  0  0  0  0  0  0  0
   27.4933  -18.3931  -18.3663 N   0  0  0  0  0  0  0  0  0  0  0  0
   26.6769  -20.9424  -14.3590 C   0  0  0  0  0  0  0  0  0  0  0  0
   25.8111  -21.7797  -14.6665 O   0  0  0  0  0  0  0  0  0  0  0  0
   24.9131  -21.2009   -6.6405 C   0  0  0  0  0  0  0  0  0  0  0  0
   25.9687  -20.3646   -7.8796 S   0  0  0  0  0  0  0  0  0  0  0  0
   25.4206  -20.9108   -9.5040 C   0  0  0  0  0  0  0  0  0  0  0  0
   26.3232  -20.4544  -10.6019 C   0  0  0  0  0  0  0  0  0  0  0  0
   25.9151  -20.8925  -11.9636 C   0  0  2  0  0  0  0  0  0  0  0  0
   26.8739  -20.6104  -12.9892 N   0  0  0  0  0  0  0  0  0  0  0  0
   24.5433  -20.4178  -12.3074 C   0  0  0  0  0  0  0  0  0  0  0  0
   24.2618  -19.2289  -12.5987 O   0  0  0  0  0  0  0  0  0  0  0  0
   22.4934  -20.3162  -15.6155 C   0  0  0  0  0  0  0  0  0  0  0  0
   21.2746  -20.9958  -15.0141 C   0  0  1  0  0  0  0  0  0  0  0  0
   20.7079  -21.8560  -16.1371 C   0  0  0  0  0  0  0  0  0  0  0  0
   21.6430  -21.8319  -13.8220 C   0  0  0  0  0  0  0  0  0  0  0  0
   22.1513  -20.9503  -12.7179 C   0  0  2  0  0  0  0  0  0  0  0  0
   23.4903  -21.3585  -12.3091 N   0  0  0  0  0  0  0  0  0  0  0  0
   21.3171  -20.9064  -11.5297 C   0  0  0  0  0  0  0  0  0  0  0  0
   21.5938  -21.6821  -10.5467 O   0  0  0  0  0  0  0  0  0  0  0  0
   20.2236  -20.0935  -11.3375 O   0  0  0  0  0  0  0  0  0  0  0  0
  2  9  1  0
  2  3  1  0
  2  1  1  6
  3  4  1  0
  4  5  2  0
  4  8  1  0
  5  6  1  0
  6  7  1  0
  8  7  2  0
  9 10  2  0
 11 12  1  0
 13 12  1  0
 14 13  1  0
 15 14  1  1
 15 17  1  0
 16 15  1  0
 16  9  1  0
 17 24  1  0
 17 18  2  0
 20 19  1  6
 20 21  1  0
 22 20  1  0
 23 22  1  6
 24 23  1  0
 25 27  1  0
 25 23  1  0
 26 25  2  0
M  END
$$$$
