HML.pdb
     RDKit          3D

 27 27  0  0  1  0  0  0  0  0999 V2000
   14.9098  -26.5818    0.0245 N   0  0  0  0  0  0  0  0  0  0  0  0
   15.1901  -26.1675    1.3630 C   0  0  1  0  0  0  0  0  0  0  0  0
   14.0411  -26.5683    2.2697 C   0  0  0  0  0  0  0  0  0  0  0  0
   12.7940  -25.8635    1.8956 C   0  0  0  0  0  0  0  0  0  0  0  0
   11.8122  -26.3134    1.0669 C   0  0  0  0  0  0  0  0  0  0  0  0
   10.8819  -25.3444    1.0281 N   0  0  0  0  0  0  0  0  0  0  0  0
   11.2637  -24.3114    1.8095 C   0  0  0  0  0  0  0  0  0  0  0  0
   12.4524  -24.6456    2.3424 N   0  0  0  0  0  0  0  0  0  0  0  0
   16.4909  -26.6466    1.8757 C   0  0  0  0  0  0  0  0  0  0  0  0
   16.7522  -27.8606    1.8186 O   0  0  0  0  0  0  0  0  0  0  0  0
   23.0347  -25.0420    1.3254 C   0  0  0  0  0  0  0  0  0  0  0  0
   21.5716  -24.5688    0.3332 S   0  0  0  0  0  0  0  0  0  0  0  0
   20.1906  -25.5687    0.9082 C   0  0  0  0  0  0  0  0  0  0  0  0
   19.8635  -25.3302    2.3450 C   0  0  0  0  0  0  0  0  0  0  0  0
   18.7463  -26.1584    2.8732 C   0  0  2  0  0  0  0  0  0  0  0  0
   17.4464  -25.7506    2.4322 N   0  0  0  0  0  0  0  0  0  0  0  0
   18.8313  -26.3188    4.3539 C   0  0  0  0  0  0  0  0  0  0  0  0
   18.2861  -25.5441    5.1787 O   0  0  0  0  0  0  0  0  0  0  0  0
   18.4803  -31.2037    5.9243 C   0  0  0  0  0  0  0  0  0  0  0  0
   18.3499  -29.6960    6.0628 C   0  0  1  0  0  0  0  0  0  0  0  0
   17.1605  -29.4864    6.9921 C   0  0  0  0  0  0  0  0  0  0  0  0
   19.5986  -29.0856    6.6319 C   0  0  0  0  0  0  0  0  0  0  0  0
   19.6430  -27.6198    6.3089 C   0  0  2  0  0  0  0  0  0  0  0  0
   19.5677  -27.4083    4.8680 N   0  0  0  0  0  0  0  0  0  0  0  0
   20.8131  -26.9145    6.8018 C   0  0  0  0  0  0  0  0  0  0  0  0
   21.6243  -26.3903    5.9581 O   0  0  0  0  0  0  0  0  0  0  0  0
   21.1575  -26.7413    8.1227 O   0  0  0  0  0  0  0  0  0  0  0  0
  2  9  1  0
  2  3  1  0
  2  1  1  6
  3  4  1  0
  4  5  2  0
  4  8  1  0
  5  6  1  0
  6  7  1  0
  8  7  2  0
  9 10  2  0
 11 12  1  0
 13 12  1  0
 14 13  1  0
 15 14  1  1
 15 17  1  0
 16 15  1  0
 16  9  1  0
 17 24  1  0
 17 18  2  0
 20 19  1  1
 20 21  1  0
 22 20  1  0
 23 22  1  6
 24 23  1  0
 25 27  1  0
 25 23  1  0
 26 25  2  0
M  END
$$$$
