HML.pdb
     RDKit          3D

 27 27  0  0  1  0  0  0  0  0999 V2000
   20.1840  -12.7966  -18.5359 N   0  0  0  0  0  0  0  0  0  0  0  0
   21.0554  -11.7160  -18.8749 C   0  0  1  0  0  0  0  0  0  0  0  0
   20.3230  -10.7353  -19.7720 C   0  0  0  0  0  0  0  0  0  0  0  0
   19.9052  -11.3787  -21.0383 C   0  0  0  0  0  0  0  0  0  0  0  0
   20.6980  -11.7040  -22.0961 C   0  0  0  0  0  0  0  0  0  0  0  0
   19.8900  -12.2667  -23.0106 N   0  0  0  0  0  0  0  0  0  0  0  0
   18.6227  -12.2968  -22.5453 C   0  0  0  0  0  0  0  0  0  0  0  0
   18.6451  -11.7426  -21.3201 N   0  0  0  0  0  0  0  0  0  0  0  0
   21.6598  -11.0472  -17.7036 C   0  0  0  0  0  0  0  0  0  0  0  0
   20.9499  -10.8094  -16.7112 O   0  0  0  0  0  0  0  0  0  0  0  0
   27.5740  -11.9022  -15.7159 C   0  0  0  0  0  0  0  0  0  0  0  0
   27.3268  -10.3480  -14.7818 S   0  0  0  0  0  0  0  0  0  0  0  0
   25.6322   -9.8161  -15.0692 C   0  0  0  0  0  0  0  0  0  0  0  0
   25.0472  -10.3979  -16.3133 C   0  0  0  0  0  0  0  0  0  0  0  0
   23.6481   -9.9791  -16.5963 C   0  0  2  0  0  0  0  0  0  0  0  0
   23.0321  -10.6703  -17.6887 N   0  0  0  0  0  0  0  0  0  0  0  0
   23.5284   -8.4964  -16.7081 C   0  0  0  0  0  0  0  0  0  0  0  0
   23.9186   -7.8311  -17.6995 O   0  0  0  0  0  0  0  0  0  0  0  0
   22.0573   -3.9079  -17.5731 C   0  0  0  0  0  0  0  0  0  0  0  0
   21.0792   -4.7260  -16.7465 C   0  0  1  0  0  0  0  0  0  0  0  0
   19.7291   -4.5318  -17.4260 C   0  0  0  0  0  0  0  0  0  0  0  0
   21.4667   -6.1767  -16.7121 C   0  0  0  0  0  0  0  0  0  0  0  0
   22.6307   -6.3720  -15.7838 C   0  0  2  0  0  0  0  0  0  0  0  0
   22.9393   -7.7897  -15.6371 N   0  0  0  0  0  0  0  0  0  0  0  0
   22.4598   -5.8137  -14.4538 C   0  0  0  0  0  0  0  0  0  0  0  0
   22.0418   -6.5738  -13.5094 O   0  0  0  0  0  0  0  0  0  0  0  0
   22.7071   -4.5114  -14.0843 O   0  0  0  0  0  0  0  0  0  0  0  0
  2  9  1  0
  2  3  1  0
  2  1  1  1
  3  4  1  0
  4  5  2  0
  4  8  1  0
  5  6  1  0
  6  7  1  0
  8  7  2  0
  9 10  2  0
 11 12  1  0
 13 12  1  0
 14 13  1  0
 15 14  1  6
 15 17  1  0
 16 15  1  0
 16  9  1  0
 17 24  1  0
 17 18  2  0
 20 19  1  6
 20 21  1  0
 22 20  1  0
 23 22  1  6
 24 23  1  0
 25 27  1  0
 25 23  1  0
 26 25  2  0
M  END
$$$$
