HWP.pdb
     RDKit          3D

 32 35  0  0  1  0  0  0  0  0999 V2000
   27.6119  -20.3397  -18.5947 N   0  0  0  0  0  0  0  0  0  0  0  0
   26.7616  -19.4881  -17.7823 C   0  0  1  0  0  0  0  0  0  0  0  0
   25.5255  -19.0873  -18.5188 C   0  0  0  0  0  0  0  0  0  0  0  0
   25.8733  -18.1105  -19.5824 C   0  0  0  0  0  0  0  0  0  0  0  0
   25.7633  -18.3020  -20.9323 C   0  0  0  0  0  0  0  0  0  0  0  0
   26.1860  -17.1643  -21.5161 N   0  0  0  0  0  0  0  0  0  0  0  0
   26.5460  -16.2972  -20.5392 C   0  0  0  0  0  0  0  0  0  0  0  0
   26.3487  -16.8922  -19.3554 N   0  0  0  0  0  0  0  0  0  0  0  0
   26.3567  -20.2646  -16.5750 C   0  0  0  0  0  0  0  0  0  0  0  0
   25.9383  -21.4641  -16.6774 O   0  0  0  0  0  0  0  0  0  0  0  0
   26.4089  -19.7344  -15.2696 N   0  0  0  0  0  0  0  0  0  0  0  0
   26.0222  -20.5830  -14.1033 C   0  0  1  0  0  0  0  0  0  0  0  0
   26.8991  -20.0175  -13.0059 C   0  0  0  0  0  0  0  0  0  0  0  0
   26.9865  -20.7187  -11.7581 C   0  0  0  0  0  0  0  0  0  0  0  0
   27.4739  -21.9934  -11.4984 C   0  0  0  0  0  0  0  0  0  0  0  0
   27.3681  -22.2696  -10.1911 N   0  0  0  0  0  0  0  0  0  0  0  0
   26.8226  -21.2077   -9.5815 C   0  0  0  0  0  0  0  0  0  0  0  0
   26.4891  -20.9411   -8.2680 C   0  0  0  0  0  0  0  0  0  0  0  0
   25.9254  -19.7403   -7.8974 C   0  0  0  0  0  0  0  0  0  0  0  0
   25.6816  -18.7791   -8.8254 C   0  0  0  0  0  0  0  0  0  0  0  0
   26.0092  -19.0326  -10.1353 C   0  0  0  0  0  0  0  0  0  0  0  0
   26.5813  -20.2471  -10.5225 C   0  0  0  0  0  0  0  0  0  0  0  0
   24.5974  -20.1964  -13.8405 C   0  0  0  0  0  0  0  0  0  0  0  0
   24.3611  -18.9752  -13.6095 O   0  0  0  0  0  0  0  0  0  0  0  0
   23.6030  -21.1825  -13.8626 N   0  0  0  0  0  0  0  0  0  0  0  0
   23.6740  -22.3976  -14.7064 C   0  0  0  0  0  0  0  0  0  0  0  0
   23.0806  -23.4832  -13.8376 C   0  0  0  0  0  0  0  0  0  0  0  0
   22.4884  -22.7500  -12.6538 C   0  0  0  0  0  0  0  0  0  0  0  0
   22.3092  -21.3455  -13.2635 C   0  0  1  0  0  0  0  0  0  0  0  0
   21.8422  -20.3843  -12.3040 C   0  0  0  0  0  0  0  0  0  0  0  0
   20.4571  -20.0674  -12.3576 O   0  0  0  0  0  0  0  0  0  0  0  0
   22.4604  -19.7806  -11.4278 O   0  0  0  0  0  0  0  0  0  0  0  0
  2  1  1  6
  2  3  1  0
  3  4  1  0
  4  8  1  0
  5  4  2  0
  5  6  1  0
  6  7  1  0
  8  7  2  0
  9 10  2  0
  9  2  1  0
 11  9  1  0
 12 11  1  0
 12 13  1  1
 13 14  1  0
 14 15  2  0
 14 22  1  0
 15 16  1  0
 16 17  1  0
 17 18  2  0
 19 18  1  0
 20 19  2  0
 21 22  2  0
 21 20  1  0
 22 17  1  0
 23 12  1  0
 24 23  2  0
 25 29  1  0
 25 23  1  0
 26 25  1  0
 27 28  1  0
 27 26  1  0
 28 29  1  0
 29 30  1  1
 30 32  2  0
 30 31  1  0
M  END
$$$$
