HWP.pdb
     RDKit          3D

 32 35  0  0  1  0  0  0  0  0999 V2000
   12.8089  -20.5062    1.4605 N   0  0  0  0  0  0  0  0  0  0  0  0
   12.9469  -19.5312    2.5275 C   0  0  1  0  0  0  0  0  0  0  0  0
   12.0933  -19.8814    3.7021 C   0  0  0  0  0  0  0  0  0  0  0  0
   10.6613  -19.7084    3.3473 C   0  0  0  0  0  0  0  0  0  0  0  0
    9.7557  -20.7043    3.1048 C   0  0  0  0  0  0  0  0  0  0  0  0
    8.5865  -20.0984    2.8229 N   0  0  0  0  0  0  0  0  0  0  0  0
    8.7777  -18.7589    2.8928 C   0  0  0  0  0  0  0  0  0  0  0  0
   10.0579  -18.5334    3.2161 N   0  0  0  0  0  0  0  0  0  0  0  0
   14.3721  -19.5329    2.9668 C   0  0  0  0  0  0  0  0  0  0  0  0
   15.0306  -20.6208    3.0505 O   0  0  0  0  0  0  0  0  0  0  0  0
   15.0695  -18.3568    3.3109 N   0  0  0  0  0  0  0  0  0  0  0  0
   16.5110  -18.4289    3.6943 C   0  0  1  0  0  0  0  0  0  0  0  0
   17.1219  -17.3720    2.7984 C   0  0  0  0  0  0  0  0  0  0  0  0
   18.2026  -17.7394    1.9304 C   0  0  0  0  0  0  0  0  0  0  0  0
   18.3469  -18.8706    1.1368 C   0  0  0  0  0  0  0  0  0  0  0  0
   19.5157  -18.8277    0.4819 N   0  0  0  0  0  0  0  0  0  0  0  0
   20.1463  -17.6956    0.8242 C   0  0  0  0  0  0  0  0  0  0  0  0
   21.3600  -17.1442    0.4626 C   0  0  0  0  0  0  0  0  0  0  0  0
   21.7837  -15.9373    0.9732 C   0  0  0  0  0  0  0  0  0  0  0  0
   21.0091  -15.2530    1.8542 C   0  0  0  0  0  0  0  0  0  0  0  0
   19.7996  -15.7911    2.2214 C   0  0  0  0  0  0  0  0  0  0  0  0
   19.3599  -17.0147    1.7098 C   0  0  0  0  0  0  0  0  0  0  0  0
   16.5259  -17.9386    5.1113 C   0  0  0  0  0  0  0  0  0  0  0  0
   16.1906  -16.7354    5.3122 O   0  0  0  0  0  0  0  0  0  0  0  0
   16.9009  -18.8152    6.1374 N   0  0  0  0  0  0  0  0  0  0  0  0
   16.8397  -20.2900    6.0169 C   0  0  0  0  0  0  0  0  0  0  0  0
   18.0669  -20.7702    6.7579 C   0  0  0  0  0  0  0  0  0  0  0  0
   18.6020  -19.5397    7.4572 C   0  0  0  0  0  0  0  0  0  0  0  0
   17.3276  -18.6734    7.5002 C   0  0  1  0  0  0  0  0  0  0  0  0
   17.5698  -17.3641    8.0383 C   0  0  0  0  0  0  0  0  0  0  0  0
   17.5322  -17.2521    9.4553 O   0  0  0  0  0  0  0  0  0  0  0  0
   17.8086  -16.3052    7.4586 O   0  0  0  0  0  0  0  0  0  0  0  0
  2  1  1  6
  2  3  1  0
  3  4  1  0
  4  8  1  0
  5  4  2  0
  5  6  1  0
  6  7  1  0
  8  7  2  0
  9 10  2  0
  9  2  1  0
 11  9  1  0
 12 11  1  0
 12 13  1  6
 13 14  1  0
 14 15  2  0
 14 22  1  0
 15 16  1  0
 16 17  1  0
 17 18  2  0
 19 18  1  0
 20 19  2  0
 21 22  2  0
 21 20  1  0
 22 17  1  0
 23 12  1  0
 24 23  2  0
 25 29  1  0
 25 23  1  0
 26 25  1  0
 27 28  1  0
 27 26  1  0
 28 29  1  0
 29 30  1  6
 30 32  2  0
 30 31  1  0
M  END
$$$$
