HWP.pdb
     RDKit          3D

 32 35  0  0  1  0  0  0  0  0999 V2000
   24.8719  -15.2513  -16.0515 N   0  0  0  0  0  0  0  0  0  0  0  0
   24.1888  -16.5089  -15.8067 C   0  0  1  0  0  0  0  0  0  0  0  0
   23.9278  -17.2462  -17.0791 C   0  0  0  0  0  0  0  0  0  0  0  0
   22.9006  -16.5237  -17.8726 C   0  0  0  0  0  0  0  0  0  0  0  0
   21.5438  -16.6207  -17.7300 C   0  0  0  0  0  0  0  0  0  0  0  0
   21.0025  -15.7981  -18.6487 N   0  0  0  0  0  0  0  0  0  0  0  0
   22.0117  -15.2118  -19.3369 C   0  0  0  0  0  0  0  0  0  0  0  0
   23.1731  -15.6672  -18.8492 N   0  0  0  0  0  0  0  0  0  0  0  0
   25.0734  -17.3506  -14.9504 C   0  0  0  0  0  0  0  0  0  0  0  0
   26.3371  -17.3518  -15.1160 O   0  0  0  0  0  0  0  0  0  0  0  0
   24.5809  -18.1822  -13.9238 N   0  0  0  0  0  0  0  0  0  0  0  0
   25.5319  -18.9151  -13.0359 C   0  0  1  0  0  0  0  0  0  0  0  0
   24.6437  -19.2773  -11.8644 C   0  0  0  0  0  0  0  0  0  0  0  0
   25.1800  -20.0935  -10.8144 C   0  0  0  0  0  0  0  0  0  0  0  0
   25.1019  -21.4701  -10.6442 C   0  0  0  0  0  0  0  0  0  0  0  0
   25.7365  -21.8320   -9.5203 N   0  0  0  0  0  0  0  0  0  0  0  0
   26.2315  -20.7274   -8.9446 C   0  0  0  0  0  0  0  0  0  0  0  0
   26.9597  -20.5088   -7.7914 C   0  0  0  0  0  0  0  0  0  0  0  0
   27.3531  -19.2431   -7.4169 C   0  0  0  0  0  0  0  0  0  0  0  0
   27.0306  -18.1679   -8.1814 C   0  0  0  0  0  0  0  0  0  0  0  0
   26.3066  -18.3727   -9.3309 C   0  0  0  0  0  0  0  0  0  0  0  0
   25.9023  -19.6521   -9.7204 C   0  0  0  0  0  0  0  0  0  0  0  0
   25.8533  -20.1583  -13.8103 C   0  0  0  0  0  0  0  0  0  0  0  0
   24.8861  -20.7767  -14.3419 O   0  0  0  0  0  0  0  0  0  0  0  0
   27.1858  -20.5772  -13.9146 N   0  0  0  0  0  0  0  0  0  0  0  0
   28.3438  -19.7069  -13.6063 C   0  0  0  0  0  0  0  0  0  0  0  0
   29.3355  -20.6361  -12.9439 C   0  0  0  0  0  0  0  0  0  0  0  0
   28.7634  -22.0217  -13.1496 C   0  0  0  0  0  0  0  0  0  0  0  0
   27.8535  -21.7641  -14.3671 C   0  0  1  0  0  0  0  0  0  0  0  0
   27.0829  -22.9196  -14.7327 C   0  0  0  0  0  0  0  0  0  0  0  0
   27.3896  -23.5047  -15.9918 O   0  0  0  0  0  0  0  0  0  0  0  0
   26.1837  -23.4939  -14.1195 O   0  0  0  0  0  0  0  0  0  0  0  0
  2  1  1  6
  2  3  1  0
  3  4  1  0
  4  8  1  0
  5  4  2  0
  5  6  1  0
  6  7  1  0
  8  7  2  0
  9 10  2  0
  9  2  1  0
 11  9  1  0
 12 11  1  0
 12 13  1  1
 13 14  1  0
 14 15  2  0
 14 22  1  0
 15 16  1  0
 16 17  1  0
 17 18  2  0
 19 18  1  0
 20 19  2  0
 21 22  2  0
 21 20  1  0
 22 17  1  0
 23 12  1  0
 24 23  2  0
 25 29  1  0
 25 23  1  0
 26 25  1  0
 27 28  1  0
 27 26  1  0
 28 29  1  0
 29 30  1  1
 30 32  2  0
 30 31  1  0
M  END
$$$$
