HWP.pdb
     RDKit          3D

 32 35  0  0  1  0  0  0  0  0999 V2000
   21.3293  -20.2518  -11.6109 N   0  0  0  0  0  0  0  0  0  0  0  0
   21.9179  -20.1798  -12.9362 C   0  0  1  0  0  0  0  0  0  0  0  0
   21.3182  -19.0740  -13.7415 C   0  0  0  0  0  0  0  0  0  0  0  0
   20.4240  -19.6430  -14.7822 C   0  0  0  0  0  0  0  0  0  0  0  0
   19.0968  -19.9420  -14.6413 C   0  0  0  0  0  0  0  0  0  0  0  0
   18.6867  -20.4321  -15.8269 N   0  0  0  0  0  0  0  0  0  0  0  0
   19.7452  -20.4308  -16.6728 C   0  0  0  0  0  0  0  0  0  0  0  0
   20.8066  -19.9431  -16.0172 N   0  0  0  0  0  0  0  0  0  0  0  0
   23.3749  -19.9054  -12.7752 C   0  0  0  0  0  0  0  0  0  0  0  0
   23.7877  -18.7634  -12.3881 O   0  0  0  0  0  0  0  0  0  0  0  0
   24.3699  -20.8701  -13.0348 N   0  0  0  0  0  0  0  0  0  0  0  0
   25.7984  -20.5734  -12.7165 C   0  0  1  0  0  0  0  0  0  0  0  0
   26.0306  -21.4438  -11.4994 C   0  0  0  0  0  0  0  0  0  0  0  0
   25.8339  -20.8795  -10.1960 C   0  0  0  0  0  0  0  0  0  0  0  0
   24.6508  -20.5154   -9.5652 C   0  0  0  0  0  0  0  0  0  0  0  0
   24.9118  -20.0187   -8.3479 N   0  0  0  0  0  0  0  0  0  0  0  0
   26.2386  -20.0462   -8.1599 C   0  0  0  0  0  0  0  0  0  0  0  0
   27.0518  -19.6652   -7.1105 C   0  0  0  0  0  0  0  0  0  0  0  0
   28.4208  -19.8022   -7.1735 C   0  0  0  0  0  0  0  0  0  0  0  0
   29.0101  -20.3213   -8.2816 C   0  0  0  0  0  0  0  0  0  0  0  0
   28.2117  -20.7041   -9.3320 C   0  0  0  0  0  0  0  0  0  0  0  0
   26.8219  -20.5695   -9.2790 C   0  0  0  0  0  0  0  0  0  0  0  0
   26.5478  -21.1488  -13.8809 C   0  0  0  0  0  0  0  0  0  0  0  0
   26.5175  -22.4052  -14.0265 O   0  0  0  0  0  0  0  0  0  0  0  0
   27.2370  -20.2897  -14.7462 N   0  0  0  0  0  0  0  0  0  0  0  0
   27.0324  -18.8232  -14.7779 C   0  0  0  0  0  0  0  0  0  0  0  0
   28.4166  -18.2644  -15.0176 C   0  0  0  0  0  0  0  0  0  0  0  0
   29.2674  -19.4703  -15.3517 C   0  0  0  0  0  0  0  0  0  0  0  0
   28.1764  -20.4541  -15.8186 C   0  0  1  0  0  0  0  0  0  0  0  0
   28.7006  -21.7585  -16.1127 C   0  0  0  0  0  0  0  0  0  0  0  0
   28.9331  -22.0454  -17.4858 O   0  0  0  0  0  0  0  0  0  0  0  0
   28.9854  -22.6835  -15.3528 O   0  0  0  0  0  0  0  0  0  0  0  0
  2  1  1  1
  2  3  1  0
  3  4  1  0
  4  8  1  0
  5  4  2  0
  5  6  1  0
  6  7  1  0
  8  7  2  0
  9 10  2  0
  9  2  1  0
 11  9  1  0
 12 11  1  0
 12 13  1  1
 13 14  1  0
 14 15  2  0
 14 22  1  0
 15 16  1  0
 16 17  1  0
 17 18  2  0
 19 18  1  0
 20 19  2  0
 21 22  2  0
 21 20  1  0
 22 17  1  0
 23 12  1  0
 24 23  2  0
 25 29  1  0
 25 23  1  0
 26 25  1  0
 27 28  1  0
 27 26  1  0
 28 29  1  0
 29 30  1  1
 30 32  2  0
 30 31  1  0
M  END
$$$$
