HWP.pdb
     RDKit          3D

 32 35  0  0  1  0  0  0  0  0999 V2000
   21.3297  -20.2175  -11.9991 N   0  0  0  0  0  0  0  0  0  0  0  0
   22.2070  -21.0685  -12.7830 C   0  0  1  0  0  0  0  0  0  0  0  0
   21.7888  -21.1125  -14.2162 C   0  0  0  0  0  0  0  0  0  0  0  0
   20.4956  -21.8333  -14.3366 C   0  0  0  0  0  0  0  0  0  0  0  0
   20.2979  -23.1802  -14.2036 C   0  0  0  0  0  0  0  0  0  0  0  0
   18.9813  -23.3942  -14.3899 N   0  0  0  0  0  0  0  0  0  0  0  0
   18.3897  -22.1994  -14.6315 C   0  0  0  0  0  0  0  0  0  0  0  0
   19.3325  -21.2486  -14.5958 N   0  0  0  0  0  0  0  0  0  0  0  0
   23.5820  -20.4952  -12.7134 C   0  0  0  0  0  0  0  0  0  0  0  0
   23.7747  -19.2400  -12.8213 O   0  0  0  0  0  0  0  0  0  0  0  0
   24.7340  -21.2866  -12.5278 N   0  0  0  0  0  0  0  0  0  0  0  0
   26.0832  -20.6471  -12.5049 C   0  0  1  0  0  0  0  0  0  0  0  0
   26.7121  -21.2966  -11.2902 C   0  0  0  0  0  0  0  0  0  0  0  0
   26.4731  -20.7253   -9.9969 C   0  0  0  0  0  0  0  0  0  0  0  0
   25.2910  -20.2322   -9.4587 C   0  0  0  0  0  0  0  0  0  0  0  0
   25.5044  -19.7804   -8.2149 N   0  0  0  0  0  0  0  0  0  0  0  0
   26.7989  -19.9635   -7.9192 C   0  0  0  0  0  0  0  0  0  0  0  0
   27.5598  -19.6891   -6.7995 C   0  0  0  0  0  0  0  0  0  0  0  0
   28.9044  -19.9835   -6.7524 C   0  0  0  0  0  0  0  0  0  0  0  0
   29.5208  -20.5572   -7.8179 C   0  0  0  0  0  0  0  0  0  0  0  0
   28.7745  -20.8350   -8.9374 C   0  0  0  0  0  0  0  0  0  0  0  0
   27.4099  -20.5406   -8.9962 C   0  0  0  0  0  0  0  0  0  0  0  0
   26.7467  -21.1749  -13.7417 C   0  0  0  0  0  0  0  0  0  0  0  0
   26.9084  -22.4270  -13.8238 O   0  0  0  0  0  0  0  0  0  0  0  0
   27.1518  -20.2791  -14.7393 N   0  0  0  0  0  0  0  0  0  0  0  0
   26.6505  -18.8894  -14.8439 C   0  0  0  0  0  0  0  0  0  0  0  0
   27.8589  -18.0955  -15.2858 C   0  0  0  0  0  0  0  0  0  0  0  0
   28.8977  -19.1376  -15.6390 C   0  0  0  0  0  0  0  0  0  0  0  0
   27.9870  -20.3528  -15.9039 C   0  0  1  0  0  0  0  0  0  0  0  0
   28.7321  -21.5511  -16.1715 C   0  0  0  0  0  0  0  0  0  0  0  0
   28.5071  -22.1596  -17.4367 O   0  0  0  0  0  0  0  0  0  0  0  0
   29.5483  -22.1457  -15.4680 O   0  0  0  0  0  0  0  0  0  0  0  0
  2  1  1  1
  2  3  1  0
  3  4  1  0
  4  8  1  0
  5  4  2  0
  5  6  1  0
  6  7  1  0
  8  7  2  0
  9 10  2  0
  9  2  1  0
 11  9  1  0
 12 11  1  0
 12 13  1  1
 13 14  1  0
 14 15  2  0
 14 22  1  0
 15 16  1  0
 16 17  1  0
 17 18  2  0
 19 18  1  0
 20 19  2  0
 21 22  2  0
 21 20  1  0
 22 17  1  0
 23 12  1  0
 24 23  2  0
 25 29  1  0
 25 23  1  0
 26 25  1  0
 27 28  1  0
 27 26  1  0
 28 29  1  0
 29 30  1  1
 30 32  2  0
 30 31  1  0
M  END
$$$$
