HWP.pdb
     RDKit          3D

 32 35  0  0  1  0  0  0  0  0999 V2000
   17.5316   -9.0666  -12.5511 N   0  0  0  0  0  0  0  0  0  0  0  0
   18.0317   -7.7886  -12.0767 C   0  0  1  0  0  0  0  0  0  0  0  0
   18.6976   -7.0215  -13.1717 C   0  0  0  0  0  0  0  0  0  0  0  0
   19.9524   -7.7091  -13.5707 C   0  0  0  0  0  0  0  0  0  0  0  0
   20.9280   -8.1754  -12.7331 C   0  0  0  0  0  0  0  0  0  0  0  0
   21.8760   -8.7235  -13.5170 N   0  0  0  0  0  0  0  0  0  0  0  0
   21.4839   -8.5929  -14.8074 C   0  0  0  0  0  0  0  0  0  0  0  0
   20.2995   -7.9674  -14.8256 N   0  0  0  0  0  0  0  0  0  0  0  0
   16.8673   -6.9944  -11.5892 C   0  0  0  0  0  0  0  0  0  0  0  0
   15.7512   -7.0234  -12.2038 O   0  0  0  0  0  0  0  0  0  0  0  0
   16.9234   -6.1773  -10.4417 N   0  0  0  0  0  0  0  0  0  0  0  0
   15.6986   -5.4626   -9.9736 C   0  0  1  0  0  0  0  0  0  0  0  0
   15.5305   -6.0208   -8.5762 C   0  0  0  0  0  0  0  0  0  0  0  0
   14.8021   -7.2435   -8.4013 C   0  0  0  0  0  0  0  0  0  0  0  0
   15.2390   -8.5548   -8.5420 C   0  0  0  0  0  0  0  0  0  0  0  0
   14.2331   -9.4048   -8.2923 N   0  0  0  0  0  0  0  0  0  0  0  0
   13.1428   -8.6862   -7.9900 C   0  0  0  0  0  0  0  0  0  0  0  0
   11.8479   -9.0305   -7.6545 C   0  0  0  0  0  0  0  0  0  0  0  0
   10.8949   -8.0735   -7.3845 C   0  0  0  0  0  0  0  0  0  0  0  0
   11.2096   -6.7536   -7.4424 C   0  0  0  0  0  0  0  0  0  0  0  0
   12.4944   -6.3986   -7.7749 C   0  0  0  0  0  0  0  0  0  0  0  0
   13.4692   -7.3610   -8.0508 C   0  0  0  0  0  0  0  0  0  0  0  0
   16.1371   -4.0316   -9.8804 C   0  0  0  0  0  0  0  0  0  0  0  0
   17.1500   -3.7809   -9.1651 O   0  0  0  0  0  0  0  0  0  0  0  0
   15.4235   -3.0479  -10.5768 N   0  0  0  0  0  0  0  0  0  0  0  0
   14.5240   -3.3417  -11.7161 C   0  0  0  0  0  0  0  0  0  0  0  0
   13.3732   -2.3785  -11.5333 C   0  0  0  0  0  0  0  0  0  0  0  0
   13.8274   -1.4373  -10.4389 C   0  0  0  0  0  0  0  0  0  0  0  0
   15.3552   -1.6149  -10.5419 C   0  0  1  0  0  0  0  0  0  0  0  0
   16.0633   -0.8926   -9.5224 C   0  0  0  0  0  0  0  0  0  0  0  0
   16.1119    0.5203   -9.6744 O   0  0  0  0  0  0  0  0  0  0  0  0
   16.6451   -1.3086   -8.5210 O   0  0  0  0  0  0  0  0  0  0  0  0
  2  1  1  6
  2  3  1  0
  3  4  1  0
  4  8  1  0
  5  4  2  0
  5  6  1  0
  6  7  1  0
  8  7  2  0
  9 10  2  0
  9  2  1  0
 11  9  1  0
 12 11  1  0
 12 13  1  1
 13 14  1  0
 14 15  2  0
 14 22  1  0
 15 16  1  0
 16 17  1  0
 17 18  2  0
 19 18  1  0
 20 19  2  0
 21 22  2  0
 21 20  1  0
 22 17  1  0
 23 12  1  0
 24 23  2  0
 25 29  1  0
 25 23  1  0
 26 25  1  0
 27 28  1  0
 27 26  1  0
 28 29  1  0
 29 30  1  1
 30 32  2  0
 30 31  1  0
M  END
$$$$
