HWP.pdb
     RDKit          3D

 32 35  0  0  1  0  0  0  0  0999 V2000
   26.9567  -22.2877  -13.3666 N   0  0  0  0  0  0  0  0  0  0  0  0
   26.2512  -21.1071  -12.9009 C   0  0  1  0  0  0  0  0  0  0  0  0
   25.0686  -20.8022  -13.7607 C   0  0  0  0  0  0  0  0  0  0  0  0
   25.5238  -20.1995  -15.0398 C   0  0  0  0  0  0  0  0  0  0  0  0
   25.6045  -18.8650  -15.3287 C   0  0  0  0  0  0  0  0  0  0  0  0
   26.0632  -18.7737  -16.5916 N   0  0  0  0  0  0  0  0  0  0  0  0
   26.2578  -20.0295  -17.0617 C   0  0  0  0  0  0  0  0  0  0  0  0
   25.9221  -20.8961  -16.0971 N   0  0  0  0  0  0  0  0  0  0  0  0
   25.7667  -21.3802  -11.5171 C   0  0  0  0  0  0  0  0  0  0  0  0
   25.3810  -22.5460  -11.1761 O   0  0  0  0  0  0  0  0  0  0  0  0
   25.7047  -20.3883  -10.5170 N   0  0  0  0  0  0  0  0  0  0  0  0
   25.2057  -20.7340   -9.1527 C   0  0  1  0  0  0  0  0  0  0  0  0
   25.9409  -19.7290   -8.2912 C   0  0  0  0  0  0  0  0  0  0  0  0
   27.2746  -20.0305   -7.8594 C   0  0  0  0  0  0  0  0  0  0  0  0
   28.3168  -20.6154   -8.5678 C   0  0  0  0  0  0  0  0  0  0  0  0
   29.4008  -20.7238   -7.7869 N   0  0  0  0  0  0  0  0  0  0  0  0
   29.0992  -20.2247   -6.5801 C   0  0  0  0  0  0  0  0  0  0  0  0
   29.8193  -20.0827   -5.4100 C   0  0  0  0  0  0  0  0  0  0  0  0
   29.2594  -19.5233   -4.2829 C   0  0  0  0  0  0  0  0  0  0  0  0
   27.9713  -19.0930   -4.2956 C   0  0  0  0  0  0  0  0  0  0  0  0
   27.2448  -19.2287   -5.4536 C   0  0  0  0  0  0  0  0  0  0  0  0
   27.8026  -19.7948   -6.6029 C   0  0  0  0  0  0  0  0  0  0  0  0
   23.7527  -20.3666   -9.2031 C   0  0  0  0  0  0  0  0  0  0  0  0
   23.4601  -19.2174   -9.6439 O   0  0  0  0  0  0  0  0  0  0  0  0
   22.7948  -21.2925   -8.7707 N   0  0  0  0  0  0  0  0  0  0  0  0
   23.0855  -22.7276   -8.5487 C   0  0  0  0  0  0  0  0  0  0  0  0
   22.2669  -23.0837   -7.3286 C   0  0  0  0  0  0  0  0  0  0  0  0
   21.3777  -21.8817   -7.0958 C   0  0  0  0  0  0  0  0  0  0  0  0
   21.3848  -21.2589   -8.5060 C   0  0  1  0  0  0  0  0  0  0  0  0
   20.6795  -20.0089   -8.5593 C   0  0  0  0  0  0  0  0  0  0  0  0
   21.3007  -18.9104   -7.9043 O   0  0  0  0  0  0  0  0  0  0  0  0
   19.6045  -19.7323   -9.0906 O   0  0  0  0  0  0  0  0  0  0  0  0
  2  1  1  6
  2  3  1  0
  3  4  1  0
  4  8  1  0
  5  4  2  0
  5  6  1  0
  6  7  1  0
  8  7  2  0
  9 10  2  0
  9  2  1  0
 11  9  1  0
 12 11  1  0
 12 13  1  1
 13 14  1  0
 14 15  2  0
 14 22  1  0
 15 16  1  0
 16 17  1  0
 17 18  2  0
 19 18  1  0
 20 19  2  0
 21 22  2  0
 21 20  1  0
 22 17  1  0
 23 12  1  0
 24 23  2  0
 25 29  1  0
 25 23  1  0
 26 25  1  0
 27 28  1  0
 27 26  1  0
 28 29  1  0
 29 30  1  1
 30 32  2  0
 30 31  1  0
M  END
$$$$
