HWP.pdb
     RDKit          3D

 32 35  0  0  1  0  0  0  0  0999 V2000
   25.8304  -21.4530  -13.1236 N   0  0  0  0  0  0  0  0  0  0  0  0
   25.3111  -20.6063  -12.0646 C   0  0  1  0  0  0  0  0  0  0  0  0
   23.8188  -20.6458  -12.0150 C   0  0  0  0  0  0  0  0  0  0  0  0
   23.2610  -19.7926  -13.0954 C   0  0  0  0  0  0  0  0  0  0  0  0
   23.4401  -19.9607  -14.4410 C   0  0  0  0  0  0  0  0  0  0  0  0
   22.7611  -18.9666  -15.0448 N   0  0  0  0  0  0  0  0  0  0  0  0
   22.1799  -18.2084  -14.0840 C   0  0  0  0  0  0  0  0  0  0  0  0
   22.4957  -18.7277  -12.8904 N   0  0  0  0  0  0  0  0  0  0  0  0
   25.8369  -21.1218  -10.7677 C   0  0  0  0  0  0  0  0  0  0  0  0
   25.8664  -22.3723  -10.5233 O   0  0  0  0  0  0  0  0  0  0  0  0
   26.3253  -20.2783   -9.7489 N   0  0  0  0  0  0  0  0  0  0  0  0
   26.8975  -20.8678   -8.5020 C   0  0  1  0  0  0  0  0  0  0  0  0
   28.1541  -20.0429   -8.3189 C   0  0  0  0  0  0  0  0  0  0  0  0
   28.9535  -20.2486   -7.1464 C   0  0  0  0  0  0  0  0  0  0  0  0
   29.8448  -21.2748   -6.8591 C   0  0  0  0  0  0  0  0  0  0  0  0
   30.3820  -21.0918   -5.6447 N   0  0  0  0  0  0  0  0  0  0  0  0
   29.8668  -19.9695   -5.1236 C   0  0  0  0  0  0  0  0  0  0  0  0
   30.0562  -19.3117   -3.9239 C   0  0  0  0  0  0  0  0  0  0  0  0
   29.3853  -18.1459   -3.6278 C   0  0  0  0  0  0  0  0  0  0  0  0
   28.5119  -17.6094   -4.5187 C   0  0  0  0  0  0  0  0  0  0  0  0
   28.3151  -18.2544   -5.7156 C   0  0  0  0  0  0  0  0  0  0  0  0
   28.9902  -19.4376   -6.0265 C   0  0  0  0  0  0  0  0  0  0  0  0
   25.9048  -20.4904   -7.4434 C   0  0  0  0  0  0  0  0  0  0  0  0
   25.4977  -19.2926   -7.4308 O   0  0  0  0  0  0  0  0  0  0  0  0
   25.4737  -21.4600   -6.5292 N   0  0  0  0  0  0  0  0  0  0  0  0
   25.6890  -22.9134   -6.7153 C   0  0  0  0  0  0  0  0  0  0  0  0
   25.9814  -23.4227   -5.3221 C   0  0  0  0  0  0  0  0  0  0  0  0
   25.6652  -22.2570   -4.4105 C   0  0  0  0  0  0  0  0  0  0  0  0
   24.7092  -21.4539   -5.3147 C   0  0  1  0  0  0  0  0  0  0  0  0
   24.3155  -20.2041   -4.7269 C   0  0  0  0  0  0  0  0  0  0  0  0
   25.3305  -19.2139   -4.6214 O   0  0  0  0  0  0  0  0  0  0  0  0
   23.2209  -19.8473   -4.2923 O   0  0  0  0  0  0  0  0  0  0  0  0
  2  1  1  6
  2  3  1  0
  3  4  1  0
  4  8  1  0
  5  4  2  0
  5  6  1  0
  6  7  1  0
  8  7  2  0
  9 10  2  0
  9  2  1  0
 11  9  1  0
 12 11  1  0
 12 13  1  1
 13 14  1  0
 14 15  2  0
 14 22  1  0
 15 16  1  0
 16 17  1  0
 17 18  2  0
 19 18  1  0
 20 19  2  0
 21 22  2  0
 21 20  1  0
 22 17  1  0
 23 12  1  0
 24 23  2  0
 25 29  1  0
 25 23  1  0
 26 25  1  0
 27 28  1  0
 27 26  1  0
 28 29  1  0
 29 30  1  1
 30 32  2  0
 30 31  1  0
M  END
$$$$
