HWP.pdb
     RDKit          3D

 32 35  0  0  1  0  0  0  0  0999 V2000
   28.6851  -20.2107  -16.8916 N   0  0  0  0  0  0  0  0  0  0  0  0
   27.6424  -19.4097  -16.2757 C   0  0  1  0  0  0  0  0  0  0  0  0
   26.6234  -18.9748  -17.2773 C   0  0  0  0  0  0  0  0  0  0  0  0
   27.2021  -17.9246  -18.1540 C   0  0  0  0  0  0  0  0  0  0  0  0
   27.3777  -17.9994  -19.5084 C   0  0  0  0  0  0  0  0  0  0  0  0
   27.9302  -16.8314  -19.8880 N   0  0  0  0  0  0  0  0  0  0  0  0
   28.0875  -16.0607  -18.7847 C   0  0  0  0  0  0  0  0  0  0  0  0
   27.6357  -16.7454  -17.7259 N   0  0  0  0  0  0  0  0  0  0  0  0
   26.9623  -20.2539  -15.2515 C   0  0  0  0  0  0  0  0  0  0  0  0
   26.7510  -21.4934  -15.4595 O   0  0  0  0  0  0  0  0  0  0  0  0
   26.5181  -19.7475  -14.0129 N   0  0  0  0  0  0  0  0  0  0  0  0
   25.9520  -20.6738  -12.9875 C   0  0  1  0  0  0  0  0  0  0  0  0
   26.3719  -20.0005  -11.6978 C   0  0  0  0  0  0  0  0  0  0  0  0
   27.5161  -20.5027  -10.9945 C   0  0  0  0  0  0  0  0  0  0  0  0
   28.6579  -21.1143  -11.4967 C   0  0  0  0  0  0  0  0  0  0  0  0
   29.4856  -21.4392  -10.4936 N   0  0  0  0  0  0  0  0  0  0  0  0
   28.9176  -21.0567   -9.3414 C   0  0  0  0  0  0  0  0  0  0  0  0
   29.3129  -21.1394   -8.0205 C   0  0  0  0  0  0  0  0  0  0  0  0
   28.5223  -20.6583   -7.0005 C   0  0  0  0  0  0  0  0  0  0  0  0
   27.3218  -20.0845   -7.2726 C   0  0  0  0  0  0  0  0  0  0  0  0
   26.9177  -19.9964   -8.5827 C   0  0  0  0  0  0  0  0  0  0  0  0
   27.7115  -20.4811   -9.6253 C   0  0  0  0  0  0  0  0  0  0  0  0
   24.4693  -20.5268  -13.1571 C   0  0  0  0  0  0  0  0  0  0  0  0
   23.9644  -19.3976  -12.8912 O   0  0  0  0  0  0  0  0  0  0  0  0
   23.7164  -21.6229  -13.5965 N   0  0  0  0  0  0  0  0  0  0  0  0
   24.2994  -22.7844  -14.3068 C   0  0  0  0  0  0  0  0  0  0  0  0
   23.5292  -23.9686  -13.7683 C   0  0  0  0  0  0  0  0  0  0  0  0
   22.3943  -23.3617  -12.9725 C   0  0  0  0  0  0  0  0  0  0  0  0
   22.3227  -21.9645  -13.6199 C   0  0  1  0  0  0  0  0  0  0  0  0
   21.3682  -21.1071  -12.9746 C   0  0  0  0  0  0  0  0  0  0  0  0
   20.1401  -20.9067  -13.6627 O   0  0  0  0  0  0  0  0  0  0  0  0
   21.4451  -20.5075  -11.9027 O   0  0  0  0  0  0  0  0  0  0  0  0
  2  1  1  6
  2  3  1  0
  3  4  1  0
  4  8  1  0
  5  4  2  0
  5  6  1  0
  6  7  1  0
  8  7  2  0
  9 10  2  0
  9  2  1  0
 11  9  1  0
 12 11  1  0
 12 13  1  1
 13 14  1  0
 14 15  2  0
 14 22  1  0
 15 16  1  0
 16 17  1  0
 17 18  2  0
 19 18  1  0
 20 19  2  0
 21 22  2  0
 21 20  1  0
 22 17  1  0
 23 12  1  0
 24 23  2  0
 25 29  1  0
 25 23  1  0
 26 25  1  0
 27 28  1  0
 27 26  1  0
 28 29  1  0
 29 30  1  1
 30 32  2  0
 30 31  1  0
M  END
$$$$
