HWP.pdb
     RDKit          3D

 32 35  0  0  1  0  0  0  0  0999 V2000
   26.6672  -17.3073  -18.2359 N   0  0  0  0  0  0  0  0  0  0  0  0
   25.9274  -17.0944  -17.0048 C   0  0  1  0  0  0  0  0  0  0  0  0
   24.4725  -16.8857  -17.2702 C   0  0  0  0  0  0  0  0  0  0  0  0
   24.2521  -15.5113  -17.7888 C   0  0  0  0  0  0  0  0  0  0  0  0
   23.3327  -14.6064  -17.3340 C   0  0  0  0  0  0  0  0  0  0  0  0
   23.4806  -13.4993  -18.0864 N   0  0  0  0  0  0  0  0  0  0  0  0
   24.4716  -13.7269  -18.9819 C   0  0  0  0  0  0  0  0  0  0  0  0
   24.9369  -14.9679  -18.7875 N   0  0  0  0  0  0  0  0  0  0  0  0
   26.0797  -18.3160  -16.1629 C   0  0  0  0  0  0  0  0  0  0  0  0
   26.1285  -19.4744  -16.6919 O   0  0  0  0  0  0  0  0  0  0  0  0
   26.1776  -18.2707  -14.7571 N   0  0  0  0  0  0  0  0  0  0  0  0
   26.3776  -19.5311  -13.9817 C   0  0  1  0  0  0  0  0  0  0  0  0
   27.1877  -19.0414  -12.7999 C   0  0  0  0  0  0  0  0  0  0  0  0
   27.6953  -20.0004  -11.8624 C   0  0  0  0  0  0  0  0  0  0  0  0
   28.6490  -20.9931  -12.0498 C   0  0  0  0  0  0  0  0  0  0  0  0
   28.8301  -21.6785  -10.9122 N   0  0  0  0  0  0  0  0  0  0  0  0
   28.0189  -21.1621   -9.9785 C   0  0  0  0  0  0  0  0  0  0  0  0
   27.7911  -21.4689   -8.6512 C   0  0  0  0  0  0  0  0  0  0  0  0
   26.8796  -20.7654   -7.8954 C   0  0  0  0  0  0  0  0  0  0  0  0
   26.1754  -19.7417   -8.4436 C   0  0  0  0  0  0  0  0  0  0  0  0
   26.3934  -19.4269   -9.7630 C   0  0  0  0  0  0  0  0  0  0  0  0
   27.3155  -20.1339  -10.5391 C   0  0  0  0  0  0  0  0  0  0  0  0
   24.9963  -19.8841  -13.5167 C   0  0  0  0  0  0  0  0  0  0  0  0
   24.3215  -18.9713  -12.9582 O   0  0  0  0  0  0  0  0  0  0  0  0
   24.5157  -21.1844  -13.7167 N   0  0  0  0  0  0  0  0  0  0  0  0
   25.0797  -22.1207  -14.7161 C   0  0  0  0  0  0  0  0  0  0  0  0
   25.0224  -23.4672  -14.0311 C   0  0  0  0  0  0  0  0  0  0  0  0
   24.1988  -23.2313  -12.7838 C   0  0  0  0  0  0  0  0  0  0  0  0
   23.4267  -21.9640  -13.2013 C   0  0  1  0  0  0  0  0  0  0  0  0
   22.6148  -21.4391  -12.1392 C   0  0  0  0  0  0  0  0  0  0  0  0
   23.3133  -20.9039  -11.0224 O   0  0  0  0  0  0  0  0  0  0  0  0
   21.3898  -21.3779  -12.0398 O   0  0  0  0  0  0  0  0  0  0  0  0
  2  1  1  6
  2  3  1  0
  3  4  1  0
  4  8  1  0
  5  4  2  0
  5  6  1  0
  6  7  1  0
  8  7  2  0
  9 10  2  0
  9  2  1  0
 11  9  1  0
 12 11  1  0
 12 13  1  1
 13 14  1  0
 14 15  2  0
 14 22  1  0
 15 16  1  0
 16 17  1  0
 17 18  2  0
 19 18  1  0
 20 19  2  0
 21 22  2  0
 21 20  1  0
 22 17  1  0
 23 12  1  0
 24 23  2  0
 25 29  1  0
 25 23  1  0
 26 25  1  0
 27 28  1  0
 27 26  1  0
 28 29  1  0
 29 30  1  1
 30 32  2  0
 30 31  1  0
M  END
$$$$
