HWP.pdb
     RDKit          3D

 32 35  0  0  1  0  0  0  0  0999 V2000
   23.6594  -20.4307  -13.6067 N   0  0  0  0  0  0  0  0  0  0  0  0
   23.2697  -19.8802  -12.3208 C   0  0  1  0  0  0  0  0  0  0  0  0
   21.8194  -20.1077  -12.0455 C   0  0  0  0  0  0  0  0  0  0  0  0
   21.0026  -19.2017  -12.8931 C   0  0  0  0  0  0  0  0  0  0  0  0
   20.6768  -17.9021  -12.6180 C   0  0  0  0  0  0  0  0  0  0  0  0
   19.9297  -17.4677  -13.6510 N   0  0  0  0  0  0  0  0  0  0  0  0
   19.8039  -18.4845  -14.5377 C   0  0  0  0  0  0  0  0  0  0  0  0
   20.4685  -19.5444  -14.0589 N   0  0  0  0  0  0  0  0  0  0  0  0
   24.0618  -20.5767  -11.2664 C   0  0  0  0  0  0  0  0  0  0  0  0
   24.0684  -21.8485  -11.1847 O   0  0  0  0  0  0  0  0  0  0  0  0
   24.8383  -19.8890  -10.3114 N   0  0  0  0  0  0  0  0  0  0  0  0
   25.5671  -20.6505   -9.2536 C   0  0  1  0  0  0  0  0  0  0  0  0
   26.7919  -19.7863   -9.0395 C   0  0  0  0  0  0  0  0  0  0  0  0
   27.8391  -20.2675   -8.1863 C   0  0  0  0  0  0  0  0  0  0  0  0
   28.6404  -21.3936   -8.3276 C   0  0  0  0  0  0  0  0  0  0  0  0
   29.4958  -21.4821   -7.2994 N   0  0  0  0  0  0  0  0  0  0  0  0
   29.2784  -20.4417   -6.4829 C   0  0  0  0  0  0  0  0  0  0  0  0
   29.8559  -20.0364   -5.2954 C   0  0  0  0  0  0  0  0  0  0  0  0
   29.4359  -18.8995   -4.6413 C   0  0  0  0  0  0  0  0  0  0  0  0
   28.4326  -18.1414   -5.1544 C   0  0  0  0  0  0  0  0  0  0  0  0
   27.8504  -18.5342   -6.3351 C   0  0  0  0  0  0  0  0  0  0  0  0
   28.2685  -19.6857   -7.0072 C   0  0  0  0  0  0  0  0  0  0  0  0
   24.6722  -20.5379   -8.0556 C   0  0  0  0  0  0  0  0  0  0  0  0
   24.2459  -19.3849   -7.7565 O   0  0  0  0  0  0  0  0  0  0  0  0
   24.3479  -21.6912   -7.3298 N   0  0  0  0  0  0  0  0  0  0  0  0
   24.4711  -23.0627   -7.8748 C   0  0  0  0  0  0  0  0  0  0  0  0
   24.9541  -23.8827   -6.7001 C   0  0  0  0  0  0  0  0  0  0  0  0
   24.8317  -22.9588   -5.5079 C   0  0  0  0  0  0  0  0  0  0  0  0
   23.7815  -21.9635   -6.0397 C   0  0  1  0  0  0  0  0  0  0  0  0
   23.5359  -20.8823   -5.1269 C   0  0  0  0  0  0  0  0  0  0  0  0
   24.6371  -20.0222   -4.8633 O   0  0  0  0  0  0  0  0  0  0  0  0
   22.5066  -20.5763   -4.5258 O   0  0  0  0  0  0  0  0  0  0  0  0
  2  1  1  6
  2  3  1  0
  3  4  1  0
  4  8  1  0
  5  4  2  0
  5  6  1  0
  6  7  1  0
  8  7  2  0
  9 10  2  0
  9  2  1  0
 11  9  1  0
 12 11  1  0
 12 13  1  1
 13 14  1  0
 14 15  2  0
 14 22  1  0
 15 16  1  0
 16 17  1  0
 17 18  2  0
 19 18  1  0
 20 19  2  0
 21 22  2  0
 21 20  1  0
 22 17  1  0
 23 12  1  0
 24 23  2  0
 25 29  1  0
 25 23  1  0
 26 25  1  0
 27 28  1  0
 27 26  1  0
 28 29  1  0
 29 30  1  1
 30 32  2  0
 30 31  1  0
M  END
$$$$
