HWP.pdb
     RDKit          3D

 32 35  0  0  1  0  0  0  0  0999 V2000
   27.8136  -16.7730  -16.9228 N   0  0  0  0  0  0  0  0  0  0  0  0
   27.9503  -18.0833  -17.5333 C   0  0  1  0  0  0  0  0  0  0  0  0
   29.3298  -18.2982  -18.0639 C   0  0  0  0  0  0  0  0  0  0  0  0
   29.8039  -17.0614  -18.7364 C   0  0  0  0  0  0  0  0  0  0  0  0
   30.8535  -16.2745  -18.3492 C   0  0  0  0  0  0  0  0  0  0  0  0
   30.9255  -15.2667  -19.2397 N   0  0  0  0  0  0  0  0  0  0  0  0
   29.9378  -15.4379  -20.1514 C   0  0  0  0  0  0  0  0  0  0  0  0
   29.2561  -16.5451  -19.8296 N   0  0  0  0  0  0  0  0  0  0  0  0
   27.6880  -19.1074  -16.4813 C   0  0  0  0  0  0  0  0  0  0  0  0
   28.2652  -20.2432  -16.5144 O   0  0  0  0  0  0  0  0  0  0  0  0
   26.8038  -18.8912  -15.4046 N   0  0  0  0  0  0  0  0  0  0  0  0
   26.5671  -19.9742  -14.4040 C   0  0  1  0  0  0  0  0  0  0  0  0
   26.9260  -19.2799  -13.1071 C   0  0  0  0  0  0  0  0  0  0  0  0
   27.3221  -20.0755  -11.9817 C   0  0  0  0  0  0  0  0  0  0  0  0
   28.4521  -20.8672  -11.8191 C   0  0  0  0  0  0  0  0  0  0  0  0
   28.4362  -21.4502  -10.6122 N   0  0  0  0  0  0  0  0  0  0  0  0
   27.3230  -21.0624   -9.9743 C   0  0  0  0  0  0  0  0  0  0  0  0
   26.8012  -21.3470   -8.7275 C   0  0  0  0  0  0  0  0  0  0  0  0
   25.6082  -20.8040   -8.3047 C   0  0  0  0  0  0  0  0  0  0  0  0
   24.9088  -19.9662   -9.1131 C   0  0  0  0  0  0  0  0  0  0  0  0
   25.4176  -19.6754  -10.3556 C   0  0  0  0  0  0  0  0  0  0  0  0
   26.6268  -20.2206  -10.7948 C   0  0  0  0  0  0  0  0  0  0  0  0
   25.0832  -20.1842  -14.4533 C   0  0  0  0  0  0  0  0  0  0  0  0
   24.3488  -19.1584  -14.3588 O   0  0  0  0  0  0  0  0  0  0  0  0
   24.5779  -21.4822  -14.6012 N   0  0  0  0  0  0  0  0  0  0  0  0
   25.3238  -22.5810  -15.2566 C   0  0  0  0  0  0  0  0  0  0  0  0
   24.9730  -23.8025  -14.4376 C   0  0  0  0  0  0  0  0  0  0  0  0
   23.8550  -23.3476  -13.5250 C   0  0  0  0  0  0  0  0  0  0  0  0
   23.3311  -22.1339  -14.3181 C   0  0  1  0  0  0  0  0  0  0  0  0
   22.2984  -21.4228  -13.6177 C   0  0  0  0  0  0  0  0  0  0  0  0
   20.9726  -21.6120  -14.0953 O   0  0  0  0  0  0  0  0  0  0  0  0
   22.3795  -20.6624  -12.6535 O   0  0  0  0  0  0  0  0  0  0  0  0
  2  1  1  1
  2  3  1  0
  3  4  1  0
  4  8  1  0
  5  4  2  0
  5  6  1  0
  6  7  1  0
  8  7  2  0
  9 10  2  0
  9  2  1  0
 11  9  1  0
 12 11  1  0
 12 13  1  1
 13 14  1  0
 14 15  2  0
 14 22  1  0
 15 16  1  0
 16 17  1  0
 17 18  2  0
 19 18  1  0
 20 19  2  0
 21 22  2  0
 21 20  1  0
 22 17  1  0
 23 12  1  0
 24 23  2  0
 25 29  1  0
 25 23  1  0
 26 25  1  0
 27 28  1  0
 27 26  1  0
 28 29  1  0
 29 30  1  1
 30 32  2  0
 30 31  1  0
M  END
$$$$
