PAY.pdb
     RDKit          3D

 25 26  0  0  1  0  0  0  0  0999 V2000
   23.2425  -12.6635  -17.0561 N   0  0  0  0  0  0  0  0  0  0  0  0
   24.2800  -13.0714  -17.9572 C   0  0  0  0  0  0  0  0  0  0  0  0
   25.4932  -13.1496  -17.0605 C   0  0  0  0  0  0  0  0  0  0  0  0
   25.2825  -12.0693  -16.0287 C   0  0  0  0  0  0  0  0  0  0  0  0
   23.8042  -11.7477  -16.1236 C   0  0  1  0  0  0  0  0  0  0  0  0
   23.5514  -10.3282  -16.3665 C   0  0  0  0  0  0  0  0  0  0  0  0
   23.9992   -9.4827  -15.5148 O   0  0  0  0  0  0  0  0  0  0  0  0
   22.0803   -7.9450  -18.9233 C   0  0  0  0  0  0  0  0  0  0  0  0
   22.6277   -8.3131  -17.5738 C   0  0  2  0  0  0  0  0  0  0  0  0
   22.8520   -9.7618  -17.4607 N   0  0  0  0  0  0  0  0  0  0  0  0
   21.7856   -7.8226  -16.4599 C   0  0  0  0  0  0  0  0  0  0  0  0
   20.8059   -8.5160  -16.1132 O   0  0  0  0  0  0  0  0  0  0  0  0
   18.4829   -4.3371   -9.2437 O   0  0  0  0  0  0  0  0  0  0  0  0
   19.3487   -4.6474  -10.2903 C   0  0  0  0  0  0  0  0  0  0  0  0
   19.6932   -3.7276  -11.2548 C   0  0  0  0  0  0  0  0  0  0  0  0
   20.5582   -4.0715  -12.2822 C   0  0  0  0  0  0  0  0  0  0  0  0
   21.1034   -5.3333  -12.3807 C   0  0  0  0  0  0  0  0  0  0  0  0
   21.9935   -5.7398  -13.4723 C   0  0  0  0  0  0  0  0  0  0  0  0
   21.2000   -6.1324  -14.6598 C   0  0  2  0  0  0  0  0  0  0  0  0
   22.0205   -6.6163  -15.7620 N   0  0  0  0  0  0  0  0  0  0  0  0
   20.2848   -5.0711  -15.0826 C   0  0  0  0  0  0  0  0  0  0  0  0
   20.7391   -4.2316  -15.9301 O   0  0  0  0  0  0  0  0  0  0  0  0
   20.7473   -6.2357  -11.4099 C   0  0  0  0  0  0  0  0  0  0  0  0
   19.8857   -5.9084  -10.3781 C   0  0  0  0  0  0  0  0  0  0  0  0
   18.9863   -4.8792  -14.6699 O   0  0  0  0  0  0  0  0  0  0  0  0
  1  5  1  0
  2  1  1  0
  3  2  1  0
  3  4  1  0
  4  5  1  0
  5  6  1  6
  6 10  1  0
  6  7  2  0
  9  8  1  6
  9 11  1  0
 10  9  1  0
 11 12  2  0
 13 14  1  0
 14 15  2  0
 15 16  1  0
 17 18  1  0
 17 16  2  0
 19 18  1  1
 19 21  1  0
 20 19  1  0
 20 11  1  0
 21 25  1  0
 22 21  2  0
 23 17  1  0
 24 23  2  0
 24 14  1  0
M  END
$$$$
