PAY.pdb
     RDKit          3D

 25 26  0  0  1  0  0  0  0  0999 V2000
   18.3356  -11.5789  -17.0206 N   0  0  0  0  0  0  0  0  0  0  0  0
   18.1412  -12.2472  -18.2737 C   0  0  0  0  0  0  0  0  0  0  0  0
   19.4395  -12.9966  -18.4606 C   0  0  0  0  0  0  0  0  0  0  0  0
   20.4883  -12.1194  -17.8232 C   0  0  0  0  0  0  0  0  0  0  0  0
   19.6962  -11.1702  -16.9461 C   0  0  1  0  0  0  0  0  0  0  0  0
   19.9749   -9.7656  -17.2418 C   0  0  0  0  0  0  0  0  0  0  0  0
   21.1810   -9.3521  -17.1176 O   0  0  0  0  0  0  0  0  0  0  0  0
   18.4610   -6.7200  -18.8619 C   0  0  0  0  0  0  0  0  0  0  0  0
   19.4580   -7.4051  -17.9714 C   0  0  2  0  0  0  0  0  0  0  0  0
   19.0455   -8.7816  -17.6605 N   0  0  0  0  0  0  0  0  0  0  0  0
   19.7361   -6.6464  -16.7315 C   0  0  0  0  0  0  0  0  0  0  0  0
   18.9693   -6.8075  -15.7585 O   0  0  0  0  0  0  0  0  0  0  0  0
   23.3036  -10.9300  -14.2580 O   0  0  0  0  0  0  0  0  0  0  0  0
   23.1031   -9.5565  -14.3785 C   0  0  0  0  0  0  0  0  0  0  0  0
   22.3289   -8.8472  -13.4884 C   0  0  0  0  0  0  0  0  0  0  0  0
   22.1514   -7.4804  -13.6392 C   0  0  0  0  0  0  0  0  0  0  0  0
   22.7352   -6.7823  -14.6739 C   0  0  0  0  0  0  0  0  0  0  0  0
   22.5405   -5.3443  -14.8820 C   0  0  0  0  0  0  0  0  0  0  0  0
   21.1549   -5.0757  -15.3315 C   0  0  2  0  0  0  0  0  0  0  0  0
   20.8171   -5.7489  -16.5784 N   0  0  0  0  0  0  0  0  0  0  0  0
   20.8650   -3.6420  -15.3866 C   0  0  0  0  0  0  0  0  0  0  0  0
   20.6235   -3.1538  -16.5412 O   0  0  0  0  0  0  0  0  0  0  0  0
   23.5028   -7.5074  -15.5506 C   0  0  0  0  0  0  0  0  0  0  0  0
   23.6900   -8.8714  -15.4141 C   0  0  0  0  0  0  0  0  0  0  0  0
   20.8206   -2.7610  -14.3306 O   0  0  0  0  0  0  0  0  0  0  0  0
  1  5  1  0
  2  1  1  0
  3  2  1  0
  3  4  1  0
  4  5  1  0
  5  6  1  6
  6 10  1  0
  6  7  2  0
  9  8  1  1
  9 11  1  0
 10  9  1  0
 11 12  2  0
 13 14  1  0
 14 15  2  0
 15 16  1  0
 17 18  1  0
 17 16  2  0
 19 18  1  6
 19 21  1  0
 20 19  1  0
 20 11  1  0
 21 25  1  0
 22 21  2  0
 23 17  1  0
 24 23  2  0
 24 14  1  0
M  END
$$$$
