PAY.pdb
     RDKit          3D

 25 26  0  0  1  0  0  0  0  0999 V2000
   27.4611  -22.7151  -16.7512 N   0  0  0  0  0  0  0  0  0  0  0  0
   27.1543  -22.8704  -18.1427 C   0  0  0  0  0  0  0  0  0  0  0  0
   28.2542  -22.0866  -18.8195 C   0  0  0  0  0  0  0  0  0  0  0  0
   28.5620  -20.9538  -17.8720 C   0  0  0  0  0  0  0  0  0  0  0  0
   27.9574  -21.3965  -16.5543 C   0  0  1  0  0  0  0  0  0  0  0  0
   27.0177  -20.4179  -16.0091 C   0  0  0  0  0  0  0  0  0  0  0  0
   27.4384  -19.2240  -15.8124 O   0  0  0  0  0  0  0  0  0  0  0  0
   23.4091  -19.6577  -15.6845 C   0  0  0  0  0  0  0  0  0  0  0  0
   24.8068  -19.5615  -15.1428 C   0  0  2  0  0  0  0  0  0  0  0  0
   25.6614  -20.6386  -15.6638 N   0  0  0  0  0  0  0  0  0  0  0  0
   24.8476  -19.5263  -13.6638 C   0  0  0  0  0  0  0  0  0  0  0  0
   24.3081  -18.5608  -13.0829 O   0  0  0  0  0  0  0  0  0  0  0  0
   19.2543  -19.6093  -11.1093 O   0  0  0  0  0  0  0  0  0  0  0  0
   20.5700  -20.0641  -11.0511 C   0  0  0  0  0  0  0  0  0  0  0  0
   21.0769  -20.9619  -11.9633 C   0  0  0  0  0  0  0  0  0  0  0  0
   22.3917  -21.3927  -11.8748 C   0  0  0  0  0  0  0  0  0  0  0  0
   23.2369  -20.9463  -10.8822 C   0  0  0  0  0  0  0  0  0  0  0  0
   24.6212  -21.4073  -10.7396 C   0  0  0  0  0  0  0  0  0  0  0  0
   25.5456  -20.4654  -11.4119 C   0  0  2  0  0  0  0  0  0  0  0  0
   25.4600  -20.5186  -12.8652 N   0  0  0  0  0  0  0  0  0  0  0  0
   26.9223  -20.6167  -10.9381 C   0  0  0  0  0  0  0  0  0  0  0  0
   27.1094  -20.4892   -9.6818 O   0  0  0  0  0  0  0  0  0  0  0  0
   22.7125  -20.0522   -9.9826 C   0  0  0  0  0  0  0  0  0  0  0  0
   21.4030  -19.6122  -10.0571 C   0  0  0  0  0  0  0  0  0  0  0  0
   28.0385  -20.8845  -11.6968 O   0  0  0  0  0  0  0  0  0  0  0  0
  1  5  1  0
  2  1  1  0
  3  2  1  0
  3  4  1  0
  4  5  1  0
  5  6  1  6
  6 10  1  0
  6  7  2  0
  9  8  1  1
  9 11  1  0
 10  9  1  0
 11 12  2  0
 13 14  1  0
 14 15  2  0
 15 16  1  0
 17 18  1  0
 17 16  2  0
 19 18  1  1
 19 21  1  0
 20 19  1  0
 20 11  1  0
 21 25  1  0
 22 21  2  0
 23 17  1  0
 24 23  2  0
 24 14  1  0
M  END
$$$$
