PAY.pdb
     RDKit          3D

 25 26  0  0  1  0  0  0  0  0999 V2000
   29.1396   -7.2387  -18.5006 N   0  0  0  0  0  0  0  0  0  0  0  0
   29.0465   -8.6587  -18.3285 C   0  0  0  0  0  0  0  0  0  0  0  0
   28.3073   -9.1004  -19.5698 C   0  0  0  0  0  0  0  0  0  0  0  0
   27.3746   -7.9593  -19.8919 C   0  0  0  0  0  0  0  0  0  0  0  0
   27.9345   -6.7889  -19.1082 C   0  0  1  0  0  0  0  0  0  0  0  0
   26.9435   -6.1783  -18.2232 C   0  0  0  0  0  0  0  0  0  0  0  0
   26.7692   -6.6979  -17.0653 O   0  0  0  0  0  0  0  0  0  0  0  0
   24.7438   -3.1257  -17.8664 C   0  0  0  0  0  0  0  0  0  0  0  0
   25.1720   -4.5232  -17.5202 C   0  0  2  0  0  0  0  0  0  0  0  0
   26.1319   -5.0508  -18.5011 N   0  0  0  0  0  0  0  0  0  0  0  0
   24.0291   -5.4484  -17.3525 C   0  0  0  0  0  0  0  0  0  0  0  0
   23.6418   -6.0925  -18.3504 O   0  0  0  0  0  0  0  0  0  0  0  0
   17.8090  -10.9345  -14.6538 O   0  0  0  0  0  0  0  0  0  0  0  0
   18.9385  -10.1261  -14.7636 C   0  0  0  0  0  0  0  0  0  0  0  0
   19.9466  -10.3921  -15.6624 C   0  0  0  0  0  0  0  0  0  0  0  0
   21.0566   -9.5653  -15.7443 C   0  0  0  0  0  0  0  0  0  0  0  0
   21.1963   -8.4556  -14.9394 C   0  0  0  0  0  0  0  0  0  0  0  0
   22.3718   -7.5805  -14.9764 C   0  0  0  0  0  0  0  0  0  0  0  0
   22.1773   -6.5048  -15.9758 C   0  0  2  0  0  0  0  0  0  0  0  0
   23.3465   -5.6498  -16.1314 N   0  0  0  0  0  0  0  0  0  0  0  0
   20.9624   -5.7302  -15.7176 C   0  0  0  0  0  0  0  0  0  0  0  0
   19.9045   -6.1120  -16.3216 O   0  0  0  0  0  0  0  0  0  0  0  0
   20.1808   -8.2079  -14.0500 C   0  0  0  0  0  0  0  0  0  0  0  0
   19.0668   -9.0228  -13.9559 C   0  0  0  0  0  0  0  0  0  0  0  0
   20.8326   -4.6365  -14.8929 O   0  0  0  0  0  0  0  0  0  0  0  0
  1  5  1  0
  2  1  1  0
  3  2  1  0
  3  4  1  0
  4  5  1  0
  5  6  1  1
  6 10  1  0
  6  7  2  0
  9  8  1  6
  9 11  1  0
 10  9  1  0
 11 12  2  0
 13 14  1  0
 14 15  2  0
 15 16  1  0
 17 18  1  0
 17 16  2  0
 19 18  1  1
 19 21  1  0
 20 19  1  0
 20 11  1  0
 21 25  1  0
 22 21  2  0
 23 17  1  0
 24 23  2  0
 24 14  1  0
M  END
$$$$
