PAY.pdb
     RDKit          3D

 25 26  0  0  1  0  0  0  0  0999 V2000
   28.8519  -19.6053  -19.5129 N   0  0  0  0  0  0  0  0  0  0  0  0
   28.9914  -20.8561  -20.1992 C   0  0  0  0  0  0  0  0  0  0  0  0
   27.8534  -20.8239  -21.1923 C   0  0  0  0  0  0  0  0  0  0  0  0
   26.7553  -20.0567  -20.4984 C   0  0  0  0  0  0  0  0  0  0  0  0
   27.4627  -19.3349  -19.3686 C   0  0  1  0  0  0  0  0  0  0  0  0
   26.8726  -19.6203  -18.0615 C   0  0  0  0  0  0  0  0  0  0  0  0
   27.0098  -20.8010  -17.5840 O   0  0  0  0  0  0  0  0  0  0  0  0
   25.3408  -17.9870  -15.0382 C   0  0  0  0  0  0  0  0  0  0  0  0
   25.5429  -19.1490  -15.9684 C   0  0  2  0  0  0  0  0  0  0  0  0
   26.1485  -18.7227  -17.2386 N   0  0  0  0  0  0  0  0  0  0  0  0
   24.2991  -19.9141  -16.2092 C   0  0  0  0  0  0  0  0  0  0  0  0
   23.5880  -19.5898  -17.1837 O   0  0  0  0  0  0  0  0  0  0  0  0
   17.7205  -25.7623  -15.9788 O   0  0  0  0  0  0  0  0  0  0  0  0
   18.9092  -25.0767  -15.7369 C   0  0  0  0  0  0  0  0  0  0  0  0
   19.8916  -24.9519  -16.6931 C   0  0  0  0  0  0  0  0  0  0  0  0
   21.0622  -24.2621  -16.4172 C   0  0  0  0  0  0  0  0  0  0  0  0
   21.2895  -23.6794  -15.1894 C   0  0  0  0  0  0  0  0  0  0  0  0
   22.5295  -22.9730  -14.8538 C   0  0  0  0  0  0  0  0  0  0  0  0
   22.5901  -21.6779  -15.5699 C   0  0  2  0  0  0  0  0  0  0  0  0
   23.8641  -20.9911  -15.4041 N   0  0  0  0  0  0  0  0  0  0  0  0
   21.4551  -20.8149  -15.2385 C   0  0  0  0  0  0  0  0  0  0  0  0
   20.4728  -20.8279  -16.0537 O   0  0  0  0  0  0  0  0  0  0  0  0
   20.2984  -23.8154  -14.2500 C   0  0  0  0  0  0  0  0  0  0  0  0
   19.1245  -24.5002  -14.5092 C   0  0  0  0  0  0  0  0  0  0  0  0
   21.3277  -19.9922  -14.1430 O   0  0  0  0  0  0  0  0  0  0  0  0
  1  5  1  0
  2  1  1  0
  3  2  1  0
  3  4  1  0
  4  5  1  0
  5  6  1  1
  6 10  1  0
  6  7  2  0
  9  8  1  1
  9 11  1  0
 10  9  1  0
 11 12  2  0
 13 14  1  0
 14 15  2  0
 15 16  1  0
 17 18  1  0
 17 16  2  0
 19 18  1  1
 19 21  1  0
 20 19  1  0
 20 11  1  0
 21 25  1  0
 22 21  2  0
 23 17  1  0
 24 23  2  0
 24 14  1  0
M  END
$$$$
