PAY.pdb
     RDKit          3D

 25 26  0  0  1  0  0  0  0  0999 V2000
   19.1889  -27.0000  -14.0190 N   0  0  0  0  0  0  0  0  0  0  0  0
   19.5554  -26.8836  -15.3999 C   0  0  0  0  0  0  0  0  0  0  0  0
   21.0166  -27.2669  -15.3939 C   0  0  0  0  0  0  0  0  0  0  0  0
   21.5387  -26.7827  -14.0640 C   0  0  0  0  0  0  0  0  0  0  0  0
   20.2905  -26.5614  -13.2328 C   0  0  1  0  0  0  0  0  0  0  0  0
   20.2087  -25.2064  -12.6896 C   0  0  0  0  0  0  0  0  0  0  0  0
   21.2128  -24.7603  -12.0310 O   0  0  0  0  0  0  0  0  0  0  0  0
   18.3836  -21.9726  -13.0378 C   0  0  0  0  0  0  0  0  0  0  0  0
   19.1606  -22.9597  -12.2144 C   0  0  2  0  0  0  0  0  0  0  0  0
   19.1228  -24.3042  -12.8084 N   0  0  0  0  0  0  0  0  0  0  0  0
   18.7244  -22.9968  -10.8007 C   0  0  0  0  0  0  0  0  0  0  0  0
   18.7464  -21.9307  -10.1498 O   0  0  0  0  0  0  0  0  0  0  0  0
   15.2250  -24.5102   -3.0276 O   0  0  0  0  0  0  0  0  0  0  0  0
   15.5901  -24.6671   -4.3631 C   0  0  0  0  0  0  0  0  0  0  0  0
   16.2759  -25.7734   -4.8110 C   0  0  0  0  0  0  0  0  0  0  0  0
   16.6227  -25.8962   -6.1477 C   0  0  0  0  0  0  0  0  0  0  0  0
   16.2997  -24.9281   -7.0736 C   0  0  0  0  0  0  0  0  0  0  0  0
   16.6809  -25.0105   -8.4868 C   0  0  0  0  0  0  0  0  0  0  0  0
   17.9093  -24.2201   -8.7320 C   0  0  2  0  0  0  0  0  0  0  0  0
   18.2832  -24.1651  -10.1389 N   0  0  0  0  0  0  0  0  0  0  0  0
   19.0207  -24.6584   -7.8862 C   0  0  0  0  0  0  0  0  0  0  0  0
   19.8298  -25.5011   -8.4006 O   0  0  0  0  0  0  0  0  0  0  0  0
   15.6165  -23.8331   -6.6071 C   0  0  0  0  0  0  0  0  0  0  0  0
   15.2628  -23.6954   -5.2767 C   0  0  0  0  0  0  0  0  0  0  0  0
   19.2927  -24.2602   -6.5975 O   0  0  0  0  0  0  0  0  0  0  0  0
  1  5  1  0
  2  1  1  0
  3  2  1  0
  3  4  1  0
  4  5  1  0
  5  6  1  6
  6 10  1  0
  6  7  2  0
  9  8  1  6
  9 11  1  0
 10  9  1  0
 11 12  2  0
 13 14  1  0
 14 15  2  0
 15 16  1  0
 17 18  1  0
 17 16  2  0
 19 18  1  6
 19 21  1  0
 20 19  1  0
 20 11  1  0
 21 25  1  0
 22 21  2  0
 23 17  1  0
 24 23  2  0
 24 14  1  0
M  END
$$$$
