PAY.pdb
     RDKit          3D

 25 26  0  0  1  0  0  0  0  0999 V2000
   27.0278  -19.2346  -16.1440 N   0  0  0  0  0  0  0  0  0  0  0  0
   26.7324  -17.9535  -16.7153 C   0  0  0  0  0  0  0  0  0  0  0  0
   27.9589  -17.1411  -16.3722 C   0  0  0  0  0  0  0  0  0  0  0  0
   28.4218  -17.6814  -15.0420 C   0  0  0  0  0  0  0  0  0  0  0  0
   27.7239  -19.0216  -14.9218 C   0  0  1  0  0  0  0  0  0  0  0  0
   26.9404  -19.1401  -13.6930 C   0  0  0  0  0  0  0  0  0  0  0  0
   27.4238  -18.6346  -12.6198 O   0  0  0  0  0  0  0  0  0  0  0  0
   23.5398  -20.2322  -12.4266 C   0  0  0  0  0  0  0  0  0  0  0  0
   24.9589  -19.7684  -12.2610 C   0  0  2  0  0  0  0  0  0  0  0  0
   25.6769  -19.7635  -13.5441 N   0  0  0  0  0  0  0  0  0  0  0  0
   25.7021  -20.5470  -11.2452 C   0  0  0  0  0  0  0  0  0  0  0  0
   26.2314  -21.6220  -11.5989 O   0  0  0  0  0  0  0  0  0  0  0  0
   28.6805  -19.1603   -3.1704 O   0  0  0  0  0  0  0  0  0  0  0  0
   28.5036  -19.5188   -4.5052 C   0  0  0  0  0  0  0  0  0  0  0  0
   28.9447  -20.7227   -5.0061 C   0  0  0  0  0  0  0  0  0  0  0  0
   28.7510  -21.0463   -6.3403 C   0  0  0  0  0  0  0  0  0  0  0  0
   28.1167  -20.1872   -7.2111 C   0  0  0  0  0  0  0  0  0  0  0  0
   27.9262  -20.4834   -8.6342 C   0  0  0  0  0  0  0  0  0  0  0  0
   26.5378  -20.9365   -8.8809 C   0  0  2  0  0  0  0  0  0  0  0  0
   25.8511  -20.1502   -9.8970 N   0  0  0  0  0  0  0  0  0  0  0  0
   25.7631  -21.0280   -7.6423 C   0  0  0  0  0  0  0  0  0  0  0  0
   24.7695  -20.2341   -7.5322 O   0  0  0  0  0  0  0  0  0  0  0  0
   27.6848  -18.9922   -6.6925 C   0  0  0  0  0  0  0  0  0  0  0  0
   27.8700  -18.6542   -5.3637 C   0  0  0  0  0  0  0  0  0  0  0  0
   25.9850  -21.8778   -6.5831 O   0  0  0  0  0  0  0  0  0  0  0  0
  1  5  1  0
  2  1  1  0
  3  2  1  0
  3  4  1  0
  4  5  1  0
  5  6  1  1
  6 10  1  0
  6  7  2  0
  9  8  1  6
  9 11  1  0
 10  9  1  0
 11 12  2  0
 13 14  1  0
 14 15  2  0
 15 16  1  0
 17 18  1  0
 17 16  2  0
 19 18  1  1
 19 21  1  0
 20 19  1  0
 20 11  1  0
 21 25  1  0
 22 21  2  0
 23 17  1  0
 24 23  2  0
 24 14  1  0
M  END
$$$$
