PAY.pdb
     RDKit          3D

 25 26  0  0  1  0  0  0  0  0999 V2000
   36.6538   -1.8172   -9.1378 N   0  0  0  0  0  0  0  0  0  0  0  0
   36.5110   -3.0167   -8.3661 C   0  0  0  0  0  0  0  0  0  0  0  0
   35.5866   -3.8561   -9.2164 C   0  0  0  0  0  0  0  0  0  0  0  0
   34.6794   -2.8626   -9.8991 C   0  0  0  0  0  0  0  0  0  0  0  0
   35.4019   -1.5380   -9.7532 C   0  0  1  0  0  0  0  0  0  0  0  0
   34.5749   -0.5126   -9.1188 C   0  0  0  0  0  0  0  0  0  0  0  0
   34.3059   -0.6419   -7.8731 O   0  0  0  0  0  0  0  0  0  0  0  0
   33.1333    2.9278   -9.7044 C   0  0  0  0  0  0  0  0  0  0  0  0
   33.2251    1.6158   -8.9787 C   0  0  2  0  0  0  0  0  0  0  0  0
   34.0215    0.6375   -9.7340 N   0  0  0  0  0  0  0  0  0  0  0  0
   31.8989    1.0585   -8.6312 C   0  0  0  0  0  0  0  0  0  0  0  0
   31.2719    0.4364   -9.5147 O   0  0  0  0  0  0  0  0  0  0  0  0
   32.7250    0.6015   -1.2676 O   0  0  0  0  0  0  0  0  0  0  0  0
   32.0486    0.3233   -2.4536 C   0  0  0  0  0  0  0  0  0  0  0  0
   30.6741    0.2987   -2.5259 C   0  0  0  0  0  0  0  0  0  0  0  0
   30.0346    0.0183   -3.7236 C   0  0  0  0  0  0  0  0  0  0  0  0
   30.7387   -0.2447   -4.8785 C   0  0  0  0  0  0  0  0  0  0  0  0
   30.0946   -0.5783   -6.1525 C   0  0  0  0  0  0  0  0  0  0  0  0
   29.9969    0.6275   -7.0072 C   0  0  2  0  0  0  0  0  0  0  0  0
   31.2954    1.1861   -7.3595 N   0  0  0  0  0  0  0  0  0  0  0  0
   29.1042    1.6353   -6.4330 C   0  0  0  0  0  0  0  0  0  0  0  0
   27.8650    1.3336   -6.3782 O   0  0  0  0  0  0  0  0  0  0  0  0
   32.1076   -0.2157   -4.7856 C   0  0  0  0  0  0  0  0  0  0  0  0
   32.7612    0.0626   -3.5983 C   0  0  0  0  0  0  0  0  0  0  0  0
   29.4528    2.8726   -5.9421 O   0  0  0  0  0  0  0  0  0  0  0  0
  1  5  1  0
  2  1  1  0
  3  2  1  0
  3  4  1  0
  4  5  1  0
  5  6  1  1
  6 10  1  0
  6  7  2  0
  9  8  1  6
  9 11  1  0
 10  9  1  0
 11 12  2  0
 13 14  1  0
 14 15  2  0
 15 16  1  0
 17 18  1  0
 17 16  2  0
 19 18  1  1
 19 21  1  0
 20 19  1  0
 20 11  1  0
 21 25  1  0
 22 21  2  0
 23 17  1  0
 24 23  2  0
 24 14  1  0
M  END
$$$$
