PAY.pdb
     RDKit          3D

 25 26  0  0  1  0  0  0  0  0999 V2000
   21.9068  -16.4271  -15.9108 N   0  0  0  0  0  0  0  0  0  0  0  0
   21.9138  -15.6050  -17.0851 C   0  0  0  0  0  0  0  0  0  0  0  0
   20.8964  -16.2801  -17.9746 C   0  0  0  0  0  0  0  0  0  0  0  0
   21.0109  -17.7487  -17.6489 C   0  0  0  0  0  0  0  0  0  0  0  0
   21.7412  -17.7792  -16.3210 C   0  0  1  0  0  0  0  0  0  0  0  0
   22.9480  -18.6037  -16.3610 C   0  0  0  0  0  0  0  0  0  0  0  0
   22.8157  -19.8526  -16.6133 O   0  0  0  0  0  0  0  0  0  0  0  0
   26.5665  -18.8056  -16.7934 C   0  0  0  0  0  0  0  0  0  0  0  0
   25.3795  -19.1276  -15.9310 C   0  0  2  0  0  0  0  0  0  0  0  0
   24.2814  -18.1744  -16.1487 N   0  0  0  0  0  0  0  0  0  0  0  0
   25.7218  -19.2164  -14.4939 C   0  0  0  0  0  0  0  0  0  0  0  0
   26.1425  -18.1872  -13.9243 O   0  0  0  0  0  0  0  0  0  0  0  0
   26.7404  -19.6996   -6.0500 O   0  0  0  0  0  0  0  0  0  0  0  0
   26.3483  -19.6575   -7.3864 C   0  0  0  0  0  0  0  0  0  0  0  0
   26.7457  -18.6500   -8.2361 C   0  0  0  0  0  0  0  0  0  0  0  0
   26.3361  -18.6403   -9.5606 C   0  0  0  0  0  0  0  0  0  0  0  0
   25.5238  -19.6265  -10.0767 C   0  0  0  0  0  0  0  0  0  0  0  0
   25.0448  -19.6281  -11.4622 C   0  0  0  0  0  0  0  0  0  0  0  0
   25.9147  -20.4827  -12.3030 C   0  0  2  0  0  0  0  0  0  0  0  0
   25.6025  -20.3952  -13.7233 N   0  0  0  0  0  0  0  0  0  0  0  0
   25.9415  -21.8683  -11.8321 C   0  0  0  0  0  0  0  0  0  0  0  0
   24.9848  -22.6198  -12.2187 O   0  0  0  0  0  0  0  0  0  0  0  0
   25.1383  -20.6215   -9.2135 C   0  0  0  0  0  0  0  0  0  0  0  0
   25.5383  -20.6459   -7.8893 C   0  0  0  0  0  0  0  0  0  0  0  0
   26.8863  -22.4529  -11.0203 O   0  0  0  0  0  0  0  0  0  0  0  0
  1  5  1  0
  2  1  1  0
  3  2  1  0
  3  4  1  0
  4  5  1  0
  5  6  1  6
  6 10  1  0
  6  7  2  0
  9  8  1  6
  9 11  1  0
 10  9  1  0
 11 12  2  0
 13 14  1  0
 14 15  2  0
 15 16  1  0
 17 18  1  0
 17 16  2  0
 19 18  1  1
 19 21  1  0
 20 19  1  0
 20 11  1  0
 21 25  1  0
 22 21  2  0
 23 17  1  0
 24 23  2  0
 24 14  1  0
M  END
$$$$
