PAY.pdb
     RDKit          3D

 25 26  0  0  1  0  0  0  0  0999 V2000
   25.6303  -16.9116  -14.1346 N   0  0  0  0  0  0  0  0  0  0  0  0
   26.8146  -16.3812  -14.7436 C   0  0  0  0  0  0  0  0  0  0  0  0
   26.4779  -16.4102  -16.2160 C   0  0  0  0  0  0  0  0  0  0  0  0
   25.5894  -17.6174  -16.3865 C   0  0  0  0  0  0  0  0  0  0  0  0
   25.1216  -17.9363  -14.9803 C   0  0  1  0  0  0  0  0  0  0  0  0
   25.4148  -19.3141  -14.5884 C   0  0  0  0  0  0  0  0  0  0  0  0
   24.6065  -20.2328  -14.9677 O   0  0  0  0  0  0  0  0  0  0  0  0
   27.5572  -21.9747  -14.0880 C   0  0  0  0  0  0  0  0  0  0  0  0
   26.5889  -21.1396  -13.2997 C   0  0  2  0  0  0  0  0  0  0  0  0
   26.5154  -19.7661  -13.8192 N   0  0  0  0  0  0  0  0  0  0  0  0
   26.8812  -21.1383  -11.8489 C   0  0  0  0  0  0  0  0  0  0  0  0
   28.0708  -21.2624  -11.4880 O   0  0  0  0  0  0  0  0  0  0  0  0
   28.3789  -19.5948   -3.5783 O   0  0  0  0  0  0  0  0  0  0  0  0
   28.0316  -19.6568   -4.9262 C   0  0  0  0  0  0  0  0  0  0  0  0
   27.3234  -20.7130   -5.4535 C   0  0  0  0  0  0  0  0  0  0  0  0
   26.9949  -20.7412   -6.8001 C   0  0  0  0  0  0  0  0  0  0  0  0
   27.3588  -19.7259   -7.6578 C   0  0  0  0  0  0  0  0  0  0  0  0
   27.0576  -19.7409   -9.0924 C   0  0  0  0  0  0  0  0  0  0  0  0
   26.1871  -20.8935   -9.4202 C   0  0  2  0  0  0  0  0  0  0  0  0
   25.8970  -21.0052  -10.8434 N   0  0  0  0  0  0  0  0  0  0  0  0
   24.9684  -20.9078   -8.6096 C   0  0  0  0  0  0  0  0  0  0  0  0
   23.9622  -20.2809   -9.0831 O   0  0  0  0  0  0  0  0  0  0  0  0
   28.0645  -18.6825   -7.1129 C   0  0  0  0  0  0  0  0  0  0  0  0
   28.4000  -18.6390   -5.7714 C   0  0  0  0  0  0  0  0  0  0  0  0
   24.7853  -21.5251   -7.3935 O   0  0  0  0  0  0  0  0  0  0  0  0
  1  5  1  0
  2  1  1  0
  3  2  1  0
  3  4  1  0
  4  5  1  0
  5  6  1  1
  6 10  1  0
  6  7  2  0
  9  8  1  6
  9 11  1  0
 10  9  1  0
 11 12  2  0
 13 14  1  0
 14 15  2  0
 15 16  1  0
 17 18  1  0
 17 16  2  0
 19 18  1  6
 19 21  1  0
 20 19  1  0
 20 11  1  0
 21 25  1  0
 22 21  2  0
 23 17  1  0
 24 23  2  0
 24 14  1  0
M  END
$$$$
