PAY.pdb
     RDKit          3D

 25 26  0  0  1  0  0  0  0  0999 V2000
   35.4778  -28.1835  -18.7524 N   0  0  0  0  0  0  0  0  0  0  0  0
   36.6780  -28.2476  -19.5336 C   0  0  0  0  0  0  0  0  0  0  0  0
   36.2572  -27.6340  -20.8483 C   0  0  0  0  0  0  0  0  0  0  0  0
   34.8077  -28.0198  -21.0096 C   0  0  0  0  0  0  0  0  0  0  0  0
   34.3760  -28.4342  -19.6168 C   0  0  1  0  0  0  0  0  0  0  0  0
   33.8090  -29.7814  -19.5807 C   0  0  0  0  0  0  0  0  0  0  0  0
   32.5913  -29.9321  -19.9489 O   0  0  0  0  0  0  0  0  0  0  0  0
   34.8294  -33.4003  -19.2194 C   0  0  0  0  0  0  0  0  0  0  0  0
   33.8213  -32.2891  -19.2924 C   0  0  2  0  0  0  0  0  0  0  0  0
   34.4633  -30.9714  -19.1767 N   0  0  0  0  0  0  0  0  0  0  0  0
   32.7348  -32.4341  -18.2980 C   0  0  0  0  0  0  0  0  0  0  0  0
   32.9838  -32.1470  -17.1079 O   0  0  0  0  0  0  0  0  0  0  0  0
   25.4864  -33.1023  -13.6394 O   0  0  0  0  0  0  0  0  0  0  0  0
   26.4963  -32.7802  -14.5437 C   0  0  0  0  0  0  0  0  0  0  0  0
   26.2357  -32.5048  -15.8670 C   0  0  0  0  0  0  0  0  0  0  0  0
   27.2661  -32.1877  -16.7388 C   0  0  0  0  0  0  0  0  0  0  0  0
   28.5788  -32.1354  -16.3230 C   0  0  0  0  0  0  0  0  0  0  0  0
   29.6950  -31.8372  -17.2254 C   0  0  0  0  0  0  0  0  0  0  0  0
   30.3768  -33.0895  -17.6265 C   0  0  2  0  0  0  0  0  0  0  0  0
   31.4299  -32.8779  -18.6106 N   0  0  0  0  0  0  0  0  0  0  0  0
   29.4269  -34.1183  -18.0528 C   0  0  0  0  0  0  0  0  0  0  0  0
   29.2398  -35.0900  -17.2464 O   0  0  0  0  0  0  0  0  0  0  0  0
   28.8177  -32.4135  -15.0004 C   0  0  0  0  0  0  0  0  0  0  0  0
   27.8010  -32.7313  -14.1176 C   0  0  0  0  0  0  0  0  0  0  0  0
   28.7096  -34.1532  -19.2265 O   0  0  0  0  0  0  0  0  0  0  0  0
  1  5  1  0
  2  1  1  0
  3  2  1  0
  3  4  1  0
  4  5  1  0
  5  6  1  6
  6 10  1  0
  6  7  2  0
  9  8  1  1
  9 11  1  0
 10  9  1  0
 11 12  2  0
 13 14  1  0
 14 15  2  0
 15 16  1  0
 17 18  1  0
 17 16  2  0
 19 18  1  6
 19 21  1  0
 20 19  1  0
 20 11  1  0
 21 25  1  0
 22 21  2  0
 23 17  1  0
 24 23  2  0
 24 14  1  0
M  END
$$$$
