PAY.pdb
     RDKit          3D

 25 26  0  0  1  0  0  0  0  0999 V2000
   19.7479  -21.9092  -15.0853 N   0  0  0  0  0  0  0  0  0  0  0  0
   18.8389  -21.7831  -13.9841 C   0  0  0  0  0  0  0  0  0  0  0  0
   18.8354  -20.2958  -13.7191 C   0  0  0  0  0  0  0  0  0  0  0  0
   20.2313  -19.8379  -14.0623 C   0  0  0  0  0  0  0  0  0  0  0  0
   20.7978  -20.9675  -14.8995 C   0  0  1  0  0  0  0  0  0  0  0  0
   22.0564  -21.4869  -14.3664 C   0  0  0  0  0  0  0  0  0  0  0  0
   22.0014  -22.2997  -13.3778 O   0  0  0  0  0  0  0  0  0  0  0  0
   25.6851  -21.8975  -15.2085 C   0  0  0  0  0  0  0  0  0  0  0  0
   24.5566  -21.8027  -14.2217 C   0  0  2  0  0  0  0  0  0  0  0  0
   23.3637  -21.1907  -14.8253 N   0  0  0  0  0  0  0  0  0  0  0  0
   24.9390  -21.0956  -12.9791 C   0  0  0  0  0  0  0  0  0  0  0  0
   24.5377  -19.9230  -12.8218 O   0  0  0  0  0  0  0  0  0  0  0  0
   28.2336  -18.6398   -5.2856 O   0  0  0  0  0  0  0  0  0  0  0  0
   27.9520  -19.4176   -6.4068 C   0  0  0  0  0  0  0  0  0  0  0  0
   28.9287  -19.8005   -7.2982 C   0  0  0  0  0  0  0  0  0  0  0  0
   28.6119  -20.5752   -8.4035 C   0  0  0  0  0  0  0  0  0  0  0  0
   27.3219  -20.9898   -8.6539 C   0  0  0  0  0  0  0  0  0  0  0  0
   26.9473  -21.7801   -9.8305 C   0  0  0  0  0  0  0  0  0  0  0  0
   26.2909  -20.9163  -10.8389 C   0  0  2  0  0  0  0  0  0  0  0  0
   25.7316  -21.6646  -11.9566 N   0  0  0  0  0  0  0  0  0  0  0  0
   27.1684  -19.8343  -11.2881 C   0  0  0  0  0  0  0  0  0  0  0  0
   28.0957  -20.1550  -12.1046 O   0  0  0  0  0  0  0  0  0  0  0  0
   26.3630  -20.5975   -7.7539 C   0  0  0  0  0  0  0  0  0  0  0  0
   26.6624  -19.8248   -6.6461 C   0  0  0  0  0  0  0  0  0  0  0  0
   27.1032  -18.5073  -10.9299 O   0  0  0  0  0  0  0  0  0  0  0  0
  1  5  1  0
  2  1  1  0
  3  2  1  0
  3  4  1  0
  4  5  1  0
  5  6  1  1
  6 10  1  0
  6  7  2  0
  9  8  1  6
  9 11  1  0
 10  9  1  0
 11 12  2  0
 13 14  1  0
 14 15  2  0
 15 16  1  0
 17 18  1  0
 17 16  2  0
 19 18  1  1
 19 21  1  0
 20 19  1  0
 20 11  1  0
 21 25  1  0
 22 21  2  0
 23 17  1  0
 24 23  2  0
 24 14  1  0
M  END
$$$$
