PAY.pdb
     RDKit          3D

 25 26  0  0  1  0  0  0  0  0999 V2000
   21.6541   -8.2414  -23.1201 N   0  0  0  0  0  0  0  0  0  0  0  0
   22.1237   -7.6061  -24.3162 C   0  0  0  0  0  0  0  0  0  0  0  0
   23.4658   -8.2621  -24.5412 C   0  0  0  0  0  0  0  0  0  0  0  0
   23.9940   -8.5481  -23.1573 C   0  0  0  0  0  0  0  0  0  0  0  0
   22.7718   -8.4522  -22.2657 C   0  0  1  0  0  0  0  0  0  0  0  0
   22.9474   -7.4996  -21.1704 C   0  0  0  0  0  0  0  0  0  0  0  0
   23.4232   -7.9357  -20.0638 O   0  0  0  0  0  0  0  0  0  0  0  0
   22.8726   -3.7917  -20.4229 C   0  0  0  0  0  0  0  0  0  0  0  0
   22.9338   -5.2428  -20.0398 C   0  0  2  0  0  0  0  0  0  0  0  0
   22.6465   -6.1153  -21.1878 N   0  0  0  0  0  0  0  0  0  0  0  0
   22.0542   -5.5717  -18.8959 C   0  0  0  0  0  0  0  0  0  0  0  0
   20.8340   -5.7234  -19.1163 O   0  0  0  0  0  0  0  0  0  0  0  0
   18.3896   -8.9845  -11.7979 O   0  0  0  0  0  0  0  0  0  0  0  0
   19.2608   -8.5911  -12.8116 C   0  0  0  0  0  0  0  0  0  0  0  0
   18.8766   -8.5462  -14.1327 C   0  0  0  0  0  0  0  0  0  0  0  0
   19.7706   -8.1494  -15.1153 C   0  0  0  0  0  0  0  0  0  0  0  0
   21.0659   -7.7875  -14.8152 C   0  0  0  0  0  0  0  0  0  0  0  0
   22.0459   -7.3963  -15.8329 C   0  0  0  0  0  0  0  0  0  0  0  0
   21.6581   -6.1052  -16.4466 C   0  0  2  0  0  0  0  0  0  0  0  0
   22.5089   -5.7254  -17.5665 N   0  0  0  0  0  0  0  0  0  0  0  0
   21.5509   -5.0362  -15.4525 C   0  0  0  0  0  0  0  0  0  0  0  0
   22.6335   -4.4337  -15.1452 O   0  0  0  0  0  0  0  0  0  0  0  0
   21.4294   -7.8394  -13.4928 C   0  0  0  0  0  0  0  0  0  0  0  0
   20.5495   -8.2328  -12.5003 C   0  0  0  0  0  0  0  0  0  0  0  0
   20.4108   -4.6057  -14.8136 O   0  0  0  0  0  0  0  0  0  0  0  0
  1  5  1  0
  2  1  1  0
  3  2  1  0
  3  4  1  0
  4  5  1  0
  5  6  1  1
  6 10  1  0
  6  7  2  0
  9  8  1  6
  9 11  1  0
 10  9  1  0
 11 12  2  0
 13 14  1  0
 14 15  2  0
 15 16  1  0
 17 18  1  0
 17 16  2  0
 19 18  1  1
 19 21  1  0
 20 19  1  0
 20 11  1  0
 21 25  1  0
 22 21  2  0
 23 17  1  0
 24 23  2  0
 24 14  1  0
M  END
$$$$
