PAY.pdb
     RDKit          3D

 25 26  0  0  1  0  0  0  0  0999 V2000
   22.5226  -18.6153  -18.1186 N   0  0  0  0  0  0  0  0  0  0  0  0
   21.5613  -19.5059  -18.6996 C   0  0  0  0  0  0  0  0  0  0  0  0
   20.4395  -19.4969  -17.6878 C   0  0  0  0  0  0  0  0  0  0  0  0
   21.1221  -19.3196  -16.3542 C   0  0  0  0  0  0  0  0  0  0  0  0
   22.5033  -18.8056  -16.7089 C   0  0  1  0  0  0  0  0  0  0  0  0
   23.5722  -19.6286  -16.1447 C   0  0  0  0  0  0  0  0  0  0  0  0
   23.2436  -20.7029  -15.5292 O   0  0  0  0  0  0  0  0  0  0  0  0
   27.3153  -20.0707  -16.0502 C   0  0  0  0  0  0  0  0  0  0  0  0
   25.9362  -20.1998  -15.4690 C   0  0  2  0  0  0  0  0  0  0  0  0
   24.9646  -19.3727  -16.1996 N   0  0  0  0  0  0  0  0  0  0  0  0
   25.8945  -19.9036  -14.0196 C   0  0  0  0  0  0  0  0  0  0  0  0
   25.4474  -18.7945  -13.6580 O   0  0  0  0  0  0  0  0  0  0  0  0
   27.8356  -19.7912   -5.4807 O   0  0  0  0  0  0  0  0  0  0  0  0
   27.7252  -20.2121   -6.8043 C   0  0  0  0  0  0  0  0  0  0  0  0
   28.7790  -20.1408   -7.6871 C   0  0  0  0  0  0  0  0  0  0  0  0
   28.6331  -20.5691   -8.9976 C   0  0  0  0  0  0  0  0  0  0  0  0
   27.4416  -21.0783   -9.4666 C   0  0  0  0  0  0  0  0  0  0  0  0
   27.2435  -21.5079  -10.8542 C   0  0  0  0  0  0  0  0  0  0  0  0
   26.6554  -20.4067  -11.6514 C   0  0  2  0  0  0  0  0  0  0  0  0
   26.3296  -20.7987  -13.0161 N   0  0  0  0  0  0  0  0  0  0  0  0
   27.4812  -19.1989  -11.6104 C   0  0  0  0  0  0  0  0  0  0  0  0
   28.5046  -19.1827  -12.3732 O   0  0  0  0  0  0  0  0  0  0  0  0
   26.4033  -21.1407   -8.5713 C   0  0  0  0  0  0  0  0  0  0  0  0
   26.5325  -20.7176   -7.2604 C   0  0  0  0  0  0  0  0  0  0  0  0
   27.2753  -18.0760  -10.8422 O   0  0  0  0  0  0  0  0  0  0  0  0
  1  5  1  0
  2  1  1  0
  3  2  1  0
  3  4  1  0
  4  5  1  0
  5  6  1  6
  6 10  1  0
  6  7  2  0
  9  8  1  6
  9 11  1  0
 10  9  1  0
 11 12  2  0
 13 14  1  0
 14 15  2  0
 15 16  1  0
 17 18  1  0
 17 16  2  0
 19 18  1  6
 19 21  1  0
 20 19  1  0
 20 11  1  0
 21 25  1  0
 22 21  2  0
 23 17  1  0
 24 23  2  0
 24 14  1  0
M  END
$$$$
