PAY.pdb
     RDKit          3D

 25 26  0  0  1  0  0  0  0  0999 V2000
   42.7341  -11.8493   -9.2235 N   0  0  0  0  0  0  0  0  0  0  0  0
   41.6871  -12.5201   -9.9367 C   0  0  0  0  0  0  0  0  0  0  0  0
   41.6030  -11.7373  -11.2260 C   0  0  0  0  0  0  0  0  0  0  0  0
   41.9516  -10.3205  -10.8425 C   0  0  0  0  0  0  0  0  0  0  0  0
   42.6277  -10.4564   -9.4926 C   0  0  1  0  0  0  0  0  0  0  0  0
   41.9941   -9.6369   -8.4607 C   0  0  0  0  0  0  0  0  0  0  0  0
   40.7766   -9.8907   -8.1536 O   0  0  0  0  0  0  0  0  0  0  0  0
   42.7352   -7.1326   -5.7525 C   0  0  0  0  0  0  0  0  0  0  0  0
   41.8242   -7.7870   -6.7516 C   0  0  2  0  0  0  0  0  0  0  0  0
   42.5820   -8.5675   -7.7407 N   0  0  0  0  0  0  0  0  0  0  0  0
   40.9211   -6.8244   -7.4210 C   0  0  0  0  0  0  0  0  0  0  0  0
   41.2181   -6.4416   -8.5726 O   0  0  0  0  0  0  0  0  0  0  0  0
   34.4927   -1.3215   -9.6165 O   0  0  0  0  0  0  0  0  0  0  0  0
   35.2417   -2.2611   -8.9112 C   0  0  0  0  0  0  0  0  0  0  0  0
   35.8904   -1.9509   -7.7374 C   0  0  0  0  0  0  0  0  0  0  0  0
   36.6270   -2.9118   -7.0620 C   0  0  0  0  0  0  0  0  0  0  0  0
   36.7398   -4.2026   -7.5310 C   0  0  0  0  0  0  0  0  0  0  0  0
   37.5380   -5.2331   -6.8602 C   0  0  0  0  0  0  0  0  0  0  0  0
   38.8915   -5.3014   -7.4581 C   0  0  2  0  0  0  0  0  0  0  0  0
   39.7409   -6.3097   -6.8383 N   0  0  0  0  0  0  0  0  0  0  0  0
   39.5391   -3.9893   -7.4992 C   0  0  0  0  0  0  0  0  0  0  0  0
   40.2353   -3.6656   -6.4794 O   0  0  0  0  0  0  0  0  0  0  0  0
   36.0862   -4.4917   -8.7027 C   0  0  0  0  0  0  0  0  0  0  0  0
   35.3471   -3.5445   -9.3887 C   0  0  0  0  0  0  0  0  0  0  0  0
   39.4833   -3.0657   -8.5177 O   0  0  0  0  0  0  0  0  0  0  0  0
  1  5  1  0
  2  1  1  0
  3  2  1  0
  3  4  1  0
  4  5  1  0
  5  6  1  1
  6 10  1  0
  6  7  2  0
  9  8  1  1
  9 11  1  0
 10  9  1  0
 11 12  2  0
 13 14  1  0
 14 15  2  0
 15 16  1  0
 17 18  1  0
 17 16  2  0
 19 18  1  1
 19 21  1  0
 20 19  1  0
 20 11  1  0
 21 25  1  0
 22 21  2  0
 23 17  1  0
 24 23  2  0
 24 14  1  0
M  END
$$$$
