PAY.pdb
     RDKit          3D

 25 26  0  0  1  0  0  0  0  0999 V2000
   24.3991  -24.1970  -14.9821 N   0  0  0  0  0  0  0  0  0  0  0  0
   23.7739  -23.6529  -16.1517 C   0  0  0  0  0  0  0  0  0  0  0  0
   24.9036  -23.6231  -17.1543 C   0  0  0  0  0  0  0  0  0  0  0  0
   26.1421  -23.3585  -16.3346 C   0  0  0  0  0  0  0  0  0  0  0  0
   25.7257  -23.6877  -14.9148 C   0  0  1  0  0  0  0  0  0  0  0  0
   25.9551  -22.5790  -13.9895 C   0  0  0  0  0  0  0  0  0  0  0  0
   27.1411  -22.1025  -13.9032 O   0  0  0  0  0  0  0  0  0  0  0  0
   24.1666  -19.8715  -12.1470 C   0  0  0  0  0  0  0  0  0  0  0  0
   25.3375  -20.7981  -12.3106 C   0  0  2  0  0  0  0  0  0  0  0  0
   24.9966  -21.9523  -13.1552 N   0  0  0  0  0  0  0  0  0  0  0  0
   25.9030  -21.2418  -11.0169 C   0  0  0  0  0  0  0  0  0  0  0  0
   25.3867  -22.2324  -10.4575 O   0  0  0  0  0  0  0  0  0  0  0  0
   28.9040  -19.6104   -2.8818 O   0  0  0  0  0  0  0  0  0  0  0  0
   28.7446  -19.6270   -4.2659 C   0  0  0  0  0  0  0  0  0  0  0  0
   29.4792  -20.4603   -5.0790 C   0  0  0  0  0  0  0  0  0  0  0  0
   29.2938  -20.4500   -6.4529 C   0  0  0  0  0  0  0  0  0  0  0  0
   28.3778  -19.6157   -7.0558 C   0  0  0  0  0  0  0  0  0  0  0  0
   28.1812  -19.5553   -8.5073 C   0  0  0  0  0  0  0  0  0  0  0  0
   27.1658  -20.5483   -8.9276 C   0  0  2  0  0  0  0  0  0  0  0  0
   26.9930  -20.6138  -10.3727 N   0  0  0  0  0  0  0  0  0  0  0  0
   25.8923  -20.3579   -8.2315 C   0  0  0  0  0  0  0  0  0  0  0  0
   25.6480  -21.1534   -7.2634 O   0  0  0  0  0  0  0  0  0  0  0  0
   27.6559  -18.7927   -6.2281 C   0  0  0  0  0  0  0  0  0  0  0  0
   27.8286  -18.7908   -4.8555 C   0  0  0  0  0  0  0  0  0  0  0  0
   24.9289  -19.4137   -8.5029 O   0  0  0  0  0  0  0  0  0  0  0  0
  1  5  1  0
  2  1  1  0
  3  2  1  0
  3  4  1  0
  4  5  1  0
  5  6  1  1
  6 10  1  0
  6  7  2  0
  9  8  1  1
  9 11  1  0
 10  9  1  0
 11 12  2  0
 13 14  1  0
 14 15  2  0
 15 16  1  0
 17 18  1  0
 17 16  2  0
 19 18  1  6
 19 21  1  0
 20 19  1  0
 20 11  1  0
 21 25  1  0
 22 21  2  0
 23 17  1  0
 24 23  2  0
 24 14  1  0
M  END
$$$$
