PAY.pdb
     RDKit          3D

 25 26  0  0  1  0  0  0  0  0999 V2000
   20.2265  -12.1708  -18.8638 N   0  0  0  0  0  0  0  0  0  0  0  0
   20.5127  -12.5265  -20.2226 C   0  0  0  0  0  0  0  0  0  0  0  0
   21.7579  -13.3721  -20.0941 C   0  0  0  0  0  0  0  0  0  0  0  0
   22.5041  -12.7870  -18.9208 C   0  0  0  0  0  0  0  0  0  0  0  0
   21.4637  -11.9575  -18.1947 C   0  0  1  0  0  0  0  0  0  0  0  0
   21.8786  -10.5672  -18.0132 C   0  0  0  0  0  0  0  0  0  0  0  0
   22.8311  -10.3257  -17.1914 O   0  0  0  0  0  0  0  0  0  0  0  0
   21.5463   -7.1210  -19.4807 C   0  0  0  0  0  0  0  0  0  0  0  0
   21.8009   -8.0656  -18.3409 C   0  0  2  0  0  0  0  0  0  0  0  0
   21.3386   -9.4255  -18.6552 N   0  0  0  0  0  0  0  0  0  0  0  0
   21.2194   -7.5941  -17.0643 C   0  0  0  0  0  0  0  0  0  0  0  0
   20.0799   -7.9996  -16.7512 O   0  0  0  0  0  0  0  0  0  0  0  0
   18.6151   -5.7968   -9.2176 O   0  0  0  0  0  0  0  0  0  0  0  0
   19.4407   -6.0015  -10.3212 C   0  0  0  0  0  0  0  0  0  0  0  0
   20.0967   -4.9666  -10.9487 C   0  0  0  0  0  0  0  0  0  0  0  0
   20.9108   -5.2075  -12.0448 C   0  0  0  0  0  0  0  0  0  0  0  0
   21.0959   -6.4774  -12.5467 C   0  0  0  0  0  0  0  0  0  0  0  0
   21.9219   -6.7624  -13.7238 C   0  0  0  0  0  0  0  0  0  0  0  0
   21.2869   -6.2060  -14.9408 C   0  0  2  0  0  0  0  0  0  0  0  0
   21.8734   -6.7118  -16.1747 N   0  0  0  0  0  0  0  0  0  0  0  0
   21.2413   -4.7431  -14.9151 C   0  0  0  0  0  0  0  0  0  0  0  0
   22.2980   -4.1337  -15.2915 O   0  0  0  0  0  0  0  0  0  0  0  0
   20.4332   -7.4951  -11.9075 C   0  0  0  0  0  0  0  0  0  0  0  0
   19.6174   -7.2717  -10.8126 C   0  0  0  0  0  0  0  0  0  0  0  0
   20.1836   -3.9504  -14.5328 O   0  0  0  0  0  0  0  0  0  0  0  0
  1  5  1  0
  2  1  1  0
  3  2  1  0
  3  4  1  0
  4  5  1  0
  5  6  1  6
  6 10  1  0
  6  7  2  0
  9  8  1  6
  9 11  1  0
 10  9  1  0
 11 12  2  0
 13 14  1  0
 14 15  2  0
 15 16  1  0
 17 18  1  0
 17 16  2  0
 19 18  1  1
 19 21  1  0
 20 19  1  0
 20 11  1  0
 21 25  1  0
 22 21  2  0
 23 17  1  0
 24 23  2  0
 24 14  1  0
M  END
$$$$
