LPF.pdb
     RDKit          3D

 27 28  0  0  1  0  0  0  0  0999 V2000
   22.8665  -17.7709  -14.9313 C   0  0  0  0  0  0  0  0  0  0  0  0
   23.1154  -19.2988  -15.0400 C   0  0  1  0  0  0  0  0  0  0  0  0
   24.0709  -19.4237  -16.2089 C   0  0  0  0  0  0  0  0  0  0  0  0
   23.6554  -19.7060  -13.7273 C   0  0  0  0  0  0  0  0  0  0  0  0
   23.9999  -21.1430  -13.5206 C   0  0  2  0  0  0  0  0  0  0  0  0
   22.9284  -22.0023  -13.8125 N   0  0  0  0  0  0  0  0  0  0  0  0
   24.7431  -21.3653  -12.2727 C   0  0  0  0  0  0  0  0  0  0  0  0
   24.0278  -21.5388  -11.2332 O   0  0  0  0  0  0  0  0  0  0  0  0
   26.1434  -21.3982  -12.1389 N   0  0  0  0  0  0  0  0  0  0  0  0
   27.0620  -21.3630  -13.2557 C   0  0  0  0  0  0  0  0  0  0  0  0
   28.4450  -21.1429  -12.7120 C   0  0  0  0  0  0  0  0  0  0  0  0
   28.2764  -20.9040  -11.2602 C   0  0  0  0  0  0  0  0  0  0  0  0
   26.9159  -21.4716  -10.9399 C   0  0  1  0  0  0  0  0  0  0  0  0
   26.3989  -20.5933   -9.8299 C   0  0  0  0  0  0  0  0  0  0  0  0
   25.6958  -19.5944  -10.0764 O   0  0  0  0  0  0  0  0  0  0  0  0
   26.7317  -20.9323   -8.5112 N   0  0  0  0  0  0  0  0  0  0  0  0
   26.4420  -20.0513   -7.3690 C   0  0  1  0  0  0  0  0  0  0  0  0
   26.6487  -20.8781   -6.1468 C   0  0  0  0  0  0  0  0  0  0  0  0
   27.8488  -20.5711   -5.3672 C   0  0  0  0  0  0  0  0  0  0  0  0
   28.9073  -21.4770   -5.3539 C   0  0  0  0  0  0  0  0  0  0  0  0
   30.0325  -21.1680   -4.6209 C   0  0  0  0  0  0  0  0  0  0  0  0
   30.1064  -19.9795   -3.9123 C   0  0  0  0  0  0  0  0  0  0  0  0
   29.0392  -19.0853   -3.9366 C   0  0  0  0  0  0  0  0  0  0  0  0
   27.9088  -19.3862   -4.6679 C   0  0  0  0  0  0  0  0  0  0  0  0
   27.4205  -18.9468   -7.4137 C   0  0  0  0  0  0  0  0  0  0  0  0
   28.5352  -19.0935   -7.9555 O   0  0  0  0  0  0  0  0  0  0  0  0
   27.1541  -17.7012   -6.8623 O   0  0  0  0  0  0  0  0  0  0  0  0
  2  1  1  1
  3  2  1  0
  4  2  1  0
  5  4  1  0
  5  6  1  1
  7  8  2  0
  7  5  1  0
  9  7  1  0
 10  9  1  0
 11 10  1  0
 12 11  1  0
 12 13  1  0
 13  9  1  0
 13 14  1  1
 14 15  2  0
 16 14  1  0
 17 16  1  0
 17 18  1  1
 19 18  1  0
 19 20  2  0
 21 20  1  0
 22 21  2  0
 23 24  2  0
 23 22  1  0
 24 19  1  0
 25 17  1  0
 26 25  2  0
 27 25  1  0
M  END
$$$$
