LPF.pdb
     RDKit          3D

 27 28  0  0  1  0  0  0  0  0999 V2000
   26.1591  -16.6854  -15.6032 C   0  0  0  0  0  0  0  0  0  0  0  0
   27.3461  -17.6469  -15.3297 C   0  0  1  0  0  0  0  0  0  0  0  0
   28.5053  -16.7134  -15.0473 C   0  0  0  0  0  0  0  0  0  0  0  0
   26.9171  -18.4933  -14.1983 C   0  0  0  0  0  0  0  0  0  0  0  0
   26.9569  -19.9749  -14.3701 C   0  0  2  0  0  0  0  0  0  0  0  0
   26.0474  -20.4307  -15.3380 N   0  0  0  0  0  0  0  0  0  0  0  0
   27.0110  -20.6850  -13.0848 C   0  0  0  0  0  0  0  0  0  0  0  0
   25.8883  -20.8633  -12.5104 O   0  0  0  0  0  0  0  0  0  0  0  0
   28.1731  -21.1678  -12.4552 N   0  0  0  0  0  0  0  0  0  0  0  0
   29.4590  -21.2769  -13.1084 C   0  0  0  0  0  0  0  0  0  0  0  0
   30.4906  -21.5685  -12.0560 C   0  0  0  0  0  0  0  0  0  0  0  0
   29.7828  -21.4769  -10.7584 C   0  0  0  0  0  0  0  0  0  0  0  0
   28.3244  -21.6302  -11.1124 C   0  0  1  0  0  0  0  0  0  0  0  0
   27.6041  -20.7844  -10.0943 C   0  0  0  0  0  0  0  0  0  0  0  0
   27.9573  -19.6106   -9.8694 O   0  0  0  0  0  0  0  0  0  0  0  0
   26.5246  -21.3560   -9.4068 N   0  0  0  0  0  0  0  0  0  0  0  0
   26.1764  -20.9828   -8.0270 C   0  0  1  0  0  0  0  0  0  0  0  0
   26.8785  -19.6964   -7.7574 C   0  0  0  0  0  0  0  0  0  0  0  0
   27.7123  -19.6673   -6.5548 C   0  0  0  0  0  0  0  0  0  0  0  0
   28.1899  -18.4469   -6.0817 C   0  0  0  0  0  0  0  0  0  0  0  0
   28.9670  -18.4375   -4.9438 C   0  0  0  0  0  0  0  0  0  0  0  0
   29.2655  -19.6198   -4.2857 C   0  0  0  0  0  0  0  0  0  0  0  0
   28.7799  -20.8309   -4.7721 C   0  0  0  0  0  0  0  0  0  0  0  0
   28.0010  -20.8499   -5.9106 C   0  0  0  0  0  0  0  0  0  0  0  0
   24.7136  -20.7882   -7.9860 C   0  0  0  0  0  0  0  0  0  0  0  0
   24.0894  -20.8110   -6.9055 O   0  0  0  0  0  0  0  0  0  0  0  0
   23.9649  -20.5710   -9.1343 O   0  0  0  0  0  0  0  0  0  0  0  0
  2  1  1  1
  3  2  1  0
  4  2  1  0
  5  4  1  0
  5  6  1  1
  7  8  2  0
  7  5  1  0
  9  7  1  0
 10  9  1  0
 11 10  1  0
 12 11  1  0
 12 13  1  0
 13  9  1  0
 13 14  1  1
 14 15  2  0
 16 14  1  0
 17 16  1  0
 17 18  1  6
 19 18  1  0
 19 20  2  0
 21 20  1  0
 22 21  2  0
 23 24  2  0
 23 22  1  0
 24 19  1  0
 25 17  1  0
 26 25  2  0
 27 25  1  0
M  END
$$$$
