LPF.pdb
     RDKit          3D

 27 28  0  0  1  0  0  0  0  0999 V2000
   21.2883  -17.0555  -14.0466 C   0  0  0  0  0  0  0  0  0  0  0  0
   21.4430  -18.5324  -14.4971 C   0  0  1  0  0  0  0  0  0  0  0  0
   22.4352  -18.4563  -15.6392 C   0  0  0  0  0  0  0  0  0  0  0  0
   21.9018  -19.2652  -13.3001 C   0  0  0  0  0  0  0  0  0  0  0  0
   22.2174  -20.7170  -13.4388 C   0  0  2  0  0  0  0  0  0  0  0  0
   21.0741  -21.4979  -13.6730 N   0  0  0  0  0  0  0  0  0  0  0  0
   23.1739  -21.1801  -12.4240 C   0  0  0  0  0  0  0  0  0  0  0  0
   22.6803  -21.4154  -11.2737 O   0  0  0  0  0  0  0  0  0  0  0  0
   24.5538  -21.3763  -12.6170 N   0  0  0  0  0  0  0  0  0  0  0  0
   25.2009  -21.3423  -13.9102 C   0  0  0  0  0  0  0  0  0  0  0  0
   26.6860  -21.3223  -13.6854 C   0  0  0  0  0  0  0  0  0  0  0  0
   26.8727  -21.1956  -12.2217 C   0  0  0  0  0  0  0  0  0  0  0  0
   25.5559  -21.6385  -11.6337 C   0  0  1  0  0  0  0  0  0  0  0  0
   25.4105  -20.8108  -10.3829 C   0  0  0  0  0  0  0  0  0  0  0  0
   24.8433  -19.7015  -10.4096 O   0  0  0  0  0  0  0  0  0  0  0  0
   25.9319  -21.3247   -9.1876 N   0  0  0  0  0  0  0  0  0  0  0  0
   26.2801  -20.4694   -8.0422 C   0  0  1  0  0  0  0  0  0  0  0  0
   27.0750  -21.3235   -7.1156 C   0  0  0  0  0  0  0  0  0  0  0  0
   27.7371  -20.6219   -6.0148 C   0  0  0  0  0  0  0  0  0  0  0  0
   26.9712  -19.8897   -5.1101 C   0  0  0  0  0  0  0  0  0  0  0  0
   27.6103  -19.2419   -4.0753 C   0  0  0  0  0  0  0  0  0  0  0  0
   28.9872  -19.3193   -3.9403 C   0  0  0  0  0  0  0  0  0  0  0  0
   29.7376  -20.0556   -4.8534 C   0  0  0  0  0  0  0  0  0  0  0  0
   29.1062  -20.7075   -5.8924 C   0  0  0  0  0  0  0  0  0  0  0  0
   27.1100  -19.3646   -8.5620 C   0  0  0  0  0  0  0  0  0  0  0  0
   28.0093  -19.5728   -9.4020 O   0  0  0  0  0  0  0  0  0  0  0  0
   26.9343  -18.0512   -8.1489 O   0  0  0  0  0  0  0  0  0  0  0  0
  2  1  1  1
  3  2  1  0
  4  2  1  0
  5  4  1  0
  5  6  1  1
  7  8  2  0
  7  5  1  0
  9  7  1  0
 10  9  1  0
 11 10  1  0
 12 11  1  0
 12 13  1  0
 13  9  1  0
 13 14  1  1
 14 15  2  0
 16 14  1  0
 17 16  1  0
 17 18  1  1
 19 18  1  0
 19 20  2  0
 21 20  1  0
 22 21  2  0
 23 24  2  0
 23 22  1  0
 24 19  1  0
 25 17  1  0
 26 25  2  0
 27 25  1  0
M  END
$$$$
