LPF.pdb
     RDKit          3D

 27 28  0  0  1  0  0  0  0  0999 V2000
   27.5310  -11.9844  -16.7556 C   0  0  0  0  0  0  0  0  0  0  0  0
   26.1271  -12.5188  -17.1450 C   0  0  1  0  0  0  0  0  0  0  0  0
   25.8859  -13.6433  -16.1589 C   0  0  0  0  0  0  0  0  0  0  0  0
   25.2172  -11.3617  -17.0294 C   0  0  0  0  0  0  0  0  0  0  0  0
   23.8152  -11.5145  -17.5167 C   0  0  2  0  0  0  0  0  0  0  0  0
   23.7504  -12.0298  -18.8213 N   0  0  0  0  0  0  0  0  0  0  0  0
   22.9810  -10.3492  -17.1923 C   0  0  0  0  0  0  0  0  0  0  0  0
   23.1444   -9.3332  -17.9428 O   0  0  0  0  0  0  0  0  0  0  0  0
   22.0438  -10.2688  -16.1458 N   0  0  0  0  0  0  0  0  0  0  0  0
   21.5308  -11.4173  -15.4317 C   0  0  0  0  0  0  0  0  0  0  0  0
   20.7775  -10.9187  -14.2314 C   0  0  0  0  0  0  0  0  0  0  0  0
   20.9980   -9.4548  -14.1940 C   0  0  0  0  0  0  0  0  0  0  0  0
   21.4302   -9.1024  -15.5957 C   0  0  1  0  0  0  0  0  0  0  0  0
   22.3792   -7.9463  -15.4122 C   0  0  0  0  0  0  0  0  0  0  0  0
   23.6129   -8.1143  -15.4634 O   0  0  0  0  0  0  0  0  0  0  0  0
   21.8341   -6.6756  -15.1821 N   0  0  0  0  0  0  0  0  0  0  0  0
   22.6517   -5.4525  -15.1711 C   0  0  1  0  0  0  0  0  0  0  0  0
   23.0875   -5.2343  -16.5792 C   0  0  0  0  0  0  0  0  0  0  0  0
   23.7720   -3.9679  -16.8437 C   0  0  0  0  0  0  0  0  0  0  0  0
   23.0791   -2.9318  -17.4664 C   0  0  0  0  0  0  0  0  0  0  0  0
   23.7369   -1.7438  -17.7005 C   0  0  0  0  0  0  0  0  0  0  0  0
   25.0609   -1.5862  -17.3230 C   0  0  0  0  0  0  0  0  0  0  0  0
   25.7384   -2.6321  -16.7015 C   0  0  0  0  0  0  0  0  0  0  0  0
   25.0878   -3.8249  -16.4630 C   0  0  0  0  0  0  0  0  0  0  0  0
   21.7766   -4.3495  -14.7273 C   0  0  0  0  0  0  0  0  0  0  0  0
   22.2228   -3.4082  -14.0399 O   0  0  0  0  0  0  0  0  0  0  0  0
   20.4272   -4.3020  -15.0489 O   0  0  0  0  0  0  0  0  0  0  0  0
  2  1  1  1
  3  2  1  0
  4  2  1  0
  5  4  1  0
  5  6  1  6
  7  8  2  0
  7  5  1  0
  9  7  1  0
 10  9  1  0
 11 10  1  0
 12 11  1  0
 12 13  1  0
 13  9  1  0
 13 14  1  1
 14 15  2  0
 16 14  1  0
 17 16  1  0
 17 18  1  6
 19 18  1  0
 19 20  2  0
 21 20  1  0
 22 21  2  0
 23 24  2  0
 23 22  1  0
 24 19  1  0
 25 17  1  0
 26 25  2  0
 27 25  1  0
M  END
$$$$
