LPF.pdb
     RDKit          3D

 27 28  0  0  1  0  0  0  0  0999 V2000
   30.0722  -18.4831  -15.9045 C   0  0  0  0  0  0  0  0  0  0  0  0
   28.5373  -18.5364  -16.1271 C   0  0  1  0  0  0  0  0  0  0  0  0
   28.3412  -19.7767  -16.9745 C   0  0  0  0  0  0  0  0  0  0  0  0
   27.9431  -18.5852  -14.7762 C   0  0  0  0  0  0  0  0  0  0  0  0
   26.4558  -18.5635  -14.6579 C   0  0  2  0  0  0  0  0  0  0  0  0
   25.8793  -17.4560  -15.3006 N   0  0  0  0  0  0  0  0  0  0  0  0
   25.9987  -18.8888  -13.2998 C   0  0  0  0  0  0  0  0  0  0  0  0
   26.2932  -18.0331  -12.4036 O   0  0  0  0  0  0  0  0  0  0  0  0
   25.2835  -20.0401  -12.9218 N   0  0  0  0  0  0  0  0  0  0  0  0
   24.7299  -20.9910  -13.8606 C   0  0  0  0  0  0  0  0  0  0  0  0
   24.2858  -22.2006  -13.0882 C   0  0  0  0  0  0  0  0  0  0  0  0
   24.7360  -21.9794  -11.6949 C   0  0  0  0  0  0  0  0  0  0  0  0
   24.9661  -20.4912  -11.6044 C   0  0  1  0  0  0  0  0  0  0  0  0
   26.1017  -20.3499  -10.6241 C   0  0  0  0  0  0  0  0  0  0  0  0
   27.2519  -20.7313  -10.9149 O   0  0  0  0  0  0  0  0  0  0  0  0
   25.8273  -19.7766   -9.3748 N   0  0  0  0  0  0  0  0  0  0  0  0
   26.4146  -20.2823   -8.1243 C   0  0  1  0  0  0  0  0  0  0  0  0
   26.6882  -19.0839   -7.2822 C   0  0  0  0  0  0  0  0  0  0  0  0
   27.8142  -19.2025   -6.3546 C   0  0  0  0  0  0  0  0  0  0  0  0
   27.8128  -20.2193   -5.4021 C   0  0  0  0  0  0  0  0  0  0  0  0
   28.8846  -20.3208   -4.5420 C   0  0  0  0  0  0  0  0  0  0  0  0
   29.9409  -19.4279   -4.6256 C   0  0  0  0  0  0  0  0  0  0  0  0
   29.9263  -18.4175   -5.5837 C   0  0  0  0  0  0  0  0  0  0  0  0
   28.8574  -18.3084   -6.4490 C   0  0  0  0  0  0  0  0  0  0  0  0
   25.3981  -21.1397   -7.4830 C   0  0  0  0  0  0  0  0  0  0  0  0
   24.1797  -20.9011   -7.6093 O   0  0  0  0  0  0  0  0  0  0  0  0
   25.7412  -22.2443   -6.7157 O   0  0  0  0  0  0  0  0  0  0  0  0
  2  1  1  1
  3  2  1  0
  4  2  1  0
  5  4  1  0
  5  6  1  1
  7  8  2  0
  7  5  1  0
  9  7  1  0
 10  9  1  0
 11 10  1  0
 12 11  1  0
 12 13  1  0
 13  9  1  0
 13 14  1  1
 14 15  2  0
 16 14  1  0
 17 16  1  0
 17 18  1  1
 19 18  1  0
 19 20  2  0
 21 20  1  0
 22 21  2  0
 23 24  2  0
 23 22  1  0
 24 19  1  0
 25 17  1  0
 26 25  2  0
 27 25  1  0
M  END
$$$$
