LPF.pdb
     RDKit          3D

 27 28  0  0  1  0  0  0  0  0999 V2000
   20.9303  -22.0682  -14.3463 C   0  0  0  0  0  0  0  0  0  0  0  0
   22.1561  -22.6487  -15.1004 C   0  0  1  0  0  0  0  0  0  0  0  0
   22.1749  -21.8746  -16.4024 C   0  0  0  0  0  0  0  0  0  0  0  0
   23.3113  -22.4260  -14.2081 C   0  0  0  0  0  0  0  0  0  0  0  0
   24.6623  -22.8434  -14.6847 C   0  0  2  0  0  0  0  0  0  0  0  0
   24.6655  -24.1358  -15.2337 N   0  0  0  0  0  0  0  0  0  0  0  0
   25.7235  -22.4964  -13.7294 C   0  0  0  0  0  0  0  0  0  0  0  0
   25.9944  -23.3905  -12.8638 O   0  0  0  0  0  0  0  0  0  0  0  0
   26.4421  -21.2871  -13.6952 N   0  0  0  0  0  0  0  0  0  0  0  0
   26.4575  -20.3264  -14.7763 C   0  0  0  0  0  0  0  0  0  0  0  0
   27.1001  -19.0670  -14.2687 C   0  0  0  0  0  0  0  0  0  0  0  0
   27.3199  -19.2798  -12.8198 C   0  0  0  0  0  0  0  0  0  0  0  0
   27.2662  -20.7774  -12.6460 C   0  0  1  0  0  0  0  0  0  0  0  0
   26.6851  -20.9709  -11.2691 C   0  0  0  0  0  0  0  0  0  0  0  0
   25.4721  -21.2092  -11.1120 O   0  0  0  0  0  0  0  0  0  0  0  0
   27.5487  -20.8752  -10.1692 N   0  0  0  0  0  0  0  0  0  0  0  0
   27.0610  -20.7614   -8.7859 C   0  0  1  0  0  0  0  0  0  0  0  0
   27.8807  -19.6947   -8.1453 C   0  0  0  0  0  0  0  0  0  0  0  0
   27.8855  -19.6895   -6.6816 C   0  0  0  0  0  0  0  0  0  0  0  0
   27.1509  -20.6509   -5.9908 C   0  0  0  0  0  0  0  0  0  0  0  0
   27.1731  -20.6359   -4.6131 C   0  0  0  0  0  0  0  0  0  0  0  0
   27.9123  -19.6822   -3.9316 C   0  0  0  0  0  0  0  0  0  0  0  0
   28.6409  -18.7286   -4.6378 C   0  0  0  0  0  0  0  0  0  0  0  0
   28.6246  -18.7361   -6.0172 C   0  0  0  0  0  0  0  0  0  0  0  0
   25.6454  -20.3483   -8.8574 C   0  0  0  0  0  0  0  0  0  0  0  0
   24.7633  -20.9529   -8.2139 O   0  0  0  0  0  0  0  0  0  0  0  0
   25.2269  -19.2773   -9.6347 O   0  0  0  0  0  0  0  0  0  0  0  0
  2  1  1  1
  3  2  1  0
  4  2  1  0
  5  4  1  0
  5  6  1  1
  7  8  2  0
  7  5  1  0
  9  7  1  0
 10  9  1  0
 11 10  1  0
 12 11  1  0
 12 13  1  0
 13  9  1  0
 13 14  1  1
 14 15  2  0
 16 14  1  0
 17 16  1  0
 17 18  1  1
 19 18  1  0
 19 20  2  0
 21 20  1  0
 22 21  2  0
 23 24  2  0
 23 22  1  0
 24 19  1  0
 25 17  1  0
 26 25  2  0
 27 25  1  0
M  END
$$$$
