LPF.pdb
     RDKit          3D

 27 28  0  0  1  0  0  0  0  0999 V2000
   20.4132  -17.5090  -14.4949 C   0  0  0  0  0  0  0  0  0  0  0  0
   21.8368  -18.1120  -14.6284 C   0  0  1  0  0  0  0  0  0  0  0  0
   22.6955  -16.9226  -15.0064 C   0  0  0  0  0  0  0  0  0  0  0  0
   22.1326  -18.7223  -13.3167 C   0  0  0  0  0  0  0  0  0  0  0  0
   22.1600  -20.2111  -13.2208 C   0  0  2  0  0  0  0  0  0  0  0  0
   20.8751  -20.7770  -13.2410 N   0  0  0  0  0  0  0  0  0  0  0  0
   23.1087  -20.6879  -12.2050 C   0  0  0  0  0  0  0  0  0  0  0  0
   22.7654  -20.4816  -10.9960 O   0  0  0  0  0  0  0  0  0  0  0  0
   24.3331  -21.3342  -12.4559 N   0  0  0  0  0  0  0  0  0  0  0  0
   24.7572  -21.7801  -13.7649 C   0  0  0  0  0  0  0  0  0  0  0  0
   26.2057  -22.1680  -13.6761 C   0  0  0  0  0  0  0  0  0  0  0  0
   26.6431  -21.7918  -12.3121 C   0  0  0  0  0  0  0  0  0  0  0  0
   25.3619  -21.6721  -11.5247 C   0  0  1  0  0  0  0  0  0  0  0  0
   25.6462  -20.5902  -10.5150 C   0  0  0  0  0  0  0  0  0  0  0  0
   25.5319  -19.3861  -10.8151 O   0  0  0  0  0  0  0  0  0  0  0  0
   26.0433  -20.9772   -9.2276 N   0  0  0  0  0  0  0  0  0  0  0  0
   27.0430  -20.2303   -8.4484 C   0  0  1  0  0  0  0  0  0  0  0  0
   26.7711  -20.5455   -7.0177 C   0  0  0  0  0  0  0  0  0  0  0  0
   27.7366  -20.0132   -6.0549 C   0  0  0  0  0  0  0  0  0  0  0  0
   28.5583  -20.8916   -5.3519 C   0  0  0  0  0  0  0  0  0  0  0  0
   29.4668  -20.3724   -4.4552 C   0  0  0  0  0  0  0  0  0  0  0  0
   29.5587  -19.0038   -4.2593 C   0  0  0  0  0  0  0  0  0  0  0  0
   28.7297  -18.1399   -4.9705 C   0  0  0  0  0  0  0  0  0  0  0  0
   27.8173  -18.6508   -5.8703 C   0  0  0  0  0  0  0  0  0  0  0  0
   28.3708  -20.7403   -8.8435 C   0  0  0  0  0  0  0  0  0  0  0  0
   28.5236  -21.9212   -9.2174 O   0  0  0  0  0  0  0  0  0  0  0  0
   29.5056  -19.9414   -8.8211 O   0  0  0  0  0  0  0  0  0  0  0  0
  2  1  1  1
  3  2  1  0
  4  2  1  0
  5  4  1  0
  5  6  1  1
  7  8  2  0
  7  5  1  0
  9  7  1  0
 10  9  1  0
 11 10  1  0
 12 11  1  0
 12 13  1  0
 13  9  1  0
 13 14  1  1
 14 15  2  0
 16 14  1  0
 17 16  1  0
 17 18  1  1
 19 18  1  0
 19 20  2  0
 21 20  1  0
 22 21  2  0
 23 24  2  0
 23 22  1  0
 24 19  1  0
 25 17  1  0
 26 25  2  0
 27 25  1  0
M  END
$$$$
