LPF.pdb
     RDKit          3D

 27 28  0  0  1  0  0  0  0  0999 V2000
   27.3636  -16.2187  -13.9219 C   0  0  0  0  0  0  0  0  0  0  0  0
   26.8894  -17.6038  -14.4366 C   0  0  1  0  0  0  0  0  0  0  0  0
   27.2928  -17.6004  -15.8967 C   0  0  0  0  0  0  0  0  0  0  0  0
   27.5751  -18.5976  -13.5866 C   0  0  0  0  0  0  0  0  0  0  0  0
   27.2529  -20.0407  -13.7876 C   0  0  2  0  0  0  0  0  0  0  0  0
   26.1237  -20.2337  -14.5996 N   0  0  0  0  0  0  0  0  0  0  0  0
   27.3472  -20.8129  -12.5410 C   0  0  0  0  0  0  0  0  0  0  0  0
   26.2528  -20.9654  -11.9077 O   0  0  0  0  0  0  0  0  0  0  0  0
   28.5188  -21.3791  -12.0058 N   0  0  0  0  0  0  0  0  0  0  0  0
   29.7680  -21.4826  -12.7276 C   0  0  0  0  0  0  0  0  0  0  0  0
   30.8361  -21.8850  -11.7510 C   0  0  0  0  0  0  0  0  0  0  0  0
   30.1936  -21.8656  -10.4169 C   0  0  0  0  0  0  0  0  0  0  0  0
   28.7156  -21.9438  -10.7088 C   0  0  1  0  0  0  0  0  0  0  0  0
   28.0752  -21.1518   -9.5982 C   0  0  0  0  0  0  0  0  0  0  0  0
   28.7600  -20.4323   -8.8455 O   0  0  0  0  0  0  0  0  0  0  0  0
   26.6863  -21.2474   -9.4358 N   0  0  0  0  0  0  0  0  0  0  0  0
   26.0159  -20.9609   -8.1579 C   0  0  1  0  0  0  0  0  0  0  0  0
   26.4528  -19.5931   -7.7599 C   0  0  0  0  0  0  0  0  0  0  0  0
   27.3378  -19.5219   -6.5962 C   0  0  0  0  0  0  0  0  0  0  0  0
   27.4852  -20.6402   -5.7784 C   0  0  0  0  0  0  0  0  0  0  0  0
   28.3284  -20.5578   -4.6916 C   0  0  0  0  0  0  0  0  0  0  0  0
   29.0145  -19.3848   -4.4206 C   0  0  0  0  0  0  0  0  0  0  0  0
   28.8557  -18.2765   -5.2486 C   0  0  0  0  0  0  0  0  0  0  0  0
   28.0136  -18.3499   -6.3388 C   0  0  0  0  0  0  0  0  0  0  0  0
   24.5625  -20.9813   -8.4160 C   0  0  0  0  0  0  0  0  0  0  0  0
   24.1124  -20.9160   -9.5782 O   0  0  0  0  0  0  0  0  0  0  0  0
   23.6315  -21.0743   -7.3908 O   0  0  0  0  0  0  0  0  0  0  0  0
  2  1  1  1
  3  2  1  0
  4  2  1  0
  5  4  1  0
  5  6  1  1
  7  8  2  0
  7  5  1  0
  9  7  1  0
 10  9  1  0
 11 10  1  0
 12 11  1  0
 12 13  1  0
 13  9  1  0
 13 14  1  1
 14 15  2  0
 16 14  1  0
 17 16  1  0
 17 18  1  6
 19 18  1  0
 19 20  2  0
 21 20  1  0
 22 21  2  0
 23 24  2  0
 23 22  1  0
 24 19  1  0
 25 17  1  0
 26 25  2  0
 27 25  1  0
M  END
$$$$
