LPF.pdb
     RDKit          3D

 27 28  0  0  1  0  0  0  0  0999 V2000
   26.5420  -14.5949  -15.5306 C   0  0  0  0  0  0  0  0  0  0  0  0
   26.5896  -15.8833  -16.3942 C   0  0  1  0  0  0  0  0  0  0  0  0
   28.0528  -16.0119  -16.7650 C   0  0  0  0  0  0  0  0  0  0  0  0
   26.0519  -16.9563  -15.5340 C   0  0  0  0  0  0  0  0  0  0  0  0
   25.9151  -18.3242  -16.1139 C   0  0  2  0  0  0  0  0  0  0  0  0
   24.9279  -18.3919  -17.1102 N   0  0  0  0  0  0  0  0  0  0  0  0
   25.9292  -19.3717  -15.0835 C   0  0  0  0  0  0  0  0  0  0  0  0
   24.8086  -19.6050  -14.5250 O   0  0  0  0  0  0  0  0  0  0  0  0
   27.0521  -20.1148  -14.6751 N   0  0  0  0  0  0  0  0  0  0  0  0
   28.2419  -20.2873  -15.4793 C   0  0  0  0  0  0  0  0  0  0  0  0
   29.3040  -20.8994  -14.6110 C   0  0  0  0  0  0  0  0  0  0  0  0
   28.7373  -20.9371  -13.2434 C   0  0  0  0  0  0  0  0  0  0  0  0
   27.2474  -20.8206  -13.4489 C   0  0  1  0  0  0  0  0  0  0  0  0
   26.7621  -20.0728  -12.2340 C   0  0  0  0  0  0  0  0  0  0  0  0
   26.9986  -18.8575  -12.0914 O   0  0  0  0  0  0  0  0  0  0  0  0
   26.0366  -20.7836  -11.2681 N   0  0  0  0  0  0  0  0  0  0  0  0
   25.6793  -20.2076   -9.9623 C   0  0  1  0  0  0  0  0  0  0  0  0
   24.5127  -19.3145  -10.2100 C   0  0  0  0  0  0  0  0  0  0  0  0
   23.3574  -19.9417  -10.8535 C   0  0  0  0  0  0  0  0  0  0  0  0
   23.3488  -20.1051  -12.2371 C   0  0  0  0  0  0  0  0  0  0  0  0
   22.2563  -20.7047  -12.8252 C   0  0  0  0  0  0  0  0  0  0  0  0
   21.1894  -21.1354  -12.0529 C   0  0  0  0  0  0  0  0  0  0  0  0
   21.2144  -20.9644  -10.6711 C   0  0  0  0  0  0  0  0  0  0  0  0
   22.3040  -20.3652  -10.0738 C   0  0  0  0  0  0  0  0  0  0  0  0
   25.2904  -21.3294   -9.0849 C   0  0  0  0  0  0  0  0  0  0  0  0
   24.9069  -21.1302   -7.9141 O   0  0  0  0  0  0  0  0  0  0  0  0
   25.3296  -22.6494   -9.5124 O   0  0  0  0  0  0  0  0  0  0  0  0
  2  1  1  1
  3  2  1  0
  4  2  1  0
  5  4  1  0
  5  6  1  1
  7  8  2  0
  7  5  1  0
  9  7  1  0
 10  9  1  0
 11 10  1  0
 12 11  1  0
 12 13  1  0
 13  9  1  0
 13 14  1  1
 14 15  2  0
 16 14  1  0
 17 16  1  0
 17 18  1  6
 19 18  1  0
 19 20  2  0
 21 20  1  0
 22 21  2  0
 23 24  2  0
 23 22  1  0
 24 19  1  0
 25 17  1  0
 26 25  2  0
 27 25  1  0
M  END
$$$$
