LPF.pdb
     RDKit          3D

 27 28  0  0  1  0  0  0  0  0999 V2000
   26.3636  -15.0771  -14.5848 C   0  0  0  0  0  0  0  0  0  0  0  0
   26.2073  -16.4506  -15.2899 C   0  0  1  0  0  0  0  0  0  0  0  0
   27.5596  -16.6785  -15.9336 C   0  0  0  0  0  0  0  0  0  0  0  0
   25.8388  -17.4031  -14.2234 C   0  0  0  0  0  0  0  0  0  0  0  0
   25.6649  -18.8393  -14.5887 C   0  0  2  0  0  0  0  0  0  0  0  0
   24.5717  -19.0501  -15.4444 N   0  0  0  0  0  0  0  0  0  0  0  0
   25.8187  -19.7324  -13.4321 C   0  0  0  0  0  0  0  0  0  0  0  0
   24.8330  -19.7583  -12.6258 O   0  0  0  0  0  0  0  0  0  0  0  0
   26.9385  -20.5369  -13.1517 N   0  0  0  0  0  0  0  0  0  0  0  0
   28.0023  -20.7972  -14.0966 C   0  0  0  0  0  0  0  0  0  0  0  0
   29.1291  -21.4592  -13.3558 C   0  0  0  0  0  0  0  0  0  0  0  0
   28.7422  -21.4377  -11.9265 C   0  0  0  0  0  0  0  0  0  0  0  0
   27.2478  -21.2322  -11.9431 C   0  0  1  0  0  0  0  0  0  0  0  0
   26.9687  -20.4346  -10.6954 C   0  0  0  0  0  0  0  0  0  0  0  0
   27.4675  -19.3045  -10.5310 O   0  0  0  0  0  0  0  0  0  0  0  0
   26.1312  -21.0006   -9.7243 N   0  0  0  0  0  0  0  0  0  0  0  0
   26.5365  -21.1505   -8.3179 C   0  0  1  0  0  0  0  0  0  0  0  0
   27.4098  -19.9823   -8.0130 C   0  0  0  0  0  0  0  0  0  0  0  0
   27.8828  -19.8859   -6.6312 C   0  0  0  0  0  0  0  0  0  0  0  0
   27.5689  -18.7573   -5.8769 C   0  0  0  0  0  0  0  0  0  0  0  0
   28.0158  -18.6869   -4.5753 C   0  0  0  0  0  0  0  0  0  0  0  0
   28.7623  -19.7196   -4.0308 C   0  0  0  0  0  0  0  0  0  0  0  0
   29.0669  -20.8406   -4.7988 C   0  0  0  0  0  0  0  0  0  0  0  0
   28.6235  -20.9197   -6.1027 C   0  0  0  0  0  0  0  0  0  0  0  0
   25.3061  -21.0986   -7.5038 C   0  0  0  0  0  0  0  0  0  0  0  0
   24.1954  -20.8729   -8.0263 O   0  0  0  0  0  0  0  0  0  0  0  0
   25.3205  -21.2971   -6.1301 O   0  0  0  0  0  0  0  0  0  0  0  0
  2  1  1  1
  3  2  1  0
  4  2  1  0
  5  4  1  0
  5  6  1  1
  7  8  2  0
  7  5  1  0
  9  7  1  0
 10  9  1  0
 11 10  1  0
 12 11  1  0
 12 13  1  0
 13  9  1  0
 13 14  1  1
 14 15  2  0
 16 14  1  0
 17 16  1  0
 17 18  1  1
 19 18  1  0
 19 20  2  0
 21 20  1  0
 22 21  2  0
 23 24  2  0
 23 22  1  0
 24 19  1  0
 25 17  1  0
 26 25  2  0
 27 25  1  0
M  END
$$$$
