LPF.pdb
     RDKit          3D

 27 28  0  0  1  0  0  0  0  0999 V2000
   29.0970  -16.9779  -15.7315 C   0  0  0  0  0  0  0  0  0  0  0  0
   27.7047  -17.5048  -16.1698 C   0  0  1  0  0  0  0  0  0  0  0  0
   28.0280  -18.5099  -17.2562 C   0  0  0  0  0  0  0  0  0  0  0  0
   27.0894  -18.0605  -14.9480 C   0  0  0  0  0  0  0  0  0  0  0  0
   25.7158  -18.6346  -15.0476 C   0  0  2  0  0  0  0  0  0  0  0  0
   24.8138  -17.7686  -15.6865 N   0  0  0  0  0  0  0  0  0  0  0  0
   25.2875  -19.2785  -13.7981 C   0  0  0  0  0  0  0  0  0  0  0  0
   24.9234  -18.4852  -12.8706 O   0  0  0  0  0  0  0  0  0  0  0  0
   25.2512  -20.6633  -13.5518 N   0  0  0  0  0  0  0  0  0  0  0  0
   25.2019  -21.6672  -14.5920 C   0  0  0  0  0  0  0  0  0  0  0  0
   25.4462  -23.0062  -13.9563 C   0  0  0  0  0  0  0  0  0  0  0  0
   25.7852  -22.7276  -12.5419 C   0  0  0  0  0  0  0  0  0  0  0  0
   25.2530  -21.3381  -12.2930 C   0  0  1  0  0  0  0  0  0  0  0  0
   26.2096  -20.7483  -11.2893 C   0  0  0  0  0  0  0  0  0  0  0  0
   27.3754  -20.4490  -11.6125 O   0  0  0  0  0  0  0  0  0  0  0  0
   25.7505  -20.5454   -9.9805 N   0  0  0  0  0  0  0  0  0  0  0  0
   26.4072  -21.1445   -8.8082 C   0  0  1  0  0  0  0  0  0  0  0  0
   27.6997  -20.4213   -8.6445 C   0  0  0  0  0  0  0  0  0  0  0  0
   27.9991  -19.9535   -7.2903 C   0  0  0  0  0  0  0  0  0  0  0  0
   28.8715  -20.6873   -6.4893 C   0  0  0  0  0  0  0  0  0  0  0  0
   29.1481  -20.2279   -5.2199 C   0  0  0  0  0  0  0  0  0  0  0  0
   28.5684  -19.0592   -4.7527 C   0  0  0  0  0  0  0  0  0  0  0  0
   27.6987  -18.3379   -5.5666 C   0  0  0  0  0  0  0  0  0  0  0  0
   27.4161  -18.7902   -6.8389 C   0  0  0  0  0  0  0  0  0  0  0  0
   25.5301  -20.8986   -7.6465 C   0  0  0  0  0  0  0  0  0  0  0  0
   25.7826  -21.3966   -6.5303 O   0  0  0  0  0  0  0  0  0  0  0  0
   24.3922  -20.1087   -7.7342 O   0  0  0  0  0  0  0  0  0  0  0  0
  2  1  1  1
  3  2  1  0
  4  2  1  0
  5  4  1  0
  5  6  1  1
  7  8  2  0
  7  5  1  0
  9  7  1  0
 10  9  1  0
 11 10  1  0
 12 11  1  0
 12 13  1  0
 13  9  1  0
 13 14  1  1
 14 15  2  0
 16 14  1  0
 17 16  1  0
 17 18  1  1
 19 18  1  0
 19 20  2  0
 21 20  1  0
 22 21  2  0
 23 24  2  0
 23 22  1  0
 24 19  1  0
 25 17  1  0
 26 25  2  0
 27 25  1  0
M  END
$$$$
