LPF.pdb
     RDKit          3D

 27 28  0  0  1  0  0  0  0  0999 V2000
   13.6133  -13.6179    6.9726 C   0  0  0  0  0  0  0  0  0  0  0  0
   13.8363  -15.1529    6.9258 C   0  0  1  0  0  0  0  0  0  0  0  0
   13.3534  -15.6262    8.2814 C   0  0  0  0  0  0  0  0  0  0  0  0
   13.0559  -15.6309    5.7670 C   0  0  0  0  0  0  0  0  0  0  0  0
   13.7133  -15.6379    4.4276 C   0  0  2  0  0  0  0  0  0  0  0  0
   12.8703  -16.1238    3.4151 N   0  0  0  0  0  0  0  0  0  0  0  0
   15.0901  -16.1481    4.4838 C   0  0  0  0  0  0  0  0  0  0  0  0
   15.2025  -17.3954    4.7162 O   0  0  0  0  0  0  0  0  0  0  0  0
   16.2613  -15.3883    4.3083 N   0  0  0  0  0  0  0  0  0  0  0  0
   16.2686  -13.9923    3.9296 C   0  0  0  0  0  0  0  0  0  0  0  0
   17.6664  -13.4710    4.1064 C   0  0  0  0  0  0  0  0  0  0  0  0
   18.4315  -14.5696    4.7396 C   0  0  0  0  0  0  0  0  0  0  0  0
   17.6184  -15.8081    4.4557 C   0  0  1  0  0  0  0  0  0  0  0  0
   17.8543  -16.6901    5.6546 C   0  0  0  0  0  0  0  0  0  0  0  0
   17.1188  -16.6193    6.6581 O   0  0  0  0  0  0  0  0  0  0  0  0
   18.9253  -17.5932    5.6087 N   0  0  0  0  0  0  0  0  0  0  0  0
   19.2179  -18.5321    6.7029 C   0  0  1  0  0  0  0  0  0  0  0  0
   19.5143  -19.8411    6.0557 C   0  0  0  0  0  0  0  0  0  0  0  0
   18.3546  -20.5773    5.5503 C   0  0  0  0  0  0  0  0  0  0  0  0
   18.1068  -20.6078    4.1796 C   0  0  0  0  0  0  0  0  0  0  0  0
   17.0149  -21.3122    3.7208 C   0  0  0  0  0  0  0  0  0  0  0  0
   16.1823  -21.9758    4.6076 C   0  0  0  0  0  0  0  0  0  0  0  0
   16.4446  -21.9350    5.9746 C   0  0  0  0  0  0  0  0  0  0  0  0
   17.5355  -21.2324    6.4429 C   0  0  0  0  0  0  0  0  0  0  0  0
   20.4134  -18.0230    7.4036 C   0  0  0  0  0  0  0  0  0  0  0  0
   21.3134  -17.4164    6.7874 O   0  0  0  0  0  0  0  0  0  0  0  0
   20.5960  -18.1898    8.7694 O   0  0  0  0  0  0  0  0  0  0  0  0
  2  1  1  1
  3  2  1  0
  4  2  1  0
  5  4  1  0
  5  6  1  6
  7  8  2  0
  7  5  1  0
  9  7  1  0
 10  9  1  0
 11 10  1  0
 12 11  1  0
 12 13  1  0
 13  9  1  0
 13 14  1  1
 14 15  2  0
 16 14  1  0
 17 16  1  0
 17 18  1  6
 19 18  1  0
 19 20  2  0
 21 20  1  0
 22 21  2  0
 23 24  2  0
 23 22  1  0
 24 19  1  0
 25 17  1  0
 26 25  2  0
 27 25  1  0
M  END
$$$$
