LPF.pdb
     RDKit          3D

 27 28  0  0  1  0  0  0  0  0999 V2000
   27.0777  -15.2878  -14.6746 C   0  0  0  0  0  0  0  0  0  0  0  0
   26.8628  -16.7029  -15.2740 C   0  0  1  0  0  0  0  0  0  0  0  0
   28.1685  -16.9926  -15.9854 C   0  0  0  0  0  0  0  0  0  0  0  0
   26.5542  -17.5768  -14.1244 C   0  0  0  0  0  0  0  0  0  0  0  0
   26.3027  -19.0242  -14.3853 C   0  0  2  0  0  0  0  0  0  0  0  0
   25.2425  -19.2349  -15.2817 N   0  0  0  0  0  0  0  0  0  0  0  0
   26.3371  -19.8277  -13.1555 C   0  0  0  0  0  0  0  0  0  0  0  0
   25.2735  -19.8023  -12.4553 O   0  0  0  0  0  0  0  0  0  0  0  0
   27.4229  -20.5993  -12.7021 N   0  0  0  0  0  0  0  0  0  0  0  0
   28.5836  -20.9109  -13.5070 C   0  0  0  0  0  0  0  0  0  0  0  0
   29.6259  -21.5094  -12.6058 C   0  0  0  0  0  0  0  0  0  0  0  0
   29.0864  -21.3963  -11.2313 C   0  0  0  0  0  0  0  0  0  0  0  0
   27.6019  -21.2085  -11.4228 C   0  0  1  0  0  0  0  0  0  0  0  0
   27.1865  -20.3322  -10.2695 C   0  0  0  0  0  0  0  0  0  0  0  0
   27.8536  -19.3281   -9.9535 O   0  0  0  0  0  0  0  0  0  0  0  0
   26.0273  -20.6787   -9.5618 N   0  0  0  0  0  0  0  0  0  0  0  0
   26.0185  -20.8793   -8.1043 C   0  0  1  0  0  0  0  0  0  0  0  0
   26.4493  -19.5841   -7.5066 C   0  0  0  0  0  0  0  0  0  0  0  0
   27.3481  -19.6830   -6.3556 C   0  0  0  0  0  0  0  0  0  0  0  0
   26.9378  -20.3855   -5.2245 C   0  0  0  0  0  0  0  0  0  0  0  0
   27.7999  -20.4751   -4.1532 C   0  0  0  0  0  0  0  0  0  0  0  0
   29.0490  -19.8772   -4.2033 C   0  0  0  0  0  0  0  0  0  0  0  0
   29.4432  -19.1790   -5.3418 C   0  0  0  0  0  0  0  0  0  0  0  0
   28.5867  -19.0843   -6.4191 C   0  0  0  0  0  0  0  0  0  0  0  0
   24.6275  -21.1866   -7.7168 C   0  0  0  0  0  0  0  0  0  0  0  0
   23.6989  -21.1333   -8.5489 O   0  0  0  0  0  0  0  0  0  0  0  0
   24.2843  -21.5480   -6.4214 O   0  0  0  0  0  0  0  0  0  0  0  0
  2  1  1  1
  3  2  1  0
  4  2  1  0
  5  4  1  0
  5  6  1  1
  7  8  2  0
  7  5  1  0
  9  7  1  0
 10  9  1  0
 11 10  1  0
 12 11  1  0
 12 13  1  0
 13  9  1  0
 13 14  1  1
 14 15  2  0
 16 14  1  0
 17 16  1  0
 17 18  1  1
 19 18  1  0
 19 20  2  0
 21 20  1  0
 22 21  2  0
 23 24  2  0
 23 22  1  0
 24 19  1  0
 25 17  1  0
 26 25  2  0
 27 25  1  0
M  END
$$$$
