LPF.pdb
     RDKit          3D

 27 28  0  0  1  0  0  0  0  0999 V2000
   27.0781  -15.6157  -14.6281 C   0  0  0  0  0  0  0  0  0  0  0  0
   26.9648  -17.0605  -15.1831 C   0  0  1  0  0  0  0  0  0  0  0  0
   28.2631  -17.2566  -15.9387 C   0  0  0  0  0  0  0  0  0  0  0  0
   26.7770  -17.9249  -14.0007 C   0  0  0  0  0  0  0  0  0  0  0  0
   26.5332  -19.3803  -14.2218 C   0  0  2  0  0  0  0  0  0  0  0  0
   25.4333  -19.6221  -15.0605 N   0  0  0  0  0  0  0  0  0  0  0  0
   26.6394  -20.1592  -12.9803 C   0  0  0  0  0  0  0  0  0  0  0  0
   25.5973  -20.1664  -12.2480 O   0  0  0  0  0  0  0  0  0  0  0  0
   27.7705  -20.8757  -12.5479 N   0  0  0  0  0  0  0  0  0  0  0  0
   28.9334  -21.1222  -13.3719 C   0  0  0  0  0  0  0  0  0  0  0  0
   30.0190  -21.6705  -12.4901 C   0  0  0  0  0  0  0  0  0  0  0  0
   29.4955  -21.5928  -11.1070 C   0  0  0  0  0  0  0  0  0  0  0  0
   28.0004  -21.4815  -11.2752 C   0  0  1  0  0  0  0  0  0  0  0  0
   27.5578  -20.6340  -10.1105 C   0  0  0  0  0  0  0  0  0  0  0  0
   28.3550  -19.8698   -9.5331 O   0  0  0  0  0  0  0  0  0  0  0  0
   26.2226  -20.7298   -9.6947 N   0  0  0  0  0  0  0  0  0  0  0  0
   25.8412  -20.8825   -8.2821 C   0  0  1  0  0  0  0  0  0  0  0  0
   26.2114  -19.6033   -7.6137 C   0  0  0  0  0  0  0  0  0  0  0  0
   27.1592  -19.7170   -6.5042 C   0  0  0  0  0  0  0  0  0  0  0  0
   27.2831  -20.9303   -5.8306 C   0  0  0  0  0  0  0  0  0  0  0  0
   28.1860  -21.0215   -4.7936 C   0  0  0  0  0  0  0  0  0  0  0  0
   28.9537  -19.9266   -4.4307 C   0  0  0  0  0  0  0  0  0  0  0  0
   28.8174  -18.7213   -5.1147 C   0  0  0  0  0  0  0  0  0  0  0  0
   27.9160  -18.6208   -6.1542 C   0  0  0  0  0  0  0  0  0  0  0  0
   24.3781  -21.0764   -8.2460 C   0  0  0  0  0  0  0  0  0  0  0  0
   23.6769  -20.8886   -9.2612 O   0  0  0  0  0  0  0  0  0  0  0  0
   23.7140  -21.4745   -7.0941 O   0  0  0  0  0  0  0  0  0  0  0  0
  2  1  1  1
  3  2  1  0
  4  2  1  0
  5  4  1  0
  5  6  1  1
  7  8  2  0
  7  5  1  0
  9  7  1  0
 10  9  1  0
 11 10  1  0
 12 11  1  0
 12 13  1  0
 13  9  1  0
 13 14  1  1
 14 15  2  0
 16 14  1  0
 17 16  1  0
 17 18  1  1
 19 18  1  0
 19 20  2  0
 21 20  1  0
 22 21  2  0
 23 24  2  0
 23 22  1  0
 24 19  1  0
 25 17  1  0
 26 25  2  0
 27 25  1  0
M  END
$$$$
