LPF.pdb
     RDKit          3D

 27 28  0  0  1  0  0  0  0  0999 V2000
   21.0062  -17.8460  -13.8258 C   0  0  0  0  0  0  0  0  0  0  0  0
   21.9706  -18.7689  -14.6173 C   0  0  1  0  0  0  0  0  0  0  0  0
   22.7737  -17.8043  -15.4655 C   0  0  0  0  0  0  0  0  0  0  0  0
   22.7360  -19.5108  -13.5954 C   0  0  0  0  0  0  0  0  0  0  0  0
   23.1723  -20.9021  -13.9121 C   0  0  2  0  0  0  0  0  0  0  0  0
   22.0959  -21.7465  -14.2286 N   0  0  0  0  0  0  0  0  0  0  0  0
   24.1850  -21.3980  -12.9699 C   0  0  0  0  0  0  0  0  0  0  0  0
   23.7351  -22.0745  -11.9890 O   0  0  0  0  0  0  0  0  0  0  0  0
   25.5733  -21.1882  -13.0621 N   0  0  0  0  0  0  0  0  0  0  0  0
   26.2421  -20.7264  -14.2586 C   0  0  0  0  0  0  0  0  0  0  0  0
   27.6547  -20.3701  -13.8922 C   0  0  0  0  0  0  0  0  0  0  0  0
   27.7363  -20.4998  -12.4193 C   0  0  0  0  0  0  0  0  0  0  0  0
   26.5653  -21.3772  -12.0523 C   0  0  1  0  0  0  0  0  0  0  0  0
   26.1464  -20.8871  -10.6903 C   0  0  0  0  0  0  0  0  0  0  0  0
   25.2518  -20.0288  -10.5641 O   0  0  0  0  0  0  0  0  0  0  0  0
   26.7923  -21.4246   -9.5683 N   0  0  0  0  0  0  0  0  0  0  0  0
   26.6803  -20.8286   -8.2279 C   0  0  1  0  0  0  0  0  0  0  0  0
   27.8579  -21.3192   -7.4581 C   0  0  0  0  0  0  0  0  0  0  0  0
   28.1081  -20.6468   -6.1823 C   0  0  0  0  0  0  0  0  0  0  0  0
   27.5370  -21.1540   -5.0170 C   0  0  0  0  0  0  0  0  0  0  0  0
   27.7897  -20.5129   -3.8237 C   0  0  0  0  0  0  0  0  0  0  0  0
   28.5960  -19.3865   -3.7870 C   0  0  0  0  0  0  0  0  0  0  0  0
   29.1590  -18.8930   -4.9611 C   0  0  0  0  0  0  0  0  0  0  0  0
   28.9116  -19.5285   -6.1603 C   0  0  0  0  0  0  0  0  0  0  0  0
   26.7509  -19.3637   -8.3970 C   0  0  0  0  0  0  0  0  0  0  0  0
   27.5178  -18.8470   -9.2351 O   0  0  0  0  0  0  0  0  0  0  0  0
   25.9758  -18.4947   -7.6416 O   0  0  0  0  0  0  0  0  0  0  0  0
  2  1  1  1
  3  2  1  0
  4  2  1  0
  5  4  1  0
  5  6  1  1
  7  8  2  0
  7  5  1  0
  9  7  1  0
 10  9  1  0
 11 10  1  0
 12 11  1  0
 12 13  1  0
 13  9  1  0
 13 14  1  1
 14 15  2  0
 16 14  1  0
 17 16  1  0
 17 18  1  1
 19 18  1  0
 19 20  2  0
 21 20  1  0
 22 21  2  0
 23 24  2  0
 23 22  1  0
 24 19  1  0
 25 17  1  0
 26 25  2  0
 27 25  1  0
M  END
$$$$
