KMF.pdb
     RDKit          3D

 29 29  0  0  1  0  0  0  0  0999 V2000
    9.5683  -18.9601   19.2059 N   0  0  0  0  0  0  0  0  0  0  0  0
    8.8947  -18.7515   20.3982 C   0  0  1  0  0  0  0  0  0  0  0  0
    8.8333  -19.6797   21.5101 C   0  0  0  0  0  0  0  0  0  0  0  0
    8.7235  -21.1077   21.4015 C   0  0  0  0  0  0  0  0  0  0  0  0
    7.5375  -21.8996   21.3111 C   0  0  0  0  0  0  0  0  0  0  0  0
    7.4328  -23.3336   21.1217 C   0  0  0  0  0  0  0  0  0  0  0  0
    6.1737  -23.9528   21.0649 N   0  0  0  0  0  0  0  0  0  0  0  0
    9.2933  -17.3782   20.9695 C   0  0  0  0  0  0  0  0  0  0  0  0
   10.4912  -17.0382   20.9079 O   0  0  0  0  0  0  0  0  0  0  0  0
    8.1437  -11.5506   20.1906 C   0  0  0  0  0  0  0  0  0  0  0  0
    7.9742  -13.1799   19.4436 S   0  0  0  0  0  0  0  0  0  0  0  0
    6.8948  -14.2302   20.4720 C   0  0  0  0  0  0  0  0  0  0  0  0
    7.4782  -14.2445   21.8551 C   0  0  0  0  0  0  0  0  0  0  0  0
    8.6743  -15.1603   21.9822 C   0  0  2  0  0  0  0  0  0  0  0  0
    8.3534  -16.5145   21.5481 N   0  0  0  0  0  0  0  0  0  0  0  0
    9.2006  -15.2300   23.3456 C   0  0  0  0  0  0  0  0  0  0  0  0
   10.1532  -14.5103   23.7228 O   0  0  0  0  0  0  0  0  0  0  0  0
    8.6296  -16.1308   24.2796 N   0  0  0  0  0  0  0  0  0  0  0  0
    9.0541  -16.1843   25.6777 C   0  0  1  0  0  0  0  0  0  0  0  0
    7.8897  -15.8413   26.5463 C   0  0  0  0  0  0  0  0  0  0  0  0
    7.4914  -14.4247   26.5299 C   0  0  0  0  0  0  0  0  0  0  0  0
    8.4040  -13.4417   26.8706 C   0  0  0  0  0  0  0  0  0  0  0  0
    8.1114  -12.0972   26.8740 C   0  0  0  0  0  0  0  0  0  0  0  0
    6.8400  -11.7009   26.5193 C   0  0  0  0  0  0  0  0  0  0  0  0
    5.9082  -12.6665   26.1743 C   0  0  0  0  0  0  0  0  0  0  0  0
    6.2194  -14.0083   26.1766 C   0  0  0  0  0  0  0  0  0  0  0  0
    9.5934  -17.5274   25.9854 C   0  0  0  0  0  0  0  0  0  0  0  0
    9.6484  -18.5299   25.0425 O   0  0  0  0  0  0  0  0  0  0  0  0
   10.0193  -17.7777   27.1440 O   0  0  0  0  0  0  0  0  0  0  0  0
  2  1  1  6
  3  2  1  0
  4  3  1  0
  5  4  1  0
  6  5  1  0
  7  6  1  0
  8 15  1  0
  8  2  1  0
  9  8  2  0
 10 11  1  0
 11 12  1  0
 13 12  1  0
 14 13  1  1
 14 15  1  0
 16 18  1  0
 16 14  1  0
 17 16  2  0
 19 18  1  0
 19 27  1  0
 19 20  1  1
 21 22  2  0
 21 20  1  0
 23 22  1  0
 24 23  2  0
 25 24  1  0
 25 26  2  0
 26 21  1  0
 27 28  1  0
 29 27  2  0
M  END
$$$$
