KMF.pdb
     RDKit          3D

 29 29  0  0  1  0  0  0  0  0999 V2000
    9.6761  -16.5863   20.2246 N   0  0  0  0  0  0  0  0  0  0  0  0
    9.1230  -17.0733   21.3976 C   0  0  1  0  0  0  0  0  0  0  0  0
    9.3213  -18.4033   21.9393 C   0  0  0  0  0  0  0  0  0  0  0  0
    9.1896  -19.6320   21.2072 C   0  0  0  0  0  0  0  0  0  0  0  0
    9.3118  -20.9697   21.6944 C   0  0  0  0  0  0  0  0  0  0  0  0
    9.2271  -22.2062   20.9413 C   0  0  0  0  0  0  0  0  0  0  0  0
   10.1559  -23.2365   21.1602 N   0  0  0  0  0  0  0  0  0  0  0  0
    9.3898  -16.0708   22.5357 C   0  0  0  0  0  0  0  0  0  0  0  0
   10.5549  -15.6576   22.6975 O   0  0  0  0  0  0  0  0  0  0  0  0
    6.4022  -10.6041   27.3229 C   0  0  0  0  0  0  0  0  0  0  0  0
    6.1270  -11.9336   26.1405 S   0  0  0  0  0  0  0  0  0  0  0  0
    7.6383  -12.9397   25.9679 C   0  0  0  0  0  0  0  0  0  0  0  0
    7.3958  -13.9154   24.8532 C   0  0  0  0  0  0  0  0  0  0  0  0
    8.6063  -14.7644   24.5375 C   0  0  2  0  0  0  0  0  0  0  0  0
    8.3671  -15.6188   23.3807 N   0  0  0  0  0  0  0  0  0  0  0  0
    9.0184  -15.6135   25.6555 C   0  0  0  0  0  0  0  0  0  0  0  0
    8.3952  -16.6569   25.9562 O   0  0  0  0  0  0  0  0  0  0  0  0
   10.1518  -15.2618   26.4311 N   0  0  0  0  0  0  0  0  0  0  0  0
   10.6533  -16.1062   27.5142 C   0  0  1  0  0  0  0  0  0  0  0  0
   12.1295  -16.2618   27.3573 C   0  0  0  0  0  0  0  0  0  0  0  0
   12.5662  -16.8370   26.0751 C   0  0  0  0  0  0  0  0  0  0  0  0
   12.4345  -18.1947   25.8410 C   0  0  0  0  0  0  0  0  0  0  0  0
   12.8128  -18.8068   24.6683 C   0  0  0  0  0  0  0  0  0  0  0  0
   13.3540  -18.0299   23.6668 C   0  0  0  0  0  0  0  0  0  0  0  0
   13.4964  -16.6679   23.8773 C   0  0  0  0  0  0  0  0  0  0  0  0
   13.1119  -16.0725   25.0583 C   0  0  0  0  0  0  0  0  0  0  0  0
   10.2988  -15.5074   28.8201 C   0  0  0  0  0  0  0  0  0  0  0  0
    9.6031  -14.3229   28.9197 O   0  0  0  0  0  0  0  0  0  0  0  0
   10.6384  -16.0881   29.8849 O   0  0  0  0  0  0  0  0  0  0  0  0
  2  1  1  6
  3  2  1  0
  4  3  1  0
  5  4  1  0
  6  5  1  0
  7  6  1  0
  8 15  1  0
  8  2  1  0
  9  8  2  0
 10 11  1  0
 11 12  1  0
 13 12  1  0
 14 13  1  1
 14 15  1  0
 16 18  1  0
 16 14  1  0
 17 16  2  0
 19 18  1  0
 19 27  1  0
 19 20  1  6
 21 22  2  0
 21 20  1  0
 23 22  1  0
 24 23  2  0
 25 24  1  0
 25 26  2  0
 26 21  1  0
 27 28  1  0
 29 27  2  0
M  END
$$$$
