KMF.pdb
     RDKit          3D

 29 29  0  0  1  0  0  0  0  0999 V2000
    7.9870  -18.3042   20.0616 N   0  0  0  0  0  0  0  0  0  0  0  0
    8.8986  -17.4672   19.4392 C   0  0  1  0  0  0  0  0  0  0  0  0
    8.7419  -16.8700   18.1275 C   0  0  0  0  0  0  0  0  0  0  0  0
    8.4642  -17.5834   16.9123 C   0  0  0  0  0  0  0  0  0  0  0  0
    7.3928  -17.3764   15.9897 C   0  0  0  0  0  0  0  0  0  0  0  0
    7.4772  -16.9924   14.5938 C   0  0  0  0  0  0  0  0  0  0  0  0
    8.0095  -17.8792   13.6439 N   0  0  0  0  0  0  0  0  0  0  0  0
    9.2946  -16.3403   20.4112 C   0  0  0  0  0  0  0  0  0  0  0  0
   10.0659  -15.4508   20.0010 O   0  0  0  0  0  0  0  0  0  0  0  0
    6.3855  -13.2879   25.8408 C   0  0  0  0  0  0  0  0  0  0  0  0
    6.7577  -12.7176   24.1741 S   0  0  0  0  0  0  0  0  0  0  0  0
    7.0261  -14.1443   23.0703 C   0  0  0  0  0  0  0  0  0  0  0  0
    8.1250  -14.9702   23.6734 C   0  0  0  0  0  0  0  0  0  0  0  0
    9.2327  -15.2854   22.6939 C   0  0  2  0  0  0  0  0  0  0  0  0
    8.8140  -16.2928   21.7268 N   0  0  0  0  0  0  0  0  0  0  0  0
   10.4560  -15.7563   23.3439 C   0  0  0  0  0  0  0  0  0  0  0  0
   11.5797  -15.2854   23.0554 O   0  0  0  0  0  0  0  0  0  0  0  0
   10.3875  -16.7727   24.3298 N   0  0  0  0  0  0  0  0  0  0  0  0
   10.7366  -16.5326   25.7291 C   0  0  1  0  0  0  0  0  0  0  0  0
    9.7911  -15.5249   26.2936 C   0  0  0  0  0  0  0  0  0  0  0  0
   10.0194  -15.1725   27.7039 C   0  0  0  0  0  0  0  0  0  0  0  0
   10.1284  -16.1668   28.6604 C   0  0  0  0  0  0  0  0  0  0  0  0
   10.3475  -15.9196   29.9961 C   0  0  0  0  0  0  0  0  0  0  0  0
   10.4658  -14.6108   30.4111 C   0  0  0  0  0  0  0  0  0  0  0  0
   10.3602  -13.5973   29.4723 C   0  0  0  0  0  0  0  0  0  0  0  0
   10.1407  -13.8639   28.1389 C   0  0  0  0  0  0  0  0  0  0  0  0
   10.6959  -17.8068   26.4803 C   0  0  0  0  0  0  0  0  0  0  0  0
   11.6327  -18.1240   27.4387 O   0  0  0  0  0  0  0  0  0  0  0  0
    9.7806  -18.6396   26.2459 O   0  0  0  0  0  0  0  0  0  0  0  0
  2  1  1  1
  3  2  1  0
  4  3  1  0
  5  4  1  0
  6  5  1  0
  7  6  1  0
  8 15  1  0
  8  2  1  0
  9  8  2  0
 10 11  1  0
 11 12  1  0
 13 12  1  0
 14 13  1  1
 14 15  1  0
 16 18  1  0
 16 14  1  0
 17 16  2  0
 19 18  1  0
 19 27  1  0
 19 20  1  1
 21 22  2  0
 21 20  1  0
 23 22  1  0
 24 23  2  0
 25 24  1  0
 25 26  2  0
 26 21  1  0
 27 28  1  0
 29 27  2  0
M  END
$$$$
