KMF.pdb
     RDKit          3D

 29 29  0  0  1  0  0  0  0  0999 V2000
    8.7313  -19.0063   20.8336 N   0  0  0  0  0  0  0  0  0  0  0  0
    9.8831  -18.3505   20.4308 C   0  0  1  0  0  0  0  0  0  0  0  0
   10.3186  -18.1681   19.0601 C   0  0  0  0  0  0  0  0  0  0  0  0
    9.4830  -18.2738   17.8967 C   0  0  0  0  0  0  0  0  0  0  0  0
    9.8494  -18.1054   16.5258 C   0  0  0  0  0  0  0  0  0  0  0  0
    9.0025  -18.2192   15.3541 C   0  0  0  0  0  0  0  0  0  0  0  0
    9.5233  -17.9694   14.0740 N   0  0  0  0  0  0  0  0  0  0  0  0
    9.9472  -16.9743   21.1188 C   0  0  0  0  0  0  0  0  0  0  0  0
   11.0091  -16.3253   21.0431 O   0  0  0  0  0  0  0  0  0  0  0  0
    7.6681  -12.3407   18.6292 C   0  0  0  0  0  0  0  0  0  0  0  0
    8.1661  -12.8122   20.2939 S   0  0  0  0  0  0  0  0  0  0  0  0
    7.1184  -14.1776   20.8969 C   0  0  0  0  0  0  0  0  0  0  0  0
    7.5186  -14.4485   22.3182 C   0  0  0  0  0  0  0  0  0  0  0  0
    8.8673  -15.1219   22.4340 C   0  0  2  0  0  0  0  0  0  0  0  0
    8.8547  -16.4428   21.8173 N   0  0  0  0  0  0  0  0  0  0  0  0
    9.3182  -15.2679   23.8182 C   0  0  0  0  0  0  0  0  0  0  0  0
   10.1510  -14.4835   24.3270 O   0  0  0  0  0  0  0  0  0  0  0  0
    8.8098  -16.3199   24.6210 N   0  0  0  0  0  0  0  0  0  0  0  0
    9.0729  -16.4082   26.0565 C   0  0  1  0  0  0  0  0  0  0  0  0
    7.8053  -16.1319   26.7947 C   0  0  0  0  0  0  0  0  0  0  0  0
    7.3727  -14.7254   26.7924 C   0  0  0  0  0  0  0  0  0  0  0  0
    6.1624  -14.3709   26.2224 C   0  0  0  0  0  0  0  0  0  0  0  0
    5.6852  -13.0808   26.1856 C   0  0  0  0  0  0  0  0  0  0  0  0
    6.4507  -12.0812   26.7460 C   0  0  0  0  0  0  0  0  0  0  0  0
    7.6666  -12.4109   27.3228 C   0  0  0  0  0  0  0  0  0  0  0  0
    8.1281  -13.7084   27.3502 C   0  0  0  0  0  0  0  0  0  0  0  0
    9.6202  -17.7435   26.3833 C   0  0  0  0  0  0  0  0  0  0  0  0
    9.9917  -18.0913   27.6631 O   0  0  0  0  0  0  0  0  0  0  0  0
    9.7578  -18.6011   25.4712 O   0  0  0  0  0  0  0  0  0  0  0  0
  2  1  1  6
  3  2  1  0
  4  3  1  0
  5  4  1  0
  6  5  1  0
  7  6  1  0
  8 15  1  0
  8  2  1  0
  9  8  2  0
 10 11  1  0
 11 12  1  0
 13 12  1  0
 14 13  1  1
 14 15  1  0
 16 18  1  0
 16 14  1  0
 17 16  2  0
 19 18  1  0
 19 27  1  0
 19 20  1  1
 21 22  2  0
 21 20  1  0
 23 22  1  0
 24 23  2  0
 25 24  1  0
 25 26  2  0
 26 21  1  0
 27 28  1  0
 29 27  2  0
M  END
$$$$
