KMF.pdb
     RDKit          3D

 29 29  0  0  1  0  0  0  0  0999 V2000
    8.7593  -19.6562   21.1473 N   0  0  0  0  0  0  0  0  0  0  0  0
    9.9680  -19.0553   20.8361 C   0  0  1  0  0  0  0  0  0  0  0  0
   10.6895  -19.2007   19.5870 C   0  0  0  0  0  0  0  0  0  0  0  0
   10.3732  -20.1353   18.5432 C   0  0  0  0  0  0  0  0  0  0  0  0
   11.2331  -21.0931   17.9227 C   0  0  0  0  0  0  0  0  0  0  0  0
   10.9150  -22.0182   16.8521 C   0  0  0  0  0  0  0  0  0  0  0  0
   11.0365  -21.6213   15.5105 N   0  0  0  0  0  0  0  0  0  0  0  0
    9.8753  -17.5483   21.1387 C   0  0  0  0  0  0  0  0  0  0  0  0
   10.8767  -16.8390   20.9179 O   0  0  0  0  0  0  0  0  0  0  0  0
    7.3860  -11.0344   20.3124 C   0  0  0  0  0  0  0  0  0  0  0  0
    7.6127  -12.8181   20.2220 S   0  0  0  0  0  0  0  0  0  0  0  0
    6.9271  -13.6121   21.7138 C   0  0  0  0  0  0  0  0  0  0  0  0
    7.1273  -15.0919   21.5596 C   0  0  0  0  0  0  0  0  0  0  0  0
    8.5487  -15.5275   21.8346 C   0  0  2  0  0  0  0  0  0  0  0  0
    8.7076  -16.9647   21.6487 N   0  0  0  0  0  0  0  0  0  0  0  0
    9.0014  -15.1883   23.1839 C   0  0  0  0  0  0  0  0  0  0  0  0
    9.0728  -14.0017   23.5771 O   0  0  0  0  0  0  0  0  0  0  0  0
    9.3737  -16.2173   24.0853 N   0  0  0  0  0  0  0  0  0  0  0  0
    9.3687  -16.0293   25.5352 C   0  0  1  0  0  0  0  0  0  0  0  0
    7.9671  -15.7757   25.9815 C   0  0  0  0  0  0  0  0  0  0  0  0
    7.5231  -14.3759   25.8876 C   0  0  0  0  0  0  0  0  0  0  0  0
    8.0819  -13.4124   26.7091 C   0  0  0  0  0  0  0  0  0  0  0  0
    7.7258  -12.0837   26.6782 C   0  0  0  0  0  0  0  0  0  0  0  0
    6.7589  -11.6836   25.7813 C   0  0  0  0  0  0  0  0  0  0  0  0
    6.1841  -12.6297   24.9482 C   0  0  0  0  0  0  0  0  0  0  0  0
    6.5535  -13.9559   24.9934 C   0  0  0  0  0  0  0  0  0  0  0  0
    9.9499  -17.2191   26.1956 C   0  0  0  0  0  0  0  0  0  0  0  0
   10.4218  -18.2979   25.4812 O   0  0  0  0  0  0  0  0  0  0  0  0
   10.0213  -17.2618   27.4524 O   0  0  0  0  0  0  0  0  0  0  0  0
  2  1  1  6
  3  2  1  0
  4  3  1  0
  5  4  1  0
  6  5  1  0
  7  6  1  0
  8 15  1  0
  8  2  1  0
  9  8  2  0
 10 11  1  0
 11 12  1  0
 13 12  1  0
 14 13  1  1
 14 15  1  0
 16 18  1  0
 16 14  1  0
 17 16  2  0
 19 18  1  0
 19 27  1  0
 19 20  1  1
 21 22  2  0
 21 20  1  0
 23 22  1  0
 24 23  2  0
 25 24  1  0
 25 26  2  0
 26 21  1  0
 27 28  1  0
 29 27  2  0
M  END
$$$$
