KMF.pdb
     RDKit          3D

 29 29  0  0  1  0  0  0  0  0999 V2000
    8.3757  -16.1344   19.2098 N   0  0  0  0  0  0  0  0  0  0  0  0
    7.9882  -16.9166   20.2854 C   0  0  1  0  0  0  0  0  0  0  0  0
    8.1166  -18.3578   20.3745 C   0  0  0  0  0  0  0  0  0  0  0  0
    8.2832  -19.2523   19.2631 C   0  0  0  0  0  0  0  0  0  0  0  0
    8.3111  -20.6809   19.2735 C   0  0  0  0  0  0  0  0  0  0  0  0
    8.5375  -21.5783   18.1570 C   0  0  0  0  0  0  0  0  0  0  0  0
    8.6097  -22.9655   18.3637 N   0  0  0  0  0  0  0  0  0  0  0  0
    8.5769  -16.3234   21.5788 C   0  0  0  0  0  0  0  0  0  0  0  0
    9.7356  -15.8644   21.5439 O   0  0  0  0  0  0  0  0  0  0  0  0
    7.4337  -11.6225   26.0601 C   0  0  0  0  0  0  0  0  0  0  0  0
    6.2401  -12.9627   25.9161 S   0  0  0  0  0  0  0  0  0  0  0  0
    6.6003  -13.9645   24.4354 C   0  0  0  0  0  0  0  0  0  0  0  0
    7.2431  -15.2365   24.9069 C   0  0  0  0  0  0  0  0  0  0  0  0
    8.3657  -15.7001   24.0067 C   0  0  2  0  0  0  0  0  0  0  0  0
    7.8499  -16.2882   22.7765 N   0  0  0  0  0  0  0  0  0  0  0  0
    9.2470  -16.6776   24.6461 C   0  0  0  0  0  0  0  0  0  0  0  0
    9.0659  -17.9101   24.5211 O   0  0  0  0  0  0  0  0  0  0  0  0
   10.3409  -16.2364   25.4325 N   0  0  0  0  0  0  0  0  0  0  0  0
   11.2824  -17.1645   26.0569 C   0  0  1  0  0  0  0  0  0  0  0  0
   12.1673  -16.3993   26.9840 C   0  0  0  0  0  0  0  0  0  0  0  0
   11.4772  -15.7250   28.0951 C   0  0  0  0  0  0  0  0  0  0  0  0
   10.8858  -14.4892   27.8989 C   0  0  0  0  0  0  0  0  0  0  0  0
   10.2179  -13.7982   28.8837 C   0  0  0  0  0  0  0  0  0  0  0  0
   10.1296  -14.3629   30.1377 C   0  0  0  0  0  0  0  0  0  0  0  0
   10.7139  -15.5995   30.3591 C   0  0  0  0  0  0  0  0  0  0  0  0
   11.3786  -16.2767   29.3608 C   0  0  0  0  0  0  0  0  0  0  0  0
   10.5390  -18.2322   26.7617 C   0  0  0  0  0  0  0  0  0  0  0  0
   11.1595  -19.3635   27.2433 O   0  0  0  0  0  0  0  0  0  0  0  0
    9.2965  -18.1174   26.9337 O   0  0  0  0  0  0  0  0  0  0  0  0
  2  1  1  6
  3  2  1  0
  4  3  1  0
  5  4  1  0
  6  5  1  0
  7  6  1  0
  8 15  1  0
  8  2  1  0
  9  8  2  0
 10 11  1  0
 11 12  1  0
 13 12  1  0
 14 13  1  1
 14 15  1  0
 16 18  1  0
 16 14  1  0
 17 16  2  0
 19 18  1  0
 19 27  1  0
 19 20  1  1
 21 22  2  0
 21 20  1  0
 23 22  1  0
 24 23  2  0
 25 24  1  0
 25 26  2  0
 26 21  1  0
 27 28  1  0
 29 27  2  0
M  END
$$$$
