KMF.pdb
     RDKit          3D

 29 29  0  0  1  0  0  0  0  0999 V2000
    7.6815  -16.7269   20.1444 N   0  0  0  0  0  0  0  0  0  0  0  0
    7.9000  -15.5700   20.8744 C   0  0  1  0  0  0  0  0  0  0  0  0
    7.3671  -14.2584   20.5626 C   0  0  0  0  0  0  0  0  0  0  0  0
    7.5318  -13.5641   19.3161 C   0  0  0  0  0  0  0  0  0  0  0  0
    7.3676  -14.0734   17.9911 C   0  0  0  0  0  0  0  0  0  0  0  0
    7.5161  -13.3625   16.7358 C   0  0  0  0  0  0  0  0  0  0  0  0
    8.5971  -13.6423   15.8843 N   0  0  0  0  0  0  0  0  0  0  0  0
    7.5989  -15.8457   22.3592 C   0  0  0  0  0  0  0  0  0  0  0  0
    7.0587  -14.9437   23.0294 O   0  0  0  0  0  0  0  0  0  0  0  0
    6.4055  -21.5499   25.7663 C   0  0  0  0  0  0  0  0  0  0  0  0
    6.2541  -21.2829   23.9923 S   0  0  0  0  0  0  0  0  0  0  0  0
    6.3246  -19.4991   23.6201 C   0  0  0  0  0  0  0  0  0  0  0  0
    7.3823  -18.9038   24.5035 C   0  0  0  0  0  0  0  0  0  0  0  0
    7.5254  -17.4089   24.3286 C   0  0  2  0  0  0  0  0  0  0  0  0
    7.9135  -17.0697   22.9649 N   0  0  0  0  0  0  0  0  0  0  0  0
    8.5017  -16.8156   25.2427 C   0  0  0  0  0  0  0  0  0  0  0  0
    9.7012  -16.6624   24.9182 O   0  0  0  0  0  0  0  0  0  0  0  0
    8.0976  -16.3966   26.5354 N   0  0  0  0  0  0  0  0  0  0  0  0
    9.0443  -15.8861   27.5257 C   0  0  1  0  0  0  0  0  0  0  0  0
    8.4783  -14.6474   28.1368 C   0  0  0  0  0  0  0  0  0  0  0  0
    8.0171  -13.6303   27.1786 C   0  0  0  0  0  0  0  0  0  0  0  0
    6.6640  -13.3845   27.0225 C   0  0  0  0  0  0  0  0  0  0  0  0
    6.1541  -12.4476   26.1534 C   0  0  0  0  0  0  0  0  0  0  0  0
    7.0348  -11.7094   25.3927 C   0  0  0  0  0  0  0  0  0  0  0  0
    8.3945  -11.9371   25.5308 C   0  0  0  0  0  0  0  0  0  0  0  0
    8.8868  -12.8797   26.4063 C   0  0  0  0  0  0  0  0  0  0  0  0
    9.3147  -16.9270   28.5420 C   0  0  0  0  0  0  0  0  0  0  0  0
   10.2639  -16.7627   29.5263 O   0  0  0  0  0  0  0  0  0  0  0  0
    8.6639  -18.0051   28.5185 O   0  0  0  0  0  0  0  0  0  0  0  0
  2  1  1  6
  3  2  1  0
  4  3  1  0
  5  4  1  0
  6  5  1  0
  7  6  1  0
  8 15  1  0
  8  2  1  0
  9  8  2  0
 10 11  1  0
 11 12  1  0
 13 12  1  0
 14 13  1  6
 14 15  1  0
 16 18  1  0
 16 14  1  0
 17 16  2  0
 19 18  1  0
 19 27  1  0
 19 20  1  1
 21 22  2  0
 21 20  1  0
 23 22  1  0
 24 23  2  0
 25 24  1  0
 25 26  2  0
 26 21  1  0
 27 28  1  0
 29 27  2  0
M  END
$$$$
