KMF.pdb
     RDKit          3D

 29 29  0  0  1  0  0  0  0  0999 V2000
    7.4103  -17.3757   19.5730 N   0  0  0  0  0  0  0  0  0  0  0  0
    8.5514  -16.6154   19.3757 C   0  0  1  0  0  0  0  0  0  0  0  0
    8.7466  -15.6382   18.3229 C   0  0  0  0  0  0  0  0  0  0  0  0
    8.8079  -15.9254   16.9169 C   0  0  0  0  0  0  0  0  0  0  0  0
    7.8243  -16.5642   16.1006 C   0  0  0  0  0  0  0  0  0  0  0  0
    7.8355  -16.7411   14.6613 C   0  0  0  0  0  0  0  0  0  0  0  0
    6.7977  -17.4393   14.0230 N   0  0  0  0  0  0  0  0  0  0  0  0
    8.9456  -15.9429   20.7038 C   0  0  0  0  0  0  0  0  0  0  0  0
   10.0209  -15.3134   20.7504 O   0  0  0  0  0  0  0  0  0  0  0  0
    6.2455  -11.3740   25.7354 C   0  0  0  0  0  0  0  0  0  0  0  0
    6.3973  -13.1607   25.5739 S   0  0  0  0  0  0  0  0  0  0  0  0
    7.4161  -13.5727   24.1186 C   0  0  0  0  0  0  0  0  0  0  0  0
    7.4136  -15.0680   23.9853 C   0  0  0  0  0  0  0  0  0  0  0  0
    8.5722  -15.5900   23.1662 C   0  0  2  0  0  0  0  0  0  0  0  0
    8.1347  -16.0210   21.8441 N   0  0  0  0  0  0  0  0  0  0  0  0
    9.2680  -16.7077   23.8044 C   0  0  0  0  0  0  0  0  0  0  0  0
    8.7085  -17.8117   23.9935 O   0  0  0  0  0  0  0  0  0  0  0  0
   10.6126  -16.5559   24.2271 N   0  0  0  0  0  0  0  0  0  0  0  0
   10.9790  -16.3942   25.6332 C   0  0  1  0  0  0  0  0  0  0  0  0
   10.3501  -15.1440   26.1524 C   0  0  0  0  0  0  0  0  0  0  0  0
   10.4823  -14.9314   27.6025 C   0  0  0  0  0  0  0  0  0  0  0  0
   10.1089  -13.7235   28.1653 C   0  0  0  0  0  0  0  0  0  0  0  0
   10.1961  -13.4494   29.5109 C   0  0  0  0  0  0  0  0  0  0  0  0
   10.6819  -14.4284   30.3504 C   0  0  0  0  0  0  0  0  0  0  0  0
   11.0627  -15.6464   29.8108 C   0  0  0  0  0  0  0  0  0  0  0  0
   10.9682  -15.9028   28.4608 C   0  0  0  0  0  0  0  0  0  0  0  0
   10.5522  -17.5848   26.4012 C   0  0  0  0  0  0  0  0  0  0  0  0
    9.3966  -18.2733   26.1056 O   0  0  0  0  0  0  0  0  0  0  0  0
   11.2584  -17.9938   27.3606 O   0  0  0  0  0  0  0  0  0  0  0  0
  2  1  1  1
  3  2  1  0
  4  3  1  0
  5  4  1  0
  6  5  1  0
  7  6  1  0
  8 15  1  0
  8  2  1  0
  9  8  2  0
 10 11  1  0
 11 12  1  0
 13 12  1  0
 14 13  1  1
 14 15  1  0
 16 18  1  0
 16 14  1  0
 17 16  2  0
 19 18  1  0
 19 27  1  0
 19 20  1  1
 21 22  2  0
 21 20  1  0
 23 22  1  0
 24 23  2  0
 25 24  1  0
 25 26  2  0
 26 21  1  0
 27 28  1  0
 29 27  2  0
M  END
$$$$
