KMF.pdb
     RDKit          3D

 29 29  0  0  1  0  0  0  0  0999 V2000
    9.2947  -17.0084   18.8379 N   0  0  0  0  0  0  0  0  0  0  0  0
    8.7369  -17.4333   20.0326 C   0  0  1  0  0  0  0  0  0  0  0  0
    8.7003  -18.8012   20.5112 C   0  0  0  0  0  0  0  0  0  0  0  0
    7.9298  -19.8677   19.9351 C   0  0  0  0  0  0  0  0  0  0  0  0
    6.7445  -19.7749   19.1423 C   0  0  0  0  0  0  0  0  0  0  0  0
    5.9954  -20.8526   18.5255 C   0  0  0  0  0  0  0  0  0  0  0  0
    4.9028  -20.5708   17.6894 N   0  0  0  0  0  0  0  0  0  0  0  0
    9.2776  -16.5608   21.1806 C   0  0  0  0  0  0  0  0  0  0  0  0
   10.5028  -16.3337   21.2230 O   0  0  0  0  0  0  0  0  0  0  0  0
    7.0665  -11.2352   25.8797 C   0  0  0  0  0  0  0  0  0  0  0  0
    6.7955  -13.0127   25.9717 S   0  0  0  0  0  0  0  0  0  0  0  0
    8.2403  -13.9011   25.3017 C   0  0  0  0  0  0  0  0  0  0  0  0
    7.8064  -14.5484   24.0186 C   0  0  0  0  0  0  0  0  0  0  0  0
    8.9278  -15.2812   23.3179 C   0  0  2  0  0  0  0  0  0  0  0  0
    8.4357  -16.0239   22.1640 N   0  0  0  0  0  0  0  0  0  0  0  0
    9.6379  -16.2142   24.1931 C   0  0  0  0  0  0  0  0  0  0  0  0
    9.1278  -17.2995   24.5530 O   0  0  0  0  0  0  0  0  0  0  0  0
   10.9399  -15.8985   24.6565 N   0  0  0  0  0  0  0  0  0  0  0  0
   11.6097  -16.6724   25.7006 C   0  0  1  0  0  0  0  0  0  0  0  0
   10.6240  -16.9765   26.7796 C   0  0  0  0  0  0  0  0  0  0  0  0
   10.2170  -15.8243   27.5995 C   0  0  0  0  0  0  0  0  0  0  0  0
   11.1021  -15.2692   28.5071 C   0  0  0  0  0  0  0  0  0  0  0  0
   10.8000  -14.1895   29.3046 C   0  0  0  0  0  0  0  0  0  0  0  0
    9.5474  -13.6246   29.1985 C   0  0  0  0  0  0  0  0  0  0  0  0
    8.6432  -14.1626   28.2970 C   0  0  0  0  0  0  0  0  0  0  0  0
    8.9636  -15.2442   27.5066 C   0  0  0  0  0  0  0  0  0  0  0  0
   12.1855  -17.9046   25.1180 C   0  0  0  0  0  0  0  0  0  0  0  0
   11.9828  -18.2587   23.8026 O   0  0  0  0  0  0  0  0  0  0  0  0
   12.8859  -18.6657   25.8367 O   0  0  0  0  0  0  0  0  0  0  0  0
  2  1  1  6
  3  2  1  0
  4  3  1  0
  5  4  1  0
  6  5  1  0
  7  6  1  0
  8 15  1  0
  8  2  1  0
  9  8  2  0
 10 11  1  0
 11 12  1  0
 13 12  1  0
 14 13  1  1
 14 15  1  0
 16 18  1  0
 16 14  1  0
 17 16  2  0
 19 18  1  0
 19 27  1  0
 19 20  1  1
 21 22  2  0
 21 20  1  0
 23 22  1  0
 24 23  2  0
 25 24  1  0
 25 26  2  0
 26 21  1  0
 27 28  1  0
 29 27  2  0
M  END
$$$$
