KMF.pdb
     RDKit          3D

 29 29  0  0  1  0  0  0  0  0999 V2000
    7.2847  -18.4127   20.9464 N   0  0  0  0  0  0  0  0  0  0  0  0
    8.4494  -17.7817   20.5414 C   0  0  1  0  0  0  0  0  0  0  0  0
    8.8903  -17.6159   19.1703 C   0  0  0  0  0  0  0  0  0  0  0  0
    8.8255  -18.6193   18.1446 C   0  0  0  0  0  0  0  0  0  0  0  0
    9.1763  -18.4979   16.7647 C   0  0  0  0  0  0  0  0  0  0  0  0
    8.9361  -19.4471   15.6949 C   0  0  0  0  0  0  0  0  0  0  0  0
    9.2382  -19.1107   14.3653 N   0  0  0  0  0  0  0  0  0  0  0  0
    8.5390  -16.4028   21.2211 C   0  0  0  0  0  0  0  0  0  0  0  0
    8.9631  -15.4406   20.5511 O   0  0  0  0  0  0  0  0  0  0  0  0
    5.5352  -12.1639   25.8248 C   0  0  0  0  0  0  0  0  0  0  0  0
    6.7862  -13.2591   26.5156 S   0  0  0  0  0  0  0  0  0  0  0  0
    8.0954  -13.5683   25.2843 C   0  0  0  0  0  0  0  0  0  0  0  0
    7.6380  -14.7146   24.4298 C   0  0  0  0  0  0  0  0  0  0  0  0
    8.6455  -15.1010   23.3709 C   0  0  2  0  0  0  0  0  0  0  0  0
    8.1597  -16.2080   22.5562 N   0  0  0  0  0  0  0  0  0  0  0  0
    9.9452  -15.4785   23.9268 C   0  0  0  0  0  0  0  0  0  0  0  0
   11.0007  -14.8935   23.5929 O   0  0  0  0  0  0  0  0  0  0  0  0
   10.0322  -16.5328   24.8705 N   0  0  0  0  0  0  0  0  0  0  0  0
   11.2825  -16.8817   25.5433 C   0  0  1  0  0  0  0  0  0  0  0  0
   10.9957  -17.1400   26.9853 C   0  0  0  0  0  0  0  0  0  0  0  0
   10.4998  -15.9802   27.7431 C   0  0  0  0  0  0  0  0  0  0  0  0
    9.9768  -16.1511   29.0130 C   0  0  0  0  0  0  0  0  0  0  0  0
    9.4991  -15.1185   29.7867 C   0  0  0  0  0  0  0  0  0  0  0  0
    9.5408  -13.8400   29.2739 C   0  0  0  0  0  0  0  0  0  0  0  0
   10.0597  -13.6430   28.0044 C   0  0  0  0  0  0  0  0  0  0  0  0
   10.5335  -14.6894   27.2443 C   0  0  0  0  0  0  0  0  0  0  0  0
   11.8936  -18.0573   24.8846 C   0  0  0  0  0  0  0  0  0  0  0  0
   13.0933  -18.5906   25.3007 O   0  0  0  0  0  0  0  0  0  0  0  0
   11.3096  -18.5987   23.9088 O   0  0  0  0  0  0  0  0  0  0  0  0
  2  1  1  6
  3  2  1  0
  4  3  1  0
  5  4  1  0
  6  5  1  0
  7  6  1  0
  8 15  1  0
  8  2  1  0
  9  8  2  0
 10 11  1  0
 11 12  1  0
 13 12  1  0
 14 13  1  1
 14 15  1  0
 16 18  1  0
 16 14  1  0
 17 16  2  0
 19 18  1  0
 19 27  1  0
 19 20  1  1
 21 22  2  0
 21 20  1  0
 23 22  1  0
 24 23  2  0
 25 24  1  0
 25 26  2  0
 26 21  1  0
 27 28  1  0
 29 27  2  0
M  END
$$$$
