KMF.pdb
     RDKit          3D

 29 29  0  0  1  0  0  0  0  0999 V2000
    7.6683  -18.2902   21.4910 N   0  0  0  0  0  0  0  0  0  0  0  0
    8.9158  -17.9875   20.9702 C   0  0  1  0  0  0  0  0  0  0  0  0
    9.2426  -17.8807   19.5619 C   0  0  0  0  0  0  0  0  0  0  0  0
    8.3342  -18.1109   18.4734 C   0  0  0  0  0  0  0  0  0  0  0  0
    8.0139  -17.2378   17.3885 C   0  0  0  0  0  0  0  0  0  0  0  0
    7.0612  -17.4561   16.3172 C   0  0  0  0  0  0  0  0  0  0  0  0
    7.0010  -18.6966   15.6616 N   0  0  0  0  0  0  0  0  0  0  0  0
    9.4593  -16.7245   21.6637 C   0  0  0  0  0  0  0  0  0  0  0  0
   10.4280  -16.1363   21.1440 O   0  0  0  0  0  0  0  0  0  0  0  0
    6.5378  -12.5639   25.7558 C   0  0  0  0  0  0  0  0  0  0  0  0
    5.9663  -12.8942   24.0808 S   0  0  0  0  0  0  0  0  0  0  0  0
    7.2148  -13.8665   23.1743 C   0  0  0  0  0  0  0  0  0  0  0  0
    8.2775  -14.2531   24.1616 C   0  0  0  0  0  0  0  0  0  0  0  0
    9.4022  -15.0479   23.5380 C   0  0  2  0  0  0  0  0  0  0  0  0
    8.8973  -16.2286   22.8479 N   0  0  0  0  0  0  0  0  0  0  0  0
   10.4059  -15.4811   24.5105 C   0  0  0  0  0  0  0  0  0  0  0  0
   11.3818  -14.7593   24.8174 O   0  0  0  0  0  0  0  0  0  0  0  0
   10.2874  -16.7494   25.1328 N   0  0  0  0  0  0  0  0  0  0  0  0
   11.2006  -17.1954   26.1839 C   0  0  1  0  0  0  0  0  0  0  0  0
   10.4907  -17.1316   27.4954 C   0  0  0  0  0  0  0  0  0  0  0  0
   10.2111  -15.7746   27.9913 C   0  0  0  0  0  0  0  0  0  0  0  0
    9.0023  -15.1647   27.7047 C   0  0  0  0  0  0  0  0  0  0  0  0
    8.6634  -13.9028   28.1359 C   0  0  0  0  0  0  0  0  0  0  0  0
    9.5745  -13.2017   28.8960 C   0  0  0  0  0  0  0  0  0  0  0  0
   10.7920  -13.7908   29.1961 C   0  0  0  0  0  0  0  0  0  0  0  0
   11.1139  -15.0556   28.7556 C   0  0  0  0  0  0  0  0  0  0  0  0
   11.6793  -18.5628   25.8832 C   0  0  0  0  0  0  0  0  0  0  0  0
   11.2589  -19.2598   24.7722 O   0  0  0  0  0  0  0  0  0  0  0  0
   12.4979  -19.1217   26.6603 O   0  0  0  0  0  0  0  0  0  0  0  0
  2  1  1  6
  3  2  1  0
  4  3  1  0
  5  4  1  0
  6  5  1  0
  7  6  1  0
  8 15  1  0
  8  2  1  0
  9  8  2  0
 10 11  1  0
 11 12  1  0
 13 12  1  0
 14 13  1  1
 14 15  1  0
 16 18  1  0
 16 14  1  0
 17 16  2  0
 19 18  1  0
 19 27  1  0
 19 20  1  1
 21 22  2  0
 21 20  1  0
 23 22  1  0
 24 23  2  0
 25 24  1  0
 25 26  2  0
 26 21  1  0
 27 28  1  0
 29 27  2  0
M  END
$$$$
