KMF.pdb
     RDKit          3D

 29 29  0  0  1  0  0  0  0  0999 V2000
    7.6993  -19.1509   21.3062 N   0  0  0  0  0  0  0  0  0  0  0  0
    8.9001  -18.8026   20.7099 C   0  0  1  0  0  0  0  0  0  0  0  0
    9.2383  -18.9913   19.3129 C   0  0  0  0  0  0  0  0  0  0  0  0
    8.6176  -19.9321   18.4226 C   0  0  0  0  0  0  0  0  0  0  0  0
    8.1615  -21.2552   18.7111 C   0  0  0  0  0  0  0  0  0  0  0  0
    7.5656  -22.2134   17.8002 C   0  0  0  0  0  0  0  0  0  0  0  0
    6.1901  -22.1678   17.5208 N   0  0  0  0  0  0  0  0  0  0  0  0
    9.2379  -17.3439   21.0699 C   0  0  0  0  0  0  0  0  0  0  0  0
   10.2534  -16.8301   20.5605 O   0  0  0  0  0  0  0  0  0  0  0  0
    7.8917  -11.6875   20.4973 C   0  0  0  0  0  0  0  0  0  0  0  0
    7.7127  -13.2488   19.6188 S   0  0  0  0  0  0  0  0  0  0  0  0
    6.9060  -14.4820   20.6930 C   0  0  0  0  0  0  0  0  0  0  0  0
    7.4993  -14.3311   22.0637 C   0  0  0  0  0  0  0  0  0  0  0  0
    8.7173  -15.2004   22.2791 C   0  0  2  0  0  0  0  0  0  0  0  0
    8.4411  -16.5920   21.9439 N   0  0  0  0  0  0  0  0  0  0  0  0
    9.2205  -15.1522   23.6521 C   0  0  0  0  0  0  0  0  0  0  0  0
    9.8915  -14.1835   24.0753 O   0  0  0  0  0  0  0  0  0  0  0  0
    8.9515  -16.2220   24.5426 N   0  0  0  0  0  0  0  0  0  0  0  0
    9.4456  -16.2401   25.9185 C   0  0  1  0  0  0  0  0  0  0  0  0
    8.3075  -15.9539   26.8410 C   0  0  0  0  0  0  0  0  0  0  0  0
    7.8154  -14.5673   26.8177 C   0  0  0  0  0  0  0  0  0  0  0  0
    6.5451  -14.2879   26.3446 C   0  0  0  0  0  0  0  0  0  0  0  0
    6.0107  -13.0210   26.2960 C   0  0  0  0  0  0  0  0  0  0  0  0
    6.7784  -11.9668   26.7417 C   0  0  0  0  0  0  0  0  0  0  0  0
    8.0537  -12.2208   27.2199 C   0  0  0  0  0  0  0  0  0  0  0  0
    8.5721  -13.4963   27.2610 C   0  0  0  0  0  0  0  0  0  0  0  0
   10.0725  -17.5489   26.2074 C   0  0  0  0  0  0  0  0  0  0  0  0
   10.5997  -17.8534   27.4429 O   0  0  0  0  0  0  0  0  0  0  0  0
   10.1345  -18.4235   25.3033 O   0  0  0  0  0  0  0  0  0  0  0  0
  2  1  1  6
  3  2  1  0
  4  3  1  0
  5  4  1  0
  6  5  1  0
  7  6  1  0
  8 15  1  0
  8  2  1  0
  9  8  2  0
 10 11  1  0
 11 12  1  0
 13 12  1  0
 14 13  1  1
 14 15  1  0
 16 18  1  0
 16 14  1  0
 17 16  2  0
 19 18  1  0
 19 27  1  0
 19 20  1  1
 21 22  2  0
 21 20  1  0
 23 22  1  0
 24 23  2  0
 25 24  1  0
 25 26  2  0
 26 21  1  0
 27 28  1  0
 29 27  2  0
M  END
$$$$
