QVG.pdb
     RDKit          3D

 21 20  0  0  1  0  0  0  0  0999 V2000
    7.0512  -21.2535   23.8514 N   0  0  0  0  0  0  0  0  0  0  0  0
    5.9200  -20.4301   24.0927 C   0  0  0  0  0  0  0  0  0  0  0  0
    5.3153  -20.6006   25.1943 O   0  0  0  0  0  0  0  0  0  0  0  0
    5.4346  -19.4189   23.1481 C   0  0  0  0  0  0  0  0  0  0  0  0
    6.3201  -19.3799   21.9228 C   0  0  0  0  0  0  0  0  0  0  0  0
    5.8766  -18.2929   20.9692 C   0  0  2  0  0  0  0  0  0  0  0  0
    5.4555  -18.9036   19.7280 N   0  0  0  0  0  0  0  0  0  0  0  0
    6.9459  -17.3126   20.7029 C   0  0  0  0  0  0  0  0  0  0  0  0
    7.7992  -17.4528   19.7856 O   0  0  0  0  0  0  0  0  0  0  0  0
    6.5122  -13.6882   20.0353 C   0  0  0  0  0  0  0  0  0  0  0  0
    7.4700  -13.7807   21.1598 C   0  0  2  0  0  0  0  0  0  0  0  0
    8.4438  -12.6308   21.2179 C   0  0  0  0  0  0  0  0  0  0  0  0
    8.1008  -15.1234   21.2813 C   0  0  2  0  0  0  0  0  0  0  0  0
    7.0446  -16.1442   21.5019 N   0  0  0  0  0  0  0  0  0  0  0  0
    9.1647  -15.2868   22.2701 C   0  0  0  0  0  0  0  0  0  0  0  0
    8.8320  -15.2330   23.5165 O   0  0  0  0  0  0  0  0  0  0  0  0
   10.5324  -15.5024   22.0445 N   0  0  0  0  0  0  0  0  0  0  0  0
   11.4922  -15.6185   23.1177 C   0  0  0  0  0  0  0  0  0  0  0  0
   12.8445  -15.8838   22.5719 C   0  0  0  0  0  0  0  0  0  0  0  0
   13.0437  -16.0729   21.3445 O   0  0  0  0  0  0  0  0  0  0  0  0
   13.9502  -15.9331   23.4087 O   0  0  0  0  0  0  0  0  0  0  0  0
  2  1  1  0
  2  3  2  0
  4  2  1  0
  5  4  1  0
  6  5  1  0
  6  7  1  6
  8  6  1  0
  8  9  2  0
 11 10  1  6
 11 13  1  0
 12 11  1  0
 13 14  1  1
 14  8  1  0
 15 13  1  0
 15 17  1  0
 16 15  2  0
 18 17  1  0
 18 19  1  0
 19 20  2  0
 19 21  1  0
M  END
$$$$
