QVG.pdb
     RDKit          3D

 21 20  0  0  1  0  0  0  0  0999 V2000
    6.2811  -21.0468   19.2342 N   0  0  0  0  0  0  0  0  0  0  0  0
    6.1627  -20.8245   17.8369 C   0  0  0  0  0  0  0  0  0  0  0  0
    5.6992  -21.7807   17.1448 O   0  0  0  0  0  0  0  0  0  0  0  0
    6.5431  -19.5707   17.1785 C   0  0  0  0  0  0  0  0  0  0  0  0
    7.0897  -18.5918   18.1933 C   0  0  0  0  0  0  0  0  0  0  0  0
    7.4836  -17.2900   17.5317 C   0  0  2  0  0  0  0  0  0  0  0  0
    8.2651  -17.5837   16.3511 N   0  0  0  0  0  0  0  0  0  0  0  0
    8.2560  -16.4158   18.4340 C   0  0  0  0  0  0  0  0  0  0  0  0
    9.5155  -16.3604   18.4318 O   0  0  0  0  0  0  0  0  0  0  0  0
    7.3634  -12.7328   19.2337 C   0  0  0  0  0  0  0  0  0  0  0  0
    7.5782  -13.4486   20.5111 C   0  0  2  0  0  0  0  0  0  0  0  0
    8.1231  -12.5706   21.6094 C   0  0  0  0  0  0  0  0  0  0  0  0
    8.3013  -14.7389   20.3438 C   0  0  2  0  0  0  0  0  0  0  0  0
    7.5760  -15.5845   19.3614 N   0  0  0  0  0  0  0  0  0  0  0  0
    8.5937  -15.5144   21.5475 C   0  0  0  0  0  0  0  0  0  0  0  0
    7.6159  -15.7460   22.3583 O   0  0  0  0  0  0  0  0  0  0  0  0
    9.8223  -16.0579   21.9517 N   0  0  0  0  0  0  0  0  0  0  0  0
   10.0133  -16.6850   23.2388 C   0  0  0  0  0  0  0  0  0  0  0  0
   11.3393  -16.3246   23.7947 C   0  0  0  0  0  0  0  0  0  0  0  0
   12.2005  -15.7052   23.1192 O   0  0  0  0  0  0  0  0  0  0  0  0
   11.6785  -16.6637   25.0968 O   0  0  0  0  0  0  0  0  0  0  0  0
  2  1  1  0
  2  3  2  0
  4  2  1  0
  5  4  1  0
  6  5  1  0
  6  7  1  6
  8  6  1  0
  8  9  2  0
 11 10  1  6
 11 13  1  0
 12 11  1  0
 13 14  1  6
 14  8  1  0
 15 13  1  0
 15 17  1  0
 16 15  2  0
 18 17  1  0
 18 19  1  0
 19 20  2  0
 19 21  1  0
M  END
$$$$
