QVG.pdb
     RDKit          3D

 21 20  0  0  1  0  0  0  0  0999 V2000
    6.7575  -20.6489   22.5831 N   0  0  0  0  0  0  0  0  0  0  0  0
    5.9452  -19.5354   22.9235 C   0  0  0  0  0  0  0  0  0  0  0  0
    5.0558  -19.7273   23.8069 O   0  0  0  0  0  0  0  0  0  0  0  0
    6.0871  -18.2094   22.3135 C   0  0  0  0  0  0  0  0  0  0  0  0
    6.9452  -17.3213   23.1863 C   0  0  0  0  0  0  0  0  0  0  0  0
    6.9251  -15.8927   22.6899 C   0  0  2  0  0  0  0  0  0  0  0  0
    7.5194  -15.8475   21.3725 N   0  0  0  0  0  0  0  0  0  0  0  0
    7.6476  -14.9771   23.5926 C   0  0  0  0  0  0  0  0  0  0  0  0
    8.8463  -14.6313   23.4116 O   0  0  0  0  0  0  0  0  0  0  0  0
    5.7037  -11.8812   25.2507 C   0  0  0  0  0  0  0  0  0  0  0  0
    6.5539  -12.5896   26.2333 C   0  0  2  0  0  0  0  0  0  0  0  0
    7.0417  -11.7075   27.3548 C   0  0  0  0  0  0  0  0  0  0  0  0
    7.6169  -13.4159   25.5983 C   0  0  2  0  0  0  0  0  0  0  0  0
    6.9873  -14.4428   24.7292 N   0  0  0  0  0  0  0  0  0  0  0  0
    8.6037  -14.0433   26.4749 C   0  0  0  0  0  0  0  0  0  0  0  0
    9.3547  -13.2642   27.1792 O   0  0  0  0  0  0  0  0  0  0  0  0
    8.8512  -15.4114   26.6627 N   0  0  0  0  0  0  0  0  0  0  0  0
    9.8011  -15.9075   27.6312 C   0  0  0  0  0  0  0  0  0  0  0  0
    9.8796  -17.3862   27.5638 C   0  0  0  0  0  0  0  0  0  0  0  0
   10.3486  -18.0735   28.5069 O   0  0  0  0  0  0  0  0  0  0  0  0
    9.4320  -18.0699   26.4424 O   0  0  0  0  0  0  0  0  0  0  0  0
  2  1  1  0
  2  3  2  0
  4  2  1  0
  5  4  1  0
  6  5  1  0
  6  7  1  6
  8  6  1  0
  8  9  2  0
 11 10  1  6
 11 13  1  0
 12 11  1  0
 13 14  1  1
 14  8  1  0
 15 13  1  0
 15 17  1  0
 16 15  2  0
 18 17  1  0
 18 19  1  0
 19 20  2  0
 19 21  1  0
M  END
$$$$
