QVG.pdb
     RDKit          3D

 21 20  0  0  1  0  0  0  0  0999 V2000
    5.0956  -20.0518   24.0197 N   0  0  0  0  0  0  0  0  0  0  0  0
    5.7316  -20.7572   22.9645 C   0  0  0  0  0  0  0  0  0  0  0  0
    6.0286  -21.9698   23.1871 O   0  0  0  0  0  0  0  0  0  0  0  0
    6.0507  -20.1594   21.6640 C   0  0  0  0  0  0  0  0  0  0  0  0
    5.5749  -18.7248   21.6168 C   0  0  0  0  0  0  0  0  0  0  0  0
    5.8735  -18.0996   20.2723 C   0  0  2  0  0  0  0  0  0  0  0  0
    6.1560  -19.1510   19.3207 N   0  0  0  0  0  0  0  0  0  0  0  0
    7.0120  -17.1640   20.3315 C   0  0  0  0  0  0  0  0  0  0  0  0
    8.1487  -17.4275   19.8540 O   0  0  0  0  0  0  0  0  0  0  0  0
    6.6882  -13.3377   19.6712 C   0  0  0  0  0  0  0  0  0  0  0  0
    7.4422  -13.5448   20.9278 C   0  0  2  0  0  0  0  0  0  0  0  0
    8.4543  -12.4628   21.2085 C   0  0  0  0  0  0  0  0  0  0  0  0
    7.9706  -14.9290   21.0710 C   0  0  2  0  0  0  0  0  0  0  0  0
    6.8508  -15.8972   20.9500 N   0  0  0  0  0  0  0  0  0  0  0  0
    8.7647  -15.2330   22.2597 C   0  0  0  0  0  0  0  0  0  0  0  0
    8.1572  -15.2257   23.3990 O   0  0  0  0  0  0  0  0  0  0  0  0
   10.1311  -15.5422   22.3339 N   0  0  0  0  0  0  0  0  0  0  0  0
   10.8352  -15.6733   23.5883 C   0  0  0  0  0  0  0  0  0  0  0  0
   12.2616  -15.9954   23.3462 C   0  0  0  0  0  0  0  0  0  0  0  0
   12.6994  -16.2664   22.1987 O   0  0  0  0  0  0  0  0  0  0  0  0
   13.1733  -16.0087   24.3922 O   0  0  0  0  0  0  0  0  0  0  0  0
  2  1  1  0
  2  3  2  0
  4  2  1  0
  5  4  1  0
  6  5  1  0
  6  7  1  6
  8  6  1  0
  8  9  2  0
 11 10  1  6
 11 13  1  0
 12 11  1  0
 13 14  1  1
 14  8  1  0
 15 13  1  0
 15 17  1  0
 16 15  2  0
 18 17  1  0
 18 19  1  0
 19 20  2  0
 19 21  1  0
M  END
$$$$
