QVG.pdb
     RDKit          3D

 21 20  0  0  1  0  0  0  0  0999 V2000
    7.2018  -21.1646   18.7549 N   0  0  0  0  0  0  0  0  0  0  0  0
    8.3873  -20.8838   18.0259 C   0  0  0  0  0  0  0  0  0  0  0  0
    9.1883  -21.8503   17.8458 O   0  0  0  0  0  0  0  0  0  0  0  0
    8.7156  -19.5600   17.4872 C   0  0  0  0  0  0  0  0  0  0  0  0
    7.6427  -18.5622   17.8614 C   0  0  0  0  0  0  0  0  0  0  0  0
    7.9954  -17.1772   17.3663 C   0  0  2  0  0  0  0  0  0  0  0  0
    8.8903  -17.2987   16.2370 N   0  0  0  0  0  0  0  0  0  0  0  0
    8.6266  -16.3531   18.4139 C   0  0  0  0  0  0  0  0  0  0  0  0
    9.8745  -16.2127   18.5246 O   0  0  0  0  0  0  0  0  0  0  0  0
    7.0083  -12.9264   19.4482 C   0  0  0  0  0  0  0  0  0  0  0  0
    7.4199  -13.6657   20.6624 C   0  0  2  0  0  0  0  0  0  0  0  0
    7.8140  -12.7691   21.8091 C   0  0  0  0  0  0  0  0  0  0  0  0
    8.3888  -14.7599   20.3802 C   0  0  2  0  0  0  0  0  0  0  0  0
    7.8152  -15.6725   19.3584 N   0  0  0  0  0  0  0  0  0  0  0  0
    8.8877  -15.5344   21.5148 C   0  0  0  0  0  0  0  0  0  0  0  0
    8.0463  -16.2944   22.1325 O   0  0  0  0  0  0  0  0  0  0  0  0
   10.1897  -15.5681   22.0363 N   0  0  0  0  0  0  0  0  0  0  0  0
   10.5493  -16.3614   23.1885 C   0  0  0  0  0  0  0  0  0  0  0  0
   11.9683  -16.1306   23.5493 C   0  0  0  0  0  0  0  0  0  0  0  0
   12.7399  -15.4526   22.8236 O   0  0  0  0  0  0  0  0  0  0  0  0
   12.4992  -16.6625   24.7158 O   0  0  0  0  0  0  0  0  0  0  0  0
  2  1  1  0
  2  3  2  0
  4  2  1  0
  5  4  1  0
  6  5  1  0
  6  7  1  6
  8  6  1  0
  8  9  2  0
 11 10  1  6
 11 13  1  0
 12 11  1  0
 13 14  1  6
 14  8  1  0
 15 13  1  0
 15 17  1  0
 16 15  2  0
 18 17  1  0
 18 19  1  0
 19 20  2  0
 19 21  1  0
M  END
$$$$
