QVG.pdb
     RDKit          3D

 21 20  0  0  1  0  0  0  0  0999 V2000
    8.1133  -18.1614   27.5130 N   0  0  0  0  0  0  0  0  0  0  0  0
    8.3247  -19.4033   26.8582 C   0  0  0  0  0  0  0  0  0  0  0  0
    9.3134  -20.0937   27.2506 O   0  0  0  0  0  0  0  0  0  0  0  0
    7.4717  -19.9075   25.7772 C   0  0  0  0  0  0  0  0  0  0  0  0
    6.2794  -18.9975   25.5840 C   0  0  0  0  0  0  0  0  0  0  0  0
    5.8664  -18.9482   24.1299 C   0  0  2  0  0  0  0  0  0  0  0  0
    5.7587  -20.3003   23.6288 N   0  0  0  0  0  0  0  0  0  0  0  0
    6.8212  -18.1866   23.3032 C   0  0  0  0  0  0  0  0  0  0  0  0
    7.6608  -18.7322   22.5372 O   0  0  0  0  0  0  0  0  0  0  0  0
    6.1781  -14.8466   21.2769 C   0  0  0  0  0  0  0  0  0  0  0  0
    7.2912  -14.6668   22.2355 C   0  0  2  0  0  0  0  0  0  0  0  0
    8.3096  -13.6470   21.7920 C   0  0  0  0  0  0  0  0  0  0  0  0
    7.8766  -15.9544   22.6996 C   0  0  2  0  0  0  0  0  0  0  0  0
    6.8188  -16.7685   23.3509 N   0  0  0  0  0  0  0  0  0  0  0  0
    9.0569  -15.8928   23.5593 C   0  0  0  0  0  0  0  0  0  0  0  0
    8.9018  -15.4180   24.7499 O   0  0  0  0  0  0  0  0  0  0  0  0
   10.3685  -16.2918   23.2613 N   0  0  0  0  0  0  0  0  0  0  0  0
   11.4543  -16.1749   24.2067 C   0  0  0  0  0  0  0  0  0  0  0  0
   12.7571  -16.2114   23.5007 C   0  0  0  0  0  0  0  0  0  0  0  0
   12.8411  -16.4327   22.2654 O   0  0  0  0  0  0  0  0  0  0  0  0
   13.9432  -15.9998   24.1890 O   0  0  0  0  0  0  0  0  0  0  0  0
  2  1  1  0
  2  3  2  0
  4  2  1  0
  5  4  1  0
  6  5  1  0
  6  7  1  6
  8  6  1  0
  8  9  2  0
 11 10  1  6
 11 13  1  0
 12 11  1  0
 13 14  1  1
 14  8  1  0
 15 13  1  0
 15 17  1  0
 16 15  2  0
 18 17  1  0
 18 19  1  0
 19 20  2  0
 19 21  1  0
M  END
$$$$
