QVG.pdb
     RDKit          3D

 21 20  0  0  1  0  0  0  0  0999 V2000
    8.0548  -12.6013   18.5171 N   0  0  0  0  0  0  0  0  0  0  0  0
    7.9188  -14.0049   18.3521 C   0  0  0  0  0  0  0  0  0  0  0  0
    7.5634  -14.4123   17.2049 O   0  0  0  0  0  0  0  0  0  0  0  0
    8.1651  -14.9765   19.4224 C   0  0  0  0  0  0  0  0  0  0  0  0
    8.5955  -14.2654   20.6857 C   0  0  0  0  0  0  0  0  0  0  0  0
    8.1966  -15.0539   21.9132 C   0  0  2  0  0  0  0  0  0  0  0  0
    6.8020  -15.4192   21.8010 N   0  0  0  0  0  0  0  0  0  0  0  0
    8.4128  -14.2954   23.1594 C   0  0  0  0  0  0  0  0  0  0  0  0
    9.2625  -13.3703   23.2668 O   0  0  0  0  0  0  0  0  0  0  0  0
    6.3678  -12.0337   24.8538 C   0  0  0  0  0  0  0  0  0  0  0  0
    6.6296  -13.0590   25.8885 C   0  0  2  0  0  0  0  0  0  0  0  0
    6.5687  -12.5231   27.2967 C   0  0  0  0  0  0  0  0  0  0  0  0
    7.8329  -13.8864   25.6002 C   0  0  2  0  0  0  0  0  0  0  0  0
    7.6417  -14.5990   24.3111 N   0  0  0  0  0  0  0  0  0  0  0  0
    8.2720  -14.8277   26.6284 C   0  0  0  0  0  0  0  0  0  0  0  0
    8.7236  -14.3344   27.7329 O   0  0  0  0  0  0  0  0  0  0  0  0
    8.2672  -16.2297   26.5795 N   0  0  0  0  0  0  0  0  0  0  0  0
    8.5950  -17.0521   27.7209 C   0  0  0  0  0  0  0  0  0  0  0  0
    9.9520  -17.6282   27.5669 C   0  0  0  0  0  0  0  0  0  0  0  0
   10.6864  -17.3533   26.5836 O   0  0  0  0  0  0  0  0  0  0  0  0
   10.4636  -18.5019   28.5158 O   0  0  0  0  0  0  0  0  0  0  0  0
  2  1  1  0
  2  3  2  0
  4  2  1  0
  5  4  1  0
  6  5  1  0
  6  7  1  6
  8  6  1  0
  8  9  2  0
 11 10  1  6
 11 13  1  0
 12 11  1  0
 13 14  1  6
 14  8  1  0
 15 13  1  0
 15 17  1  0
 16 15  2  0
 18 17  1  0
 18 19  1  0
 19 20  2  0
 19 21  1  0
M  END
$$$$
