QVG.pdb
     RDKit          3D

 21 20  0  0  1  0  0  0  0  0999 V2000
   12.4731  -19.2370   16.8752 N   0  0  0  0  0  0  0  0  0  0  0  0
   12.1818  -19.0230   18.2482 C   0  0  0  0  0  0  0  0  0  0  0  0
   13.0513  -19.4157   19.0835 O   0  0  0  0  0  0  0  0  0  0  0  0
   10.9518  -18.3848   18.7279 C   0  0  0  0  0  0  0  0  0  0  0  0
   10.0663  -18.0116   17.5602 C   0  0  0  0  0  0  0  0  0  0  0  0
    8.8390  -17.2627   18.0295 C   0  0  2  0  0  0  0  0  0  0  0  0
    7.9764  -17.0216   16.8943 N   0  0  0  0  0  0  0  0  0  0  0  0
    9.1792  -15.9815   18.6759 C   0  0  0  0  0  0  0  0  0  0  0  0
    9.9503  -15.1293   18.1578 O   0  0  0  0  0  0  0  0  0  0  0  0
    6.5667  -14.3594   21.5780 C   0  0  0  0  0  0  0  0  0  0  0  0
    7.5307  -13.6420   20.7140 C   0  0  2  0  0  0  0  0  0  0  0  0
    6.9423  -13.1890   19.4015 C   0  0  0  0  0  0  0  0  0  0  0  0
    8.8378  -14.3431   20.5891 C   0  0  2  0  0  0  0  0  0  0  0  0
    8.6269  -15.6641   19.9438 N   0  0  0  0  0  0  0  0  0  0  0  0
    9.6408  -14.5033   21.7996 C   0  0  0  0  0  0  0  0  0  0  0  0
    9.8747  -13.4460   22.5028 O   0  0  0  0  0  0  0  0  0  0  0  0
   10.2044  -15.6792   22.3170 N   0  0  0  0  0  0  0  0  0  0  0  0
   10.9190  -15.7165   23.5717 C   0  0  0  0  0  0  0  0  0  0  0  0
   11.3246  -17.1059   23.8915 C   0  0  0  0  0  0  0  0  0  0  0  0
   11.0688  -18.0693   23.1246 O   0  0  0  0  0  0  0  0  0  0  0  0
   12.0093  -17.3930   25.0637 O   0  0  0  0  0  0  0  0  0  0  0  0
  2  1  1  0
  2  3  2  0
  4  2  1  0
  5  4  1  0
  6  5  1  0
  6  7  1  6
  8  6  1  0
  8  9  2  0
 11 10  1  6
 11 13  1  0
 12 11  1  0
 13 14  1  1
 14  8  1  0
 15 13  1  0
 15 17  1  0
 16 15  2  0
 18 17  1  0
 18 19  1  0
 19 20  2  0
 19 21  1  0
M  END
$$$$
