QVG.pdb
     RDKit          3D

 21 20  0  0  1  0  0  0  0  0999 V2000
   11.3319  -19.9695   16.2366 N   0  0  0  0  0  0  0  0  0  0  0  0
   10.4255  -19.7182   15.1731 C   0  0  0  0  0  0  0  0  0  0  0  0
   10.5340  -20.4537   14.1457 O   0  0  0  0  0  0  0  0  0  0  0  0
    9.3976  -18.6731   15.2114 C   0  0  0  0  0  0  0  0  0  0  0  0
    9.4270  -17.9590   16.5440 C   0  0  0  0  0  0  0  0  0  0  0  0
    9.1140  -16.4887   16.3770 C   0  0  2  0  0  0  0  0  0  0  0  0
    9.7924  -15.9976   15.1982 N   0  0  0  0  0  0  0  0  0  0  0  0
    9.5199  -15.6939   17.5511 C   0  0  0  0  0  0  0  0  0  0  0  0
   10.6715  -15.1988   17.6860 O   0  0  0  0  0  0  0  0  0  0  0  0
    7.3029  -12.9428   19.0810 C   0  0  0  0  0  0  0  0  0  0  0  0
    7.7770  -13.8113   20.1816 C   0  0  2  0  0  0  0  0  0  0  0  0
    7.9439  -13.0853   21.4928 C   0  0  0  0  0  0  0  0  0  0  0  0
    8.9398  -14.6579   19.7987 C   0  0  2  0  0  0  0  0  0  0  0  0
    8.5904  -15.4578   18.5969 N   0  0  0  0  0  0  0  0  0  0  0  0
    9.5146  -15.5262   20.8242 C   0  0  0  0  0  0  0  0  0  0  0  0
    8.8155  -16.5437   21.2025 O   0  0  0  0  0  0  0  0  0  0  0  0
   10.7547  -15.4039   21.4685 N   0  0  0  0  0  0  0  0  0  0  0  0
   11.2129  -16.3432   22.4656 C   0  0  0  0  0  0  0  0  0  0  0  0
   12.4840  -15.8751   23.0676 C   0  0  0  0  0  0  0  0  0  0  0  0
   13.1389  -14.9167   22.5834 O   0  0  0  0  0  0  0  0  0  0  0  0
   13.0000  -16.4874   24.2008 O   0  0  0  0  0  0  0  0  0  0  0  0
  2  1  1  0
  2  3  2  0
  4  2  1  0
  5  4  1  0
  6  5  1  0
  6  7  1  6
  8  6  1  0
  8  9  2  0
 11 10  1  6
 11 13  1  0
 12 11  1  0
 13 14  1  6
 14  8  1  0
 15 13  1  0
 15 17  1  0
 16 15  2  0
 18 17  1  0
 18 19  1  0
 19 20  2  0
 19 21  1  0
M  END
$$$$
