QVG.pdb
     RDKit          3D

 21 20  0  0  1  0  0  0  0  0999 V2000
   12.4849  -20.7143   20.4212 N   0  0  0  0  0  0  0  0  0  0  0  0
   11.4551  -20.5480   19.4581 C   0  0  0  0  0  0  0  0  0  0  0  0
   10.6245  -21.4993   19.3415 O   0  0  0  0  0  0  0  0  0  0  0  0
   11.3150  -19.3558   18.6158 C   0  0  0  0  0  0  0  0  0  0  0  0
   10.0060  -18.6583   18.9101 C   0  0  0  0  0  0  0  0  0  0  0  0
    9.8571  -17.4099   18.0693 C   0  0  2  0  0  0  0  0  0  0  0  0
   10.8774  -17.4125   17.0446 N   0  0  0  0  0  0  0  0  0  0  0  0
    9.9639  -16.1783   18.8736 C   0  0  0  0  0  0  0  0  0  0  0  0
   11.0113  -15.4791   18.9311 O   0  0  0  0  0  0  0  0  0  0  0  0
    7.3930  -13.2448   18.9419 C   0  0  0  0  0  0  0  0  0  0  0  0
    7.6149  -13.7592   20.3117 C   0  0  2  0  0  0  0  0  0  0  0  0
    7.3661  -12.7331   21.3883 C   0  0  0  0  0  0  0  0  0  0  0  0
    8.8979  -14.5000   20.4572 C   0  0  2  0  0  0  0  0  0  0  0  0
    8.8495  -15.7331   19.6307 N   0  0  0  0  0  0  0  0  0  0  0  0
    9.3444  -14.8253   21.8102 C   0  0  0  0  0  0  0  0  0  0  0  0
    9.5733  -13.8411   22.6141 O   0  0  0  0  0  0  0  0  0  0  0  0
    9.5613  -16.0930   22.3705 N   0  0  0  0  0  0  0  0  0  0  0  0
    9.8270  -16.2905   23.7765 C   0  0  0  0  0  0  0  0  0  0  0  0
   11.2875  -16.2876   24.0292 C   0  0  0  0  0  0  0  0  0  0  0  0
   12.1263  -16.1989   23.0963 O   0  0  0  0  0  0  0  0  0  0  0  0
   11.7841  -16.3839   25.3213 O   0  0  0  0  0  0  0  0  0  0  0  0
  2  1  1  0
  2  3  2  0
  4  2  1  0
  5  4  1  0
  6  5  1  0
  6  7  1  6
  8  6  1  0
  8  9  2  0
 11 10  1  6
 11 13  1  0
 12 11  1  0
 13 14  1  6
 14  8  1  0
 15 13  1  0
 15 17  1  0
 16 15  2  0
 18 17  1  0
 18 19  1  0
 19 20  2  0
 19 21  1  0
M  END
$$$$
