QVG.pdb
     RDKit          3D

 21 20  0  0  1  0  0  0  0  0999 V2000
    4.7473  -18.5045   23.6255 N   0  0  0  0  0  0  0  0  0  0  0  0
    5.4825  -18.9611   22.5001 C   0  0  0  0  0  0  0  0  0  0  0  0
    4.8656  -19.7063   21.6801 O   0  0  0  0  0  0  0  0  0  0  0  0
    6.8863  -18.6171   22.2525 C   0  0  0  0  0  0  0  0  0  0  0  0
    7.3872  -17.6660   23.3162 C   0  0  0  0  0  0  0  0  0  0  0  0
    7.4853  -16.2558   22.7783 C   0  0  2  0  0  0  0  0  0  0  0  0
    8.3017  -16.2668   21.5848 N   0  0  0  0  0  0  0  0  0  0  0  0
    8.0586  -15.3203   23.7638 C   0  0  0  0  0  0  0  0  0  0  0  0
    9.2757  -14.9920   23.7783 O   0  0  0  0  0  0  0  0  0  0  0  0
    5.8300  -12.2477   25.2775 C   0  0  0  0  0  0  0  0  0  0  0  0
    6.5928  -12.9891   26.3066 C   0  0  2  0  0  0  0  0  0  0  0  0
    6.9417  -12.1564   27.5144 C   0  0  0  0  0  0  0  0  0  0  0  0
    7.7350  -13.7607   25.7447 C   0  0  2  0  0  0  0  0  0  0  0  0
    7.2241  -14.7451   24.7568 N   0  0  0  0  0  0  0  0  0  0  0  0
    8.6358  -14.4226   26.6862 C   0  0  0  0  0  0  0  0  0  0  0  0
    9.4556  -13.6774   27.3494 O   0  0  0  0  0  0  0  0  0  0  0  0
    8.7324  -15.7915   26.9774 N   0  0  0  0  0  0  0  0  0  0  0  0
    9.6641  -16.3200   27.9465 C   0  0  0  0  0  0  0  0  0  0  0  0
    9.4385  -17.7725   28.1378 C   0  0  0  0  0  0  0  0  0  0  0  0
    8.6399  -18.4246   27.4175 O   0  0  0  0  0  0  0  0  0  0  0  0
   10.1103  -18.4699   29.1316 O   0  0  0  0  0  0  0  0  0  0  0  0
  2  1  1  0
  2  3  2  0
  4  2  1  0
  5  4  1  0
  6  5  1  0
  6  7  1  6
  8  6  1  0
  8  9  2  0
 11 10  1  6
 11 13  1  0
 12 11  1  0
 13 14  1  6
 14  8  1  0
 15 13  1  0
 15 17  1  0
 16 15  2  0
 18 17  1  0
 18 19  1  0
 19 20  2  0
 19 21  1  0
M  END
$$$$
