QVG.pdb
     RDKit          3D

 21 20  0  0  1  0  0  0  0  0999 V2000
    5.7626  -20.6445   24.2084 N   0  0  0  0  0  0  0  0  0  0  0  0
    4.7850  -20.7975   23.1903 C   0  0  0  0  0  0  0  0  0  0  0  0
    3.8352  -21.6034   23.4283 O   0  0  0  0  0  0  0  0  0  0  0  0
    4.8260  -20.0828   21.9105 C   0  0  0  0  0  0  0  0  0  0  0  0
    6.0424  -19.1864   21.8506 C   0  0  0  0  0  0  0  0  0  0  0  0
    6.0118  -18.3147   20.6150 C   0  0  2  0  0  0  0  0  0  0  0  0
    6.1297  -19.1572   19.4458 N   0  0  0  0  0  0  0  0  0  0  0  0
    7.0907  -17.3091   20.6136 C   0  0  0  0  0  0  0  0  0  0  0  0
    8.2445  -17.5340   20.1580 O   0  0  0  0  0  0  0  0  0  0  0  0
    6.6369  -13.4635   19.8601 C   0  0  0  0  0  0  0  0  0  0  0  0
    7.3596  -13.6445   21.1388 C   0  0  2  0  0  0  0  0  0  0  0  0
    8.3258  -12.5288   21.4480 C   0  0  0  0  0  0  0  0  0  0  0  0
    7.9301  -15.0100   21.2995 C   0  0  2  0  0  0  0  0  0  0  0  0
    6.8482  -16.0157   21.1444 N   0  0  0  0  0  0  0  0  0  0  0  0
    8.6967  -15.2871   22.5126 C   0  0  0  0  0  0  0  0  0  0  0  0
    8.0430  -15.3738   23.6227 O   0  0  0  0  0  0  0  0  0  0  0  0
   10.0806  -15.4795   22.6388 N   0  0  0  0  0  0  0  0  0  0  0  0
   10.7336  -15.6381   23.9174 C   0  0  0  0  0  0  0  0  0  0  0  0
   12.1941  -15.8096   23.7312 C   0  0  0  0  0  0  0  0  0  0  0  0
   12.7107  -15.9438   22.5924 O   0  0  0  0  0  0  0  0  0  0  0  0
   13.0511  -15.8279   24.8224 O   0  0  0  0  0  0  0  0  0  0  0  0
  2  1  1  0
  2  3  2  0
  4  2  1  0
  5  4  1  0
  6  5  1  0
  6  7  1  6
  8  6  1  0
  8  9  2  0
 11 10  1  6
 11 13  1  0
 12 11  1  0
 13 14  1  1
 14  8  1  0
 15 13  1  0
 15 17  1  0
 16 15  2  0
 18 17  1  0
 18 19  1  0
 19 20  2  0
 19 21  1  0
M  END
$$$$
