QVG.pdb
     RDKit          3D

 21 20  0  0  1  0  0  0  0  0999 V2000
    5.7035  -18.9456   24.6022 N   0  0  0  0  0  0  0  0  0  0  0  0
    5.0492  -19.3552   23.4106 C   0  0  0  0  0  0  0  0  0  0  0  0
    3.9698  -20.0066   23.5479 O   0  0  0  0  0  0  0  0  0  0  0  0
    5.5548  -19.0650   22.0651 C   0  0  0  0  0  0  0  0  0  0  0  0
    6.7792  -18.1811   22.1457 C   0  0  0  0  0  0  0  0  0  0  0  0
    6.4136  -16.7293   21.9310 C   0  0  2  0  0  0  0  0  0  0  0  0
    6.4663  -16.4387   20.5156 N   0  0  0  0  0  0  0  0  0  0  0  0
    7.3105  -15.8133   22.6601 C   0  0  0  0  0  0  0  0  0  0  0  0
    8.3033  -15.2484   22.1268 O   0  0  0  0  0  0  0  0  0  0  0  0
    6.1913  -12.9962   25.0055 C   0  0  0  0  0  0  0  0  0  0  0  0
    7.1896  -13.8112   25.7332 C   0  0  2  0  0  0  0  0  0  0  0  0
    8.0118  -13.0188   26.7180 C   0  0  0  0  0  0  0  0  0  0  0  0
    7.9885  -14.6928   24.8386 C   0  0  2  0  0  0  0  0  0  0  0  0
    7.0697  -15.5347   24.0304 N   0  0  0  0  0  0  0  0  0  0  0  0
    9.0185  -15.5286   25.4523 C   0  0  0  0  0  0  0  0  0  0  0  0
    8.7433  -16.0723   26.5907 O   0  0  0  0  0  0  0  0  0  0  0  0
   10.2969  -15.8309   24.9600 N   0  0  0  0  0  0  0  0  0  0  0  0
   11.2278  -16.6762   25.6709 C   0  0  0  0  0  0  0  0  0  0  0  0
   12.6012  -16.1279   25.5693 C   0  0  0  0  0  0  0  0  0  0  0  0
   12.8736  -15.1407   24.8392 O   0  0  0  0  0  0  0  0  0  0  0  0
   13.6458  -16.6936   26.2863 O   0  0  0  0  0  0  0  0  0  0  0  0
  2  1  1  0
  2  3  2  0
  4  2  1  0
  5  4  1  0
  6  5  1  0
  6  7  1  6
  8  6  1  0
  8  9  2  0
 11 10  1  6
 11 13  1  0
 12 11  1  0
 13 14  1  1
 14  8  1  0
 15 13  1  0
 15 17  1  0
 16 15  2  0
 18 17  1  0
 18 19  1  0
 19 20  2  0
 19 21  1  0
M  END
$$$$
