EEW.pdb
     RDKit          3D

 33 34  0  0  1  0  0  0  0  0999 V2000
   28.1667  -20.7873  -15.8564 N   0  0  0  0  0  0  0  0  0  0  0  0
   28.4407  -19.5063  -15.1639 C   0  0  1  0  0  0  0  0  0  0  0  0
   28.4314  -18.4691  -16.2554 C   0  0  0  0  0  0  0  0  0  0  0  0
   27.4958  -18.8639  -17.3556 C   0  0  0  0  0  0  0  0  0  0  0  0
   28.1697  -19.7649  -18.3402 C   0  0  0  0  0  0  0  0  0  0  0  0
   29.3690  -19.5768  -18.6653 O   0  0  0  0  0  0  0  0  0  0  0  0
   27.3364  -19.2711  -14.1842 C   0  0  0  0  0  0  0  0  0  0  0  0
   27.2816  -18.2287  -13.5200 O   0  0  0  0  0  0  0  0  0  0  0  0
   27.4959  -20.8186  -18.9131 O   0  0  0  0  0  0  0  0  0  0  0  0
   26.3035  -20.2262  -13.9699 N   0  0  0  0  0  0  0  0  0  0  0  0
   25.2796  -20.0436  -12.9564 C   0  0  1  0  0  0  0  0  0  0  0  0
   23.9670  -20.2413  -13.6219 C   0  0  0  0  0  0  0  0  0  0  0  0
   22.7497  -20.2660  -12.7819 C   0  0  0  0  0  0  0  0  0  0  0  0
   21.4629  -20.5520  -13.3484 C   0  0  0  0  0  0  0  0  0  0  0  0
   21.2771  -21.0019  -14.4839 O   0  0  0  0  0  0  0  0  0  0  0  0
   25.5262  -20.6866  -11.6810 C   0  0  0  0  0  0  0  0  0  0  0  0
   25.8078  -21.9121  -11.6254 O   0  0  0  0  0  0  0  0  0  0  0  0
   20.3219  -20.3174  -12.5921 O   0  0  0  0  0  0  0  0  0  0  0  0
   25.4813  -20.0265  -10.4229 N   0  0  0  0  0  0  0  0  0  0  0  0
   25.6692  -20.7006   -9.1608 C   0  0  1  0  0  0  0  0  0  0  0  0
   26.9337  -20.1513   -8.5535 C   0  0  0  0  0  0  0  0  0  0  0  0
   27.1564  -20.5311   -7.1597 C   0  0  0  0  0  0  0  0  0  0  0  0
   26.5467  -21.5391   -6.4405 C   0  0  0  0  0  0  0  0  0  0  0  0
   27.0395  -21.5527   -5.1875 N   0  0  0  0  0  0  0  0  0  0  0  0
   27.9627  -20.5600   -5.0944 C   0  0  0  0  0  0  0  0  0  0  0  0
   28.7470  -20.1608   -4.0320 C   0  0  0  0  0  0  0  0  0  0  0  0
   29.6416  -19.1107   -4.1375 C   0  0  0  0  0  0  0  0  0  0  0  0
   29.7342  -18.4590   -5.3510 C   0  0  0  0  0  0  0  0  0  0  0  0
   28.9422  -18.8681   -6.4099 C   0  0  0  0  0  0  0  0  0  0  0  0
   28.0489  -19.9148   -6.3092 C   0  0  0  0  0  0  0  0  0  0  0  0
   24.4857  -20.5194   -8.3256 C   0  0  0  0  0  0  0  0  0  0  0  0
   23.5978  -19.6524   -8.5325 O   0  0  0  0  0  0  0  0  0  0  0  0
   24.2864  -21.3439   -7.2103 O   0  0  0  0  0  0  0  0  0  0  0  0
  2  1  1  6
  2  3  1  0
  3  4  1  0
  4  5  1  0
  5  9  1  0
  6  5  2  0
  7  2  1  0
  7  8  2  0
 10  7  1  0
 11 10  1  0
 11 12  1  6
 13 12  1  0
 13 14  1  0
 14 15  2  0
 16 11  1  0
 17 16  2  0
 18 14  1  0
 19 16  1  0
 20 21  1  1
 20 19  1  0
 22 21  1  0
 23 22  2  0
 24 25  1  0
 24 23  1  0
 25 30  2  0
 26 27  2  0
 26 25  1  0
 27 28  1  0
 28 29  2  0
 30 29  1  0
 30 22  1  0
 31 20  1  0
 32 31  2  0
 33 31  1  0
M  END
$$$$
