EEW.pdb
     RDKit          3D

 33 34  0  0  1  0  0  0  0  0999 V2000
   27.1731  -21.8565  -16.6724 N   0  0  0  0  0  0  0  0  0  0  0  0
   28.1018  -20.7933  -16.2217 C   0  0  1  0  0  0  0  0  0  0  0  0
   28.1140  -19.7913  -17.3455 C   0  0  0  0  0  0  0  0  0  0  0  0
   27.8901  -20.4672  -18.6625 C   0  0  0  0  0  0  0  0  0  0  0  0
   29.0934  -21.2507  -19.0789 C   0  0  0  0  0  0  0  0  0  0  0  0
   29.1574  -22.4881  -18.8682 O   0  0  0  0  0  0  0  0  0  0  0  0
   27.5413  -20.1970  -14.9707 C   0  0  0  0  0  0  0  0  0  0  0  0
   27.6489  -18.9873  -14.7346 O   0  0  0  0  0  0  0  0  0  0  0  0
   30.1571  -20.6389  -19.7008 O   0  0  0  0  0  0  0  0  0  0  0  0
   26.8625  -20.9848  -13.9993 N   0  0  0  0  0  0  0  0  0  0  0  0
   26.2327  -20.3972  -12.8302 C   0  0  1  0  0  0  0  0  0  0  0  0
   25.0505  -19.6361  -13.3077 C   0  0  0  0  0  0  0  0  0  0  0  0
   24.7609  -19.6248  -14.7582 C   0  0  0  0  0  0  0  0  0  0  0  0
   23.5334  -19.0819  -15.2656 C   0  0  0  0  0  0  0  0  0  0  0  0
   23.2570  -18.9645  -16.4640 O   0  0  0  0  0  0  0  0  0  0  0  0
   26.0918  -21.2672  -11.6794 C   0  0  0  0  0  0  0  0  0  0  0  0
   25.7347  -22.4657  -11.8225 O   0  0  0  0  0  0  0  0  0  0  0  0
   22.5637  -18.6471  -14.3715 O   0  0  0  0  0  0  0  0  0  0  0  0
   26.3363  -20.8732  -10.3357 N   0  0  0  0  0  0  0  0  0  0  0  0
   26.0852  -21.7230   -9.1966 C   0  0  1  0  0  0  0  0  0  0  0  0
   27.2891  -21.6189   -8.2970 C   0  0  0  0  0  0  0  0  0  0  0  0
   27.3926  -20.3614   -7.5591 C   0  0  0  0  0  0  0  0  0  0  0  0
   26.7833  -19.1546   -7.8369 C   0  0  0  0  0  0  0  0  0  0  0  0
   27.1440  -18.2494   -6.9076 N   0  0  0  0  0  0  0  0  0  0  0  0
   27.9819  -18.8649   -6.0327 C   0  0  0  0  0  0  0  0  0  0  0  0
   28.6229  -18.3798   -4.9117 C   0  0  0  0  0  0  0  0  0  0  0  0
   29.4487  -19.1769   -4.1391 C   0  0  0  0  0  0  0  0  0  0  0  0
   29.6207  -20.4923   -4.5211 C   0  0  0  0  0  0  0  0  0  0  0  0
   28.9725  -20.9681   -5.6478 C   0  0  0  0  0  0  0  0  0  0  0  0
   28.1481  -20.1769   -6.4211 C   0  0  0  0  0  0  0  0  0  0  0  0
   24.8336  -21.3297   -8.5563 C   0  0  0  0  0  0  0  0  0  0  0  0
   24.3665  -21.8702   -7.5208 O   0  0  0  0  0  0  0  0  0  0  0  0
   24.0713  -20.2859   -9.0976 O   0  0  0  0  0  0  0  0  0  0  0  0
  2  1  1  6
  2  3  1  0
  3  4  1  0
  4  5  1  0
  5  9  1  0
  6  5  2  0
  7  2  1  0
  7  8  2  0
 10  7  1  0
 11 10  1  0
 11 12  1  6
 13 12  1  0
 13 14  1  0
 14 15  2  0
 16 11  1  0
 17 16  2  0
 18 14  1  0
 19 16  1  0
 20 21  1  1
 20 19  1  0
 22 21  1  0
 23 22  2  0
 24 25  1  0
 24 23  1  0
 25 30  2  0
 26 27  2  0
 26 25  1  0
 27 28  1  0
 28 29  2  0
 30 29  1  0
 30 22  1  0
 31 20  1  0
 32 31  2  0
 33 31  1  0
M  END
$$$$
