EEW.pdb
     RDKit          3D

 33 34  0  0  1  0  0  0  0  0999 V2000
   16.5313  -12.0304  -16.9234 N   0  0  0  0  0  0  0  0  0  0  0  0
   16.8188  -10.7304  -16.2728 C   0  0  1  0  0  0  0  0  0  0  0  0
   17.2417  -11.0861  -14.8723 C   0  0  0  0  0  0  0  0  0  0  0  0
   16.0514  -11.4103  -14.0240 C   0  0  0  0  0  0  0  0  0  0  0  0
   15.5403  -12.7852  -14.3134 C   0  0  0  0  0  0  0  0  0  0  0  0
   16.3011  -13.7823  -14.2331 O   0  0  0  0  0  0  0  0  0  0  0  0
   17.9338  -10.0790  -17.0261 C   0  0  0  0  0  0  0  0  0  0  0  0
   18.7904  -10.7534  -17.6109 O   0  0  0  0  0  0  0  0  0  0  0  0
   14.2290  -12.9924  -14.6739 O   0  0  0  0  0  0  0  0  0  0  0  0
   18.0628   -8.6641  -17.1064 N   0  0  0  0  0  0  0  0  0  0  0  0
   19.0871   -8.0257  -17.9139 C   0  0  1  0  0  0  0  0  0  0  0  0
   18.4170   -7.4923  -19.1269 C   0  0  0  0  0  0  0  0  0  0  0  0
   17.1279   -6.7854  -18.9643 C   0  0  0  0  0  0  0  0  0  0  0  0
   16.4918   -6.1373  -20.0752 C   0  0  0  0  0  0  0  0  0  0  0  0
   15.3469   -5.6732  -20.0591 O   0  0  0  0  0  0  0  0  0  0  0  0
   20.0254   -7.1827  -17.1999 C   0  0  0  0  0  0  0  0  0  0  0  0
   19.6331   -6.4364  -16.2653 O   0  0  0  0  0  0  0  0  0  0  0  0
   17.1857   -6.0051  -21.2710 O   0  0  0  0  0  0  0  0  0  0  0  0
   21.4199   -7.1207  -17.4684 N   0  0  0  0  0  0  0  0  0  0  0  0
   22.3028   -6.1414  -16.8817 C   0  0  1  0  0  0  0  0  0  0  0  0
   23.6839   -6.4196  -17.4153 C   0  0  0  0  0  0  0  0  0  0  0  0
   24.6898   -5.4223  -17.0548 C   0  0  0  0  0  0  0  0  0  0  0  0
   24.9889   -4.9235  -15.8031 C   0  0  0  0  0  0  0  0  0  0  0  0
   25.9820   -4.0205  -15.9093 N   0  0  0  0  0  0  0  0  0  0  0  0
   26.3250   -3.9339  -17.2212 C   0  0  0  0  0  0  0  0  0  0  0  0
   27.2782   -3.1602  -17.8504 C   0  0  0  0  0  0  0  0  0  0  0  0
   27.4788   -3.2158  -19.2182 C   0  0  0  0  0  0  0  0  0  0  0  0
   26.6901   -4.0778  -19.9534 C   0  0  0  0  0  0  0  0  0  0  0  0
   25.7367   -4.8491  -19.3114 C   0  0  0  0  0  0  0  0  0  0  0  0
   25.5333   -4.7970  -17.9478 C   0  0  0  0  0  0  0  0  0  0  0  0
   21.8143   -4.7983  -17.1791 C   0  0  0  0  0  0  0  0  0  0  0  0
   21.3462   -4.4442  -18.2919 O   0  0  0  0  0  0  0  0  0  0  0  0
   21.8506   -3.8078  -16.1885 O   0  0  0  0  0  0  0  0  0  0  0  0
  2  1  1  6
  2  3  1  0
  3  4  1  0
  4  5  1  0
  5  9  1  0
  6  5  2  0
  7  2  1  0
  7  8  2  0
 10  7  1  0
 11 10  1  0
 11 12  1  6
 13 12  1  0
 13 14  1  0
 14 15  2  0
 16 11  1  0
 17 16  2  0
 18 14  1  0
 19 16  1  0
 20 21  1  6
 20 19  1  0
 22 21  1  0
 23 22  2  0
 24 25  1  0
 24 23  1  0
 25 30  2  0
 26 27  2  0
 26 25  1  0
 27 28  1  0
 28 29  2  0
 30 29  1  0
 30 22  1  0
 31 20  1  0
 32 31  2  0
 33 31  1  0
M  END
$$$$
