EEW.pdb
     RDKit          3D

 33 34  0  0  1  0  0  0  0  0999 V2000
   10.7043  -14.4394    4.7156 N   0  0  0  0  0  0  0  0  0  0  0  0
   10.7769  -15.7618    5.3803 C   0  0  1  0  0  0  0  0  0  0  0  0
   10.7877  -16.7593    4.2525 C   0  0  0  0  0  0  0  0  0  0  0  0
    9.4697  -16.7729    3.5424 C   0  0  0  0  0  0  0  0  0  0  0  0
    8.6997  -18.0153    3.8568 C   0  0  0  0  0  0  0  0  0  0  0  0
    9.2336  -18.9559    4.4969 O   0  0  0  0  0  0  0  0  0  0  0  0
   12.0515  -15.8122    6.1599 C   0  0  0  0  0  0  0  0  0  0  0  0
   12.9862  -15.0417    5.9082 O   0  0  0  0  0  0  0  0  0  0  0  0
    7.3922  -18.1595    3.4543 O   0  0  0  0  0  0  0  0  0  0  0  0
   12.2497  -16.7404    7.2201 N   0  0  0  0  0  0  0  0  0  0  0  0
   13.5667  -17.0271    7.7606 C   0  0  1  0  0  0  0  0  0  0  0  0
   13.3646  -17.7536    9.0398 C   0  0  0  0  0  0  0  0  0  0  0  0
   14.5522  -18.0748    9.8610 C   0  0  0  0  0  0  0  0  0  0  0  0
   14.4228  -18.7494   11.1207 C   0  0  0  0  0  0  0  0  0  0  0  0
   14.2261  -18.1882   12.2036 O   0  0  0  0  0  0  0  0  0  0  0  0
   14.5468  -17.5247    6.8158 C   0  0  0  0  0  0  0  0  0  0  0  0
   14.1830  -18.0297    5.7218 O   0  0  0  0  0  0  0  0  0  0  0  0
   14.5209  -20.1341   11.1615 O   0  0  0  0  0  0  0  0  0  0  0  0
   15.9533  -17.4895    7.0189 N   0  0  0  0  0  0  0  0  0  0  0  0
   16.9055  -17.2308    5.9657 C   0  0  1  0  0  0  0  0  0  0  0  0
   16.4883  -15.9440    5.3027 C   0  0  0  0  0  0  0  0  0  0  0  0
   17.3601  -15.5082    4.2134 C   0  0  0  0  0  0  0  0  0  0  0  0
   17.6112  -16.1425    3.0136 C   0  0  0  0  0  0  0  0  0  0  0  0
   18.4751  -15.4038    2.2918 N   0  0  0  0  0  0  0  0  0  0  0  0
   18.7824  -14.2976    3.0184 C   0  0  0  0  0  0  0  0  0  0  0  0
   19.6154  -13.2367    2.7290 C   0  0  0  0  0  0  0  0  0  0  0  0
   19.7993  -12.1889    3.6136 C   0  0  0  0  0  0  0  0  0  0  0  0
   19.1189  -12.2286    4.8142 C   0  0  0  0  0  0  0  0  0  0  0  0
   18.2860  -13.2981    5.0938 C   0  0  0  0  0  0  0  0  0  0  0  0
   18.0995  -14.3450    4.2147 C   0  0  0  0  0  0  0  0  0  0  0  0
   18.2554  -17.1989    6.5204 C   0  0  0  0  0  0  0  0  0  0  0  0
   19.2120  -17.8991    6.0989 O   0  0  0  0  0  0  0  0  0  0  0  0
   18.5485  -16.3465    7.5933 O   0  0  0  0  0  0  0  0  0  0  0  0
  2  1  1  6
  2  3  1  0
  3  4  1  0
  4  5  1  0
  5  9  1  0
  6  5  2  0
  7  2  1  0
  7  8  2  0
 10  7  1  0
 11 10  1  0
 11 12  1  1
 13 12  1  0
 13 14  1  0
 14 15  2  0
 16 11  1  0
 17 16  2  0
 18 14  1  0
 19 16  1  0
 20 21  1  1
 20 19  1  0
 22 21  1  0
 23 22  2  0
 24 25  1  0
 24 23  1  0
 25 30  2  0
 26 27  2  0
 26 25  1  0
 27 28  1  0
 28 29  2  0
 30 29  1  0
 30 22  1  0
 31 20  1  0
 32 31  2  0
 33 31  1  0
M  END
$$$$
