EEW.pdb
     RDKit          3D

 33 34  0  0  1  0  0  0  0  0999 V2000
   27.2526  -17.5446  -15.8699 N   0  0  0  0  0  0  0  0  0  0  0  0
   27.3291  -18.9381  -15.3716 C   0  0  1  0  0  0  0  0  0  0  0  0
   28.8026  -19.2241  -15.2533 C   0  0  0  0  0  0  0  0  0  0  0  0
   29.0378  -20.6537  -14.8759 C   0  0  0  0  0  0  0  0  0  0  0  0
   28.7683  -21.5678  -16.0280 C   0  0  0  0  0  0  0  0  0  0  0  0
   29.3294  -21.3838  -17.1375 O   0  0  0  0  0  0  0  0  0  0  0  0
   26.6599  -18.9830  -14.0355 C   0  0  0  0  0  0  0  0  0  0  0  0
   27.0116  -18.2310  -13.1182 O   0  0  0  0  0  0  0  0  0  0  0  0
   27.9022  -22.6292  -15.9029 O   0  0  0  0  0  0  0  0  0  0  0  0
   25.5952  -19.8850  -13.7564 N   0  0  0  0  0  0  0  0  0  0  0  0
   24.9355  -19.9259  -12.4633 C   0  0  1  0  0  0  0  0  0  0  0  0
   23.4729  -19.9349  -12.7199 C   0  0  0  0  0  0  0  0  0  0  0  0
   22.5603  -20.1572  -11.5773 C   0  0  0  0  0  0  0  0  0  0  0  0
   21.1414  -20.2521  -11.7685 C   0  0  0  0  0  0  0  0  0  0  0  0
   20.4243  -19.3381  -12.1890 O   0  0  0  0  0  0  0  0  0  0  0  0
   25.4865  -20.8562  -11.4980 C   0  0  0  0  0  0  0  0  0  0  0  0
   25.4956  -22.0927  -11.7331 O   0  0  0  0  0  0  0  0  0  0  0  0
   20.4951  -21.4443  -11.4688 O   0  0  0  0  0  0  0  0  0  0  0  0
   26.0506  -20.4818  -10.2481 N   0  0  0  0  0  0  0  0  0  0  0  0
   26.2834  -21.4097   -9.1676 C   0  0  1  0  0  0  0  0  0  0  0  0
   27.6615  -21.1223   -8.6311 C   0  0  0  0  0  0  0  0  0  0  0  0
   27.7167  -20.0605   -7.6281 C   0  0  0  0  0  0  0  0  0  0  0  0
   27.0405  -18.8574   -7.6188 C   0  0  0  0  0  0  0  0  0  0  0  0
   27.3747  -18.1674   -6.5119 N   0  0  0  0  0  0  0  0  0  0  0  0
   28.2620  -18.9179   -5.8078 C   0  0  0  0  0  0  0  0  0  0  0  0
   28.9019  -18.6643   -4.6122 C   0  0  0  0  0  0  0  0  0  0  0  0
   29.7842  -19.5689   -4.0488 C   0  0  0  0  0  0  0  0  0  0  0  0
   30.0148  -20.7524   -4.7211 C   0  0  0  0  0  0  0  0  0  0  0  0
   29.3672  -20.9960   -5.9200 C   0  0  0  0  0  0  0  0  0  0  0  0
   28.4866  -20.0969   -6.4853 C   0  0  0  0  0  0  0  0  0  0  0  0
   25.2234  -21.2812   -8.1721 C   0  0  0  0  0  0  0  0  0  0  0  0
   24.2903  -20.4396   -8.2345 O   0  0  0  0  0  0  0  0  0  0  0  0
   25.2060  -22.1312   -7.0582 O   0  0  0  0  0  0  0  0  0  0  0  0
  2  1  1  1
  2  3  1  0
  3  4  1  0
  4  5  1  0
  5  9  1  0
  6  5  2  0
  7  2  1  0
  7  8  2  0
 10  7  1  0
 11 10  1  0
 11 12  1  6
 13 12  1  0
 13 14  1  0
 14 15  2  0
 16 11  1  0
 17 16  2  0
 18 14  1  0
 19 16  1  0
 20 21  1  1
 20 19  1  0
 22 21  1  0
 23 22  2  0
 24 25  1  0
 24 23  1  0
 25 30  2  0
 26 27  2  0
 26 25  1  0
 27 28  1  0
 28 29  2  0
 30 29  1  0
 30 22  1  0
 31 20  1  0
 32 31  2  0
 33 31  1  0
M  END
$$$$
