EEW.pdb
     RDKit          3D

 33 34  0  0  1  0  0  0  0  0999 V2000
   24.9840  -19.7644  -15.7284 N   0  0  0  0  0  0  0  0  0  0  0  0
   24.3479  -21.0581  -15.3858 C   0  0  1  0  0  0  0  0  0  0  0  0
   25.4776  -21.9246  -14.8958 C   0  0  0  0  0  0  0  0  0  0  0  0
   26.0328  -22.7549  -16.0111 C   0  0  0  0  0  0  0  0  0  0  0  0
   25.0303  -23.7554  -16.4901 C   0  0  0  0  0  0  0  0  0  0  0  0
   24.8246  -24.8154  -15.8470 O   0  0  0  0  0  0  0  0  0  0  0  0
   23.3508  -20.8041  -14.3014 C   0  0  0  0  0  0  0  0  0  0  0  0
   23.7039  -20.3797  -13.1942 O   0  0  0  0  0  0  0  0  0  0  0  0
   24.3108  -23.5416  -17.6429 O   0  0  0  0  0  0  0  0  0  0  0  0
   21.9592  -21.0359  -14.4884 N   0  0  0  0  0  0  0  0  0  0  0  0
   20.9901  -20.8193  -13.4288 C   0  0  1  0  0  0  0  0  0  0  0  0
   20.3132  -19.5288  -13.7138 C   0  0  0  0  0  0  0  0  0  0  0  0
   19.0083  -19.5581  -14.4095 C   0  0  0  0  0  0  0  0  0  0  0  0
   17.9212  -18.7243  -13.9833 C   0  0  0  0  0  0  0  0  0  0  0  0
   16.8107  -19.1380  -13.6340 O   0  0  0  0  0  0  0  0  0  0  0  0
   20.1879  -21.9678  -13.0569 C   0  0  0  0  0  0  0  0  0  0  0  0
   19.6460  -22.6834  -13.9392 O   0  0  0  0  0  0  0  0  0  0  0  0
   18.0963  -17.3469  -13.9491 O   0  0  0  0  0  0  0  0  0  0  0  0
   19.9478  -22.3848  -11.7193 N   0  0  0  0  0  0  0  0  0  0  0  0
   19.1218  -23.5162  -11.3722 C   0  0  1  0  0  0  0  0  0  0  0  0
   19.6641  -24.0770  -10.0834 C   0  0  0  0  0  0  0  0  0  0  0  0
   18.9138  -25.2114   -9.5480 C   0  0  0  0  0  0  0  0  0  0  0  0
   18.4915  -26.3462  -10.2104 C   0  0  0  0  0  0  0  0  0  0  0  0
   17.8312  -27.1441   -9.3499 N   0  0  0  0  0  0  0  0  0  0  0  0
   17.8251  -26.5310   -8.1374 C   0  0  0  0  0  0  0  0  0  0  0  0
   17.2831  -26.9296   -6.9330 C   0  0  0  0  0  0  0  0  0  0  0  0
   17.3842  -26.1526   -5.7927 C   0  0  0  0  0  0  0  0  0  0  0  0
   18.0512  -24.9477   -5.8878 C   0  0  0  0  0  0  0  0  0  0  0  0
   18.5910  -24.5580   -7.1014 C   0  0  0  0  0  0  0  0  0  0  0  0
   18.4926  -25.3297   -8.2409 C   0  0  0  0  0  0  0  0  0  0  0  0
   17.7249  -23.0994  -11.2935 C   0  0  0  0  0  0  0  0  0  0  0  0
   16.7454  -23.8563  -11.5180 O   0  0  0  0  0  0  0  0  0  0  0  0
   17.4098  -21.7784  -10.9484 O   0  0  0  0  0  0  0  0  0  0  0  0
  2  1  1  1
  2  3  1  0
  3  4  1  0
  4  5  1  0
  5  9  1  0
  6  5  2  0
  7  2  1  0
  7  8  2  0
 10  7  1  0
 11 10  1  0
 11 12  1  6
 13 12  1  0
 13 14  1  0
 14 15  2  0
 16 11  1  0
 17 16  2  0
 18 14  1  0
 19 16  1  0
 20 21  1  1
 20 19  1  0
 22 21  1  0
 23 22  2  0
 24 25  1  0
 24 23  1  0
 25 30  2  0
 26 27  2  0
 26 25  1  0
 27 28  1  0
 28 29  2  0
 30 29  1  0
 30 22  1  0
 31 20  1  0
 32 31  2  0
 33 31  1  0
M  END
$$$$
