EEW.pdb
     RDKit          3D

 33 34  0  0  1  0  0  0  0  0999 V2000
   23.0195  -17.1850  -15.8859 N   0  0  0  0  0  0  0  0  0  0  0  0
   24.3866  -17.5285  -15.4288 C   0  0  1  0  0  0  0  0  0  0  0  0
   24.8679  -16.3023  -14.6995 C   0  0  0  0  0  0  0  0  0  0  0  0
   25.1891  -15.2026  -15.6635 C   0  0  0  0  0  0  0  0  0  0  0  0
   26.2352  -15.6308  -16.6421 C   0  0  0  0  0  0  0  0  0  0  0  0
   27.3315  -16.0996  -16.2448 O   0  0  0  0  0  0  0  0  0  0  0  0
   24.2792  -18.6998  -14.5061 C   0  0  0  0  0  0  0  0  0  0  0  0
   23.4252  -18.7334  -13.6115 O   0  0  0  0  0  0  0  0  0  0  0  0
   26.0246  -15.5224  -17.9972 O   0  0  0  0  0  0  0  0  0  0  0  0
   25.1463  -19.8233  -14.6112 N   0  0  0  0  0  0  0  0  0  0  0  0
   25.1230  -20.9105  -13.6488 C   0  0  1  0  0  0  0  0  0  0  0  0
   25.4705  -22.1523  -14.3852 C   0  0  0  0  0  0  0  0  0  0  0  0
   25.4174  -23.4391  -13.6576 C   0  0  0  0  0  0  0  0  0  0  0  0
   24.1975  -24.1884  -13.5633 C   0  0  0  0  0  0  0  0  0  0  0  0
   23.2051  -24.0121  -14.2779 O   0  0  0  0  0  0  0  0  0  0  0  0
   25.7618  -20.6455  -12.3750 C   0  0  0  0  0  0  0  0  0  0  0  0
   26.9216  -20.1586  -12.3291 O   0  0  0  0  0  0  0  0  0  0  0  0
   24.0906  -25.1926  -12.6099 O   0  0  0  0  0  0  0  0  0  0  0  0
   25.1675  -20.8932  -11.1077 N   0  0  0  0  0  0  0  0  0  0  0  0
   25.9251  -21.1822   -9.9138 C   0  0  1  0  0  0  0  0  0  0  0  0
   26.9061  -20.0535   -9.7320 C   0  0  0  0  0  0  0  0  0  0  0  0
   28.0269  -20.3561   -8.8440 C   0  0  0  0  0  0  0  0  0  0  0  0
   29.1192  -21.1628   -9.0906 C   0  0  0  0  0  0  0  0  0  0  0  0
   29.9193  -21.1722   -8.0076 N   0  0  0  0  0  0  0  0  0  0  0  0
   29.3497  -20.3768   -7.0646 C   0  0  0  0  0  0  0  0  0  0  0  0
   29.7680  -20.0557   -5.7899 C   0  0  0  0  0  0  0  0  0  0  0  0
   29.0366  -19.2144   -4.9705 C   0  0  0  0  0  0  0  0  0  0  0  0
   27.8575  -18.6937   -5.4649 C   0  0  0  0  0  0  0  0  0  0  0  0
   27.4476  -19.0230   -6.7454 C   0  0  0  0  0  0  0  0  0  0  0  0
   28.1739  -19.8614   -7.5659 C   0  0  0  0  0  0  0  0  0  0  0  0
   25.0157  -21.3619   -8.7860 C   0  0  0  0  0  0  0  0  0  0  0  0
   23.8039  -21.0238   -8.7914 O   0  0  0  0  0  0  0  0  0  0  0  0
   25.4820  -21.9454   -7.6004 O   0  0  0  0  0  0  0  0  0  0  0  0
  2  1  1  1
  2  3  1  0
  3  4  1  0
  4  5  1  0
  5  9  1  0
  6  5  2  0
  7  2  1  0
  7  8  2  0
 10  7  1  0
 11 10  1  0
 11 12  1  6
 13 12  1  0
 13 14  1  0
 14 15  2  0
 16 11  1  0
 17 16  2  0
 18 14  1  0
 19 16  1  0
 20 21  1  1
 20 19  1  0
 22 21  1  0
 23 22  2  0
 24 25  1  0
 24 23  1  0
 25 30  2  0
 26 27  2  0
 26 25  1  0
 27 28  1  0
 28 29  2  0
 30 29  1  0
 30 22  1  0
 31 20  1  0
 32 31  2  0
 33 31  1  0
M  END
$$$$
