EEW.pdb
     RDKit          3D

 33 34  0  0  1  0  0  0  0  0999 V2000
   28.5773  -19.5024  -16.6056 N   0  0  0  0  0  0  0  0  0  0  0  0
   27.3708  -20.3618  -16.5647 C   0  0  1  0  0  0  0  0  0  0  0  0
   27.8942  -21.7469  -16.2915 C   0  0  0  0  0  0  0  0  0  0  0  0
   29.3893  -21.7742  -16.3650 C   0  0  0  0  0  0  0  0  0  0  0  0
   29.8568  -22.4945  -17.5889 C   0  0  0  0  0  0  0  0  0  0  0  0
   29.8737  -23.7506  -17.6265 O   0  0  0  0  0  0  0  0  0  0  0  0
   26.5042  -19.8800  -15.4459 C   0  0  0  0  0  0  0  0  0  0  0  0
   26.8771  -18.9714  -14.6935 O   0  0  0  0  0  0  0  0  0  0  0  0
   30.2788  -21.8026  -18.7005 O   0  0  0  0  0  0  0  0  0  0  0  0
   25.2196  -20.4380  -15.1943 N   0  0  0  0  0  0  0  0  0  0  0  0
   24.3317  -19.9064  -14.1755 C   0  0  1  0  0  0  0  0  0  0  0  0
   23.1308  -19.3820  -14.8740 C   0  0  0  0  0  0  0  0  0  0  0  0
   22.0086  -18.8724  -14.0562 C   0  0  0  0  0  0  0  0  0  0  0  0
   20.6525  -19.2419  -14.3447 C   0  0  0  0  0  0  0  0  0  0  0  0
   20.2152  -19.4924  -15.4727 O   0  0  0  0  0  0  0  0  0  0  0  0
   24.1564  -20.7275  -12.9941 C   0  0  0  0  0  0  0  0  0  0  0  0
   23.9126  -21.9579  -13.0996 O   0  0  0  0  0  0  0  0  0  0  0  0
   19.7386  -19.3338  -13.3030 O   0  0  0  0  0  0  0  0  0  0  0  0
   24.2430  -20.2483  -11.6586 N   0  0  0  0  0  0  0  0  0  0  0  0
   24.0970  -21.0920  -10.4969 C   0  0  1  0  0  0  0  0  0  0  0  0
   24.8168  -20.4079   -9.3640 C   0  0  0  0  0  0  0  0  0  0  0  0
   26.2697  -20.5668   -9.3797 C   0  0  0  0  0  0  0  0  0  0  0  0
   27.0481  -21.2206  -10.3133 C   0  0  0  0  0  0  0  0  0  0  0  0
   28.3427  -21.1326   -9.9536 N   0  0  0  0  0  0  0  0  0  0  0  0
   28.4038  -20.4265   -8.7943 C   0  0  0  0  0  0  0  0  0  0  0  0
   29.4868  -20.0627   -8.0212 C   0  0  0  0  0  0  0  0  0  0  0  0
   29.3408  -19.3315   -6.8558 C   0  0  0  0  0  0  0  0  0  0  0  0
   28.0645  -18.9671   -6.4762 C   0  0  0  0  0  0  0  0  0  0  0  0
   26.9853  -19.3378   -7.2597 C   0  0  0  0  0  0  0  0  0  0  0  0
   27.1263  -20.0668   -8.4225 C   0  0  0  0  0  0  0  0  0  0  0  0
   22.6803  -21.3310  -10.2378 C   0  0  0  0  0  0  0  0  0  0  0  0
   21.7417  -20.8095  -10.8934 O   0  0  0  0  0  0  0  0  0  0  0  0
   22.2966  -22.1911   -9.2002 O   0  0  0  0  0  0  0  0  0  0  0  0
  2  1  1  1
  2  3  1  0
  3  4  1  0
  4  5  1  0
  5  9  1  0
  6  5  2  0
  7  2  1  0
  7  8  2  0
 10  7  1  0
 11 10  1  0
 11 12  1  6
 13 12  1  0
 13 14  1  0
 14 15  2  0
 16 11  1  0
 17 16  2  0
 18 14  1  0
 19 16  1  0
 20 21  1  1
 20 19  1  0
 22 21  1  0
 23 22  2  0
 24 25  1  0
 24 23  1  0
 25 30  2  0
 26 27  2  0
 26 25  1  0
 27 28  1  0
 28 29  2  0
 30 29  1  0
 30 22  1  0
 31 20  1  0
 32 31  2  0
 33 31  1  0
M  END
$$$$
