FLD.pdb
     RDKit          3D

 28 28  0  0  1  0  0  0  0  0999 V2000
   18.5049  -11.5719    6.3578 N   0  0  0  0  0  0  0  0  0  0  0  0
   18.1274  -12.9510    6.6337 C   0  0  1  0  0  0  0  0  0  0  0  0
   19.0298  -13.9438    5.9640 C   0  0  0  0  0  0  0  0  0  0  0  0
   18.7609  -14.0539    4.5048 C   0  0  0  0  0  0  0  0  0  0  0  0
   19.5997  -13.3735    3.6477 C   0  0  0  0  0  0  0  0  0  0  0  0
   19.4617  -13.3915    2.2700 C   0  0  0  0  0  0  0  0  0  0  0  0
   18.4144  -14.1446    1.7779 C   0  0  0  0  0  0  0  0  0  0  0  0
   17.5667  -14.8302    2.6094 C   0  0  0  0  0  0  0  0  0  0  0  0
   17.7273  -14.7958    3.9960 C   0  0  0  0  0  0  0  0  0  0  0  0
   18.1930  -13.1597    8.0958 C   0  0  0  0  0  0  0  0  0  0  0  0
   19.1904  -12.7210    8.7123 O   0  0  0  0  0  0  0  0  0  0  0  0
   17.2871  -11.4177   11.6795 C   0  0  0  0  0  0  0  0  0  0  0  0
   16.0233  -11.9611   10.9888 C   0  0  2  0  0  0  0  0  0  0  0  0
   14.8494  -11.3607   11.6789 C   0  0  0  0  0  0  0  0  0  0  0  0
   16.1280  -13.4399   11.0106 C   0  0  0  0  0  0  0  0  0  0  0  0
   17.2761  -13.9840   10.2271 C   0  0  2  0  0  0  0  0  0  0  0  0
   17.1827  -13.8295    8.8050 N   0  0  0  0  0  0  0  0  0  0  0  0
   17.5349  -15.4095   10.5545 C   0  0  0  0  0  0  0  0  0  0  0  0
   17.7763  -15.7570   11.7256 O   0  0  0  0  0  0  0  0  0  0  0  0
   17.5083  -16.3828    9.5345 N   0  0  0  0  0  0  0  0  0  0  0  0
   17.7342  -17.7752    9.8866 C   0  0  1  0  0  0  0  0  0  0  0  0
   16.8345  -18.6644    9.0485 C   0  0  0  0  0  0  0  0  0  0  0  0
   15.4339  -18.2225    9.0167 C   0  0  0  0  0  0  0  0  0  0  0  0
   14.8623  -17.6701    9.9902 O   0  0  0  0  0  0  0  0  0  0  0  0
   19.1625  -18.0819    9.6532 C   0  0  0  0  0  0  0  0  0  0  0  0
   20.0364  -17.1735    9.0639 O   0  0  0  0  0  0  0  0  0  0  0  0
   14.6431  -18.3983    7.8716 O   0  0  0  0  0  0  0  0  0  0  0  0
   19.5957  -19.2136   10.0051 O   0  0  0  0  0  0  0  0  0  0  0  0
  2 10  1  0
  2  1  1  1
  2  3  1  0
  3  4  1  0
  4  5  2  0
  4  9  1  0
  5  6  1  0
  6  7  2  0
  8  7  1  0
  9  8  2  0
 10 17  1  0
 11 10  2  0
 13 12  1  1
 13 14  1  0
 15 13  1  0
 16 15  1  1
 17 16  1  0
 18 19  2  0
 18 16  1  0
 20 18  1  0
 21 22  1  6
 21 20  1  0
 23 22  1  0
 24 23  2  0
 25 21  1  0
 26 25  1  0
 27 23  1  0
 28 25  2  0
M  END
$$$$
