FLD.pdb
     RDKit          3D

 28 28  0  0  1  0  0  0  0  0999 V2000
   23.9328  -19.9152  -17.5331 N   0  0  0  0  0  0  0  0  0  0  0  0
   23.4753  -19.1302  -16.3951 C   0  0  1  0  0  0  0  0  0  0  0  0
   22.1430  -18.4850  -16.6343 C   0  0  0  0  0  0  0  0  0  0  0  0
   22.1972  -17.4666  -17.7176 C   0  0  0  0  0  0  0  0  0  0  0  0
   22.7464  -16.2391  -17.4132 C   0  0  0  0  0  0  0  0  0  0  0  0
   22.8582  -15.2047  -18.3271 C   0  0  0  0  0  0  0  0  0  0  0  0
   22.3802  -15.4658  -19.5958 C   0  0  0  0  0  0  0  0  0  0  0  0
   21.8298  -16.6782  -19.9232 C   0  0  0  0  0  0  0  0  0  0  0  0
   21.7287  -17.7054  -18.9829 C   0  0  0  0  0  0  0  0  0  0  0  0
   23.3634  -20.0343  -15.2308 C   0  0  0  0  0  0  0  0  0  0  0  0
   22.9118  -21.1869  -15.4175 O   0  0  0  0  0  0  0  0  0  0  0  0
   22.8662  -21.0575   -9.9640 C   0  0  0  0  0  0  0  0  0  0  0  0
   24.2472  -21.3385  -10.5831 C   0  0  2  0  0  0  0  0  0  0  0  0
   25.2401  -21.3228   -9.4748 C   0  0  0  0  0  0  0  0  0  0  0  0
   24.4386  -20.3450  -11.6669 C   0  0  0  0  0  0  0  0  0  0  0  0
   23.5024  -20.5070  -12.8183 C   0  0  2  0  0  0  0  0  0  0  0  0
   23.7422  -19.6426  -13.9364 N   0  0  0  0  0  0  0  0  0  0  0  0
   22.0849  -20.3840  -12.3921 C   0  0  0  0  0  0  0  0  0  0  0  0
   21.6629  -19.3243  -11.8929 O   0  0  0  0  0  0  0  0  0  0  0  0
   21.2041  -21.4736  -12.5518 N   0  0  0  0  0  0  0  0  0  0  0  0
   19.8303  -21.3385  -12.0956 C   0  0  1  0  0  0  0  0  0  0  0  0
   18.9624  -20.8385  -13.2354 C   0  0  0  0  0  0  0  0  0  0  0  0
   18.9203  -21.7493  -14.3872 C   0  0  0  0  0  0  0  0  0  0  0  0
   17.9651  -22.5349  -14.6111 O   0  0  0  0  0  0  0  0  0  0  0  0
   19.3749  -22.6605  -11.6123 C   0  0  0  0  0  0  0  0  0  0  0  0
   18.1691  -22.8370  -10.9405 O   0  0  0  0  0  0  0  0  0  0  0  0
   19.9682  -21.7907  -15.3186 O   0  0  0  0  0  0  0  0  0  0  0  0
   20.1154  -23.6606  -11.8216 O   0  0  0  0  0  0  0  0  0  0  0  0
  2 10  1  0
  2  1  1  6
  2  3  1  0
  3  4  1  0
  4  5  2  0
  4  9  1  0
  5  6  1  0
  6  7  2  0
  8  7  1  0
  9  8  2  0
 10 17  1  0
 11 10  2  0
 13 12  1  1
 13 14  1  0
 15 13  1  0
 16 15  1  1
 17 16  1  0
 18 19  2  0
 18 16  1  0
 20 18  1  0
 21 22  1  6
 21 20  1  0
 23 22  1  0
 24 23  2  0
 25 21  1  0
 26 25  1  0
 27 23  1  0
 28 25  2  0
M  END
$$$$
