FLD.pdb
     RDKit          3D

 28 28  0  0  1  0  0  0  0  0999 V2000
   15.6598  -17.4107    4.5197 N   0  0  0  0  0  0  0  0  0  0  0  0
   16.6135  -18.1789    3.7316 C   0  0  1  0  0  0  0  0  0  0  0  0
   17.1233  -17.4230    2.5411 C   0  0  0  0  0  0  0  0  0  0  0  0
   17.6619  -16.0864    2.9115 C   0  0  0  0  0  0  0  0  0  0  0  0
   16.7723  -15.1516    3.3971 C   0  0  0  0  0  0  0  0  0  0  0  0
   17.1410  -13.8725    3.7785 C   0  0  0  0  0  0  0  0  0  0  0  0
   18.4807  -13.5657    3.6465 C   0  0  0  0  0  0  0  0  0  0  0  0
   19.3849  -14.4777    3.1661 C   0  0  0  0  0  0  0  0  0  0  0  0
   18.9874  -15.7618    2.7882 C   0  0  0  0  0  0  0  0  0  0  0  0
   17.7575  -18.5205    4.6033 C   0  0  0  0  0  0  0  0  0  0  0  0
   18.6762  -19.2243    4.1258 O   0  0  0  0  0  0  0  0  0  0  0  0
   22.0856  -16.8640    7.9480 C   0  0  0  0  0  0  0  0  0  0  0  0
   21.2196  -18.1042    7.6627 C   0  0  2  0  0  0  0  0  0  0  0  0
   22.1311  -19.1800    7.1869 C   0  0  0  0  0  0  0  0  0  0  0  0
   20.1504  -17.6724    6.7308 C   0  0  0  0  0  0  0  0  0  0  0  0
   18.9225  -18.5203    6.7725 C   0  0  2  0  0  0  0  0  0  0  0  0
   17.8425  -18.0859    5.9360 N   0  0  0  0  0  0  0  0  0  0  0  0
   18.4305  -18.7023    8.1621 C   0  0  0  0  0  0  0  0  0  0  0  0
   17.6471  -17.8784    8.6700 O   0  0  0  0  0  0  0  0  0  0  0  0
   18.8505  -19.8161    8.9181 N   0  0  0  0  0  0  0  0  0  0  0  0
   18.3155  -19.9974   10.2578 C   0  0  1  0  0  0  0  0  0  0  0  0
   17.3165  -21.1395   10.2565 C   0  0  0  0  0  0  0  0  0  0  0  0
   17.9361  -22.4640   10.1154 C   0  0  0  0  0  0  0  0  0  0  0  0
   19.1771  -22.6389   10.0216 O   0  0  0  0  0  0  0  0  0  0  0  0
   19.4468  -20.2729   11.1704 C   0  0  0  0  0  0  0  0  0  0  0  0
   19.3859  -20.0154   12.5366 O   0  0  0  0  0  0  0  0  0  0  0  0
   17.1567  -23.6296   10.0773 O   0  0  0  0  0  0  0  0  0  0  0  0
   20.5035  -20.7597   10.6820 O   0  0  0  0  0  0  0  0  0  0  0  0
  2 10  1  0
  2  1  1  1
  2  3  1  0
  3  4  1  0
  4  5  2  0
  4  9  1  0
  5  6  1  0
  6  7  2  0
  8  7  1  0
  9  8  2  0
 10 17  1  0
 11 10  2  0
 13 12  1  6
 13 14  1  0
 15 13  1  0
 16 15  1  1
 17 16  1  0
 18 19  2  0
 18 16  1  0
 20 18  1  0
 21 22  1  6
 21 20  1  0
 23 22  1  0
 24 23  2  0
 25 21  1  0
 26 25  1  0
 27 23  1  0
 28 25  2  0
M  END
$$$$
