FLD.pdb
     RDKit          3D

 28 28  0  0  1  0  0  0  0  0999 V2000
   28.1242  -19.7745  -16.0813 N   0  0  0  0  0  0  0  0  0  0  0  0
   27.2314  -19.3085  -15.0294 C   0  0  1  0  0  0  0  0  0  0  0  0
   26.0932  -18.4873  -15.5571 C   0  0  0  0  0  0  0  0  0  0  0  0
   26.5426  -17.1627  -16.0644 C   0  0  0  0  0  0  0  0  0  0  0  0
   26.5422  -16.1060  -15.1787 C   0  0  0  0  0  0  0  0  0  0  0  0
   26.9364  -14.8232  -15.5203 C   0  0  0  0  0  0  0  0  0  0  0  0
   27.3423  -14.6444  -16.8278 C   0  0  0  0  0  0  0  0  0  0  0  0
   27.3517  -15.6791  -17.7274 C   0  0  0  0  0  0  0  0  0  0  0  0
   26.9492  -16.9640  -17.3578 C   0  0  0  0  0  0  0  0  0  0  0  0
   26.6817  -20.4935  -14.3374 C   0  0  0  0  0  0  0  0  0  0  0  0
   26.7956  -21.6095  -14.8932 O   0  0  0  0  0  0  0  0  0  0  0  0
   27.1249  -20.5603   -9.2299 C   0  0  0  0  0  0  0  0  0  0  0  0
   25.9191  -20.5516  -10.1867 C   0  0  2  0  0  0  0  0  0  0  0  0
   24.6937  -20.4206   -9.3527 C   0  0  0  0  0  0  0  0  0  0  0  0
   26.0312  -21.7696  -11.0247 C   0  0  0  0  0  0  0  0  0  0  0  0
   25.5699  -21.5886  -12.4328 C   0  0  2  0  0  0  0  0  0  0  0  0
   26.0413  -20.4054  -13.0906 N   0  0  0  0  0  0  0  0  0  0  0  0
   24.0897  -21.6566  -12.5364 C   0  0  0  0  0  0  0  0  0  0  0  0
   23.4218  -22.2654  -11.6798 O   0  0  0  0  0  0  0  0  0  0  0  0
   23.4291  -21.0280  -13.6120 N   0  0  0  0  0  0  0  0  0  0  0  0
   21.9755  -21.0076  -13.6277 C   0  0  1  0  0  0  0  0  0  0  0  0
   21.4641  -20.2568  -12.4123 C   0  0  0  0  0  0  0  0  0  0  0  0
   20.0089  -20.0556  -12.4134 C   0  0  0  0  0  0  0  0  0  0  0  0
   19.4568  -19.0074  -11.9939 O   0  0  0  0  0  0  0  0  0  0  0  0
   21.5389  -20.3593  -14.8838 C   0  0  0  0  0  0  0  0  0  0  0  0
   20.2427  -20.4777  -15.3757 O   0  0  0  0  0  0  0  0  0  0  0  0
   19.1396  -21.0460  -12.8939 O   0  0  0  0  0  0  0  0  0  0  0  0
   22.3817  -19.6752  -15.5271 O   0  0  0  0  0  0  0  0  0  0  0  0
  2 10  1  0
  2  1  1  6
  2  3  1  0
  3  4  1  0
  4  5  2  0
  4  9  1  0
  5  6  1  0
  6  7  2  0
  8  7  1  0
  9  8  2  0
 10 17  1  0
 11 10  2  0
 13 12  1  1
 13 14  1  0
 15 13  1  0
 16 15  1  1
 17 16  1  0
 18 19  2  0
 18 16  1  0
 20 18  1  0
 21 22  1  1
 21 20  1  0
 23 22  1  0
 24 23  2  0
 25 21  1  0
 26 25  1  0
 27 23  1  0
 28 25  2  0
M  END
$$$$
