FLD.pdb
     RDKit          3D

 28 28  0  0  1  0  0  0  0  0999 V2000
   26.8266  -18.2140   -7.8055 N   0  0  0  0  0  0  0  0  0  0  0  0
   26.9936  -19.5999   -8.2204 C   0  0  1  0  0  0  0  0  0  0  0  0
   26.8131  -20.5688   -7.0904 C   0  0  0  0  0  0  0  0  0  0  0  0
   27.8244  -20.3755   -6.0163 C   0  0  0  0  0  0  0  0  0  0  0  0
   27.3752  -19.9424   -4.7868 C   0  0  0  0  0  0  0  0  0  0  0  0
   28.2090  -19.7233   -3.7031 C   0  0  0  0  0  0  0  0  0  0  0  0
   29.5515  -19.9656   -3.9155 C   0  0  0  0  0  0  0  0  0  0  0  0
   30.0228  -20.3968   -5.1287 C   0  0  0  0  0  0  0  0  0  0  0  0
   29.1609  -20.6103   -6.2063 C   0  0  0  0  0  0  0  0  0  0  0  0
   25.9851  -19.8906   -9.2615 C   0  0  0  0  0  0  0  0  0  0  0  0
   24.7853  -19.6354   -9.0112 O   0  0  0  0  0  0  0  0  0  0  0  0
   28.3060  -21.1975  -12.1802 C   0  0  0  0  0  0  0  0  0  0  0  0
   27.4919  -20.6054  -13.3447 C   0  0  2  0  0  0  0  0  0  0  0  0
   28.4569  -20.2346  -14.4152 C   0  0  0  0  0  0  0  0  0  0  0  0
   26.6696  -19.5103  -12.7766 C   0  0  0  0  0  0  0  0  0  0  0  0
   25.7219  -19.9469  -11.7091 C   0  0  2  0  0  0  0  0  0  0  0  0
   26.3286  -20.4400  -10.5075 N   0  0  0  0  0  0  0  0  0  0  0  0
   24.7474  -20.9457  -12.2179 C   0  0  0  0  0  0  0  0  0  0  0  0
   24.8868  -22.1557  -11.9594 O   0  0  0  0  0  0  0  0  0  0  0  0
   23.6523  -20.5262  -13.0009 N   0  0  0  0  0  0  0  0  0  0  0  0
   22.6124  -21.4886  -13.3266 C   0  0  1  0  0  0  0  0  0  0  0  0
   21.2830  -20.7716  -13.4719 C   0  0  0  0  0  0  0  0  0  0  0  0
   20.3980  -20.9303  -12.3102 C   0  0  0  0  0  0  0  0  0  0  0  0
   20.6665  -21.6760  -11.3348 O   0  0  0  0  0  0  0  0  0  0  0  0
   22.9956  -22.1716  -14.5816 C   0  0  0  0  0  0  0  0  0  0  0  0
   22.5278  -23.4385  -14.9171 O   0  0  0  0  0  0  0  0  0  0  0  0
   19.1787  -20.2419  -12.2272 O   0  0  0  0  0  0  0  0  0  0  0  0
   23.7775  -21.5747  -15.3719 O   0  0  0  0  0  0  0  0  0  0  0  0
  2 10  1  0
  2  1  1  1
  2  3  1  0
  3  4  1  0
  4  5  2  0
  4  9  1  0
  5  6  1  0
  6  7  2  0
  8  7  1  0
  9  8  2  0
 10 17  1  0
 11 10  2  0
 13 12  1  1
 13 14  1  0
 15 13  1  0
 16 15  1  6
 17 16  1  0
 18 19  2  0
 18 16  1  0
 20 18  1  0
 21 22  1  6
 21 20  1  0
 23 22  1  0
 24 23  2  0
 25 21  1  0
 26 25  1  0
 27 23  1  0
 28 25  2  0
M  END
$$$$
