FLD.pdb
     RDKit          3D

 28 28  0  0  1  0  0  0  0  0999 V2000
   28.4558  -20.7847   -8.5908 N   0  0  0  0  0  0  0  0  0  0  0  0
   27.0273  -20.6357   -8.3500 C   0  0  1  0  0  0  0  0  0  0  0  0
   26.7208  -19.6138   -7.2964 C   0  0  0  0  0  0  0  0  0  0  0  0
   27.6893  -19.6611   -6.1678 C   0  0  0  0  0  0  0  0  0  0  0  0
   27.6979  -20.7930   -5.3806 C   0  0  0  0  0  0  0  0  0  0  0  0
   28.5477  -20.9660   -4.3011 C   0  0  0  0  0  0  0  0  0  0  0  0
   29.4127  -19.9219   -4.0403 C   0  0  0  0  0  0  0  0  0  0  0  0
   29.4235  -18.7861   -4.8083 C   0  0  0  0  0  0  0  0  0  0  0  0
   28.5560  -18.6362   -5.8921 C   0  0  0  0  0  0  0  0  0  0  0  0
   26.3908  -20.2176   -9.6171 C   0  0  0  0  0  0  0  0  0  0  0  0
   26.4493  -19.0091   -9.9384 O   0  0  0  0  0  0  0  0  0  0  0  0
   27.3276  -19.0710  -13.2035 C   0  0  0  0  0  0  0  0  0  0  0  0
   27.5488  -20.5656  -12.9091 C   0  0  2  0  0  0  0  0  0  0  0  0
   28.5166  -21.0764  -13.9176 C   0  0  0  0  0  0  0  0  0  0  0  0
   26.2082  -21.1987  -12.8876 C   0  0  0  0  0  0  0  0  0  0  0  0
   25.3270  -20.7290  -11.7780 C   0  0  2  0  0  0  0  0  0  0  0  0
   25.7283  -21.1248  -10.4600 N   0  0  0  0  0  0  0  0  0  0  0  0
   23.9111  -21.1176  -12.0024 C   0  0  0  0  0  0  0  0  0  0  0  0
   23.3408  -21.9088  -11.2282 O   0  0  0  0  0  0  0  0  0  0  0  0
   23.2008  -20.5892  -13.0999 N   0  0  0  0  0  0  0  0  0  0  0  0
   21.8021  -20.9480  -13.2696 C   0  0  1  0  0  0  0  0  0  0  0  0
   20.9937  -20.4097  -12.1037 C   0  0  0  0  0  0  0  0  0  0  0  0
   19.5667  -20.7521  -12.1685 C   0  0  0  0  0  0  0  0  0  0  0  0
   19.0724  -21.4840  -13.0627 O   0  0  0  0  0  0  0  0  0  0  0  0
   21.3357  -20.3826  -14.5546 C   0  0  0  0  0  0  0  0  0  0  0  0
   20.4632  -21.0627  -15.3986 O   0  0  0  0  0  0  0  0  0  0  0  0
   18.6602  -20.2689  -11.2133 O   0  0  0  0  0  0  0  0  0  0  0  0
   21.7509  -19.2391  -14.8899 O   0  0  0  0  0  0  0  0  0  0  0  0
  2 10  1  0
  2  1  1  6
  2  3  1  0
  3  4  1  0
  4  5  2  0
  4  9  1  0
  5  6  1  0
  6  7  2  0
  8  7  1  0
  9  8  2  0
 10 17  1  0
 11 10  2  0
 13 12  1  6
 13 14  1  0
 15 13  1  0
 16 15  1  6
 17 16  1  0
 18 19  2  0
 18 16  1  0
 20 18  1  0
 21 22  1  1
 21 20  1  0
 23 22  1  0
 24 23  2  0
 25 21  1  0
 26 25  1  0
 27 23  1  0
 28 25  2  0
M  END
$$$$
