FLD.pdb
     RDKit          3D

 28 28  0  0  1  0  0  0  0  0999 V2000
   29.6725  -20.0257  -12.3154 N   0  0  0  0  0  0  0  0  0  0  0  0
   28.4804  -20.7871  -11.9691 C   0  0  1  0  0  0  0  0  0  0  0  0
   28.4660  -21.2199  -10.5335 C   0  0  0  0  0  0  0  0  0  0  0  0
   29.7930  -21.7200  -10.0831 C   0  0  0  0  0  0  0  0  0  0  0  0
   30.1503  -21.4903   -8.7714 C   0  0  0  0  0  0  0  0  0  0  0  0
   31.3540  -21.9022   -8.2246 C   0  0  0  0  0  0  0  0  0  0  0  0
   32.2065  -22.5739   -9.0781 C   0  0  0  0  0  0  0  0  0  0  0  0
   31.8741  -22.8146  -10.3863 C   0  0  0  0  0  0  0  0  0  0  0  0
   30.6535  -22.3886  -10.9138 C   0  0  0  0  0  0  0  0  0  0  0  0
   27.3016  -19.9307  -12.2191 C   0  0  0  0  0  0  0  0  0  0  0  0
   27.3549  -18.7315  -11.8634 O   0  0  0  0  0  0  0  0  0  0  0  0
   26.5874  -17.0127  -14.4996 C   0  0  0  0  0  0  0  0  0  0  0  0
   27.3438  -18.3070  -14.8490 C   0  0  2  0  0  0  0  0  0  0  0  0
   28.2403  -17.9993  -15.9963 C   0  0  0  0  0  0  0  0  0  0  0  0
   26.3179  -19.3555  -15.0640 C   0  0  0  0  0  0  0  0  0  0  0  0
   25.4870  -19.6551  -13.8605 C   0  0  2  0  0  0  0  0  0  0  0  0
   26.1368  -20.4170  -12.8347 N   0  0  0  0  0  0  0  0  0  0  0  0
   24.2068  -20.3117  -14.2295 C   0  0  0  0  0  0  0  0  0  0  0  0
   24.2016  -21.4437  -14.7481 O   0  0  0  0  0  0  0  0  0  0  0  0
   22.9830  -19.6525  -13.9926 N   0  0  0  0  0  0  0  0  0  0  0  0
   21.7419  -20.3836  -14.1902 C   0  0  1  0  0  0  0  0  0  0  0  0
   21.1047  -20.6772  -12.8448 C   0  0  0  0  0  0  0  0  0  0  0  0
   20.1115  -21.7588  -12.8869 C   0  0  0  0  0  0  0  0  0  0  0  0
   19.8022  -22.3711  -13.9399 O   0  0  0  0  0  0  0  0  0  0  0  0
   20.8533  -19.5592  -15.0382 C   0  0  0  0  0  0  0  0  0  0  0  0
   20.3075  -20.0292  -16.2288 O   0  0  0  0  0  0  0  0  0  0  0  0
   19.4410  -22.1741  -11.7269 O   0  0  0  0  0  0  0  0  0  0  0  0
   20.5861  -18.3856  -14.6593 O   0  0  0  0  0  0  0  0  0  0  0  0
  2 10  1  0
  2  1  1  1
  2  3  1  0
  3  4  1  0
  4  5  2  0
  4  9  1  0
  5  6  1  0
  6  7  2  0
  8  7  1  0
  9  8  2  0
 10 17  1  0
 11 10  2  0
 13 12  1  6
 13 14  1  0
 15 13  1  0
 16 15  1  6
 17 16  1  0
 18 19  2  0
 18 16  1  0
 20 18  1  0
 21 22  1  1
 21 20  1  0
 23 22  1  0
 24 23  2  0
 25 21  1  0
 26 25  1  0
 27 23  1  0
 28 25  2  0
M  END
$$$$
