FLD.pdb
     RDKit          3D

 28 28  0  0  1  0  0  0  0  0999 V2000
   18.3795  -11.7326  -19.2795 N   0  0  0  0  0  0  0  0  0  0  0  0
   19.2883  -10.6042  -19.4262 C   0  0  1  0  0  0  0  0  0  0  0  0
   18.6365   -9.4145  -20.0651 C   0  0  0  0  0  0  0  0  0  0  0  0
   18.3001   -9.6569  -21.4941 C   0  0  0  0  0  0  0  0  0  0  0  0
   17.0067  -10.0312  -21.7910 C   0  0  0  0  0  0  0  0  0  0  0  0
   16.5618  -10.2864  -23.0773 C   0  0  0  0  0  0  0  0  0  0  0  0
   17.5004  -10.1448  -24.0800 C   0  0  0  0  0  0  0  0  0  0  0  0
   18.7925   -9.7736  -23.8104 C   0  0  0  0  0  0  0  0  0  0  0  0
   19.2163   -9.5219  -22.5039 C   0  0  0  0  0  0  0  0  0  0  0  0
   19.7624  -10.2203  -18.0796 C   0  0  0  0  0  0  0  0  0  0  0  0
   19.0335  -10.4865  -17.0972 O   0  0  0  0  0  0  0  0  0  0  0  0
   24.3268  -10.5126  -14.4154 C   0  0  0  0  0  0  0  0  0  0  0  0
   23.0782   -9.6607  -14.7069 C   0  0  2  0  0  0  0  0  0  0  0  0
   22.1373   -9.8517  -13.5699 C   0  0  0  0  0  0  0  0  0  0  0  0
   22.5941  -10.0597  -16.0502 C   0  0  0  0  0  0  0  0  0  0  0  0
   21.4322   -9.2631  -16.5439 C   0  0  2  0  0  0  0  0  0  0  0  0
   20.9907   -9.5718  -17.8724 N   0  0  0  0  0  0  0  0  0  0  0  0
   21.6828   -7.8034  -16.4318 C   0  0  0  0  0  0  0  0  0  0  0  0
   22.4778   -7.2358  -17.2039 O   0  0  0  0  0  0  0  0  0  0  0  0
   21.0173   -7.0480  -15.4444 N   0  0  0  0  0  0  0  0  0  0  0  0
   21.2446   -5.6132  -15.3861 C   0  0  1  0  0  0  0  0  0  0  0  0
   19.9248   -4.8821  -15.5472 C   0  0  0  0  0  0  0  0  0  0  0  0
   20.0411   -3.4227  -15.4253 C   0  0  0  0  0  0  0  0  0  0  0  0
   19.0900   -2.6820  -15.0700 O   0  0  0  0  0  0  0  0  0  0  0  0
   21.8777   -5.3010  -14.0861 C   0  0  0  0  0  0  0  0  0  0  0  0
   22.3969   -4.0446  -13.7891 O   0  0  0  0  0  0  0  0  0  0  0  0
   21.2477   -2.7648  -15.7055 O   0  0  0  0  0  0  0  0  0  0  0  0
   21.9453   -6.2158  -13.2196 O   0  0  0  0  0  0  0  0  0  0  0  0
  2 10  1  0
  2  1  1  1
  2  3  1  0
  3  4  1  0
  4  5  2  0
  4  9  1  0
  5  6  1  0
  6  7  2  0
  8  7  1  0
  9  8  2  0
 10 17  1  0
 11 10  2  0
 13 12  1  1
 13 14  1  0
 15 13  1  0
 16 15  1  6
 17 16  1  0
 18 19  2  0
 18 16  1  0
 20 18  1  0
 21 22  1  1
 21 20  1  0
 23 22  1  0
 24 23  2  0
 25 21  1  0
 26 25  1  0
 27 23  1  0
 28 25  2  0
M  END
$$$$
