FLD.pdb
     RDKit          3D

 28 28  0  0  1  0  0  0  0  0999 V2000
   27.9428  -21.6527  -15.8177 N   0  0  0  0  0  0  0  0  0  0  0  0
   27.7050  -20.5081  -14.9495 C   0  0  1  0  0  0  0  0  0  0  0  0
   26.9707  -19.3987  -15.6414 C   0  0  0  0  0  0  0  0  0  0  0  0
   27.8367  -18.6645  -16.6030 C   0  0  0  0  0  0  0  0  0  0  0  0
   27.9035  -19.1413  -17.8950 C   0  0  0  0  0  0  0  0  0  0  0  0
   28.6695  -18.5531  -18.8874 C   0  0  0  0  0  0  0  0  0  0  0  0
   29.3853  -17.4333  -18.5136 C   0  0  0  0  0  0  0  0  0  0  0  0
   29.3356  -16.9397  -17.2353 C   0  0  0  0  0  0  0  0  0  0  0  0
   28.5551  -17.5516  -16.2525 C   0  0  0  0  0  0  0  0  0  0  0  0
   26.8985  -20.9664  -13.7985 C   0  0  0  0  0  0  0  0  0  0  0  0
   26.0802  -21.8960  -13.9816 O   0  0  0  0  0  0  0  0  0  0  0  0
   25.8259  -19.7496   -7.8191 C   0  0  0  0  0  0  0  0  0  0  0  0
   25.3508  -20.4259   -9.1177 C   0  0  2  0  0  0  0  0  0  0  0  0
   25.0357  -21.8426   -8.7888 C   0  0  0  0  0  0  0  0  0  0  0  0
   26.4081  -20.1935  -10.1308 C   0  0  0  0  0  0  0  0  0  0  0  0
   26.0851  -20.7279  -11.4867 C   0  0  2  0  0  0  0  0  0  0  0  0
   27.0201  -20.3954  -12.5212 N   0  0  0  0  0  0  0  0  0  0  0  0
   24.7157  -20.3431  -11.9142 C   0  0  0  0  0  0  0  0  0  0  0  0
   24.5044  -19.2349  -12.4413 O   0  0  0  0  0  0  0  0  0  0  0  0
   23.6412  -21.2363  -11.7246 N   0  0  0  0  0  0  0  0  0  0  0  0
   22.3458  -20.9080  -12.2972 C   0  0  1  0  0  0  0  0  0  0  0  0
   22.1393  -21.6992  -13.5754 C   0  0  0  0  0  0  0  0  0  0  0  0
   21.0821  -21.1571  -14.4395 C   0  0  0  0  0  0  0  0  0  0  0  0
   20.3423  -20.1976  -14.1055 O   0  0  0  0  0  0  0  0  0  0  0  0
   21.3064  -21.2258  -11.2937 C   0  0  0  0  0  0  0  0  0  0  0  0
   21.5896  -21.9032  -10.1116 O   0  0  0  0  0  0  0  0  0  0  0  0
   20.8378  -21.6947  -15.7118 O   0  0  0  0  0  0  0  0  0  0  0  0
   20.1201  -20.8650  -11.5276 O   0  0  0  0  0  0  0  0  0  0  0  0
  2 10  1  0
  2  1  1  6
  2  3  1  0
  3  4  1  0
  4  5  2  0
  4  9  1  0
  5  6  1  0
  6  7  2  0
  8  7  1  0
  9  8  2  0
 10 17  1  0
 11 10  2  0
 13 12  1  1
 13 14  1  0
 15 13  1  0
 16 15  1  1
 17 16  1  0
 18 19  2  0
 18 16  1  0
 20 18  1  0
 21 22  1  6
 21 20  1  0
 23 22  1  0
 24 23  2  0
 25 21  1  0
 26 25  1  0
 27 23  1  0
 28 25  2  0
M  END
$$$$
