FLD.pdb
     RDKit          3D

 28 28  0  0  1  0  0  0  0  0999 V2000
   27.7603  -19.2476  -15.8746 N   0  0  0  0  0  0  0  0  0  0  0  0
   26.8886  -18.5818  -14.9168 C   0  0  1  0  0  0  0  0  0  0  0  0
   26.0651  -17.4951  -15.5409 C   0  0  0  0  0  0  0  0  0  0  0  0
   26.8784  -16.2953  -15.8772 C   0  0  0  0  0  0  0  0  0  0  0  0
   27.1541  -16.0633  -17.2081 C   0  0  0  0  0  0  0  0  0  0  0  0
   27.8980  -14.9851  -17.6571 C   0  0  0  0  0  0  0  0  0  0  0  0
   28.3656  -14.1264  -16.6822 C   0  0  0  0  0  0  0  0  0  0  0  0
   28.1050  -14.3354  -15.3524 C   0  0  0  0  0  0  0  0  0  0  0  0
   27.3519  -15.4309  -14.9253 C   0  0  0  0  0  0  0  0  0  0  0  0
   25.9797  -19.5965  -14.3426 C   0  0  0  0  0  0  0  0  0  0  0  0
   25.7069  -20.6050  -15.0325 O   0  0  0  0  0  0  0  0  0  0  0  0
   26.5847  -22.0012  -10.8442 C   0  0  0  0  0  0  0  0  0  0  0  0
   25.9566  -20.6612  -10.4203 C   0  0  2  0  0  0  0  0  0  0  0  0
   26.0300  -20.5885   -8.9357 C   0  0  0  0  0  0  0  0  0  0  0  0
   24.6045  -20.6135  -11.0265 C   0  0  0  0  0  0  0  0  0  0  0  0
   24.6044  -20.5093  -12.5156 C   0  0  2  0  0  0  0  0  0  0  0  0
   25.4183  -19.4635  -13.0622 N   0  0  0  0  0  0  0  0  0  0  0  0
   23.2253  -20.3973  -13.0559 C   0  0  0  0  0  0  0  0  0  0  0  0
   22.7251  -19.2813  -13.2900 O   0  0  0  0  0  0  0  0  0  0  0  0
   22.4708  -21.5615  -13.3084 N   0  0  0  0  0  0  0  0  0  0  0  0
   21.1619  -21.4294  -13.9274 C   0  0  1  0  0  0  0  0  0  0  0  0
   21.1546  -22.1526  -15.2613 C   0  0  0  0  0  0  0  0  0  0  0  0
   19.8532  -22.1201  -15.9419 C   0  0  0  0  0  0  0  0  0  0  0  0
   18.8444  -21.5341  -15.4745 O   0  0  0  0  0  0  0  0  0  0  0  0
   20.1570  -21.9969  -13.0019 C   0  0  0  0  0  0  0  0  0  0  0  0
   18.8050  -21.6763  -13.0773 O   0  0  0  0  0  0  0  0  0  0  0  0
   19.6642  -22.7561  -17.1778 O   0  0  0  0  0  0  0  0  0  0  0  0
   20.5505  -22.8014  -12.1131 O   0  0  0  0  0  0  0  0  0  0  0  0
  2 10  1  0
  2  1  1  6
  2  3  1  0
  3  4  1  0
  4  5  2  0
  4  9  1  0
  5  6  1  0
  6  7  2  0
  8  7  1  0
  9  8  2  0
 10 17  1  0
 11 10  2  0
 13 12  1  1
 13 14  1  0
 15 13  1  0
 16 15  1  1
 17 16  1  0
 18 19  2  0
 18 16  1  0
 20 18  1  0
 21 22  1  6
 21 20  1  0
 23 22  1  0
 24 23  2  0
 25 21  1  0
 26 25  1  0
 27 23  1  0
 28 25  2  0
M  END
$$$$
