FLD.pdb
     RDKit          3D

 28 28  0  0  1  0  0  0  0  0999 V2000
   26.8099  -24.3501  -15.6824 N   0  0  0  0  0  0  0  0  0  0  0  0
   25.9193  -23.5159  -16.4770 C   0  0  1  0  0  0  0  0  0  0  0  0
   24.6142  -24.1883  -16.7820 C   0  0  0  0  0  0  0  0  0  0  0  0
   24.7705  -25.3083  -17.7489 C   0  0  0  0  0  0  0  0  0  0  0  0
   24.8018  -26.5901  -17.2418 C   0  0  0  0  0  0  0  0  0  0  0  0
   24.9418  -27.7199  -18.0301 C   0  0  0  0  0  0  0  0  0  0  0  0
   25.0521  -27.4985  -19.3884 C   0  0  0  0  0  0  0  0  0  0  0  0
   25.0238  -26.2337  -19.9170 C   0  0  0  0  0  0  0  0  0  0  0  0
   24.8815  -25.1103  -19.1002 C   0  0  0  0  0  0  0  0  0  0  0  0
   25.6496  -22.2785  -15.7145 C   0  0  0  0  0  0  0  0  0  0  0  0
   25.7833  -22.3089  -14.4701 O   0  0  0  0  0  0  0  0  0  0  0  0
   26.7850  -16.5543  -15.3090 C   0  0  0  0  0  0  0  0  0  0  0  0
   26.5169  -17.9817  -14.7991 C   0  0  2  0  0  0  0  0  0  0  0  0
   27.7780  -18.4751  -14.1822 C   0  0  0  0  0  0  0  0  0  0  0  0
   25.9885  -18.7531  -15.9498 C   0  0  0  0  0  0  0  0  0  0  0  0
   25.0923  -19.8845  -15.5687 C   0  0  2  0  0  0  0  0  0  0  0  0
   25.2507  -21.0844  -16.3369 N   0  0  0  0  0  0  0  0  0  0  0  0
   23.6640  -19.4770  -15.5754 C   0  0  0  0  0  0  0  0  0  0  0  0
   23.0725  -19.2579  -16.6490 O   0  0  0  0  0  0  0  0  0  0  0  0
   22.9660  -19.3354  -14.3584 N   0  0  0  0  0  0  0  0  0  0  0  0
   21.5488  -19.0130  -14.3952 C   0  0  1  0  0  0  0  0  0  0  0  0
   21.2895  -17.9820  -15.4779 C   0  0  0  0  0  0  0  0  0  0  0  0
   19.8692  -17.6451  -15.6425 C   0  0  0  0  0  0  0  0  0  0  0  0
   19.2008  -17.9517  -16.6618 O   0  0  0  0  0  0  0  0  0  0  0  0
   20.8001  -20.2629  -14.6517 C   0  0  0  0  0  0  0  0  0  0  0  0
   19.9820  -20.8550  -13.6944 O   0  0  0  0  0  0  0  0  0  0  0  0
   19.1686  -16.9475  -14.6476 O   0  0  0  0  0  0  0  0  0  0  0  0
   20.9143  -20.8057  -15.7850 O   0  0  0  0  0  0  0  0  0  0  0  0
  2 10  1  0
  2  1  1  1
  2  3  1  0
  3  4  1  0
  4  5  2  0
  4  9  1  0
  5  6  1  0
  6  7  2  0
  8  7  1  0
  9  8  2  0
 10 17  1  0
 11 10  2  0
 13 12  1  6
 13 14  1  0
 15 13  1  0
 16 15  1  6
 17 16  1  0
 18 19  2  0
 18 16  1  0
 20 18  1  0
 21 22  1  6
 21 20  1  0
 23 22  1  0
 24 23  2  0
 25 21  1  0
 26 25  1  0
 27 23  1  0
 28 25  2  0
M  END
$$$$
