FLD.pdb
     RDKit          3D

 28 28  0  0  1  0  0  0  0  0999 V2000
   28.3439  -22.7044  -13.1287 N   0  0  0  0  0  0  0  0  0  0  0  0
   27.7791  -21.9441  -12.0225 C   0  0  1  0  0  0  0  0  0  0  0  0
   28.5887  -20.7288  -11.6816 C   0  0  0  0  0  0  0  0  0  0  0  0
   29.8742  -21.0769  -11.0181 C   0  0  0  0  0  0  0  0  0  0  0  0
   29.8555  -21.2743   -9.6536 C   0  0  0  0  0  0  0  0  0  0  0  0
   30.9794  -21.6027   -8.9141 C   0  0  0  0  0  0  0  0  0  0  0  0
   32.1555  -21.7274   -9.6264 C   0  0  0  0  0  0  0  0  0  0  0  0
   32.2000  -21.5361  -10.9834 C   0  0  0  0  0  0  0  0  0  0  0  0
   31.0520  -21.2054  -11.7063 C   0  0  0  0  0  0  0  0  0  0  0  0
   26.4183  -21.5154  -12.4093 C   0  0  0  0  0  0  0  0  0  0  0  0
   26.0693  -21.6589  -13.6030 O   0  0  0  0  0  0  0  0  0  0  0  0
   21.0423  -19.8561   -9.8255 C   0  0  0  0  0  0  0  0  0  0  0  0
   21.7928  -20.3753  -11.0651 C   0  0  2  0  0  0  0  0  0  0  0  0
   21.1517  -21.6572  -11.4654 C   0  0  0  0  0  0  0  0  0  0  0  0
   23.2292  -20.4303  -10.7018 C   0  0  0  0  0  0  0  0  0  0  0  0
   24.1316  -20.8108  -11.8284 C   0  0  2  0  0  0  0  0  0  0  0  0
   25.5167  -20.9565  -11.4889 N   0  0  0  0  0  0  0  0  0  0  0  0
   23.9983  -19.8765  -12.9754 C   0  0  0  0  0  0  0  0  0  0  0  0
   24.6441  -18.8123  -13.0041 O   0  0  0  0  0  0  0  0  0  0  0  0
   23.1346  -20.1919  -14.0444 N   0  0  0  0  0  0  0  0  0  0  0  0
   23.0670  -19.2894  -15.1822 C   0  0  1  0  0  0  0  0  0  0  0  0
   24.1802  -19.6183  -16.1595 C   0  0  0  0  0  0  0  0  0  0  0  0
   24.0946  -18.8731  -17.4225 C   0  0  0  0  0  0  0  0  0  0  0  0
   23.2424  -17.9746  -17.6373 O   0  0  0  0  0  0  0  0  0  0  0  0
   21.7365  -19.4417  -15.8108 C   0  0  0  0  0  0  0  0  0  0  0  0
   21.1130  -18.4081  -16.5029 O   0  0  0  0  0  0  0  0  0  0  0  0
   24.9802  -19.1314  -18.4792 O   0  0  0  0  0  0  0  0  0  0  0  0
   21.1522  -20.5555  -15.7097 O   0  0  0  0  0  0  0  0  0  0  0  0
  2 10  1  0
  2  1  1  6
  2  3  1  0
  3  4  1  0
  4  5  2  0
  4  9  1  0
  5  6  1  0
  6  7  2  0
  8  7  1  0
  9  8  2  0
 10 17  1  0
 11 10  2  0
 13 12  1  1
 13 14  1  0
 15 13  1  0
 16 15  1  1
 17 16  1  0
 18 19  2  0
 18 16  1  0
 20 18  1  0
 21 22  1  6
 21 20  1  0
 23 22  1  0
 24 23  2  0
 25 21  1  0
 26 25  1  0
 27 23  1  0
 28 25  2  0
M  END
$$$$
