WSL.pdb
     RDKit          3D

 29 30  0  0  1  0  0  0  0  0999 V2000
    6.2027  -18.0913   24.5302 N   0  0  0  0  0  0  0  0  0  0  0  0
    7.1333  -17.0246   24.2999 C   0  0  1  0  0  0  0  0  0  0  0  0
    7.4309  -16.3034   25.5723 C   0  0  0  0  0  0  0  0  0  0  0  0
    6.5298  -15.1386   25.7034 C   0  0  0  0  0  0  0  0  0  0  0  0
    5.2905  -15.1606   26.3349 C   0  0  0  0  0  0  0  0  0  0  0  0
    4.7724  -13.9213   26.2943 N   0  0  0  0  0  0  0  0  0  0  0  0
    5.6574  -13.1128   25.6493 C   0  0  0  0  0  0  0  0  0  0  0  0
    5.6002  -11.7720   25.3419 C   0  0  0  0  0  0  0  0  0  0  0  0
    6.6266  -11.1592   24.6626 C   0  0  0  0  0  0  0  0  0  0  0  0
    7.7276  -11.9200   24.2899 C   0  0  0  0  0  0  0  0  0  0  0  0
    7.8115  -13.2621   24.5842 C   0  0  0  0  0  0  0  0  0  0  0  0
    6.7734  -13.8592   25.2669 C   0  0  0  0  0  0  0  0  0  0  0  0
    8.3955  -17.6075   23.7304 C   0  0  0  0  0  0  0  0  0  0  0  0
    8.7919  -18.7036   24.1779 O   0  0  0  0  0  0  0  0  0  0  0  0
   10.5279  -15.1328   21.2398 O   0  0  0  0  0  0  0  0  0  0  0  0
   11.1461  -16.3617   21.4583 C   0  0  0  0  0  0  0  0  0  0  0  0
   10.5439  -17.0740   22.6552 C   0  0  2  0  0  0  0  0  0  0  0  0
    9.1244  -16.9382   22.7124 N   0  0  0  0  0  0  0  0  0  0  0  0
   11.2070  -16.5302   23.8886 C   0  0  0  0  0  0  0  0  0  0  0  0
   11.5205  -15.3349   23.8865 O   0  0  0  0  0  0  0  0  0  0  0  0
    9.9552  -14.7886   28.8957 C   0  0  0  0  0  0  0  0  0  0  0  0
   11.2052  -15.2560   28.1482 C   0  0  2  0  0  0  0  0  0  0  0  0
   12.1695  -14.1247   28.0773 C   0  0  0  0  0  0  0  0  0  0  0  0
   10.8086  -15.8379   26.8307 C   0  0  0  0  0  0  0  0  0  0  0  0
   11.8352  -16.7968   26.3311 C   0  0  2  0  0  0  0  0  0  0  0  0
   11.4740  -17.3288   25.0205 N   0  0  0  0  0  0  0  0  0  0  0  0
   11.9743  -17.9268   27.2645 C   0  0  0  0  0  0  0  0  0  0  0  0
   13.0441  -17.8787   28.1854 O   0  0  0  0  0  0  0  0  0  0  0  0
   11.2604  -18.9346   27.3484 O   0  0  0  0  0  0  0  0  0  0  0  0
  2  1  1  1
  2  3  1  0
  2 13  1  0
  3  4  1  0
  4 12  1  0
  5  4  2  0
  5  6  1  0
  6  7  1  0
  7  8  1  0
  8  9  2  0
 10  9  1  0
 11 10  2  0
 12  7  2  0
 12 11  1  0
 13 18  1  0
 13 14  2  0
 16 15  1  0
 17 16  1  6
 18 17  1  0
 19 17  1  0
 19 20  2  0
 22 21  1  6
 23 22  1  0
 25 24  1  1
 24 22  1  0
 25 26  1  0
 26 19  1  0
 27 25  1  0
 28 27  1  0
 29 27  2  0
M  END
$$$$
