WSL.pdb
     RDKit          3D

 29 30  0  0  1  0  0  0  0  0999 V2000
    6.0328  -18.0761   24.4667 N   0  0  0  0  0  0  0  0  0  0  0  0
    6.9920  -17.0171   24.3418 C   0  0  1  0  0  0  0  0  0  0  0  0
    7.3109  -16.4370   25.6795 C   0  0  0  0  0  0  0  0  0  0  0  0
    6.6802  -15.1056   25.8047 C   0  0  0  0  0  0  0  0  0  0  0  0
    5.5054  -14.8461   26.5031 C   0  0  0  0  0  0  0  0  0  0  0  0
    5.2534  -13.5280   26.4327 N   0  0  0  0  0  0  0  0  0  0  0  0
    6.2439  -12.9452   25.7032 C   0  0  0  0  0  0  0  0  0  0  0  0
    6.4459  -11.6336   25.3367 C   0  0  0  0  0  0  0  0  0  0  0  0
    7.5318  -11.2729   24.5745 C   0  0  0  0  0  0  0  0  0  0  0  0
    8.4260  -12.2596   24.1784 C   0  0  0  0  0  0  0  0  0  0  0  0
    8.2490  -13.5785   24.5304 C   0  0  0  0  0  0  0  0  0  0  0  0
    7.1550  -13.9213   25.2960 C   0  0  0  0  0  0  0  0  0  0  0  0
    8.2370  -17.5732   23.7110 C   0  0  0  0  0  0  0  0  0  0  0  0
    8.6811  -18.6577   24.1415 O   0  0  0  0  0  0  0  0  0  0  0  0
   10.3975  -17.0229   20.1376 O   0  0  0  0  0  0  0  0  0  0  0  0
   10.8341  -16.3328   21.2660 C   0  0  0  0  0  0  0  0  0  0  0  0
   10.3171  -16.9783   22.5382 C   0  0  2  0  0  0  0  0  0  0  0  0
    8.8975  -16.8919   22.6550 N   0  0  0  0  0  0  0  0  0  0  0  0
   11.0136  -16.3220   23.6962 C   0  0  0  0  0  0  0  0  0  0  0  0
   11.2272  -15.1074   23.6180 O   0  0  0  0  0  0  0  0  0  0  0  0
    9.7841  -15.0587   29.0166 C   0  0  0  0  0  0  0  0  0  0  0  0
   11.0249  -15.3017   28.1556 C   0  0  2  0  0  0  0  0  0  0  0  0
   11.7624  -14.0175   28.0087 C   0  0  0  0  0  0  0  0  0  0  0  0
   10.6211  -15.9542   26.8739 C   0  0  0  0  0  0  0  0  0  0  0  0
   11.8109  -16.4140   26.1019 C   0  0  2  0  0  0  0  0  0  0  0  0
   11.4194  -17.0385   24.8417 N   0  0  0  0  0  0  0  0  0  0  0  0
   12.5775  -17.3975   26.8847 C   0  0  0  0  0  0  0  0  0  0  0  0
   13.7680  -16.9504   27.4992 O   0  0  0  0  0  0  0  0  0  0  0  0
   12.3083  -18.5901   27.0778 O   0  0  0  0  0  0  0  0  0  0  0  0
  2  1  1  1
  2  3  1  0
  2 13  1  0
  3  4  1  0
  4 12  1  0
  5  4  2  0
  5  6  1  0
  6  7  1  0
  7  8  1  0
  8  9  2  0
 10  9  1  0
 11 10  2  0
 12  7  2  0
 12 11  1  0
 13 18  1  0
 13 14  2  0
 16 15  1  0
 17 16  1  6
 18 17  1  0
 19 17  1  0
 19 20  2  0
 22 21  1  1
 23 22  1  0
 25 24  1  1
 24 22  1  0
 25 26  1  0
 26 19  1  0
 27 25  1  0
 28 27  1  0
 29 27  2  0
M  END
$$$$
