WSL.pdb
     RDKit          3D

 29 30  0  0  1  0  0  0  0  0999 V2000
    6.4437  -17.4179   23.6872 N   0  0  0  0  0  0  0  0  0  0  0  0
    7.5360  -16.4905   23.7497 C   0  0  1  0  0  0  0  0  0  0  0  0
    7.7498  -16.0248   25.1516 C   0  0  0  0  0  0  0  0  0  0  0  0
    6.8508  -14.8864   25.4374 C   0  0  0  0  0  0  0  0  0  0  0  0
    5.5222  -15.0037   25.8329 C   0  0  0  0  0  0  0  0  0  0  0  0
    5.0305  -13.7698   26.0366 N   0  0  0  0  0  0  0  0  0  0  0  0
    6.0196  -12.8711   25.7779 C   0  0  0  0  0  0  0  0  0  0  0  0
    6.0282  -11.4953   25.8286 C   0  0  0  0  0  0  0  0  0  0  0  0
    7.1606  -10.7843   25.5087 C   0  0  0  0  0  0  0  0  0  0  0  0
    8.3015  -11.4814   25.1314 C   0  0  0  0  0  0  0  0  0  0  0  0
    8.3214  -12.8565   25.0721 C   0  0  0  0  0  0  0  0  0  0  0  0
    7.1770  -13.5526   25.3976 C   0  0  0  0  0  0  0  0  0  0  0  0
    8.7725  -17.1748   23.2397 C   0  0  0  0  0  0  0  0  0  0  0  0
    8.9655  -18.3636   23.5686 O   0  0  0  0  0  0  0  0  0  0  0  0
   11.2525  -16.8205   19.9806 O   0  0  0  0  0  0  0  0  0  0  0  0
   11.8133  -16.3750   21.1752 C   0  0  0  0  0  0  0  0  0  0  0  0
   11.0623  -16.9257   22.3731 C   0  0  2  0  0  0  0  0  0  0  0  0
    9.7015  -16.4971   22.4071 N   0  0  0  0  0  0  0  0  0  0  0  0
   11.8097  -16.5102   23.6083 C   0  0  0  0  0  0  0  0  0  0  0  0
   12.5158  -15.4990   23.5333 O   0  0  0  0  0  0  0  0  0  0  0  0
   10.1487  -15.5599   28.7771 C   0  0  0  0  0  0  0  0  0  0  0  0
   11.0850  -14.9405   27.7381 C   0  0  2  0  0  0  0  0  0  0  0  0
   10.9023  -13.4637   27.7517 C   0  0  0  0  0  0  0  0  0  0  0  0
   10.8636  -15.5971   26.4146 C   0  0  0  0  0  0  0  0  0  0  0  0
   11.9062  -16.6268   26.1398 C   0  0  2  0  0  0  0  0  0  0  0  0
   11.7279  -17.2266   24.8208 N   0  0  0  0  0  0  0  0  0  0  0  0
   11.8412  -17.6994   27.1462 C   0  0  0  0  0  0  0  0  0  0  0  0
   12.6840  -17.5823   28.2734 O   0  0  0  0  0  0  0  0  0  0  0  0
   11.1289  -18.7117   27.1319 O   0  0  0  0  0  0  0  0  0  0  0  0
  2  1  1  1
  2  3  1  0
  2 13  1  0
  3  4  1  0
  4 12  1  0
  5  4  2  0
  5  6  1  0
  6  7  1  0
  7  8  1  0
  8  9  2  0
 10  9  1  0
 11 10  2  0
 12  7  2  0
 12 11  1  0
 13 18  1  0
 13 14  2  0
 16 15  1  0
 17 16  1  6
 18 17  1  0
 19 17  1  0
 19 20  2  0
 22 21  1  1
 23 22  1  0
 25 24  1  1
 24 22  1  0
 25 26  1  0
 26 19  1  0
 27 25  1  0
 28 27  1  0
 29 27  2  0
M  END
$$$$
