WSL.pdb
     RDKit          3D

 29 30  0  0  1  0  0  0  0  0999 V2000
    6.3978  -17.2205   24.9152 N   0  0  0  0  0  0  0  0  0  0  0  0
    7.4067  -16.3054   24.4659 C   0  0  1  0  0  0  0  0  0  0  0  0
    7.7956  -15.3721   25.5638 C   0  0  0  0  0  0  0  0  0  0  0  0
    6.7577  -14.3305   25.7187 C   0  0  0  0  0  0  0  0  0  0  0  0
    5.5190  -14.5272   26.3207 C   0  0  0  0  0  0  0  0  0  0  0  0
    4.8554  -13.3587   26.3155 N   0  0  0  0  0  0  0  0  0  0  0  0
    5.6472  -12.4240   25.7220 C   0  0  0  0  0  0  0  0  0  0  0  0
    5.4334  -11.0885   25.4647 C   0  0  0  0  0  0  0  0  0  0  0  0
    6.3899  -10.3295   24.8327 C   0  0  0  0  0  0  0  0  0  0  0  0
    7.5815  -10.9364   24.4563 C   0  0  0  0  0  0  0  0  0  0  0  0
    7.8222  -12.2695   24.7011 C   0  0  0  0  0  0  0  0  0  0  0  0
    6.8521  -13.0144   25.3369 C   0  0  0  0  0  0  0  0  0  0  0  0
    8.6015  -17.0967   24.0148 C   0  0  0  0  0  0  0  0  0  0  0  0
    8.8911  -18.1357   24.6436 O   0  0  0  0  0  0  0  0  0  0  0  0
   10.4897  -16.3068   20.5598 O   0  0  0  0  0  0  0  0  0  0  0  0
   11.4246  -16.5810   21.5551 C   0  0  0  0  0  0  0  0  0  0  0  0
   10.7508  -17.0893   22.8161 C   0  0  2  0  0  0  0  0  0  0  0  0
    9.3859  -16.6826   22.9062 N   0  0  0  0  0  0  0  0  0  0  0  0
   11.5562  -16.6054   23.9883 C   0  0  0  0  0  0  0  0  0  0  0  0
   12.1821  -15.5488   23.8518 O   0  0  0  0  0  0  0  0  0  0  0  0
   11.5335  -14.4022   27.4412 C   0  0  0  0  0  0  0  0  0  0  0  0
   10.7408  -15.6999   27.6073 C   0  0  2  0  0  0  0  0  0  0  0  0
    9.8809  -15.5821   28.8161 C   0  0  0  0  0  0  0  0  0  0  0  0
   11.6809  -16.8609   27.6054 C   0  0  0  0  0  0  0  0  0  0  0  0
   12.4605  -16.9244   26.3361 C   0  0  2  0  0  0  0  0  0  0  0  0
   11.6145  -17.3085   25.2100 N   0  0  0  0  0  0  0  0  0  0  0  0
   13.5466  -17.9113   26.4538 C   0  0  0  0  0  0  0  0  0  0  0  0
   13.4261  -19.1004   25.7012 O   0  0  0  0  0  0  0  0  0  0  0  0
   14.5730  -17.8324   27.1413 O   0  0  0  0  0  0  0  0  0  0  0  0
  2  1  1  1
  2  3  1  0
  2 13  1  0
  3  4  1  0
  4 12  1  0
  5  4  2  0
  5  6  1  0
  6  7  1  0
  7  8  1  0
  8  9  2  0
 10  9  1  0
 11 10  2  0
 12  7  2  0
 12 11  1  0
 13 18  1  0
 13 14  2  0
 16 15  1  0
 17 16  1  6
 18 17  1  0
 19 17  1  0
 19 20  2  0
 22 21  1  1
 23 22  1  0
 25 24  1  1
 24 22  1  0
 25 26  1  0
 26 19  1  0
 27 25  1  0
 28 27  1  0
 29 27  2  0
M  END
$$$$
