WSL.pdb
     RDKit          3D

 29 30  0  0  1  0  0  0  0  0999 V2000
    7.9377  -18.0954   21.0199 N   0  0  0  0  0  0  0  0  0  0  0  0
    8.5989  -17.0540   21.7517 C   0  0  1  0  0  0  0  0  0  0  0  0
    7.6140  -16.0363   22.2226 C   0  0  0  0  0  0  0  0  0  0  0  0
    7.1269  -15.2486   21.0701 C   0  0  0  0  0  0  0  0  0  0  0  0
    5.9541  -15.5093   20.3689 C   0  0  0  0  0  0  0  0  0  0  0  0
    5.8143  -14.5734   19.4147 N   0  0  0  0  0  0  0  0  0  0  0  0
    6.8749  -13.7240   19.4953 C   0  0  0  0  0  0  0  0  0  0  0  0
    7.2053  -12.6157   18.7483 C   0  0  0  0  0  0  0  0  0  0  0  0
    8.3531  -11.9053   19.0092 C   0  0  0  0  0  0  0  0  0  0  0  0
    9.1779  -12.3273   20.0444 C   0  0  0  0  0  0  0  0  0  0  0  0
    8.8722  -13.4314   20.8074 C   0  0  0  0  0  0  0  0  0  0  0  0
    7.7165  -14.1306   20.5321 C   0  0  0  0  0  0  0  0  0  0  0  0
    9.3045  -17.6704   22.9261 C   0  0  0  0  0  0  0  0  0  0  0  0
    8.6577  -18.4450   23.6613 O   0  0  0  0  0  0  0  0  0  0  0  0
   13.1548  -19.1179   25.2520 O   0  0  0  0  0  0  0  0  0  0  0  0
   12.6720  -18.4328   24.1395 C   0  0  0  0  0  0  0  0  0  0  0  0
   11.2718  -17.9028   24.3863 C   0  0  2  0  0  0  0  0  0  0  0  0
   10.6681  -17.3861   23.2010 N   0  0  0  0  0  0  0  0  0  0  0  0
   11.3636  -16.8619   25.4656 C   0  0  0  0  0  0  0  0  0  0  0  0
   12.0781  -15.8775   25.2478 O   0  0  0  0  0  0  0  0  0  0  0  0
   10.0002  -13.2748   27.0347 C   0  0  0  0  0  0  0  0  0  0  0  0
    9.0785  -14.4933   27.1098 C   0  0  2  0  0  0  0  0  0  0  0  0
    7.6745  -14.0212   27.2531 C   0  0  0  0  0  0  0  0  0  0  0  0
    9.5545  -15.4114   28.1879 C   0  0  0  0  0  0  0  0  0  0  0  0
   10.8432  -16.0620   27.8152 C   0  0  2  0  0  0  0  0  0  0  0  0
   10.6724  -16.9764   26.6900 N   0  0  0  0  0  0  0  0  0  0  0  0
   11.3758  -16.8279   28.9543 C   0  0  0  0  0  0  0  0  0  0  0  0
   11.8798  -16.0931   30.0501 O   0  0  0  0  0  0  0  0  0  0  0  0
   11.4405  -18.0577   29.0785 O   0  0  0  0  0  0  0  0  0  0  0  0
  2  1  1  1
  2  3  1  0
  2 13  1  0
  3  4  1  0
  4 12  1  0
  5  4  2  0
  5  6  1  0
  6  7  1  0
  7  8  1  0
  8  9  2  0
 10  9  1  0
 11 10  2  0
 12  7  2  0
 12 11  1  0
 13 18  1  0
 13 14  2  0
 16 15  1  0
 17 16  1  6
 18 17  1  0
 19 17  1  0
 19 20  2  0
 22 21  1  1
 23 22  1  0
 25 24  1  1
 24 22  1  0
 25 26  1  0
 26 19  1  0
 27 25  1  0
 28 27  1  0
 29 27  2  0
M  END
$$$$
