WSL.pdb
     RDKit          3D

 29 30  0  0  1  0  0  0  0  0999 V2000
    9.9652  -17.7720   20.2955 N   0  0  0  0  0  0  0  0  0  0  0  0
    9.2931  -16.9304   21.2427 C   0  0  1  0  0  0  0  0  0  0  0  0
    7.8713  -16.7187   20.8410 C   0  0  0  0  0  0  0  0  0  0  0  0
    7.7769  -15.5347   19.9605 C   0  0  0  0  0  0  0  0  0  0  0  0
    7.5686  -15.5821   18.5859 C   0  0  0  0  0  0  0  0  0  0  0  0
    7.5025  -14.3219   18.1239 N   0  0  0  0  0  0  0  0  0  0  0  0
    7.6652  -13.4751   19.1772 C   0  0  0  0  0  0  0  0  0  0  0  0
    7.6867  -12.0998   19.2377 C   0  0  0  0  0  0  0  0  0  0  0  0
    7.8797  -11.4489   20.4333 C   0  0  0  0  0  0  0  0  0  0  0  0
    8.0536  -12.2064   21.5847 C   0  0  0  0  0  0  0  0  0  0  0  0
    8.0365  -13.5825   21.5536 C   0  0  0  0  0  0  0  0  0  0  0  0
    7.8405  -14.2178   20.3461 C   0  0  0  0  0  0  0  0  0  0  0  0
    9.3549  -17.5873   22.5925 C   0  0  0  0  0  0  0  0  0  0  0  0
    8.4898  -17.2781   23.4379 O   0  0  0  0  0  0  0  0  0  0  0  0
   12.8001  -19.6437   23.9309 O   0  0  0  0  0  0  0  0  0  0  0  0
   11.5574  -20.0800   24.3840 C   0  0  0  0  0  0  0  0  0  0  0  0
   10.5111  -18.9890   24.2522 C   0  0  2  0  0  0  0  0  0  0  0  0
   10.3649  -18.5340   22.9075 N   0  0  0  0  0  0  0  0  0  0  0  0
   10.8988  -17.8731   25.1803 C   0  0  0  0  0  0  0  0  0  0  0  0
   11.6718  -17.0130   24.7448 O   0  0  0  0  0  0  0  0  0  0  0  0
    8.9369  -13.7668   28.8642 C   0  0  0  0  0  0  0  0  0  0  0  0
   10.1684  -14.5466   28.4004 C   0  0  2  0  0  0  0  0  0  0  0  0
   11.1348  -13.5932   27.7907 C   0  0  0  0  0  0  0  0  0  0  0  0
    9.7406  -15.6721   27.5161 C   0  0  0  0  0  0  0  0  0  0  0  0
   10.7881  -16.7305   27.4416 C   0  0  2  0  0  0  0  0  0  0  0  0
   10.4149  -17.7841   26.5025 N   0  0  0  0  0  0  0  0  0  0  0  0
   10.9887  -17.3432   28.7652 C   0  0  0  0  0  0  0  0  0  0  0  0
   12.0775  -16.8789   29.5358 O   0  0  0  0  0  0  0  0  0  0  0  0
   10.3130  -18.2311   29.3012 O   0  0  0  0  0  0  0  0  0  0  0  0
  2  1  1  6
  2  3  1  0
  2 13  1  0
  3  4  1  0
  4 12  1  0
  5  4  2  0
  5  6  1  0
  6  7  1  0
  7  8  1  0
  8  9  2  0
 10  9  1  0
 11 10  2  0
 12  7  2  0
 12 11  1  0
 13 18  1  0
 13 14  2  0
 16 15  1  0
 17 16  1  6
 18 17  1  0
 19 17  1  0
 19 20  2  0
 22 21  1  6
 23 22  1  0
 25 24  1  1
 24 22  1  0
 25 26  1  0
 26 19  1  0
 27 25  1  0
 28 27  1  0
 29 27  2  0
M  END
$$$$
