WSL.pdb
     RDKit          3D

 29 30  0  0  1  0  0  0  0  0999 V2000
    6.5346  -17.9315   25.2251 N   0  0  0  0  0  0  0  0  0  0  0  0
    7.2726  -16.8140   24.7116 C   0  0  1  0  0  0  0  0  0  0  0  0
    7.5123  -15.8050   25.7850 C   0  0  0  0  0  0  0  0  0  0  0  0
    6.4496  -14.7779   25.7449 C   0  0  0  0  0  0  0  0  0  0  0  0
    5.1509  -14.9604   26.2091 C   0  0  0  0  0  0  0  0  0  0  0  0
    4.4771  -13.8092   26.0457 N   0  0  0  0  0  0  0  0  0  0  0  0
    5.3213  -12.8995   25.4865 C   0  0  0  0  0  0  0  0  0  0  0  0
    5.1218  -11.5889   25.1147 C   0  0  0  0  0  0  0  0  0  0  0  0
    6.1364  -10.8536   24.5489 C   0  0  0  0  0  0  0  0  0  0  0  0
    7.3723  -11.4586   24.3578 C   0  0  0  0  0  0  0  0  0  0  0  0
    7.5999  -12.7670   24.7203 C   0  0  0  0  0  0  0  0  0  0  0  0
    6.5711  -13.4884   25.2873 C   0  0  0  0  0  0  0  0  0  0  0  0
    8.5828  -17.3146   24.1730 C   0  0  0  0  0  0  0  0  0  0  0  0
    9.0480  -18.3724   24.6457 O   0  0  0  0  0  0  0  0  0  0  0  0
   10.4662  -15.1457   21.2897 O   0  0  0  0  0  0  0  0  0  0  0  0
   11.1126  -16.3509   21.5537 C   0  0  0  0  0  0  0  0  0  0  0  0
   10.6330  -16.9564   22.8597 C   0  0  2  0  0  0  0  0  0  0  0  0
    9.2802  -16.6116   23.1557 N   0  0  0  0  0  0  0  0  0  0  0  0
   11.5733  -16.5069   23.9415 C   0  0  0  0  0  0  0  0  0  0  0  0
   12.2205  -15.4736   23.7402 O   0  0  0  0  0  0  0  0  0  0  0  0
   12.0995  -14.2591   27.2823 C   0  0  0  0  0  0  0  0  0  0  0  0
   11.2589  -15.5118   27.5352 C   0  0  2  0  0  0  0  0  0  0  0  0
   10.4893  -15.3234   28.7949 C   0  0  0  0  0  0  0  0  0  0  0  0
   12.1402  -16.7175   27.5019 C   0  0  0  0  0  0  0  0  0  0  0  0
   12.7475  -16.9073   26.1535 C   0  0  2  0  0  0  0  0  0  0  0  0
   11.7323  -17.2159   25.1508 N   0  0  0  0  0  0  0  0  0  0  0  0
   13.7176  -18.0144   26.1825 C   0  0  0  0  0  0  0  0  0  0  0  0
   14.8804  -17.8366   26.9643 O   0  0  0  0  0  0  0  0  0  0  0  0
   13.6449  -19.1032   25.5983 O   0  0  0  0  0  0  0  0  0  0  0  0
  2  1  1  1
  2  3  1  0
  2 13  1  0
  3  4  1  0
  4 12  1  0
  5  4  2  0
  5  6  1  0
  6  7  1  0
  7  8  1  0
  8  9  2  0
 10  9  1  0
 11 10  2  0
 12  7  2  0
 12 11  1  0
 13 18  1  0
 13 14  2  0
 16 15  1  0
 17 16  1  6
 18 17  1  0
 19 17  1  0
 19 20  2  0
 22 21  1  1
 23 22  1  0
 25 24  1  1
 24 22  1  0
 25 26  1  0
 26 19  1  0
 27 25  1  0
 28 27  1  0
 29 27  2  0
M  END
$$$$
