WSL.pdb
     RDKit          3D

 29 30  0  0  1  0  0  0  0  0999 V2000
    6.2914  -18.3318   24.0038 N   0  0  0  0  0  0  0  0  0  0  0  0
    7.2056  -17.2375   23.8493 C   0  0  1  0  0  0  0  0  0  0  0  0
    7.5390  -16.6405   25.1761 C   0  0  0  0  0  0  0  0  0  0  0  0
    6.6629  -15.4769   25.4294 C   0  0  0  0  0  0  0  0  0  0  0  0
    5.4568  -15.5267   26.1209 C   0  0  0  0  0  0  0  0  0  0  0  0
    4.9556  -14.2816   26.1883 N   0  0  0  0  0  0  0  0  0  0  0  0
    5.8186  -13.4422   25.5531 C   0  0  0  0  0  0  0  0  0  0  0  0
    5.7656  -12.0834   25.3376 C   0  0  0  0  0  0  0  0  0  0  0  0
    6.7652  -11.4386   24.6482 C   0  0  0  0  0  0  0  0  0  0  0  0
    7.8347  -12.1854   24.1702 C   0  0  0  0  0  0  0  0  0  0  0  0
    7.9137  -13.5449   24.3713 C   0  0  0  0  0  0  0  0  0  0  0  0
    6.9028  -14.1741   25.0658 C   0  0  0  0  0  0  0  0  0  0  0  0
    8.4530  -17.7482   23.1858 C   0  0  0  0  0  0  0  0  0  0  0  0
    8.7693  -18.9424   23.3666 O   0  0  0  0  0  0  0  0  0  0  0  0
   11.0425  -14.8750   21.5540 O   0  0  0  0  0  0  0  0  0  0  0  0
   11.3450  -16.2111   21.3023 C   0  0  0  0  0  0  0  0  0  0  0  0
   10.6645  -17.1259   22.3035 C   0  0  2  0  0  0  0  0  0  0  0  0
    9.2565  -16.9044   22.3746 N   0  0  0  0  0  0  0  0  0  0  0  0
   11.3303  -16.9186   23.6341 C   0  0  0  0  0  0  0  0  0  0  0  0
   12.5493  -17.1107   23.6969 O   0  0  0  0  0  0  0  0  0  0  0  0
    9.8029  -15.1812   29.4174 C   0  0  0  0  0  0  0  0  0  0  0  0
   10.8828  -15.3336   28.3448 C   0  0  2  0  0  0  0  0  0  0  0  0
   11.7278  -14.1086   28.3413 C   0  0  0  0  0  0  0  0  0  0  0  0
   10.2420  -15.6686   27.0376 C   0  0  0  0  0  0  0  0  0  0  0  0
   11.2439  -16.1781   26.0581 C   0  0  2  0  0  0  0  0  0  0  0  0
   10.6176  -16.5202   24.7846 N   0  0  0  0  0  0  0  0  0  0  0  0
   11.9046  -17.3837   26.5850 C   0  0  0  0  0  0  0  0  0  0  0  0
   11.1565  -18.5817   26.5923 O   0  0  0  0  0  0  0  0  0  0  0  0
   13.0544  -17.4855   27.0319 O   0  0  0  0  0  0  0  0  0  0  0  0
  2  1  1  1
  2  3  1  0
  2 13  1  0
  3  4  1  0
  4 12  1  0
  5  4  2  0
  5  6  1  0
  6  7  1  0
  7  8  1  0
  8  9  2  0
 10  9  1  0
 11 10  2  0
 12  7  2  0
 12 11  1  0
 13 18  1  0
 13 14  2  0
 16 15  1  0
 17 16  1  6
 18 17  1  0
 19 17  1  0
 19 20  2  0
 22 21  1  1
 23 22  1  0
 25 24  1  1
 24 22  1  0
 25 26  1  0
 26 19  1  0
 27 25  1  0
 28 27  1  0
 29 27  2  0
M  END
$$$$
