WSL.pdb
     RDKit          3D

 29 30  0  0  1  0  0  0  0  0999 V2000
    6.3703  -17.7283   24.6895 N   0  0  0  0  0  0  0  0  0  0  0  0
    7.3340  -16.7448   24.2879 C   0  0  1  0  0  0  0  0  0  0  0  0
    7.7265  -15.8904   25.4470 C   0  0  0  0  0  0  0  0  0  0  0  0
    6.7440  -14.7979   25.6117 C   0  0  0  0  0  0  0  0  0  0  0  0
    5.5403  -14.9096   26.3001 C   0  0  0  0  0  0  0  0  0  0  0  0
    4.9257  -13.7148   26.2750 N   0  0  0  0  0  0  0  0  0  0  0  0
    5.7143  -12.8468   25.5840 C   0  0  0  0  0  0  0  0  0  0  0  0
    5.5384  -11.5178   25.2702 C   0  0  0  0  0  0  0  0  0  0  0  0
    6.4815  -10.8343   24.5398 C   0  0  0  0  0  0  0  0  0  0  0  0
    7.6205  -11.5110   24.1216 C   0  0  0  0  0  0  0  0  0  0  0  0
    7.8224  -12.8393   24.4211 C   0  0  0  0  0  0  0  0  0  0  0  0
    6.8665  -13.5080   25.1554 C   0  0  0  0  0  0  0  0  0  0  0  0
    8.5392  -17.4543   23.7391 C   0  0  0  0  0  0  0  0  0  0  0  0
    8.8694  -18.5410   24.2577 O   0  0  0  0  0  0  0  0  0  0  0  0
   10.4449  -15.7543   20.6527 O   0  0  0  0  0  0  0  0  0  0  0  0
   11.2785  -16.6948   21.2532 C   0  0  0  0  0  0  0  0  0  0  0  0
   10.6785  -17.2134   22.5469 C   0  0  2  0  0  0  0  0  0  0  0  0
    9.2883  -16.9124   22.6617 N   0  0  0  0  0  0  0  0  0  0  0  0
   11.4717  -16.6302   23.6816 C   0  0  0  0  0  0  0  0  0  0  0  0
   11.7755  -15.4347   23.6085 O   0  0  0  0  0  0  0  0  0  0  0  0
    9.4273  -15.7181   28.6755 C   0  0  0  0  0  0  0  0  0  0  0  0
   10.8087  -15.7611   28.0199 C   0  0  2  0  0  0  0  0  0  0  0  0
   11.4235  -14.4091   28.1138 C   0  0  0  0  0  0  0  0  0  0  0  0
   10.6858  -16.3098   26.6359 C   0  0  0  0  0  0  0  0  0  0  0  0
   11.9848  -16.8608   26.1544 C   0  0  2  0  0  0  0  0  0  0  0  0
   11.8684  -17.3931   24.8000 N   0  0  0  0  0  0  0  0  0  0  0  0
   12.4368  -17.9474   27.0390 C   0  0  0  0  0  0  0  0  0  0  0  0
   11.7811  -19.1930   26.9225 O   0  0  0  0  0  0  0  0  0  0  0  0
   13.3356  -17.9100   27.8894 O   0  0  0  0  0  0  0  0  0  0  0  0
  2  1  1  1
  2  3  1  0
  2 13  1  0
  3  4  1  0
  4 12  1  0
  5  4  2  0
  5  6  1  0
  6  7  1  0
  7  8  1  0
  8  9  2  0
 10  9  1  0
 11 10  2  0
 12  7  2  0
 12 11  1  0
 13 18  1  0
 13 14  2  0
 16 15  1  0
 17 16  1  6
 18 17  1  0
 19 17  1  0
 19 20  2  0
 22 21  1  6
 23 22  1  0
 25 24  1  1
 24 22  1  0
 25 26  1  0
 26 19  1  0
 27 25  1  0
 28 27  1  0
 29 27  2  0
M  END
$$$$
