WSL.pdb
     RDKit          3D

 29 30  0  0  1  0  0  0  0  0999 V2000
    6.9191  -18.4110   25.3282 N   0  0  0  0  0  0  0  0  0  0  0  0
    7.2543  -18.1893   23.9513 C   0  0  1  0  0  0  0  0  0  0  0  0
    6.6298  -16.9275   23.4556 C   0  0  0  0  0  0  0  0  0  0  0  0
    6.5931  -15.9313   24.5474 C   0  0  0  0  0  0  0  0  0  0  0  0
    6.1153  -16.1769   25.8306 C   0  0  0  0  0  0  0  0  0  0  0  0
    6.2692  -15.0593   26.5609 N   0  0  0  0  0  0  0  0  0  0  0  0
    6.8346  -14.1088   25.7673 C   0  0  0  0  0  0  0  0  0  0  0  0
    7.1872  -12.8039   26.0293 C   0  0  0  0  0  0  0  0  0  0  0  0
    7.7446  -12.0137   25.0520 C   0  0  0  0  0  0  0  0  0  0  0  0
    7.9468  -12.5570   23.7895 C   0  0  0  0  0  0  0  0  0  0  0  0
    7.6041  -13.8583   23.4998 C   0  0  0  0  0  0  0  0  0  0  0  0
    7.0474  -14.6361   24.4925 C   0  0  0  0  0  0  0  0  0  0  0  0
    8.7496  -18.1058   23.8319 C   0  0  0  0  0  0  0  0  0  0  0  0
    9.4348  -18.9872   24.3908 O   0  0  0  0  0  0  0  0  0  0  0  0
   11.0325  -14.8411   22.0677 O   0  0  0  0  0  0  0  0  0  0  0  0
   11.2368  -16.1878   21.7763 C   0  0  0  0  0  0  0  0  0  0  0  0
   10.7908  -17.0718   22.9261 C   0  0  2  0  0  0  0  0  0  0  0  0
    9.3753  -17.0580   23.1066 N   0  0  0  0  0  0  0  0  0  0  0  0
   11.5156  -16.6134   24.1595 C   0  0  0  0  0  0  0  0  0  0  0  0
   12.7500  -16.5798   24.1151 O   0  0  0  0  0  0  0  0  0  0  0  0
    8.8029  -13.3454   26.4994 C   0  0  0  0  0  0  0  0  0  0  0  0
    9.4590  -14.5476   27.1806 C   0  0  2  0  0  0  0  0  0  0  0  0
    8.9804  -14.6183   28.5879 C   0  0  0  0  0  0  0  0  0  0  0  0
   10.9415  -14.4650   27.0158 C   0  0  0  0  0  0  0  0  0  0  0  0
   11.5076  -15.7628   26.5486 C   0  0  2  0  0  0  0  0  0  0  0  0
   10.8401  -16.2299   25.3372 N   0  0  0  0  0  0  0  0  0  0  0  0
   11.3478  -16.7926   27.5887 C   0  0  0  0  0  0  0  0  0  0  0  0
   10.6557  -17.9712   27.2327 O   0  0  0  0  0  0  0  0  0  0  0  0
   11.7495  -16.7584   28.7590 O   0  0  0  0  0  0  0  0  0  0  0  0
  2  1  1  1
  2  3  1  0
  2 13  1  0
  3  4  1  0
  4 12  1  0
  5  4  2  0
  5  6  1  0
  6  7  1  0
  7  8  1  0
  8  9  2  0
 10  9  1  0
 11 10  2  0
 12  7  2  0
 12 11  1  0
 13 18  1  0
 13 14  2  0
 16 15  1  0
 17 16  1  6
 18 17  1  0
 19 17  1  0
 19 20  2  0
 22 21  1  1
 23 22  1  0
 25 24  1  1
 24 22  1  0
 25 26  1  0
 26 19  1  0
 27 25  1  0
 28 27  1  0
 29 27  2  0
M  END
$$$$
