WSL.pdb
     RDKit          3D

 29 30  0  0  1  0  0  0  0  0999 V2000
    7.0452  -17.5247   21.6855 N   0  0  0  0  0  0  0  0  0  0  0  0
    8.0964  -16.6282   22.0708 C   0  0  1  0  0  0  0  0  0  0  0  0
    7.5532  -15.2621   22.3287 C   0  0  0  0  0  0  0  0  0  0  0  0
    7.3817  -14.5474   21.0458 C   0  0  0  0  0  0  0  0  0  0  0  0
    6.1668  -14.3710   20.3914 C   0  0  0  0  0  0  0  0  0  0  0  0
    6.3855  -13.6478   19.2801 N   0  0  0  0  0  0  0  0  0  0  0  0
    7.7148  -13.3619   19.2150 C   0  0  0  0  0  0  0  0  0  0  0  0
    8.4453  -12.6623   18.2809 C   0  0  0  0  0  0  0  0  0  0  0  0
    9.8043  -12.5070   18.4197 C   0  0  0  0  0  0  0  0  0  0  0  0
   10.4308  -13.0712   19.5239 C   0  0  0  0  0  0  0  0  0  0  0  0
    9.7254  -13.7754   20.4732 C   0  0  0  0  0  0  0  0  0  0  0  0
    8.3633  -13.9198   20.3181 C   0  0  0  0  0  0  0  0  0  0  0  0
    8.7505  -17.1655   23.3120 C   0  0  0  0  0  0  0  0  0  0  0  0
    8.0247  -17.4280   24.2934 O   0  0  0  0  0  0  0  0  0  0  0  0
   12.1303  -19.4777   23.5424 O   0  0  0  0  0  0  0  0  0  0  0  0
   12.1436  -18.3737   24.3915 C   0  0  0  0  0  0  0  0  0  0  0  0
   10.7451  -17.8214   24.5956 C   0  0  2  0  0  0  0  0  0  0  0  0
   10.1536  -17.3720   23.3771 N   0  0  0  0  0  0  0  0  0  0  0  0
   10.8357  -16.7191   25.6122 C   0  0  0  0  0  0  0  0  0  0  0  0
   11.6091  -15.7857   25.3725 O   0  0  0  0  0  0  0  0  0  0  0  0
   10.2081  -12.9555   26.9902 C   0  0  0  0  0  0  0  0  0  0  0  0
    9.0183  -13.9164   26.9586 C   0  0  2  0  0  0  0  0  0  0  0  0
    7.7621  -13.1193   26.9264 C   0  0  0  0  0  0  0  0  0  0  0  0
    9.1296  -14.8836   28.0917 C   0  0  0  0  0  0  0  0  0  0  0  0
   10.2943  -15.7969   27.9117 C   0  0  2  0  0  0  0  0  0  0  0  0
   10.0794  -16.7221   26.8031 N   0  0  0  0  0  0  0  0  0  0  0  0
   10.5165  -16.5866   29.1342 C   0  0  0  0  0  0  0  0  0  0  0  0
   10.3312  -17.9840   29.0455 O   0  0  0  0  0  0  0  0  0  0  0  0
   10.8515  -16.1761   30.2529 O   0  0  0  0  0  0  0  0  0  0  0  0
  2  1  1  1
  2  3  1  0
  2 13  1  0
  3  4  1  0
  4 12  1  0
  5  4  2  0
  5  6  1  0
  6  7  1  0
  7  8  1  0
  8  9  2  0
 10  9  1  0
 11 10  2  0
 12  7  2  0
 12 11  1  0
 13 18  1  0
 13 14  2  0
 16 15  1  0
 17 16  1  6
 18 17  1  0
 19 17  1  0
 19 20  2  0
 22 21  1  1
 23 22  1  0
 25 24  1  1
 24 22  1  0
 25 26  1  0
 26 19  1  0
 27 25  1  0
 28 27  1  0
 29 27  2  0
M  END
$$$$
