WSL.pdb
     RDKit          3D

 29 30  0  0  1  0  0  0  0  0999 V2000
    6.0144  -16.9983   24.3114 N   0  0  0  0  0  0  0  0  0  0  0  0
    7.2533  -16.3223   24.0556 C   0  0  1  0  0  0  0  0  0  0  0  0
    7.3025  -15.0218   24.7863 C   0  0  0  0  0  0  0  0  0  0  0  0
    6.9443  -13.9225   23.8648 C   0  0  0  0  0  0  0  0  0  0  0  0
    6.0498  -12.8987   24.1599 C   0  0  0  0  0  0  0  0  0  0  0  0
    5.9986  -12.0647   23.1074 N   0  0  0  0  0  0  0  0  0  0  0  0
    6.8420  -12.5384   22.1497 C   0  0  0  0  0  0  0  0  0  0  0  0
    7.1445  -12.0614   20.8940 C   0  0  0  0  0  0  0  0  0  0  0  0
    8.0353  -12.7241   20.0830 C   0  0  0  0  0  0  0  0  0  0  0  0
    8.6275  -13.8890   20.5545 C   0  0  0  0  0  0  0  0  0  0  0  0
    8.3438  -14.3885   21.8055 C   0  0  0  0  0  0  0  0  0  0  0  0
    7.4492  -13.7099   22.6051 C   0  0  0  0  0  0  0  0  0  0  0  0
    8.3812  -17.2081   24.5034 C   0  0  0  0  0  0  0  0  0  0  0  0
    8.2153  -17.8988   25.5301 O   0  0  0  0  0  0  0  0  0  0  0  0
   12.1024  -16.7427   22.7502 O   0  0  0  0  0  0  0  0  0  0  0  0
   11.9336  -17.9383   23.4445 C   0  0  0  0  0  0  0  0  0  0  0  0
   10.7516  -17.8602   24.3927 C   0  0  2  0  0  0  0  0  0  0  0  0
    9.6052  -17.2647   23.7863 N   0  0  0  0  0  0  0  0  0  0  0  0
   11.1958  -17.1023   25.6113 C   0  0  0  0  0  0  0  0  0  0  0  0
   12.0904  -16.2625   25.4648 O   0  0  0  0  0  0  0  0  0  0  0  0
   10.9039  -13.6684   27.6857 C   0  0  0  0  0  0  0  0  0  0  0  0
    9.7812  -14.7051   27.7533 C   0  0  2  0  0  0  0  0  0  0  0  0
    8.5024  -14.0045   28.0510 C   0  0  0  0  0  0  0  0  0  0  0  0
   10.1562  -15.7825   28.7179 C   0  0  0  0  0  0  0  0  0  0  0  0
   11.1426  -16.7264   28.1188 C   0  0  2  0  0  0  0  0  0  0  0  0
   10.6320  -17.3191   26.8862 N   0  0  0  0  0  0  0  0  0  0  0  0
   11.4447  -17.8151   29.0627 C   0  0  0  0  0  0  0  0  0  0  0  0
   12.1215  -17.4710   30.2536 O   0  0  0  0  0  0  0  0  0  0  0  0
   11.1770  -19.0179   28.9452 O   0  0  0  0  0  0  0  0  0  0  0  0
  2  1  1  1
  2  3  1  0
  2 13  1  0
  3  4  1  0
  4 12  1  0
  5  4  2  0
  5  6  1  0
  6  7  1  0
  7  8  1  0
  8  9  2  0
 10  9  1  0
 11 10  2  0
 12  7  2  0
 12 11  1  0
 13 18  1  0
 13 14  2  0
 16 15  1  0
 17 16  1  6
 18 17  1  0
 19 17  1  0
 19 20  2  0
 22 21  1  1
 23 22  1  0
 25 24  1  1
 24 22  1  0
 25 26  1  0
 26 19  1  0
 27 25  1  0
 28 27  1  0
 29 27  2  0
M  END
$$$$
