IPK.pdb
     RDKit          3D

 25 25  0  0  1  0  0  0  0  0999 V2000
   24.9774  -20.4253  -10.4332 C   0  0  0  0  0  0  0  0  0  0  0  0
   25.6097  -21.6514  -11.0858 C   0  0  0  0  0  0  0  0  0  0  0  0
   25.6096  -21.3663  -12.5845 C   0  0  2  0  0  0  0  0  0  0  0  0
   27.0196  -20.9650  -12.9595 C   0  0  0  0  0  0  0  0  0  0  0  0
   24.6885  -20.1691  -12.8811 C   0  0  2  0  0  0  0  0  0  0  0  0
   23.3396  -20.7494  -12.7149 N   0  0  0  0  0  0  0  0  0  0  0  0
   24.8074  -19.7121  -14.2681 C   0  0  0  0  0  0  0  0  0  0  0  0
   24.0040  -20.2328  -15.1214 O   0  0  0  0  0  0  0  0  0  0  0  0
   25.7428  -18.7399  -14.7251 N   0  0  0  0  0  0  0  0  0  0  0  0
   26.7354  -18.0918  -13.8516 C   0  0  0  0  0  0  0  0  0  0  0  0
   27.0992  -16.7998  -14.5127 C   0  0  0  0  0  0  0  0  0  0  0  0
   26.3141  -16.7114  -15.8021 C   0  0  0  0  0  0  0  0  0  0  0  0
   25.9510  -18.1848  -16.0115 C   0  0  1  0  0  0  0  0  0  0  0  0
   27.0084  -18.8754  -16.7968 C   0  0  0  0  0  0  0  0  0  0  0  0
   28.0561  -19.2543  -16.2111 O   0  0  0  0  0  0  0  0  0  0  0  0
   26.9176  -19.1419  -18.1852 N   0  0  0  0  0  0  0  0  0  0  0  0
   27.3516  -20.3964  -18.7899 C   0  0  1  0  0  0  0  0  0  0  0  0
   26.7929  -21.5122  -17.9506 C   0  0  0  0  0  0  0  0  0  0  0  0
   27.1101  -22.8870  -18.4332 C   0  0  0  0  0  0  0  0  0  0  0  0
   26.4569  -23.9295  -17.5177 C   0  0  0  0  0  0  0  0  0  0  0  0
   27.5117  -24.9163  -17.0723 C   0  0  0  0  0  0  0  0  0  0  0  0
   26.9799  -25.8960  -16.1543 N   0  0  0  0  0  0  0  0  0  0  0  0
   27.0005  -20.4844  -20.2028 C   0  0  0  0  0  0  0  0  0  0  0  0
   26.0347  -19.6462  -20.7288 O   0  0  0  0  0  0  0  0  0  0  0  0
   27.5566  -21.3069  -20.9570 O   0  0  0  0  0  0  0  0  0  0  0  0
  2  1  1  0
  3  2  1  0
  3  4  1  1
  5  3  1  0
  5  7  1  0
  5  6  1  6
  7  8  2  0
  9  7  1  0
  9 13  1  0
 10 11  1  0
 10  9  1  0
 11 12  1  0
 12 13  1  0
 13 14  1  1
 14 15  2  0
 16 14  1  0
 17 16  1  0
 17 23  1  0
 17 18  1  1
 19 18  1  0
 20 19  1  0
 21 20  1  0
 22 21  1  0
 23 24  1  0
 25 23  2  0
M  END
$$$$
