IPK.pdb
     RDKit          3D

 25 25  0  0  1  0  0  0  0  0999 V2000
   20.6762  -11.6977  -21.9272 C   0  0  0  0  0  0  0  0  0  0  0  0
   21.2514  -12.4446  -20.7271 C   0  0  0  0  0  0  0  0  0  0  0  0
   21.1030  -11.4956  -19.5419 C   0  0  2  0  0  0  0  0  0  0  0  0
   22.0602  -10.3464  -19.7715 C   0  0  0  0  0  0  0  0  0  0  0  0
   21.5353  -12.2129  -18.2502 C   0  0  2  0  0  0  0  0  0  0  0  0
   20.5627  -13.3214  -18.1546 N   0  0  0  0  0  0  0  0  0  0  0  0
   21.3631  -11.3677  -17.0660 C   0  0  0  0  0  0  0  0  0  0  0  0
   20.1593  -11.1230  -16.6979 O   0  0  0  0  0  0  0  0  0  0  0  0
   22.4301  -10.8083  -16.3058 N   0  0  0  0  0  0  0  0  0  0  0  0
   23.8524  -11.0052  -16.6322 C   0  0  0  0  0  0  0  0  0  0  0  0
   24.6111  -10.7848  -15.3615 C   0  0  0  0  0  0  0  0  0  0  0  0
   23.6066  -10.4356  -14.2865 C   0  0  0  0  0  0  0  0  0  0  0  0
   22.4170   -9.9960  -15.1456 C   0  0  1  0  0  0  0  0  0  0  0  0
   22.4932   -8.5391  -15.4346 C   0  0  0  0  0  0  0  0  0  0  0  0
   23.3093   -8.1295  -16.3009 O   0  0  0  0  0  0  0  0  0  0  0  0
   21.6962   -7.5609  -14.7908 N   0  0  0  0  0  0  0  0  0  0  0  0
   21.7229   -6.1461  -15.1454 C   0  0  1  0  0  0  0  0  0  0  0  0
   20.3097   -5.7389  -15.4593 C   0  0  0  0  0  0  0  0  0  0  0  0
   19.6728   -6.4803  -16.5855 C   0  0  0  0  0  0  0  0  0  0  0  0
   18.2707   -5.9217  -16.8567 C   0  0  0  0  0  0  0  0  0  0  0  0
   17.5658   -6.8295  -17.8383 C   0  0  0  0  0  0  0  0  0  0  0  0
   16.1459   -6.8992  -17.5842 N   0  0  0  0  0  0  0  0  0  0  0  0
   22.3623   -5.3273  -14.1216 C   0  0  0  0  0  0  0  0  0  0  0  0
   22.8361   -4.0678  -14.4397 O   0  0  0  0  0  0  0  0  0  0  0  0
   22.4936   -5.7403  -12.9526 O   0  0  0  0  0  0  0  0  0  0  0  0
  2  1  1  0
  3  2  1  0
  3  4  1  6
  5  3  1  0
  5  7  1  0
  5  6  1  1
  7  8  2  0
  9  7  1  0
  9 13  1  0
 10 11  1  0
 10  9  1  0
 11 12  1  0
 12 13  1  0
 13 14  1  6
 14 15  2  0
 16 14  1  0
 17 16  1  0
 17 23  1  0
 17 18  1  1
 19 18  1  0
 20 19  1  0
 21 20  1  0
 22 21  1  0
 23 24  1  0
 25 23  2  0
M  END
$$$$
