IPK.pdb
     RDKit          3D

 25 25  0  0  1  0  0  0  0  0999 V2000
   18.7291  -12.3578  -20.6409 C   0  0  0  0  0  0  0  0  0  0  0  0
   19.5661  -12.9929  -19.5341 C   0  0  0  0  0  0  0  0  0  0  0  0
   19.6569  -11.9420  -18.4320 C   0  0  2  0  0  0  0  0  0  0  0  0
   20.5276  -10.8218  -18.9582 C   0  0  0  0  0  0  0  0  0  0  0  0
   20.3618  -12.5439  -17.2029 C   0  0  2  0  0  0  0  0  0  0  0  0
   19.4522  -13.6415  -16.8134 N   0  0  0  0  0  0  0  0  0  0  0  0
   20.4226  -11.5994  -16.0845 C   0  0  0  0  0  0  0  0  0  0  0  0
   19.3123  -11.3009  -15.5163 O   0  0  0  0  0  0  0  0  0  0  0  0
   21.6173  -10.9998  -15.5924 N   0  0  0  0  0  0  0  0  0  0  0  0
   22.9515  -11.2600  -16.1585 C   0  0  0  0  0  0  0  0  0  0  0  0
   23.9370  -10.9443  -15.0778 C   0  0  0  0  0  0  0  0  0  0  0  0
   23.1550  -10.4751  -13.8716 C   0  0  0  0  0  0  0  0  0  0  0  0
   21.8282  -10.0859  -14.5310 C   0  0  1  0  0  0  0  0  0  0  0  0
   21.8590   -8.6635  -14.9638 C   0  0  0  0  0  0  0  0  0  0  0  0
   22.4432   -8.3635  -16.0376 O   0  0  0  0  0  0  0  0  0  0  0  0
   21.2654   -7.6015  -14.2382 N   0  0  0  0  0  0  0  0  0  0  0  0
   21.2054   -6.2299  -14.7312 C   0  0  1  0  0  0  0  0  0  0  0  0
   19.7579   -5.8225  -14.7396 C   0  0  0  0  0  0  0  0  0  0  0  0
   19.4889   -4.4531  -15.2649 C   0  0  0  0  0  0  0  0  0  0  0  0
   17.9784   -4.1910  -15.3012 C   0  0  0  0  0  0  0  0  0  0  0  0
   17.7288   -2.8743  -16.0003 C   0  0  0  0  0  0  0  0  0  0  0  0
   16.3241   -2.5414  -16.0370 N   0  0  0  0  0  0  0  0  0  0  0  0
   22.0705   -5.3290  -13.9780 C   0  0  0  0  0  0  0  0  0  0  0  0
   22.6192   -4.2200  -14.5955 O   0  0  0  0  0  0  0  0  0  0  0  0
   22.3305   -5.5368  -12.7764 O   0  0  0  0  0  0  0  0  0  0  0  0
  2  1  1  0
  3  2  1  0
  3  4  1  6
  5  3  1  0
  5  7  1  0
  5  6  1  1
  7  8  2  0
  9  7  1  0
  9 13  1  0
 10 11  1  0
 10  9  1  0
 11 12  1  0
 12 13  1  0
 13 14  1  6
 14 15  2  0
 16 14  1  0
 17 16  1  0
 17 23  1  0
 17 18  1  1
 19 18  1  0
 20 19  1  0
 21 20  1  0
 22 21  1  0
 23 24  1  0
 25 23  2  0
M  END
$$$$
