IPK.pdb
     RDKit          3D

 25 25  0  0  1  0  0  0  0  0999 V2000
   21.3668  -11.9221    8.6765 C   0  0  0  0  0  0  0  0  0  0  0  0
   20.6187  -11.5134    7.4107 C   0  0  0  0  0  0  0  0  0  0  0  0
   19.4729  -12.5107    7.2694 C   0  0  2  0  0  0  0  0  0  0  0  0
   20.0951  -13.8721    7.0473 C   0  0  0  0  0  0  0  0  0  0  0  0
   18.6420  -12.1672    6.0199 C   0  0  2  0  0  0  0  0  0  0  0  0
   17.8869  -10.9725    6.4516 N   0  0  0  0  0  0  0  0  0  0  0  0
   17.6696  -13.2151    5.6990 C   0  0  0  0  0  0  0  0  0  0  0  0
   16.7091  -13.3895    6.5306 O   0  0  0  0  0  0  0  0  0  0  0  0
   17.7190  -14.0409    4.5394 N   0  0  0  0  0  0  0  0  0  0  0  0
   18.7984  -13.9766    3.5398 C   0  0  0  0  0  0  0  0  0  0  0  0
   18.2299  -14.5258    2.2694 C   0  0  0  0  0  0  0  0  0  0  0  0
   16.8003  -14.9318    2.5487 C   0  0  0  0  0  0  0  0  0  0  0  0
   16.8334  -15.0445    4.0760 C   0  0  1  0  0  0  0  0  0  0  0  0
   17.2197  -16.4200    4.4887 C   0  0  0  0  0  0  0  0  0  0  0  0
   18.4409  -16.7107    4.5804 O   0  0  0  0  0  0  0  0  0  0  0  0
   16.2916  -17.4464    4.7916 N   0  0  0  0  0  0  0  0  0  0  0  0
   16.6834  -18.7546    5.3044 C   0  0  1  0  0  0  0  0  0  0  0  0
   15.8750  -19.0062    6.5473 C   0  0  0  0  0  0  0  0  0  0  0  0
   16.1665  -20.2929    7.2422 C   0  0  0  0  0  0  0  0  0  0  0  0
   15.2889  -20.4259    8.4927 C   0  0  0  0  0  0  0  0  0  0  0  0
   15.6742  -21.6899    9.2265 C   0  0  0  0  0  0  0  0  0  0  0  0
   14.9844  -21.8116   10.4893 N   0  0  0  0  0  0  0  0  0  0  0  0
   16.5669  -19.8047    4.2989 C   0  0  0  0  0  0  0  0  0  0  0  0
   17.3111  -20.9638    4.4202 O   0  0  0  0  0  0  0  0  0  0  0  0
   15.8035  -19.6813    3.3209 O   0  0  0  0  0  0  0  0  0  0  0  0
  2  1  1  0
  3  2  1  0
  3  4  1  6
  5  3  1  0
  5  7  1  0
  5  6  1  1
  7  8  2  0
  9  7  1  0
  9 13  1  0
 10 11  1  0
 10  9  1  0
 11 12  1  0
 12 13  1  0
 13 14  1  6
 14 15  2  0
 16 14  1  0
 17 16  1  0
 17 23  1  0
 17 18  1  1
 19 18  1  0
 20 19  1  0
 21 20  1  0
 22 21  1  0
 23 24  1  0
 25 23  2  0
M  END
$$$$
