IPK.pdb
     RDKit          3D

 25 25  0  0  1  0  0  0  0  0999 V2000
   27.8763  -16.7016  -16.4234 C   0  0  0  0  0  0  0  0  0  0  0  0
   28.3890  -17.9860  -15.7780 C   0  0  0  0  0  0  0  0  0  0  0  0
   27.1562  -18.6814  -15.2088 C   0  0  2  0  0  0  0  0  0  0  0  0
   26.6108  -17.7907  -14.1138 C   0  0  0  0  0  0  0  0  0  0  0  0
   27.5697  -20.0161  -14.5629 C   0  0  2  0  0  0  0  0  0  0  0  0
   28.1536  -20.7585  -15.6994 N   0  0  0  0  0  0  0  0  0  0  0  0
   26.4140  -20.7774  -14.0819 C   0  0  0  0  0  0  0  0  0  0  0  0
   25.8301  -21.5428  -14.9293 O   0  0  0  0  0  0  0  0  0  0  0  0
   25.9037  -20.7255  -12.7531 N   0  0  0  0  0  0  0  0  0  0  0  0
   26.4747  -19.8759  -11.6946 C   0  0  0  0  0  0  0  0  0  0  0  0
   26.0788  -20.4998  -10.3935 C   0  0  0  0  0  0  0  0  0  0  0  0
   25.2473  -21.7226  -10.7096 C   0  0  0  0  0  0  0  0  0  0  0  0
   24.8210  -21.4086  -12.1471 C   0  0  1  0  0  0  0  0  0  0  0  0
   23.5480  -20.6398  -12.1568 C   0  0  0  0  0  0  0  0  0  0  0  0
   23.5474  -19.4526  -11.7386 O   0  0  0  0  0  0  0  0  0  0  0  0
   22.3117  -21.1600  -12.6126 N   0  0  0  0  0  0  0  0  0  0  0  0
   21.2754  -20.3384  -13.2283 C   0  0  1  0  0  0  0  0  0  0  0  0
   21.4945  -20.3858  -14.7153 C   0  0  0  0  0  0  0  0  0  0  0  0
   20.5385  -19.5741  -15.5220 C   0  0  0  0  0  0  0  0  0  0  0  0
   20.8086  -19.7763  -17.0179 C   0  0  0  0  0  0  0  0  0  0  0  0
   19.8575  -18.9061  -17.8070 C   0  0  0  0  0  0  0  0  0  0  0  0
   20.0270  -19.0760  -19.2310 N   0  0  0  0  0  0  0  0  0  0  0  0
   19.9334  -20.7317  -12.8139 C   0  0  0  0  0  0  0  0  0  0  0  0
   19.0080  -19.7667  -12.4611 O   0  0  0  0  0  0  0  0  0  0  0  0
   19.5962  -21.9312  -12.7695 O   0  0  0  0  0  0  0  0  0  0  0  0
  2  1  1  0
  3  2  1  0
  3  4  1  1
  5  3  1  0
  5  7  1  0
  5  6  1  6
  7  8  2  0
  9  7  1  0
  9 13  1  0
 10 11  1  0
 10  9  1  0
 11 12  1  0
 12 13  1  0
 13 14  1  1
 14 15  2  0
 16 14  1  0
 17 16  1  0
 17 23  1  0
 17 18  1  6
 19 18  1  0
 20 19  1  0
 21 20  1  0
 22 21  1  0
 23 24  1  0
 25 23  2  0
M  END
$$$$
