IPK.pdb
     RDKit          3D

 25 25  0  0  1  0  0  0  0  0999 V2000
   27.6237  -20.4630   -3.6166 C   0  0  0  0  0  0  0  0  0  0  0  0
   28.2082  -19.6377   -4.7596 C   0  0  0  0  0  0  0  0  0  0  0  0
   27.3903  -20.0060   -5.9935 C   0  0  2  0  0  0  0  0  0  0  0  0
   27.5408  -21.4980   -6.1960 C   0  0  0  0  0  0  0  0  0  0  0  0
   27.9798  -19.3047   -7.2306 C   0  0  2  0  0  0  0  0  0  0  0  0
   27.8667  -17.8745   -6.8765 N   0  0  0  0  0  0  0  0  0  0  0  0
   27.1702  -19.5305   -8.4307 C   0  0  0  0  0  0  0  0  0  0  0  0
   26.0407  -18.9262   -8.4906 O   0  0  0  0  0  0  0  0  0  0  0  0
   27.5501  -20.3645   -9.5212 N   0  0  0  0  0  0  0  0  0  0  0  0
   28.5889  -21.4040   -9.4274 C   0  0  0  0  0  0  0  0  0  0  0  0
   29.0830  -21.6333  -10.8210 C   0  0  0  0  0  0  0  0  0  0  0  0
   28.2996  -20.7207  -11.7375 C   0  0  0  0  0  0  0  0  0  0  0  0
   27.0835  -20.4153  -10.8575 C   0  0  1  0  0  0  0  0  0  0  0  0
   26.0133  -21.4239  -11.0794 C   0  0  0  0  0  0  0  0  0  0  0  0
   26.3272  -22.6398  -11.1641 O   0  0  0  0  0  0  0  0  0  0  0  0
   24.6386  -21.1059  -11.2048 N   0  0  0  0  0  0  0  0  0  0  0  0
   23.7721  -21.6865  -12.2246 C   0  0  1  0  0  0  0  0  0  0  0  0
   22.5207  -20.8540  -12.2724 C   0  0  0  0  0  0  0  0  0  0  0  0
   21.2637  -21.5808  -11.9329 C   0  0  0  0  0  0  0  0  0  0  0  0
   20.0741  -20.6135  -11.9564 C   0  0  0  0  0  0  0  0  0  0  0  0
   18.8188  -21.3758  -11.5990 C   0  0  0  0  0  0  0  0  0  0  0  0
   17.6761  -20.5022  -11.4698 N   0  0  0  0  0  0  0  0  0  0  0  0
   24.4425  -21.8237  -13.5127 C   0  0  0  0  0  0  0  0  0  0  0  0
   24.9233  -20.7031  -14.1648 O   0  0  0  0  0  0  0  0  0  0  0  0
   24.5944  -22.9401  -14.0466 O   0  0  0  0  0  0  0  0  0  0  0  0
  2  1  1  0
  3  2  1  0
  3  4  1  6
  5  3  1  0
  5  7  1  0
  5  6  1  1
  7  8  2  0
  9  7  1  0
  9 13  1  0
 10 11  1  0
 10  9  1  0
 11 12  1  0
 12 13  1  0
 13 14  1  1
 14 15  2  0
 16 14  1  0
 17 16  1  0
 17 23  1  0
 17 18  1  6
 19 18  1  0
 20 19  1  0
 21 20  1  0
 22 21  1  0
 23 24  1  0
 25 23  2  0
M  END
$$$$
