IPK.pdb
     RDKit          3D

 25 25  0  0  1  0  0  0  0  0999 V2000
   19.7105  -22.4439  -15.6032 C   0  0  0  0  0  0  0  0  0  0  0  0
   19.9879  -21.6792  -14.3120 C   0  0  0  0  0  0  0  0  0  0  0  0
   21.4515  -21.2560  -14.3904 C   0  0  2  0  0  0  0  0  0  0  0  0
   22.2809  -22.5213  -14.3615 C   0  0  0  0  0  0  0  0  0  0  0  0
   21.8163  -20.4295  -13.1440 C   0  0  2  0  0  0  0  0  0  0  0  0
   20.9516  -19.2389  -13.2806 N   0  0  0  0  0  0  0  0  0  0  0  0
   23.2082  -19.9730  -13.1731 C   0  0  0  0  0  0  0  0  0  0  0  0
   23.4809  -18.9920  -13.9528 O   0  0  0  0  0  0  0  0  0  0  0  0
   24.2642  -20.5382  -12.4020 N   0  0  0  0  0  0  0  0  0  0  0  0
   24.0634  -21.6005  -11.4022 C   0  0  0  0  0  0  0  0  0  0  0  0
   25.2170  -21.5103  -10.4536 C   0  0  0  0  0  0  0  0  0  0  0  0
   26.1094  -20.3854  -10.9280 C   0  0  0  0  0  0  0  0  0  0  0  0
   25.6528  -20.2599  -12.3848 C   0  0  1  0  0  0  0  0  0  0  0  0
   26.4533  -21.1564  -13.2607 C   0  0  0  0  0  0  0  0  0  0  0  0
   26.3540  -22.4026  -13.1143 O   0  0  0  0  0  0  0  0  0  0  0  0
   27.3373  -20.6973  -14.2680 N   0  0  0  0  0  0  0  0  0  0  0  0
   27.2813  -21.1550  -15.6520 C   0  0  1  0  0  0  0  0  0  0  0  0
   25.8450  -21.0740  -16.0901 C   0  0  0  0  0  0  0  0  0  0  0  0
   25.5893  -21.4859  -17.5002 C   0  0  0  0  0  0  0  0  0  0  0  0
   24.0938  -21.3700  -17.8191 C   0  0  0  0  0  0  0  0  0  0  0  0
   23.8588  -21.8464  -19.2342 C   0  0  0  0  0  0  0  0  0  0  0  0
   22.4704  -21.7372  -19.6160 N   0  0  0  0  0  0  0  0  0  0  0  0
   28.2064  -20.4304  -16.5160 C   0  0  0  0  0  0  0  0  0  0  0  0
   28.3877  -19.0699  -16.3483 O   0  0  0  0  0  0  0  0  0  0  0  0
   28.8455  -21.0150  -17.4128 O   0  0  0  0  0  0  0  0  0  0  0  0
  2  1  1  0
  3  2  1  0
  3  4  1  1
  5  3  1  0
  5  7  1  0
  5  6  1  6
  7  8  2  0
  9  7  1  0
  9 13  1  0
 10 11  1  0
 10  9  1  0
 11 12  1  0
 12 13  1  0
 13 14  1  6
 14 15  2  0
 16 14  1  0
 17 16  1  0
 17 23  1  0
 17 18  1  6
 19 18  1  0
 20 19  1  0
 21 20  1  0
 22 21  1  0
 23 24  1  0
 25 23  2  0
M  END
$$$$
