IPK.pdb
     RDKit          3D

 25 25  0  0  1  0  0  0  0  0999 V2000
   24.5752  -21.3861   -8.6174 C   0  0  0  0  0  0  0  0  0  0  0  0
   24.7439  -20.0342   -9.3051 C   0  0  0  0  0  0  0  0  0  0  0  0
   24.8393  -20.3400  -10.7966 C   0  0  2  0  0  0  0  0  0  0  0  0
   26.1084  -21.1374  -11.0053 C   0  0  0  0  0  0  0  0  0  0  0  0
   24.9790  -19.0248  -11.5844 C   0  0  2  0  0  0  0  0  0  0  0  0
   23.7165  -18.3238  -11.2704 N   0  0  0  0  0  0  0  0  0  0  0  0
   25.0139  -19.2499  -13.0317 C   0  0  0  0  0  0  0  0  0  0  0  0
   23.8847  -19.3140  -13.6362 O   0  0  0  0  0  0  0  0  0  0  0  0
   26.2031  -19.3988  -13.8016 N   0  0  0  0  0  0  0  0  0  0  0  0
   27.5497  -19.4812  -13.2116 C   0  0  0  0  0  0  0  0  0  0  0  0
   28.5058  -19.0593  -14.2824 C   0  0  0  0  0  0  0  0  0  0  0  0
   27.6944  -18.7458  -15.5193 C   0  0  0  0  0  0  0  0  0  0  0  0
   26.3967  -19.4951  -15.2014 C   0  0  1  0  0  0  0  0  0  0  0  0
   26.4673  -20.8943  -15.7004 C   0  0  0  0  0  0  0  0  0  0  0  0
   26.9887  -21.7780  -14.9714 O   0  0  0  0  0  0  0  0  0  0  0  0
   25.9795  -21.3105  -16.9636 N   0  0  0  0  0  0  0  0  0  0  0  0
   24.8121  -22.1697  -17.1278 C   0  0  1  0  0  0  0  0  0  0  0  0
   23.6925  -21.5566  -16.3327 C   0  0  0  0  0  0  0  0  0  0  0  0
   22.3795  -22.2541  -16.4468 C   0  0  0  0  0  0  0  0  0  0  0  0
   21.3183  -21.5156  -15.6223 C   0  0  0  0  0  0  0  0  0  0  0  0
   20.2903  -22.5150  -15.1437 C   0  0  0  0  0  0  0  0  0  0  0  0
   19.2465  -21.8857  -14.3692 N   0  0  0  0  0  0  0  0  0  0  0  0
   24.4850  -22.4029  -18.5299 C   0  0  0  0  0  0  0  0  0  0  0  0
   23.8477  -23.5709  -18.9063 O   0  0  0  0  0  0  0  0  0  0  0  0
   24.7695  -21.5647  -19.4080 O   0  0  0  0  0  0  0  0  0  0  0  0
  2  1  1  0
  3  2  1  0
  3  4  1  1
  5  3  1  0
  5  7  1  0
  5  6  1  6
  7  8  2  0
  9  7  1  0
  9 13  1  0
 10 11  1  0
 10  9  1  0
 11 12  1  0
 12 13  1  0
 13 14  1  1
 14 15  2  0
 16 14  1  0
 17 16  1  0
 17 23  1  0
 17 18  1  1
 19 18  1  0
 20 19  1  0
 21 20  1  0
 22 21  1  0
 23 24  1  0
 25 23  2  0
M  END
$$$$
