IPK.pdb
     RDKit          3D

 25 25  0  0  1  0  0  0  0  0999 V2000
   27.8640  -17.4338  -17.0179 C   0  0  0  0  0  0  0  0  0  0  0  0
   28.3851  -18.5048  -16.0637 C   0  0  0  0  0  0  0  0  0  0  0  0
   27.1503  -19.0820  -15.3786 C   0  0  2  0  0  0  0  0  0  0  0  0
   26.6101  -18.0076  -14.4600 C   0  0  0  0  0  0  0  0  0  0  0  0
   27.5592  -20.2816  -14.5048 C   0  0  2  0  0  0  0  0  0  0  0  0
   28.2043  -21.1865  -15.4789 N   0  0  0  0  0  0  0  0  0  0  0  0
   26.3975  -20.9814  -13.9504 C   0  0  0  0  0  0  0  0  0  0  0  0
   25.7903  -21.8026  -14.7260 O   0  0  0  0  0  0  0  0  0  0  0  0
   25.9053  -20.8132  -12.6243 N   0  0  0  0  0  0  0  0  0  0  0  0
   26.5538  -19.9556  -11.6181 C   0  0  0  0  0  0  0  0  0  0  0  0
   26.1198  -20.4709  -10.2821 C   0  0  0  0  0  0  0  0  0  0  0  0
   25.1880  -21.6369  -10.5248 C   0  0  0  0  0  0  0  0  0  0  0  0
   24.7758  -21.3698  -11.9758 C   0  0  1  0  0  0  0  0  0  0  0  0
   23.5701  -20.5005  -12.0233 C   0  0  0  0  0  0  0  0  0  0  0  0
   23.7177  -19.2565  -12.1460 O   0  0  0  0  0  0  0  0  0  0  0  0
   22.2412  -20.9835  -11.9383 N   0  0  0  0  0  0  0  0  0  0  0  0
   21.2220  -20.7050  -12.9441 C   0  0  1  0  0  0  0  0  0  0  0  0
   21.7733  -21.1478  -14.2713 C   0  0  0  0  0  0  0  0  0  0  0  0
   21.1770  -22.4003  -14.8183 C   0  0  0  0  0  0  0  0  0  0  0  0
   22.2790  -23.3034  -15.3854 C   0  0  0  0  0  0  0  0  0  0  0  0
   22.1073  -24.6951  -14.8212 C   0  0  0  0  0  0  0  0  0  0  0  0
   23.0027  -25.6427  -15.4421 N   0  0  0  0  0  0  0  0  0  0  0  0
   19.9326  -21.2992  -12.6098 C   0  0  0  0  0  0  0  0  0  0  0  0
   18.7630  -20.6189  -12.8950 O   0  0  0  0  0  0  0  0  0  0  0  0
   19.8583  -22.4189  -12.0666 O   0  0  0  0  0  0  0  0  0  0  0  0
  2  1  1  0
  3  2  1  0
  3  4  1  1
  5  3  1  0
  5  7  1  0
  5  6  1  6
  7  8  2  0
  9  7  1  0
  9 13  1  0
 10 11  1  0
 10  9  1  0
 11 12  1  0
 12 13  1  0
 13 14  1  1
 14 15  2  0
 16 14  1  0
 17 16  1  0
 17 23  1  0
 17 18  1  6
 19 18  1  0
 20 19  1  0
 21 20  1  0
 22 21  1  0
 23 24  1  0
 25 23  2  0
M  END
$$$$
