IPK.pdb
     RDKit          3D

 25 25  0  0  1  0  0  0  0  0999 V2000
   25.5797  -24.2900  -11.9883 C   0  0  0  0  0  0  0  0  0  0  0  0
   25.5917  -22.8630  -11.4473 C   0  0  0  0  0  0  0  0  0  0  0  0
   25.1989  -21.9737  -12.6230 C   0  0  2  0  0  0  0  0  0  0  0  0
   26.2054  -22.2251  -13.7246 C   0  0  0  0  0  0  0  0  0  0  0  0
   25.3158  -20.4948  -12.2119 C   0  0  2  0  0  0  0  0  0  0  0  0
   24.2586  -20.3589  -11.1882 N   0  0  0  0  0  0  0  0  0  0  0  0
   24.9856  -19.5882  -13.3144 C   0  0  0  0  0  0  0  0  0  0  0  0
   23.7544  -19.2519  -13.4400 O   0  0  0  0  0  0  0  0  0  0  0  0
   25.9290  -19.0616  -14.2427 N   0  0  0  0  0  0  0  0  0  0  0  0
   27.3830  -19.2651  -14.1294 C   0  0  0  0  0  0  0  0  0  0  0  0
   28.0257  -18.1461  -14.8867 C   0  0  0  0  0  0  0  0  0  0  0  0
   26.9189  -17.2920  -15.4631 C   0  0  0  0  0  0  0  0  0  0  0  0
   25.7464  -18.2762  -15.4072 C   0  0  1  0  0  0  0  0  0  0  0  0
   25.6748  -19.0730  -16.6608 C   0  0  0  0  0  0  0  0  0  0  0  0
   26.3259  -20.1473  -16.7406 O   0  0  0  0  0  0  0  0  0  0  0  0
   24.9103  -18.7006  -17.7938 N   0  0  0  0  0  0  0  0  0  0  0  0
   23.7364  -19.4392  -18.2459 C   0  0  1  0  0  0  0  0  0  0  0  0
   22.8135  -19.5741  -17.0662 C   0  0  0  0  0  0  0  0  0  0  0  0
   22.4540  -20.9743  -16.7008 C   0  0  0  0  0  0  0  0  0  0  0  0
   21.3938  -20.9731  -15.5929 C   0  0  0  0  0  0  0  0  0  0  0  0
   21.0604  -22.4034  -15.2357 C   0  0  0  0  0  0  0  0  0  0  0  0
   20.1208  -22.4807  -14.1417 N   0  0  0  0  0  0  0  0  0  0  0  0
   23.1152  -18.8340  -19.4185 C   0  0  0  0  0  0  0  0  0  0  0  0
   22.7606  -19.6225  -20.4977 O   0  0  0  0  0  0  0  0  0  0  0  0
   22.8933  -17.6083  -19.4723 O   0  0  0  0  0  0  0  0  0  0  0  0
  2  1  1  0
  3  2  1  0
  3  4  1  6
  5  3  1  0
  5  7  1  0
  5  6  1  1
  7  8  2  0
  9  7  1  0
  9 13  1  0
 10 11  1  0
 10  9  1  0
 11 12  1  0
 12 13  1  0
 13 14  1  6
 14 15  2  0
 16 14  1  0
 17 16  1  0
 17 23  1  0
 17 18  1  1
 19 18  1  0
 20 19  1  0
 21 20  1  0
 22 21  1  0
 23 24  1  0
 25 23  2  0
M  END
$$$$
