HMY.pdb
     RDKit          3D

 31 32  0  0  1  0  0  0  0  0999 V2000
    9.3181  -16.4570   20.1109 N   0  0  0  0  0  0  0  0  0  0  0  0
    9.1388  -17.1382   21.3552 C   0  0  1  0  0  0  0  0  0  0  0  0
   10.2508  -18.1479   21.5680 C   0  0  0  0  0  0  0  0  0  0  0  0
   10.0847  -19.3431   20.7290 C   0  0  0  0  0  0  0  0  0  0  0  0
    9.9627  -19.3392   19.3623 C   0  0  0  0  0  0  0  0  0  0  0  0
    9.8319  -20.5994   18.9647 N   0  0  0  0  0  0  0  0  0  0  0  0
    9.8718  -21.3727   20.0633 C   0  0  0  0  0  0  0  0  0  0  0  0
   10.0276  -20.6078   21.1578 N   0  0  0  0  0  0  0  0  0  0  0  0
    9.0703  -16.2527   22.5196 C   0  0  0  0  0  0  0  0  0  0  0  0
    9.6974  -15.1662   22.5519 O   0  0  0  0  0  0  0  0  0  0  0  0
    7.0416  -11.5261   27.3638 C   0  0  0  0  0  0  0  0  0  0  0  0
    6.2103  -12.5941   26.1837 S   0  0  0  0  0  0  0  0  0  0  0  0
    6.6370  -14.2963   26.4030 C   0  0  0  0  0  0  0  0  0  0  0  0
    6.8913  -15.1874   25.2783 C   0  0  0  0  0  0  0  0  0  0  0  0
    8.1762  -15.6204   24.7738 C   0  0  2  0  0  0  0  0  0  0  0  0
    8.2800  -16.5640   23.7104 N   0  0  0  0  0  0  0  0  0  0  0  0
    8.9810  -16.1692   25.9379 C   0  0  0  0  0  0  0  0  0  0  0  0
    8.9425  -17.3952   26.2148 O   0  0  0  0  0  0  0  0  0  0  0  0
   14.3597  -18.2300   23.1652 O   0  0  0  0  0  0  0  0  0  0  0  0
   13.7988  -17.6070   24.2752 C   0  0  0  0  0  0  0  0  0  0  0  0
   13.7931  -18.1774   25.5329 C   0  0  0  0  0  0  0  0  0  0  0  0
   13.2277  -17.5366   26.6241 C   0  0  0  0  0  0  0  0  0  0  0  0
   12.6483  -16.2882   26.4624 C   0  0  0  0  0  0  0  0  0  0  0  0
   12.0391  -15.5809   27.5926 C   0  0  0  0  0  0  0  0  0  0  0  0
   10.5960  -15.9496   27.8470 C   0  0  2  0  0  0  0  0  0  0  0  0
    9.7977  -15.3629   26.7564 N   0  0  0  0  0  0  0  0  0  0  0  0
   10.0929  -15.4981   29.1609 C   0  0  0  0  0  0  0  0  0  0  0  0
    9.2446  -14.5777   29.2271 O   0  0  0  0  0  0  0  0  0  0  0  0
   12.6678  -15.7408   25.1940 C   0  0  0  0  0  0  0  0  0  0  0  0
   13.2261  -16.3663   24.1015 C   0  0  0  0  0  0  0  0  0  0  0  0
   10.5332  -16.0664   30.3468 O   0  0  0  0  0  0  0  0  0  0  0  0
  2  1  1  6
  2  3  1  0
  3  4  1  0
  4  8  1  0
  5  6  1  0
  5  4  2  0
  6  7  1  0
  7  8  2  0
  9  2  1  0
  9 10  2  0
 12 11  1  0
 13 12  1  0
 14 13  1  0
 15 14  1  1
 15 16  1  0
 16  9  1  0
 17 26  1  0
 17 15  1  0
 18 17  2  0
 20 19  1  0
 20 30  2  0
 21 20  1  0
 22 21  2  0
 22 23  1  0
 23 29  2  0
 24 23  1  0
 25 24  1  6
 25 26  1  0
 25 27  1  0
 27 31  1  0
 28 27  2  0
 29 30  1  0
M  END
$$$$
