HMY.pdb
     RDKit          3D

 31 32  0  0  1  0  0  0  0  0999 V2000
    7.7491  -13.2932   18.0633 N   0  0  0  0  0  0  0  0  0  0  0  0
    8.1060  -14.4403   18.8387 C   0  0  1  0  0  0  0  0  0  0  0  0
    8.8398  -15.4508   17.9774 C   0  0  0  0  0  0  0  0  0  0  0  0
    8.0319  -15.8978   16.8340 C   0  0  0  0  0  0  0  0  0  0  0  0
    7.2242  -17.0069   16.8218 C   0  0  0  0  0  0  0  0  0  0  0  0
    6.6600  -17.0829   15.6221 N   0  0  0  0  0  0  0  0  0  0  0  0
    7.1082  -16.0406   14.9016 C   0  0  0  0  0  0  0  0  0  0  0  0
    7.9555  -15.3026   15.6396 N   0  0  0  0  0  0  0  0  0  0  0  0
    8.9211  -14.1380   20.0173 C   0  0  0  0  0  0  0  0  0  0  0  0
    9.4669  -13.0176   20.1642 O   0  0  0  0  0  0  0  0  0  0  0  0
    6.9902  -11.8580   26.4149 C   0  0  0  0  0  0  0  0  0  0  0  0
    7.4459  -13.3402   25.5097 S   0  0  0  0  0  0  0  0  0  0  0  0
    7.3250  -13.1208   23.7590 C   0  0  0  0  0  0  0  0  0  0  0  0
    7.5763  -14.2049   22.8181 C   0  0  0  0  0  0  0  0  0  0  0  0
    8.8571  -14.7634   22.4433 C   0  0  2  0  0  0  0  0  0  0  0  0
    9.1553  -15.1030   21.0913 N   0  0  0  0  0  0  0  0  0  0  0  0
    9.0932  -16.0084   23.2789 C   0  0  0  0  0  0  0  0  0  0  0  0
    8.1286  -16.7454   23.6072 O   0  0  0  0  0  0  0  0  0  0  0  0
   11.0320  -15.6074   31.4935 O   0  0  0  0  0  0  0  0  0  0  0  0
   10.9707  -15.5733   30.1042 C   0  0  0  0  0  0  0  0  0  0  0  0
   11.5345  -16.5474   29.3039 C   0  0  0  0  0  0  0  0  0  0  0  0
   11.4603  -16.4913   27.9211 C   0  0  0  0  0  0  0  0  0  0  0  0
   10.8048  -15.4334   27.3114 C   0  0  0  0  0  0  0  0  0  0  0  0
   10.7076  -15.3394   25.8518 C   0  0  0  0  0  0  0  0  0  0  0  0
   10.6272  -16.6755   25.1505 C   0  0  2  0  0  0  0  0  0  0  0  0
   10.3702  -16.4046   23.7251 N   0  0  0  0  0  0  0  0  0  0  0  0
    9.5924  -17.5730   25.7043 C   0  0  0  0  0  0  0  0  0  0  0  0
    9.9195  -18.6685   26.2179 O   0  0  0  0  0  0  0  0  0  0  0  0
   10.2500  -14.4732   28.1354 C   0  0  0  0  0  0  0  0  0  0  0  0
   10.3163  -14.5166   29.5102 C   0  0  0  0  0  0  0  0  0  0  0  0
    8.2461  -17.2415   25.6761 O   0  0  0  0  0  0  0  0  0  0  0  0
  2  1  1  6
  2  3  1  0
  3  4  1  0
  4  8  1  0
  5  6  1  0
  5  4  2  0
  6  7  1  0
  7  8  2  0
  9  2  1  0
  9 10  2  0
 12 11  1  0
 13 12  1  0
 14 13  1  0
 15 14  1  6
 15 16  1  0
 16  9  1  0
 17 26  1  0
 17 15  1  0
 18 17  2  0
 20 19  1  0
 20 30  2  0
 21 20  1  0
 22 21  2  0
 22 23  1  0
 23 29  2  0
 24 23  1  0
 25 24  1  1
 25 26  1  0
 25 27  1  0
 27 31  1  0
 28 27  2  0
 29 30  1  0
M  END
$$$$
