HMY.pdb
     RDKit          3D

 31 32  0  0  1  0  0  0  0  0999 V2000
    9.0614  -15.8547   18.6304 N   0  0  0  0  0  0  0  0  0  0  0  0
    8.3783  -16.4098   19.7572 C   0  0  1  0  0  0  0  0  0  0  0  0
    8.4622  -17.9242   19.7304 C   0  0  0  0  0  0  0  0  0  0  0  0
    7.6358  -18.5083   18.6648 C   0  0  0  0  0  0  0  0  0  0  0  0
    7.9032  -18.4256   17.3214 C   0  0  0  0  0  0  0  0  0  0  0  0
    6.9381  -19.0708   16.6768 N   0  0  0  0  0  0  0  0  0  0  0  0
    6.0863  -19.5458   17.6016 C   0  0  0  0  0  0  0  0  0  0  0  0
    6.5071  -19.2046   18.8319 N   0  0  0  0  0  0  0  0  0  0  0  0
    8.8660  -15.9285   21.0515 C   0  0  0  0  0  0  0  0  0  0  0  0
   10.0829  -15.6892   21.2432 O   0  0  0  0  0  0  0  0  0  0  0  0
    6.9388  -11.9190   26.6935 C   0  0  0  0  0  0  0  0  0  0  0  0
    5.8062  -12.9301   25.7348 S   0  0  0  0  0  0  0  0  0  0  0  0
    6.5882  -13.6637   24.3284 C   0  0  0  0  0  0  0  0  0  0  0  0
    7.6396  -14.6648   24.4547 C   0  0  0  0  0  0  0  0  0  0  0  0
    8.5089  -15.1621   23.4107 C   0  0  2  0  0  0  0  0  0  0  0  0
    7.9862  -15.6957   22.1967 N   0  0  0  0  0  0  0  0  0  0  0  0
    9.4119  -16.2234   24.0126 C   0  0  0  0  0  0  0  0  0  0  0  0
    9.2655  -17.4330   23.7015 O   0  0  0  0  0  0  0  0  0  0  0  0
   10.1320  -14.3593   31.2543 O   0  0  0  0  0  0  0  0  0  0  0  0
   10.6554  -14.8123   30.0478 C   0  0  0  0  0  0  0  0  0  0  0  0
   10.7091  -14.0289   28.9117 C   0  0  0  0  0  0  0  0  0  0  0  0
   11.2356  -14.5030   27.7205 C   0  0  0  0  0  0  0  0  0  0  0  0
   11.7253  -15.7976   27.6538 C   0  0  0  0  0  0  0  0  0  0  0  0
   12.2879  -16.3342   26.4111 C   0  0  0  0  0  0  0  0  0  0  0  0
   11.2730  -16.9971   25.5089 C   0  0  2  0  0  0  0  0  0  0  0  0
   10.4405  -15.9281   24.9301 N   0  0  0  0  0  0  0  0  0  0  0  0
   10.4311  -17.9960   26.1992 C   0  0  0  0  0  0  0  0  0  0  0  0
   10.9337  -19.0710   26.6028 O   0  0  0  0  0  0  0  0  0  0  0  0
   11.6595  -16.5594   28.8046 C   0  0  0  0  0  0  0  0  0  0  0  0
   11.1392  -16.1010   29.9944 C   0  0  0  0  0  0  0  0  0  0  0  0
    9.0788  -17.7840   26.4213 O   0  0  0  0  0  0  0  0  0  0  0  0
  2  1  1  6
  2  3  1  0
  3  4  1  0
  4  8  1  0
  5  6  1  0
  5  4  2  0
  6  7  1  0
  7  8  2  0
  9  2  1  0
  9 10  2  0
 12 11  1  0
 13 12  1  0
 14 13  1  0
 15 14  1  1
 15 16  1  0
 16  9  1  0
 17 26  1  0
 17 15  1  0
 18 17  2  0
 20 19  1  0
 20 30  2  0
 21 20  1  0
 22 21  2  0
 22 23  1  0
 23 29  2  0
 24 23  1  0
 25 24  1  1
 25 26  1  0
 25 27  1  0
 27 31  1  0
 28 27  2  0
 29 30  1  0
M  END
$$$$
