HMY.pdb
     RDKit          3D

 31 32  0  0  1  0  0  0  0  0999 V2000
    8.6900  -16.2572   18.4999 N   0  0  0  0  0  0  0  0  0  0  0  0
    8.0994  -16.6123   19.7528 C   0  0  1  0  0  0  0  0  0  0  0  0
    8.1489  -18.1154   19.9513 C   0  0  0  0  0  0  0  0  0  0  0  0
    7.2784  -18.8300   19.0070 C   0  0  0  0  0  0  0  0  0  0  0  0
    6.5087  -18.2379   18.0376 C   0  0  0  0  0  0  0  0  0  0  0  0
    5.8663  -19.2011   17.3874 N   0  0  0  0  0  0  0  0  0  0  0  0
    6.2294  -20.3703   17.9419 C   0  0  0  0  0  0  0  0  0  0  0  0
    7.1006  -20.1532   18.9424 N   0  0  0  0  0  0  0  0  0  0  0  0
    8.7115  -15.9585   20.9115 C   0  0  0  0  0  0  0  0  0  0  0  0
    9.8732  -15.4870   20.8575 O   0  0  0  0  0  0  0  0  0  0  0  0
    6.8839  -12.1782   26.6007 C   0  0  0  0  0  0  0  0  0  0  0  0
    6.0172  -12.3162   25.0342 S   0  0  0  0  0  0  0  0  0  0  0  0
    6.9626  -13.1862   23.8189 C   0  0  0  0  0  0  0  0  0  0  0  0
    7.8709  -14.2711   24.1676 C   0  0  0  0  0  0  0  0  0  0  0  0
    8.6430  -15.0951   23.2632 C   0  0  2  0  0  0  0  0  0  0  0  0
    8.0260  -15.8096   22.1951 N   0  0  0  0  0  0  0  0  0  0  0  0
    9.4167  -16.1068   24.0889 C   0  0  0  0  0  0  0  0  0  0  0  0
    8.8472  -17.1398   24.5247 O   0  0  0  0  0  0  0  0  0  0  0  0
   11.1105  -15.9855   32.1691 O   0  0  0  0  0  0  0  0  0  0  0  0
   11.0524  -15.7154   30.8058 C   0  0  0  0  0  0  0  0  0  0  0  0
   10.2176  -14.7571   30.2654 C   0  0  0  0  0  0  0  0  0  0  0  0
   10.1775  -14.5062   28.9030 C   0  0  0  0  0  0  0  0  0  0  0  0
   10.9928  -15.2300   28.0476 C   0  0  0  0  0  0  0  0  0  0  0  0
   10.9766  -14.9937   26.6010 C   0  0  0  0  0  0  0  0  0  0  0  0
   11.2765  -16.2203   25.7711 C   0  0  2  0  0  0  0  0  0  0  0  0
   10.7813  -15.9563   24.4087 N   0  0  0  0  0  0  0  0  0  0  0  0
   10.6798  -17.4598   26.3104 C   0  0  0  0  0  0  0  0  0  0  0  0
   11.4164  -18.4110   26.6621 O   0  0  0  0  0  0  0  0  0  0  0  0
   11.8181  -16.1822   28.6145 C   0  0  0  0  0  0  0  0  0  0  0  0
   11.8679  -16.4416   29.9660 C   0  0  0  0  0  0  0  0  0  0  0  0
    9.3080  -17.6125   26.4443 O   0  0  0  0  0  0  0  0  0  0  0  0
  2  1  1  6
  2  3  1  0
  3  4  1  0
  4  8  1  0
  5  6  1  0
  5  4  2  0
  6  7  1  0
  7  8  2  0
  9  2  1  0
  9 10  2  0
 12 11  1  0
 13 12  1  0
 14 13  1  0
 15 14  1  1
 15 16  1  0
 16  9  1  0
 17 26  1  0
 17 15  1  0
 18 17  2  0
 20 19  1  0
 20 30  2  0
 21 20  1  0
 22 21  2  0
 22 23  1  0
 23 29  2  0
 24 23  1  0
 25 24  1  1
 25 26  1  0
 25 27  1  0
 27 31  1  0
 28 27  2  0
 29 30  1  0
M  END
$$$$
