HMY.pdb
     RDKit          3D

 31 32  0  0  1  0  0  0  0  0999 V2000
    8.6396  -17.4539   18.7438 N   0  0  0  0  0  0  0  0  0  0  0  0
    8.1914  -17.7536   20.0680 C   0  0  1  0  0  0  0  0  0  0  0  0
    8.5998  -19.1621   20.4562 C   0  0  0  0  0  0  0  0  0  0  0  0
    7.8620  -20.1835   19.6998 C   0  0  0  0  0  0  0  0  0  0  0  0
    7.2162  -21.2621   20.2497 C   0  0  0  0  0  0  0  0  0  0  0  0
    6.6682  -21.9539   19.2575 N   0  0  0  0  0  0  0  0  0  0  0  0
    6.9675  -21.3178   18.1120 C   0  0  0  0  0  0  0  0  0  0  0  0
    7.7040  -20.2238   18.3731 N   0  0  0  0  0  0  0  0  0  0  0  0
    8.6707  -16.8201   21.0896 C   0  0  0  0  0  0  0  0  0  0  0  0
    9.8870  -16.5272   21.1878 O   0  0  0  0  0  0  0  0  0  0  0  0
    7.4316  -11.7305   27.2252 C   0  0  0  0  0  0  0  0  0  0  0  0
    6.7048  -13.0140   26.2013 S   0  0  0  0  0  0  0  0  0  0  0  0
    7.8354  -13.6224   24.9851 C   0  0  0  0  0  0  0  0  0  0  0  0
    7.4607  -14.6411   24.0127 C   0  0  0  0  0  0  0  0  0  0  0  0
    8.3029  -15.2420   23.0014 C   0  0  2  0  0  0  0  0  0  0  0  0
    7.7827  -16.1717   22.0543 N   0  0  0  0  0  0  0  0  0  0  0  0
    9.4687  -15.9197   23.6983 C   0  0  0  0  0  0  0  0  0  0  0  0
    9.4117  -17.1418   23.9889 O   0  0  0  0  0  0  0  0  0  0  0  0
    9.8660  -14.3096   30.7462 O   0  0  0  0  0  0  0  0  0  0  0  0
   10.1845  -14.8976   29.5265 C   0  0  0  0  0  0  0  0  0  0  0  0
   11.0474  -14.3185   28.6168 C   0  0  0  0  0  0  0  0  0  0  0  0
   11.3494  -14.9242   27.4073 C   0  0  0  0  0  0  0  0  0  0  0  0
   10.7763  -16.1452   27.0893 C   0  0  0  0  0  0  0  0  0  0  0  0
   11.0705  -16.8149   25.8190 C   0  0  0  0  0  0  0  0  0  0  0  0
   11.7292  -15.9260   24.7897 C   0  0  2  0  0  0  0  0  0  0  0  0
   10.6528  -15.2417   24.0521 N   0  0  0  0  0  0  0  0  0  0  0  0
   12.6157  -16.6548   23.8591 C   0  0  0  0  0  0  0  0  0  0  0  0
   13.5897  -16.0696   23.3301 O   0  0  0  0  0  0  0  0  0  0  0  0
    9.9171  -16.7020   28.0170 C   0  0  0  0  0  0  0  0  0  0  0  0
    9.6085  -16.1113   29.2221 C   0  0  0  0  0  0  0  0  0  0  0  0
   12.4056  -17.9887   23.5431 O   0  0  0  0  0  0  0  0  0  0  0  0
  2  1  1  6
  2  3  1  0
  3  4  1  0
  4  8  1  0
  5  6  1  0
  5  4  2  0
  6  7  1  0
  7  8  2  0
  9  2  1  0
  9 10  2  0
 12 11  1  0
 13 12  1  0
 14 13  1  0
 15 14  1  1
 15 16  1  0
 16  9  1  0
 17 26  1  0
 17 15  1  0
 18 17  2  0
 20 19  1  0
 20 30  2  0
 21 20  1  0
 22 21  2  0
 22 23  1  0
 23 29  2  0
 24 23  1  0
 25 24  1  1
 25 26  1  0
 25 27  1  0
 27 31  1  0
 28 27  2  0
 29 30  1  0
M  END
$$$$
