HMY.pdb
     RDKit          3D

 31 32  0  0  1  0  0  0  0  0999 V2000
    7.3806  -17.7421   19.3799 N   0  0  0  0  0  0  0  0  0  0  0  0
    8.2225  -18.1320   20.4678 C   0  0  1  0  0  0  0  0  0  0  0  0
    9.0743  -19.3238   20.0738 C   0  0  0  0  0  0  0  0  0  0  0  0
    8.7650  -19.8052   18.7201 C   0  0  0  0  0  0  0  0  0  0  0  0
    9.5948  -19.6952   17.6328 C   0  0  0  0  0  0  0  0  0  0  0  0
    8.9742  -20.2419   16.5939 N   0  0  0  0  0  0  0  0  0  0  0  0
    7.7810  -20.6838   17.0267 C   0  0  0  0  0  0  0  0  0  0  0  0
    7.6413  -20.4195   18.3374 N   0  0  0  0  0  0  0  0  0  0  0  0
    9.0956  -17.0655   20.9630 C   0  0  0  0  0  0  0  0  0  0  0  0
    9.3489  -16.0526   20.2669 O   0  0  0  0  0  0  0  0  0  0  0  0
    6.8282  -12.1946   26.0392 C   0  0  0  0  0  0  0  0  0  0  0  0
    6.7154  -13.5918   24.9170 S   0  0  0  0  0  0  0  0  0  0  0  0
    8.3064  -14.1984   24.4392 C   0  0  0  0  0  0  0  0  0  0  0  0
    8.4703  -15.3496   23.5607 C   0  0  0  0  0  0  0  0  0  0  0  0
    9.7112  -15.9489   23.1205 C   0  0  2  0  0  0  0  0  0  0  0  0
    9.7261  -17.1018   22.2824 N   0  0  0  0  0  0  0  0  0  0  0  0
   10.5390  -16.2793   24.3492 C   0  0  0  0  0  0  0  0  0  0  0  0
   10.0221  -16.8939   25.3169 O   0  0  0  0  0  0  0  0  0  0  0  0
   10.0010  -22.6771   25.2221 O   0  0  0  0  0  0  0  0  0  0  0  0
   10.6755  -21.5144   24.8644 C   0  0  0  0  0  0  0  0  0  0  0  0
   10.8807  -20.4661   25.7398 C   0  0  0  0  0  0  0  0  0  0  0  0
   11.5562  -19.3172   25.3597 C   0  0  0  0  0  0  0  0  0  0  0  0
   12.0445  -19.2039   24.0677 C   0  0  0  0  0  0  0  0  0  0  0  0
   12.7622  -18.0034   23.6291 C   0  0  0  0  0  0  0  0  0  0  0  0
   12.9299  -16.9559   24.7052 C   0  0  2  0  0  0  0  0  0  0  0  0
   11.8982  -15.9288   24.4780 N   0  0  0  0  0  0  0  0  0  0  0  0
   14.2750  -16.3451   24.7316 C   0  0  0  0  0  0  0  0  0  0  0  0
   14.5212  -15.3355   24.0308 O   0  0  0  0  0  0  0  0  0  0  0  0
   11.8254  -20.2670   23.2128 C   0  0  0  0  0  0  0  0  0  0  0  0
   11.1562  -21.4140   23.5773 C   0  0  0  0  0  0  0  0  0  0  0  0
   15.2953  -16.8578   25.5186 O   0  0  0  0  0  0  0  0  0  0  0  0
  2  1  1  6
  2  3  1  0
  3  4  1  0
  4  8  1  0
  5  6  1  0
  5  4  2  0
  6  7  1  0
  7  8  2  0
  9  2  1  0
  9 10  2  0
 12 11  1  0
 13 12  1  0
 14 13  1  0
 15 14  1  1
 15 16  1  0
 16  9  1  0
 17 26  1  0
 17 15  1  0
 18 17  2  0
 20 19  1  0
 20 30  2  0
 21 20  1  0
 22 21  2  0
 22 23  1  0
 23 29  2  0
 24 23  1  0
 25 24  1  6
 25 26  1  0
 25 27  1  0
 27 31  1  0
 28 27  2  0
 29 30  1  0
M  END
$$$$
