HMY.pdb
     RDKit          3D

 31 32  0  0  1  0  0  0  0  0999 V2000
    8.9907  -16.9911   20.7511 N   0  0  0  0  0  0  0  0  0  0  0  0
    8.5905  -15.6218   20.6549 C   0  0  1  0  0  0  0  0  0  0  0  0
    7.3363  -15.4976   19.8106 C   0  0  0  0  0  0  0  0  0  0  0  0
    7.5333  -16.0026   18.4445 C   0  0  0  0  0  0  0  0  0  0  0  0
    8.6778  -15.8513   17.7029 C   0  0  0  0  0  0  0  0  0  0  0  0
    8.4785  -16.4375   16.5281 N   0  0  0  0  0  0  0  0  0  0  0  0
    7.2336  -16.9438   16.5388 C   0  0  0  0  0  0  0  0  0  0  0  0
    6.6410  -16.6812   17.7166 N   0  0  0  0  0  0  0  0  0  0  0  0
    8.3612  -14.9714   21.9469 C   0  0  0  0  0  0  0  0  0  0  0  0
    7.5449  -14.0258   22.0665 O   0  0  0  0  0  0  0  0  0  0  0  0
    6.1525  -11.4806   26.6140 C   0  0  0  0  0  0  0  0  0  0  0  0
    7.2534  -12.8621   26.9360 S   0  0  0  0  0  0  0  0  0  0  0  0
    6.7361  -14.3385   26.1112 C   0  0  0  0  0  0  0  0  0  0  0  0
    7.2716  -14.7362   24.8156 C   0  0  0  0  0  0  0  0  0  0  0  0
    8.6632  -14.8261   24.4305 C   0  0  2  0  0  0  0  0  0  0  0  0
    9.0548  -15.3688   23.1719 N   0  0  0  0  0  0  0  0  0  0  0  0
    9.4012  -15.6071   25.5026 C   0  0  0  0  0  0  0  0  0  0  0  0
    9.8300  -15.0246   26.5312 O   0  0  0  0  0  0  0  0  0  0  0  0
    6.2715  -20.8342   28.9630 O   0  0  0  0  0  0  0  0  0  0  0  0
    7.3833  -20.3967   28.2507 C   0  0  0  0  0  0  0  0  0  0  0  0
    8.5497  -19.9798   28.8616 C   0  0  0  0  0  0  0  0  0  0  0  0
    9.6447  -19.5480   28.1298 C   0  0  0  0  0  0  0  0  0  0  0  0
    9.5807  -19.5289   26.7457 C   0  0  0  0  0  0  0  0  0  0  0  0
   10.7179  -19.0770   25.9386 C   0  0  0  0  0  0  0  0  0  0  0  0
   10.9013  -17.5773   25.9140 C   0  0  2  0  0  0  0  0  0  0  0  0
    9.6442  -16.9928   25.4149 N   0  0  0  0  0  0  0  0  0  0  0  0
   12.0444  -17.1346   25.0892 C   0  0  0  0  0  0  0  0  0  0  0  0
   13.0955  -16.7279   25.6378 O   0  0  0  0  0  0  0  0  0  0  0  0
    8.4025  -19.9510   26.1605 C   0  0  0  0  0  0  0  0  0  0  0  0
    7.3073  -20.3825   26.8753 C   0  0  0  0  0  0  0  0  0  0  0  0
   11.9963  -17.1527   23.7034 O   0  0  0  0  0  0  0  0  0  0  0  0
  2  1  1  1
  2  3  1  0
  3  4  1  0
  4  8  1  0
  5  6  1  0
  5  4  2  0
  6  7  1  0
  7  8  2  0
  9  2  1  0
  9 10  2  0
 12 11  1  0
 13 12  1  0
 14 13  1  0
 15 14  1  1
 15 16  1  0
 16  9  1  0
 17 26  1  0
 17 15  1  0
 18 17  2  0
 20 19  1  0
 20 30  2  0
 21 20  1  0
 22 21  2  0
 22 23  1  0
 23 29  2  0
 24 23  1  0
 25 24  1  6
 25 26  1  0
 25 27  1  0
 27 31  1  0
 28 27  2  0
 29 30  1  0
M  END
$$$$
