HMY.pdb
     RDKit          3D

 31 32  0  0  1  0  0  0  0  0999 V2000
   10.7895  -16.2943   20.7307 N   0  0  0  0  0  0  0  0  0  0  0  0
    9.6365  -16.5447   21.5383 C   0  0  1  0  0  0  0  0  0  0  0  0
    9.5725  -18.0102   21.9251 C   0  0  0  0  0  0  0  0  0  0  0  0
    8.9904  -18.8411   20.8618 C   0  0  0  0  0  0  0  0  0  0  0  0
    9.4047  -18.8562   19.5538 C   0  0  0  0  0  0  0  0  0  0  0  0
    8.6448  -19.7264   18.8992 N   0  0  0  0  0  0  0  0  0  0  0  0
    7.7742  -20.2430   19.7833 C   0  0  0  0  0  0  0  0  0  0  0  0
    7.9784  -19.7037   20.9977 N   0  0  0  0  0  0  0  0  0  0  0  0
    9.5651  -15.7282   22.7520 C   0  0  0  0  0  0  0  0  0  0  0  0
   10.5965  -15.2339   23.2684 O   0  0  0  0  0  0  0  0  0  0  0  0
    5.7921  -10.5006   26.6303 C   0  0  0  0  0  0  0  0  0  0  0  0
    5.5422  -12.2770   26.7096 S   0  0  0  0  0  0  0  0  0  0  0  0
    7.0142  -13.1792   26.3267 C   0  0  0  0  0  0  0  0  0  0  0  0
    7.1827  -13.8996   25.0711 C   0  0  0  0  0  0  0  0  0  0  0  0
    8.3112  -14.7103   24.6683 C   0  0  2  0  0  0  0  0  0  0  0  0
    8.3084  -15.4341   23.4402 N   0  0  0  0  0  0  0  0  0  0  0  0
    8.5946  -15.7098   25.7750 C   0  0  0  0  0  0  0  0  0  0  0  0
    8.2037  -15.4855   26.9490 O   0  0  0  0  0  0  0  0  0  0  0  0
    5.2995  -21.1975   22.9905 O   0  0  0  0  0  0  0  0  0  0  0  0
    5.9508  -20.4670   23.9790 C   0  0  0  0  0  0  0  0  0  0  0  0
    5.5978  -19.1740   24.3122 C   0  0  0  0  0  0  0  0  0  0  0  0
    6.2622  -18.4662   25.3013 C   0  0  0  0  0  0  0  0  0  0  0  0
    7.3122  -19.0607   25.9829 C   0  0  0  0  0  0  0  0  0  0  0  0
    8.0395  -18.3427   27.0337 C   0  0  0  0  0  0  0  0  0  0  0  0
    9.4330  -17.9129   26.6377 C   0  0  2  0  0  0  0  0  0  0  0  0
    9.2923  -16.9159   25.5620 N   0  0  0  0  0  0  0  0  0  0  0  0
   10.2952  -19.0307   26.2015 C   0  0  0  0  0  0  0  0  0  0  0  0
   10.5687  -19.9610   26.9957 O   0  0  0  0  0  0  0  0  0  0  0  0
    7.6444  -20.3544   25.6297 C   0  0  0  0  0  0  0  0  0  0  0  0
    6.9928  -21.0690   24.6493 C   0  0  0  0  0  0  0  0  0  0  0  0
   10.8235  -19.0895   24.9207 O   0  0  0  0  0  0  0  0  0  0  0  0
  2  1  1  1
  2  3  1  0
  3  4  1  0
  4  8  1  0
  5  6  1  0
  5  4  2  0
  6  7  1  0
  7  8  2  0
  9  2  1  0
  9 10  2  0
 12 11  1  0
 13 12  1  0
 14 13  1  0
 15 14  1  1
 15 16  1  0
 16  9  1  0
 17 26  1  0
 17 15  1  0
 18 17  2  0
 20 19  1  0
 20 30  2  0
 21 20  1  0
 22 21  2  0
 22 23  1  0
 23 29  2  0
 24 23  1  0
 25 24  1  6
 25 26  1  0
 25 27  1  0
 27 31  1  0
 28 27  2  0
 29 30  1  0
M  END
$$$$
