HMY.pdb
     RDKit          3D

 31 32  0  0  1  0  0  0  0  0999 V2000
    9.6563  -18.2482   19.1874 N   0  0  0  0  0  0  0  0  0  0  0  0
   10.7769  -17.8647   19.9883 C   0  0  1  0  0  0  0  0  0  0  0  0
   11.9364  -17.4444   19.1050 C   0  0  0  0  0  0  0  0  0  0  0  0
   12.4733  -18.5656   18.3211 C   0  0  0  0  0  0  0  0  0  0  0  0
   13.2464  -19.5824   18.8223 C   0  0  0  0  0  0  0  0  0  0  0  0
   13.5364  -20.4020   17.8186 N   0  0  0  0  0  0  0  0  0  0  0  0
   12.9546  -19.9045   16.7138 C   0  0  0  0  0  0  0  0  0  0  0  0
   12.2959  -18.7713   17.0123 N   0  0  0  0  0  0  0  0  0  0  0  0
   10.4927  -16.7918   20.9437 C   0  0  0  0  0  0  0  0  0  0  0  0
   10.2559  -15.6208   20.5596 O   0  0  0  0  0  0  0  0  0  0  0  0
    6.8549  -12.0731   25.0546 C   0  0  0  0  0  0  0  0  0  0  0  0
    7.2503  -13.0597   23.6073 S   0  0  0  0  0  0  0  0  0  0  0  0
    7.8359  -14.6728   24.0347 C   0  0  0  0  0  0  0  0  0  0  0  0
    8.5857  -15.5029   23.1006 C   0  0  0  0  0  0  0  0  0  0  0  0
    9.9357  -15.9992   23.2550 C   0  0  2  0  0  0  0  0  0  0  0  0
   10.4646  -17.0020   22.3909 N   0  0  0  0  0  0  0  0  0  0  0  0
   10.0935  -16.5065   24.6769 C   0  0  0  0  0  0  0  0  0  0  0  0
    9.4809  -17.5375   25.0553 O   0  0  0  0  0  0  0  0  0  0  0  0
    7.1135  -11.4308   27.5767 O   0  0  0  0  0  0  0  0  0  0  0  0
    7.7202  -12.6825   27.5778 C   0  0  0  0  0  0  0  0  0  0  0  0
    7.0528  -13.8404   27.2297 C   0  0  0  0  0  0  0  0  0  0  0  0
    7.6794  -15.0766   27.2385 C   0  0  0  0  0  0  0  0  0  0  0  0
    9.0127  -15.1676   27.6050 C   0  0  0  0  0  0  0  0  0  0  0  0
    9.7082  -16.4577   27.6279 C   0  0  0  0  0  0  0  0  0  0  0  0
   11.0759  -16.4340   26.9858 C   0  0  2  0  0  0  0  0  0  0  0  0
   10.9125  -15.8728   25.6332 N   0  0  0  0  0  0  0  0  0  0  0  0
   11.7234  -17.7607   26.9239 C   0  0  0  0  0  0  0  0  0  0  0  0
   12.6390  -17.9755   26.0953 O   0  0  0  0  0  0  0  0  0  0  0  0
    9.6563  -13.9941   27.9484 C   0  0  0  0  0  0  0  0  0  0  0  0
    9.0460  -12.7597   27.9438 C   0  0  0  0  0  0  0  0  0  0  0  0
   11.3480  -18.7972   27.7652 O   0  0  0  0  0  0  0  0  0  0  0  0
  2  1  1  6
  2  3  1  0
  3  4  1  0
  4  8  1  0
  5  6  1  0
  5  4  2  0
  6  7  1  0
  7  8  2  0
  9  2  1  0
  9 10  2  0
 12 11  1  0
 13 12  1  0
 14 13  1  0
 15 14  1  6
 15 16  1  0
 16  9  1  0
 17 26  1  0
 17 15  1  0
 18 17  2  0
 20 19  1  0
 20 30  2  0
 21 20  1  0
 22 21  2  0
 22 23  1  0
 23 29  2  0
 24 23  1  0
 25 24  1  6
 25 26  1  0
 25 27  1  0
 27 31  1  0
 28 27  2  0
 29 30  1  0
M  END
$$$$
