HMY.pdb
     RDKit          3D

 31 32  0  0  1  0  0  0  0  0999 V2000
   10.0098  -16.2591   18.4704 N   0  0  0  0  0  0  0  0  0  0  0  0
    9.3058  -16.8552   19.5628 C   0  0  1  0  0  0  0  0  0  0  0  0
    9.7461  -18.2946   19.7506 C   0  0  0  0  0  0  0  0  0  0  0  0
    9.3474  -19.1497   18.6238 C   0  0  0  0  0  0  0  0  0  0  0  0
    8.1192  -19.7437   18.4777 C   0  0  0  0  0  0  0  0  0  0  0  0
    8.1358  -20.4324   17.3425 N   0  0  0  0  0  0  0  0  0  0  0  0
    9.3514  -20.2700   16.7928 C   0  0  0  0  0  0  0  0  0  0  0  0
   10.1074  -19.4801   17.5750 N   0  0  0  0  0  0  0  0  0  0  0  0
    9.4546  -16.1420   20.8333 C   0  0  0  0  0  0  0  0  0  0  0  0
   10.5544  -16.1044   21.4365 O   0  0  0  0  0  0  0  0  0  0  0  0
    6.5847  -11.5357   26.8002 C   0  0  0  0  0  0  0  0  0  0  0  0
    6.2054  -12.3329   25.2366 S   0  0  0  0  0  0  0  0  0  0  0  0
    7.5757  -13.2546   24.6039 C   0  0  0  0  0  0  0  0  0  0  0  0
    7.5245  -13.9471   23.3227 C   0  0  0  0  0  0  0  0  0  0  0  0
    8.5521  -14.7755   22.7303 C   0  0  2  0  0  0  0  0  0  0  0  0
    8.3514  -15.4335   21.4819 N   0  0  0  0  0  0  0  0  0  0  0  0
    8.9407  -15.8409   23.7392 C   0  0  0  0  0  0  0  0  0  0  0  0
    9.7169  -16.7741   23.4105 O   0  0  0  0  0  0  0  0  0  0  0  0
   12.8051  -17.5354   31.3615 O   0  0  0  0  0  0  0  0  0  0  0  0
   12.1857  -17.0925   30.1974 C   0  0  0  0  0  0  0  0  0  0  0  0
   12.4407  -17.6415   28.9561 C   0  0  0  0  0  0  0  0  0  0  0  0
   11.8106  -17.1827   27.8100 C   0  0  0  0  0  0  0  0  0  0  0  0
   10.8970  -16.1444   27.8980 C   0  0  0  0  0  0  0  0  0  0  0  0
   10.2124  -15.6316   26.7076 C   0  0  0  0  0  0  0  0  0  0  0  0
    9.1916  -16.5810   26.1247 C   0  0  2  0  0  0  0  0  0  0  0  0
    8.4704  -15.8502   25.0680 N   0  0  0  0  0  0  0  0  0  0  0  0
    8.2453  -17.1186   27.1240 C   0  0  0  0  0  0  0  0  0  0  0  0
    7.1044  -16.6139   27.2450 O   0  0  0  0  0  0  0  0  0  0  0  0
   10.6608  -15.6137   29.1516 C   0  0  0  0  0  0  0  0  0  0  0  0
   11.2795  -16.0599   30.2981 C   0  0  0  0  0  0  0  0  0  0  0  0
    8.5795  -18.1817   27.9493 O   0  0  0  0  0  0  0  0  0  0  0  0
  2  1  1  6
  2  3  1  0
  3  4  1  0
  4  8  1  0
  5  6  1  0
  5  4  2  0
  6  7  1  0
  7  8  2  0
  9  2  1  0
  9 10  2  0
 12 11  1  0
 13 12  1  0
 14 13  1  0
 15 14  1  1
 15 16  1  0
 16  9  1  0
 17 26  1  0
 17 15  1  0
 18 17  2  0
 20 19  1  0
 20 30  2  0
 21 20  1  0
 22 21  2  0
 22 23  1  0
 23 29  2  0
 24 23  1  0
 25 24  1  1
 25 26  1  0
 25 27  1  0
 27 31  1  0
 28 27  2  0
 29 30  1  0
M  END
$$$$
