HMY.pdb
     RDKit          3D

 31 32  0  0  1  0  0  0  0  0999 V2000
    9.7695  -16.1248   19.0546 N   0  0  0  0  0  0  0  0  0  0  0  0
    8.9187  -16.5196   20.1338 C   0  0  1  0  0  0  0  0  0  0  0  0
    9.0324  -18.0129   20.3751 C   0  0  0  0  0  0  0  0  0  0  0  0
    8.5217  -18.7996   19.2436 C   0  0  0  0  0  0  0  0  0  0  0  0
    7.1993  -19.0796   19.0079 C   0  0  0  0  0  0  0  0  0  0  0  0
    7.1317  -19.8079   17.8997 N   0  0  0  0  0  0  0  0  0  0  0  0
    8.3883  -19.9778   17.4542 C   0  0  0  0  0  0  0  0  0  0  0  0
    9.2543  -19.3597   18.2760 N   0  0  0  0  0  0  0  0  0  0  0  0
    9.1765  -15.8131   21.3905 C   0  0  0  0  0  0  0  0  0  0  0  0
   10.3408  -15.4956   21.7345 O   0  0  0  0  0  0  0  0  0  0  0  0
    5.8330  -10.8547   25.3362 C   0  0  0  0  0  0  0  0  0  0  0  0
    6.1318  -12.3968   26.2062 S   0  0  0  0  0  0  0  0  0  0  0  0
    7.4662  -13.3177   25.4999 C   0  0  0  0  0  0  0  0  0  0  0  0
    7.3968  -13.8886   24.1609 C   0  0  0  0  0  0  0  0  0  0  0  0
    8.4149  -14.6592   23.4807 C   0  0  2  0  0  0  0  0  0  0  0  0
    8.1144  -15.4323   22.3214 N   0  0  0  0  0  0  0  0  0  0  0  0
    9.0516  -15.5971   24.4902 C   0  0  0  0  0  0  0  0  0  0  0  0
    8.7279  -16.8118   24.5211 O   0  0  0  0  0  0  0  0  0  0  0  0
   13.1835  -18.1760   31.9340 O   0  0  0  0  0  0  0  0  0  0  0  0
   12.7447  -17.4801   30.8123 C   0  0  0  0  0  0  0  0  0  0  0  0
   13.3052  -17.6438   29.5608 C   0  0  0  0  0  0  0  0  0  0  0  0
   12.8504  -16.9386   28.4577 C   0  0  0  0  0  0  0  0  0  0  0  0
   11.8047  -16.0406   28.6008 C   0  0  0  0  0  0  0  0  0  0  0  0
   11.2981  -15.2757   27.4575 C   0  0  0  0  0  0  0  0  0  0  0  0
   10.5411  -16.1046   26.4460 C   0  0  2  0  0  0  0  0  0  0  0  0
   10.0171  -15.1775   25.4276 N   0  0  0  0  0  0  0  0  0  0  0  0
    9.4462  -16.9026   27.0356 C   0  0  0  0  0  0  0  0  0  0  0  0
    9.5828  -18.1387   27.1920 O   0  0  0  0  0  0  0  0  0  0  0  0
   11.2625  -15.8963   29.8634 C   0  0  0  0  0  0  0  0  0  0  0  0
   11.7045  -16.5905   30.9675 C   0  0  0  0  0  0  0  0  0  0  0  0
    8.2497  -16.3230   27.4299 O   0  0  0  0  0  0  0  0  0  0  0  0
  2  1  1  6
  2  3  1  0
  3  4  1  0
  4  8  1  0
  5  6  1  0
  5  4  2  0
  6  7  1  0
  7  8  2  0
  9  2  1  0
  9 10  2  0
 12 11  1  0
 13 12  1  0
 14 13  1  0
 15 14  1  1
 15 16  1  0
 16  9  1  0
 17 26  1  0
 17 15  1  0
 18 17  2  0
 20 19  1  0
 20 30  2  0
 21 20  1  0
 22 21  2  0
 22 23  1  0
 23 29  2  0
 24 23  1  0
 25 24  1  1
 25 26  1  0
 25 27  1  0
 27 31  1  0
 28 27  2  0
 29 30  1  0
M  END
$$$$
