HMY.pdb
     RDKit          3D

 31 32  0  0  1  0  0  0  0  0999 V2000
    9.2024  -17.4608   19.8400 N   0  0  0  0  0  0  0  0  0  0  0  0
    8.7078  -16.1309   19.6641 C   0  0  1  0  0  0  0  0  0  0  0  0
    7.3755  -16.1559   18.9391 C   0  0  0  0  0  0  0  0  0  0  0  0
    7.4861  -16.7336   17.5923 C   0  0  0  0  0  0  0  0  0  0  0  0
    8.6277  -17.2721   17.0540 C   0  0  0  0  0  0  0  0  0  0  0  0
    8.3381  -17.6896   15.8272 N   0  0  0  0  0  0  0  0  0  0  0  0
    7.0408  -17.4160   15.6064 C   0  0  0  0  0  0  0  0  0  0  0  0
    6.5051  -16.8259   16.6890 N   0  0  0  0  0  0  0  0  0  0  0  0
    8.5576  -15.3768   20.9106 C   0  0  0  0  0  0  0  0  0  0  0  0
    8.0101  -14.2478   20.9291 O   0  0  0  0  0  0  0  0  0  0  0  0
    6.7710  -11.8733   26.9291 C   0  0  0  0  0  0  0  0  0  0  0  0
    7.3822  -12.4018   25.3256 S   0  0  0  0  0  0  0  0  0  0  0  0
    6.9736  -14.0861   24.9739 C   0  0  0  0  0  0  0  0  0  0  0  0
    7.4071  -14.7552   23.7540 C   0  0  0  0  0  0  0  0  0  0  0  0
    8.7533  -15.1479   23.3985 C   0  0  2  0  0  0  0  0  0  0  0  0
    9.0266  -15.8751   22.2033 N   0  0  0  0  0  0  0  0  0  0  0  0
    9.3323  -15.9486   24.5507 C   0  0  0  0  0  0  0  0  0  0  0  0
    9.1400  -15.5830   25.7384 O   0  0  0  0  0  0  0  0  0  0  0  0
   10.1646  -13.1713   29.9840 O   0  0  0  0  0  0  0  0  0  0  0  0
   10.1926  -14.2859   29.1522 C   0  0  0  0  0  0  0  0  0  0  0  0
    9.1997  -14.5613   28.2327 C   0  0  0  0  0  0  0  0  0  0  0  0
    9.2500  -15.6790   27.4146 C   0  0  0  0  0  0  0  0  0  0  0  0
   10.3210  -16.5529   27.5119 C   0  0  0  0  0  0  0  0  0  0  0  0
   10.4076  -17.7460   26.6647 C   0  0  0  0  0  0  0  0  0  0  0  0
   11.1186  -17.5205   25.3505 C   0  0  2  0  0  0  0  0  0  0  0  0
   10.0984  -17.1175   24.3667 N   0  0  0  0  0  0  0  0  0  0  0  0
   11.8650  -18.7022   24.8714 C   0  0  0  0  0  0  0  0  0  0  0  0
   11.5566  -19.2421   23.7831 O   0  0  0  0  0  0  0  0  0  0  0  0
   11.3000  -16.2536   28.4397 C   0  0  0  0  0  0  0  0  0  0  0  0
   11.2626  -15.1470   29.2584 C   0  0  0  0  0  0  0  0  0  0  0  0
   12.9148  -19.2467   25.5957 O   0  0  0  0  0  0  0  0  0  0  0  0
  2  1  1  1
  2  3  1  0
  3  4  1  0
  4  8  1  0
  5  6  1  0
  5  4  2  0
  6  7  1  0
  7  8  2  0
  9  2  1  0
  9 10  2  0
 12 11  1  0
 13 12  1  0
 14 13  1  0
 15 14  1  1
 15 16  1  0
 16  9  1  0
 17 26  1  0
 17 15  1  0
 18 17  2  0
 20 19  1  0
 20 30  2  0
 21 20  1  0
 22 21  2  0
 22 23  1  0
 23 29  2  0
 24 23  1  0
 25 24  1  1
 25 26  1  0
 25 27  1  0
 27 31  1  0
 28 27  2  0
 29 30  1  0
M  END
$$$$
