HMY.pdb
     RDKit          3D

 31 32  0  0  1  0  0  0  0  0999 V2000
    8.2600  -15.7769   19.1922 N   0  0  0  0  0  0  0  0  0  0  0  0
    8.6602  -14.4110   19.3284 C   0  0  1  0  0  0  0  0  0  0  0  0
    7.7259  -13.5079   18.5456 C   0  0  0  0  0  0  0  0  0  0  0  0
    7.6145  -13.9103   17.1366 C   0  0  0  0  0  0  0  0  0  0  0  0
    8.3890  -13.4266   16.1123 C   0  0  0  0  0  0  0  0  0  0  0  0
    7.9966  -14.0229   14.9926 N   0  0  0  0  0  0  0  0  0  0  0  0
    6.9969  -14.8618   15.3142 C   0  0  0  0  0  0  0  0  0  0  0  0
    6.7527  -14.8004   16.6347 N   0  0  0  0  0  0  0  0  0  0  0  0
    8.7277  -13.9406   20.7136 C   0  0  0  0  0  0  0  0  0  0  0  0
    9.2293  -12.8270   21.0017 O   0  0  0  0  0  0  0  0  0  0  0  0
    7.3580  -11.5527   26.4651 C   0  0  0  0  0  0  0  0  0  0  0  0
    6.1484  -12.6245   25.6828 S   0  0  0  0  0  0  0  0  0  0  0  0
    6.8079  -13.4631   24.2723 C   0  0  0  0  0  0  0  0  0  0  0  0
    8.1736  -13.9703   24.2349 C   0  0  0  0  0  0  0  0  0  0  0  0
    8.8412  -14.6144   23.1248 C   0  0  2  0  0  0  0  0  0  0  0  0
    8.2245  -14.7207   21.8441 N   0  0  0  0  0  0  0  0  0  0  0  0
    9.2243  -16.0191   23.5538 C   0  0  0  0  0  0  0  0  0  0  0  0
   10.1840  -16.6132   22.9994 O   0  0  0  0  0  0  0  0  0  0  0  0
   11.7203  -15.9259   31.6968 O   0  0  0  0  0  0  0  0  0  0  0  0
   11.2094  -15.8974   30.4033 C   0  0  0  0  0  0  0  0  0  0  0  0
   11.3462  -16.9493   29.5190 C   0  0  0  0  0  0  0  0  0  0  0  0
   10.8281  -16.8972   28.2346 C   0  0  0  0  0  0  0  0  0  0  0  0
   10.1516  -15.7636   27.8130 C   0  0  0  0  0  0  0  0  0  0  0  0
    9.5916  -15.6715   26.4615 C   0  0  0  0  0  0  0  0  0  0  0  0
    9.1985  -17.0023   25.8633 C   0  0  2  0  0  0  0  0  0  0  0  0
    8.5488  -16.7240   24.5705 N   0  0  0  0  0  0  0  0  0  0  0  0
    8.3088  -17.8013   26.7313 C   0  0  0  0  0  0  0  0  0  0  0  0
    7.0978  -17.4971   26.8406 O   0  0  0  0  0  0  0  0  0  0  0  0
   10.0292  -14.7264   28.7175 C   0  0  0  0  0  0  0  0  0  0  0  0
   10.5389  -14.7650   29.9962 C   0  0  0  0  0  0  0  0  0  0  0  0
    8.7735  -18.8967   27.4434 O   0  0  0  0  0  0  0  0  0  0  0  0
  2  1  1  1
  2  3  1  0
  3  4  1  0
  4  8  1  0
  5  6  1  0
  5  4  2  0
  6  7  1  0
  7  8  2  0
  9  2  1  0
  9 10  2  0
 12 11  1  0
 13 12  1  0
 14 13  1  0
 15 14  1  1
 15 16  1  0
 16  9  1  0
 17 26  1  0
 17 15  1  0
 18 17  2  0
 20 19  1  0
 20 30  2  0
 21 20  1  0
 22 21  2  0
 22 23  1  0
 23 29  2  0
 24 23  1  0
 25 24  1  1
 25 26  1  0
 25 27  1  0
 27 31  1  0
 28 27  2  0
 29 30  1  0
M  END
$$$$
