HMY.pdb
     RDKit          3D

 31 32  0  0  1  0  0  0  0  0999 V2000
    9.7857  -16.3620   18.1331 N   0  0  0  0  0  0  0  0  0  0  0  0
    9.6488  -17.1424   19.3233 C   0  0  1  0  0  0  0  0  0  0  0  0
   10.6142  -18.3123   19.3002 C   0  0  0  0  0  0  0  0  0  0  0  0
   10.2579  -19.3071   18.2788 C   0  0  0  0  0  0  0  0  0  0  0  0
    8.9811  -19.7102   17.9788 C   0  0  0  0  0  0  0  0  0  0  0  0
    9.0599  -20.6142   17.0093 N   0  0  0  0  0  0  0  0  0  0  0  0
   10.3612  -20.7705   16.7117 C   0  0  0  0  0  0  0  0  0  0  0  0
   11.1097  -19.9688   17.4891 N   0  0  0  0  0  0  0  0  0  0  0  0
    9.8458  -16.3868   20.5623 C   0  0  0  0  0  0  0  0  0  0  0  0
   10.8772  -15.6970   20.7498 O   0  0  0  0  0  0  0  0  0  0  0  0
    7.0828  -12.0923   26.5955 C   0  0  0  0  0  0  0  0  0  0  0  0
    6.6540  -13.4546   25.5071 S   0  0  0  0  0  0  0  0  0  0  0  0
    8.0788  -14.1952   24.7661 C   0  0  0  0  0  0  0  0  0  0  0  0
    8.0048  -14.9614   23.5287 C   0  0  0  0  0  0  0  0  0  0  0  0
    9.0974  -15.5874   22.8165 C   0  0  2  0  0  0  0  0  0  0  0  0
    8.8721  -16.3806   21.6538 N   0  0  0  0  0  0  0  0  0  0  0  0
    9.8726  -16.4459   23.7994 C   0  0  0  0  0  0  0  0  0  0  0  0
    9.7325  -17.6956   23.7993 O   0  0  0  0  0  0  0  0  0  0  0  0
    9.7736  -14.0015   30.9890 O   0  0  0  0  0  0  0  0  0  0  0  0
   10.4535  -14.4978   29.8816 C   0  0  0  0  0  0  0  0  0  0  0  0
   11.1042  -15.7160   29.8843 C   0  0  0  0  0  0  0  0  0  0  0  0
   11.7752  -16.1892   28.7678 C   0  0  0  0  0  0  0  0  0  0  0  0
   11.8020  -15.4287   27.6096 C   0  0  0  0  0  0  0  0  0  0  0  0
   12.5030  -15.8956   26.4099 C   0  0  0  0  0  0  0  0  0  0  0  0
   11.6720  -16.7867   25.5161 C   0  0  2  0  0  0  0  0  0  0  0  0
   10.7713  -15.9120   24.7450 N   0  0  0  0  0  0  0  0  0  0  0  0
   10.9000  -17.8087   26.2527 C   0  0  0  0  0  0  0  0  0  0  0  0
   11.4881  -18.7813   26.7811 O   0  0  0  0  0  0  0  0  0  0  0  0
   11.1432  -14.2145   27.6344 C   0  0  0  0  0  0  0  0  0  0  0  0
   10.4728  -13.7324   28.7364 C   0  0  0  0  0  0  0  0  0  0  0  0
    9.5217  -17.7300   26.3834 O   0  0  0  0  0  0  0  0  0  0  0  0
  2  1  1  6
  2  3  1  0
  3  4  1  0
  4  8  1  0
  5  6  1  0
  5  4  2  0
  6  7  1  0
  7  8  2  0
  9  2  1  0
  9 10  2  0
 12 11  1  0
 13 12  1  0
 14 13  1  0
 15 14  1  1
 15 16  1  0
 16  9  1  0
 17 26  1  0
 17 15  1  0
 18 17  2  0
 20 19  1  0
 20 30  2  0
 21 20  1  0
 22 21  2  0
 22 23  1  0
 23 29  2  0
 24 23  1  0
 25 24  1  1
 25 26  1  0
 25 27  1  0
 27 31  1  0
 28 27  2  0
 29 30  1  0
M  END
$$$$
