THA.pdb
     RDKit          3D

 23 23  0  0  1  0  0  0  0  0999 V2000
   21.9758   -5.7423  -20.9479 C   0  0  0  0  0  0  0  0  0  0  0  0
   21.0886   -6.9437  -21.0942 C   0  0  1  0  0  0  0  0  0  0  0  0
   21.2324   -7.5397  -22.3232 O   0  0  0  0  0  0  0  0  0  0  0  0
   21.3828   -7.9388  -19.9884 C   0  0  2  0  0  0  0  0  0  0  0  0
   20.5390   -9.0894  -20.2016 N   0  0  0  0  0  0  0  0  0  0  0  0
   21.1379   -7.3763  -18.6436 C   0  0  0  0  0  0  0  0  0  0  0  0
   19.9855   -7.1929  -18.1838 O   0  0  0  0  0  0  0  0  0  0  0  0
   22.2284   -7.0161  -17.8090 N   0  0  0  0  0  0  0  0  0  0  0  0
   22.1155   -6.3215  -16.5725 C   0  0  1  0  0  0  0  0  0  0  0  0
   23.0126   -6.9333  -15.5469 C   0  0  0  0  0  0  0  0  0  0  0  0
   22.4703   -8.2029  -15.0079 C   0  0  0  0  0  0  0  0  0  0  0  0
   21.2456   -8.7538  -15.2785 C   0  0  0  0  0  0  0  0  0  0  0  0
   21.1780   -9.8990  -14.5802 N   0  0  0  0  0  0  0  0  0  0  0  0
   22.3109  -10.0877  -13.8831 C   0  0  0  0  0  0  0  0  0  0  0  0
   23.1020   -9.0348  -14.1543 N   0  0  0  0  0  0  0  0  0  0  0  0
   22.2786   -4.8580  -16.6920 C   0  0  0  0  0  0  0  0  0  0  0  0
   23.3261   -4.4022  -17.2161 O   0  0  0  0  0  0  0  0  0  0  0  0
   21.6171   -2.2345  -17.8426 C   0  0  0  0  0  0  0  0  0  0  0  0
   21.3886   -2.5188  -16.3663 C   0  0  2  0  0  0  0  0  0  0  0  0
   21.2915   -3.9600  -16.2340 N   0  0  0  0  0  0  0  0  0  0  0  0
   20.1578   -1.8416  -15.8822 C   0  0  0  0  0  0  0  0  0  0  0  0
   20.2461   -0.4751  -15.6478 O   0  0  0  0  0  0  0  0  0  0  0  0
   19.0995   -2.4827  -15.6987 O   0  0  0  0  0  0  0  0  0  0  0  0
  2  1  1  6
  2  4  1  0
  3  2  1  0
  4  5  1  6
  6  8  1  0
  6  4  1  0
  7  6  2  0
  9  8  1  0
  9 16  1  0
  9 10  1  1
 11 10  1  0
 11 15  1  0
 12 11  2  0
 13 12  1  0
 13 14  1  0
 14 15  2  0
 16 20  1  0
 17 16  2  0
 19 21  1  0
 19 18  1  6
 20 19  1  0
 21 22  1  0
 23 21  2  0
M  END
$$$$
