THA.pdb
     RDKit          3D

 23 23  0  0  1  0  0  0  0  0999 V2000
   22.2312  -10.7570  -21.7261 C   0  0  0  0  0  0  0  0  0  0  0  0
   21.4791  -10.0493  -20.6374 C   0  0  1  0  0  0  0  0  0  0  0  0
   20.6405  -10.8993  -19.9586 O   0  0  0  0  0  0  0  0  0  0  0  0
   22.4550   -9.3951  -19.6787 C   0  0  2  0  0  0  0  0  0  0  0  0
   23.2873  -10.4358  -19.1263 N   0  0  0  0  0  0  0  0  0  0  0  0
   21.7722   -8.6645  -18.5901 C   0  0  0  0  0  0  0  0  0  0  0  0
   20.9865   -7.7100  -18.8015 O   0  0  0  0  0  0  0  0  0  0  0  0
   21.9909   -9.0299  -17.2359 N   0  0  0  0  0  0  0  0  0  0  0  0
   21.2735   -8.5083  -16.1235 C   0  0  1  0  0  0  0  0  0  0  0  0
   20.9407   -9.5996  -15.1595 C   0  0  0  0  0  0  0  0  0  0  0  0
   19.6530  -10.2607  -15.4780 C   0  0  0  0  0  0  0  0  0  0  0  0
   18.7646   -9.9008  -16.4566 C   0  0  0  0  0  0  0  0  0  0  0  0
   17.7453  -10.7727  -16.3880 N   0  0  0  0  0  0  0  0  0  0  0  0
   17.9595  -11.6641  -15.4059 C   0  0  0  0  0  0  0  0  0  0  0  0
   19.1400  -11.3391  -14.8504 N   0  0  0  0  0  0  0  0  0  0  0  0
   21.9229   -7.3446  -15.4859 C   0  0  0  0  0  0  0  0  0  0  0  0
   23.0882   -7.4698  -15.0319 O   0  0  0  0  0  0  0  0  0  0  0  0
   20.9767   -3.7532  -15.0834 C   0  0  0  0  0  0  0  0  0  0  0  0
   21.8478   -4.9433  -14.7126 C   0  0  2  0  0  0  0  0  0  0  0  0
   21.2709   -6.0985  -15.3732 N   0  0  0  0  0  0  0  0  0  0  0  0
   21.8955   -5.1241  -13.2385 C   0  0  0  0  0  0  0  0  0  0  0  0
   22.9030   -4.4525  -12.5575 O   0  0  0  0  0  0  0  0  0  0  0  0
   21.0623   -5.8491  -12.6511 O   0  0  0  0  0  0  0  0  0  0  0  0
  2  1  1  6
  2  4  1  0
  3  2  1  0
  4  5  1  1
  6  8  1  0
  6  4  1  0
  7  6  2  0
  9  8  1  0
  9 16  1  0
  9 10  1  1
 11 10  1  0
 11 15  1  0
 12 11  2  0
 13 12  1  0
 13 14  1  0
 14 15  2  0
 16 20  1  0
 17 16  2  0
 19 21  1  0
 19 18  1  1
 20 19  1  0
 21 22  1  0
 23 21  2  0
M  END
$$$$
