THA.pdb
     RDKit          3D

 23 23  0  0  1  0  0  0  0  0999 V2000
   25.2601  -13.3772  -15.5793 C   0  0  0  0  0  0  0  0  0  0  0  0
   24.5648  -12.0593  -15.7567 C   0  0  1  0  0  0  0  0  0  0  0  0
   25.2326  -11.2425  -16.6362 O   0  0  0  0  0  0  0  0  0  0  0  0
   23.1412  -12.2873  -16.2264 C   0  0  2  0  0  0  0  0  0  0  0  0
   23.2052  -12.8809  -17.5397 N   0  0  0  0  0  0  0  0  0  0  0  0
   22.3566  -11.0355  -16.2767 C   0  0  0  0  0  0  0  0  0  0  0  0
   22.1413  -10.4114  -17.3431 O   0  0  0  0  0  0  0  0  0  0  0  0
   21.8087  -10.4860  -15.0879 N   0  0  0  0  0  0  0  0  0  0  0  0
   21.0140   -9.3077  -15.0239 C   0  0  1  0  0  0  0  0  0  0  0  0
   19.7458   -9.5737  -14.2810 C   0  0  0  0  0  0  0  0  0  0  0  0
   18.7823  -10.3710  -15.0763 C   0  0  0  0  0  0  0  0  0  0  0  0
   18.9304  -10.7821  -16.3746 C   0  0  0  0  0  0  0  0  0  0  0  0
   17.8227  -11.4748  -16.6857 N   0  0  0  0  0  0  0  0  0  0  0  0
   16.9868  -11.5142  -15.6347 C   0  0  0  0  0  0  0  0  0  0  0  0
   17.5888  -10.8297  -14.6463 N   0  0  0  0  0  0  0  0  0  0  0  0
   21.7425   -8.1216  -14.5287 C   0  0  0  0  0  0  0  0  0  0  0  0
   22.4334   -8.2230  -13.4838 O   0  0  0  0  0  0  0  0  0  0  0  0
   22.2649   -4.6771  -15.8886 C   0  0  0  0  0  0  0  0  0  0  0  0
   22.4178   -5.7023  -14.7760 C   0  0  2  0  0  0  0  0  0  0  0  0
   21.6833   -6.8802  -15.1967 N   0  0  0  0  0  0  0  0  0  0  0  0
   21.9015   -5.1669  -13.4897 C   0  0  0  0  0  0  0  0  0  0  0  0
   20.6646   -5.6373  -13.0671 O   0  0  0  0  0  0  0  0  0  0  0  0
   22.5591   -4.3330  -12.8287 O   0  0  0  0  0  0  0  0  0  0  0  0
  2  1  1  6
  2  4  1  0
  3  2  1  0
  4  5  1  6
  6  8  1  0
  6  4  1  0
  7  6  2  0
  9  8  1  0
  9 16  1  0
  9 10  1  1
 11 10  1  0
 11 15  1  0
 12 11  2  0
 13 12  1  0
 13 14  1  0
 14 15  2  0
 16 20  1  0
 17 16  2  0
 19 21  1  0
 19 18  1  6
 20 19  1  0
 21 22  1  0
 23 21  2  0
M  END
$$$$
