THA.pdb
     RDKit          3D

 23 23  0  0  1  0  0  0  0  0999 V2000
   25.6374  -11.1122  -18.0750 C   0  0  0  0  0  0  0  0  0  0  0  0
   25.7496  -11.4760  -16.6235 C   0  0  1  0  0  0  0  0  0  0  0  0
   26.1576  -10.4104  -15.8588 O   0  0  0  0  0  0  0  0  0  0  0  0
   24.4209  -12.0067  -16.1213 C   0  0  2  0  0  0  0  0  0  0  0  0
   24.1056  -13.1878  -16.8874 N   0  0  0  0  0  0  0  0  0  0  0  0
   23.3320  -11.0156  -16.2518 C   0  0  0  0  0  0  0  0  0  0  0  0
   22.8284  -10.7016  -17.3567 O   0  0  0  0  0  0  0  0  0  0  0  0
   22.8092  -10.3710  -15.1001 N   0  0  0  0  0  0  0  0  0  0  0  0
   21.8214   -9.3472  -15.1152 C   0  0  1  0  0  0  0  0  0  0  0  0
   20.6116   -9.7785  -14.3527 C   0  0  0  0  0  0  0  0  0  0  0  0
   19.7753  -10.7355  -15.1151 C   0  0  0  0  0  0  0  0  0  0  0  0
   20.0261  -11.2287  -16.3682 C   0  0  0  0  0  0  0  0  0  0  0  0
   19.0129  -12.0597  -16.6626 N   0  0  0  0  0  0  0  0  0  0  0  0
   18.1376  -12.1069  -15.6444 C   0  0  0  0  0  0  0  0  0  0  0  0
   18.6178  -11.2857  -14.6941 N   0  0  0  0  0  0  0  0  0  0  0  0
   22.3281   -8.0217  -14.7044 C   0  0  0  0  0  0  0  0  0  0  0  0
   23.1088   -7.9450  -13.7224 O   0  0  0  0  0  0  0  0  0  0  0  0
   21.9689   -4.5729  -16.1083 C   0  0  0  0  0  0  0  0  0  0  0  0
   22.4044   -5.5160  -14.9978 C   0  0  2  0  0  0  0  0  0  0  0  0
   21.9596   -6.8415  -15.3841 N   0  0  0  0  0  0  0  0  0  0  0  0
   21.8220   -5.1025  -13.6948 C   0  0  0  0  0  0  0  0  0  0  0  0
   22.4711   -4.0793  -13.0154 O   0  0  0  0  0  0  0  0  0  0  0  0
   20.7961   -5.6573  -13.2427 O   0  0  0  0  0  0  0  0  0  0  0  0
  2  1  1  6
  2  4  1  0
  3  2  1  0
  4  5  1  6
  6  8  1  0
  6  4  1  0
  7  6  2  0
  9  8  1  0
  9 16  1  0
  9 10  1  1
 11 10  1  0
 11 15  1  0
 12 11  2  0
 13 12  1  0
 13 14  1  0
 14 15  2  0
 16 20  1  0
 17 16  2  0
 19 21  1  0
 19 18  1  6
 20 19  1  0
 21 22  1  0
 23 21  2  0
M  END
$$$$
