THA.pdb
     RDKit          3D

 23 23  0  0  1  0  0  0  0  0999 V2000
   18.2389   -9.7800  -15.2478 C   0  0  0  0  0  0  0  0  0  0  0  0
   16.7899   -9.9587  -14.9016 C   0  0  1  0  0  0  0  0  0  0  0  0
   16.3001  -11.1601  -15.3527 O   0  0  0  0  0  0  0  0  0  0  0  0
   16.6007   -9.8426  -13.4015 C   0  0  2  0  0  0  0  0  0  0  0  0
   15.2314  -10.1880  -13.1068 N   0  0  0  0  0  0  0  0  0  0  0  0
   16.8973   -8.4844  -12.8992 C   0  0  0  0  0  0  0  0  0  0  0  0
   16.2502   -7.4715  -13.2575 O   0  0  0  0  0  0  0  0  0  0  0  0
   17.9521   -8.2789  -11.9715 N   0  0  0  0  0  0  0  0  0  0  0  0
   18.3728   -7.0114  -11.4812 C   0  0  1  0  0  0  0  0  0  0  0  0
   18.2268   -6.9521   -9.9959 C   0  0  0  0  0  0  0  0  0  0  0  0
   16.8115   -7.0359   -9.5641 C   0  0  0  0  0  0  0  0  0  0  0  0
   16.1818   -8.1236   -9.0191 C   0  0  0  0  0  0  0  0  0  0  0  0
   14.9137   -7.7519   -8.7798 N   0  0  0  0  0  0  0  0  0  0  0  0
   14.7236   -6.4752   -9.1528 C   0  0  0  0  0  0  0  0  0  0  0  0
   15.9016   -6.0426   -9.6356 N   0  0  0  0  0  0  0  0  0  0  0  0
   19.7120   -6.6027  -11.9526 C   0  0  0  0  0  0  0  0  0  0  0  0
   20.6644   -7.4180  -11.8642 O   0  0  0  0  0  0  0  0  0  0  0  0
   21.5201   -5.9271  -14.1840 C   0  0  0  0  0  0  0  0  0  0  0  0
   21.2126   -4.9200  -13.0869 C   0  0  2  0  0  0  0  0  0  0  0  0
   19.9498   -5.3236  -12.4985 N   0  0  0  0  0  0  0  0  0  0  0  0
   21.1425   -3.5422  -13.6391 C   0  0  0  0  0  0  0  0  0  0  0  0
   22.3479   -2.9435  -13.9830 O   0  0  0  0  0  0  0  0  0  0  0  0
   20.0443   -2.9608  -13.7823 O   0  0  0  0  0  0  0  0  0  0  0  0
  2  1  1  1
  2  4  1  0
  3  2  1  0
  4  5  1  6
  6  8  1  0
  6  4  1  0
  7  6  2  0
  9  8  1  0
  9 16  1  0
  9 10  1  1
 11 10  1  0
 11 15  1  0
 12 11  2  0
 13 12  1  0
 13 14  1  0
 14 15  2  0
 16 20  1  0
 17 16  2  0
 19 21  1  0
 19 18  1  6
 20 19  1  0
 21 22  1  0
 23 21  2  0
M  END
$$$$
