THA.pdb
     RDKit          3D

 23 23  0  0  1  0  0  0  0  0999 V2000
   16.2245   -8.3851  -15.4661 C   0  0  0  0  0  0  0  0  0  0  0  0
   16.4167   -9.8120  -15.0434 C   0  0  1  0  0  0  0  0  0  0  0  0
   15.2801  -10.5595  -15.2325 O   0  0  0  0  0  0  0  0  0  0  0  0
   17.5802  -10.4213  -15.8013 C   0  0  2  0  0  0  0  0  0  0  0  0
   17.6982  -11.7977  -15.3858 N   0  0  0  0  0  0  0  0  0  0  0  0
   18.8511   -9.7087  -15.5518 C   0  0  0  0  0  0  0  0  0  0  0  0
   19.5203   -9.8613  -14.5021 O   0  0  0  0  0  0  0  0  0  0  0  0
   19.3666   -8.8051  -16.5178 N   0  0  0  0  0  0  0  0  0  0  0  0
   20.6132   -8.1269  -16.4179 C   0  0  1  0  0  0  0  0  0  0  0  0
   21.2456   -7.9969  -17.7648 C   0  0  0  0  0  0  0  0  0  0  0  0
   21.7742   -9.2872  -18.2671 C   0  0  0  0  0  0  0  0  0  0  0  0
   21.8144  -10.4778  -17.5907 C   0  0  0  0  0  0  0  0  0  0  0  0
   22.3690  -11.3731  -18.4240 N   0  0  0  0  0  0  0  0  0  0  0  0
   22.6778  -10.7914  -19.5950 C   0  0  0  0  0  0  0  0  0  0  0  0
   22.3064   -9.5036  -19.4876 N   0  0  0  0  0  0  0  0  0  0  0  0
   20.5405   -6.8481  -15.6815 C   0  0  0  0  0  0  0  0  0  0  0  0
   19.6192   -6.0384  -15.9555 O   0  0  0  0  0  0  0  0  0  0  0  0
   22.3611   -5.4760  -12.7276 C   0  0  0  0  0  0  0  0  0  0  0  0
   21.4318   -5.2810  -13.9153 C   0  0  2  0  0  0  0  0  0  0  0  0
   21.4765   -6.5123  -14.6806 N   0  0  0  0  0  0  0  0  0  0  0  0
   21.8560   -4.1143  -14.7319 C   0  0  0  0  0  0  0  0  0  0  0  0
   21.3604   -2.8726  -14.3547 O   0  0  0  0  0  0  0  0  0  0  0  0
   22.6229   -4.2572  -15.7097 O   0  0  0  0  0  0  0  0  0  0  0  0
  2  1  1  6
  2  4  1  0
  3  2  1  0
  4  5  1  1
  6  8  1  0
  6  4  1  0
  7  6  2  0
  9  8  1  0
  9 16  1  0
  9 10  1  6
 11 10  1  0
 11 15  1  0
 12 11  2  0
 13 12  1  0
 13 14  1  0
 14 15  2  0
 16 20  1  0
 17 16  2  0
 19 21  1  0
 19 18  1  1
 20 19  1  0
 21 22  1  0
 23 21  2  0
M  END
$$$$
