THA.pdb
     RDKit          3D

 23 23  0  0  1  0  0  0  0  0999 V2000
   37.7924  -35.8580  -19.7940 C   0  0  0  0  0  0  0  0  0  0  0  0
   37.4684  -35.5130  -18.3700 C   0  0  1  0  0  0  0  0  0  0  0  0
   38.5944  -35.4711  -17.5845 O   0  0  0  0  0  0  0  0  0  0  0  0
   36.7381  -34.1852  -18.3152 C   0  0  2  0  0  0  0  0  0  0  0  0
   37.6186  -33.1805  -18.8598 N   0  0  0  0  0  0  0  0  0  0  0  0
   36.3414  -33.8160  -16.9399 C   0  0  0  0  0  0  0  0  0  0  0  0
   36.9337  -32.9314  -16.2768 O   0  0  0  0  0  0  0  0  0  0  0  0
   35.2495  -34.4691  -16.3103 N   0  0  0  0  0  0  0  0  0  0  0  0
   34.7912  -34.2043  -14.9897 C   0  0  1  0  0  0  0  0  0  0  0  0
   33.3095  -34.3740  -14.9080 C   0  0  0  0  0  0  0  0  0  0  0  0
   32.5804  -33.3605  -15.7066 C   0  0  0  0  0  0  0  0  0  0  0  0
   33.1172  -32.2676  -16.3344 C   0  0  0  0  0  0  0  0  0  0  0  0
   32.0981  -31.6329  -16.9365 N   0  0  0  0  0  0  0  0  0  0  0  0
   30.9448  -32.2841  -16.7111 C   0  0  0  0  0  0  0  0  0  0  0  0
   31.2538  -33.3492  -15.9508 N   0  0  0  0  0  0  0  0  0  0  0  0
   35.5222  -34.9479  -13.9431 C   0  0  0  0  0  0  0  0  0  0  0  0
   36.0015  -36.0765  -14.2192 O   0  0  0  0  0  0  0  0  0  0  0  0
   36.2772  -34.2767  -10.3394 C   0  0  0  0  0  0  0  0  0  0  0  0
   36.5110  -35.0571  -11.6235 C   0  0  2  0  0  0  0  0  0  0  0  0
   35.6963  -34.4256  -12.6440 N   0  0  0  0  0  0  0  0  0  0  0  0
   36.1514  -36.4877  -11.4451 C   0  0  0  0  0  0  0  0  0  0  0  0
   34.8181  -36.8269  -11.6377 O   0  0  0  0  0  0  0  0  0  0  0  0
   37.0174  -37.3359  -11.1363 O   0  0  0  0  0  0  0  0  0  0  0  0
  2  1  1  6
  2  4  1  0
  3  2  1  0
  4  5  1  1
  6  8  1  0
  6  4  1  0
  7  6  2  0
  9  8  1  0
  9 16  1  0
  9 10  1  6
 11 10  1  0
 11 15  1  0
 12 11  2  0
 13 12  1  0
 13 14  1  0
 14 15  2  0
 16 20  1  0
 17 16  2  0
 19 21  1  0
 19 18  1  1
 20 19  1  0
 21 22  1  0
 23 21  2  0
M  END
$$$$
