THA.pdb
     RDKit          3D

 23 23  0  0  1  0  0  0  0  0999 V2000
   18.8147   -8.1438  -18.1899 C   0  0  0  0  0  0  0  0  0  0  0  0
   18.1849   -9.4585  -17.8341 C   0  0  1  0  0  0  0  0  0  0  0  0
   17.3683   -9.9229  -18.8361 O   0  0  0  0  0  0  0  0  0  0  0  0
   19.2629  -10.4772  -17.5183 C   0  0  2  0  0  0  0  0  0  0  0  0
   18.6146  -11.7504  -17.3191 N   0  0  0  0  0  0  0  0  0  0  0  0
   20.0453  -10.1165  -16.3172 C   0  0  0  0  0  0  0  0  0  0  0  0
   19.5335  -10.0242  -15.1758 O   0  0  0  0  0  0  0  0  0  0  0  0
   21.4369   -9.8559  -16.4212 N   0  0  0  0  0  0  0  0  0  0  0  0
   22.2499   -9.3331  -15.3772 C   0  0  1  0  0  0  0  0  0  0  0  0
   23.6065   -9.9571  -15.4104 C   0  0  0  0  0  0  0  0  0  0  0  0
   23.5558  -11.4277  -15.2336 C   0  0  0  0  0  0  0  0  0  0  0  0
   22.4515  -12.1820  -14.9368 C   0  0  0  0  0  0  0  0  0  0  0  0
   22.8651  -13.4582  -14.8732 N   0  0  0  0  0  0  0  0  0  0  0  0
   24.1840  -13.5337  -15.1180 C   0  0  0  0  0  0  0  0  0  0  0  0
   24.6006  -12.2746  -15.3393 N   0  0  0  0  0  0  0  0  0  0  0  0
   22.2876   -7.8569  -15.3313 C   0  0  0  0  0  0  0  0  0  0  0  0
   22.2686   -7.2128  -16.4104 O   0  0  0  0  0  0  0  0  0  0  0  0
   23.3020   -5.2173  -15.1154 C   0  0  0  0  0  0  0  0  0  0  0  0
   22.3727   -5.7051  -14.0151 C   0  0  2  0  0  0  0  0  0  0  0  0
   22.3444   -7.1522  -14.1104 N   0  0  0  0  0  0  0  0  0  0  0  0
   21.0156   -5.1206  -14.1720 C   0  0  0  0  0  0  0  0  0  0  0  0
   20.9011   -3.7474  -13.9956 O   0  0  0  0  0  0  0  0  0  0  0  0
   20.0319   -5.8416  -14.4498 O   0  0  0  0  0  0  0  0  0  0  0  0
  2  1  1  6
  2  4  1  0
  3  2  1  0
  4  5  1  1
  6  8  1  0
  6  4  1  0
  7  6  2  0
  9  8  1  0
  9 16  1  0
  9 10  1  6
 11 10  1  0
 11 15  1  0
 12 11  2  0
 13 12  1  0
 13 14  1  0
 14 15  2  0
 16 20  1  0
 17 16  2  0
 19 21  1  0
 19 18  1  6
 20 19  1  0
 21 22  1  0
 23 21  2  0
M  END
$$$$
