THA.pdb
     RDKit          3D

 23 23  0  0  1  0  0  0  0  0999 V2000
   17.2727   -9.7889  -14.9523 C   0  0  0  0  0  0  0  0  0  0  0  0
   18.0731  -11.0419  -15.1548 C   0  0  1  0  0  0  0  0  0  0  0  0
   17.2878  -12.1670  -15.0904 O   0  0  0  0  0  0  0  0  0  0  0  0
   18.7977  -10.9806  -16.4854 C   0  0  2  0  0  0  0  0  0  0  0  0
   19.4885  -12.2345  -16.6638 N   0  0  0  0  0  0  0  0  0  0  0  0
   19.7603   -9.8607  -16.5524 C   0  0  0  0  0  0  0  0  0  0  0  0
   20.8691   -9.8825  -15.9667 O   0  0  0  0  0  0  0  0  0  0  0  0
   19.4508   -8.6949  -17.3010 N   0  0  0  0  0  0  0  0  0  0  0  0
   20.2834   -7.5458  -17.4037 C   0  0  1  0  0  0  0  0  0  0  0  0
   20.0514   -6.8482  -18.7039 C   0  0  0  0  0  0  0  0  0  0  0  0
   20.6641   -7.5660  -19.8467 C   0  0  0  0  0  0  0  0  0  0  0  0
   21.5717   -8.5900  -19.7825 C   0  0  0  0  0  0  0  0  0  0  0  0
   21.8495   -8.9356  -21.0503 N   0  0  0  0  0  0  0  0  0  0  0  0
   21.1525   -8.1693  -21.9059 C   0  0  0  0  0  0  0  0  0  0  0  0
   20.4239   -7.3271  -21.1525 N   0  0  0  0  0  0  0  0  0  0  0  0
   20.2048   -6.6444  -16.2358 C   0  0  0  0  0  0  0  0  0  0  0  0
   19.0783   -6.2388  -15.8536 O   0  0  0  0  0  0  0  0  0  0  0  0
   22.5428   -5.8423  -13.5094 C   0  0  0  0  0  0  0  0  0  0  0  0
   21.3254   -5.4353  -14.3247 C   0  0  2  0  0  0  0  0  0  0  0  0
   21.3588   -6.2275  -15.5393 N   0  0  0  0  0  0  0  0  0  0  0  0
   21.3507   -3.9795  -14.6211 C   0  0  0  0  0  0  0  0  0  0  0  0
   21.0104   -3.1229  -13.5818 O   0  0  0  0  0  0  0  0  0  0  0  0
   21.6651   -3.5586  -15.7564 O   0  0  0  0  0  0  0  0  0  0  0  0
  2  1  1  6
  2  4  1  0
  3  2  1  0
  4  5  1  1
  6  8  1  0
  6  4  1  0
  7  6  2  0
  9  8  1  0
  9 16  1  0
  9 10  1  6
 11 10  1  0
 11 15  1  0
 12 11  2  0
 13 12  1  0
 13 14  1  0
 14 15  2  0
 16 20  1  0
 17 16  2  0
 19 21  1  0
 19 18  1  1
 20 19  1  0
 21 22  1  0
 23 21  2  0
M  END
$$$$
