THA.pdb
     RDKit          3D

 23 23  0  0  1  0  0  0  0  0999 V2000
   26.0001  -34.1772  -11.0198 C   0  0  0  0  0  0  0  0  0  0  0  0
   24.9404  -33.5810  -11.8992 C   0  0  1  0  0  0  0  0  0  0  0  0
   25.1261  -33.9103  -13.2197 O   0  0  0  0  0  0  0  0  0  0  0  0
   23.5699  -34.0312  -11.4317 C   0  0  2  0  0  0  0  0  0  0  0  0
   22.5933  -33.4476  -12.3188 N   0  0  0  0  0  0  0  0  0  0  0  0
   23.2891  -33.6281  -10.0375 C   0  0  0  0  0  0  0  0  0  0  0  0
   22.2742  -32.9663   -9.7134 O   0  0  0  0  0  0  0  0  0  0  0  0
   24.1834  -33.9867   -8.9949 N   0  0  0  0  0  0  0  0  0  0  0  0
   23.9732  -33.7238   -7.6126 C   0  0  1  0  0  0  0  0  0  0  0  0
   22.5986  -34.1429   -7.2052 C   0  0  0  0  0  0  0  0  0  0  0  0
   22.3156  -33.8428   -5.7817 C   0  0  0  0  0  0  0  0  0  0  0  0
   21.6377  -32.7590   -5.2895 C   0  0  0  0  0  0  0  0  0  0  0  0
   21.6166  -32.8948   -3.9535 N   0  0  0  0  0  0  0  0  0  0  0  0
   22.2540  -34.0200   -3.5891 C   0  0  0  0  0  0  0  0  0  0  0  0
   22.6817  -34.5977   -4.7254 N   0  0  0  0  0  0  0  0  0  0  0  0
   25.0318  -34.2625   -6.7341 C   0  0  0  0  0  0  0  0  0  0  0  0
   25.3976  -35.4558   -6.8815 O   0  0  0  0  0  0  0  0  0  0  0  0
   27.4640  -32.7411   -4.3891 C   0  0  0  0  0  0  0  0  0  0  0  0
   26.6788  -33.9607   -4.8457 C   0  0  2  0  0  0  0  0  0  0  0  0
   25.6418  -33.4742   -5.7356 N   0  0  0  0  0  0  0  0  0  0  0  0
   26.1048  -34.6853   -3.6824 C   0  0  0  0  0  0  0  0  0  0  0  0
   26.9606  -35.5298   -2.9864 O   0  0  0  0  0  0  0  0  0  0  0  0
   24.9068  -34.5333   -3.3560 O   0  0  0  0  0  0  0  0  0  0  0  0
  2  1  1  1
  2  4  1  0
  3  2  1  0
  4  5  1  6
  6  8  1  0
  6  4  1  0
  7  6  2  0
  9  8  1  0
  9 16  1  0
  9 10  1  1
 11 10  1  0
 11 15  1  0
 12 11  2  0
 13 12  1  0
 13 14  1  0
 14 15  2  0
 16 20  1  0
 17 16  2  0
 19 21  1  0
 19 18  1  1
 20 19  1  0
 21 22  1  0
 23 21  2  0
M  END
$$$$
