THA.pdb
     RDKit          3D

 23 23  0  0  1  0  0  0  0  0999 V2000
   23.3877  -31.0266   -9.7115 C   0  0  0  0  0  0  0  0  0  0  0  0
   23.6834  -32.1387   -8.7485 C   0  0  1  0  0  0  0  0  0  0  0  0
   22.8376  -33.2066   -8.9243 O   0  0  0  0  0  0  0  0  0  0  0  0
   25.1265  -32.5795   -8.8980 C   0  0  2  0  0  0  0  0  0  0  0  0
   25.2453  -33.2607  -10.1641 N   0  0  0  0  0  0  0  0  0  0  0  0
   25.5600  -33.4722   -7.8026 C   0  0  0  0  0  0  0  0  0  0  0  0
   25.7484  -34.7018   -7.9630 O   0  0  0  0  0  0  0  0  0  0  0  0
   25.7817  -32.9519   -6.5005 N   0  0  0  0  0  0  0  0  0  0  0  0
   26.1267  -33.7279   -5.3590 C   0  0  1  0  0  0  0  0  0  0  0  0
   26.8358  -32.8849   -4.3503 C   0  0  0  0  0  0  0  0  0  0  0  0
   27.9386  -33.6140   -3.6804 C   0  0  0  0  0  0  0  0  0  0  0  0
   28.2716  -34.9325   -3.8459 C   0  0  0  0  0  0  0  0  0  0  0  0
   29.3285  -35.1633   -3.0501 N   0  0  0  0  0  0  0  0  0  0  0  0
   29.6710  -34.0427   -2.3928 C   0  0  0  0  0  0  0  0  0  0  0  0
   28.8065  -33.0922   -2.7892 N   0  0  0  0  0  0  0  0  0  0  0  0
   24.9961  -34.4906   -4.7909 C   0  0  0  0  0  0  0  0  0  0  0  0
   23.8849  -33.9202   -4.6514 O   0  0  0  0  0  0  0  0  0  0  0  0
   24.4546  -38.0827   -3.9727 C   0  0  0  0  0  0  0  0  0  0  0  0
   24.0557  -36.6230   -3.8223 C   0  0  2  0  0  0  0  0  0  0  0  0
   25.1306  -35.8400   -4.4014 N   0  0  0  0  0  0  0  0  0  0  0  0
   23.8380  -36.2794   -2.3932 C   0  0  0  0  0  0  0  0  0  0  0  0
   22.5334  -36.3569   -1.9222 O   0  0  0  0  0  0  0  0  0  0  0  0
   24.7925  -35.9381   -1.6601 O   0  0  0  0  0  0  0  0  0  0  0  0
  2  1  1  6
  2  4  1  0
  3  2  1  0
  4  5  1  6
  6  8  1  0
  6  4  1  0
  7  6  2  0
  9  8  1  0
  9 16  1  0
  9 10  1  1
 11 10  1  0
 11 15  1  0
 12 11  2  0
 13 12  1  0
 13 14  1  0
 14 15  2  0
 16 20  1  0
 17 16  2  0
 19 21  1  0
 19 18  1  1
 20 19  1  0
 21 22  1  0
 23 21  2  0
M  END
$$$$
