THA.pdb
     RDKit          3D

 23 23  0  0  1  0  0  0  0  0999 V2000
   20.7550   -7.0989  -20.9084 C   0  0  0  0  0  0  0  0  0  0  0  0
   19.6709   -8.0698  -21.2739 C   0  0  1  0  0  0  0  0  0  0  0  0
   19.8227   -8.5494  -22.5521 O   0  0  0  0  0  0  0  0  0  0  0  0
   19.6491   -9.2153  -20.2806 C   0  0  2  0  0  0  0  0  0  0  0  0
   18.6324  -10.1447  -20.7092 N   0  0  0  0  0  0  0  0  0  0  0  0
   19.3682   -8.7613  -18.9022 C   0  0  0  0  0  0  0  0  0  0  0  0
   18.2898   -8.2109  -18.5750 O   0  0  0  0  0  0  0  0  0  0  0  0
   20.3364   -8.9383  -17.8791 N   0  0  0  0  0  0  0  0  0  0  0  0
   20.1977   -8.4874  -16.5369 C   0  0  1  0  0  0  0  0  0  0  0  0
   20.2933   -9.6370  -15.5881 C   0  0  0  0  0  0  0  0  0  0  0  0
   19.0485  -10.4403  -15.5473 C   0  0  0  0  0  0  0  0  0  0  0  0
   17.8763  -10.1730  -16.2040 C   0  0  0  0  0  0  0  0  0  0  0  0
   17.0237  -11.1597  -15.8827 N   0  0  0  0  0  0  0  0  0  0  0  0
   17.6145  -12.0342  -15.0513 C   0  0  0  0  0  0  0  0  0  0  0  0
   18.8643  -11.5807  -14.8506 N   0  0  0  0  0  0  0  0  0  0  0  0
   21.0941   -7.3662  -16.1874 C   0  0  0  0  0  0  0  0  0  0  0  0
   22.3316   -7.4978  -16.3626 O   0  0  0  0  0  0  0  0  0  0  0  0
   20.5176   -3.8033  -15.2897 C   0  0  0  0  0  0  0  0  0  0  0  0
   21.4351   -5.0150  -15.3356 C   0  0  2  0  0  0  0  0  0  0  0  0
   20.5985   -6.1538  -15.6629 N   0  0  0  0  0  0  0  0  0  0  0  0
   22.1283   -5.2024  -14.0347 C   0  0  0  0  0  0  0  0  0  0  0  0
   23.3788   -4.6124  -13.9009 O   0  0  0  0  0  0  0  0  0  0  0  0
   21.6001   -5.8620  -13.1124 O   0  0  0  0  0  0  0  0  0  0  0  0
  2  1  1  1
  2  4  1  0
  3  2  1  0
  4  5  1  6
  6  8  1  0
  6  4  1  0
  7  6  2  0
  9  8  1  0
  9 16  1  0
  9 10  1  1
 11 10  1  0
 11 15  1  0
 12 11  2  0
 13 12  1  0
 13 14  1  0
 14 15  2  0
 16 20  1  0
 17 16  2  0
 19 21  1  0
 19 18  1  1
 20 19  1  0
 21 22  1  0
 23 21  2  0
M  END
$$$$
