THA.pdb
     RDKit          3D

 23 23  0  0  1  0  0  0  0  0999 V2000
   15.6689   -7.1760  -12.9070 C   0  0  0  0  0  0  0  0  0  0  0  0
   15.5584   -8.0966  -11.7272 C   0  0  1  0  0  0  0  0  0  0  0  0
   14.3667   -8.7795  -11.7205 O   0  0  0  0  0  0  0  0  0  0  0  0
   16.7225   -9.0684  -11.7215 C   0  0  2  0  0  0  0  0  0  0  0  0
   16.5655   -9.9301  -10.5752 N   0  0  0  0  0  0  0  0  0  0  0  0
   18.0301   -8.3817  -11.6607 C   0  0  0  0  0  0  0  0  0  0  0  0
   18.5067   -7.9220  -10.5955 O   0  0  0  0  0  0  0  0  0  0  0  0
   18.8071   -8.2164  -12.8372 N   0  0  0  0  0  0  0  0  0  0  0  0
   20.0132   -7.4663  -12.9204 C   0  0  1  0  0  0  0  0  0  0  0  0
   21.1774   -8.3742  -13.1472 C   0  0  0  0  0  0  0  0  0  0  0  0
   21.0616   -9.1350  -14.4137 C   0  0  0  0  0  0  0  0  0  0  0  0
   20.0087   -9.1167  -15.2899 C   0  0  0  0  0  0  0  0  0  0  0  0
   20.3313   -9.9487  -16.2937 N   0  0  0  0  0  0  0  0  0  0  0  0
   21.5436  -10.4874  -16.0816 C   0  0  0  0  0  0  0  0  0  0  0  0
   21.9858   -9.9784  -14.9182 N   0  0  0  0  0  0  0  0  0  0  0  0
   19.9537   -6.3433  -13.8786 C   0  0  0  0  0  0  0  0  0  0  0  0
   19.1121   -6.3818  -14.8112 O   0  0  0  0  0  0  0  0  0  0  0  0
   21.4236   -2.9385  -13.9891 C   0  0  0  0  0  0  0  0  0  0  0  0
   20.8314   -4.1323  -14.7216 C   0  0  2  0  0  0  0  0  0  0  0  0
   20.8151   -5.2308  -13.7746 N   0  0  0  0  0  0  0  0  0  0  0  0
   21.6336   -4.4628  -15.9280 C   0  0  0  0  0  0  0  0  0  0  0  0
   22.5955   -5.4552  -15.7876 O   0  0  0  0  0  0  0  0  0  0  0  0
   21.4419   -3.8684  -17.0118 O   0  0  0  0  0  0  0  0  0  0  0  0
  2  1  1  6
  2  4  1  0
  3  2  1  0
  4  5  1  1
  6  8  1  0
  6  4  1  0
  7  6  2  0
  9  8  1  0
  9 16  1  0
  9 10  1  6
 11 10  1  0
 11 15  1  0
 12 11  2  0
 13 12  1  0
 13 14  1  0
 14 15  2  0
 16 20  1  0
 17 16  2  0
 19 21  1  0
 19 18  1  1
 20 19  1  0
 21 22  1  0
 23 21  2  0
M  END
$$$$
