TTI.pdb
     RDKit          3D

 23 22  0  0  1  0  0  0  0  0999 V2000
    8.5651  -12.7102   19.9608 C   0  0  0  0  0  0  0  0  0  0  0  0
    8.0661  -13.4666   18.7694 C   0  0  1  0  0  0  0  0  0  0  0  0
    8.6193  -13.0176   17.5738 O   0  0  0  0  0  0  0  0  0  0  0  0
    8.3367  -14.9664   18.9525 C   0  0  2  0  0  0  0  0  0  0  0  0
    7.8274  -15.6365   17.8014 N   0  0  0  0  0  0  0  0  0  0  0  0
    7.6777  -15.3562   20.2184 C   0  0  0  0  0  0  0  0  0  0  0  0
    6.4294  -15.2223   20.2780 O   0  0  0  0  0  0  0  0  0  0  0  0
    7.1211  -18.5103   21.6219 C   0  0  0  0  0  0  0  0  0  0  0  0
    7.8310  -17.7112   22.6935 C   0  0  1  0  0  0  0  0  0  0  0  0
    9.2160  -17.9561   22.5654 O   0  0  0  0  0  0  0  0  0  0  0  0
    7.5739  -16.2077   22.5388 C   0  0  2  0  0  0  0  0  0  0  0  0
    8.3541  -15.8585   21.3379 N   0  0  0  0  0  0  0  0  0  0  0  0
    8.1996  -15.4947   23.6682 C   0  0  0  0  0  0  0  0  0  0  0  0
    9.3803  -15.0375   23.4975 O   0  0  0  0  0  0  0  0  0  0  0  0
    5.8193  -11.7480   26.3782 C   0  0  0  0  0  0  0  0  0  0  0  0
    6.8768  -12.5684   25.6626 C   0  0  0  0  0  0  0  0  0  0  0  0
    7.4444  -13.5362   26.6431 C   0  0  2  0  0  0  0  0  0  0  0  0
    8.1963  -12.7580   27.7040 C   0  0  0  0  0  0  0  0  0  0  0  0
    8.3606  -14.5232   25.9384 C   0  0  2  0  0  0  0  0  0  0  0  0
    7.6116  -15.2641   24.9303 N   0  0  0  0  0  0  0  0  0  0  0  0
    8.9477  -15.4991   26.8694 C   0  0  0  0  0  0  0  0  0  0  0  0
    8.2749  -16.6592   27.1703 O   0  0  0  0  0  0  0  0  0  0  0  0
   10.0587  -15.2888   27.3968 O   0  0  0  0  0  0  0  0  0  0  0  0
  2  1  1  1
  2  3  1  0
  2  4  1  0
  4  5  1  6
  6 12  1  0
  6  4  1  0
  7  6  2  0
  9  8  1  6
  9 11  1  0
 10  9  1  0
 11 13  1  0
 11 12  1  6
 13 14  2  0
 16 15  1  0
 17 18  1  1
 17 16  1  0
 19 17  1  0
 20 13  1  0
 19 20  1  6
 21 22  1  0
 21 19  1  0
 23 21  2  0
M  END
$$$$
