TTI.pdb
     RDKit          3D

 23 22  0  0  1  0  0  0  0  0999 V2000
    8.2961  -12.6878   19.9760 C   0  0  0  0  0  0  0  0  0  0  0  0
    7.9858  -13.4702   18.7381 C   0  0  1  0  0  0  0  0  0  0  0  0
    8.5396  -12.9088   17.5912 O   0  0  0  0  0  0  0  0  0  0  0  0
    8.4600  -14.9205   18.9047 C   0  0  2  0  0  0  0  0  0  0  0  0
    8.1170  -15.6224   17.7117 N   0  0  0  0  0  0  0  0  0  0  0  0
    7.7958  -15.4379   20.1212 C   0  0  0  0  0  0  0  0  0  0  0  0
    6.5494  -15.5916   20.0706 O   0  0  0  0  0  0  0  0  0  0  0  0
    7.2959  -18.4405   21.4486 C   0  0  0  0  0  0  0  0  0  0  0  0
    7.9520  -17.6766   22.5786 C   0  0  1  0  0  0  0  0  0  0  0  0
    9.3452  -17.8904   22.4897 O   0  0  0  0  0  0  0  0  0  0  0  0
    7.6709  -16.1726   22.4802 C   0  0  2  0  0  0  0  0  0  0  0  0
    8.4654  -15.7615   21.3086 N   0  0  0  0  0  0  0  0  0  0  0  0
    8.2641  -15.4956   23.6486 C   0  0  0  0  0  0  0  0  0  0  0  0
    9.4791  -15.1120   23.5557 O   0  0  0  0  0  0  0  0  0  0  0  0
    5.9540  -11.6049   26.2543 C   0  0  0  0  0  0  0  0  0  0  0  0
    6.9713  -12.5067   25.5797 C   0  0  0  0  0  0  0  0  0  0  0  0
    7.4377  -13.5016   26.5861 C   0  0  2  0  0  0  0  0  0  0  0  0
    8.1722  -12.7621   27.6861 C   0  0  0  0  0  0  0  0  0  0  0  0
    8.3379  -14.5342   25.9275 C   0  0  2  0  0  0  0  0  0  0  0  0
    7.6102  -15.2255   24.8698 N   0  0  0  0  0  0  0  0  0  0  0  0
    8.8129  -15.5473   26.8823 C   0  0  0  0  0  0  0  0  0  0  0  0
    9.9780  -15.3449   27.5830 O   0  0  0  0  0  0  0  0  0  0  0  0
    8.1688  -16.5995   27.0688 O   0  0  0  0  0  0  0  0  0  0  0  0
  2  1  1  1
  2  3  1  0
  2  4  1  0
  4  5  1  6
  6 12  1  0
  6  4  1  0
  7  6  2  0
  9  8  1  6
  9 11  1  0
 10  9  1  0
 11 13  1  0
 11 12  1  6
 13 14  2  0
 16 15  1  0
 17 18  1  1
 17 16  1  0
 19 17  1  0
 20 13  1  0
 19 20  1  6
 21 22  1  0
 21 19  1  0
 23 21  2  0
M  END
$$$$
