TTI.pdb
     RDKit          3D

 23 22  0  0  1  0  0  0  0  0999 V2000
   11.0378  -13.9088   18.2972 C   0  0  0  0  0  0  0  0  0  0  0  0
   10.1906  -14.0463   19.5236 C   0  0  1  0  0  0  0  0  0  0  0  0
   10.2531  -12.9292   20.3515 O   0  0  0  0  0  0  0  0  0  0  0  0
    8.7367  -14.3336   19.1241 C   0  0  2  0  0  0  0  0  0  0  0  0
    8.2573  -13.1971   18.4084 N   0  0  0  0  0  0  0  0  0  0  0  0
    8.0063  -14.6071   20.3812 C   0  0  0  0  0  0  0  0  0  0  0  0
    7.2513  -13.6997   20.8128 O   0  0  0  0  0  0  0  0  0  0  0  0
    6.2414  -18.0296   21.1075 C   0  0  0  0  0  0  0  0  0  0  0  0
    7.0361  -17.5301   22.2949 C   0  0  1  0  0  0  0  0  0  0  0  0
    8.3103  -18.1372   22.2451 O   0  0  0  0  0  0  0  0  0  0  0  0
    7.2075  -16.0070   22.2581 C   0  0  2  0  0  0  0  0  0  0  0  0
    8.1060  -15.8009   21.1078 N   0  0  0  0  0  0  0  0  0  0  0  0
    7.9535  -15.5785   23.4559 C   0  0  0  0  0  0  0  0  0  0  0  0
    9.1870  -15.2800   23.3089 O   0  0  0  0  0  0  0  0  0  0  0  0
    6.0132  -11.9061   26.4873 C   0  0  0  0  0  0  0  0  0  0  0  0
    6.9733  -12.7759   25.6969 C   0  0  0  0  0  0  0  0  0  0  0  0
    7.4558  -13.8593   26.5988 C   0  0  2  0  0  0  0  0  0  0  0  0
    8.2975  -13.2331   27.6924 C   0  0  0  0  0  0  0  0  0  0  0  0
    8.2580  -14.8821   25.8109 C   0  0  2  0  0  0  0  0  0  0  0  0
    7.4289  -15.4622   24.7611 N   0  0  0  0  0  0  0  0  0  0  0  0
    8.7432  -15.9814   26.6593 C   0  0  0  0  0  0  0  0  0  0  0  0
    9.9104  -15.8420   27.3717 O   0  0  0  0  0  0  0  0  0  0  0  0
    8.1058  -17.0507   26.7439 O   0  0  0  0  0  0  0  0  0  0  0  0
  2  1  1  6
  2  3  1  0
  2  4  1  0
  4  5  1  1
  6 12  1  0
  6  4  1  0
  7  6  2  0
  9  8  1  6
  9 11  1  0
 10  9  1  0
 11 13  1  0
 11 12  1  6
 13 14  2  0
 16 15  1  0
 17 18  1  1
 17 16  1  0
 19 17  1  0
 20 13  1  0
 19 20  1  6
 21 22  1  0
 21 19  1  0
 23 21  2  0
M  END
$$$$
