TTI.pdb
     RDKit          3D

 23 22  0  0  1  0  0  0  0  0999 V2000
    9.1095  -12.4734   19.7411 C   0  0  0  0  0  0  0  0  0  0  0  0
    8.4676  -13.1274   18.5575 C   0  0  1  0  0  0  0  0  0  0  0  0
    8.9775  -12.6711   17.3455 O   0  0  0  0  0  0  0  0  0  0  0  0
    8.6163  -14.6517   18.6591 C   0  0  2  0  0  0  0  0  0  0  0  0
    8.0256  -15.2178   17.4911 N   0  0  0  0  0  0  0  0  0  0  0  0
    7.9575  -15.0505   19.9222 C   0  0  0  0  0  0  0  0  0  0  0  0
    6.7115  -14.8995   19.9896 O   0  0  0  0  0  0  0  0  0  0  0  0
    7.5999  -18.3214   21.1814 C   0  0  0  0  0  0  0  0  0  0  0  0
    8.2060  -17.5113   22.3072 C   0  0  1  0  0  0  0  0  0  0  0  0
    9.6094  -17.6478   22.2273 O   0  0  0  0  0  0  0  0  0  0  0  0
    7.8420  -16.0264   22.1926 C   0  0  2  0  0  0  0  0  0  0  0  0
    8.6316  -15.5788   21.0310 N   0  0  0  0  0  0  0  0  0  0  0  0
    8.3763  -15.3090   23.3652 C   0  0  0  0  0  0  0  0  0  0  0  0
    9.5572  -14.8295   23.2775 O   0  0  0  0  0  0  0  0  0  0  0  0
    5.6608  -12.2959   27.1860 C   0  0  0  0  0  0  0  0  0  0  0  0
    6.2703  -13.5318   26.5502 C   0  0  0  0  0  0  0  0  0  0  0  0
    7.6432  -13.1791   26.0912 C   0  0  2  0  0  0  0  0  0  0  0  0
    7.5268  -12.2085   24.9333 C   0  0  0  0  0  0  0  0  0  0  0  0
    8.3987  -14.4320   25.6791 C   0  0  2  0  0  0  0  0  0  0  0  0
    7.6997  -15.0966   24.5856 N   0  0  0  0  0  0  0  0  0  0  0  0
    8.5230  -15.3949   26.7841 C   0  0  0  0  0  0  0  0  0  0  0  0
    9.2793  -15.0856   27.8893 O   0  0  0  0  0  0  0  0  0  0  0  0
    7.9472  -16.5007   26.7341 O   0  0  0  0  0  0  0  0  0  0  0  0
  2  1  1  1
  2  3  1  0
  2  4  1  0
  4  5  1  6
  6 12  1  0
  6  4  1  0
  7  6  2  0
  9  8  1  6
  9 11  1  0
 10  9  1  0
 11 13  1  0
 11 12  1  6
 13 14  2  0
 16 15  1  0
 17 18  1  6
 17 16  1  0
 19 17  1  0
 20 13  1  0
 19 20  1  6
 21 22  1  0
 21 19  1  0
 23 21  2  0
M  END
$$$$
