TTI.pdb
     RDKit          3D

 23 22  0  0  1  0  0  0  0  0999 V2000
   10.8517  -14.1509   20.5848 C   0  0  0  0  0  0  0  0  0  0  0  0
   10.0953  -13.3082   19.6058 C   0  0  1  0  0  0  0  0  0  0  0  0
   10.8935  -12.8395   18.5664 O   0  0  0  0  0  0  0  0  0  0  0  0
    8.9033  -14.0986   19.0484 C   0  0  2  0  0  0  0  0  0  0  0  0
    8.2562  -13.2724   18.0829 N   0  0  0  0  0  0  0  0  0  0  0  0
    8.0556  -14.4465   20.2099 C   0  0  0  0  0  0  0  0  0  0  0  0
    7.2019  -13.5971   20.5696 O   0  0  0  0  0  0  0  0  0  0  0  0
    6.3026  -17.9123   20.8227 C   0  0  0  0  0  0  0  0  0  0  0  0
    7.0632  -17.4187   22.0346 C   0  0  1  0  0  0  0  0  0  0  0  0
    8.3501  -17.9996   22.0000 O   0  0  0  0  0  0  0  0  0  0  0  0
    7.2046  -15.8921   22.0283 C   0  0  2  0  0  0  0  0  0  0  0  0
    8.1477  -15.6499   20.9216 N   0  0  0  0  0  0  0  0  0  0  0  0
    7.8891  -15.4680   23.2639 C   0  0  0  0  0  0  0  0  0  0  0  0
    9.1462  -15.2501   23.1984 O   0  0  0  0  0  0  0  0  0  0  0  0
    5.7138  -11.8305   26.3102 C   0  0  0  0  0  0  0  0  0  0  0  0
    6.6890  -12.6713   25.5067 C   0  0  0  0  0  0  0  0  0  0  0  0
    7.2307  -13.7274   26.4073 C   0  0  2  0  0  0  0  0  0  0  0  0
    8.0548  -13.0584   27.4889 C   0  0  0  0  0  0  0  0  0  0  0  0
    8.0704  -14.7156   25.6143 C   0  0  2  0  0  0  0  0  0  0  0  0
    7.2814  -15.2747   24.5230 N   0  0  0  0  0  0  0  0  0  0  0  0
    8.5450  -15.8335   26.4443 C   0  0  0  0  0  0  0  0  0  0  0  0
    9.7843  -15.7780   27.0361 O   0  0  0  0  0  0  0  0  0  0  0  0
    7.8334  -16.8429   26.6218 O   0  0  0  0  0  0  0  0  0  0  0  0
  2  1  1  1
  2  3  1  0
  2  4  1  0
  4  5  1  6
  6 12  1  0
  6  4  1  0
  7  6  2  0
  9  8  1  6
  9 11  1  0
 10  9  1  0
 11 13  1  0
 11 12  1  6
 13 14  2  0
 16 15  1  0
 17 18  1  1
 17 16  1  0
 19 17  1  0
 20 13  1  0
 19 20  1  6
 21 22  1  0
 21 19  1  0
 23 21  2  0
M  END
$$$$
