TTI.pdb
     RDKit          3D

 23 22  0  0  1  0  0  0  0  0999 V2000
    8.7328  -12.5683   19.6580 C   0  0  0  0  0  0  0  0  0  0  0  0
    8.2616  -13.3209   18.4529 C   0  0  1  0  0  0  0  0  0  0  0  0
    8.7172  -12.7692   17.2591 O   0  0  0  0  0  0  0  0  0  0  0  0
    8.6867  -14.7922   18.5573 C   0  0  2  0  0  0  0  0  0  0  0  0
    8.2467  -15.4496   17.3708 N   0  0  0  0  0  0  0  0  0  0  0  0
    8.0747  -15.3146   19.7987 C   0  0  0  0  0  0  0  0  0  0  0  0
    6.8303  -15.4916   19.7922 O   0  0  0  0  0  0  0  0  0  0  0  0
    8.1733  -18.4671   21.1733 C   0  0  0  0  0  0  0  0  0  0  0  0
    8.6234  -17.5546   22.2940 C   0  0  1  0  0  0  0  0  0  0  0  0
   10.0338  -17.4916   22.2563 O   0  0  0  0  0  0  0  0  0  0  0  0
    8.0562  -16.1396   22.1310 C   0  0  2  0  0  0  0  0  0  0  0  0
    8.7908  -15.6190   20.9638 N   0  0  0  0  0  0  0  0  0  0  0  0
    8.4686  -15.3209   23.2863 C   0  0  0  0  0  0  0  0  0  0  0  0
    9.5690  -14.6785   23.1930 O   0  0  0  0  0  0  0  0  0  0  0  0
    6.7506  -11.1335   27.0058 C   0  0  0  0  0  0  0  0  0  0  0  0
    7.7493  -12.2679   26.8675 C   0  0  0  0  0  0  0  0  0  0  0  0
    7.2186  -13.2222   25.8538 C   0  0  2  0  0  0  0  0  0  0  0  0
    5.9653  -13.8660   26.4117 C   0  0  0  0  0  0  0  0  0  0  0  0
    8.2670  -14.2701   25.5176 C   0  0  2  0  0  0  0  0  0  0  0  0
    7.7551  -15.1751   24.4953 N   0  0  0  0  0  0  0  0  0  0  0  0
    8.6396  -15.0793   26.6882 C   0  0  0  0  0  0  0  0  0  0  0  0
    9.4310  -14.5432   27.6759 O   0  0  0  0  0  0  0  0  0  0  0  0
    8.2451  -16.2576   26.8006 O   0  0  0  0  0  0  0  0  0  0  0  0
  2  1  1  1
  2  3  1  0
  2  4  1  0
  4  5  1  6
  6 12  1  0
  6  4  1  0
  7  6  2  0
  9  8  1  6
  9 11  1  0
 10  9  1  0
 11 13  1  0
 11 12  1  6
 13 14  2  0
 16 15  1  0
 17 18  1  1
 17 16  1  0
 19 17  1  0
 20 13  1  0
 19 20  1  6
 21 22  1  0
 21 19  1  0
 23 21  2  0
M  END
$$$$
