TTI.pdb
     RDKit          3D

 23 22  0  0  1  0  0  0  0  0999 V2000
   12.7134  -19.3661   21.2966 C   0  0  0  0  0  0  0  0  0  0  0  0
   12.0813  -18.0360   21.5648 C   0  0  1  0  0  0  0  0  0  0  0  0
   13.0078  -17.0583   21.9152 O   0  0  0  0  0  0  0  0  0  0  0  0
   11.2695  -17.5878   20.3416 C   0  0  2  0  0  0  0  0  0  0  0  0
   12.1957  -17.2943   19.2978 N   0  0  0  0  0  0  0  0  0  0  0  0
   10.4657  -16.4255   20.7793 C   0  0  0  0  0  0  0  0  0  0  0  0
   10.9489  -15.2844   20.5692 O   0  0  0  0  0  0  0  0  0  0  0  0
    6.8963  -15.5186   19.8092 C   0  0  0  0  0  0  0  0  0  0  0  0
    7.0559  -15.5884   21.3127 C   0  0  1  0  0  0  0  0  0  0  0  0
    6.7262  -16.9001   21.7192 O   0  0  0  0  0  0  0  0  0  0  0  0
    8.4952  -15.2802   21.7417 C   0  0  2  0  0  0  0  0  0  0  0  0
    9.2158  -16.5214   21.4051 N   0  0  0  0  0  0  0  0  0  0  0  0
    8.5418  -15.1525   23.2102 C   0  0  0  0  0  0  0  0  0  0  0  0
    9.3531  -15.9089   23.8441 O   0  0  0  0  0  0  0  0  0  0  0  0
    6.7971  -11.7117   28.0172 C   0  0  0  0  0  0  0  0  0  0  0  0
    7.4599  -12.9751   27.4998 C   0  0  0  0  0  0  0  0  0  0  0  0
    7.2258  -13.0443   26.0300 C   0  0  2  0  0  0  0  0  0  0  0  0
    5.7347  -13.1634   25.7873 C   0  0  0  0  0  0  0  0  0  0  0  0
    7.9719  -14.2264   25.4331 C   0  0  2  0  0  0  0  0  0  0  0  0
    7.7708  -14.2633   23.9893 N   0  0  0  0  0  0  0  0  0  0  0  0
    7.5111  -15.5102   25.9839 C   0  0  0  0  0  0  0  0  0  0  0  0
    8.1008  -16.0306   27.1111 O   0  0  0  0  0  0  0  0  0  0  0  0
    6.5836  -16.1420   25.4386 O   0  0  0  0  0  0  0  0  0  0  0  0
  2  1  1  6
  2  3  1  0
  2  4  1  0
  4  5  1  6
  6 12  1  0
  6  4  1  0
  7  6  2  0
  9  8  1  6
  9 11  1  0
 10  9  1  0
 11 13  1  0
 11 12  1  1
 13 14  2  0
 16 15  1  0
 17 18  1  1
 17 16  1  0
 19 17  1  0
 20 13  1  0
 19 20  1  6
 21 22  1  0
 21 19  1  0
 23 21  2  0
M  END
$$$$
