TTI.pdb
     RDKit          3D

 23 22  0  0  1  0  0  0  0  0999 V2000
   10.2604  -12.3647   18.1768 C   0  0  0  0  0  0  0  0  0  0  0  0
    9.3352  -12.9392   19.2037 C   0  0  1  0  0  0  0  0  0  0  0  0
    8.2424  -12.1183   19.4660 O   0  0  0  0  0  0  0  0  0  0  0  0
    8.8630  -14.3309   18.7605 C   0  0  2  0  0  0  0  0  0  0  0  0
    8.0139  -14.1539   17.6286 N   0  0  0  0  0  0  0  0  0  0  0  0
    8.1895  -14.9339   19.9316 C   0  0  0  0  0  0  0  0  0  0  0  0
    6.9416  -14.8026   20.0037 O   0  0  0  0  0  0  0  0  0  0  0  0
    8.1045  -18.4713   20.9482 C   0  0  0  0  0  0  0  0  0  0  0  0
    8.5668  -17.6486   22.1316 C   0  0  1  0  0  0  0  0  0  0  0  0
    9.9790  -17.6368   22.1211 O   0  0  0  0  0  0  0  0  0  0  0  0
    8.0553  -16.2056   22.0493 C   0  0  2  0  0  0  0  0  0  0  0  0
    8.8520  -15.6323   20.9496 N   0  0  0  0  0  0  0  0  0  0  0  0
    8.4504  -15.4854   23.2742 C   0  0  0  0  0  0  0  0  0  0  0  0
    9.5110  -14.7747   23.2260 O   0  0  0  0  0  0  0  0  0  0  0  0
    6.7336  -11.5528   27.1591 C   0  0  0  0  0  0  0  0  0  0  0  0
    7.7275  -12.6862   26.9835 C   0  0  0  0  0  0  0  0  0  0  0  0
    7.2487  -13.5435   25.8629 C   0  0  2  0  0  0  0  0  0  0  0  0
    5.8851  -14.0938   26.2294 C   0  0  0  0  0  0  0  0  0  0  0  0
    8.2379  -14.6672   25.5999 C   0  0  2  0  0  0  0  0  0  0  0  0
    7.7602  -15.5037   24.5052 N   0  0  0  0  0  0  0  0  0  0  0  0
    8.4245  -15.5302   26.7764 C   0  0  0  0  0  0  0  0  0  0  0  0
    9.1550  -15.0848   27.8521 O   0  0  0  0  0  0  0  0  0  0  0  0
    7.9253  -16.6732   26.8145 O   0  0  0  0  0  0  0  0  0  0  0  0
  2  1  1  6
  2  3  1  0
  2  4  1  0
  4  5  1  6
  6 12  1  0
  6  4  1  0
  7  6  2  0
  9  8  1  6
  9 11  1  0
 10  9  1  0
 11 13  1  0
 11 12  1  6
 13 14  2  0
 16 15  1  0
 17 18  1  1
 17 16  1  0
 19 17  1  0
 20 13  1  0
 19 20  1  6
 21 22  1  0
 21 19  1  0
 23 21  2  0
M  END
$$$$
