TTI.pdb
     RDKit          3D

 23 22  0  0  1  0  0  0  0  0999 V2000
   15.2066  -18.7540   21.0145 C   0  0  0  0  0  0  0  0  0  0  0  0
   14.2804  -17.8352   21.7484 C   0  0  1  0  0  0  0  0  0  0  0  0
   14.9227  -16.7055   22.2468 O   0  0  0  0  0  0  0  0  0  0  0  0
   13.1167  -17.4277   20.8341 C   0  0  2  0  0  0  0  0  0  0  0  0
   13.6552  -16.6157   19.7928 N   0  0  0  0  0  0  0  0  0  0  0  0
   12.1353  -16.7321   21.6953 C   0  0  0  0  0  0  0  0  0  0  0  0
   12.2219  -15.4802   21.7650 O   0  0  0  0  0  0  0  0  0  0  0  0
    8.2831  -17.1638   21.5992 C   0  0  0  0  0  0  0  0  0  0  0  0
    8.8454  -17.3318   22.9944 C   0  0  1  0  0  0  0  0  0  0  0  0
    9.0933  -18.7077   23.1948 O   0  0  0  0  0  0  0  0  0  0  0  0
   10.1571  -16.5578   23.1706 C   0  0  2  0  0  0  0  0  0  0  0  0
   11.1301  -17.3782   22.4267 N   0  0  0  0  0  0  0  0  0  0  0  0
   10.5596  -16.6111   24.5884 C   0  0  0  0  0  0  0  0  0  0  0  0
   11.5941  -17.3001   24.8838 O   0  0  0  0  0  0  0  0  0  0  0  0
    9.4223  -12.7536   28.2932 C   0  0  0  0  0  0  0  0  0  0  0  0
   10.1379  -13.7694   27.4218 C   0  0  0  0  0  0  0  0  0  0  0  0
    9.8206  -15.1266   27.9484 C   0  0  2  0  0  0  0  0  0  0  0  0
   10.4116  -15.2516   29.3382 C   0  0  0  0  0  0  0  0  0  0  0  0
   10.3769  -16.1946   27.0208 C   0  0  2  0  0  0  0  0  0  0  0  0
    9.9067  -15.9648   25.6598 N   0  0  0  0  0  0  0  0  0  0  0  0
    9.9597  -17.5481   27.4179 C   0  0  0  0  0  0  0  0  0  0  0  0
   10.7820  -18.3238   28.1997 O   0  0  0  0  0  0  0  0  0  0  0  0
    8.8595  -18.0092   27.0523 O   0  0  0  0  0  0  0  0  0  0  0  0
  2  1  1  6
  2  3  1  0
  2  4  1  0
  4  5  1  6
  6 12  1  0
  6  4  1  0
  7  6  2  0
  9  8  1  6
  9 11  1  0
 10  9  1  0
 11 13  1  0
 11 12  1  6
 13 14  2  0
 16 15  1  0
 17 18  1  1
 17 16  1  0
 19 17  1  0
 20 13  1  0
 19 20  1  6
 21 22  1  0
 21 19  1  0
 23 21  2  0
M  END
$$$$
