TTI.pdb
     RDKit          3D

 23 22  0  0  1  0  0  0  0  0999 V2000
    8.8192  -13.3163   21.2694 C   0  0  0  0  0  0  0  0  0  0  0  0
    7.7089  -14.0921   20.6322 C   0  0  1  0  0  0  0  0  0  0  0  0
    7.2522  -13.5119   19.4523 O   0  0  0  0  0  0  0  0  0  0  0  0
    8.1612  -15.5364   20.3764 C   0  0  2  0  0  0  0  0  0  0  0  0
    7.0758  -16.2205   19.7540 N   0  0  0  0  0  0  0  0  0  0  0  0
    8.5481  -16.0901   21.6926 C   0  0  0  0  0  0  0  0  0  0  0  0
    7.6208  -16.4993   22.4357 O   0  0  0  0  0  0  0  0  0  0  0  0
   11.9995  -18.3081   24.3653 C   0  0  0  0  0  0  0  0  0  0  0  0
   11.5257  -17.5115   23.1686 C   0  0  1  0  0  0  0  0  0  0  0  0
   11.4699  -18.3890   22.0633 O   0  0  0  0  0  0  0  0  0  0  0  0
   10.1327  -16.9159   23.4036 C   0  0  2  0  0  0  0  0  0  0  0  0
    9.8685  -16.1835   22.1519 N   0  0  0  0  0  0  0  0  0  0  0  0
   10.2173  -15.9036   24.4728 C   0  0  0  0  0  0  0  0  0  0  0  0
   11.0596  -14.9548   24.3234 O   0  0  0  0  0  0  0  0  0  0  0  0
    6.3622  -13.0910   26.2610 C   0  0  0  0  0  0  0  0  0  0  0  0
    7.7362  -13.5816   25.8428 C   0  0  0  0  0  0  0  0  0  0  0  0
    8.3940  -14.1731   27.0417 C   0  0  2  0  0  0  0  0  0  0  0  0
    8.6324  -13.0686   28.0514 C   0  0  0  0  0  0  0  0  0  0  0  0
    9.7000  -14.8440   26.6484 C   0  0  2  0  0  0  0  0  0  0  0  0
    9.4466  -15.8809   25.6550 N   0  0  0  0  0  0  0  0  0  0  0  0
   10.3685  -15.4755   27.7965 C   0  0  0  0  0  0  0  0  0  0  0  0
   10.1181  -16.7913   28.1047 O   0  0  0  0  0  0  0  0  0  0  0  0
   11.1679  -14.8291   28.5036 O   0  0  0  0  0  0  0  0  0  0  0  0
  2  1  1  6
  2  3  1  0
  2  4  1  0
  4  5  1  1
  6 12  1  0
  6  4  1  0
  7  6  2  0
  9  8  1  1
  9 11  1  0
 10  9  1  0
 11 13  1  0
 11 12  1  6
 13 14  2  0
 16 15  1  0
 17 18  1  1
 17 16  1  0
 19 17  1  0
 20 13  1  0
 19 20  1  6
 21 22  1  0
 21 19  1  0
 23 21  2  0
M  END
$$$$
