TTI.pdb
     RDKit          3D

 23 22  0  0  1  0  0  0  0  0999 V2000
    9.0285  -15.2324   18.5600 C   0  0  0  0  0  0  0  0  0  0  0  0
    8.1853  -15.2524   19.7966 C   0  0  1  0  0  0  0  0  0  0  0  0
    7.0839  -14.4055   19.7134 O   0  0  0  0  0  0  0  0  0  0  0  0
    7.7329  -16.6882   20.0967 C   0  0  2  0  0  0  0  0  0  0  0  0
    6.7884  -17.0572   19.0940 N   0  0  0  0  0  0  0  0  0  0  0  0
    7.1804  -16.6718   21.4690 C   0  0  0  0  0  0  0  0  0  0  0  0
    5.9554  -16.4177   21.5892 O   0  0  0  0  0  0  0  0  0  0  0  0
    6.1953  -19.0805   23.5643 C   0  0  0  0  0  0  0  0  0  0  0  0
    7.1916  -18.2931   24.3880 C   0  0  1  0  0  0  0  0  0  0  0  0
    8.4593  -18.8913   24.2157 O   0  0  0  0  0  0  0  0  0  0  0  0
    7.2650  -16.8298   23.9364 C   0  0  2  0  0  0  0  0  0  0  0  0
    7.9323  -16.9193   22.6250 N   0  0  0  0  0  0  0  0  0  0  0  0
    8.1851  -16.0979   24.8268 C   0  0  0  0  0  0  0  0  0  0  0  0
    9.3972  -15.9661   24.4452 O   0  0  0  0  0  0  0  0  0  0  0  0
    6.6334  -11.7831   27.4291 C   0  0  0  0  0  0  0  0  0  0  0  0
    7.4940  -12.7274   26.6100 C   0  0  0  0  0  0  0  0  0  0  0  0
    8.2178  -13.6222   27.5564 C   0  0  2  0  0  0  0  0  0  0  0  0
    9.2569  -12.8008   28.2927 C   0  0  0  0  0  0  0  0  0  0  0  0
    8.8653  -14.7724   26.8026 C   0  0  2  0  0  0  0  0  0  0  0  0
    7.8503  -15.5207   26.0705 N   0  0  0  0  0  0  0  0  0  0  0  0
    9.5528  -15.7103   27.7033 C   0  0  0  0  0  0  0  0  0  0  0  0
   10.8893  -15.5493   27.9804 O   0  0  0  0  0  0  0  0  0  0  0  0
    8.9359  -16.6608   28.2258 O   0  0  0  0  0  0  0  0  0  0  0  0
  2  1  1  6
  2  3  1  0
  2  4  1  0
  4  5  1  6
  6 12  1  0
  6  4  1  0
  7  6  2  0
  9  8  1  6
  9 11  1  0
 10  9  1  0
 11 13  1  0
 11 12  1  6
 13 14  2  0
 16 15  1  0
 17 18  1  6
 17 16  1  0
 19 17  1  0
 20 13  1  0
 19 20  1  1
 21 22  1  0
 21 19  1  0
 23 21  2  0
M  END
$$$$
