TTI.pdb
     RDKit          3D

 23 22  0  0  1  0  0  0  0  0999 V2000
    8.8116  -12.6004   19.8818 C   0  0  0  0  0  0  0  0  0  0  0  0
    8.3495  -13.2878   18.6349 C   0  0  1  0  0  0  0  0  0  0  0  0
    8.9280  -12.7633   17.4827 O   0  0  0  0  0  0  0  0  0  0  0  0
    8.6297  -14.7937   18.7347 C   0  0  2  0  0  0  0  0  0  0  0  0
    8.1495  -15.3983   17.5358 N   0  0  0  0  0  0  0  0  0  0  0  0
    7.9489  -15.2628   19.9616 C   0  0  0  0  0  0  0  0  0  0  0  0
    6.6926  -15.2946   19.9417 O   0  0  0  0  0  0  0  0  0  0  0  0
    7.5802  -18.4043   21.2768 C   0  0  0  0  0  0  0  0  0  0  0  0
    8.1694  -17.5914   22.4095 C   0  0  1  0  0  0  0  0  0  0  0  0
    9.5736  -17.7318   22.3539 O   0  0  0  0  0  0  0  0  0  0  0  0
    7.8112  -16.1061   22.2832 C   0  0  2  0  0  0  0  0  0  0  0  0
    8.6132  -15.6675   21.1268 N   0  0  0  0  0  0  0  0  0  0  0  0
    8.3365  -15.3838   23.4570 C   0  0  0  0  0  0  0  0  0  0  0  0
    9.5094  -14.8854   23.3682 O   0  0  0  0  0  0  0  0  0  0  0  0
    5.4543  -11.8975   26.1037 C   0  0  0  0  0  0  0  0  0  0  0  0
    6.5830  -12.6280   25.3997 C   0  0  0  0  0  0  0  0  0  0  0  0
    7.2522  -13.5064   26.4000 C   0  0  2  0  0  0  0  0  0  0  0  0
    7.8899  -12.6286   27.4579 C   0  0  0  0  0  0  0  0  0  0  0  0
    8.2910  -14.3830   25.7196 C   0  0  2  0  0  0  0  0  0  0  0  0
    7.6592  -15.1859   24.6793 N   0  0  0  0  0  0  0  0  0  0  0  0
    8.9453  -15.3033   26.6623 C   0  0  0  0  0  0  0  0  0  0  0  0
    8.4591  -16.5772   26.8354 O   0  0  0  0  0  0  0  0  0  0  0  0
    9.9456  -14.9426   27.3152 O   0  0  0  0  0  0  0  0  0  0  0  0
  2  1  1  1
  2  3  1  0
  2  4  1  0
  4  5  1  6
  6 12  1  0
  6  4  1  0
  7  6  2  0
  9  8  1  6
  9 11  1  0
 10  9  1  0
 11 13  1  0
 11 12  1  6
 13 14  2  0
 16 15  1  0
 17 18  1  1
 17 16  1  0
 19 17  1  0
 20 13  1  0
 19 20  1  6
 21 22  1  0
 21 19  1  0
 23 21  2  0
M  END
$$$$
