GSQ.pdb
     RDKit          3D

 20 19  0  0  1  0  0  0  0  0999 V2000
   20.5816  -12.8762  -18.4957 N   0  0  0  0  0  0  0  0  0  0  0  0
   20.1696  -11.5077  -18.5272 C   0  0  0  0  0  0  0  0  0  0  0  0
   20.7416  -10.7732  -17.3490 C   0  0  0  0  0  0  0  0  0  0  0  0
   20.0160  -10.0557  -16.6137 O   0  0  0  0  0  0  0  0  0  0  0  0
   24.6581   -9.9182  -14.5830 O   0  0  0  0  0  0  0  0  0  0  0  0
   24.1519  -10.5348  -15.7116 C   0  0  0  0  0  0  0  0  0  0  0  0
   22.7262  -10.1079  -15.9163 C   0  0  2  0  0  0  0  0  0  0  0  0
   22.1161  -10.8553  -17.0152 N   0  0  0  0  0  0  0  0  0  0  0  0
   22.6652   -8.6656  -16.1689 C   0  0  0  0  0  0  0  0  0  0  0  0
   22.8100   -8.1768  -17.3417 O   0  0  0  0  0  0  0  0  0  0  0  0
   18.6365   -6.8460  -17.2385 N   0  0  0  0  0  0  0  0  0  0  0  0
   18.5860   -6.1822  -15.9827 C   0  0  0  0  0  0  0  0  0  0  0  0
   17.4750   -5.9479  -15.4822 O   0  0  0  0  0  0  0  0  0  0  0  0
   19.8749   -5.8034  -15.3350 C   0  0  0  0  0  0  0  0  0  0  0  0
   21.0032   -6.1900  -16.2334 C   0  0  0  0  0  0  0  0  0  0  0  0
   22.2841   -6.2840  -15.4703 C   0  0  2  0  0  0  0  0  0  0  0  0
   22.4416   -7.7217  -15.1431 N   0  0  0  0  0  0  0  0  0  0  0  0
   22.2725   -5.5417  -14.1845 C   0  0  0  0  0  0  0  0  0  0  0  0
   22.2042   -4.1373  -14.1637 O   0  0  0  0  0  0  0  0  0  0  0  0
   22.3215   -6.0995  -13.0553 O   0  0  0  0  0  0  0  0  0  0  0  0
  2  1  1  0
  3  2  1  0
  4  3  2  0
  6  5  1  0
  7  8  1  0
  7  6  1  6
  8  3  1  0
  9  7  1  0
 10  9  2  0
 12 14  1  0
 12 11  1  0
 13 12  2  0
 15 14  1  0
 16 15  1  1
 16 17  1  0
 17  9  1  0
 18 19  1  0
 18 16  1  0
 20 18  2  0
M  END
$$$$
