GSQ.pdb
     RDKit          3D

 20 19  0  0  1  0  0  0  0  0999 V2000
   14.4767  -12.8395  -13.1479 N   0  0  0  0  0  0  0  0  0  0  0  0
   15.0427  -11.6839  -13.7707 C   0  0  0  0  0  0  0  0  0  0  0  0
   15.8911  -10.9341  -12.7843 C   0  0  0  0  0  0  0  0  0  0  0  0
   15.8136  -11.1651  -11.5504 O   0  0  0  0  0  0  0  0  0  0  0  0
   19.5495   -9.1039  -13.4205 O   0  0  0  0  0  0  0  0  0  0  0  0
   18.5553   -8.2480  -12.9853 C   0  0  0  0  0  0  0  0  0  0  0  0
   17.4950   -9.0371  -12.2714 C   0  0  2  0  0  0  0  0  0  0  0  0
   16.8111   -9.9390  -13.1974 N   0  0  0  0  0  0  0  0  0  0  0  0
   16.5417   -8.1295  -11.6271 C   0  0  0  0  0  0  0  0  0  0  0  0
   15.4003   -7.8694  -12.1420 O   0  0  0  0  0  0  0  0  0  0  0  0
   12.7392   -9.1415   -8.4915 N   0  0  0  0  0  0  0  0  0  0  0  0
   12.6901   -7.8172   -7.9773 C   0  0  0  0  0  0  0  0  0  0  0  0
   11.7918   -7.5292   -7.1711 O   0  0  0  0  0  0  0  0  0  0  0  0
   13.7238   -6.8455   -8.4368 C   0  0  0  0  0  0  0  0  0  0  0  0
   14.7548   -7.5729   -9.2354 C   0  0  0  0  0  0  0  0  0  0  0  0
   15.7857   -6.6283   -9.7616 C   0  0  2  0  0  0  0  0  0  0  0  0
   16.8135   -7.4851  -10.4007 N   0  0  0  0  0  0  0  0  0  0  0  0
   16.4696   -5.8379   -8.7070 C   0  0  0  0  0  0  0  0  0  0  0  0
   15.9167   -4.6337   -8.2364 O   0  0  0  0  0  0  0  0  0  0  0  0
   17.5601   -6.1791   -8.1749 O   0  0  0  0  0  0  0  0  0  0  0  0
  2  1  1  0
  3  2  1  0
  4  3  2  0
  6  5  1  0
  7  8  1  0
  7  6  1  6
  8  3  1  0
  9  7  1  0
 10  9  2  0
 12 14  1  0
 12 11  1  0
 13 12  2  0
 15 14  1  0
 16 15  1  1
 16 17  1  0
 17  9  1  0
 18 19  1  0
 18 16  1  0
 20 18  2  0
M  END
$$$$
