GSQ.pdb
     RDKit          3D

 20 19  0  0  1  0  0  0  0  0999 V2000
   20.1012  -11.1989  -17.0954 N   0  0  0  0  0  0  0  0  0  0  0  0
   18.8532  -11.0741  -16.4094 C   0  0  0  0  0  0  0  0  0  0  0  0
   18.7595   -9.7244  -15.7577 C   0  0  0  0  0  0  0  0  0  0  0  0
   18.2188   -8.7531  -16.3460 O   0  0  0  0  0  0  0  0  0  0  0  0
   18.4533   -8.5245  -11.6644 O   0  0  0  0  0  0  0  0  0  0  0  0
   19.6183   -8.2814  -12.3673 C   0  0  0  0  0  0  0  0  0  0  0  0
   19.3026   -8.1661  -13.8314 C   0  0  2  0  0  0  0  0  0  0  0  0
   19.2731   -9.4867  -14.4589 N   0  0  0  0  0  0  0  0  0  0  0  0
   20.2824   -7.2975  -14.4895 C   0  0  0  0  0  0  0  0  0  0  0  0
   21.3733   -7.7541  -14.9762 O   0  0  0  0  0  0  0  0  0  0  0  0
   20.8542   -1.4708  -18.7343 N   0  0  0  0  0  0  0  0  0  0  0  0
   20.2157   -2.3409  -17.8093 C   0  0  0  0  0  0  0  0  0  0  0  0
   18.9825   -2.4648  -17.8689 O   0  0  0  0  0  0  0  0  0  0  0  0
   21.0662   -3.0583  -16.8162 C   0  0  0  0  0  0  0  0  0  0  0  0
   20.2125   -4.0038  -16.0371 C   0  0  0  0  0  0  0  0  0  0  0  0
   21.0356   -5.1009  -15.4449 C   0  0  2  0  0  0  0  0  0  0  0  0
   20.0911   -5.9061  -14.6335 N   0  0  0  0  0  0  0  0  0  0  0  0
   22.1020   -4.6234  -14.5288 C   0  0  0  0  0  0  0  0  0  0  0  0
   22.0034   -4.8253  -13.1407 O   0  0  0  0  0  0  0  0  0  0  0  0
   23.1393   -4.0220  -14.9174 O   0  0  0  0  0  0  0  0  0  0  0  0
  2  1  1  0
  3  2  1  0
  4  3  2  0
  6  5  1  0
  7  8  1  0
  7  6  1  1
  8  3  1  0
  9  7  1  0
 10  9  2  0
 12 14  1  0
 12 11  1  0
 13 12  2  0
 15 14  1  0
 16 15  1  1
 16 17  1  0
 17  9  1  0
 18 19  1  0
 18 16  1  0
 20 18  2  0
M  END
$$$$
