GSQ.pdb
     RDKit          3D

 20 19  0  0  1  0  0  0  0  0999 V2000
   13.1348  -11.6406  -10.6496 N   0  0  0  0  0  0  0  0  0  0  0  0
   14.0113  -10.8391  -11.4452 C   0  0  0  0  0  0  0  0  0  0  0  0
   14.6269   -9.7606  -10.6009 C   0  0  0  0  0  0  0  0  0  0  0  0
   13.9477   -9.1337   -9.7478 O   0  0  0  0  0  0  0  0  0  0  0  0
   18.1630   -7.9291  -11.6621 O   0  0  0  0  0  0  0  0  0  0  0  0
   18.0750   -8.2055  -10.3107 C   0  0  0  0  0  0  0  0  0  0  0  0
   16.6311   -8.3598   -9.9261 C   0  0  2  0  0  0  0  0  0  0  0  0
   15.9921   -9.4034  -10.7270 N   0  0  0  0  0  0  0  0  0  0  0  0
   15.9309   -7.0817  -10.0801 C   0  0  0  0  0  0  0  0  0  0  0  0
   15.4178   -6.7205  -11.1944 O   0  0  0  0  0  0  0  0  0  0  0  0
   13.1511   -4.0765   -5.6164 N   0  0  0  0  0  0  0  0  0  0  0  0
   13.0516   -3.0557   -6.6005 C   0  0  0  0  0  0  0  0  0  0  0  0
   12.4616   -2.0049   -6.3047 O   0  0  0  0  0  0  0  0  0  0  0  0
   13.6637   -3.3055   -7.9374 C   0  0  0  0  0  0  0  0  0  0  0  0
   14.3200   -4.6468   -7.9293 C   0  0  0  0  0  0  0  0  0  0  0  0
   15.0254   -4.9029   -9.2210 C   0  0  2  0  0  0  0  0  0  0  0  0
   15.7729   -6.1671   -9.0163 N   0  0  0  0  0  0  0  0  0  0  0  0
   16.0198   -3.8600   -9.5788 C   0  0  0  0  0  0  0  0  0  0  0  0
   17.3901   -4.0557   -9.3314 O   0  0  0  0  0  0  0  0  0  0  0  0
   15.7164   -2.7594  -10.1131 O   0  0  0  0  0  0  0  0  0  0  0  0
  2  1  1  0
  3  2  1  0
  4  3  2  0
  6  5  1  0
  7  8  1  0
  7  6  1  6
  8  3  1  0
  9  7  1  0
 10  9  2  0
 12 14  1  0
 12 11  1  0
 13 12  2  0
 15 14  1  0
 16 15  1  1
 16 17  1  0
 17  9  1  0
 18 19  1  0
 18 16  1  0
 20 18  2  0
M  END
$$$$
