GSQ.pdb
     RDKit          3D

 20 19  0  0  1  0  0  0  0  0999 V2000
   14.7000  -11.7491  -11.0242 N   0  0  0  0  0  0  0  0  0  0  0  0
   15.3942  -11.0427   -9.9934 C   0  0  0  0  0  0  0  0  0  0  0  0
   15.6898   -9.6406  -10.4428 C   0  0  0  0  0  0  0  0  0  0  0  0
   15.7804   -9.3535  -11.6640 O   0  0  0  0  0  0  0  0  0  0  0  0
   14.5829   -6.3477   -8.3445 O   0  0  0  0  0  0  0  0  0  0  0  0
   15.9017   -6.2702   -8.7507 C   0  0  0  0  0  0  0  0  0  0  0  0
   16.1215   -7.1983   -9.9113 C   0  0  2  0  0  0  0  0  0  0  0  0
   15.8785   -8.5853   -9.5166 N   0  0  0  0  0  0  0  0  0  0  0  0
   17.4807   -7.0351  -10.4345 C   0  0  0  0  0  0  0  0  0  0  0  0
   18.5112   -7.3865   -9.7638 O   0  0  0  0  0  0  0  0  0  0  0  0
   22.0105   -9.3663  -15.0014 N   0  0  0  0  0  0  0  0  0  0  0  0
   20.8448   -9.1419  -14.2197 C   0  0  0  0  0  0  0  0  0  0  0  0
   20.0337  -10.0717  -14.0877 O   0  0  0  0  0  0  0  0  0  0  0  0
   20.6613   -7.7978  -13.6002 C   0  0  0  0  0  0  0  0  0  0  0  0
   19.3460   -7.7627  -12.8941 C   0  0  0  0  0  0  0  0  0  0  0  0
   19.1326   -6.4416  -12.2301 C   0  0  2  0  0  0  0  0  0  0  0  0
   17.7456   -6.4845  -11.7072 N   0  0  0  0  0  0  0  0  0  0  0  0
   19.2151   -5.2840  -13.1562 C   0  0  0  0  0  0  0  0  0  0  0  0
   18.0602   -4.7702  -13.7723 O   0  0  0  0  0  0  0  0  0  0  0  0
   20.2922   -4.6977  -13.4473 O   0  0  0  0  0  0  0  0  0  0  0  0
  2  1  1  0
  3  2  1  0
  4  3  2  0
  6  5  1  0
  7  8  1  0
  7  6  1  1
  8  3  1  0
  9  7  1  0
 10  9  2  0
 12 14  1  0
 12 11  1  0
 13 12  2  0
 15 14  1  0
 16 15  1  6
 16 17  1  0
 17  9  1  0
 18 19  1  0
 18 16  1  0
 20 18  2  0
M  END
$$$$
