GSQ.pdb
     RDKit          3D

 20 19  0  0  1  0  0  0  0  0999 V2000
   28.7089  -12.6515  -19.1121 N   0  0  0  0  0  0  0  0  0  0  0  0
   28.8129  -11.7152  -18.0368 C   0  0  0  0  0  0  0  0  0  0  0  0
   27.4426  -11.3331  -17.5559 C   0  0  0  0  0  0  0  0  0  0  0  0
   26.4212  -11.5556  -18.2554 O   0  0  0  0  0  0  0  0  0  0  0  0
   27.0863   -9.2648  -14.0267 O   0  0  0  0  0  0  0  0  0  0  0  0
   25.9669  -10.0121  -14.3410 C   0  0  0  0  0  0  0  0  0  0  0  0
   25.9331  -10.2613  -15.8220 C   0  0  2  0  0  0  0  0  0  0  0  0
   27.2406  -10.7087  -16.3003 N   0  0  0  0  0  0  0  0  0  0  0  0
   25.5069   -9.0485  -16.5257 C   0  0  0  0  0  0  0  0  0  0  0  0
   26.3443   -8.2616  -17.0870 O   0  0  0  0  0  0  0  0  0  0  0  0
   23.5049   -8.4144  -21.5144 N   0  0  0  0  0  0  0  0  0  0  0  0
   22.6774   -7.3752  -21.0090 C   0  0  0  0  0  0  0  0  0  0  0  0
   21.7480   -6.9613  -21.7194 O   0  0  0  0  0  0  0  0  0  0  0  0
   22.9734   -6.8388  -19.6492 C   0  0  0  0  0  0  0  0  0  0  0  0
   23.4740   -7.9497  -18.7861 C   0  0  0  0  0  0  0  0  0  0  0  0
   23.7736   -7.4598  -17.4070 C   0  0  2  0  0  0  0  0  0  0  0  0
   24.1518   -8.6677  -16.6346 N   0  0  0  0  0  0  0  0  0  0  0  0
   22.6073   -6.8492  -16.7204 C   0  0  0  0  0  0  0  0  0  0  0  0
   22.3730   -5.4645  -16.7913 O   0  0  0  0  0  0  0  0  0  0  0  0
   21.7703   -7.5075  -16.0462 O   0  0  0  0  0  0  0  0  0  0  0  0
  2  1  1  0
  3  2  1  0
  4  3  2  0
  6  5  1  0
  7  8  1  0
  7  6  1  1
  8  3  1  0
  9  7  1  0
 10  9  2  0
 12 14  1  0
 12 11  1  0
 13 12  2  0
 15 14  1  0
 16 15  1  6
 16 17  1  0
 17  9  1  0
 18 19  1  0
 18 16  1  0
 20 18  2  0
M  END
$$$$
