GSQ.pdb
     RDKit          3D

 20 19  0  0  1  0  0  0  0  0999 V2000
   16.7462  -10.8714  -16.9736 N   0  0  0  0  0  0  0  0  0  0  0  0
   17.8295  -10.1403  -17.5530 C   0  0  0  0  0  0  0  0  0  0  0  0
   18.4828   -9.2798  -16.5100 C   0  0  0  0  0  0  0  0  0  0  0  0
   17.7974   -8.5998  -15.7039 O   0  0  0  0  0  0  0  0  0  0  0  0
   22.5260   -8.2066  -14.0758 O   0  0  0  0  0  0  0  0  0  0  0  0
   21.9488   -8.9223  -15.1077 C   0  0  0  0  0  0  0  0  0  0  0  0
   20.5683   -8.3920  -15.3716 C   0  0  2  0  0  0  0  0  0  0  0  0
   19.8918   -9.1962  -16.3885 N   0  0  0  0  0  0  0  0  0  0  0  0
   20.6399   -6.9865  -15.7803 C   0  0  0  0  0  0  0  0  0  0  0  0
   20.9863   -6.6416  -16.9619 O   0  0  0  0  0  0  0  0  0  0  0  0
   17.8937   -0.8051  -13.8004 N   0  0  0  0  0  0  0  0  0  0  0  0
   17.8375   -1.8308  -14.7828 C   0  0  0  0  0  0  0  0  0  0  0  0
   16.7255   -2.1858  -15.2038 O   0  0  0  0  0  0  0  0  0  0  0  0
   19.1219   -2.4245  -15.2540 C   0  0  0  0  0  0  0  0  0  0  0  0
   19.1280   -3.8841  -14.9387 C   0  0  0  0  0  0  0  0  0  0  0  0
   20.4071   -4.5189  -15.3777 C   0  0  2  0  0  0  0  0  0  0  0  0
   20.3313   -5.9224  -14.9052 N   0  0  0  0  0  0  0  0  0  0  0  0
   21.6176   -3.9160  -14.7647 C   0  0  0  0  0  0  0  0  0  0  0  0
   22.2348   -2.7926  -15.3429 O   0  0  0  0  0  0  0  0  0  0  0  0
   22.1615   -4.3542  -13.7155 O   0  0  0  0  0  0  0  0  0  0  0  0
  2  1  1  0
  3  2  1  0
  4  3  2  0
  6  5  1  0
  7  8  1  0
  7  6  1  6
  8  3  1  0
  9  7  1  0
 10  9  2  0
 12 14  1  0
 12 11  1  0
 13 12  2  0
 15 14  1  0
 16 15  1  1
 16 17  1  0
 17  9  1  0
 18 19  1  0
 18 16  1  0
 20 18  2  0
M  END
$$$$
