GSQ.pdb
     RDKit          3D

 20 19  0  0  1  0  0  0  0  0999 V2000
   14.3006  -12.2704  -14.4789 N   0  0  0  0  0  0  0  0  0  0  0  0
   13.5127  -11.7350  -13.4129 C   0  0  0  0  0  0  0  0  0  0  0  0
   13.2948  -10.2645  -13.6255 C   0  0  0  0  0  0  0  0  0  0  0  0
   13.7319   -9.6828  -14.6514 O   0  0  0  0  0  0  0  0  0  0  0  0
   11.7669   -8.0098  -10.5742 O   0  0  0  0  0  0  0  0  0  0  0  0
   11.3918   -7.5345  -11.8166 C   0  0  0  0  0  0  0  0  0  0  0  0
   12.3532   -8.0389  -12.8548 C   0  0  2  0  0  0  0  0  0  0  0  0
   12.5913   -9.4718  -12.6853 N   0  0  0  0  0  0  0  0  0  0  0  0
   13.6101   -7.2888  -12.7821 C   0  0  0  0  0  0  0  0  0  0  0  0
   14.6699   -7.7910  -12.2722 O   0  0  0  0  0  0  0  0  0  0  0  0
   17.5999   -7.3910  -15.7036 N   0  0  0  0  0  0  0  0  0  0  0  0
   18.1587   -6.2290  -15.1054 C   0  0  0  0  0  0  0  0  0  0  0  0
   19.3489   -5.9614  -15.3323 O   0  0  0  0  0  0  0  0  0  0  0  0
   17.2805   -5.3940  -14.2361 C   0  0  0  0  0  0  0  0  0  0  0  0
   15.9564   -6.0688  -14.0904 C   0  0  0  0  0  0  0  0  0  0  0  0
   15.0475   -5.2749  -13.2098 C   0  0  2  0  0  0  0  0  0  0  0  0
   13.7388   -5.9696  -13.2682 N   0  0  0  0  0  0  0  0  0  0  0  0
   14.8249   -3.8830  -13.6764 C   0  0  0  0  0  0  0  0  0  0  0  0
   15.7236   -2.8565  -13.3363 O   0  0  0  0  0  0  0  0  0  0  0  0
   13.8453   -3.5331  -14.3882 O   0  0  0  0  0  0  0  0  0  0  0  0
  2  1  1  0
  3  2  1  0
  4  3  2  0
  6  5  1  0
  7  8  1  0
  7  6  1  1
  8  3  1  0
  9  7  1  0
 10  9  2  0
 12 14  1  0
 12 11  1  0
 13 12  2  0
 15 14  1  0
 16 15  1  6
 16 17  1  0
 17  9  1  0
 18 19  1  0
 18 16  1  0
 20 18  2  0
M  END
$$$$
