GSQ.pdb
     RDKit          3D

 20 19  0  0  1  0  0  0  0  0999 V2000
   17.0924  -11.5057  -15.2334 N   0  0  0  0  0  0  0  0  0  0  0  0
   16.4744  -10.4423  -15.9620 C   0  0  0  0  0  0  0  0  0  0  0  0
   17.3915   -9.2542  -16.0110 C   0  0  0  0  0  0  0  0  0  0  0  0
   18.5823   -9.3661  -16.4001 O   0  0  0  0  0  0  0  0  0  0  0  0
   16.2340   -5.6178  -14.3701 O   0  0  0  0  0  0  0  0  0  0  0  0
   16.9864   -5.5256  -15.5259 C   0  0  0  0  0  0  0  0  0  0  0  0
   17.8076   -6.7730  -15.6873 C   0  0  2  0  0  0  0  0  0  0  0  0
   16.9586   -7.9621  -15.6234 N   0  0  0  0  0  0  0  0  0  0  0  0
   18.8530   -6.8225  -14.6614 C   0  0  0  0  0  0  0  0  0  0  0  0
   18.6747   -7.4121  -13.5408 O   0  0  0  0  0  0  0  0  0  0  0  0
   23.5443   -9.5730  -14.3974 N   0  0  0  0  0  0  0  0  0  0  0  0
   23.5223   -8.6208  -15.4524 C   0  0  0  0  0  0  0  0  0  0  0  0
   24.2447   -8.8180  -16.4418 O   0  0  0  0  0  0  0  0  0  0  0  0
   22.6296   -7.4345  -15.3107 C   0  0  0  0  0  0  0  0  0  0  0  0
   21.9259   -7.5093  -13.9958 C   0  0  0  0  0  0  0  0  0  0  0  0
   21.1262   -6.2719  -13.7480 C   0  0  2  0  0  0  0  0  0  0  0  0
   20.1217   -6.2289  -14.8379 N   0  0  0  0  0  0  0  0  0  0  0  0
   21.9178   -5.0187  -13.8332 C   0  0  0  0  0  0  0  0  0  0  0  0
   21.6858   -4.0882  -14.8617 O   0  0  0  0  0  0  0  0  0  0  0  0
   22.8257   -4.7089  -13.0156 O   0  0  0  0  0  0  0  0  0  0  0  0
  2  1  1  0
  3  2  1  0
  4  3  2  0
  6  5  1  0
  7  8  1  0
  7  6  1  1
  8  3  1  0
  9  7  1  0
 10  9  2  0
 12 14  1  0
 12 11  1  0
 13 12  2  0
 15 14  1  0
 16 15  1  6
 16 17  1  0
 17  9  1  0
 18 19  1  0
 18 16  1  0
 20 18  2  0
M  END
$$$$
