GSQ.pdb
     RDKit          3D

 20 19  0  0  1  0  0  0  0  0999 V2000
   11.9564  -11.2545  -10.4248 N   0  0  0  0  0  0  0  0  0  0  0  0
   13.2932  -11.4774  -10.8798 C   0  0  0  0  0  0  0  0  0  0  0  0
   14.2173  -10.4616  -10.2720 C   0  0  0  0  0  0  0  0  0  0  0  0
   13.9889   -9.9699   -9.1371 O   0  0  0  0  0  0  0  0  0  0  0  0
   18.3230   -7.8743  -10.7652 O   0  0  0  0  0  0  0  0  0  0  0  0
   17.4548   -8.7907  -11.3279 C   0  0  0  0  0  0  0  0  0  0  0  0
   16.2832   -8.9965  -10.4105 C   0  0  2  0  0  0  0  0  0  0  0  0
   15.3805  -10.0148  -10.9461 N   0  0  0  0  0  0  0  0  0  0  0  0
   15.5771   -7.7288  -10.2055 C   0  0  0  0  0  0  0  0  0  0  0  0
   14.7736   -7.2523  -11.0788 O   0  0  0  0  0  0  0  0  0  0  0  0
   11.7490   -5.6750   -6.4922 N   0  0  0  0  0  0  0  0  0  0  0  0
   12.6418   -4.5958   -6.2507 C   0  0  0  0  0  0  0  0  0  0  0  0
   12.2942   -3.7072   -5.4573 O   0  0  0  0  0  0  0  0  0  0  0  0
   13.9502   -4.5917   -6.9664 C   0  0  0  0  0  0  0  0  0  0  0  0
   14.0604   -5.8348   -7.7863 C   0  0  0  0  0  0  0  0  0  0  0  0
   15.0322   -5.6506   -8.9059 C   0  0  2  0  0  0  0  0  0  0  0  0
   15.7314   -6.9516   -9.0370 N   0  0  0  0  0  0  0  0  0  0  0  0
   16.0689   -4.6221   -8.6376 C   0  0  0  0  0  0  0  0  0  0  0  0
   15.7614   -3.2521   -8.7129 O   0  0  0  0  0  0  0  0  0  0  0  0
   17.2611   -4.8948   -8.3328 O   0  0  0  0  0  0  0  0  0  0  0  0
  2  1  1  0
  3  2  1  0
  4  3  2  0
  6  5  1  0
  7  8  1  0
  7  6  1  6
  8  3  1  0
  9  7  1  0
 10  9  2  0
 12 14  1  0
 12 11  1  0
 13 12  2  0
 15 14  1  0
 16 15  1  1
 16 17  1  0
 17  9  1  0
 18 19  1  0
 18 16  1  0
 20 18  2  0
M  END
$$$$
