EGG.pdb
     RDKit          3D

 18 17  0  0  1  0  0  0  0  0999 V2000
   20.4530  -12.3843  -17.0696 N   0  0  0  0  0  0  0  0  0  0  0  0
   19.2945  -11.4773  -17.0075 C   0  0  1  0  0  0  0  0  0  0  0  0
   18.3743  -12.0441  -15.9803 C   0  0  0  0  0  0  0  0  0  0  0  0
   17.9541  -13.4629  -16.2117 C   0  0  0  0  0  0  0  0  0  0  0  0
   16.9782  -13.9550  -15.2102 C   0  0  0  0  0  0  0  0  0  0  0  0
   17.2603  -14.4016  -14.0829 O   0  0  0  0  0  0  0  0  0  0  0  0
   19.7925  -10.1271  -16.6740 C   0  0  0  0  0  0  0  0  0  0  0  0
   21.0211   -9.9575  -16.4618 O   0  0  0  0  0  0  0  0  0  0  0  0
   15.6365  -13.9122  -15.5644 O   0  0  0  0  0  0  0  0  0  0  0  0
   18.9500   -8.9885  -16.5771 N   0  0  0  0  0  0  0  0  0  0  0  0
   19.4124   -7.6567  -16.3477 C   0  0  0  0  0  0  0  0  0  0  0  0
   20.1442   -7.5009  -15.0717 C   0  0  0  0  0  0  0  0  0  0  0  0
   20.0499   -8.2906  -14.1177 O   0  0  0  0  0  0  0  0  0  0  0  0
   21.0042   -6.3744  -14.9427 N   0  0  0  0  0  0  0  0  0  0  0  0
   21.7921   -6.1737  -13.7467 C   0  0  0  0  0  0  0  0  0  0  0  0
   22.5281   -4.8981  -13.8349 C   0  0  0  0  0  0  0  0  0  0  0  0
   23.3072   -4.5995  -14.9444 O   0  0  0  0  0  0  0  0  0  0  0  0
   22.4640   -4.0555  -12.9058 O   0  0  0  0  0  0  0  0  0  0  0  0
  2  1  1  1
  3  2  1  0
  4  3  1  0
  5  4  1  0
  5  6  2  0
  7  8  2  0
  7  2  1  0
  9  5  1  0
 10  7  1  0
 11 10  1  0
 12 11  1  0
 13 12  2  0
 14 12  1  0
 15 14  1  0
 16 15  1  0
 17 16  1  0
 18 16  2  0
M  END
$$$$
