EGG.pdb
     RDKit          3D

 18 17  0  0  1  0  0  0  0  0999 V2000
   16.9136   -9.3114  -10.3344 N   0  0  0  0  0  0  0  0  0  0  0  0
   17.1295   -8.5961  -11.6033 C   0  0  1  0  0  0  0  0  0  0  0  0
   15.9481   -7.7053  -11.7875 C   0  0  0  0  0  0  0  0  0  0  0  0
   14.6361   -8.4090  -11.9504 C   0  0  0  0  0  0  0  0  0  0  0  0
   13.5018   -7.4848  -12.1884 C   0  0  0  0  0  0  0  0  0  0  0  0
   13.5832   -6.2453  -12.2727 O   0  0  0  0  0  0  0  0  0  0  0  0
   18.4097   -7.8660  -11.5008 C   0  0  0  0  0  0  0  0  0  0  0  0
   18.9702   -7.7577  -10.3794 O   0  0  0  0  0  0  0  0  0  0  0  0
   12.2437   -8.0547  -12.3286 O   0  0  0  0  0  0  0  0  0  0  0  0
   19.0565   -7.2684  -12.6143 N   0  0  0  0  0  0  0  0  0  0  0  0
   20.2941   -6.5586  -12.5464 C   0  0  0  0  0  0  0  0  0  0  0  0
   21.3583   -7.1525  -13.3848 C   0  0  0  0  0  0  0  0  0  0  0  0
   22.4330   -6.5866  -13.6443 O   0  0  0  0  0  0  0  0  0  0  0  0
   21.1238   -8.4502  -13.9197 N   0  0  0  0  0  0  0  0  0  0  0  0
   22.0524   -9.0486  -14.8530 C   0  0  0  0  0  0  0  0  0  0  0  0
   21.4273   -9.1621  -16.1846 C   0  0  0  0  0  0  0  0  0  0  0  0
   21.7148   -8.2466  -17.1878 O   0  0  0  0  0  0  0  0  0  0  0  0
   20.6211  -10.0914  -16.4370 O   0  0  0  0  0  0  0  0  0  0  0  0
  2  1  1  1
  3  2  1  0
  4  3  1  0
  5  4  1  0
  5  6  2  0
  7  8  2  0
  7  2  1  0
  9  5  1  0
 10  7  1  0
 11 10  1  0
 12 11  1  0
 13 12  2  0
 14 12  1  0
 15 14  1  0
 16 15  1  0
 17 16  1  0
 18 16  2  0
M  END
$$$$
