EGG.pdb
     RDKit          3D

 18 17  0  0  1  0  0  0  0  0999 V2000
   17.2938  -12.0086  -17.2386 N   0  0  0  0  0  0  0  0  0  0  0  0
   18.6302  -11.3902  -17.2290 C   0  0  1  0  0  0  0  0  0  0  0  0
   19.0614  -11.3042  -18.6538 C   0  0  0  0  0  0  0  0  0  0  0  0
   18.7895  -12.5243  -19.4787 C   0  0  0  0  0  0  0  0  0  0  0  0
   19.2949  -12.4159  -20.8681 C   0  0  0  0  0  0  0  0  0  0  0  0
   19.0869  -11.4631  -21.6420 O   0  0  0  0  0  0  0  0  0  0  0  0
   18.5172  -10.0752  -16.5655 C   0  0  0  0  0  0  0  0  0  0  0  0
   17.4453   -9.4236  -16.6656 O   0  0  0  0  0  0  0  0  0  0  0  0
   20.0653  -13.4691  -21.3420 O   0  0  0  0  0  0  0  0  0  0  0  0
   19.5667   -9.4928  -15.8074 N   0  0  0  0  0  0  0  0  0  0  0  0
   19.5363   -8.1722  -15.2641 C   0  0  0  0  0  0  0  0  0  0  0  0
   20.7967   -7.7837  -14.5943 C   0  0  0  0  0  0  0  0  0  0  0  0
   21.6181   -8.5961  -14.1382 O   0  0  0  0  0  0  0  0  0  0  0  0
   21.0722   -6.3929  -14.4719 N   0  0  0  0  0  0  0  0  0  0  0  0
   22.3160   -5.9291  -13.8978 C   0  0  0  0  0  0  0  0  0  0  0  0
   22.4423   -4.4703  -14.0778 C   0  0  0  0  0  0  0  0  0  0  0  0
   22.0014   -3.5901  -13.0990 O   0  0  0  0  0  0  0  0  0  0  0  0
   22.9522   -3.9952  -15.1226 O   0  0  0  0  0  0  0  0  0  0  0  0
  2  1  1  6
  3  2  1  0
  4  3  1  0
  5  4  1  0
  5  6  2  0
  7  8  2  0
  7  2  1  0
  9  5  1  0
 10  7  1  0
 11 10  1  0
 12 11  1  0
 13 12  2  0
 14 12  1  0
 15 14  1  0
 16 15  1  0
 17 16  1  0
 18 16  2  0
M  END
$$$$
