EGG.pdb
     RDKit          3D

 18 17  0  0  1  0  0  0  0  0999 V2000
   18.4833  -11.2533  -16.6003 N   0  0  0  0  0  0  0  0  0  0  0  0
   18.2300  -10.1009  -15.7193 C   0  0  1  0  0  0  0  0  0  0  0  0
   17.0329  -10.4535  -14.9034 C   0  0  0  0  0  0  0  0  0  0  0  0
   15.7538  -10.5893  -15.6705 C   0  0  0  0  0  0  0  0  0  0  0  0
   14.5652  -10.7591  -14.8012 C   0  0  0  0  0  0  0  0  0  0  0  0
   13.9848   -9.8481  -14.1821 O   0  0  0  0  0  0  0  0  0  0  0  0
   19.4465   -9.8691  -14.9139 C   0  0  0  0  0  0  0  0  0  0  0  0
   20.0423  -10.8507  -14.3994 O   0  0  0  0  0  0  0  0  0  0  0  0
   14.0598  -12.0454  -14.6694 O   0  0  0  0  0  0  0  0  0  0  0  0
   19.9929   -8.5793  -14.6823 N   0  0  0  0  0  0  0  0  0  0  0  0
   21.1230   -8.3167  -13.8493 C   0  0  0  0  0  0  0  0  0  0  0  0
   21.5158   -6.8908  -13.8250 C   0  0  0  0  0  0  0  0  0  0  0  0
   22.4025   -6.4287  -13.0882 O   0  0  0  0  0  0  0  0  0  0  0  0
   20.8289   -6.0067  -14.7034 N   0  0  0  0  0  0  0  0  0  0  0  0
   21.0855   -4.5836  -14.6761 C   0  0  0  0  0  0  0  0  0  0  0  0
   22.1639   -4.2467  -15.6249 C   0  0  0  0  0  0  0  0  0  0  0  0
   22.3050   -2.9555  -16.1149 O   0  0  0  0  0  0  0  0  0  0  0  0
   22.9770   -5.1235  -16.0087 O   0  0  0  0  0  0  0  0  0  0  0  0
  2  1  1  6
  3  2  1  0
  4  3  1  0
  5  4  1  0
  5  6  2  0
  7  8  2  0
  7  2  1  0
  9  5  1  0
 10  7  1  0
 11 10  1  0
 12 11  1  0
 13 12  2  0
 14 12  1  0
 15 14  1  0
 16 15  1  0
 17 16  1  0
 18 16  2  0
M  END
$$$$
