EGG.pdb
     RDKit          3D

 18 17  0  0  1  0  0  0  0  0999 V2000
   19.2703  -11.4666  -16.0507 N   0  0  0  0  0  0  0  0  0  0  0  0
   20.7392  -11.3703  -16.0139 C   0  0  1  0  0  0  0  0  0  0  0  0
   21.2399  -12.1720  -17.1671 C   0  0  0  0  0  0  0  0  0  0  0  0
   20.5172  -13.4608  -17.4115 C   0  0  0  0  0  0  0  0  0  0  0  0
   21.0393  -14.2125  -18.5776 C   0  0  0  0  0  0  0  0  0  0  0  0
   21.4910  -13.7070  -19.6218 O   0  0  0  0  0  0  0  0  0  0  0  0
   21.1024   -9.9403  -16.0864 C   0  0  0  0  0  0  0  0  0  0  0  0
   22.3164   -9.6100  -16.0634 O   0  0  0  0  0  0  0  0  0  0  0  0
   21.0210  -15.5982  -18.4932 O   0  0  0  0  0  0  0  0  0  0  0  0
   20.1438   -8.8974  -16.1823 N   0  0  0  0  0  0  0  0  0  0  0  0
   20.4552   -7.5045  -16.1289 C   0  0  0  0  0  0  0  0  0  0  0  0
   20.8735   -7.0473  -14.7858 C   0  0  0  0  0  0  0  0  0  0  0  0
   20.7358   -7.7199  -13.7507 O   0  0  0  0  0  0  0  0  0  0  0  0
   21.4677   -5.7579  -14.6878 N   0  0  0  0  0  0  0  0  0  0  0  0
   21.7917   -5.1845  -13.4003 C   0  0  0  0  0  0  0  0  0  0  0  0
   22.2310   -3.7859  -13.5665 C   0  0  0  0  0  0  0  0  0  0  0  0
   22.3802   -3.2306  -14.8300 O   0  0  0  0  0  0  0  0  0  0  0  0
   22.4789   -3.0688  -12.5657 O   0  0  0  0  0  0  0  0  0  0  0  0
  2  1  1  6
  3  2  1  0
  4  3  1  0
  5  4  1  0
  5  6  2  0
  7  8  2  0
  7  2  1  0
  9  5  1  0
 10  7  1  0
 11 10  1  0
 12 11  1  0
 13 12  2  0
 14 12  1  0
 15 14  1  0
 16 15  1  0
 17 16  1  0
 18 16  2  0
M  END
$$$$
