EGG.pdb
     RDKit          3D

 18 17  0  0  1  0  0  0  0  0999 V2000
   24.3991  -11.0583  -16.1281 N   0  0  0  0  0  0  0  0  0  0  0  0
   24.8495  -10.9718  -17.5274 C   0  0  1  0  0  0  0  0  0  0  0  0
   23.9855  -11.9069  -18.3034 C   0  0  0  0  0  0  0  0  0  0  0  0
   23.4195  -13.0521  -17.5216 C   0  0  0  0  0  0  0  0  0  0  0  0
   22.6167  -13.9848  -18.3480 C   0  0  0  0  0  0  0  0  0  0  0  0
   22.9178  -15.1646  -18.6078 O   0  0  0  0  0  0  0  0  0  0  0  0
   24.7301   -9.5633  -17.9565 C   0  0  0  0  0  0  0  0  0  0  0  0
   25.1465   -9.2278  -19.0956 O   0  0  0  0  0  0  0  0  0  0  0  0
   21.4287  -13.4965  -18.8749 O   0  0  0  0  0  0  0  0  0  0  0  0
   24.1625   -8.5472  -17.1435 N   0  0  0  0  0  0  0  0  0  0  0  0
   23.7745   -7.2559  -17.6150 C   0  0  0  0  0  0  0  0  0  0  0  0
   22.9726   -6.4900  -16.6360 C   0  0  0  0  0  0  0  0  0  0  0  0
   22.4648   -5.3814  -16.8721 O   0  0  0  0  0  0  0  0  0  0  0  0
   22.7791   -7.0695  -15.3507 N   0  0  0  0  0  0  0  0  0  0  0  0
   21.9480   -6.4214  -14.3604 C   0  0  0  0  0  0  0  0  0  0  0  0
   22.6178   -5.2079  -13.8549 C   0  0  0  0  0  0  0  0  0  0  0  0
   23.7792   -4.7342  -14.4496 O   0  0  0  0  0  0  0  0  0  0  0  0
   22.1490   -4.5785  -12.8744 O   0  0  0  0  0  0  0  0  0  0  0  0
  2  1  1  1
  3  2  1  0
  4  3  1  0
  5  4  1  0
  5  6  2  0
  7  8  2  0
  7  2  1  0
  9  5  1  0
 10  7  1  0
 11 10  1  0
 12 11  1  0
 13 12  2  0
 14 12  1  0
 15 14  1  0
 16 15  1  0
 17 16  1  0
 18 16  2  0
M  END
$$$$
