EGG.pdb
     RDKit          3D

 18 17  0  0  1  0  0  0  0  0999 V2000
   24.5818  -18.7342  -16.7738 N   0  0  0  0  0  0  0  0  0  0  0  0
   23.7209  -19.2142  -15.6798 C   0  0  1  0  0  0  0  0  0  0  0  0
   22.6161  -19.9816  -16.3231 C   0  0  0  0  0  0  0  0  0  0  0  0
   21.6950  -19.1748  -17.1854 C   0  0  0  0  0  0  0  0  0  0  0  0
   22.1339  -19.0986  -18.5993 C   0  0  0  0  0  0  0  0  0  0  0  0
   22.7614  -19.9827  -19.2114 O   0  0  0  0  0  0  0  0  0  0  0  0
   24.5536  -20.0275  -14.7702 C   0  0  0  0  0  0  0  0  0  0  0  0
   24.0700  -20.4212  -13.6773 O   0  0  0  0  0  0  0  0  0  0  0  0
   21.8156  -17.9407  -19.2960 O   0  0  0  0  0  0  0  0  0  0  0  0
   25.8927  -20.3977  -15.0627 N   0  0  0  0  0  0  0  0  0  0  0  0
   26.7292  -21.1624  -14.1935 C   0  0  0  0  0  0  0  0  0  0  0  0
   26.8294  -20.5991  -12.8294 C   0  0  0  0  0  0  0  0  0  0  0  0
   27.7384  -19.8381  -12.4590 O   0  0  0  0  0  0  0  0  0  0  0  0
   25.8174  -20.9586  -11.8958 N   0  0  0  0  0  0  0  0  0  0  0  0
   25.9369  -20.6077  -10.4979 C   0  0  0  0  0  0  0  0  0  0  0  0
   24.7076  -20.9862   -9.7753 C   0  0  0  0  0  0  0  0  0  0  0  0
   24.6348  -20.8895   -8.3923 O   0  0  0  0  0  0  0  0  0  0  0  0
   23.7006  -21.4042  -10.3987 O   0  0  0  0  0  0  0  0  0  0  0  0
  2  1  1  6
  3  2  1  0
  4  3  1  0
  5  4  1  0
  5  6  2  0
  7  8  2  0
  7  2  1  0
  9  5  1  0
 10  7  1  0
 11 10  1  0
 12 11  1  0
 13 12  2  0
 14 12  1  0
 15 14  1  0
 16 15  1  0
 17 16  1  0
 18 16  2  0
M  END
$$$$
