EGG.pdb
     RDKit          3D

 18 17  0  0  1  0  0  0  0  0999 V2000
   23.7048  -18.7249  -17.2855 N   0  0  0  0  0  0  0  0  0  0  0  0
   24.1580  -18.2180  -15.9794 C   0  0  1  0  0  0  0  0  0  0  0  0
   23.0222  -18.4212  -15.0350 C   0  0  0  0  0  0  0  0  0  0  0  0
   21.6632  -18.4408  -15.6643 C   0  0  0  0  0  0  0  0  0  0  0  0
   20.5678  -18.6395  -14.6855 C   0  0  0  0  0  0  0  0  0  0  0  0
   20.6786  -19.1977  -13.5782 O   0  0  0  0  0  0  0  0  0  0  0  0
   25.3789  -18.9597  -15.6033 C   0  0  0  0  0  0  0  0  0  0  0  0
   25.4692  -20.1828  -15.8848 O   0  0  0  0  0  0  0  0  0  0  0  0
   19.3134  -18.1604  -15.0382 O   0  0  0  0  0  0  0  0  0  0  0  0
   26.4768  -18.3619  -14.9304 N   0  0  0  0  0  0  0  0  0  0  0  0
   27.6996  -19.0326  -14.6221 C   0  0  0  0  0  0  0  0  0  0  0  0
   27.5509  -20.0778  -13.5860 C   0  0  0  0  0  0  0  0  0  0  0  0
   28.4793  -20.8057  -13.1975 O   0  0  0  0  0  0  0  0  0  0  0  0
   26.2618  -20.2491  -13.0080 N   0  0  0  0  0  0  0  0  0  0  0  0
   26.0007  -21.3261  -12.0788 C   0  0  0  0  0  0  0  0  0  0  0  0
   24.7082  -21.9635  -12.3948 C   0  0  0  0  0  0  0  0  0  0  0  0
   23.5104  -21.3747  -12.0129 O   0  0  0  0  0  0  0  0  0  0  0  0
   24.6664  -23.0538  -13.0168 O   0  0  0  0  0  0  0  0  0  0  0  0
  2  1  1  6
  3  2  1  0
  4  3  1  0
  5  4  1  0
  5  6  2  0
  7  8  2  0
  7  2  1  0
  9  5  1  0
 10  7  1  0
 11 10  1  0
 12 11  1  0
 13 12  2  0
 14 12  1  0
 15 14  1  0
 16 15  1  0
 17 16  1  0
 18 16  2  0
M  END
$$$$
