EGG.pdb
     RDKit          3D

 18 17  0  0  1  0  0  0  0  0999 V2000
   21.4008  -11.0970  -17.0196 N   0  0  0  0  0  0  0  0  0  0  0  0
   20.8339   -9.7959  -16.6270 C   0  0  1  0  0  0  0  0  0  0  0  0
   19.5629  -10.0937  -15.9067 C   0  0  0  0  0  0  0  0  0  0  0  0
   18.5365  -10.8392  -16.7028 C   0  0  0  0  0  0  0  0  0  0  0  0
   17.3014  -11.1322  -15.9371 C   0  0  0  0  0  0  0  0  0  0  0  0
   17.1069  -12.1420  -15.2354 O   0  0  0  0  0  0  0  0  0  0  0  0
   21.8348   -9.0970  -15.7951 C   0  0  0  0  0  0  0  0  0  0  0  0
   22.9079   -9.6832  -15.4979 O   0  0  0  0  0  0  0  0  0  0  0  0
   16.2773  -10.1978  -16.0121 O   0  0  0  0  0  0  0  0  0  0  0  0
   21.6532   -7.7781  -15.3021 N   0  0  0  0  0  0  0  0  0  0  0  0
   22.5986   -7.0803  -14.4900 C   0  0  0  0  0  0  0  0  0  0  0  0
   22.1717   -5.7081  -14.1395 C   0  0  0  0  0  0  0  0  0  0  0  0
   22.8323   -4.9386  -13.4224 O   0  0  0  0  0  0  0  0  0  0  0  0
   20.9278   -5.2551  -14.6618 N   0  0  0  0  0  0  0  0  0  0  0  0
   20.4194   -3.9408  -14.3365 C   0  0  0  0  0  0  0  0  0  0  0  0
   20.7676   -2.9858  -15.4058 C   0  0  0  0  0  0  0  0  0  0  0  0
   20.1146   -1.7654  -15.5124 O   0  0  0  0  0  0  0  0  0  0  0  0
   21.6637   -3.2589  -16.2423 O   0  0  0  0  0  0  0  0  0  0  0  0
  2  1  1  1
  3  2  1  0
  4  3  1  0
  5  4  1  0
  5  6  2  0
  7  8  2  0
  7  2  1  0
  9  5  1  0
 10  7  1  0
 11 10  1  0
 12 11  1  0
 13 12  2  0
 14 12  1  0
 15 14  1  0
 16 15  1  0
 17 16  1  0
 18 16  2  0
M  END
$$$$
