EGG.pdb
     RDKit          3D

 18 17  0  0  1  0  0  0  0  0999 V2000
   22.1426  -13.0115  -17.9437 N   0  0  0  0  0  0  0  0  0  0  0  0
   21.4806  -11.8011  -18.4584 C   0  0  1  0  0  0  0  0  0  0  0  0
   20.0182  -12.0035  -18.2498 C   0  0  0  0  0  0  0  0  0  0  0  0
   19.5441  -13.4185  -18.3776 C   0  0  0  0  0  0  0  0  0  0  0  0
   18.4398  -13.7520  -17.4466 C   0  0  0  0  0  0  0  0  0  0  0  0
   17.6681  -14.7227  -17.5567 O   0  0  0  0  0  0  0  0  0  0  0  0
   22.0264  -10.6393  -17.7271 C   0  0  0  0  0  0  0  0  0  0  0  0
   22.6850  -10.8284  -16.6718 O   0  0  0  0  0  0  0  0  0  0  0  0
   18.2545  -12.9068  -16.3608 O   0  0  0  0  0  0  0  0  0  0  0  0
   21.8480   -9.2970  -18.1536 N   0  0  0  0  0  0  0  0  0  0  0  0
   22.4063   -8.1581  -17.4969 C   0  0  0  0  0  0  0  0  0  0  0  0
   21.4452   -7.4580  -16.6170 C   0  0  0  0  0  0  0  0  0  0  0  0
   20.2252   -7.6899  -16.6000 O   0  0  0  0  0  0  0  0  0  0  0  0
   21.9628   -6.4616  -15.7427 N   0  0  0  0  0  0  0  0  0  0  0  0
   21.0973   -5.7583  -14.8218 C   0  0  0  0  0  0  0  0  0  0  0  0
   21.9012   -4.9112  -13.9201 C   0  0  0  0  0  0  0  0  0  0  0  0
   21.2914   -4.0815  -12.9890 O   0  0  0  0  0  0  0  0  0  0  0  0
   23.1557   -4.9244  -13.9775 O   0  0  0  0  0  0  0  0  0  0  0  0
  2  1  1  1
  3  2  1  0
  4  3  1  0
  5  4  1  0
  5  6  2  0
  7  8  2  0
  7  2  1  0
  9  5  1  0
 10  7  1  0
 11 10  1  0
 12 11  1  0
 13 12  2  0
 14 12  1  0
 15 14  1  0
 16 15  1  0
 17 16  1  0
 18 16  2  0
M  END
$$$$
