EGG.pdb
     RDKit          3D

 18 17  0  0  1  0  0  0  0  0999 V2000
   19.2514   -8.1525  -16.2309 N   0  0  0  0  0  0  0  0  0  0  0  0
   19.2285   -8.6197  -14.8346 C   0  0  1  0  0  0  0  0  0  0  0  0
   19.5762  -10.0691  -14.8728 C   0  0  0  0  0  0  0  0  0  0  0  0
   18.5493  -10.9564  -15.5063 C   0  0  0  0  0  0  0  0  0  0  0  0
   18.9797  -12.3714  -15.6057 C   0  0  0  0  0  0  0  0  0  0  0  0
   18.4342  -13.3358  -15.0379 O   0  0  0  0  0  0  0  0  0  0  0  0
   20.1891   -7.8016  -14.0663 C   0  0  0  0  0  0  0  0  0  0  0  0
   20.2081   -7.8885  -12.8112 O   0  0  0  0  0  0  0  0  0  0  0  0
   20.0859  -12.6389  -16.4008 O   0  0  0  0  0  0  0  0  0  0  0  0
   21.1092   -6.9066  -14.6728 N   0  0  0  0  0  0  0  0  0  0  0  0
   22.0856   -6.1445  -13.9615 C   0  0  0  0  0  0  0  0  0  0  0  0
   21.8862   -4.6832  -14.0744 C   0  0  0  0  0  0  0  0  0  0  0  0
   22.6813   -3.8388  -13.6301 O   0  0  0  0  0  0  0  0  0  0  0  0
   20.7088   -4.2313  -14.7338 N   0  0  0  0  0  0  0  0  0  0  0  0
   20.5570   -2.8452  -15.1174 C   0  0  0  0  0  0  0  0  0  0  0  0
   20.2158   -2.0289  -13.9368 C   0  0  0  0  0  0  0  0  0  0  0  0
   19.9635   -0.6692  -14.0586 O   0  0  0  0  0  0  0  0  0  0  0  0
   20.1467   -2.5494  -12.7960 O   0  0  0  0  0  0  0  0  0  0  0  0
  2  1  1  6
  3  2  1  0
  4  3  1  0
  5  4  1  0
  5  6  2  0
  7  8  2  0
  7  2  1  0
  9  5  1  0
 10  7  1  0
 11 10  1  0
 12 11  1  0
 13 12  2  0
 14 12  1  0
 15 14  1  0
 16 15  1  0
 17 16  1  0
 18 16  2  0
M  END
$$$$
