GHC.pdb
     RDKit          3D

 21 21  0  0  1  0  0  0  0  0999 V2000
   21.5926  -20.6873  -12.1161 N   0  0  0  0  0  0  0  0  0  0  0  0
   22.9002  -20.2803  -12.5389 C   0  0  0  0  0  0  0  0  0  0  0  0
   23.9161  -20.9271  -11.7028 C   0  0  0  0  0  0  0  0  0  0  0  0
   23.9951  -22.1560  -11.5964 O   0  0  0  0  0  0  0  0  0  0  0  0
   24.8482  -20.1131  -10.9849 N   0  0  0  0  0  0  0  0  0  0  0  0
   26.0553  -20.6348  -10.4240 C   0  0  1  0  0  0  0  0  0  0  0  0
   27.3114  -20.3989  -11.1450 C   0  0  0  0  0  0  0  0  0  0  0  0
   27.3479  -20.5591  -12.5866 C   0  0  0  0  0  0  0  0  0  0  0  0
   27.4241  -19.5956  -13.5460 C   0  0  0  0  0  0  0  0  0  0  0  0
   27.4608  -20.2670  -14.7375 N   0  0  0  0  0  0  0  0  0  0  0  0
   27.4091  -21.5887  -14.5064 C   0  0  0  0  0  0  0  0  0  0  0  0
   27.3390  -21.7946  -13.1833 N   0  0  0  0  0  0  0  0  0  0  0  0
   26.1294  -20.1170   -9.0072 C   0  0  0  0  0  0  0  0  0  0  0  0
   25.6894  -18.9789   -8.6854 O   0  0  0  0  0  0  0  0  0  0  0  0
   26.6988  -20.8809   -7.9539 N   0  0  0  0  0  0  0  0  0  0  0  0
   26.8678  -20.3318   -6.6240 C   0  0  1  0  0  0  0  0  0  0  0  0
   27.2271  -21.4721   -5.6633 C   0  0  0  0  0  0  0  0  0  0  0  0
   27.5773  -20.7454   -4.0525 S   0  0  0  0  0  0  0  0  0  0  0  0
   28.0197  -19.3883   -6.6414 C   0  0  0  0  0  0  0  0  0  0  0  0
   28.9545  -19.5178   -7.4738 O   0  0  0  0  0  0  0  0  0  0  0  0
   28.1199  -18.3287   -5.7495 O   0  0  0  0  0  0  0  0  0  0  0  0
  1  2  1  0
  3  4  2  0
  3  2  1  0
  5  3  1  0
  6 13  1  0
  6  5  1  0
  6  7  1  6
  8  7  1  0
  9  8  2  0
 10 11  1  0
 10  9  1  0
 11 12  2  0
 12  8  1  0
 13 15  1  0
 14 13  2  0
 15 16  1  0
 16 17  1  1
 17 18  1  0
 19 21  1  0
 19 16  1  0
 20 19  2  0
M  END
$$$$
