GHC.pdb
     RDKit          3D

 21 21  0  0  1  0  0  0  0  0999 V2000
   33.5504  -32.4099  -15.6585 N   0  0  0  0  0  0  0  0  0  0  0  0
   32.6802  -31.9113  -16.6822 C   0  0  0  0  0  0  0  0  0  0  0  0
   31.2997  -31.8816  -16.1894 C   0  0  0  0  0  0  0  0  0  0  0  0
   30.9751  -32.3929  -15.1120 O   0  0  0  0  0  0  0  0  0  0  0  0
   30.2925  -31.2409  -16.9780 N   0  0  0  0  0  0  0  0  0  0  0  0
   28.9550  -31.0477  -16.5116 C   0  0  1  0  0  0  0  0  0  0  0  0
   28.0940  -30.1146  -17.2473 C   0  0  0  0  0  0  0  0  0  0  0  0
   26.7488  -29.8563  -16.7689 C   0  0  0  0  0  0  0  0  0  0  0  0
   26.3514  -29.4488  -15.5317 C   0  0  0  0  0  0  0  0  0  0  0  0
   24.9913  -29.3223  -15.6068 N   0  0  0  0  0  0  0  0  0  0  0  0
   24.5814  -29.6413  -16.8451 C   0  0  0  0  0  0  0  0  0  0  0  0
   25.6504  -29.9749  -17.5826 N   0  0  0  0  0  0  0  0  0  0  0  0
   28.3288  -32.4193  -16.4226 C   0  0  0  0  0  0  0  0  0  0  0  0
   28.5490  -33.3140  -17.2848 O   0  0  0  0  0  0  0  0  0  0  0  0
   27.4556  -32.7823  -15.3631 N   0  0  0  0  0  0  0  0  0  0  0  0
   26.8565  -34.0993  -15.2912 C   0  0  1  0  0  0  0  0  0  0  0  0
   26.9481  -34.6028  -13.8454 C   0  0  0  0  0  0  0  0  0  0  0  0
   26.1005  -36.1902  -13.7602 S   0  0  0  0  0  0  0  0  0  0  0  0
   25.4107  -33.9837  -15.6287 C   0  0  0  0  0  0  0  0  0  0  0  0
   24.7851  -32.9064  -15.4514 O   0  0  0  0  0  0  0  0  0  0  0  0
   24.6869  -35.0476  -16.1508 O   0  0  0  0  0  0  0  0  0  0  0  0
  1  2  1  0
  3  4  2  0
  3  2  1  0
  5  3  1  0
  6 13  1  0
  6  5  1  0
  6  7  1  6
  8  7  1  0
  9  8  2  0
 10 11  1  0
 10  9  1  0
 11 12  2  0
 12  8  1  0
 13 15  1  0
 14 13  2  0
 15 16  1  0
 16 17  1  1
 17 18  1  0
 19 21  1  0
 19 16  1  0
 20 19  2  0
M  END
$$$$
