GHC.pdb
     RDKit          3D

 21 21  0  0  1  0  0  0  0  0999 V2000
   23.3222   -9.9341  -19.1483 N   0  0  0  0  0  0  0  0  0  0  0  0
   22.9705  -10.4377  -17.8533 C   0  0  0  0  0  0  0  0  0  0  0  0
   21.8638   -9.6521  -17.2988 C   0  0  0  0  0  0  0  0  0  0  0  0
   20.8359   -9.4178  -17.9439 O   0  0  0  0  0  0  0  0  0  0  0  0
   21.9731   -9.1381  -15.9681 N   0  0  0  0  0  0  0  0  0  0  0  0
   20.9338   -8.3775  -15.3476 C   0  0  1  0  0  0  0  0  0  0  0  0
   20.0935   -9.0431  -14.3455 C   0  0  0  0  0  0  0  0  0  0  0  0
   19.1757  -10.0864  -14.7629 C   0  0  0  0  0  0  0  0  0  0  0  0
   19.4600  -11.3563  -15.1643 C   0  0  0  0  0  0  0  0  0  0  0  0
   18.2490  -11.9407  -15.4167 N   0  0  0  0  0  0  0  0  0  0  0  0
   17.2680  -11.0558  -15.1760 C   0  0  0  0  0  0  0  0  0  0  0  0
   17.8161   -9.9013  -14.7702 N   0  0  0  0  0  0  0  0  0  0  0  0
   21.5873   -7.1391  -14.7815 C   0  0  0  0  0  0  0  0  0  0  0  0
   22.4937   -7.2001  -13.9057 O   0  0  0  0  0  0  0  0  0  0  0  0
   21.2199   -5.8332  -15.2021 N   0  0  0  0  0  0  0  0  0  0  0  0
   21.8529   -4.6525  -14.6509 C   0  0  1  0  0  0  0  0  0  0  0  0
   22.5321   -3.8817  -15.7897 C   0  0  0  0  0  0  0  0  0  0  0  0
   23.7371   -4.9798  -16.5561 S   0  0  0  0  0  0  0  0  0  0  0  0
   20.7979   -3.7671  -14.0849 C   0  0  0  0  0  0  0  0  0  0  0  0
   19.5771   -4.0040  -14.2775 O   0  0  0  0  0  0  0  0  0  0  0  0
   21.1041   -2.6467  -13.3237 O   0  0  0  0  0  0  0  0  0  0  0  0
  1  2  1  0
  3  4  2  0
  3  2  1  0
  5  3  1  0
  6 13  1  0
  6  5  1  0
  6  7  1  1
  8  7  1  0
  9  8  2  0
 10 11  1  0
 10  9  1  0
 11 12  2  0
 12  8  1  0
 13 15  1  0
 14 13  2  0
 15 16  1  0
 16 17  1  6
 17 18  1  0
 19 21  1  0
 19 16  1  0
 20 19  2  0
M  END
$$$$
