GHC.pdb
     RDKit          3D

 21 21  0  0  1  0  0  0  0  0999 V2000
   20.0720  -16.2118  -18.1235 N   0  0  0  0  0  0  0  0  0  0  0  0
   19.6959  -14.8609  -18.4201 C   0  0  0  0  0  0  0  0  0  0  0  0
   19.9558  -14.0065  -17.2574 C   0  0  0  0  0  0  0  0  0  0  0  0
   19.8507  -14.4234  -16.0985 O   0  0  0  0  0  0  0  0  0  0  0  0
   20.3439  -12.6455  -17.4664 N   0  0  0  0  0  0  0  0  0  0  0  0
   20.6802  -11.7657  -16.3908 C   0  0  1  0  0  0  0  0  0  0  0  0
   22.0883  -11.3902  -16.2189 C   0  0  0  0  0  0  0  0  0  0  0  0
   23.0863  -12.4272  -16.0355 C   0  0  0  0  0  0  0  0  0  0  0  0
   23.8684  -13.0282  -16.9746 C   0  0  0  0  0  0  0  0  0  0  0  0
   24.6577  -13.9080  -16.2857 N   0  0  0  0  0  0  0  0  0  0  0  0
   24.3636  -13.8408  -14.9772 C   0  0  0  0  0  0  0  0  0  0  0  0
   23.3945  -12.9316  -14.7973 N   0  0  0  0  0  0  0  0  0  0  0  0
   19.8010  -10.5470  -16.5419 C   0  0  0  0  0  0  0  0  0  0  0  0
   19.4727  -10.0932  -17.6727 O   0  0  0  0  0  0  0  0  0  0  0  0
   19.2923   -9.8403  -15.4199 N   0  0  0  0  0  0  0  0  0  0  0  0
   18.4273   -8.6889  -15.5770 C   0  0  1  0  0  0  0  0  0  0  0  0
   17.4324   -8.6586  -14.4101 C   0  0  0  0  0  0  0  0  0  0  0  0
   16.4712   -7.1409  -14.5452 S   0  0  0  0  0  0  0  0  0  0  0  0
   19.2558   -7.4550  -15.4843 C   0  0  0  0  0  0  0  0  0  0  0  0
   20.3333   -7.4418  -14.8344 O   0  0  0  0  0  0  0  0  0  0  0  0
   18.8855   -6.2686  -16.1037 O   0  0  0  0  0  0  0  0  0  0  0  0
  1  2  1  0
  3  4  2  0
  3  2  1  0
  5  3  1  0
  6 13  1  0
  6  5  1  0
  6  7  1  6
  8  7  1  0
  9  8  2  0
 10 11  1  0
 10  9  1  0
 11 12  2  0
 12  8  1  0
 13 15  1  0
 14 13  2  0
 15 16  1  0
 16 17  1  1
 17 18  1  0
 19 21  1  0
 19 16  1  0
 20 19  2  0
M  END
$$$$
