GHC.pdb
     RDKit          3D

 21 21  0  0  1  0  0  0  0  0999 V2000
   20.9142  -15.1219  -19.1067 N   0  0  0  0  0  0  0  0  0  0  0  0
   20.9814  -15.7067  -17.8000 C   0  0  0  0  0  0  0  0  0  0  0  0
   21.4011  -14.6958  -16.8246 C   0  0  0  0  0  0  0  0  0  0  0  0
   21.1895  -14.8230  -15.6135 O   0  0  0  0  0  0  0  0  0  0  0  0
   22.0780  -13.5227  -17.2852 N   0  0  0  0  0  0  0  0  0  0  0  0
   22.6289  -12.5502  -16.3937 C   0  0  1  0  0  0  0  0  0  0  0  0
   24.0651  -12.2636  -16.4847 C   0  0  0  0  0  0  0  0  0  0  0  0
   25.0218  -13.3289  -16.2502 C   0  0  0  0  0  0  0  0  0  0  0  0
   25.8351  -13.9520  -17.1474 C   0  0  0  0  0  0  0  0  0  0  0  0
   26.5611  -14.8543  -16.4189 N   0  0  0  0  0  0  0  0  0  0  0  0
   26.1999  -14.7787  -15.1277 C   0  0  0  0  0  0  0  0  0  0  0  0
   25.2491  -13.8421  -14.9981 N   0  0  0  0  0  0  0  0  0  0  0  0
   21.8062  -11.2952  -16.5656 C   0  0  0  0  0  0  0  0  0  0  0  0
   21.6842  -10.7214  -17.6828 O   0  0  0  0  0  0  0  0  0  0  0  0
   21.1216  -10.6877  -15.4798 N   0  0  0  0  0  0  0  0  0  0  0  0
   20.2296   -9.5637  -15.6787 C   0  0  1  0  0  0  0  0  0  0  0  0
   19.0793   -9.6640  -14.6693 C   0  0  0  0  0  0  0  0  0  0  0  0
   18.2359  -11.2310  -14.9492 S   0  0  0  0  0  0  0  0  0  0  0  0
   20.9722   -8.3080  -15.3800 C   0  0  0  0  0  0  0  0  0  0  0  0
   20.4297   -7.1815  -15.5222 O   0  0  0  0  0  0  0  0  0  0  0  0
   22.2873   -8.3160  -14.9339 O   0  0  0  0  0  0  0  0  0  0  0  0
  1  2  1  0
  3  4  2  0
  3  2  1  0
  5  3  1  0
  6 13  1  0
  6  5  1  0
  6  7  1  6
  8  7  1  0
  9  8  2  0
 10 11  1  0
 10  9  1  0
 11 12  2  0
 12  8  1  0
 13 15  1  0
 14 13  2  0
 15 16  1  0
 16 17  1  1
 17 18  1  0
 19 21  1  0
 19 16  1  0
 20 19  2  0
M  END
$$$$
