GHC.pdb
     RDKit          3D

 21 21  0  0  1  0  0  0  0  0999 V2000
   15.1152  -10.6631  -15.5521 N   0  0  0  0  0  0  0  0  0  0  0  0
   15.4416   -9.2897  -15.3045 C   0  0  0  0  0  0  0  0  0  0  0  0
   16.8197   -9.0228  -15.7278 C   0  0  0  0  0  0  0  0  0  0  0  0
   17.6454   -9.9285  -15.8880 O   0  0  0  0  0  0  0  0  0  0  0  0
   17.2261   -7.6716  -15.9642 N   0  0  0  0  0  0  0  0  0  0  0  0
   18.5184   -7.3330  -16.4733 C   0  0  1  0  0  0  0  0  0  0  0  0
   18.6084   -6.8179  -17.8443 C   0  0  0  0  0  0  0  0  0  0  0  0
   18.3644   -7.7124  -18.9603 C   0  0  0  0  0  0  0  0  0  0  0  0
   18.9942   -8.8808  -19.2650 C   0  0  0  0  0  0  0  0  0  0  0  0
   18.3729   -9.3494  -20.3902 N   0  0  0  0  0  0  0  0  0  0  0  0
   17.4021   -8.4952  -20.7522 C   0  0  0  0  0  0  0  0  0  0  0  0
   17.3771   -7.4745  -19.8830 N   0  0  0  0  0  0  0  0  0  0  0  0
   19.1313   -6.3708  -15.4835 C   0  0  0  0  0  0  0  0  0  0  0  0
   18.4701   -5.4280  -14.9675 O   0  0  0  0  0  0  0  0  0  0  0  0
   20.4880   -6.4709  -15.0755 N   0  0  0  0  0  0  0  0  0  0  0  0
   21.0576   -5.5589  -14.1048 C   0  0  1  0  0  0  0  0  0  0  0  0
   22.2526   -6.2431  -13.4294 C   0  0  0  0  0  0  0  0  0  0  0  0
   21.6172   -7.5986  -12.4273 S   0  0  0  0  0  0  0  0  0  0  0  0
   21.5800   -4.3640  -14.8236 C   0  0  0  0  0  0  0  0  0  0  0  0
   22.0389   -4.4562  -15.9917 O   0  0  0  0  0  0  0  0  0  0  0  0
   21.5874   -3.1004  -14.2477 O   0  0  0  0  0  0  0  0  0  0  0  0
  1  2  1  0
  3  4  2  0
  3  2  1  0
  5  3  1  0
  6 13  1  0
  6  5  1  0
  6  7  1  6
  8  7  1  0
  9  8  2  0
 10 11  1  0
 10  9  1  0
 11 12  2  0
 12  8  1  0
 13 15  1  0
 14 13  2  0
 15 16  1  0
 16 17  1  6
 17 18  1  0
 19 21  1  0
 19 16  1  0
 20 19  2  0
M  END
$$$$
