GHC.pdb
     RDKit          3D

 21 21  0  0  1  0  0  0  0  0999 V2000
   13.0629  -10.1565   -9.7806 N   0  0  0  0  0  0  0  0  0  0  0  0
   13.9313   -9.9096   -8.6675 C   0  0  0  0  0  0  0  0  0  0  0  0
   15.1757   -9.2919   -9.1360 C   0  0  0  0  0  0  0  0  0  0  0  0
   16.1542   -9.1415   -8.3960 O   0  0  0  0  0  0  0  0  0  0  0  0
   15.2645   -8.8474  -10.4929 N   0  0  0  0  0  0  0  0  0  0  0  0
   16.4019   -8.1466  -11.0019 C   0  0  1  0  0  0  0  0  0  0  0  0
   16.7813   -8.3683  -12.4019 C   0  0  0  0  0  0  0  0  0  0  0  0
   17.1870   -9.6938  -12.8302 C   0  0  0  0  0  0  0  0  0  0  0  0
   17.3406  -10.8188  -12.0784 C   0  0  0  0  0  0  0  0  0  0  0  0
   17.7034  -11.8012  -12.9587 N   0  0  0  0  0  0  0  0  0  0  0  0
   17.7663  -11.2884  -14.1982 C   0  0  0  0  0  0  0  0  0  0  0  0
   17.4509   -9.9863  -14.1446 N   0  0  0  0  0  0  0  0  0  0  0  0
   16.1642   -6.6816  -10.7223 C   0  0  0  0  0  0  0  0  0  0  0  0
   15.0650   -6.1191  -10.9828 O   0  0  0  0  0  0  0  0  0  0  0  0
   17.1639   -5.8511  -10.1498 N   0  0  0  0  0  0  0  0  0  0  0  0
   16.9492   -4.4324   -9.9506 C   0  0  1  0  0  0  0  0  0  0  0  0
   17.6013   -4.0176   -8.6258 C   0  0  0  0  0  0  0  0  0  0  0  0
   17.3756   -2.2407   -8.4333 S   0  0  0  0  0  0  0  0  0  0  0  0
   17.6437   -3.6886  -11.0377 C   0  0  0  0  0  0  0  0  0  0  0  0
   17.0861   -2.7270  -11.6275 O   0  0  0  0  0  0  0  0  0  0  0  0
   18.9285   -4.0147  -11.4516 O   0  0  0  0  0  0  0  0  0  0  0  0
  1  2  1  0
  3  4  2  0
  3  2  1  0
  5  3  1  0
  6 13  1  0
  6  5  1  0
  6  7  1  6
  8  7  1  0
  9  8  2  0
 10 11  1  0
 10  9  1  0
 11 12  2  0
 12  8  1  0
 13 15  1  0
 14 13  2  0
 15 16  1  0
 16 17  1  1
 17 18  1  0
 19 21  1  0
 19 16  1  0
 20 19  2  0
M  END
$$$$
