MYS.pdb
     RDKit          3D

 27 27  0  0  1  0  0  0  0  0999 V2000
    6.3140  -12.0552   17.6159 C   0  0  0  0  0  0  0  0  0  0  0  0
    7.8155  -12.3014   18.5774 S   0  0  0  0  0  0  0  0  0  0  0  0
    7.9092  -13.9791   19.1792 C   0  0  0  0  0  0  0  0  0  0  0  0
    9.0607  -14.2449   20.0978 C   0  0  0  0  0  0  0  0  0  0  0  0
    9.0366  -15.5795   20.7599 C   0  0  2  0  0  0  0  0  0  0  0  0
    7.7094  -16.0930   20.9965 N   0  0  0  0  0  0  0  0  0  0  0  0
    9.7857  -15.4875   22.0280 C   0  0  0  0  0  0  0  0  0  0  0  0
   10.9917  -15.1706   22.0235 O   0  0  0  0  0  0  0  0  0  0  0  0
   11.0593  -15.1844   30.8312 O   0  0  0  0  0  0  0  0  0  0  0  0
   10.5084  -15.1952   29.5710 C   0  0  0  0  0  0  0  0  0  0  0  0
   10.0702  -16.3842   29.0568 C   0  0  0  0  0  0  0  0  0  0  0  0
    9.5050  -16.4590   27.7906 C   0  0  0  0  0  0  0  0  0  0  0  0
    9.3603  -15.3415   26.9959 C   0  0  0  0  0  0  0  0  0  0  0  0
    8.7697  -15.3973   25.6441 C   0  0  0  0  0  0  0  0  0  0  0  0
    9.7559  -15.6681   24.5410 C   0  0  2  0  0  0  0  0  0  0  0  0
    9.1323  -15.7597   23.2499 N   0  0  0  0  0  0  0  0  0  0  0  0
   10.5052  -16.9157   24.7874 C   0  0  0  0  0  0  0  0  0  0  0  0
    9.9527  -18.0549   24.7924 O   0  0  0  0  0  0  0  0  0  0  0  0
    9.8079  -14.1264   27.5216 C   0  0  0  0  0  0  0  0  0  0  0  0
   10.3669  -14.0680   28.7805 C   0  0  0  0  0  0  0  0  0  0  0  0
   14.9339  -18.7763   24.4501 O   0  0  0  0  0  0  0  0  0  0  0  0
   14.0675  -17.6692   24.4051 C   0  0  0  0  0  0  0  0  0  0  0  0
   12.7441  -18.0028   25.0671 C   0  0  2  0  0  0  0  0  0  0  0  0
   11.9101  -16.8197   25.0283 N   0  0  0  0  0  0  0  0  0  0  0  0
   13.0308  -18.3281   26.4730 C   0  0  0  0  0  0  0  0  0  0  0  0
   13.5366  -19.5927   26.8042 O   0  0  0  0  0  0  0  0  0  0  0  0
   12.8275  -17.4896   27.3645 O   0  0  0  0  0  0  0  0  0  0  0  0
  2  1  1  0
  3  2  1  0
  4  3  1  0
  4  5  1  0
  5  7  1  0
  5  6  1  1
  7  8  2  0
  9 10  1  0
 10 20  2  0
 10 11  1  0
 11 12  2  0
 12 13  1  0
 13 14  1  0
 15 14  1  1
 16 15  1  0
 16  7  1  0
 17 24  1  0
 17 15  1  0
 18 17  2  0
 19 13  2  0
 20 19  1  0
 22 21  1  0
 23 24  1  0
 23 22  1  6
 25 23  1  0
 26 25  1  0
 27 25  2  0
M  END
$$$$
