MYS.pdb
     RDKit          3D

 27 27  0  0  1  0  0  0  0  0999 V2000
    7.5520  -21.1953   26.8295 C   0  0  0  0  0  0  0  0  0  0  0  0
    6.5559  -22.1068   25.6392 S   0  0  0  0  0  0  0  0  0  0  0  0
    5.7273  -20.9866   24.5236 C   0  0  0  0  0  0  0  0  0  0  0  0
    6.6101  -19.9294   23.9376 C   0  0  0  0  0  0  0  0  0  0  0  0
    5.8880  -18.7526   23.3773 C   0  0  2  0  0  0  0  0  0  0  0  0
    5.2267  -19.0132   22.1221 N   0  0  0  0  0  0  0  0  0  0  0  0
    6.8465  -17.6400   23.2319 C   0  0  0  0  0  0  0  0  0  0  0  0
    7.4555  -17.4720   22.1569 O   0  0  0  0  0  0  0  0  0  0  0  0
   10.6602  -15.1576   30.2380 O   0  0  0  0  0  0  0  0  0  0  0  0
    9.9477  -15.0706   29.0649 C   0  0  0  0  0  0  0  0  0  0  0  0
   10.3593  -14.1804   28.1118 C   0  0  0  0  0  0  0  0  0  0  0  0
    9.6814  -14.0469   26.9073 C   0  0  0  0  0  0  0  0  0  0  0  0
    8.5654  -14.8033   26.6177 C   0  0  0  0  0  0  0  0  0  0  0  0
    7.8238  -14.6739   25.3478 C   0  0  0  0  0  0  0  0  0  0  0  0
    8.1024  -15.7614   24.3467 C   0  0  2  0  0  0  0  0  0  0  0  0
    7.0731  -16.7634   24.3156 N   0  0  0  0  0  0  0  0  0  0  0  0
    9.3919  -16.4247   24.6219 C   0  0  0  0  0  0  0  0  0  0  0  0
    9.5389  -17.2748   25.5488 O   0  0  0  0  0  0  0  0  0  0  0  0
    8.1449  -15.7132   27.5917 C   0  0  0  0  0  0  0  0  0  0  0  0
    8.8285  -15.8344   28.7828 C   0  0  0  0  0  0  0  0  0  0  0  0
   12.1370  -15.7223   21.7481 O   0  0  0  0  0  0  0  0  0  0  0  0
   12.2243  -16.9779   22.3759 C   0  0  0  0  0  0  0  0  0  0  0  0
   11.7105  -16.8966   23.8008 C   0  0  2  0  0  0  0  0  0  0  0  0
   10.5113  -16.0851   23.8018 N   0  0  0  0  0  0  0  0  0  0  0  0
   12.7409  -16.2109   24.5963 C   0  0  0  0  0  0  0  0  0  0  0  0
   13.9931  -16.8138   24.7788 O   0  0  0  0  0  0  0  0  0  0  0  0
   12.5067  -15.1037   25.1048 O   0  0  0  0  0  0  0  0  0  0  0  0
  2  1  1  0
  3  2  1  0
  4  3  1  0
  4  5  1  0
  5  7  1  0
  5  6  1  6
  7  8  2  0
  9 10  1  0
 10 20  2  0
 10 11  1  0
 11 12  2  0
 12 13  1  0
 13 14  1  0
 15 14  1  1
 16 15  1  0
 16  7  1  0
 17 24  1  0
 17 15  1  0
 18 17  2  0
 19 13  2  0
 20 19  1  0
 22 21  1  0
 23 24  1  0
 23 22  1  6
 25 23  1  0
 26 25  1  0
 27 25  2  0
M  END
$$$$
