MYS.pdb
     RDKit          3D

 27 27  0  0  1  0  0  0  0  0999 V2000
    7.6652  -14.4262   16.3527 C   0  0  0  0  0  0  0  0  0  0  0  0
    6.6627  -13.7360   17.6788 S   0  0  0  0  0  0  0  0  0  0  0  0
    6.2035  -15.0054   18.8463 C   0  0  0  0  0  0  0  0  0  0  0  0
    7.1857  -15.2108   19.9570 C   0  0  0  0  0  0  0  0  0  0  0  0
    7.6973  -13.9569   20.5785 C   0  0  2  0  0  0  0  0  0  0  0  0
    8.4458  -13.1176   19.6751 N   0  0  0  0  0  0  0  0  0  0  0  0
    8.5216  -14.3160   21.7486 C   0  0  0  0  0  0  0  0  0  0  0  0
    9.7080  -14.6685   21.5968 O   0  0  0  0  0  0  0  0  0  0  0  0
   10.5958  -15.2629   30.3634 O   0  0  0  0  0  0  0  0  0  0  0  0
    9.9752  -14.9297   29.1821 C   0  0  0  0  0  0  0  0  0  0  0  0
    9.1666  -15.8552   28.5822 C   0  0  0  0  0  0  0  0  0  0  0  0
    8.5129  -15.5777   27.3889 C   0  0  0  0  0  0  0  0  0  0  0  0
    8.6487  -14.3603   26.7559 C   0  0  0  0  0  0  0  0  0  0  0  0
    7.9702  -14.0448   25.4832 C   0  0  0  0  0  0  0  0  0  0  0  0
    8.6904  -14.5268   24.2538 C   0  0  2  0  0  0  0  0  0  0  0  0
    7.9627  -14.2592   23.0442 N   0  0  0  0  0  0  0  0  0  0  0  0
    8.9607  -15.9761   24.3254 C   0  0  0  0  0  0  0  0  0  0  0  0
    8.0380  -16.8430   24.3456 O   0  0  0  0  0  0  0  0  0  0  0  0
    9.4749  -13.4145   27.3692 C   0  0  0  0  0  0  0  0  0  0  0  0
   10.1173  -13.7046   28.5540 C   0  0  0  0  0  0  0  0  0  0  0  0
   12.5584  -17.1491   23.1171 O   0  0  0  0  0  0  0  0  0  0  0  0
   11.5627  -18.1324   23.2588 C   0  0  0  0  0  0  0  0  0  0  0  0
   10.6620  -17.8108   24.4361 C   0  0  2  0  0  0  0  0  0  0  0  0
   10.3227  -16.4045   24.3730 N   0  0  0  0  0  0  0  0  0  0  0  0
   11.4434  -18.0498   25.6597 C   0  0  0  0  0  0  0  0  0  0  0  0
   11.9239  -19.3372   25.9366 O   0  0  0  0  0  0  0  0  0  0  0  0
   11.6784  -17.1189   26.4453 O   0  0  0  0  0  0  0  0  0  0  0  0
  2  1  1  0
  3  2  1  0
  4  3  1  0
  4  5  1  0
  5  7  1  0
  5  6  1  6
  7  8  2  0
  9 10  1  0
 10 20  2  0
 10 11  1  0
 11 12  2  0
 12 13  1  0
 13 14  1  0
 15 14  1  1
 16 15  1  0
 16  7  1  0
 17 24  1  0
 17 15  1  0
 18 17  2  0
 19 13  2  0
 20 19  1  0
 22 21  1  0
 23 24  1  0
 23 22  1  6
 25 23  1  0
 26 25  1  0
 27 25  2  0
M  END
$$$$
