MYS.pdb
     RDKit          3D

 27 27  0  0  1  0  0  0  0  0999 V2000
    8.3053  -11.3105   20.0309 C   0  0  0  0  0  0  0  0  0  0  0  0
    6.8161  -12.2729   19.7212 S   0  0  0  0  0  0  0  0  0  0  0  0
    6.9597  -13.9018   20.4366 C   0  0  0  0  0  0  0  0  0  0  0  0
    8.1339  -14.6917   19.9491 C   0  0  0  0  0  0  0  0  0  0  0  0
    8.3287  -16.0042   20.6271 C   0  0  2  0  0  0  0  0  0  0  0  0
    7.0991  -16.6859   20.9500 N   0  0  0  0  0  0  0  0  0  0  0  0
    9.1317  -15.7877   21.8461 C   0  0  0  0  0  0  0  0  0  0  0  0
   10.3280  -15.4473   21.7580 O   0  0  0  0  0  0  0  0  0  0  0  0
   10.9757  -14.6554   30.4640 O   0  0  0  0  0  0  0  0  0  0  0  0
   10.3439  -14.8330   29.2554 C   0  0  0  0  0  0  0  0  0  0  0  0
   10.2463  -13.7678   28.4034 C   0  0  0  0  0  0  0  0  0  0  0  0
    9.6202  -13.8848   27.1694 C   0  0  0  0  0  0  0  0  0  0  0  0
    9.0697  -15.0767   26.7478 C   0  0  0  0  0  0  0  0  0  0  0  0
    8.3926  -15.2236   25.4442 C   0  0  0  0  0  0  0  0  0  0  0  0
    9.2422  -15.8334   24.3629 C   0  0  2  0  0  0  0  0  0  0  0  0
    8.5410  -15.9672   23.1161 N   0  0  0  0  0  0  0  0  0  0  0  0
    9.7434  -17.1631   24.7621 C   0  0  0  0  0  0  0  0  0  0  0  0
    8.9758  -18.1003   25.1305 O   0  0  0  0  0  0  0  0  0  0  0  0
    9.1697  -16.1653   27.6185 C   0  0  0  0  0  0  0  0  0  0  0  0
    9.7944  -16.0336   28.8404 C   0  0  0  0  0  0  0  0  0  0  0  0
   13.4740  -17.9961   23.5564 O   0  0  0  0  0  0  0  0  0  0  0  0
   12.6488  -19.0795   23.9080 C   0  0  0  0  0  0  0  0  0  0  0  0
   11.7105  -18.6893   25.0341 C   0  0  2  0  0  0  0  0  0  0  0  0
   11.1537  -17.3886   24.7264 N   0  0  0  0  0  0  0  0  0  0  0  0
   12.5216  -18.5745   26.2562 C   0  0  0  0  0  0  0  0  0  0  0  0
   13.1140  -19.7194   26.8068 O   0  0  0  0  0  0  0  0  0  0  0  0
   12.6834  -17.4712   26.8000 O   0  0  0  0  0  0  0  0  0  0  0  0
  2  1  1  0
  3  2  1  0
  4  3  1  0
  4  5  1  0
  5  7  1  0
  5  6  1  1
  7  8  2  0
  9 10  1  0
 10 20  2  0
 10 11  1  0
 11 12  2  0
 12 13  1  0
 13 14  1  0
 15 14  1  1
 16 15  1  0
 16  7  1  0
 17 24  1  0
 17 15  1  0
 18 17  2  0
 19 13  2  0
 20 19  1  0
 22 21  1  0
 23 24  1  0
 23 22  1  6
 25 23  1  0
 26 25  1  0
 27 25  2  0
M  END
$$$$
