MYS.pdb
     RDKit          3D

 27 27  0  0  1  0  0  0  0  0999 V2000
    7.5885  -21.3349   20.6092 C   0  0  0  0  0  0  0  0  0  0  0  0
    7.5656  -20.8841   18.8668 S   0  0  0  0  0  0  0  0  0  0  0  0
    7.3365  -19.1245   18.6752 C   0  0  0  0  0  0  0  0  0  0  0  0
    7.8389  -18.3053   19.8228 C   0  0  0  0  0  0  0  0  0  0  0  0
    7.5367  -16.8492   19.7306 C   0  0  2  0  0  0  0  0  0  0  0  0
    7.9652  -16.2382   18.4960 N   0  0  0  0  0  0  0  0  0  0  0  0
    8.1564  -16.1676   20.8834 C   0  0  0  0  0  0  0  0  0  0  0  0
    9.3680  -15.8736   20.8623 O   0  0  0  0  0  0  0  0  0  0  0  0
    8.4982  -12.4658   29.0025 O   0  0  0  0  0  0  0  0  0  0  0  0
    8.0870  -13.0138   27.8100 C   0  0  0  0  0  0  0  0  0  0  0  0
    7.8386  -12.1791   26.7556 C   0  0  0  0  0  0  0  0  0  0  0  0
    7.4211  -12.6726   25.5266 C   0  0  0  0  0  0  0  0  0  0  0  0
    7.2381  -14.0226   25.3136 C   0  0  0  0  0  0  0  0  0  0  0  0
    6.7877  -14.5702   24.0187 C   0  0  0  0  0  0  0  0  0  0  0  0
    7.8759  -15.1999   23.1929 C   0  0  2  0  0  0  0  0  0  0  0  0
    7.3725  -15.8481   22.0137 N   0  0  0  0  0  0  0  0  0  0  0  0
    8.6403  -16.1881   23.9789 C   0  0  0  0  0  0  0  0  0  0  0  0
    8.2036  -17.3508   24.2249 O   0  0  0  0  0  0  0  0  0  0  0  0
    7.4922  -14.8755   26.3912 C   0  0  0  0  0  0  0  0  0  0  0  0
    7.9063  -14.3706   27.6053 C   0  0  0  0  0  0  0  0  0  0  0  0
   13.1954  -17.2550   25.1703 O   0  0  0  0  0  0  0  0  0  0  0  0
   12.2468  -16.4013   24.5791 C   0  0  0  0  0  0  0  0  0  0  0  0
   10.8439  -16.7881   25.0069 C   0  0  2  0  0  0  0  0  0  0  0  0
    9.9235  -15.8044   24.4760 N   0  0  0  0  0  0  0  0  0  0  0  0
   10.8036  -16.7225   26.4762 C   0  0  0  0  0  0  0  0  0  0  0  0
   11.5641  -17.6246   27.2330 O   0  0  0  0  0  0  0  0  0  0  0  0
   10.1012  -15.8739   27.0468 O   0  0  0  0  0  0  0  0  0  0  0  0
  2  1  1  0
  3  2  1  0
  4  3  1  0
  4  5  1  0
  5  7  1  0
  5  6  1  6
  7  8  2  0
  9 10  1  0
 10 20  2  0
 10 11  1  0
 11 12  2  0
 12 13  1  0
 13 14  1  0
 15 14  1  1
 16 15  1  0
 16  7  1  0
 17 24  1  0
 17 15  1  0
 18 17  2  0
 19 13  2  0
 20 19  1  0
 22 21  1  0
 23 24  1  0
 23 22  1  6
 25 23  1  0
 26 25  1  0
 27 25  2  0
M  END
$$$$
