MYS.pdb
     RDKit          3D

 27 27  0  0  1  0  0  0  0  0999 V2000
   10.3552  -17.9410   28.2974 C   0  0  0  0  0  0  0  0  0  0  0  0
    8.5929  -18.2406   28.5073 S   0  0  0  0  0  0  0  0  0  0  0  0
    8.1066  -19.7426   27.6747 C   0  0  0  0  0  0  0  0  0  0  0  0
    7.9379  -19.6039   26.1940 C   0  0  0  0  0  0  0  0  0  0  0  0
    6.8443  -18.6835   25.7733 C   0  0  2  0  0  0  0  0  0  0  0  0
    5.6209  -19.3546   25.4076 N   0  0  0  0  0  0  0  0  0  0  0  0
    7.3321  -17.8572   24.6521 C   0  0  0  0  0  0  0  0  0  0  0  0
    6.9799  -18.1130   23.4836 O   0  0  0  0  0  0  0  0  0  0  0  0
    4.9584  -11.6877   27.0394 O   0  0  0  0  0  0  0  0  0  0  0  0
    5.9901  -12.3771   26.4462 C   0  0  0  0  0  0  0  0  0  0  0  0
    5.8423  -12.7933   25.1520 C   0  0  0  0  0  0  0  0  0  0  0  0
    6.8483  -13.4932   24.4989 C   0  0  0  0  0  0  0  0  0  0  0  0
    8.0387  -13.7999   25.1236 C   0  0  0  0  0  0  0  0  0  0  0  0
    9.1194  -14.5493   24.4528 C   0  0  0  0  0  0  0  0  0  0  0  0
    8.7038  -15.8835   23.8961 C   0  0  2  0  0  0  0  0  0  0  0  0
    8.2009  -16.7733   24.9058 N   0  0  0  0  0  0  0  0  0  0  0  0
    9.8258  -16.5479   23.2046 C   0  0  0  0  0  0  0  0  0  0  0  0
   10.6476  -17.3019   23.8041 O   0  0  0  0  0  0  0  0  0  0  0  0
    8.1898  -13.3744   26.4461 C   0  0  0  0  0  0  0  0  0  0  0  0
    7.1820  -12.6802   27.0811 C   0  0  0  0  0  0  0  0  0  0  0  0
   11.7403  -17.3488   18.7766 O   0  0  0  0  0  0  0  0  0  0  0  0
   10.7982  -16.6724   19.5724 C   0  0  0  0  0  0  0  0  0  0  0  0
   10.9624  -17.0547   21.0311 C   0  0  2  0  0  0  0  0  0  0  0  0
    9.9792  -16.3229   21.8022 N   0  0  0  0  0  0  0  0  0  0  0  0
   12.3042  -16.6174   21.4471 C   0  0  0  0  0  0  0  0  0  0  0  0
   13.4353  -17.2845   20.9567 O   0  0  0  0  0  0  0  0  0  0  0  0
   12.4384  -15.6628   22.2280 O   0  0  0  0  0  0  0  0  0  0  0  0
  2  1  1  0
  3  2  1  0
  4  3  1  0
  4  5  1  0
  5  7  1  0
  5  6  1  6
  7  8  2  0
  9 10  1  0
 10 20  2  0
 10 11  1  0
 11 12  2  0
 12 13  1  0
 13 14  1  0
 15 14  1  1
 16 15  1  0
 16  7  1  0
 17 24  1  0
 17 15  1  0
 18 17  2  0
 19 13  2  0
 20 19  1  0
 22 21  1  0
 23 24  1  0
 23 22  1  6
 25 23  1  0
 26 25  1  0
 27 25  2  0
M  END
$$$$
