MYS.pdb
     RDKit          3D

 27 27  0  0  1  0  0  0  0  0999 V2000
    8.1665  -11.5488   19.1306 C   0  0  0  0  0  0  0  0  0  0  0  0
    6.6944  -12.5750   18.9902 S   0  0  0  0  0  0  0  0  0  0  0  0
    6.9818  -14.1876   19.6992 C   0  0  0  0  0  0  0  0  0  0  0  0
    8.3368  -14.3637   20.3102 C   0  0  0  0  0  0  0  0  0  0  0  0
    8.5781  -15.7017   20.9198 C   0  0  2  0  0  0  0  0  0  0  0  0
    7.3792  -16.4764   21.1277 N   0  0  0  0  0  0  0  0  0  0  0  0
    9.2958  -15.5132   22.1954 C   0  0  0  0  0  0  0  0  0  0  0  0
   10.2036  -14.6632   22.2858 O   0  0  0  0  0  0  0  0  0  0  0  0
   10.8476  -14.8908   30.7966 O   0  0  0  0  0  0  0  0  0  0  0  0
   10.3275  -14.9806   29.5265 C   0  0  0  0  0  0  0  0  0  0  0  0
    9.7764  -16.1662   29.1256 C   0  0  0  0  0  0  0  0  0  0  0  0
    9.2355  -16.3184   27.8557 C   0  0  0  0  0  0  0  0  0  0  0  0
    9.2292  -15.2844   26.9435 C   0  0  0  0  0  0  0  0  0  0  0  0
    8.6670  -15.4244   25.5856 C   0  0  0  0  0  0  0  0  0  0  0  0
    9.5482  -16.1639   24.6165 C   0  0  2  0  0  0  0  0  0  0  0  0
    8.9514  -16.2996   23.3167 N   0  0  0  0  0  0  0  0  0  0  0  0
    9.8844  -17.5104   25.1190 C   0  0  0  0  0  0  0  0  0  0  0  0
    9.0077  -18.3984   25.3331 O   0  0  0  0  0  0  0  0  0  0  0  0
    9.7922  -14.0727   27.3534 C   0  0  0  0  0  0  0  0  0  0  0  0
   10.3254  -13.9369   28.6175 C   0  0  0  0  0  0  0  0  0  0  0  0
   12.7961  -19.1672   23.6380 O   0  0  0  0  0  0  0  0  0  0  0  0
   12.9387  -19.4858   25.0005 C   0  0  0  0  0  0  0  0  0  0  0  0
   11.6729  -19.1416   25.7621 C   0  0  2  0  0  0  0  0  0  0  0  0
   11.2585  -17.8109   25.3695 N   0  0  0  0  0  0  0  0  0  0  0  0
   12.0174  -19.1221   27.1924 C   0  0  0  0  0  0  0  0  0  0  0  0
   12.4141  -20.3071   27.8275 O   0  0  0  0  0  0  0  0  0  0  0  0
   11.9587  -18.0637   27.8370 O   0  0  0  0  0  0  0  0  0  0  0  0
  2  1  1  0
  3  2  1  0
  4  3  1  0
  4  5  1  0
  5  7  1  0
  5  6  1  1
  7  8  2  0
  9 10  1  0
 10 20  2  0
 10 11  1  0
 11 12  2  0
 12 13  1  0
 13 14  1  0
 15 14  1  1
 16 15  1  0
 16  7  1  0
 17 24  1  0
 17 15  1  0
 18 17  2  0
 19 13  2  0
 20 19  1  0
 22 21  1  0
 23 24  1  0
 23 22  1  6
 25 23  1  0
 26 25  1  0
 27 25  2  0
M  END
$$$$
