MYS.pdb
     RDKit          3D

 27 27  0  0  1  0  0  0  0  0999 V2000
    8.4494  -11.4799   21.6442 C   0  0  0  0  0  0  0  0  0  0  0  0
    8.0673  -12.1920   20.0359 S   0  0  0  0  0  0  0  0  0  0  0  0
    8.3900  -13.9475   20.0326 C   0  0  0  0  0  0  0  0  0  0  0  0
    7.4276  -14.7563   20.8449 C   0  0  0  0  0  0  0  0  0  0  0  0
    7.9157  -16.1119   21.2246 C   0  0  2  0  0  0  0  0  0  0  0  0
    6.8749  -17.1070   21.3117 N   0  0  0  0  0  0  0  0  0  0  0  0
    8.6364  -16.0084   22.5082 C   0  0  0  0  0  0  0  0  0  0  0  0
    9.7036  -15.3673   22.5794 O   0  0  0  0  0  0  0  0  0  0  0  0
    6.7761  -10.5874   26.4606 O   0  0  0  0  0  0  0  0  0  0  0  0
    6.9613  -11.9453   26.3446 C   0  0  0  0  0  0  0  0  0  0  0  0
    8.1872  -12.4686   26.6505 C   0  0  0  0  0  0  0  0  0  0  0  0
    8.4354  -13.8314   26.5532 C   0  0  0  0  0  0  0  0  0  0  0  0
    7.4605  -14.7169   26.1448 C   0  0  0  0  0  0  0  0  0  0  0  0
    7.7027  -16.1683   26.0263 C   0  0  0  0  0  0  0  0  0  0  0  0
    8.7000  -16.5521   24.9677 C   0  0  2  0  0  0  0  0  0  0  0  0
    8.1137  -16.6383   23.6588 N   0  0  0  0  0  0  0  0  0  0  0  0
    9.3401  -17.8451   25.2789 C   0  0  0  0  0  0  0  0  0  0  0  0
    8.6825  -18.8610   25.6514 O   0  0  0  0  0  0  0  0  0  0  0  0
    6.2077  -14.1820   25.8325 C   0  0  0  0  0  0  0  0  0  0  0  0
    5.9764  -12.8267   25.9341 C   0  0  0  0  0  0  0  0  0  0  0  0
   13.3743  -18.0786   24.4752 O   0  0  0  0  0  0  0  0  0  0  0  0
   12.6254  -19.2682   24.4279 C   0  0  0  0  0  0  0  0  0  0  0  0
   11.4483  -19.1934   25.3817 C   0  0  2  0  0  0  0  0  0  0  0  0
   10.7597  -17.9408   25.1502 N   0  0  0  0  0  0  0  0  0  0  0  0
   11.9950  -19.1821   26.7475 C   0  0  0  0  0  0  0  0  0  0  0  0
   11.7316  -18.0950   27.5923 O   0  0  0  0  0  0  0  0  0  0  0  0
   12.6864  -20.1288   27.1539 O   0  0  0  0  0  0  0  0  0  0  0  0
  2  1  1  0
  3  2  1  0
  4  3  1  0
  4  5  1  0
  5  7  1  0
  5  6  1  1
  7  8  2  0
  9 10  1  0
 10 20  2  0
 10 11  1  0
 11 12  2  0
 12 13  1  0
 13 14  1  0
 15 14  1  1
 16 15  1  0
 16  7  1  0
 17 24  1  0
 17 15  1  0
 18 17  2  0
 19 13  2  0
 20 19  1  0
 22 21  1  0
 23 24  1  0
 23 22  1  6
 25 23  1  0
 26 25  1  0
 27 25  2  0
M  END
$$$$
