MYS.pdb
     RDKit          3D

 27 27  0  0  1  0  0  0  0  0999 V2000
    6.9586  -12.8270   21.0288 C   0  0  0  0  0  0  0  0  0  0  0  0
    6.9252  -12.5078   19.2577 S   0  0  0  0  0  0  0  0  0  0  0  0
    7.9731  -13.6635   18.3904 C   0  0  0  0  0  0  0  0  0  0  0  0
    8.9195  -14.4214   19.2679 C   0  0  0  0  0  0  0  0  0  0  0  0
    9.8324  -15.3515   18.5456 C   0  0  2  0  0  0  0  0  0  0  0  0
    9.1529  -16.2954   17.6922 N   0  0  0  0  0  0  0  0  0  0  0  0
   10.6612  -16.0610   19.5393 C   0  0  0  0  0  0  0  0  0  0  0  0
   10.5255  -17.2889   19.7084 O   0  0  0  0  0  0  0  0  0  0  0  0
   17.2964  -14.8370   17.0951 O   0  0  0  0  0  0  0  0  0  0  0  0
   16.4132  -14.8698   18.1489 C   0  0  0  0  0  0  0  0  0  0  0  0
   16.5710  -15.8325   19.1073 C   0  0  0  0  0  0  0  0  0  0  0  0
   15.7116  -15.9167   20.1948 C   0  0  0  0  0  0  0  0  0  0  0  0
   14.6629  -15.0364   20.3578 C   0  0  0  0  0  0  0  0  0  0  0  0
   13.7318  -15.1106   21.5011 C   0  0  0  0  0  0  0  0  0  0  0  0
   12.5031  -15.9426   21.2546 C   0  0  2  0  0  0  0  0  0  0  0  0
   11.6109  -15.3447   20.3002 N   0  0  0  0  0  0  0  0  0  0  0  0
   11.7575  -16.1799   22.5061 C   0  0  0  0  0  0  0  0  0  0  0  0
   11.3120  -15.2378   23.2252 O   0  0  0  0  0  0  0  0  0  0  0  0
   14.5019  -14.0524   19.3784 C   0  0  0  0  0  0  0  0  0  0  0  0
   15.3633  -13.9815   18.3044 C   0  0  0  0  0  0  0  0  0  0  0  0
    9.9549  -19.6589   22.8680 O   0  0  0  0  0  0  0  0  0  0  0  0
    9.6371  -18.6803   23.8270 C   0  0  0  0  0  0  0  0  0  0  0  0
   10.8566  -17.8388   24.1520 C   0  0  2  0  0  0  0  0  0  0  0  0
   11.5362  -17.5320   22.9108 N   0  0  0  0  0  0  0  0  0  0  0  0
   11.7469  -18.6656   24.9818 C   0  0  0  0  0  0  0  0  0  0  0  0
   11.3598  -19.0120   26.2837 O   0  0  0  0  0  0  0  0  0  0  0  0
   12.8362  -19.0568   24.5349 O   0  0  0  0  0  0  0  0  0  0  0  0
  2  1  1  0
  3  2  1  0
  4  3  1  0
  4  5  1  0
  5  7  1  0
  5  6  1  1
  7  8  2  0
  9 10  1  0
 10 20  2  0
 10 11  1  0
 11 12  2  0
 12 13  1  0
 13 14  1  0
 15 14  1  1
 16 15  1  0
 16  7  1  0
 17 24  1  0
 17 15  1  0
 18 17  2  0
 19 13  2  0
 20 19  1  0
 22 21  1  0
 23 24  1  0
 23 22  1  6
 25 23  1  0
 26 25  1  0
 27 25  2  0
M  END
$$$$
