WAT.pdb
     RDKit          3D

 27 28  0  0  1  0  0  0  0  0999 V2000
    6.1224  -18.2394   24.1497 N   0  0  0  0  0  0  0  0  0  0  0  0
    6.4747  -16.8864   23.8674 C   0  0  1  0  0  0  0  0  0  0  0  0
    7.5235  -16.4143   24.8437 C   0  0  0  0  0  0  0  0  0  0  0  0
    7.0713  -15.3774   25.7824 C   0  0  0  0  0  0  0  0  0  0  0  0
    6.1695  -15.5409   26.8448 C   0  0  0  0  0  0  0  0  0  0  0  0
    5.9989  -14.3525   27.4353 N   0  0  0  0  0  0  0  0  0  0  0  0
    6.7474  -13.4339   26.8048 C   0  0  0  0  0  0  0  0  0  0  0  0
    6.9014  -12.0774   27.0638 C   0  0  0  0  0  0  0  0  0  0  0  0
    7.7576  -11.3659   26.2509 C   0  0  0  0  0  0  0  0  0  0  0  0
    8.4457  -11.9571   25.2143 C   0  0  0  0  0  0  0  0  0  0  0  0
    8.2902  -13.3076   24.9586 C   0  0  0  0  0  0  0  0  0  0  0  0
    7.4396  -14.0403   25.7562 C   0  0  0  0  0  0  0  0  0  0  0  0
    6.9760  -16.7649   22.4641 C   0  0  0  0  0  0  0  0  0  0  0  0
    7.3588  -17.8055   21.8264 O   0  0  0  0  0  0  0  0  0  0  0  0
    7.2793  -14.1547   19.7393 C   0  0  0  0  0  0  0  0  0  0  0  0
    7.6187  -15.4482   20.4093 C   0  0  2  0  0  0  0  0  0  0  0  0
    7.0693  -15.5468   21.7491 N   0  0  0  0  0  0  0  0  0  0  0  0
    9.0569  -15.6739   20.3626 C   0  0  0  0  0  0  0  0  0  0  0  0
    9.6992  -15.5534   19.2995 O   0  0  0  0  0  0  0  0  0  0  0  0
   11.6653  -14.8824   23.6286 C   0  0  0  0  0  0  0  0  0  0  0  0
   11.7753  -16.2194   22.9499 C   0  0  1  0  0  0  0  0  0  0  0  0
   11.0191  -17.1213   23.7326 O   0  0  0  0  0  0  0  0  0  0  0  0
   11.1836  -16.2557   21.5779 C   0  0  2  0  0  0  0  0  0  0  0  0
    9.7707  -16.0370   21.5251 N   0  0  0  0  0  0  0  0  0  0  0  0
   11.4922  -17.5606   20.9611 C   0  0  0  0  0  0  0  0  0  0  0  0
   10.5903  -18.3765   20.6479 O   0  0  0  0  0  0  0  0  0  0  0  0
   12.7992  -17.9260   20.7078 O   0  0  0  0  0  0  0  0  0  0  0  0
  2  3  1  0
  2  1  1  1
  4  5  2  0
  4  3  1  0
  6  5  1  0
  7 12  2  0
  7  6  1  0
  8  7  1  0
  9 10  1  0
  9  8  2  0
 10 11  2  0
 11 12  1  0
 12  4  1  0
 13  2  1  0
 14 13  2  0
 16 15  1  1
 16 18  1  0
 16 17  1  0
 17 13  1  0
 18 19  2  0
 21 20  1  1
 22 21  1  0
 23 21  1  0
 23 25  1  0
 23 24  1  1
 24 18  1  0
 25 26  2  0
 25 27  1  0
M  END
$$$$
