WAT.pdb
     RDKit          3D

 27 28  0  0  1  0  0  0  0  0999 V2000
    6.6313  -18.3165   24.5612 N   0  0  0  0  0  0  0  0  0  0  0  0
    7.3076  -17.0705   24.4050 C   0  0  1  0  0  0  0  0  0  0  0  0
    7.3983  -16.3649   25.7353 C   0  0  0  0  0  0  0  0  0  0  0  0
    6.5010  -15.2101   25.8843 C   0  0  0  0  0  0  0  0  0  0  0  0
    5.1019  -15.2404   25.9852 C   0  0  0  0  0  0  0  0  0  0  0  0
    4.6616  -13.9802   26.0757 N   0  0  0  0  0  0  0  0  0  0  0  0
    5.7095  -13.1421   26.0387 C   0  0  0  0  0  0  0  0  0  0  0  0
    5.7456  -11.7548   26.1102 C   0  0  0  0  0  0  0  0  0  0  0  0
    6.9811  -11.1454   26.0593 C   0  0  0  0  0  0  0  0  0  0  0  0
    8.1497  -11.8652   25.9423 C   0  0  0  0  0  0  0  0  0  0  0  0
    8.1106  -13.2460   25.8711 C   0  0  0  0  0  0  0  0  0  0  0  0
    6.8882  -13.8785   25.9188 C   0  0  0  0  0  0  0  0  0  0  0  0
    8.6731  -17.2913   23.8375 C   0  0  0  0  0  0  0  0  0  0  0  0
    9.3450  -18.3291   24.1655 O   0  0  0  0  0  0  0  0  0  0  0  0
   11.0334  -15.6953   21.3330 C   0  0  0  0  0  0  0  0  0  0  0  0
   10.6770  -16.6050   22.4656 C   0  0  2  0  0  0  0  0  0  0  0  0
    9.3155  -16.4143   22.9308 N   0  0  0  0  0  0  0  0  0  0  0  0
   11.6661  -16.4920   23.5287 C   0  0  0  0  0  0  0  0  0  0  0  0
   12.8871  -16.6002   23.2944 O   0  0  0  0  0  0  0  0  0  0  0  0
   11.1086  -14.0038   26.9395 C   0  0  0  0  0  0  0  0  0  0  0  0
   11.5675  -15.4178   27.1636 C   0  0  1  0  0  0  0  0  0  0  0  0
   10.4071  -16.1640   27.4712 O   0  0  0  0  0  0  0  0  0  0  0  0
   12.1721  -16.0597   25.9568 C   0  0  2  0  0  0  0  0  0  0  0  0
   11.2708  -16.2549   24.8630 N   0  0  0  0  0  0  0  0  0  0  0  0
   12.7444  -17.3629   26.3475 C   0  0  0  0  0  0  0  0  0  0  0  0
   12.2792  -18.4476   25.9182 O   0  0  0  0  0  0  0  0  0  0  0  0
   13.8221  -17.4268   27.2080 O   0  0  0  0  0  0  0  0  0  0  0  0
  2  3  1  0
  2  1  1  1
  4  5  2  0
  4  3  1  0
  6  5  1  0
  7 12  2  0
  7  6  1  0
  8  7  1  0
  9 10  1  0
  9  8  2  0
 10 11  2  0
 11 12  1  0
 12  4  1  0
 13  2  1  0
 14 13  2  0
 16 15  1  6
 16 18  1  0
 16 17  1  0
 17 13  1  0
 18 19  2  0
 21 20  1  6
 22 21  1  0
 23 21  1  0
 23 25  1  0
 23 24  1  6
 24 18  1  0
 25 26  2  0
 25 27  1  0
M  END
$$$$
