WAT.pdb
     RDKit          3D

 27 28  0  0  1  0  0  0  0  0999 V2000
    6.0105  -17.9123   24.4836 N   0  0  0  0  0  0  0  0  0  0  0  0
    6.4450  -16.5894   24.1742 C   0  0  1  0  0  0  0  0  0  0  0  0
    7.2523  -16.0327   25.3206 C   0  0  0  0  0  0  0  0  0  0  0  0
    6.6370  -14.8907   26.0122 C   0  0  0  0  0  0  0  0  0  0  0  0
    5.4075  -14.8807   26.6881 C   0  0  0  0  0  0  0  0  0  0  0  0
    5.1947  -13.6435   27.1508 N   0  0  0  0  0  0  0  0  0  0  0  0
    6.2276  -12.8587   26.8060 C   0  0  0  0  0  0  0  0  0  0  0  0
    6.4535  -11.5134   27.0705 C   0  0  0  0  0  0  0  0  0  0  0  0
    7.6236  -10.9582   26.5984 C   0  0  0  0  0  0  0  0  0  0  0  0
    8.5491  -11.6910   25.8887 C   0  0  0  0  0  0  0  0  0  0  0  0
    8.3215  -13.0299   25.6266 C   0  0  0  0  0  0  0  0  0  0  0  0
    7.1592  -13.6078   26.0868 C   0  0  0  0  0  0  0  0  0  0  0  0
    7.2557  -16.5922   22.9181 C   0  0  0  0  0  0  0  0  0  0  0  0
    8.0699  -17.5498   22.6812 O   0  0  0  0  0  0  0  0  0  0  0  0
    7.8262  -14.3720   19.8864 C   0  0  0  0  0  0  0  0  0  0  0  0
    8.0933  -15.5391   20.7830 C   0  0  2  0  0  0  0  0  0  0  0  0
    7.1997  -15.5842   21.9258 N   0  0  0  0  0  0  0  0  0  0  0  0
    9.5009  -15.5722   21.1558 C   0  0  0  0  0  0  0  0  0  0  0  0
   10.0444  -14.6055   21.7279 O   0  0  0  0  0  0  0  0  0  0  0  0
   11.5682  -17.6109   23.6063 C   0  0  0  0  0  0  0  0  0  0  0  0
   11.9935  -17.9160   22.1970 C   0  0  1  0  0  0  0  0  0  0  0  0
   11.2412  -19.0428   21.7942 O   0  0  0  0  0  0  0  0  0  0  0  0
   11.6806  -16.8304   21.2185 C   0  0  2  0  0  0  0  0  0  0  0  0
   10.2963  -16.7053   20.8798 N   0  0  0  0  0  0  0  0  0  0  0  0
   12.4588  -17.0621   19.9860 C   0  0  0  0  0  0  0  0  0  0  0  0
   11.9111  -17.4107   18.9109 O   0  0  0  0  0  0  0  0  0  0  0  0
   13.8298  -16.8999   19.9803 O   0  0  0  0  0  0  0  0  0  0  0  0
  2  3  1  0
  2  1  1  1
  4  5  2  0
  4  3  1  0
  6  5  1  0
  7 12  2  0
  7  6  1  0
  8  7  1  0
  9 10  1  0
  9  8  2  0
 10 11  2  0
 11 12  1  0
 12  4  1  0
 13  2  1  0
 14 13  2  0
 16 15  1  1
 16 18  1  0
 16 17  1  0
 17 13  1  0
 18 19  2  0
 21 20  1  1
 22 21  1  0
 23 21  1  0
 23 25  1  0
 23 24  1  6
 24 18  1  0
 25 26  2  0
 25 27  1  0
M  END
$$$$
