WAT.pdb
     RDKit          3D

 27 28  0  0  1  0  0  0  0  0999 V2000
    7.7552  -15.8795   22.9880 N   0  0  0  0  0  0  0  0  0  0  0  0
    8.4176  -15.4718   24.1836 C   0  0  1  0  0  0  0  0  0  0  0  0
    7.4865  -15.6171   25.3617 C   0  0  0  0  0  0  0  0  0  0  0  0
    6.4965  -14.5397   25.5030 C   0  0  0  0  0  0  0  0  0  0  0  0
    5.1157  -14.6880   25.7034 C   0  0  0  0  0  0  0  0  0  0  0  0
    4.5662  -13.4689   25.7480 N   0  0  0  0  0  0  0  0  0  0  0  0
    5.5264  -12.5449   25.5869 C   0  0  0  0  0  0  0  0  0  0  0  0
    5.4371  -11.1584   25.5716 C   0  0  0  0  0  0  0  0  0  0  0  0
    6.6043  -10.4459   25.3973 C   0  0  0  0  0  0  0  0  0  0  0  0
    7.8252  -11.0645   25.2425 C   0  0  0  0  0  0  0  0  0  0  0  0
    7.9110  -12.4450   25.2580 C   0  0  0  0  0  0  0  0  0  0  0  0
    6.7588  -13.1795   25.4296 C   0  0  0  0  0  0  0  0  0  0  0  0
    9.6542  -16.2857   24.3925 C   0  0  0  0  0  0  0  0  0  0  0  0
    9.8374  -16.9037   25.4972 O   0  0  0  0  0  0  0  0  0  0  0  0
   13.0045  -16.7503   22.6977 C   0  0  0  0  0  0  0  0  0  0  0  0
   11.9659  -17.0520   23.7309 C   0  0  2  0  0  0  0  0  0  0  0  0
   10.6848  -16.4379   23.4341 N   0  0  0  0  0  0  0  0  0  0  0  0
   12.4671  -16.7177   25.0570 C   0  0  0  0  0  0  0  0  0  0  0  0
   13.3380  -15.8388   25.2199 O   0  0  0  0  0  0  0  0  0  0  0  0
   11.0831  -14.8756   27.7854 C   0  0  0  0  0  0  0  0  0  0  0  0
   11.2925  -16.2737   28.2971 C   0  0  1  0  0  0  0  0  0  0  0  0
   10.0698  -16.9536   28.0956 O   0  0  0  0  0  0  0  0  0  0  0  0
   12.3308  -17.0460   27.5494 C   0  0  2  0  0  0  0  0  0  0  0  0
   11.9795  -17.3812   26.2036 N   0  0  0  0  0  0  0  0  0  0  0  0
   12.6282  -18.2862   28.2924 C   0  0  0  0  0  0  0  0  0  0  0  0
   12.3824  -19.4213   27.8146 O   0  0  0  0  0  0  0  0  0  0  0  0
   13.1927  -18.2322   29.5511 O   0  0  0  0  0  0  0  0  0  0  0  0
  2  3  1  0
  2  1  1  6
  4  5  2  0
  4  3  1  0
  6  5  1  0
  7 12  2  0
  7  6  1  0
  8  7  1  0
  9 10  1  0
  9  8  2  0
 10 11  2  0
 11 12  1  0
 12  4  1  0
 13  2  1  0
 14 13  2  0
 16 15  1  6
 16 18  1  0
 16 17  1  0
 17 13  1  0
 18 19  2  0
 21 20  1  6
 22 21  1  0
 23 21  1  0
 23 25  1  0
 23 24  1  6
 24 18  1  0
 25 26  2  0
 25 27  1  0
M  END
$$$$
