WAT.pdb
     RDKit          3D

 27 28  0  0  1  0  0  0  0  0999 V2000
    6.5008  -18.6634   24.6510 N   0  0  0  0  0  0  0  0  0  0  0  0
    6.6266  -17.2716   24.3654 C   0  0  1  0  0  0  0  0  0  0  0  0
    7.4381  -16.5973   25.4437 C   0  0  0  0  0  0  0  0  0  0  0  0
    6.8162  -15.3999   26.0272 C   0  0  0  0  0  0  0  0  0  0  0  0
    5.4929  -15.2744   26.4765 C   0  0  0  0  0  0  0  0  0  0  0  0
    5.3144  -14.0200   26.9064 N   0  0  0  0  0  0  0  0  0  0  0  0
    6.4583  -13.3341   26.7559 C   0  0  0  0  0  0  0  0  0  0  0  0
    6.7545  -12.0130   27.0688 C   0  0  0  0  0  0  0  0  0  0  0  0
    8.0345  -11.5689   26.8150 C   0  0  0  0  0  0  0  0  0  0  0  0
    9.0006  -12.3869   26.2720 C   0  0  0  0  0  0  0  0  0  0  0  0
    8.7029  -13.7015   25.9614 C   0  0  0  0  0  0  0  0  0  0  0  0
    7.4305  -14.1690   26.2046 C   0  0  0  0  0  0  0  0  0  0  0  0
    7.2678  -17.0741   23.0294 C   0  0  0  0  0  0  0  0  0  0  0  0
    8.0198  -17.9841   22.5369 O   0  0  0  0  0  0  0  0  0  0  0  0
    7.3394  -14.4863   20.2482 C   0  0  0  0  0  0  0  0  0  0  0  0
    7.7496  -15.7497   20.9358 C   0  0  2  0  0  0  0  0  0  0  0  0
    7.1099  -15.9182   22.2277 N   0  0  0  0  0  0  0  0  0  0  0  0
    9.2021  -15.8353   21.0012 C   0  0  0  0  0  0  0  0  0  0  0  0
    9.9096  -15.6587   19.9883 O   0  0  0  0  0  0  0  0  0  0  0  0
   11.6132  -14.8579   24.3863 C   0  0  0  0  0  0  0  0  0  0  0  0
   11.7768  -16.2162   23.7630 C   0  0  1  0  0  0  0  0  0  0  0  0
   10.9849  -17.0996   24.5313 O   0  0  0  0  0  0  0  0  0  0  0  0
   11.2679  -16.3073   22.3607 C   0  0  2  0  0  0  0  0  0  0  0  0
    9.8564  -16.1215   22.2188 N   0  0  0  0  0  0  0  0  0  0  0  0
   11.6385  -17.6233   21.8046 C   0  0  0  0  0  0  0  0  0  0  0  0
   10.7737  -18.4752   21.4827 O   0  0  0  0  0  0  0  0  0  0  0  0
   12.9648  -17.9594   21.6205 O   0  0  0  0  0  0  0  0  0  0  0  0
  2  3  1  0
  2  1  1  1
  4  5  2  0
  4  3  1  0
  6  5  1  0
  7 12  2  0
  7  6  1  0
  8  7  1  0
  9 10  1  0
  9  8  2  0
 10 11  2  0
 11 12  1  0
 12  4  1  0
 13  2  1  0
 14 13  2  0
 16 15  1  1
 16 18  1  0
 16 17  1  0
 17 13  1  0
 18 19  2  0
 21 20  1  1
 22 21  1  0
 23 21  1  0
 23 25  1  0
 23 24  1  1
 24 18  1  0
 25 26  2  0
 25 27  1  0
M  END
$$$$
