WAT.pdb
     RDKit          3D

 27 28  0  0  1  0  0  0  0  0999 V2000
    6.3631  -17.5423   24.7197 N   0  0  0  0  0  0  0  0  0  0  0  0
    7.0410  -16.4266   24.1451 C   0  0  1  0  0  0  0  0  0  0  0  0
    8.0055  -15.8404   25.1461 C   0  0  0  0  0  0  0  0  0  0  0  0
    7.4047  -14.9050   26.1079 C   0  0  0  0  0  0  0  0  0  0  0  0
    6.8292  -15.2271   27.3463 C   0  0  0  0  0  0  0  0  0  0  0  0
    6.3703  -14.0991   27.9004 N   0  0  0  0  0  0  0  0  0  0  0  0
    6.6236  -13.0681   27.0790 C   0  0  0  0  0  0  0  0  0  0  0  0
    6.3436  -11.7157   27.2317 C   0  0  0  0  0  0  0  0  0  0  0  0
    6.7338  -10.8652   26.2194 C   0  0  0  0  0  0  0  0  0  0  0  0
    7.3789  -11.3172   25.0894 C   0  0  0  0  0  0  0  0  0  0  0  0
    7.6562  -12.6641   24.9400 C   0  0  0  0  0  0  0  0  0  0  0  0
    7.2755  -13.5344   25.9372 C   0  0  0  0  0  0  0  0  0  0  0  0
    7.7654  -16.8444   22.9057 C   0  0  0  0  0  0  0  0  0  0  0  0
    8.1986  -18.0421   22.7877 O   0  0  0  0  0  0  0  0  0  0  0  0
    8.7022  -15.4142   19.5181 C   0  0  0  0  0  0  0  0  0  0  0  0
    8.7626  -16.4158   20.6274 C   0  0  2  0  0  0  0  0  0  0  0  0
    8.0259  -15.9939   21.8045 N   0  0  0  0  0  0  0  0  0  0  0  0
   10.1479  -16.7630   20.9134 C   0  0  0  0  0  0  0  0  0  0  0  0
   10.8488  -16.0651   21.6745 O   0  0  0  0  0  0  0  0  0  0  0  0
   13.6634  -20.3272   20.5922 C   0  0  0  0  0  0  0  0  0  0  0  0
   12.3386  -19.7753   20.1441 C   0  0  1  0  0  0  0  0  0  0  0  0
   11.3531  -20.6390   20.6739 O   0  0  0  0  0  0  0  0  0  0  0  0
   12.0348  -18.4132   20.6788 C   0  0  2  0  0  0  0  0  0  0  0  0
   10.7419  -17.9058   20.3355 N   0  0  0  0  0  0  0  0  0  0  0  0
   13.0648  -17.4723   20.1968 C   0  0  0  0  0  0  0  0  0  0  0  0
   13.0723  -17.0442   19.0161 O   0  0  0  0  0  0  0  0  0  0  0  0
   14.0628  -17.0304   21.0421 O   0  0  0  0  0  0  0  0  0  0  0  0
  2  3  1  0
  2  1  1  1
  4  5  2  0
  4  3  1  0
  6  5  1  0
  7 12  2  0
  7  6  1  0
  8  7  1  0
  9 10  1  0
  9  8  2  0
 10 11  2  0
 11 12  1  0
 12  4  1  0
 13  2  1  0
 14 13  2  0
 16 15  1  6
 16 18  1  0
 16 17  1  0
 17 13  1  0
 18 19  2  0
 21 20  1  1
 22 21  1  0
 23 21  1  0
 23 25  1  0
 23 24  1  6
 24 18  1  0
 25 26  2  0
 25 27  1  0
M  END
$$$$
