WAT.pdb
     RDKit          3D

 27 28  0  0  1  0  0  0  0  0999 V2000
    6.4262  -18.5616   24.8261 N   0  0  0  0  0  0  0  0  0  0  0  0
    6.6721  -17.2281   24.3839 C   0  0  1  0  0  0  0  0  0  0  0  0
    7.5147  -16.4972   25.3997 C   0  0  0  0  0  0  0  0  0  0  0  0
    6.8679  -15.3277   26.0120 C   0  0  0  0  0  0  0  0  0  0  0  0
    5.5904  -15.2805   26.5902 C   0  0  0  0  0  0  0  0  0  0  0  0
    5.3642  -14.0282   27.0031 N   0  0  0  0  0  0  0  0  0  0  0  0
    6.4341  -13.2689   26.7191 C   0  0  0  0  0  0  0  0  0  0  0  0
    6.6623  -11.9206   26.9655 C   0  0  0  0  0  0  0  0  0  0  0  0
    7.8747  -11.3963   26.5712 C   0  0  0  0  0  0  0  0  0  0  0  0
    8.8392  -12.1622   25.9544 C   0  0  0  0  0  0  0  0  0  0  0  0
    8.6091  -13.5040   25.7101 C   0  0  0  0  0  0  0  0  0  0  0  0
    7.4050  -14.0514   26.0937 C   0  0  0  0  0  0  0  0  0  0  0  0
    7.3543  -17.2424   23.0536 C   0  0  0  0  0  0  0  0  0  0  0  0
    7.9303  -18.3063   22.6384 O   0  0  0  0  0  0  0  0  0  0  0  0
    7.8944  -14.9281   20.0916 C   0  0  0  0  0  0  0  0  0  0  0  0
    8.1119  -16.1681   20.8993 C   0  0  2  0  0  0  0  0  0  0  0  0
    7.4226  -16.1337   22.1761 N   0  0  0  0  0  0  0  0  0  0  0  0
    9.5373  -16.4395   21.0258 C   0  0  0  0  0  0  0  0  0  0  0  0
   10.2804  -16.4902   20.0245 O   0  0  0  0  0  0  0  0  0  0  0  0
   12.3835  -14.6174   22.8082 C   0  0  0  0  0  0  0  0  0  0  0  0
   12.2277  -15.9925   23.3956 C   0  0  1  0  0  0  0  0  0  0  0  0
   11.4269  -15.8388   24.5501 O   0  0  0  0  0  0  0  0  0  0  0  0
   11.5057  -16.9547   22.5086 C   0  0  2  0  0  0  0  0  0  0  0  0
   10.1239  -16.6537   22.2918 N   0  0  0  0  0  0  0  0  0  0  0  0
   11.6189  -18.3091   23.0841 C   0  0  0  0  0  0  0  0  0  0  0  0
   10.6115  -18.9535   23.4679 O   0  0  0  0  0  0  0  0  0  0  0  0
   12.8526  -18.9139   23.2185 O   0  0  0  0  0  0  0  0  0  0  0  0
  2  3  1  0
  2  1  1  1
  4  5  2  0
  4  3  1  0
  6  5  1  0
  7 12  2  0
  7  6  1  0
  8  7  1  0
  9 10  1  0
  9  8  2  0
 10 11  2  0
 11 12  1  0
 12  4  1  0
 13  2  1  0
 14 13  2  0
 16 15  1  1
 16 18  1  0
 16 17  1  0
 17 13  1  0
 18 19  2  0
 21 20  1  6
 22 21  1  0
 23 21  1  0
 23 25  1  0
 23 24  1  1
 24 18  1  0
 25 26  2  0
 25 27  1  0
M  END
$$$$
