WAT.pdb
     RDKit          3D

 27 28  0  0  1  0  0  0  0  0999 V2000
    5.9461  -17.8925   24.6588 N   0  0  0  0  0  0  0  0  0  0  0  0
    6.5514  -16.6356   24.3614 C   0  0  1  0  0  0  0  0  0  0  0  0
    7.7907  -16.4507   25.2015 C   0  0  0  0  0  0  0  0  0  0  0  0
    7.6176  -15.5820   26.3746 C   0  0  0  0  0  0  0  0  0  0  0  0
    7.5498  -15.9856   27.7167 C   0  0  0  0  0  0  0  0  0  0  0  0
    7.3566  -14.8978   28.4714 N   0  0  0  0  0  0  0  0  0  0  0  0
    7.2978  -13.8153   27.6799 C   0  0  0  0  0  0  0  0  0  0  0  0
    7.1217  -12.4770   28.0098 C   0  0  0  0  0  0  0  0  0  0  0  0
    7.1136  -11.5617   26.9792 C   0  0  0  0  0  0  0  0  0  0  0  0
    7.2727  -11.9371   25.6635 C   0  0  0  0  0  0  0  0  0  0  0  0
    7.4476  -13.2700   25.3380 C   0  0  0  0  0  0  0  0  0  0  0  0
    7.4584  -14.2042   26.3499 C   0  0  0  0  0  0  0  0  0  0  0  0
    6.8902  -16.5564   22.9074 C   0  0  0  0  0  0  0  0  0  0  0  0
    7.1035  -17.6255   22.2383 O   0  0  0  0  0  0  0  0  0  0  0  0
    7.2952  -13.9375   20.1902 C   0  0  0  0  0  0  0  0  0  0  0  0
    7.4731  -15.2901   20.8036 C   0  0  2  0  0  0  0  0  0  0  0  0
    7.0016  -15.3502   22.1750 N   0  0  0  0  0  0  0  0  0  0  0  0
    8.8533  -15.7303   20.6533 C   0  0  0  0  0  0  0  0  0  0  0  0
    9.4257  -15.7065   19.5446 O   0  0  0  0  0  0  0  0  0  0  0  0
   11.9862  -14.8226   23.0828 C   0  0  0  0  0  0  0  0  0  0  0  0
   11.7744  -16.2999   22.9006 C   0  0  1  0  0  0  0  0  0  0  0  0
   11.0499  -16.7360   24.0332 O   0  0  0  0  0  0  0  0  0  0  0  0
   10.9442  -16.6531   21.7092 C   0  0  2  0  0  0  0  0  0  0  0  0
    9.5886  -16.1990   21.7634 N   0  0  0  0  0  0  0  0  0  0  0  0
   10.9544  -18.1193   21.5400 C   0  0  0  0  0  0  0  0  0  0  0  0
    9.9227  -18.8144   21.7119 O   0  0  0  0  0  0  0  0  0  0  0  0
   12.1147  -18.7768   21.1831 O   0  0  0  0  0  0  0  0  0  0  0  0
  2  3  1  0
  2  1  1  6
  4  5  2  0
  4  3  1  0
  6  5  1  0
  7 12  2  0
  7  6  1  0
  8  7  1  0
  9 10  1  0
  9  8  2  0
 10 11  2  0
 11 12  1  0
 12  4  1  0
 13  2  1  0
 14 13  2  0
 16 15  1  1
 16 18  1  0
 16 17  1  0
 17 13  1  0
 18 19  2  0
 21 20  1  1
 22 21  1  0
 23 21  1  0
 23 25  1  0
 23 24  1  1
 24 18  1  0
 25 26  2  0
 25 27  1  0
M  END
$$$$
