WAT.pdb
     RDKit          3D

 27 28  0  0  1  0  0  0  0  0999 V2000
    6.2683  -17.6688   24.5307 N   0  0  0  0  0  0  0  0  0  0  0  0
    6.7948  -16.4549   23.9981 C   0  0  1  0  0  0  0  0  0  0  0  0
    7.6281  -15.7545   25.0426 C   0  0  0  0  0  0  0  0  0  0  0  0
    6.9075  -14.7466   25.8337 C   0  0  0  0  0  0  0  0  0  0  0  0
    5.8036  -14.9675   26.6712 C   0  0  0  0  0  0  0  0  0  0  0  0
    5.4246  -13.7906   27.1826 N   0  0  0  0  0  0  0  0  0  0  0  0
    6.2313  -12.8250   26.7153 C   0  0  0  0  0  0  0  0  0  0  0  0
    6.2307  -11.4594   26.9725 C   0  0  0  0  0  0  0  0  0  0  0  0
    7.1971  -10.6938   26.3560 C   0  0  0  0  0  0  0  0  0  0  0  0
    8.1386  -11.2408   25.5124 C   0  0  0  0  0  0  0  0  0  0  0  0
    8.1367  -12.6004   25.2580 C   0  0  0  0  0  0  0  0  0  0  0  0
    7.1805  -13.3869   25.8613 C   0  0  0  0  0  0  0  0  0  0  0  0
    7.6145  -16.7375   22.7802 C   0  0  0  0  0  0  0  0  0  0  0  0
    8.4860  -17.6737   22.7954 O   0  0  0  0  0  0  0  0  0  0  0  0
    8.4111  -14.8983   19.5782 C   0  0  0  0  0  0  0  0  0  0  0  0
    8.5376  -16.0388   20.5377 C   0  0  2  0  0  0  0  0  0  0  0  0
    7.5069  -16.0288   21.5595 N   0  0  0  0  0  0  0  0  0  0  0  0
    9.8862  -16.0846   21.0858 C   0  0  0  0  0  0  0  0  0  0  0  0
   10.2616  -15.2734   21.9567 O   0  0  0  0  0  0  0  0  0  0  0  0
   13.7125  -18.8321   22.3372 C   0  0  0  0  0  0  0  0  0  0  0  0
   12.2906  -18.5419   21.9443 C   0  0  1  0  0  0  0  0  0  0  0  0
   11.5670  -18.4147   23.1518 O   0  0  0  0  0  0  0  0  0  0  0  0
   12.1134  -17.2521   21.2104 C   0  0  2  0  0  0  0  0  0  0  0  0
   10.8137  -17.0537   20.6460 N   0  0  0  0  0  0  0  0  0  0  0  0
   13.1220  -17.1737   20.1358 C   0  0  0  0  0  0  0  0  0  0  0  0
   14.2091  -16.5638   20.2891 O   0  0  0  0  0  0  0  0  0  0  0  0
   12.8954  -17.7768   18.9148 O   0  0  0  0  0  0  0  0  0  0  0  0
  2  3  1  0
  2  1  1  1
  4  5  2  0
  4  3  1  0
  6  5  1  0
  7 12  2  0
  7  6  1  0
  8  7  1  0
  9 10  1  0
  9  8  2  0
 10 11  2  0
 11 12  1  0
 12  4  1  0
 13  2  1  0
 14 13  2  0
 16 15  1  1
 16 18  1  0
 16 17  1  0
 17 13  1  0
 18 19  2  0
 21 20  1  1
 22 21  1  0
 23 21  1  0
 23 25  1  0
 23 24  1  6
 24 18  1  0
 25 26  2  0
 25 27  1  0
M  END
$$$$
