WAT.pdb
     RDKit          3D

 27 28  0  0  1  0  0  0  0  0999 V2000
    6.7918  -17.8016   24.1417 N   0  0  0  0  0  0  0  0  0  0  0  0
    7.5872  -16.7370   23.6237 C   0  0  1  0  0  0  0  0  0  0  0  0
    8.1606  -15.9251   24.7587 C   0  0  0  0  0  0  0  0  0  0  0  0
    7.1964  -15.0500   25.4407 C   0  0  0  0  0  0  0  0  0  0  0  0
    6.0246  -15.4457   26.1032 C   0  0  0  0  0  0  0  0  0  0  0  0
    5.4117  -14.3479   26.5607 N   0  0  0  0  0  0  0  0  0  0  0  0
    6.1328  -13.2666   26.2251 C   0  0  0  0  0  0  0  0  0  0  0  0
    5.9008  -11.9221   26.4888 C   0  0  0  0  0  0  0  0  0  0  0  0
    6.8284  -11.0124   26.0281 C   0  0  0  0  0  0  0  0  0  0  0  0
    7.9512  -11.3992   25.3302 C   0  0  0  0  0  0  0  0  0  0  0  0
    8.1794  -12.7382   25.0690 C   0  0  0  0  0  0  0  0  0  0  0  0
    7.2668  -13.6667   25.5179 C   0  0  0  0  0  0  0  0  0  0  0  0
    8.6838  -17.2815   22.7657 C   0  0  0  0  0  0  0  0  0  0  0  0
    9.2752  -18.3678   23.0916 O   0  0  0  0  0  0  0  0  0  0  0  0
   10.4975  -16.4105   19.5428 C   0  0  0  0  0  0  0  0  0  0  0  0
   10.2857  -17.1609   20.8193 C   0  0  2  0  0  0  0  0  0  0  0  0
    9.1456  -16.6734   21.5737 N   0  0  0  0  0  0  0  0  0  0  0  0
   11.5176  -17.1853   21.5960 C   0  0  0  0  0  0  0  0  0  0  0  0
   11.8984  -16.1875   22.2416 O   0  0  0  0  0  0  0  0  0  0  0  0
   12.9033  -20.4312   23.9080 C   0  0  0  0  0  0  0  0  0  0  0  0
   13.8216  -19.8843   22.8507 C   0  0  1  0  0  0  0  0  0  0  0  0
   13.6296  -20.6921   21.7068 O   0  0  0  0  0  0  0  0  0  0  0  0
   13.5045  -18.4844   22.4344 C   0  0  2  0  0  0  0  0  0  0  0  0
   12.3214  -18.3448   21.6421 N   0  0  0  0  0  0  0  0  0  0  0  0
   14.6531  -17.9393   21.6847 C   0  0  0  0  0  0  0  0  0  0  0  0
   14.5826  -17.6813   20.4576 O   0  0  0  0  0  0  0  0  0  0  0  0
   15.8540  -17.6945   22.3203 O   0  0  0  0  0  0  0  0  0  0  0  0
  2  3  1  0
  2  1  1  1
  4  5  2  0
  4  3  1  0
  6  5  1  0
  7 12  2  0
  7  6  1  0
  8  7  1  0
  9 10  1  0
  9  8  2  0
 10 11  2  0
 11 12  1  0
 12  4  1  0
 13  2  1  0
 14 13  2  0
 16 15  1  6
 16 18  1  0
 16 17  1  0
 17 13  1  0
 18 19  2  0
 21 20  1  1
 22 21  1  0
 23 21  1  0
 23 25  1  0
 23 24  1  6
 24 18  1  0
 25 26  2  0
 25 27  1  0
M  END
$$$$
