WAM.pdb
     RDKit          3D

 28 29  0  0  1  0  0  0  0  0999 V2000
    7.0073  -17.1785   24.1440 N   0  0  0  0  0  0  0  0  0  0  0  0
    7.5082  -16.4583   22.9988 C   0  0  1  0  0  0  0  0  0  0  0  0
    7.9030  -15.0396   23.4129 C   0  0  0  0  0  0  0  0  0  0  0  0
    7.0506  -14.5208   24.4870 C   0  0  0  0  0  0  0  0  0  0  0  0
    6.0140  -15.1857   25.1075 C   0  0  0  0  0  0  0  0  0  0  0  0
    5.4934  -14.3593   26.0314 N   0  0  0  0  0  0  0  0  0  0  0  0
    6.1599  -13.1877   26.0251 C   0  0  0  0  0  0  0  0  0  0  0  0
    6.0282  -12.0183   26.7675 C   0  0  0  0  0  0  0  0  0  0  0  0
    6.8873  -10.9685   26.5181 C   0  0  0  0  0  0  0  0  0  0  0  0
    7.8553  -11.0631   25.5610 C   0  0  0  0  0  0  0  0  0  0  0  0
    8.0147  -12.2213   24.7986 C   0  0  0  0  0  0  0  0  0  0  0  0
    7.1514  -13.2727   25.0512 C   0  0  0  0  0  0  0  0  0  0  0  0
    8.7330  -17.1020   22.4927 C   0  0  0  0  0  0  0  0  0  0  0  0
    8.8556  -17.4464   21.2871 O   0  0  0  0  0  0  0  0  0  0  0  0
   11.4844  -16.2578   22.0547 C   0  0  0  0  0  0  0  0  0  0  0  0
   11.1890  -17.4988   22.8709 C   0  0  2  0  0  0  0  0  0  0  0  0
    9.8188  -17.3515   23.3680 N   0  0  0  0  0  0  0  0  0  0  0  0
   12.1300  -17.5717   24.0165 C   0  0  0  0  0  0  0  0  0  0  0  0
   13.3751  -17.6112   23.8683 O   0  0  0  0  0  0  0  0  0  0  0  0
    9.3904  -13.6480   28.4924 C   0  0  0  0  0  0  0  0  0  0  0  0
   11.0790  -14.2314   28.2611 S   0  0  0  0  0  0  0  0  0  0  0  0
   11.0497  -15.8512   27.4100 C   0  0  0  0  0  0  0  0  0  0  0  0
   12.4800  -16.2373   27.1667 C   0  0  0  0  0  0  0  0  0  0  0  0
   12.5452  -17.5486   26.4781 C   0  0  2  0  0  0  0  0  0  0  0  0
   11.6319  -17.5988   25.3346 N   0  0  0  0  0  0  0  0  0  0  0  0
   12.2694  -18.6541   27.3984 C   0  0  0  0  0  0  0  0  0  0  0  0
   11.2614  -19.5785   27.2844 O   0  0  0  0  0  0  0  0  0  0  0  0
   13.0283  -18.7916   28.4205 O   0  0  0  0  0  0  0  0  0  0  0  0
  2 13  1  0
  2  1  1  1
  3  2  1  0
  4 12  1  0
  4  3  1  0
  5  4  2  0
  6  5  1  0
  6  7  1  0
  7  8  1  0
  7 12  2  0
  8  9  2  0
  9 10  1  0
 11 10  2  0
 12 11  1  0
 13 14  2  0
 16 15  1  6
 17 16  1  0
 17 13  1  0
 18 16  1  0
 19 18  2  0
 21 20  1  0
 22 23  1  0
 22 21  1  0
 24 23  1  1
 24 25  1  0
 25 18  1  0
 26 24  1  0
 26 27  1  0
 28 26  2  0
M  END
$$$$
