WAM.pdb
     RDKit          3D

 28 29  0  0  1  0  0  0  0  0999 V2000
    6.6862  -16.8315   22.7235 N   0  0  0  0  0  0  0  0  0  0  0  0
    7.8141  -15.9740   22.9948 C   0  0  1  0  0  0  0  0  0  0  0  0
    8.0221  -15.8567   24.5058 C   0  0  0  0  0  0  0  0  0  0  0  0
    6.9933  -15.0282   25.1419 C   0  0  0  0  0  0  0  0  0  0  0  0
    5.8771  -15.4770   25.8158 C   0  0  0  0  0  0  0  0  0  0  0  0
    5.1960  -14.3990   26.2418 N   0  0  0  0  0  0  0  0  0  0  0  0
    5.8364  -13.2745   25.8647 C   0  0  0  0  0  0  0  0  0  0  0  0
    5.5641  -11.9222   26.0467 C   0  0  0  0  0  0  0  0  0  0  0  0
    6.4372  -10.9893   25.5274 C   0  0  0  0  0  0  0  0  0  0  0  0
    7.5538  -11.3738   24.8439 C   0  0  0  0  0  0  0  0  0  0  0  0
    7.8567  -12.7215   24.6435 C   0  0  0  0  0  0  0  0  0  0  0  0
    6.9790  -13.6550   25.1657 C   0  0  0  0  0  0  0  0  0  0  0  0
    9.0456  -16.5704   22.4485 C   0  0  0  0  0  0  0  0  0  0  0  0
    9.0633  -17.1610   21.3358 O   0  0  0  0  0  0  0  0  0  0  0  0
   11.8293  -16.3358   21.3871 C   0  0  0  0  0  0  0  0  0  0  0  0
   11.5011  -17.0750   22.6676 C   0  0  2  0  0  0  0  0  0  0  0  0
   10.2581  -16.4901   23.1767 N   0  0  0  0  0  0  0  0  0  0  0  0
   12.5914  -16.8644   23.6524 C   0  0  0  0  0  0  0  0  0  0  0  0
   13.4578  -15.9666   23.5215 O   0  0  0  0  0  0  0  0  0  0  0  0
   10.4123  -13.4012   27.8724 C   0  0  0  0  0  0  0  0  0  0  0  0
   11.2696  -14.9457   28.2259 S   0  0  0  0  0  0  0  0  0  0  0  0
   12.1123  -15.5319   26.7110 C   0  0  0  0  0  0  0  0  0  0  0  0
   12.7836  -16.8277   27.0638 C   0  0  0  0  0  0  0  0  0  0  0  0
   13.5585  -17.3336   25.9056 C   0  0  2  0  0  0  0  0  0  0  0  0
   12.6808  -17.6919   24.7897 N   0  0  0  0  0  0  0  0  0  0  0  0
   14.4000  -18.4732   26.2774 C   0  0  0  0  0  0  0  0  0  0  0  0
   15.6214  -18.4165   26.9007 O   0  0  0  0  0  0  0  0  0  0  0  0
   13.9778  -19.6501   26.0013 O   0  0  0  0  0  0  0  0  0  0  0  0
  2 13  1  0
  2  1  1  1
  3  2  1  0
  4 12  1  0
  4  3  1  0
  5  4  2  0
  6  5  1  0
  6  7  1  0
  7  8  1  0
  7 12  2  0
  8  9  2  0
  9 10  1  0
 11 10  2  0
 12 11  1  0
 13 14  2  0
 16 15  1  6
 17 16  1  0
 17 13  1  0
 18 16  1  0
 19 18  2  0
 21 20  1  0
 22 23  1  0
 22 21  1  0
 24 23  1  1
 24 25  1  0
 25 18  1  0
 26 24  1  0
 26 27  1  0
 28 26  2  0
M  END
$$$$
