WAM.pdb
     RDKit          3D

 28 29  0  0  1  0  0  0  0  0999 V2000
    6.6619  -18.1886   24.1576 N   0  0  0  0  0  0  0  0  0  0  0  0
    7.4867  -17.0137   24.0145 C   0  0  1  0  0  0  0  0  0  0  0  0
    7.8244  -16.4483   25.3952 C   0  0  0  0  0  0  0  0  0  0  0  0
    6.9859  -15.2960   25.7399 C   0  0  0  0  0  0  0  0  0  0  0  0
    5.8033  -15.3227   26.4485 C   0  0  0  0  0  0  0  0  0  0  0  0
    5.3555  -14.0586   26.5438 N   0  0  0  0  0  0  0  0  0  0  0  0
    6.2095  -13.2222   25.9210 C   0  0  0  0  0  0  0  0  0  0  0  0
    6.2170  -11.8439   25.7308 C   0  0  0  0  0  0  0  0  0  0  0  0
    7.2599  -11.2717   25.0327 C   0  0  0  0  0  0  0  0  0  0  0  0
    8.2742  -12.0345   24.5316 C   0  0  0  0  0  0  0  0  0  0  0  0
    8.2975  -13.4193   24.7043 C   0  0  0  0  0  0  0  0  0  0  0  0
    7.2500  -13.9905   25.4051 C   0  0  0  0  0  0  0  0  0  0  0  0
    8.7696  -17.3703   23.3838 C   0  0  0  0  0  0  0  0  0  0  0  0
    9.2262  -18.5439   23.4193 O   0  0  0  0  0  0  0  0  0  0  0  0
   11.2401  -15.4938   21.3035 C   0  0  0  0  0  0  0  0  0  0  0  0
   10.8679  -16.6668   22.1862 C   0  0  2  0  0  0  0  0  0  0  0  0
    9.5303  -16.3821   22.7115 N   0  0  0  0  0  0  0  0  0  0  0  0
   11.8340  -16.7659   23.3086 C   0  0  0  0  0  0  0  0  0  0  0  0
   13.0764  -16.7612   23.1349 O   0  0  0  0  0  0  0  0  0  0  0  0
    8.1941  -14.4299   28.2574 C   0  0  0  0  0  0  0  0  0  0  0  0
    9.6676  -15.4475   28.4546 S   0  0  0  0  0  0  0  0  0  0  0  0
   10.4077  -15.7676   26.8119 C   0  0  0  0  0  0  0  0  0  0  0  0
   11.6168  -16.6272   27.0429 C   0  0  0  0  0  0  0  0  0  0  0  0
   12.3023  -16.9008   25.7571 C   0  0  2  0  0  0  0  0  0  0  0  0
   11.3641  -16.8704   24.6332 N   0  0  0  0  0  0  0  0  0  0  0  0
   13.0166  -18.1790   25.7892 C   0  0  0  0  0  0  0  0  0  0  0  0
   14.1034  -18.4869   26.5688 O   0  0  0  0  0  0  0  0  0  0  0  0
   12.6078  -19.1178   25.0205 O   0  0  0  0  0  0  0  0  0  0  0  0
  2 13  1  0
  2  1  1  1
  3  2  1  0
  4 12  1  0
  4  3  1  0
  5  4  2  0
  6  5  1  0
  6  7  1  0
  7  8  1  0
  7 12  2  0
  8  9  2  0
  9 10  1  0
 11 10  2  0
 12 11  1  0
 13 14  2  0
 16 15  1  6
 17 16  1  0
 17 13  1  0
 18 16  1  0
 19 18  2  0
 21 20  1  0
 22 23  1  0
 22 21  1  0
 24 23  1  1
 24 25  1  0
 25 18  1  0
 26 24  1  0
 26 27  1  0
 28 26  2  0
M  END
$$$$
