WAM.pdb
     RDKit          3D

 28 29  0  0  1  0  0  0  0  0999 V2000
    4.9778  -18.5139   23.9202 N   0  0  0  0  0  0  0  0  0  0  0  0
    6.3972  -18.7209   23.7658 C   0  0  1  0  0  0  0  0  0  0  0  0
    6.6754  -20.1971   23.4767 C   0  0  0  0  0  0  0  0  0  0  0  0
    6.4188  -21.0461   24.6441 C   0  0  0  0  0  0  0  0  0  0  0  0
    6.0127  -22.3638   24.6289 C   0  0  0  0  0  0  0  0  0  0  0  0
    5.8920  -22.7689   25.9052 N   0  0  0  0  0  0  0  0  0  0  0  0
    6.2064  -21.7571   26.7383 C   0  0  0  0  0  0  0  0  0  0  0  0
    6.2457  -21.6483   28.1249 C   0  0  0  0  0  0  0  0  0  0  0  0
    6.6190  -20.4469   28.6903 C   0  0  0  0  0  0  0  0  0  0  0  0
    6.9467  -19.3746   27.9129 C   0  0  0  0  0  0  0  0  0  0  0  0
    6.9178  -19.4496   26.5194 C   0  0  0  0  0  0  0  0  0  0  0  0
    6.5431  -20.6561   25.9552 C   0  0  0  0  0  0  0  0  0  0  0  0
    6.8946  -17.9663   22.6023 C   0  0  0  0  0  0  0  0  0  0  0  0
    7.7866  -18.4267   21.8411 O   0  0  0  0  0  0  0  0  0  0  0  0
    6.1251  -14.7568   20.9228 C   0  0  0  0  0  0  0  0  0  0  0  0
    7.1368  -15.6941   21.5484 C   0  0  2  0  0  0  0  0  0  0  0  0
    6.3699  -16.6832   22.3099 N   0  0  0  0  0  0  0  0  0  0  0  0
    8.0159  -14.9292   22.4677 C   0  0  0  0  0  0  0  0  0  0  0  0
    8.8199  -14.0547   22.0643 O   0  0  0  0  0  0  0  0  0  0  0  0
    6.5098  -10.9322   27.3951 C   0  0  0  0  0  0  0  0  0  0  0  0
    5.9891  -12.5366   26.7627 S   0  0  0  0  0  0  0  0  0  0  0  0
    7.0389  -12.9957   25.3358 C   0  0  0  0  0  0  0  0  0  0  0  0
    8.1616  -13.8327   25.8771 C   0  0  0  0  0  0  0  0  0  0  0  0
    8.8875  -14.4938   24.7663 C   0  0  2  0  0  0  0  0  0  0  0  0
    7.9658  -15.1746   23.8546 N   0  0  0  0  0  0  0  0  0  0  0  0
    9.8957  -15.4319   25.2649 C   0  0  0  0  0  0  0  0  0  0  0  0
    9.9781  -16.7709   24.9753 O   0  0  0  0  0  0  0  0  0  0  0  0
   10.7992  -14.9834   26.0536 O   0  0  0  0  0  0  0  0  0  0  0  0
  2 13  1  0
  2  1  1  6
  3  2  1  0
  4 12  1  0
  4  3  1  0
  5  4  2  0
  6  5  1  0
  6  7  1  0
  7  8  1  0
  7 12  2  0
  8  9  2  0
  9 10  1  0
 11 10  2  0
 12 11  1  0
 13 14  2  0
 16 15  1  1
 17 16  1  0
 17 13  1  0
 18 16  1  0
 19 18  2  0
 21 20  1  0
 22 23  1  0
 22 21  1  0
 24 23  1  1
 24 25  1  0
 25 18  1  0
 26 24  1  0
 26 27  1  0
 28 26  2  0
M  END
$$$$
