WAM.pdb
     RDKit          3D

 28 29  0  0  1  0  0  0  0  0999 V2000
    6.1081  -18.6190   24.1791 N   0  0  0  0  0  0  0  0  0  0  0  0
    6.5673  -17.2566   24.0605 C   0  0  1  0  0  0  0  0  0  0  0  0
    7.1497  -16.7897   25.3958 C   0  0  0  0  0  0  0  0  0  0  0  0
    6.4656  -15.5993   25.9102 C   0  0  0  0  0  0  0  0  0  0  0  0
    5.3007  -15.5750   26.6479 C   0  0  0  0  0  0  0  0  0  0  0  0
    5.0138  -14.2893   26.9164 N   0  0  0  0  0  0  0  0  0  0  0  0
    5.9539  -13.4882   26.3767 C   0  0  0  0  0  0  0  0  0  0  0  0
    6.1281  -12.1078   26.3618 C   0  0  0  0  0  0  0  0  0  0  0  0
    7.2217  -11.5796   25.7081 C   0  0  0  0  0  0  0  0  0  0  0  0
    8.1256  -12.3876   25.0820 C   0  0  0  0  0  0  0  0  0  0  0  0
    7.9809  -13.7758   25.0778 C   0  0  0  0  0  0  0  0  0  0  0  0
    6.8829  -14.3027   25.7345 C   0  0  0  0  0  0  0  0  0  0  0  0
    7.6609  -17.1755   23.0766 C   0  0  0  0  0  0  0  0  0  0  0  0
    8.3919  -18.1662   22.8094 O   0  0  0  0  0  0  0  0  0  0  0  0
    8.7796  -14.5092   20.7092 C   0  0  0  0  0  0  0  0  0  0  0  0
    8.9716  -15.8504   21.3859 C   0  0  2  0  0  0  0  0  0  0  0  0
    7.9177  -15.9589   22.3976 N   0  0  0  0  0  0  0  0  0  0  0  0
   10.3011  -15.8849   22.0449 C   0  0  0  0  0  0  0  0  0  0  0  0
   11.3705  -15.6753   21.4233 O   0  0  0  0  0  0  0  0  0  0  0  0
    9.5792  -13.6585   28.4228 C   0  0  0  0  0  0  0  0  0  0  0  0
   10.6637  -14.9727   27.8378 S   0  0  0  0  0  0  0  0  0  0  0  0
   10.7628  -14.9091   26.0116 C   0  0  0  0  0  0  0  0  0  0  0  0
   11.5296  -16.1249   25.5780 C   0  0  0  0  0  0  0  0  0  0  0  0
   11.6913  -16.1282   24.1043 C   0  0  2  0  0  0  0  0  0  0  0  0
   10.3952  -16.1617   23.4236 N   0  0  0  0  0  0  0  0  0  0  0  0
   12.5298  -17.2427   23.6572 C   0  0  0  0  0  0  0  0  0  0  0  0
   13.8810  -17.3779   23.8556 O   0  0  0  0  0  0  0  0  0  0  0  0
   11.9707  -18.1971   23.0121 O   0  0  0  0  0  0  0  0  0  0  0  0
  2 13  1  0
  2  1  1  1
  3  2  1  0
  4 12  1  0
  4  3  1  0
  5  4  2  0
  6  5  1  0
  6  7  1  0
  7  8  1  0
  7 12  2  0
  8  9  2  0
  9 10  1  0
 11 10  2  0
 12 11  1  0
 13 14  2  0
 16 15  1  1
 17 16  1  0
 17 13  1  0
 18 16  1  0
 19 18  2  0
 21 20  1  0
 22 23  1  0
 22 21  1  0
 24 23  1  1
 24 25  1  0
 25 18  1  0
 26 24  1  0
 26 27  1  0
 28 26  2  0
M  END
$$$$
