WAM.pdb
     RDKit          3D

 28 29  0  0  1  0  0  0  0  0999 V2000
    6.3343  -18.4385   23.7743 N   0  0  0  0  0  0  0  0  0  0  0  0
    7.1125  -17.2248   23.7272 C   0  0  1  0  0  0  0  0  0  0  0  0
    7.5366  -16.8278   25.1424 C   0  0  0  0  0  0  0  0  0  0  0  0
    6.8559  -15.6134   25.6023 C   0  0  0  0  0  0  0  0  0  0  0  0
    5.7127  -15.5529   26.3711 C   0  0  0  0  0  0  0  0  0  0  0  0
    5.4211  -14.2553   26.5681 N   0  0  0  0  0  0  0  0  0  0  0  0
    6.3371  -13.4817   25.9525 C   0  0  0  0  0  0  0  0  0  0  0  0
    6.4971  -12.1035   25.8473 C   0  0  0  0  0  0  0  0  0  0  0  0
    7.5661  -11.6080   25.1301 C   0  0  0  0  0  0  0  0  0  0  0  0
    8.4594  -12.4459   24.5287 C   0  0  0  0  0  0  0  0  0  0  0  0
    8.3284  -13.8328   24.6144 C   0  0  0  0  0  0  0  0  0  0  0  0
    7.2551  -14.3268   25.3346 C   0  0  0  0  0  0  0  0  0  0  0  0
    8.3542  -17.4495   22.9666 C   0  0  0  0  0  0  0  0  0  0  0  0
    8.8423  -18.6007   22.8125 O   0  0  0  0  0  0  0  0  0  0  0  0
   10.5313  -15.3288   20.8289 C   0  0  0  0  0  0  0  0  0  0  0  0
   10.3503  -16.5161   21.7516 C   0  0  2  0  0  0  0  0  0  0  0  0
    9.0375  -16.3550   22.3815 N   0  0  0  0  0  0  0  0  0  0  0  0
   11.4085  -16.4982   22.7923 C   0  0  0  0  0  0  0  0  0  0  0  0
   12.6280  -16.3969   22.5160 O   0  0  0  0  0  0  0  0  0  0  0  0
    8.5635  -13.7432   28.2985 C   0  0  0  0  0  0  0  0  0  0  0  0
    9.9353  -14.9101   28.2536 S   0  0  0  0  0  0  0  0  0  0  0  0
   10.4019  -15.2307   26.5134 C   0  0  0  0  0  0  0  0  0  0  0  0
   11.4523  -16.3033   26.5383 C   0  0  0  0  0  0  0  0  0  0  0  0
   12.0714  -16.4432   25.1986 C   0  0  2  0  0  0  0  0  0  0  0  0
   11.0573  -16.5972   24.1536 N   0  0  0  0  0  0  0  0  0  0  0  0
   13.0184  -17.5597   25.1571 C   0  0  0  0  0  0  0  0  0  0  0  0
   14.2529  -17.6052   25.7550 O   0  0  0  0  0  0  0  0  0  0  0  0
   12.6861  -18.6083   24.5016 O   0  0  0  0  0  0  0  0  0  0  0  0
  2 13  1  0
  2  1  1  1
  3  2  1  0
  4 12  1  0
  4  3  1  0
  5  4  2  0
  6  5  1  0
  6  7  1  0
  7  8  1  0
  7 12  2  0
  8  9  2  0
  9 10  1  0
 11 10  2  0
 12 11  1  0
 13 14  2  0
 16 15  1  6
 17 16  1  0
 17 13  1  0
 18 16  1  0
 19 18  2  0
 21 20  1  0
 22 23  1  0
 22 21  1  0
 24 23  1  1
 24 25  1  0
 25 18  1  0
 26 24  1  0
 26 27  1  0
 28 26  2  0
M  END
$$$$
