WAM.pdb
     RDKit          3D

 28 29  0  0  1  0  0  0  0  0999 V2000
    8.5387  -16.8699   20.6897 N   0  0  0  0  0  0  0  0  0  0  0  0
    9.0272  -16.3614   21.9483 C   0  0  1  0  0  0  0  0  0  0  0  0
    7.9290  -16.4643   23.0082 C   0  0  0  0  0  0  0  0  0  0  0  0
    7.2571  -15.1807   23.2331 C   0  0  0  0  0  0  0  0  0  0  0  0
    6.5851  -14.4287   22.2926 C   0  0  0  0  0  0  0  0  0  0  0  0
    6.1194  -13.3273   22.9070 N   0  0  0  0  0  0  0  0  0  0  0  0
    6.4692  -13.3466   24.2086 C   0  0  0  0  0  0  0  0  0  0  0  0
    6.2434  -12.4683   25.2638 C   0  0  0  0  0  0  0  0  0  0  0  0
    6.7437  -12.7800   26.5108 C   0  0  0  0  0  0  0  0  0  0  0  0
    7.4504  -13.9284   26.7191 C   0  0  0  0  0  0  0  0  0  0  0  0
    7.6948  -14.8309   25.6828 C   0  0  0  0  0  0  0  0  0  0  0  0
    7.1916  -14.5156   24.4330 C   0  0  0  0  0  0  0  0  0  0  0  0
   10.1486  -17.1886   22.4268 C   0  0  0  0  0  0  0  0  0  0  0  0
   10.0535  -18.4399   22.5383 O   0  0  0  0  0  0  0  0  0  0  0  0
   13.7630  -16.5661   22.9043 C   0  0  0  0  0  0  0  0  0  0  0  0
   12.5254  -17.3752   23.2317 C   0  0  2  0  0  0  0  0  0  0  0  0
   11.3800  -16.5826   22.7778 N   0  0  0  0  0  0  0  0  0  0  0  0
   12.4418  -17.5772   24.6998 C   0  0  0  0  0  0  0  0  0  0  0  0
   13.3457  -18.1469   25.3572 O   0  0  0  0  0  0  0  0  0  0  0  0
   10.7092  -12.2753   28.6523 C   0  0  0  0  0  0  0  0  0  0  0  0
    9.8559  -13.8176   28.2802 S   0  0  0  0  0  0  0  0  0  0  0  0
   11.0829  -15.0916   27.8110 C   0  0  0  0  0  0  0  0  0  0  0  0
   10.3099  -16.3367   27.4849 C   0  0  0  0  0  0  0  0  0  0  0  0
   11.1998  -17.3396   26.8523 C   0  0  2  0  0  0  0  0  0  0  0  0
   11.3129  -17.1203   25.4090 N   0  0  0  0  0  0  0  0  0  0  0  0
   10.7504  -18.7065   27.1256 C   0  0  0  0  0  0  0  0  0  0  0  0
   10.9937  -19.4330   28.2643 O   0  0  0  0  0  0  0  0  0  0  0  0
   10.0631  -19.3064   26.2272 O   0  0  0  0  0  0  0  0  0  0  0  0
  2 13  1  0
  2  1  1  6
  3  2  1  0
  4 12  1  0
  4  3  1  0
  5  4  2  0
  6  5  1  0
  6  7  1  0
  7  8  1  0
  7 12  2  0
  8  9  2  0
  9 10  1  0
 11 10  2  0
 12 11  1  0
 13 14  2  0
 16 15  1  1
 17 16  1  0
 17 13  1  0
 18 16  1  0
 19 18  2  0
 21 20  1  0
 22 23  1  0
 22 21  1  0
 24 23  1  6
 24 25  1  0
 25 18  1  0
 26 24  1  0
 26 27  1  0
 28 26  2  0
M  END
$$$$
