WAM.pdb
     RDKit          3D

 28 29  0  0  1  0  0  0  0  0999 V2000
    6.4419  -17.7870   23.9798 N   0  0  0  0  0  0  0  0  0  0  0  0
    7.4611  -16.7997   23.7201 C   0  0  1  0  0  0  0  0  0  0  0  0
    7.8190  -16.0731   25.0179 C   0  0  0  0  0  0  0  0  0  0  0  0
    6.8183  -15.0645   25.3798 C   0  0  0  0  0  0  0  0  0  0  0  0
    5.5861  -15.2979   25.9532 C   0  0  0  0  0  0  0  0  0  0  0  0
    4.9814  -14.1089   26.1204 N   0  0  0  0  0  0  0  0  0  0  0  0
    5.7826  -13.1211   25.6742 C   0  0  0  0  0  0  0  0  0  0  0  0
    5.6408  -11.7381   25.6180 C   0  0  0  0  0  0  0  0  0  0  0  0
    6.6678  -10.9822   25.0921 C   0  0  0  0  0  0  0  0  0  0  0  0
    7.8097  -11.5697   24.6310 C   0  0  0  0  0  0  0  0  0  0  0  0
    7.9843  -12.9539   24.6727 C   0  0  0  0  0  0  0  0  0  0  0  0
    6.9525  -13.7095   25.2008 C   0  0  0  0  0  0  0  0  0  0  0  0
    8.6950  -17.4569   23.2552 C   0  0  0  0  0  0  0  0  0  0  0  0
    9.0171  -18.6144   23.6343 O   0  0  0  0  0  0  0  0  0  0  0  0
   11.4027  -16.5431   20.8575 C   0  0  0  0  0  0  0  0  0  0  0  0
   10.9209  -17.2679   22.0969 C   0  0  2  0  0  0  0  0  0  0  0  0
    9.5610  -16.7882   22.3553 N   0  0  0  0  0  0  0  0  0  0  0  0
   11.7981  -16.9221   23.2432 C   0  0  0  0  0  0  0  0  0  0  0  0
   12.5967  -15.9549   23.2168 O   0  0  0  0  0  0  0  0  0  0  0  0
   10.9990  -14.0974   29.1728 C   0  0  0  0  0  0  0  0  0  0  0  0
   10.1063  -14.5564   27.6768 S   0  0  0  0  0  0  0  0  0  0  0  0
   10.6912  -16.1914   27.0993 C   0  0  0  0  0  0  0  0  0  0  0  0
   11.7827  -15.9320   26.1015 C   0  0  0  0  0  0  0  0  0  0  0  0
   12.3801  -17.2127   25.6535 C   0  0  2  0  0  0  0  0  0  0  0  0
   11.7524  -17.6942   24.4213 N   0  0  0  0  0  0  0  0  0  0  0  0
   12.3033  -18.2370   26.6975 C   0  0  0  0  0  0  0  0  0  0  0  0
   11.5571  -19.3881   26.6578 O   0  0  0  0  0  0  0  0  0  0  0  0
   12.9891  -18.0629   27.7648 O   0  0  0  0  0  0  0  0  0  0  0  0
  2 13  1  0
  2  1  1  1
  3  2  1  0
  4 12  1  0
  4  3  1  0
  5  4  2  0
  6  5  1  0
  6  7  1  0
  7  8  1  0
  7 12  2  0
  8  9  2  0
  9 10  1  0
 11 10  2  0
 12 11  1  0
 13 14  2  0
 16 15  1  6
 17 16  1  0
 17 13  1  0
 18 16  1  0
 19 18  2  0
 21 20  1  0
 22 23  1  0
 22 21  1  0
 24 23  1  1
 24 25  1  0
 25 18  1  0
 26 24  1  0
 26 27  1  0
 28 26  2  0
M  END
$$$$
