WAM.pdb
     RDKit          3D

 28 29  0  0  1  0  0  0  0  0999 V2000
    7.2823  -18.6144   22.3181 N   0  0  0  0  0  0  0  0  0  0  0  0
    7.9676  -17.4815   22.8907 C   0  0  1  0  0  0  0  0  0  0  0  0
    7.0037  -16.2993   23.0069 C   0  0  0  0  0  0  0  0  0  0  0  0
    6.9507  -15.5072   21.7743 C   0  0  0  0  0  0  0  0  0  0  0  0
    6.3922  -15.8917   20.5735 C   0  0  0  0  0  0  0  0  0  0  0  0
    6.5552  -14.8791   19.7043 N   0  0  0  0  0  0  0  0  0  0  0  0
    7.1988  -13.8588   20.3056 C   0  0  0  0  0  0  0  0  0  0  0  0
    7.6059  -12.6035   19.8645 C   0  0  0  0  0  0  0  0  0  0  0  0
    8.2584  -11.7656   20.7446 C   0  0  0  0  0  0  0  0  0  0  0  0
    8.5066  -12.1500   22.0300 C   0  0  0  0  0  0  0  0  0  0  0  0
    8.1118  -13.4018   22.5047 C   0  0  0  0  0  0  0  0  0  0  0  0
    7.4574  -14.2401   21.6195 C   0  0  0  0  0  0  0  0  0  0  0  0
    8.4089  -17.7970   24.2605 C   0  0  0  0  0  0  0  0  0  0  0  0
    8.0395  -18.8445   24.8551 O   0  0  0  0  0  0  0  0  0  0  0  0
   11.3861  -17.4211   23.9619 C   0  0  0  0  0  0  0  0  0  0  0  0
   10.6521  -17.2857   25.2797 C   0  0  2  0  0  0  0  0  0  0  0  0
    9.2743  -16.9124   24.9502 N   0  0  0  0  0  0  0  0  0  0  0  0
   11.2808  -16.2102   26.0866 C   0  0  0  0  0  0  0  0  0  0  0  0
   12.5215  -16.1259   26.2528 O   0  0  0  0  0  0  0  0  0  0  0  0
    5.6751  -13.7493   27.4308 C   0  0  0  0  0  0  0  0  0  0  0  0
    7.4376  -13.4351   27.2302 S   0  0  0  0  0  0  0  0  0  0  0  0
    8.3799  -14.5212   28.3622 C   0  0  0  0  0  0  0  0  0  0  0  0
    9.7162  -13.8700   28.5731 C   0  0  0  0  0  0  0  0  0  0  0  0
   10.7960  -14.7362   28.0424 C   0  0  2  0  0  0  0  0  0  0  0  0
   10.4754  -15.2310   26.7020 N   0  0  0  0  0  0  0  0  0  0  0  0
   11.0802  -15.8554   28.9434 C   0  0  0  0  0  0  0  0  0  0  0  0
   10.8355  -17.1832   28.6975 O   0  0  0  0  0  0  0  0  0  0  0  0
   11.6066  -15.5949   30.0813 O   0  0  0  0  0  0  0  0  0  0  0  0
  2 13  1  0
  2  1  1  1
  3  2  1  0
  4 12  1  0
  4  3  1  0
  5  4  2  0
  6  5  1  0
  6  7  1  0
  7  8  1  0
  7 12  2  0
  8  9  2  0
  9 10  1  0
 11 10  2  0
 12 11  1  0
 13 14  2  0
 16 15  1  6
 17 16  1  0
 17 13  1  0
 18 16  1  0
 19 18  2  0
 21 20  1  0
 22 23  1  0
 22 21  1  0
 24 23  1  1
 24 25  1  0
 25 18  1  0
 26 24  1  0
 26 27  1  0
 28 26  2  0
M  END
$$$$
