WAM.pdb
     RDKit          3D

 28 29  0  0  1  0  0  0  0  0999 V2000
    6.6630  -18.3199   23.7325 N   0  0  0  0  0  0  0  0  0  0  0  0
    7.2105  -17.6198   22.5963 C   0  0  1  0  0  0  0  0  0  0  0  0
    6.8584  -16.1338   22.6864 C   0  0  0  0  0  0  0  0  0  0  0  0
    6.6953  -15.6884   24.0737 C   0  0  0  0  0  0  0  0  0  0  0  0
    6.3133  -16.4655   25.1469 C   0  0  0  0  0  0  0  0  0  0  0  0
    6.2848  -15.6750   26.2341 N   0  0  0  0  0  0  0  0  0  0  0  0
    6.6352  -14.4182   25.8955 C   0  0  0  0  0  0  0  0  0  0  0  0
    6.7642  -13.2409   26.6257 C   0  0  0  0  0  0  0  0  0  0  0  0
    7.1520  -12.0893   25.9732 C   0  0  0  0  0  0  0  0  0  0  0  0
    7.4078  -12.0917   24.6329 C   0  0  0  0  0  0  0  0  0  0  0  0
    7.2881  -13.2549   23.8709 C   0  0  0  0  0  0  0  0  0  0  0  0
    6.8990  -14.4086   24.5283 C   0  0  0  0  0  0  0  0  0  0  0  0
    8.6814  -17.7023   22.6123 C   0  0  0  0  0  0  0  0  0  0  0  0
    9.2898  -18.6463   23.1833 O   0  0  0  0  0  0  0  0  0  0  0  0
   11.2874  -15.7818   20.7513 C   0  0  0  0  0  0  0  0  0  0  0  0
   10.8802  -16.8994   21.6887 C   0  0  2  0  0  0  0  0  0  0  0  0
    9.4566  -16.7031   21.9738 N   0  0  0  0  0  0  0  0  0  0  0  0
   11.6598  -16.7964   22.9476 C   0  0  0  0  0  0  0  0  0  0  0  0
   12.8988  -16.9875   22.9940 O   0  0  0  0  0  0  0  0  0  0  0  0
    9.7580  -13.9940   29.7543 C   0  0  0  0  0  0  0  0  0  0  0  0
   10.9594  -13.9211   28.4138 S   0  0  0  0  0  0  0  0  0  0  0  0
   10.4679  -15.0904   27.0947 C   0  0  0  0  0  0  0  0  0  0  0  0
   11.4617  -14.9282   25.9811 C   0  0  0  0  0  0  0  0  0  0  0  0
   11.7752  -16.2466   25.3800 C   0  0  2  0  0  0  0  0  0  0  0  0
   11.0072  -16.4722   24.1539 N   0  0  0  0  0  0  0  0  0  0  0  0
   11.5499  -17.3385   26.3297 C   0  0  0  0  0  0  0  0  0  0  0  0
   12.2021  -17.5306   27.5219 O   0  0  0  0  0  0  0  0  0  0  0  0
   10.6634  -18.2161   26.0405 O   0  0  0  0  0  0  0  0  0  0  0  0
  2 13  1  0
  2  1  1  1
  3  2  1  0
  4 12  1  0
  4  3  1  0
  5  4  2  0
  6  5  1  0
  6  7  1  0
  7  8  1  0
  7 12  2  0
  8  9  2  0
  9 10  1  0
 11 10  2  0
 12 11  1  0
 13 14  2  0
 16 15  1  6
 17 16  1  0
 17 13  1  0
 18 16  1  0
 19 18  2  0
 21 20  1  0
 22 23  1  0
 22 21  1  0
 24 23  1  1
 24 25  1  0
 25 18  1  0
 26 24  1  0
 26 27  1  0
 28 26  2  0
M  END
$$$$
