WAM.pdb
     RDKit          3D

 28 29  0  0  1  0  0  0  0  0999 V2000
    6.0968  -18.5121   24.2452 N   0  0  0  0  0  0  0  0  0  0  0  0
    6.5884  -17.1915   23.9359 C   0  0  1  0  0  0  0  0  0  0  0  0
    7.2205  -16.5705   25.1829 C   0  0  0  0  0  0  0  0  0  0  0  0
    6.5151  -15.3598   25.6145 C   0  0  0  0  0  0  0  0  0  0  0  0
    5.2057  -15.2786   26.0394 C   0  0  0  0  0  0  0  0  0  0  0  0
    4.9529  -13.9930   26.3407 N   0  0  0  0  0  0  0  0  0  0  0  0
    6.0543  -13.2469   26.1240 C   0  0  0  0  0  0  0  0  0  0  0  0
    6.3250  -11.8904   26.2746 C   0  0  0  0  0  0  0  0  0  0  0  0
    7.5840  -11.4218   25.9618 C   0  0  0  0  0  0  0  0  0  0  0  0
    8.5571  -12.2652   25.5107 C   0  0  0  0  0  0  0  0  0  0  0  0
    8.3191  -13.6309   25.3482 C   0  0  0  0  0  0  0  0  0  0  0  0
    7.0553  -14.0980   25.6629 C   0  0  0  0  0  0  0  0  0  0  0  0
    7.6555  -17.2735   22.9234 C   0  0  0  0  0  0  0  0  0  0  0  0
    8.4386  -18.2583   22.8586 O   0  0  0  0  0  0  0  0  0  0  0  0
    8.8444  -14.9076   20.2759 C   0  0  0  0  0  0  0  0  0  0  0  0
    9.0390  -16.1144   21.1699 C   0  0  2  0  0  0  0  0  0  0  0  0
    7.8261  -16.2270   21.9838 N   0  0  0  0  0  0  0  0  0  0  0  0
   10.2122  -15.8916   22.0513 C   0  0  0  0  0  0  0  0  0  0  0  0
   11.3795  -15.7728   21.6074 O   0  0  0  0  0  0  0  0  0  0  0  0
   10.0534  -13.3803   28.3081 C   0  0  0  0  0  0  0  0  0  0  0  0
   11.2542  -14.7231   28.2875 S   0  0  0  0  0  0  0  0  0  0  0  0
   11.8995  -14.9334   26.5880 C   0  0  0  0  0  0  0  0  0  0  0  0
   10.7401  -15.3615   25.7355 C   0  0  0  0  0  0  0  0  0  0  0  0
   11.1708  -15.5100   24.3247 C   0  0  2  0  0  0  0  0  0  0  0  0
   10.0366  -15.8058   23.4471 N   0  0  0  0  0  0  0  0  0  0  0  0
   12.2053  -16.5370   24.1829 C   0  0  0  0  0  0  0  0  0  0  0  0
   12.0206  -17.8270   23.7524 O   0  0  0  0  0  0  0  0  0  0  0  0
   13.4095  -16.2262   24.4874 O   0  0  0  0  0  0  0  0  0  0  0  0
  2 13  1  0
  2  1  1  1
  3  2  1  0
  4 12  1  0
  4  3  1  0
  5  4  2  0
  6  5  1  0
  6  7  1  0
  7  8  1  0
  7 12  2  0
  8  9  2  0
  9 10  1  0
 11 10  2  0
 12 11  1  0
 13 14  2  0
 16 15  1  6
 17 16  1  0
 17 13  1  0
 18 16  1  0
 19 18  2  0
 21 20  1  0
 22 23  1  0
 22 21  1  0
 24 23  1  1
 24 25  1  0
 25 18  1  0
 26 24  1  0
 26 27  1  0
 28 26  2  0
M  END
$$$$
