WAM.pdb
     RDKit          3D

 28 29  0  0  1  0  0  0  0  0999 V2000
    6.7019  -18.3875   24.4562 N   0  0  0  0  0  0  0  0  0  0  0  0
    7.5647  -17.2546   24.2255 C   0  0  1  0  0  0  0  0  0  0  0  0
    7.8109  -16.5161   25.5423 C   0  0  0  0  0  0  0  0  0  0  0  0
    6.8719  -15.4070   25.7370 C   0  0  0  0  0  0  0  0  0  0  0  0
    5.7253  -15.4256   26.5029 C   0  0  0  0  0  0  0  0  0  0  0  0
    5.1539  -14.2120   26.4125 N   0  0  0  0  0  0  0  0  0  0  0  0
    5.8938  -13.4159   25.6154 C   0  0  0  0  0  0  0  0  0  0  0  0
    5.7526  -12.0952   25.2006 C   0  0  0  0  0  0  0  0  0  0  0  0
    6.7046  -11.5530   24.3627 C   0  0  0  0  0  0  0  0  0  0  0  0
    7.7726  -12.2897   23.9402 C   0  0  0  0  0  0  0  0  0  0  0  0
    7.9444  -13.6167   24.3373 C   0  0  0  0  0  0  0  0  0  0  0  0
    6.9878  -14.1579   25.1779 C   0  0  0  0  0  0  0  0  0  0  0  0
    8.8823  -17.7112   23.7498 C   0  0  0  0  0  0  0  0  0  0  0  0
    9.2549  -18.9090   23.8672 O   0  0  0  0  0  0  0  0  0  0  0  0
   11.7194  -16.0404   21.9811 C   0  0  0  0  0  0  0  0  0  0  0  0
   11.1611  -17.1582   22.8369 C   0  0  2  0  0  0  0  0  0  0  0  0
    9.7742  -16.7955   23.1390 N   0  0  0  0  0  0  0  0  0  0  0  0
   11.9387  -17.2499   24.0978 C   0  0  0  0  0  0  0  0  0  0  0  0
   13.1527  -17.5652   24.1231 O   0  0  0  0  0  0  0  0  0  0  0  0
   10.2206  -12.3283   28.1374 C   0  0  0  0  0  0  0  0  0  0  0  0
   10.5992  -14.0126   28.6524 S   0  0  0  0  0  0  0  0  0  0  0  0
   11.2970  -14.9374   27.2360 C   0  0  0  0  0  0  0  0  0  0  0  0
   11.4490  -16.3626   27.6832 C   0  0  0  0  0  0  0  0  0  0  0  0
   12.0288  -17.1815   26.5918 C   0  0  2  0  0  0  0  0  0  0  0  0
   11.3131  -16.9768   25.3308 N   0  0  0  0  0  0  0  0  0  0  0  0
   12.0506  -18.6040   26.9394 C   0  0  0  0  0  0  0  0  0  0  0  0
   11.4480  -19.6229   26.2451 O   0  0  0  0  0  0  0  0  0  0  0  0
   12.6860  -18.9576   27.9934 O   0  0  0  0  0  0  0  0  0  0  0  0
  2 13  1  0
  2  1  1  1
  3  2  1  0
  4 12  1  0
  4  3  1  0
  5  4  2  0
  6  5  1  0
  6  7  1  0
  7  8  1  0
  7 12  2  0
  8  9  2  0
  9 10  1  0
 11 10  2  0
 12 11  1  0
 13 14  2  0
 16 15  1  6
 17 16  1  0
 17 13  1  0
 18 16  1  0
 19 18  2  0
 21 20  1  0
 22 23  1  0
 22 21  1  0
 24 23  1  1
 24 25  1  0
 25 18  1  0
 26 24  1  0
 26 27  1  0
 28 26  2  0
M  END
$$$$
