WAM.pdb
     RDKit          3D

 28 29  0  0  1  0  0  0  0  0999 V2000
    6.9861  -17.5604   24.0381 N   0  0  0  0  0  0  0  0  0  0  0  0
    7.9430  -16.5250   23.7327 C   0  0  1  0  0  0  0  0  0  0  0  0
    8.3152  -15.7722   25.0113 C   0  0  0  0  0  0  0  0  0  0  0  0
    7.2211  -14.9210   25.4890 C   0  0  0  0  0  0  0  0  0  0  0  0
    6.1921  -15.2976   26.3261 C   0  0  0  0  0  0  0  0  0  0  0  0
    5.4057  -14.2237   26.5156 N   0  0  0  0  0  0  0  0  0  0  0  0
    5.8944  -13.1717   25.8293 C   0  0  0  0  0  0  0  0  0  0  0  0
    5.4720  -11.8535   25.6876 C   0  0  0  0  0  0  0  0  0  0  0  0
    6.2088  -10.9975   24.8958 C   0  0  0  0  0  0  0  0  0  0  0  0
    7.3359  -11.4247   24.2564 C   0  0  0  0  0  0  0  0  0  0  0  0
    7.7874  -12.7399   24.3770 C   0  0  0  0  0  0  0  0  0  0  0  0
    7.0462  -13.5962   25.1720 C   0  0  0  0  0  0  0  0  0  0  0  0
    9.1891  -17.1227   23.2220 C   0  0  0  0  0  0  0  0  0  0  0  0
    9.4715  -18.3362   23.4088 O   0  0  0  0  0  0  0  0  0  0  0  0
   11.9554  -15.8810   21.0484 C   0  0  0  0  0  0  0  0  0  0  0  0
   11.4088  -16.8602   22.0662 C   0  0  2  0  0  0  0  0  0  0  0  0
   10.1126  -16.3303   22.4966 N   0  0  0  0  0  0  0  0  0  0  0  0
   12.3298  -16.9299   23.2281 C   0  0  0  0  0  0  0  0  0  0  0  0
   13.5643  -17.1150   23.1032 O   0  0  0  0  0  0  0  0  0  0  0  0
    8.5895  -15.0169   28.2658 C   0  0  0  0  0  0  0  0  0  0  0  0
   10.2834  -15.4925   28.6528 S   0  0  0  0  0  0  0  0  0  0  0  0
   10.9254  -16.5803   27.3287 C   0  0  0  0  0  0  0  0  0  0  0  0
   12.1593  -15.9187   26.7863 C   0  0  0  0  0  0  0  0  0  0  0  0
   12.7307  -16.7288   25.6840 C   0  0  2  0  0  0  0  0  0  0  0  0
   11.8240  -16.7854   24.5356 N   0  0  0  0  0  0  0  0  0  0  0  0
   13.0714  -18.0814   26.1306 C   0  0  0  0  0  0  0  0  0  0  0  0
   12.5411  -19.2550   25.6563 O   0  0  0  0  0  0  0  0  0  0  0  0
   13.9463  -18.2082   27.0569 O   0  0  0  0  0  0  0  0  0  0  0  0
  2 13  1  0
  2  1  1  1
  3  2  1  0
  4 12  1  0
  4  3  1  0
  5  4  2  0
  6  5  1  0
  6  7  1  0
  7  8  1  0
  7 12  2  0
  8  9  2  0
  9 10  1  0
 11 10  2  0
 12 11  1  0
 13 14  2  0
 16 15  1  6
 17 16  1  0
 17 13  1  0
 18 16  1  0
 19 18  2  0
 21 20  1  0
 22 23  1  0
 22 21  1  0
 24 23  1  1
 24 25  1  0
 25 18  1  0
 26 24  1  0
 26 27  1  0
 28 26  2  0
M  END
$$$$
