VEP.pdb
     RDKit          3D

 24 24  0  0  1  0  0  0  0  0999 V2000
    7.6485  -12.4245   19.9963 C   0  0  0  0  0  0  0  0  0  0  0  0
    8.6283  -13.5281   19.7939 C   0  0  2  0  0  0  0  0  0  0  0  0
    9.2898  -13.4301   18.4453 C   0  0  0  0  0  0  0  0  0  0  0  0
    8.0692  -14.9027   20.0585 C   0  0  2  0  0  0  0  0  0  0  0  0
    7.0690  -15.1485   19.0121 N   0  0  0  0  0  0  0  0  0  0  0  0
    7.4747  -15.0521   21.3872 C   0  0  0  0  0  0  0  0  0  0  0  0
    6.2452  -14.8710   21.5384 O   0  0  0  0  0  0  0  0  0  0  0  0
    8.2497  -15.3983   22.5206 N   0  0  0  0  0  0  0  0  0  0  0  0
    7.6085  -15.6718   23.8254 C   0  0  1  0  0  0  0  0  0  0  0  0
    7.6351  -17.1814   23.9727 C   0  0  0  0  0  0  0  0  0  0  0  0
    6.9239  -17.5582   25.2302 C   0  0  0  0  0  0  0  0  0  0  0  0
    6.9170  -19.0577   25.4192 C   0  0  0  0  0  0  0  0  0  0  0  0
    7.9605  -19.6245   25.8249 O   0  0  0  0  0  0  0  0  0  0  0  0
    8.3788  -15.0339   24.9151 C   0  0  0  0  0  0  0  0  0  0  0  0
    9.6141  -15.4265   24.9728 O   0  0  0  0  0  0  0  0  0  0  0  0
    5.8085  -19.8313   25.1637 O   0  0  0  0  0  0  0  0  0  0  0  0
    7.9021  -14.0877   25.8368 N   0  0  0  0  0  0  0  0  0  0  0  0
    6.4836  -13.6917   25.8806 C   0  0  0  0  0  0  0  0  0  0  0  0
    6.3355  -13.0233   27.2382 C   0  0  0  0  0  0  0  0  0  0  0  0
    7.6660  -12.2939   27.3852 C   0  0  0  0  0  0  0  0  0  0  0  0
    8.6239  -13.3668   26.8473 C   0  0  1  0  0  0  0  0  0  0  0  0
    9.0114  -14.2524   27.9832 C   0  0  0  0  0  0  0  0  0  0  0  0
    8.4792  -15.5117   28.0781 O   0  0  0  0  0  0  0  0  0  0  0  0
    9.8142  -13.8255   28.8245 O   0  0  0  0  0  0  0  0  0  0  0  0
  2  1  1  6
  2  3  1  0
  4  2  1  0
  4  6  1  0
  4  5  1  6
  6  7  2  0
  8  6  1  0
  8  9  1  0
  9 10  1  1
 10 11  1  0
 12 16  1  0
 12 11  1  0
 13 12  2  0
 14  9  1  0
 14 15  2  0
 17 21  1  0
 17 14  1  0
 18 17  1  0
 19 20  1  0
 19 18  1  0
 20 21  1  0
 21 22  1  1
 22 24  2  0
 22 23  1  0
M  END
$$$$
