VEP.pdb
     RDKit          3D

 24 24  0  0  1  0  0  0  0  0999 V2000
    7.4023  -12.5214   20.0210 C   0  0  0  0  0  0  0  0  0  0  0  0
    8.5412  -13.4757   19.9169 C   0  0  2  0  0  0  0  0  0  0  0  0
    9.2503  -13.3372   18.5962 C   0  0  0  0  0  0  0  0  0  0  0  0
    8.1749  -14.9056   20.2224 C   0  0  2  0  0  0  0  0  0  0  0  0
    7.2847  -15.3426   19.1397 N   0  0  0  0  0  0  0  0  0  0  0  0
    7.5316  -15.0845   21.5245 C   0  0  0  0  0  0  0  0  0  0  0  0
    6.2873  -14.9835   21.6185 O   0  0  0  0  0  0  0  0  0  0  0  0
    8.2752  -15.3713   22.6949 N   0  0  0  0  0  0  0  0  0  0  0  0
    7.5984  -15.5783   23.9940 C   0  0  1  0  0  0  0  0  0  0  0  0
    7.7011  -17.0677   24.2626 C   0  0  0  0  0  0  0  0  0  0  0  0
    7.0940  -17.3629   25.5944 C   0  0  0  0  0  0  0  0  0  0  0  0
    7.1493  -18.8423   25.8981 C   0  0  0  0  0  0  0  0  0  0  0  0
    7.8711  -19.2428   26.8434 O   0  0  0  0  0  0  0  0  0  0  0  0
    8.2891  -14.8142   25.0555 C   0  0  0  0  0  0  0  0  0  0  0  0
    9.5516  -15.0956   25.1564 O   0  0  0  0  0  0  0  0  0  0  0  0
    6.4375  -19.7735   25.1778 O   0  0  0  0  0  0  0  0  0  0  0  0
    7.7150  -13.8599   25.9109 N   0  0  0  0  0  0  0  0  0  0  0  0
    6.3026  -13.4577   25.7901 C   0  0  0  0  0  0  0  0  0  0  0  0
    6.0039  -12.7798   27.1179 C   0  0  0  0  0  0  0  0  0  0  0  0
    7.3125  -12.0549   27.4113 C   0  0  0  0  0  0  0  0  0  0  0  0
    8.3202  -13.1353   26.9928 C   0  0  1  0  0  0  0  0  0  0  0  0
    8.5713  -14.0149   28.1709 C   0  0  0  0  0  0  0  0  0  0  0  0
    9.4148  -13.5964   29.1668 O   0  0  0  0  0  0  0  0  0  0  0  0
    8.0061  -15.1159   28.2238 O   0  0  0  0  0  0  0  0  0  0  0  0
  2  1  1  6
  2  3  1  0
  4  2  1  0
  4  6  1  0
  4  5  1  6
  6  7  2  0
  8  6  1  0
  8  9  1  0
  9 10  1  1
 10 11  1  0
 12 16  1  0
 12 11  1  0
 13 12  2  0
 14  9  1  0
 14 15  2  0
 17 21  1  0
 17 14  1  0
 18 17  1  0
 19 20  1  0
 19 18  1  0
 20 21  1  0
 21 22  1  1
 22 24  2  0
 22 23  1  0
M  END
$$$$
