VEP.pdb
     RDKit          3D

 24 24  0  0  1  0  0  0  0  0999 V2000
    9.1557  -12.7980   20.3724 C   0  0  0  0  0  0  0  0  0  0  0  0
    8.2126  -13.6323   19.5766 C   0  0  2  0  0  0  0  0  0  0  0  0
    6.8533  -12.9908   19.4936 C   0  0  0  0  0  0  0  0  0  0  0  0
    8.1402  -15.0710   20.0203 C   0  0  2  0  0  0  0  0  0  0  0  0
    7.3859  -15.7843   18.9820 N   0  0  0  0  0  0  0  0  0  0  0  0
    7.5152  -15.2537   21.3307 C   0  0  0  0  0  0  0  0  0  0  0  0
    6.2669  -15.2528   21.4260 O   0  0  0  0  0  0  0  0  0  0  0  0
    8.2811  -15.4334   22.5080 N   0  0  0  0  0  0  0  0  0  0  0  0
    7.6255  -15.5968   23.8241 C   0  0  1  0  0  0  0  0  0  0  0  0
    7.6822  -17.0847   24.1143 C   0  0  0  0  0  0  0  0  0  0  0  0
    6.9395  -17.3602   25.3798 C   0  0  0  0  0  0  0  0  0  0  0  0
    6.9566  -18.8357   25.7068 C   0  0  0  0  0  0  0  0  0  0  0  0
    6.9874  -19.1918   26.9098 O   0  0  0  0  0  0  0  0  0  0  0  0
    8.3647  -14.8412   24.8587 C   0  0  0  0  0  0  0  0  0  0  0  0
    9.6142  -15.1784   24.9507 O   0  0  0  0  0  0  0  0  0  0  0  0
    6.9398  -19.8098   24.7356 O   0  0  0  0  0  0  0  0  0  0  0  0
    7.8466  -13.8419   25.6982 N   0  0  0  0  0  0  0  0  0  0  0  0
    6.4377  -13.4172   25.6231 C   0  0  0  0  0  0  0  0  0  0  0  0
    6.2108  -12.6801   26.9335 C   0  0  0  0  0  0  0  0  0  0  0  0
    7.5440  -11.9698   27.1388 C   0  0  0  0  0  0  0  0  0  0  0  0
    8.5125  -13.0860   26.7215 C   0  0  1  0  0  0  0  0  0  0  0  0
    8.8003  -13.9218   27.9228 C   0  0  0  0  0  0  0  0  0  0  0  0
    8.2430  -15.1688   28.0352 O   0  0  0  0  0  0  0  0  0  0  0  0
    9.5446  -13.4656   28.8017 O   0  0  0  0  0  0  0  0  0  0  0  0
  2  1  1  1
  2  3  1  0
  4  2  1  0
  4  6  1  0
  4  5  1  6
  6  7  2  0
  8  6  1  0
  8  9  1  0
  9 10  1  1
 10 11  1  0
 12 16  1  0
 12 11  1  0
 13 12  2  0
 14  9  1  0
 14 15  2  0
 17 21  1  0
 17 14  1  0
 18 17  1  0
 19 20  1  0
 19 18  1  0
 20 21  1  0
 21 22  1  1
 22 24  2  0
 22 23  1  0
M  END
$$$$
