VEP.pdb
     RDKit          3D

 24 24  0  0  1  0  0  0  0  0999 V2000
    8.5312  -13.3142   18.2947 C   0  0  0  0  0  0  0  0  0  0  0  0
    7.8743  -13.5115   19.6169 C   0  0  2  0  0  0  0  0  0  0  0  0
    8.3230  -12.4727   20.6096 C   0  0  0  0  0  0  0  0  0  0  0  0
    7.9953  -14.9122   20.1605 C   0  0  2  0  0  0  0  0  0  0  0  0
    7.3535  -15.7925   19.1762 N   0  0  0  0  0  0  0  0  0  0  0  0
    7.3909  -15.0867   21.4817 C   0  0  0  0  0  0  0  0  0  0  0  0
    6.1507  -14.9782   21.6135 O   0  0  0  0  0  0  0  0  0  0  0  0
    8.1681  -15.3772   22.6291 N   0  0  0  0  0  0  0  0  0  0  0  0
    7.5317  -15.5609   23.9519 C   0  0  1  0  0  0  0  0  0  0  0  0
    7.5528  -17.0574   24.1988 C   0  0  0  0  0  0  0  0  0  0  0  0
    6.8407  -17.3476   25.4786 C   0  0  0  0  0  0  0  0  0  0  0  0
    6.9332  -18.8149   25.8285 C   0  0  0  0  0  0  0  0  0  0  0  0
    7.2909  -19.1430   26.9858 O   0  0  0  0  0  0  0  0  0  0  0  0
    8.3095  -14.8555   24.9936 C   0  0  0  0  0  0  0  0  0  0  0  0
    9.5759  -15.1370   24.9720 O   0  0  0  0  0  0  0  0  0  0  0  0
    6.6402  -19.8114   24.9264 O   0  0  0  0  0  0  0  0  0  0  0  0
    7.8099  -13.9540   25.9473 N   0  0  0  0  0  0  0  0  0  0  0  0
    6.3688  -13.6733   26.0713 C   0  0  0  0  0  0  0  0  0  0  0  0
    6.2423  -13.0238   27.4402 C   0  0  0  0  0  0  0  0  0  0  0  0
    7.5163  -12.1904   27.5205 C   0  0  0  0  0  0  0  0  0  0  0  0
    8.5259  -13.1810   26.9228 C   0  0  1  0  0  0  0  0  0  0  0  0
    9.0448  -14.0365   28.0289 C   0  0  0  0  0  0  0  0  0  0  0  0
   10.0022  -13.5464   28.8783 O   0  0  0  0  0  0  0  0  0  0  0  0
    8.5942  -15.1833   28.1568 O   0  0  0  0  0  0  0  0  0  0  0  0
  2  1  1  6
  2  3  1  0
  4  2  1  0
  4  6  1  0
  4  5  1  6
  6  7  2  0
  8  6  1  0
  8  9  1  0
  9 10  1  1
 10 11  1  0
 12 16  1  0
 12 11  1  0
 13 12  2  0
 14  9  1  0
 14 15  2  0
 17 21  1  0
 17 14  1  0
 18 17  1  0
 19 20  1  0
 19 18  1  0
 20 21  1  0
 21 22  1  1
 22 24  2  0
 22 23  1  0
M  END
$$$$
