VEP.pdb
     RDKit          3D

 24 24  0  0  1  0  0  0  0  0999 V2000
    7.5841  -12.5268   20.2430 C   0  0  0  0  0  0  0  0  0  0  0  0
    8.4798  -13.6740   19.9264 C   0  0  2  0  0  0  0  0  0  0  0  0
    9.0413  -13.5600   18.5343 C   0  0  0  0  0  0  0  0  0  0  0  0
    7.8634  -15.0249   20.1857 C   0  0  2  0  0  0  0  0  0  0  0  0
    6.8083  -15.1960   19.1791 N   0  0  0  0  0  0  0  0  0  0  0  0
    7.3191  -15.1757   21.5357 C   0  0  0  0  0  0  0  0  0  0  0  0
    6.1491  -14.8010   21.7761 O   0  0  0  0  0  0  0  0  0  0  0  0
    8.0777  -15.7369   22.5914 N   0  0  0  0  0  0  0  0  0  0  0  0
    7.5240  -15.8291   23.9601 C   0  0  1  0  0  0  0  0  0  0  0  0
    7.4524  -17.3142   24.2608 C   0  0  0  0  0  0  0  0  0  0  0  0
    6.9299  -17.5035   25.6465 C   0  0  0  0  0  0  0  0  0  0  0  0
    6.9033  -18.9679   26.0193 C   0  0  0  0  0  0  0  0  0  0  0  0
    6.4574  -19.7985   25.1909 O   0  0  0  0  0  0  0  0  0  0  0  0
    8.4227  -15.1515   24.9198 C   0  0  0  0  0  0  0  0  0  0  0  0
    9.6135  -15.6648   24.9631 O   0  0  0  0  0  0  0  0  0  0  0  0
    7.3499  -19.4309   27.2353 O   0  0  0  0  0  0  0  0  0  0  0  0
    8.1034  -14.0559   25.7381 N   0  0  0  0  0  0  0  0  0  0  0  0
    6.8361  -13.3188   25.5904 C   0  0  0  0  0  0  0  0  0  0  0  0
    6.7140  -12.5432   26.8924 C   0  0  0  0  0  0  0  0  0  0  0  0
    8.1616  -12.1576   27.1749 C   0  0  0  0  0  0  0  0  0  0  0  0
    8.8687  -13.4686   26.8017 C   0  0  1  0  0  0  0  0  0  0  0  0
    8.8909  -14.3425   28.0102 C   0  0  0  0  0  0  0  0  0  0  0  0
    8.0414  -15.4149   28.0917 O   0  0  0  0  0  0  0  0  0  0  0  0
    9.6850  -14.0770   28.9231 O   0  0  0  0  0  0  0  0  0  0  0  0
  2  1  1  6
  2  3  1  0
  4  2  1  0
  4  6  1  0
  4  5  1  6
  6  7  2  0
  8  6  1  0
  8  9  1  0
  9 10  1  1
 10 11  1  0
 12 16  1  0
 12 11  1  0
 13 12  2  0
 14  9  1  0
 14 15  2  0
 17 21  1  0
 17 14  1  0
 18 17  1  0
 19 20  1  0
 19 18  1  0
 20 21  1  0
 21 22  1  1
 22 24  2  0
 22 23  1  0
M  END
$$$$
