VEP.pdb
     RDKit          3D

 24 24  0  0  1  0  0  0  0  0999 V2000
    7.1212  -12.5733   19.9800 C   0  0  0  0  0  0  0  0  0  0  0  0
    8.4193  -13.2957   19.8718 C   0  0  2  0  0  0  0  0  0  0  0  0
    9.0989  -13.0035   18.5608 C   0  0  0  0  0  0  0  0  0  0  0  0
    8.3252  -14.7741   20.1505 C   0  0  2  0  0  0  0  0  0  0  0  0
    7.5169  -15.3465   19.0666 N   0  0  0  0  0  0  0  0  0  0  0  0
    7.7417  -15.0928   21.4541 C   0  0  0  0  0  0  0  0  0  0  0  0
    6.4994  -15.1998   21.5660 O   0  0  0  0  0  0  0  0  0  0  0  0
    8.5417  -15.2867   22.6062 N   0  0  0  0  0  0  0  0  0  0  0  0
    7.9244  -15.5355   23.9274 C   0  0  1  0  0  0  0  0  0  0  0  0
    8.0988  -17.0221   24.1739 C   0  0  0  0  0  0  0  0  0  0  0  0
    7.2307  -17.7763   23.2217 C   0  0  0  0  0  0  0  0  0  0  0  0
    7.3987  -19.2675   23.4015 C   0  0  0  0  0  0  0  0  0  0  0  0
    7.8960  -19.9408   22.4664 O   0  0  0  0  0  0  0  0  0  0  0  0
    8.6230  -14.7544   24.9712 C   0  0  0  0  0  0  0  0  0  0  0  0
    9.9023  -14.9682   25.0070 O   0  0  0  0  0  0  0  0  0  0  0  0
    7.0272  -19.9211   24.5535 O   0  0  0  0  0  0  0  0  0  0  0  0
    8.0401  -13.8488   25.8724 N   0  0  0  0  0  0  0  0  0  0  0  0
    6.6022  -13.5299   25.8327 C   0  0  0  0  0  0  0  0  0  0  0  0
    6.3351  -12.8906   27.1861 C   0  0  0  0  0  0  0  0  0  0  0  0
    7.6126  -12.0933   27.4238 C   0  0  0  0  0  0  0  0  0  0  0  0
    8.6584  -13.1055   26.9340 C   0  0  1  0  0  0  0  0  0  0  0  0
    9.0230  -13.9858   28.0814 C   0  0  0  0  0  0  0  0  0  0  0  0
    9.9023  -13.5373   29.0323 O   0  0  0  0  0  0  0  0  0  0  0  0
    8.5178  -15.1147   28.1504 O   0  0  0  0  0  0  0  0  0  0  0  0
  2  1  1  6
  2  3  1  0
  4  2  1  0
  4  6  1  0
  4  5  1  6
  6  7  2  0
  8  6  1  0
  8  9  1  0
  9 10  1  1
 10 11  1  0
 12 16  1  0
 12 11  1  0
 13 12  2  0
 14  9  1  0
 14 15  2  0
 17 21  1  0
 17 14  1  0
 18 17  1  0
 19 20  1  0
 19 18  1  0
 20 21  1  0
 21 22  1  1
 22 24  2  0
 22 23  1  0
M  END
$$$$
