VEP.pdb
     RDKit          3D

 24 24  0  0  1  0  0  0  0  0999 V2000
    7.6005  -12.5502   19.8081 C   0  0  0  0  0  0  0  0  0  0  0  0
    8.6208  -13.6339   19.7515 C   0  0  2  0  0  0  0  0  0  0  0  0
    9.3681  -13.6120   18.4449 C   0  0  0  0  0  0  0  0  0  0  0  0
    8.0824  -15.0029   20.0798 C   0  0  2  0  0  0  0  0  0  0  0  0
    7.1130  -15.3275   19.0259 N   0  0  0  0  0  0  0  0  0  0  0  0
    7.4587  -15.0905   21.4006 C   0  0  0  0  0  0  0  0  0  0  0  0
    6.2217  -14.9333   21.5120 O   0  0  0  0  0  0  0  0  0  0  0  0
    8.2134  -15.3496   22.5704 N   0  0  0  0  0  0  0  0  0  0  0  0
    7.5472  -15.5537   23.8754 C   0  0  1  0  0  0  0  0  0  0  0  0
    7.6036  -17.0496   24.1207 C   0  0  0  0  0  0  0  0  0  0  0  0
    6.9905  -17.3462   25.4493 C   0  0  0  0  0  0  0  0  0  0  0  0
    7.1196  -18.8132   25.7893 C   0  0  0  0  0  0  0  0  0  0  0  0
    6.2520  -19.6146   25.3652 O   0  0  0  0  0  0  0  0  0  0  0  0
    8.2769  -14.8291   24.9385 C   0  0  0  0  0  0  0  0  0  0  0  0
    9.5467  -15.0941   24.9662 O   0  0  0  0  0  0  0  0  0  0  0  0
    8.1541  -19.3092   26.5484 O   0  0  0  0  0  0  0  0  0  0  0  0
    7.7308  -13.9257   25.8646 N   0  0  0  0  0  0  0  0  0  0  0  0
    6.2866  -13.6375   25.9102 C   0  0  0  0  0  0  0  0  0  0  0  0
    6.0892  -12.9886   27.2711 C   0  0  0  0  0  0  0  0  0  0  0  0
    7.3612  -12.1621   27.4216 C   0  0  0  0  0  0  0  0  0  0  0  0
    8.3967  -13.1575   26.8786 C   0  0  1  0  0  0  0  0  0  0  0  0
    8.8500  -14.0168   28.0103 C   0  0  0  0  0  0  0  0  0  0  0  0
    9.7852  -13.5437   28.8935 O   0  0  0  0  0  0  0  0  0  0  0  0
    8.3662  -15.1510   28.1282 O   0  0  0  0  0  0  0  0  0  0  0  0
  2  1  1  6
  2  3  1  0
  4  2  1  0
  4  6  1  0
  4  5  1  6
  6  7  2  0
  8  6  1  0
  8  9  1  0
  9 10  1  1
 10 11  1  0
 12 16  1  0
 12 11  1  0
 13 12  2  0
 14  9  1  0
 14 15  2  0
 17 21  1  0
 17 14  1  0
 18 17  1  0
 19 20  1  0
 19 18  1  0
 20 21  1  0
 21 22  1  1
 22 24  2  0
 22 23  1  0
M  END
$$$$
