VEP.pdb
     RDKit          3D

 24 24  0  0  1  0  0  0  0  0999 V2000
    9.4973  -13.2748   20.3477 C   0  0  0  0  0  0  0  0  0  0  0  0
    8.2991  -13.8266   19.6559 C   0  0  2  0  0  0  0  0  0  0  0  0
    7.1566  -12.8466   19.6780 C   0  0  0  0  0  0  0  0  0  0  0  0
    7.8883  -15.1952   20.1357 C   0  0  2  0  0  0  0  0  0  0  0  0
    6.8656  -15.6709   19.1957 N   0  0  0  0  0  0  0  0  0  0  0  0
    7.3774  -15.2110   21.5069 C   0  0  0  0  0  0  0  0  0  0  0  0
    6.2448  -14.7364   21.7503 O   0  0  0  0  0  0  0  0  0  0  0  0
    8.1274  -15.7503   22.5801 N   0  0  0  0  0  0  0  0  0  0  0  0
    7.5710  -15.7940   23.9501 C   0  0  1  0  0  0  0  0  0  0  0  0
    7.5390  -17.2650   24.3194 C   0  0  0  0  0  0  0  0  0  0  0  0
    7.1251  -17.3971   25.7478 C   0  0  0  0  0  0  0  0  0  0  0  0
    7.1213  -18.8459   26.1781 C   0  0  0  0  0  0  0  0  0  0  0  0
    7.1680  -19.7414   25.3001 O   0  0  0  0  0  0  0  0  0  0  0  0
    8.4470  -15.0480   24.8796 C   0  0  0  0  0  0  0  0  0  0  0  0
    9.6640  -15.4965   24.9145 O   0  0  0  0  0  0  0  0  0  0  0  0
    7.0687  -19.2261   27.4991 O   0  0  0  0  0  0  0  0  0  0  0  0
    8.0825  -13.9523   25.6786 N   0  0  0  0  0  0  0  0  0  0  0  0
    6.8211  -13.2210   25.4661 C   0  0  0  0  0  0  0  0  0  0  0  0
    6.6305  -12.4436   26.7589 C   0  0  0  0  0  0  0  0  0  0  0  0
    8.0605  -12.0514   27.1129 C   0  0  0  0  0  0  0  0  0  0  0  0
    8.7909  -13.3599   26.7782 C   0  0  1  0  0  0  0  0  0  0  0  0
    8.7562  -14.2316   27.9880 C   0  0  0  0  0  0  0  0  0  0  0  0
    9.6303  -14.0029   29.0184 O   0  0  0  0  0  0  0  0  0  0  0  0
    7.9293  -15.1527   28.0351 O   0  0  0  0  0  0  0  0  0  0  0  0
  2  1  1  1
  2  3  1  0
  4  2  1  0
  4  6  1  0
  4  5  1  6
  6  7  2  0
  8  6  1  0
  8  9  1  0
  9 10  1  1
 10 11  1  0
 12 16  1  0
 12 11  1  0
 13 12  2  0
 14  9  1  0
 14 15  2  0
 17 21  1  0
 17 14  1  0
 18 17  1  0
 19 20  1  0
 19 18  1  0
 20 21  1  0
 21 22  1  1
 22 24  2  0
 22 23  1  0
M  END
$$$$
