VEP.pdb
     RDKit          3D

 24 24  0  0  1  0  0  0  0  0999 V2000
    7.2190  -12.7988   20.2150 C   0  0  0  0  0  0  0  0  0  0  0  0
    8.3996  -13.6909   20.0447 C   0  0  2  0  0  0  0  0  0  0  0  0
    8.9758  -13.5749   18.6588 C   0  0  0  0  0  0  0  0  0  0  0  0
    8.1502  -15.1233   20.4425 C   0  0  2  0  0  0  0  0  0  0  0  0
    7.2232  -15.6720   19.4448 N   0  0  0  0  0  0  0  0  0  0  0  0
    7.6057  -15.2744   21.7923 C   0  0  0  0  0  0  0  0  0  0  0  0
    6.3796  -15.1123   21.9862 O   0  0  0  0  0  0  0  0  0  0  0  0
    8.4259  -15.6014   22.8992 N   0  0  0  0  0  0  0  0  0  0  0  0
    7.8720  -15.6420   24.2703 C   0  0  1  0  0  0  0  0  0  0  0  0
    8.2342  -17.0147   24.8049 C   0  0  0  0  0  0  0  0  0  0  0  0
    7.2063  -17.9980   24.3514 C   0  0  0  0  0  0  0  0  0  0  0  0
    7.4571  -19.3603   24.9559 C   0  0  0  0  0  0  0  0  0  0  0  0
    6.4768  -20.0538   25.3206 O   0  0  0  0  0  0  0  0  0  0  0  0
    8.4902  -14.5857   25.1009 C   0  0  0  0  0  0  0  0  0  0  0  0
    9.7868  -14.5843   25.0538 O   0  0  0  0  0  0  0  0  0  0  0  0
    8.7219  -19.8745   25.1240 O   0  0  0  0  0  0  0  0  0  0  0  0
    7.8181  -13.6372   25.8887 N   0  0  0  0  0  0  0  0  0  0  0  0
    6.3661  -13.4168   25.7699 C   0  0  0  0  0  0  0  0  0  0  0  0
    6.0075  -12.6690   27.0443 C   0  0  0  0  0  0  0  0  0  0  0  0
    7.2237  -11.7720   27.2448 C   0  0  0  0  0  0  0  0  0  0  0  0
    8.3476  -12.7570   26.8921 C   0  0  1  0  0  0  0  0  0  0  0  0
    8.7196  -13.4978   28.1321 C   0  0  0  0  0  0  0  0  0  0  0  0
    9.5088  -12.8941   29.0760 O   0  0  0  0  0  0  0  0  0  0  0  0
    8.3027  -14.6544   28.2830 O   0  0  0  0  0  0  0  0  0  0  0  0
  2  1  1  6
  2  3  1  0
  4  2  1  0
  4  6  1  0
  4  5  1  6
  6  7  2  0
  8  6  1  0
  8  9  1  0
  9 10  1  1
 10 11  1  0
 12 16  1  0
 12 11  1  0
 13 12  2  0
 14  9  1  0
 14 15  2  0
 17 21  1  0
 17 14  1  0
 18 17  1  0
 19 20  1  0
 19 18  1  0
 20 21  1  0
 21 22  1  1
 22 24  2  0
 22 23  1  0
M  END
$$$$
