VEP.pdb
     RDKit          3D

 24 24  0  0  1  0  0  0  0  0999 V2000
    7.5126  -12.6843   19.6336 C   0  0  0  0  0  0  0  0  0  0  0  0
    8.6167  -13.6842   19.6390 C   0  0  2  0  0  0  0  0  0  0  0  0
    9.3336  -13.7127   18.3157 C   0  0  0  0  0  0  0  0  0  0  0  0
    8.1983  -15.0594   20.0928 C   0  0  2  0  0  0  0  0  0  0  0  0
    7.4153  -15.6353   18.9925 N   0  0  0  0  0  0  0  0  0  0  0  0
    7.4239  -15.0608   21.3344 C   0  0  0  0  0  0  0  0  0  0  0  0
    6.2061  -14.7722   21.3039 O   0  0  0  0  0  0  0  0  0  0  0  0
    8.0099  -15.3807   22.5831 N   0  0  0  0  0  0  0  0  0  0  0  0
    7.2354  -15.2655   23.8383 C   0  0  1  0  0  0  0  0  0  0  0  0
    6.7687  -16.6752   24.1480 C   0  0  0  0  0  0  0  0  0  0  0  0
    7.9362  -17.4809   24.6136 C   0  0  0  0  0  0  0  0  0  0  0  0
    7.4947  -18.8422   25.0997 C   0  0  0  0  0  0  0  0  0  0  0  0
    8.3055  -19.7987   25.0490 O   0  0  0  0  0  0  0  0  0  0  0  0
    8.1003  -14.7582   24.9256 C   0  0  0  0  0  0  0  0  0  0  0  0
    9.2962  -15.2613   24.9118 O   0  0  0  0  0  0  0  0  0  0  0  0
    6.2343  -19.0778   25.5982 O   0  0  0  0  0  0  0  0  0  0  0  0
    7.7460  -13.8246   25.9130 N   0  0  0  0  0  0  0  0  0  0  0  0
    6.3734  -13.3022   26.0317 C   0  0  0  0  0  0  0  0  0  0  0  0
    6.3343  -12.6994   27.4270 C   0  0  0  0  0  0  0  0  0  0  0  0
    7.7319  -12.1054   27.5608 C   0  0  0  0  0  0  0  0  0  0  0  0
    8.5657  -13.2307   26.9313 C   0  0  1  0  0  0  0  0  0  0  0  0
    8.9056  -14.2100   28.0038 C   0  0  0  0  0  0  0  0  0  0  0  0
    9.9264  -13.9379   28.8769 O   0  0  0  0  0  0  0  0  0  0  0  0
    8.2507  -15.2585   28.0826 O   0  0  0  0  0  0  0  0  0  0  0  0
  2  1  1  6
  2  3  1  0
  4  2  1  0
  4  6  1  0
  4  5  1  6
  6  7  2  0
  8  6  1  0
  8  9  1  0
  9 10  1  1
 10 11  1  0
 12 16  1  0
 12 11  1  0
 13 12  2  0
 14  9  1  0
 14 15  2  0
 17 21  1  0
 17 14  1  0
 18 17  1  0
 19 20  1  0
 19 18  1  0
 20 21  1  0
 21 22  1  1
 22 24  2  0
 22 23  1  0
M  END
$$$$
