VEP.pdb
     RDKit          3D

 24 24  0  0  1  0  0  0  0  0999 V2000
    9.2974  -12.6914   20.3329 C   0  0  0  0  0  0  0  0  0  0  0  0
    8.3966  -13.5258   19.4897 C   0  0  2  0  0  0  0  0  0  0  0  0
    7.0579  -12.8638   19.3006 C   0  0  0  0  0  0  0  0  0  0  0  0
    8.2680  -14.9539   19.9545 C   0  0  2  0  0  0  0  0  0  0  0  0
    7.5498  -15.6693   18.8923 N   0  0  0  0  0  0  0  0  0  0  0  0
    7.5741  -15.0975   21.2348 C   0  0  0  0  0  0  0  0  0  0  0  0
    6.3226  -15.0938   21.2638 O   0  0  0  0  0  0  0  0  0  0  0  0
    8.2764  -15.2422   22.4559 N   0  0  0  0  0  0  0  0  0  0  0  0
    7.5537  -15.4746   23.7257 C   0  0  1  0  0  0  0  0  0  0  0  0
    7.5943  -16.9762   23.9370 C   0  0  0  0  0  0  0  0  0  0  0  0
    6.8658  -17.3081   25.1972 C   0  0  0  0  0  0  0  0  0  0  0  0
    6.9956  -18.7775   25.5262 C   0  0  0  0  0  0  0  0  0  0  0  0
    6.8279  -19.1525   26.7120 O   0  0  0  0  0  0  0  0  0  0  0  0
    8.2392  -14.7789   24.8365 C   0  0  0  0  0  0  0  0  0  0  0  0
    9.4998  -15.0715   24.9295 O   0  0  0  0  0  0  0  0  0  0  0  0
    7.2916  -19.7261   24.5749 O   0  0  0  0  0  0  0  0  0  0  0  0
    7.6623  -13.8755   25.7436 N   0  0  0  0  0  0  0  0  0  0  0  0
    6.2163  -13.5924   25.7451 C   0  0  0  0  0  0  0  0  0  0  0  0
    5.9758  -12.9411   27.0978 C   0  0  0  0  0  0  0  0  0  0  0  0
    7.2398  -12.1097   27.2847 C   0  0  0  0  0  0  0  0  0  0  0  0
    8.2947  -13.1026   26.7754 C   0  0  1  0  0  0  0  0  0  0  0  0
    8.7167  -13.9578   27.9222 C   0  0  0  0  0  0  0  0  0  0  0  0
    8.2952  -15.2600   27.9929 O   0  0  0  0  0  0  0  0  0  0  0  0
    9.4465  -13.4672   28.7946 O   0  0  0  0  0  0  0  0  0  0  0  0
  2  1  1  1
  2  3  1  0
  4  2  1  0
  4  6  1  0
  4  5  1  6
  6  7  2  0
  8  6  1  0
  8  9  1  0
  9 10  1  1
 10 11  1  0
 12 16  1  0
 12 11  1  0
 13 12  2  0
 14  9  1  0
 14 15  2  0
 17 21  1  0
 17 14  1  0
 18 17  1  0
 19 20  1  0
 19 18  1  0
 20 21  1  0
 21 22  1  1
 22 24  2  0
 22 23  1  0
M  END
$$$$
