VEP.pdb
     RDKit          3D

 24 24  0  0  1  0  0  0  0  0999 V2000
    9.0255  -12.2728   20.4416 C   0  0  0  0  0  0  0  0  0  0  0  0
    8.2879  -13.2717   19.6188 C   0  0  2  0  0  0  0  0  0  0  0  0
    6.8178  -12.9531   19.5620 C   0  0  0  0  0  0  0  0  0  0  0  0
    8.5484  -14.7036   20.0108 C   0  0  2  0  0  0  0  0  0  0  0  0
    7.9350  -15.5341   18.9669 N   0  0  0  0  0  0  0  0  0  0  0  0
    8.0230  -15.0592   21.3295 C   0  0  0  0  0  0  0  0  0  0  0  0
    6.7938  -15.2457   21.4756 O   0  0  0  0  0  0  0  0  0  0  0  0
    8.8655  -15.2015   22.4586 N   0  0  0  0  0  0  0  0  0  0  0  0
    8.3139  -15.5922   23.7745 C   0  0  1  0  0  0  0  0  0  0  0  0
    8.8540  -16.9858   24.0340 C   0  0  0  0  0  0  0  0  0  0  0  0
    8.0912  -17.9637   23.2028 C   0  0  0  0  0  0  0  0  0  0  0  0
    8.7947  -19.3006   23.1584 C   0  0  0  0  0  0  0  0  0  0  0  0
    9.2254  -19.7252   22.0588 O   0  0  0  0  0  0  0  0  0  0  0  0
    8.7796  -14.6558   24.8204 C   0  0  0  0  0  0  0  0  0  0  0  0
   10.0713  -14.6080   24.9329 O   0  0  0  0  0  0  0  0  0  0  0  0
    8.9837  -20.0757   24.2791 O   0  0  0  0  0  0  0  0  0  0  0  0
    7.9755  -13.8582   25.6507 N   0  0  0  0  0  0  0  0  0  0  0  0
    6.5236  -13.7296   25.4353 C   0  0  0  0  0  0  0  0  0  0  0  0
    6.0104  -13.1664   26.7511 C   0  0  0  0  0  0  0  0  0  0  0  0
    7.1315  -12.2151   27.1537 C   0  0  0  0  0  0  0  0  0  0  0  0
    8.3548  -13.0683   26.7882 C   0  0  1  0  0  0  0  0  0  0  0  0
    8.6907  -13.9229   27.9635 C   0  0  0  0  0  0  0  0  0  0  0  0
    9.3794  -13.3880   29.0208 O   0  0  0  0  0  0  0  0  0  0  0  0
    8.3360  -15.1097   27.9580 O   0  0  0  0  0  0  0  0  0  0  0  0
  2  1  1  1
  2  3  1  0
  4  2  1  0
  4  6  1  0
  4  5  1  6
  6  7  2  0
  8  6  1  0
  8  9  1  0
  9 10  1  1
 10 11  1  0
 12 16  1  0
 12 11  1  0
 13 12  2  0
 14  9  1  0
 14 15  2  0
 17 21  1  0
 17 14  1  0
 18 17  1  0
 19 20  1  0
 19 18  1  0
 20 21  1  0
 21 22  1  1
 22 24  2  0
 22 23  1  0
M  END
$$$$
