KAP.pdb
     RDKit          3D

 22 22  0  0  1  0  0  0  0  0999 V2000
    9.0095  -16.1820   19.5692 N   0  0  0  0  0  0  0  0  0  0  0  0
    9.6233  -15.9032   20.8200 C   0  0  1  0  0  0  0  0  0  0  0  0
   10.8218  -15.0574   20.8648 C   0  0  0  0  0  0  0  0  0  0  0  0
   11.9262  -15.4270   21.7519 C   0  0  0  0  0  0  0  0  0  0  0  0
   13.1804  -16.0268   21.3391 C   0  0  0  0  0  0  0  0  0  0  0  0
   14.4890  -15.3973   21.5843 C   0  0  0  0  0  0  0  0  0  0  0  0
   15.6361  -16.1078   21.0781 N   0  0  0  0  0  0  0  0  0  0  0  0
    8.5760  -15.4278   21.8170 C   0  0  0  0  0  0  0  0  0  0  0  0
    7.8276  -14.4948   21.4464 O   0  0  0  0  0  0  0  0  0  0  0  0
    6.5852  -16.6811   24.4446 C   0  0  0  0  0  0  0  0  0  0  0  0
    7.4566  -15.5016   24.0677 C   0  0  2  0  0  0  0  0  0  0  0  0
    8.4183  -15.9728   23.0918 N   0  0  0  0  0  0  0  0  0  0  0  0
    8.1922  -14.9928   25.2927 C   0  0  0  0  0  0  0  0  0  0  0  0
    9.0978  -15.7677   25.7233 O   0  0  0  0  0  0  0  0  0  0  0  0
    7.8484  -13.7591   25.8516 N   0  0  0  0  0  0  0  0  0  0  0  0
    7.0528  -12.7372   25.1425 C   0  0  0  0  0  0  0  0  0  0  0  0
    6.0201  -12.4382   26.1930 C   0  0  0  0  0  0  0  0  0  0  0  0
    6.6386  -12.8178   27.5213 C   0  0  0  0  0  0  0  0  0  0  0  0
    8.0987  -13.1462   27.0961 C   0  0  1  0  0  0  0  0  0  0  0  0
    8.7907  -13.8587   28.1466 C   0  0  0  0  0  0  0  0  0  0  0  0
    8.7142  -15.1650   28.5441 O   0  0  0  0  0  0  0  0  0  0  0  0
    9.6255  -13.1479   28.8325 O   0  0  0  0  0  0  0  0  0  0  0  0
  2  1  1  6
  2  3  1  0
  2  8  1  0
  4  3  1  0
  5  4  1  0
  6  5  1  0
  7  6  1  0
  8 12  1  0
  8  9  2  0
 11 10  1  1
 12 11  1  0
 13 11  1  0
 13 14  2  0
 15 13  1  0
 16 15  1  0
 17 18  1  0
 17 16  1  0
 18 19  1  0
 19 15  1  0
 19 20  1  1
 20 21  1  0
 22 20  2  0
M  END
$$$$
