KAP.pdb
     RDKit          3D

 22 22  0  0  1  0  0  0  0  0999 V2000
    7.2388  -16.5532   19.8816 N   0  0  0  0  0  0  0  0  0  0  0  0
    7.7352  -15.5111   20.7101 C   0  0  1  0  0  0  0  0  0  0  0  0
    7.7114  -14.1268   20.2233 C   0  0  0  0  0  0  0  0  0  0  0  0
    8.4500  -13.7827   19.0071 C   0  0  0  0  0  0  0  0  0  0  0  0
    7.9895  -13.9925   17.6481 C   0  0  0  0  0  0  0  0  0  0  0  0
    8.7696  -13.5888   16.4661 C   0  0  0  0  0  0  0  0  0  0  0  0
    8.1852  -13.9029   15.1867 N   0  0  0  0  0  0  0  0  0  0  0  0
    7.1229  -15.6171   22.0997 C   0  0  0  0  0  0  0  0  0  0  0  0
    5.9133  -15.9351   22.1597 O   0  0  0  0  0  0  0  0  0  0  0  0
    7.0591  -17.0632   24.7829 C   0  0  0  0  0  0  0  0  0  0  0  0
    7.2943  -15.5777   24.6083 C   0  0  2  0  0  0  0  0  0  0  0  0
    7.8329  -15.3816   23.2776 N   0  0  0  0  0  0  0  0  0  0  0  0
    8.3005  -15.0918   25.6340 C   0  0  0  0  0  0  0  0  0  0  0  0
    9.1597  -15.9565   25.9802 O   0  0  0  0  0  0  0  0  0  0  0  0
    8.2288  -13.7825   26.1170 N   0  0  0  0  0  0  0  0  0  0  0  0
    7.4796  -12.7048   25.4406 C   0  0  0  0  0  0  0  0  0  0  0  0
    6.6840  -12.1750   26.6007 C   0  0  0  0  0  0  0  0  0  0  0  0
    7.4510  -12.5475   27.8512 C   0  0  0  0  0  0  0  0  0  0  0  0
    8.7617  -13.1264   27.2452 C   0  0  1  0  0  0  0  0  0  0  0  0
    9.5086  -13.8585   28.2434 C   0  0  0  0  0  0  0  0  0  0  0  0
   10.5412  -13.4716   29.0523 O   0  0  0  0  0  0  0  0  0  0  0  0
    9.1458  -15.0892   28.4052 O   0  0  0  0  0  0  0  0  0  0  0  0
  2  1  1  6
  2  3  1  0
  2  8  1  0
  4  3  1  0
  5  4  1  0
  6  5  1  0
  7  6  1  0
  8 12  1  0
  8  9  2  0
 11 10  1  1
 12 11  1  0
 13 11  1  0
 13 14  2  0
 15 13  1  0
 16 15  1  0
 17 18  1  0
 17 16  1  0
 18 19  1  0
 19 15  1  0
 19 20  1  1
 20 21  1  0
 22 20  2  0
M  END
$$$$
