KAP.pdb
     RDKit          3D

 22 22  0  0  1  0  0  0  0  0999 V2000
    6.6393  -17.5981   20.3836 N   0  0  0  0  0  0  0  0  0  0  0  0
    7.3157  -16.5691   21.0925 C   0  0  1  0  0  0  0  0  0  0  0  0
    7.4375  -15.2361   20.4907 C   0  0  0  0  0  0  0  0  0  0  0  0
    8.0163  -15.1050   19.1524 C   0  0  0  0  0  0  0  0  0  0  0  0
    8.2031  -13.8626   18.4281 C   0  0  0  0  0  0  0  0  0  0  0  0
    8.8204  -13.7984   17.0926 C   0  0  0  0  0  0  0  0  0  0  0  0
    8.9638  -12.4810   16.5261 N   0  0  0  0  0  0  0  0  0  0  0  0
    6.7838  -16.4843   22.5162 C   0  0  0  0  0  0  0  0  0  0  0  0
    5.5500  -16.6356   22.6668 O   0  0  0  0  0  0  0  0  0  0  0  0
    6.7846  -17.6261   25.4063 C   0  0  0  0  0  0  0  0  0  0  0  0
    7.1047  -16.2046   24.9947 C   0  0  2  0  0  0  0  0  0  0  0  0
    7.5907  -16.2517   23.6306 N   0  0  0  0  0  0  0  0  0  0  0  0
    8.1873  -15.6395   25.8944 C   0  0  0  0  0  0  0  0  0  0  0  0
    9.0946  -16.4658   26.2100 O   0  0  0  0  0  0  0  0  0  0  0  0
    8.1278  -14.3053   26.3054 N   0  0  0  0  0  0  0  0  0  0  0  0
    7.2914  -13.2852   25.6421 C   0  0  0  0  0  0  0  0  0  0  0  0
    6.5948  -12.7026   26.8399 C   0  0  0  0  0  0  0  0  0  0  0  0
    7.4849  -12.9841   28.0313 C   0  0  0  0  0  0  0  0  0  0  0  0
    8.7474  -13.5722   27.3379 C   0  0  1  0  0  0  0  0  0  0  0  0
    9.6029  -14.2280   28.3012 C   0  0  0  0  0  0  0  0  0  0  0  0
    9.7983  -15.5548   28.5691 O   0  0  0  0  0  0  0  0  0  0  0  0
   10.3063  -13.4328   29.0397 O   0  0  0  0  0  0  0  0  0  0  0  0
  2  1  1  6
  2  3  1  0
  2  8  1  0
  4  3  1  0
  5  4  1  0
  6  5  1  0
  7  6  1  0
  8 12  1  0
  8  9  2  0
 11 10  1  1
 12 11  1  0
 13 11  1  0
 13 14  2  0
 15 13  1  0
 16 15  1  0
 17 18  1  0
 17 16  1  0
 18 19  1  0
 19 15  1  0
 19 20  1  1
 20 21  1  0
 22 20  2  0
M  END
$$$$
