KAP.pdb
     RDKit          3D

 22 22  0  0  1  0  0  0  0  0999 V2000
    6.8258  -19.5696   21.6740 N   0  0  0  0  0  0  0  0  0  0  0  0
    7.0722  -18.1788   21.5194 C   0  0  1  0  0  0  0  0  0  0  0  0
    6.6579  -17.5040   20.2837 C   0  0  0  0  0  0  0  0  0  0  0  0
    6.5462  -18.2798   19.0472 C   0  0  0  0  0  0  0  0  0  0  0  0
    5.8817  -19.5612   18.9080 C   0  0  0  0  0  0  0  0  0  0  0  0
    5.6471  -20.2050   17.6045 C   0  0  0  0  0  0  0  0  0  0  0  0
    4.9635  -21.4733   17.6407 N   0  0  0  0  0  0  0  0  0  0  0  0
    6.5835  -17.4258   22.7487 C   0  0  0  0  0  0  0  0  0  0  0  0
    5.3595  -17.1672   22.8016 O   0  0  0  0  0  0  0  0  0  0  0  0
    6.6150  -17.2653   26.0245 C   0  0  0  0  0  0  0  0  0  0  0  0
    6.9766  -16.2666   24.9454 C   0  0  2  0  0  0  0  0  0  0  0  0
    7.4187  -17.0227   23.7913 N   0  0  0  0  0  0  0  0  0  0  0  0
    8.1069  -15.3764   25.4258 C   0  0  0  0  0  0  0  0  0  0  0  0
    9.2221  -15.9642   25.5549 O   0  0  0  0  0  0  0  0  0  0  0  0
    7.8687  -14.0245   25.6867 N   0  0  0  0  0  0  0  0  0  0  0  0
    6.8005  -13.2443   25.0304 C   0  0  0  0  0  0  0  0  0  0  0  0
    6.1565  -12.6209   26.2371 C   0  0  0  0  0  0  0  0  0  0  0  0
    7.2119  -12.5989   27.3219 C   0  0  0  0  0  0  0  0  0  0  0  0
    8.4683  -13.0725   26.5360 C   0  0  1  0  0  0  0  0  0  0  0  0
    9.5275  -13.4529   27.4435 C   0  0  0  0  0  0  0  0  0  0  0  0
   10.6739  -12.8014   27.8062 O   0  0  0  0  0  0  0  0  0  0  0  0
    9.3733  -14.6036   28.0135 O   0  0  0  0  0  0  0  0  0  0  0  0
  2  1  1  6
  2  3  1  0
  2  8  1  0
  4  3  1  0
  5  4  1  0
  6  5  1  0
  7  6  1  0
  8 12  1  0
  8  9  2  0
 11 10  1  1
 12 11  1  0
 13 11  1  0
 13 14  2  0
 15 13  1  0
 16 15  1  0
 17 18  1  0
 17 16  1  0
 18 19  1  0
 19 15  1  0
 19 20  1  1
 20 21  1  0
 22 20  2  0
M  END
$$$$
