KAP.pdb
     RDKit          3D

 22 22  0  0  1  0  0  0  0  0999 V2000
    6.7250  -15.8981   19.7970 N   0  0  0  0  0  0  0  0  0  0  0  0
    7.4082  -15.0632   20.7217 C   0  0  1  0  0  0  0  0  0  0  0  0
    7.5099  -13.6232   20.4576 C   0  0  0  0  0  0  0  0  0  0  0  0
    8.5201  -13.1375   19.5158 C   0  0  0  0  0  0  0  0  0  0  0  0
    9.9036  -13.5685   19.4603 C   0  0  0  0  0  0  0  0  0  0  0  0
   10.8532  -13.0864   18.4432 C   0  0  0  0  0  0  0  0  0  0  0  0
   12.2015  -13.5836   18.5522 N   0  0  0  0  0  0  0  0  0  0  0  0
    6.9033  -15.3302   22.1326 C   0  0  0  0  0  0  0  0  0  0  0  0
    5.6861  -15.1260   22.3436 O   0  0  0  0  0  0  0  0  0  0  0  0
    7.1096  -17.5180   24.6914 C   0  0  0  0  0  0  0  0  0  0  0  0
    7.2553  -16.0201   24.5251 C   0  0  2  0  0  0  0  0  0  0  0  0
    7.7169  -15.7810   23.1727 N   0  0  0  0  0  0  0  0  0  0  0  0
    8.2827  -15.4907   25.5075 C   0  0  0  0  0  0  0  0  0  0  0  0
    9.2629  -16.2667   25.7142 O   0  0  0  0  0  0  0  0  0  0  0  0
    8.1012  -14.2388   26.1011 N   0  0  0  0  0  0  0  0  0  0  0  0
    7.2720  -13.1696   25.5099 C   0  0  0  0  0  0  0  0  0  0  0  0
    6.4274  -12.8091   26.6999 C   0  0  0  0  0  0  0  0  0  0  0  0
    7.2129  -13.2268   27.9244 C   0  0  0  0  0  0  0  0  0  0  0  0
    8.5708  -13.6432   27.2894 C   0  0  1  0  0  0  0  0  0  0  0  0
    9.3674  -14.3975   28.2310 C   0  0  0  0  0  0  0  0  0  0  0  0
    9.5516  -15.7454   28.3712 O   0  0  0  0  0  0  0  0  0  0  0  0
   10.0196  -13.6849   29.0908 O   0  0  0  0  0  0  0  0  0  0  0  0
  2  1  1  6
  2  3  1  0
  2  8  1  0
  4  3  1  0
  5  4  1  0
  6  5  1  0
  7  6  1  0
  8 12  1  0
  8  9  2  0
 11 10  1  6
 12 11  1  0
 13 11  1  0
 13 14  2  0
 15 13  1  0
 16 15  1  0
 17 18  1  0
 17 16  1  0
 18 19  1  0
 19 15  1  0
 19 20  1  1
 20 21  1  0
 22 20  2  0
M  END
$$$$
