KAP.pdb
     RDKit          3D

 22 22  0  0  1  0  0  0  0  0999 V2000
    6.6248  -16.1728   20.5241 N   0  0  0  0  0  0  0  0  0  0  0  0
    7.2225  -15.2202   21.3926 C   0  0  1  0  0  0  0  0  0  0  0  0
    7.0579  -13.7880   21.1180 C   0  0  0  0  0  0  0  0  0  0  0  0
    7.5844  -13.2330   19.8698 C   0  0  0  0  0  0  0  0  0  0  0  0
    8.6387  -13.8152   19.0619 C   0  0  0  0  0  0  0  0  0  0  0  0
    9.1063  -13.2152   17.8010 C   0  0  0  0  0  0  0  0  0  0  0  0
   10.2686  -13.8241   17.2050 N   0  0  0  0  0  0  0  0  0  0  0  0
    6.8762  -15.5474   22.8383 C   0  0  0  0  0  0  0  0  0  0  0  0
    5.6671  -15.7449   23.0973 O   0  0  0  0  0  0  0  0  0  0  0  0
    6.8887  -17.4658   25.0703 C   0  0  0  0  0  0  0  0  0  0  0  0
    7.5365  -16.1034   25.2002 C   0  0  2  0  0  0  0  0  0  0  0  0
    7.8229  -15.6346   23.8595 N   0  0  0  0  0  0  0  0  0  0  0  0
    8.8330  -16.2220   25.9785 C   0  0  0  0  0  0  0  0  0  0  0  0
    9.4503  -17.3158   25.8107 O   0  0  0  0  0  0  0  0  0  0  0  0
    9.2548  -15.1710   26.7972 N   0  0  0  0  0  0  0  0  0  0  0  0
    8.7443  -13.7906   26.6783 C   0  0  0  0  0  0  0  0  0  0  0  0
    8.3919  -13.5203   28.1143 C   0  0  0  0  0  0  0  0  0  0  0  0
    9.2449  -14.4530   28.9470 C   0  0  0  0  0  0  0  0  0  0  0  0
   10.1735  -15.0693   27.8615 C   0  0  1  0  0  0  0  0  0  0  0  0
   10.8496  -16.2414   28.3706 C   0  0  0  0  0  0  0  0  0  0  0  0
   10.5099  -17.5651   28.3189 O   0  0  0  0  0  0  0  0  0  0  0  0
   11.9660  -16.0080   28.9804 O   0  0  0  0  0  0  0  0  0  0  0  0
  2  1  1  6
  2  3  1  0
  2  8  1  0
  4  3  1  0
  5  4  1  0
  6  5  1  0
  7  6  1  0
  8 12  1  0
  8  9  2  0
 11 10  1  6
 12 11  1  0
 13 11  1  0
 13 14  2  0
 15 13  1  0
 16 15  1  0
 17 18  1  0
 17 16  1  0
 18 19  1  0
 19 15  1  0
 19 20  1  1
 20 21  1  0
 22 20  2  0
M  END
$$$$
