KAP.pdb
     RDKit          3D

 22 22  0  0  1  0  0  0  0  0999 V2000
    6.7470  -16.2816   19.7435 N   0  0  0  0  0  0  0  0  0  0  0  0
    7.3657  -15.3606   20.6312 C   0  0  1  0  0  0  0  0  0  0  0  0
    7.4267  -13.9392   20.2714 C   0  0  0  0  0  0  0  0  0  0  0  0
    8.2680  -13.5201   19.1490 C   0  0  0  0  0  0  0  0  0  0  0  0
    8.1253  -13.9571   17.7736 C   0  0  0  0  0  0  0  0  0  0  0  0
    8.9553  -13.4331   16.6759 C   0  0  0  0  0  0  0  0  0  0  0  0
    8.7136  -14.0028   15.3743 N   0  0  0  0  0  0  0  0  0  0  0  0
    6.8183  -15.5497   22.0388 C   0  0  0  0  0  0  0  0  0  0  0  0
    5.6131  -15.8754   22.1358 O   0  0  0  0  0  0  0  0  0  0  0  0
    7.0082  -17.2523   24.5584 C   0  0  0  0  0  0  0  0  0  0  0  0
    7.1391  -15.7442   24.5254 C   0  0  2  0  0  0  0  0  0  0  0  0
    7.5816  -15.3805   23.1946 N   0  0  0  0  0  0  0  0  0  0  0  0
    8.1743  -15.2951   25.5391 C   0  0  0  0  0  0  0  0  0  0  0  0
    9.0693  -16.1549   25.7947 O   0  0  0  0  0  0  0  0  0  0  0  0
    8.0888  -14.0213   26.1073 N   0  0  0  0  0  0  0  0  0  0  0  0
    7.2498  -12.9384   25.5562 C   0  0  0  0  0  0  0  0  0  0  0  0
    6.5240  -12.5136   26.8021 C   0  0  0  0  0  0  0  0  0  0  0  0
    7.3969  -12.9268   27.9676 C   0  0  0  0  0  0  0  0  0  0  0  0
    8.6796  -13.4114   27.2325 C   0  0  1  0  0  0  0  0  0  0  0  0
    9.5272  -14.1689   28.1257 C   0  0  0  0  0  0  0  0  0  0  0  0
    9.7172  -15.5173   28.2522 O   0  0  0  0  0  0  0  0  0  0  0  0
   10.2281  -13.4591   28.9489 O   0  0  0  0  0  0  0  0  0  0  0  0
  2  1  1  6
  2  3  1  0
  2  8  1  0
  4  3  1  0
  5  4  1  0
  6  5  1  0
  7  6  1  0
  8 12  1  0
  8  9  2  0
 11 10  1  6
 12 11  1  0
 13 11  1  0
 13 14  2  0
 15 13  1  0
 16 15  1  0
 17 18  1  0
 17 16  1  0
 18 19  1  0
 19 15  1  0
 19 20  1  1
 20 21  1  0
 22 20  2  0
M  END
$$$$
