KAP.pdb
     RDKit          3D

 22 22  0  0  1  0  0  0  0  0999 V2000
    6.6603  -18.1946   20.9273 N   0  0  0  0  0  0  0  0  0  0  0  0
    7.2247  -16.9521   21.3230 C   0  0  1  0  0  0  0  0  0  0  0  0
    7.0567  -15.7749   20.4630 C   0  0  0  0  0  0  0  0  0  0  0  0
    8.0948  -14.7428   20.4513 C   0  0  0  0  0  0  0  0  0  0  0  0
    8.1251  -13.5812   19.5835 C   0  0  0  0  0  0  0  0  0  0  0  0
    9.1732  -12.5497   19.6614 C   0  0  0  0  0  0  0  0  0  0  0  0
    9.0387  -11.4428   18.7482 N   0  0  0  0  0  0  0  0  0  0  0  0
    6.8388  -16.6424   22.7625 C   0  0  0  0  0  0  0  0  0  0  0  0
    5.6207  -16.4686   22.9945 O   0  0  0  0  0  0  0  0  0  0  0  0
    6.5542  -17.5489   25.6049 C   0  0  0  0  0  0  0  0  0  0  0  0
    7.4000  -16.3610   25.1977 C   0  0  2  0  0  0  0  0  0  0  0  0
    7.7597  -16.5467   23.8065 N   0  0  0  0  0  0  0  0  0  0  0  0
    8.6603  -16.3133   26.0403 C   0  0  0  0  0  0  0  0  0  0  0  0
    9.2916  -17.4100   26.1067 O   0  0  0  0  0  0  0  0  0  0  0  0
    9.0376  -15.1222   26.6660 N   0  0  0  0  0  0  0  0  0  0  0  0
    8.5318  -13.7948   26.2629 C   0  0  0  0  0  0  0  0  0  0  0  0
    8.1050  -13.2626   27.6024 C   0  0  0  0  0  0  0  0  0  0  0  0
    8.9151  -14.0119   28.6383 C   0  0  0  0  0  0  0  0  0  0  0  0
    9.8997  -14.8114   27.7371 C   0  0  1  0  0  0  0  0  0  0  0  0
   10.5503  -15.8588   28.4919 C   0  0  0  0  0  0  0  0  0  0  0  0
   10.1270  -17.1143   28.8309 O   0  0  0  0  0  0  0  0  0  0  0  0
   11.7339  -15.5677   28.9245 O   0  0  0  0  0  0  0  0  0  0  0  0
  2  1  1  6
  2  3  1  0
  2  8  1  0
  4  3  1  0
  5  4  1  0
  6  5  1  0
  7  6  1  0
  8 12  1  0
  8  9  2  0
 11 10  1  1
 12 11  1  0
 13 11  1  0
 13 14  2  0
 15 13  1  0
 16 15  1  0
 17 18  1  0
 17 16  1  0
 18 19  1  0
 19 15  1  0
 19 20  1  1
 20 21  1  0
 22 20  2  0
M  END
$$$$
