KAP.pdb
     RDKit          3D

 22 22  0  0  1  0  0  0  0  0999 V2000
    7.1675  -14.6115   19.3541 N   0  0  0  0  0  0  0  0  0  0  0  0
    8.1355  -14.5123   20.3895 C   0  0  1  0  0  0  0  0  0  0  0  0
    9.1758  -13.4802   20.3104 C   0  0  0  0  0  0  0  0  0  0  0  0
   10.1766  -13.5526   19.2444 C   0  0  0  0  0  0  0  0  0  0  0  0
   11.4433  -14.2549   19.3176 C   0  0  0  0  0  0  0  0  0  0  0  0
   12.4358  -14.2334   18.2298 C   0  0  0  0  0  0  0  0  0  0  0  0
   13.6593  -14.9536   18.4773 N   0  0  0  0  0  0  0  0  0  0  0  0
    7.4443  -14.4950   21.7456 C   0  0  0  0  0  0  0  0  0  0  0  0
    6.8176  -13.4533   22.0455 O   0  0  0  0  0  0  0  0  0  0  0  0
    6.4757  -16.9137   24.3354 C   0  0  0  0  0  0  0  0  0  0  0  0
    6.9379  -15.5144   23.9880 C   0  0  2  0  0  0  0  0  0  0  0  0
    7.4782  -15.5617   22.6445 N   0  0  0  0  0  0  0  0  0  0  0  0
    8.0250  -15.0773   24.9514 C   0  0  0  0  0  0  0  0  0  0  0  0
    9.0296  -15.8483   24.9974 O   0  0  0  0  0  0  0  0  0  0  0  0
    7.8672  -13.9069   25.6981 N   0  0  0  0  0  0  0  0  0  0  0  0
    7.0429  -12.7641   25.2567 C   0  0  0  0  0  0  0  0  0  0  0  0
    6.2195  -12.5451   26.4951 C   0  0  0  0  0  0  0  0  0  0  0  0
    7.0169  -13.1196   27.6462 C   0  0  0  0  0  0  0  0  0  0  0  0
    8.3606  -13.4682   26.9437 C   0  0  1  0  0  0  0  0  0  0  0  0
    9.1609  -14.3417   27.7723 C   0  0  0  0  0  0  0  0  0  0  0  0
    9.3030  -15.7018   27.7646 O   0  0  0  0  0  0  0  0  0  0  0  0
    9.8649  -13.7440   28.6777 O   0  0  0  0  0  0  0  0  0  0  0  0
  2  1  1  6
  2  3  1  0
  2  8  1  0
  4  3  1  0
  5  4  1  0
  6  5  1  0
  7  6  1  0
  8 12  1  0
  8  9  2  0
 11 10  1  1
 12 11  1  0
 13 11  1  0
 13 14  2  0
 15 13  1  0
 16 15  1  0
 17 18  1  0
 17 16  1  0
 18 19  1  0
 19 15  1  0
 19 20  1  1
 20 21  1  0
 22 20  2  0
M  END
$$$$
