KAP.pdb
     RDKit          3D

 22 22  0  0  1  0  0  0  0  0999 V2000
    9.2659  -16.8921   19.8964 N   0  0  0  0  0  0  0  0  0  0  0  0
    9.4329  -17.2476   21.2619 C   0  0  1  0  0  0  0  0  0  0  0  0
   10.7816  -17.4945   21.7852 C   0  0  0  0  0  0  0  0  0  0  0  0
   11.8824  -17.7239   20.8477 C   0  0  0  0  0  0  0  0  0  0  0  0
   13.2415  -18.0796   21.2075 C   0  0  0  0  0  0  0  0  0  0  0  0
   14.2911  -18.3462   20.2095 C   0  0  0  0  0  0  0  0  0  0  0  0
   15.6124  -18.5873   20.7321 N   0  0  0  0  0  0  0  0  0  0  0  0
    8.6675  -16.2752   22.1483 C   0  0  0  0  0  0  0  0  0  0  0  0
    8.8126  -15.0558   21.9036 O   0  0  0  0  0  0  0  0  0  0  0  0
    5.9748  -16.5316   24.6825 C   0  0  0  0  0  0  0  0  0  0  0  0
    7.1207  -15.7600   24.0629 C   0  0  2  0  0  0  0  0  0  0  0  0
    7.8334  -16.6739   23.1934 N   0  0  0  0  0  0  0  0  0  0  0  0
    8.0572  -15.2679   25.1500 C   0  0  0  0  0  0  0  0  0  0  0  0
    8.8790  -16.1360   25.5704 O   0  0  0  0  0  0  0  0  0  0  0  0
    7.9670  -13.9500   25.6056 N   0  0  0  0  0  0  0  0  0  0  0  0
    7.3643  -12.8556   24.8186 C   0  0  0  0  0  0  0  0  0  0  0  0
    6.4314  -12.2803   25.8473 C   0  0  0  0  0  0  0  0  0  0  0  0
    6.9965  -12.6623   27.1985 C   0  0  0  0  0  0  0  0  0  0  0  0
    8.3575  -13.2973   26.7926 C   0  0  1  0  0  0  0  0  0  0  0  0
    8.9250  -14.0415   27.8945 C   0  0  0  0  0  0  0  0  0  0  0  0
    9.0042  -15.3881   28.1199 O   0  0  0  0  0  0  0  0  0  0  0  0
    9.4485  -13.3194   28.8310 O   0  0  0  0  0  0  0  0  0  0  0  0
  2  1  1  6
  2  3  1  0
  2  8  1  0
  4  3  1  0
  5  4  1  0
  6  5  1  0
  7  6  1  0
  8 12  1  0
  8  9  2  0
 11 10  1  1
 12 11  1  0
 13 11  1  0
 13 14  2  0
 15 13  1  0
 16 15  1  0
 17 18  1  0
 17 16  1  0
 18 19  1  0
 19 15  1  0
 19 20  1  1
 20 21  1  0
 22 20  2  0
M  END
$$$$
