KAP.pdb
     RDKit          3D

 22 22  0  0  1  0  0  0  0  0999 V2000
    7.8492  -16.2207   19.6545 N   0  0  0  0  0  0  0  0  0  0  0  0
    7.7787  -14.9659   20.3174 C   0  0  1  0  0  0  0  0  0  0  0  0
    7.2651  -13.7952   19.5968 C   0  0  0  0  0  0  0  0  0  0  0  0
    7.8538  -13.4339   18.3060 C   0  0  0  0  0  0  0  0  0  0  0  0
    8.4927  -14.3491   17.3801 C   0  0  0  0  0  0  0  0  0  0  0  0
    8.9622  -13.9411   16.0453 C   0  0  0  0  0  0  0  0  0  0  0  0
   10.3820  -14.0395   15.8181 N   0  0  0  0  0  0  0  0  0  0  0  0
    7.0897  -15.1294   21.6649 C   0  0  0  0  0  0  0  0  0  0  0  0
    5.8478  -15.2888   21.6472 O   0  0  0  0  0  0  0  0  0  0  0  0
    6.9085  -16.9057   24.2030 C   0  0  0  0  0  0  0  0  0  0  0  0
    7.1503  -15.4116   24.1630 C   0  0  2  0  0  0  0  0  0  0  0  0
    7.7647  -15.1101   22.8859 N   0  0  0  0  0  0  0  0  0  0  0  0
    8.0945  -15.0128   25.2811 C   0  0  0  0  0  0  0  0  0  0  0  0
    9.0907  -15.7818   25.4291 O   0  0  0  0  0  0  0  0  0  0  0  0
    7.8276  -13.8759   26.0486 N   0  0  0  0  0  0  0  0  0  0  0  0
    6.9560  -12.7736   25.5953 C   0  0  0  0  0  0  0  0  0  0  0  0
    6.0610  -12.6408   26.7957 C   0  0  0  0  0  0  0  0  0  0  0  0
    6.8356  -13.1981   27.9706 C   0  0  0  0  0  0  0  0  0  0  0  0
    8.2311  -13.4437   27.3282 C   0  0  1  0  0  0  0  0  0  0  0  0
    9.0430  -14.2899   28.1737 C   0  0  0  0  0  0  0  0  0  0  0  0
    9.0086  -15.6402   28.3875 O   0  0  0  0  0  0  0  0  0  0  0  0
    9.9599  -13.6738   28.8462 O   0  0  0  0  0  0  0  0  0  0  0  0
  2  1  1  6
  2  3  1  0
  2  8  1  0
  4  3  1  0
  5  4  1  0
  6  5  1  0
  7  6  1  0
  8 12  1  0
  8  9  2  0
 11 10  1  6
 12 11  1  0
 13 11  1  0
 13 14  2  0
 15 13  1  0
 16 15  1  0
 17 18  1  0
 17 16  1  0
 18 19  1  0
 19 15  1  0
 19 20  1  1
 20 21  1  0
 22 20  2  0
M  END
$$$$
