KAP.pdb
     RDKit          3D

 22 22  0  0  1  0  0  0  0  0999 V2000
    9.7053  -15.7859   20.5686 N   0  0  0  0  0  0  0  0  0  0  0  0
    9.1516  -16.5019   21.6639 C   0  0  1  0  0  0  0  0  0  0  0  0
    9.6279  -17.8590   21.9555 C   0  0  0  0  0  0  0  0  0  0  0  0
    9.7038  -18.8396   20.8711 C   0  0  0  0  0  0  0  0  0  0  0  0
    9.1892  -20.1947   20.9165 C   0  0  0  0  0  0  0  0  0  0  0  0
    9.3398  -21.1470   19.8033 C   0  0  0  0  0  0  0  0  0  0  0  0
    8.9024  -22.4955   20.0626 N   0  0  0  0  0  0  0  0  0  0  0  0
    9.1674  -15.6322   22.9130 C   0  0  0  0  0  0  0  0  0  0  0  0
   10.2270  -15.0096   23.1529 O   0  0  0  0  0  0  0  0  0  0  0  0
    6.6845  -14.5626   25.4696 C   0  0  0  0  0  0  0  0  0  0  0  0
    8.1181  -14.7769   25.0323 C   0  0  2  0  0  0  0  0  0  0  0  0
    8.0808  -15.5023   23.7787 N   0  0  0  0  0  0  0  0  0  0  0  0
    8.8545  -15.6035   26.0692 C   0  0  0  0  0  0  0  0  0  0  0  0
    8.6416  -16.8506   25.9971 O   0  0  0  0  0  0  0  0  0  0  0  0
    9.6860  -14.9761   27.0006 N   0  0  0  0  0  0  0  0  0  0  0  0
   10.0216  -13.5389   26.9547 C   0  0  0  0  0  0  0  0  0  0  0  0
    9.7174  -13.1564   28.3762 C   0  0  0  0  0  0  0  0  0  0  0  0
    9.8317  -14.4247   29.1943 C   0  0  0  0  0  0  0  0  0  0  0  0
   10.3902  -15.4209   28.1379 C   0  0  1  0  0  0  0  0  0  0  0  0
   10.2629  -16.7845   28.6012 C   0  0  0  0  0  0  0  0  0  0  0  0
   10.9833  -17.4872   29.5272 O   0  0  0  0  0  0  0  0  0  0  0  0
    9.3085  -17.4626   28.0518 O   0  0  0  0  0  0  0  0  0  0  0  0
  2  1  1  6
  2  3  1  0
  2  8  1  0
  4  3  1  0
  5  4  1  0
  6  5  1  0
  7  6  1  0
  8 12  1  0
  8  9  2  0
 11 10  1  1
 12 11  1  0
 13 11  1  0
 13 14  2  0
 15 13  1  0
 16 15  1  0
 17 18  1  0
 17 16  1  0
 18 19  1  0
 19 15  1  0
 19 20  1  1
 20 21  1  0
 22 20  2  0
M  END
$$$$
