KAP.pdb
     RDKit          3D

 22 22  0  0  1  0  0  0  0  0999 V2000
   10.0785  -15.9708   17.2070 N   0  0  0  0  0  0  0  0  0  0  0  0
    9.0968  -16.3174   18.1740 C   0  0  1  0  0  0  0  0  0  0  0  0
    9.0591  -17.6835   18.7086 C   0  0  0  0  0  0  0  0  0  0  0  0
   10.2737  -18.4999   18.6736 C   0  0  0  0  0  0  0  0  0  0  0  0
   10.5696  -19.6168   19.5501 C   0  0  0  0  0  0  0  0  0  0  0  0
   11.7936  -20.4269   19.4308 C   0  0  0  0  0  0  0  0  0  0  0  0
   12.0248  -21.3806   20.4863 N   0  0  0  0  0  0  0  0  0  0  0  0
    9.0859  -15.2868   19.2942 C   0  0  0  0  0  0  0  0  0  0  0  0
    9.5658  -14.1611   19.0291 O   0  0  0  0  0  0  0  0  0  0  0  0
    6.6133  -14.1848   20.4807 C   0  0  0  0  0  0  0  0  0  0  0  0
    7.7958  -14.5876   21.3364 C   0  0  2  0  0  0  0  0  0  0  0  0
    8.5775  -15.5362   20.5695 N   0  0  0  0  0  0  0  0  0  0  0  0
    7.3073  -15.2521   22.6094 C   0  0  0  0  0  0  0  0  0  0  0  0
    6.6411  -16.3145   22.4272 O   0  0  0  0  0  0  0  0  0  0  0  0
    7.6040  -14.6849   23.8515 N   0  0  0  0  0  0  0  0  0  0  0  0
    8.3059  -13.3957   24.0114 C   0  0  0  0  0  0  0  0  0  0  0  0
    7.3777  -12.7135   24.9771 C   0  0  0  0  0  0  0  0  0  0  0  0
    6.6350  -13.8128   25.7058 C   0  0  0  0  0  0  0  0  0  0  0  0
    7.3748  -15.0787   25.1856 C   0  0  1  0  0  0  0  0  0  0  0  0
    6.6188  -16.2739   25.4853 C   0  0  0  0  0  0  0  0  0  0  0  0
    6.6462  -17.1023   26.5731 O   0  0  0  0  0  0  0  0  0  0  0  0
    5.7703  -16.6277   24.5756 O   0  0  0  0  0  0  0  0  0  0  0  0
  2  1  1  1
  2  3  1  0
  2  8  1  0
  4  3  1  0
  5  4  1  0
  6  5  1  0
  7  6  1  0
  8 12  1  0
  8  9  2  0
 11 10  1  6
 12 11  1  0
 13 11  1  0
 13 14  2  0
 15 13  1  0
 16 15  1  0
 17 18  1  0
 17 16  1  0
 18 19  1  0
 19 15  1  0
 19 20  1  6
 20 21  1  0
 22 20  2  0
M  END
$$$$
