KAP.pdb
     RDKit          3D

 22 22  0  0  1  0  0  0  0  0999 V2000
    7.2098  -16.3370   19.7429 N   0  0  0  0  0  0  0  0  0  0  0  0
    7.5801  -15.3195   20.6630 C   0  0  1  0  0  0  0  0  0  0  0  0
    7.4068  -13.9104   20.2913 C   0  0  0  0  0  0  0  0  0  0  0  0
    8.1634  -13.3699   19.1606 C   0  0  0  0  0  0  0  0  0  0  0  0
    8.1855  -13.9158   17.8172 C   0  0  0  0  0  0  0  0  0  0  0  0
    9.0215  -13.3600   16.7398 C   0  0  0  0  0  0  0  0  0  0  0  0
    9.0837  -14.1342   15.5259 N   0  0  0  0  0  0  0  0  0  0  0  0
    6.9714  -15.6081   22.0279 C   0  0  0  0  0  0  0  0  0  0  0  0
    5.8574  -16.1798   22.0387 O   0  0  0  0  0  0  0  0  0  0  0  0
    6.9579  -17.1490   24.5678 C   0  0  0  0  0  0  0  0  0  0  0  0
    7.0748  -15.6397   24.5404 C   0  0  2  0  0  0  0  0  0  0  0  0
    7.5852  -15.2722   23.2351 N   0  0  0  0  0  0  0  0  0  0  0  0
    8.0487  -15.1793   25.6083 C   0  0  0  0  0  0  0  0  0  0  0  0
    8.9527  -16.0198   25.8948 O   0  0  0  0  0  0  0  0  0  0  0  0
    7.9030  -13.9167   26.1888 N   0  0  0  0  0  0  0  0  0  0  0  0
    7.0477  -12.8541   25.6234 C   0  0  0  0  0  0  0  0  0  0  0  0
    6.2679  -12.4694   26.8495 C   0  0  0  0  0  0  0  0  0  0  0  0
    7.1149  -12.8697   28.0383 C   0  0  0  0  0  0  0  0  0  0  0  0
    8.4362  -13.3030   27.3405 C   0  0  1  0  0  0  0  0  0  0  0  0
    9.2782  -14.0447   28.2521 C   0  0  0  0  0  0  0  0  0  0  0  0
    9.2344  -15.3525   28.6497 O   0  0  0  0  0  0  0  0  0  0  0  0
   10.2383  -13.3636   28.7879 O   0  0  0  0  0  0  0  0  0  0  0  0
  2  1  1  6
  2  3  1  0
  2  8  1  0
  4  3  1  0
  5  4  1  0
  6  5  1  0
  7  6  1  0
  8 12  1  0
  8  9  2  0
 11 10  1  6
 12 11  1  0
 13 11  1  0
 13 14  2  0
 15 13  1  0
 16 15  1  0
 17 18  1  0
 17 16  1  0
 18 19  1  0
 19 15  1  0
 19 20  1  1
 20 21  1  0
 22 20  2  0
M  END
$$$$
