KAP.pdb
     RDKit          3D

 22 22  0  0  1  0  0  0  0  0999 V2000
    7.9993  -11.8087   45.7276 N   0  0  0  0  0  0  0  0  0  0  0  0
    8.3192  -10.9227   44.6639 C   0  0  1  0  0  0  0  0  0  0  0  0
    8.7507   -9.5535   44.9681 C   0  0  0  0  0  0  0  0  0  0  0  0
    7.7958   -8.6177   45.5647 C   0  0  0  0  0  0  0  0  0  0  0  0
    6.8204   -8.9400   46.5882 C   0  0  0  0  0  0  0  0  0  0  0  0
    5.8192   -7.9751   47.0734 C   0  0  0  0  0  0  0  0  0  0  0  0
    4.9195   -8.4569   48.0910 N   0  0  0  0  0  0  0  0  0  0  0  0
    9.2783  -11.6003   43.6954 C   0  0  0  0  0  0  0  0  0  0  0  0
   10.2252  -12.2464   44.1994 O   0  0  0  0  0  0  0  0  0  0  0  0
    9.4594  -12.0396   39.9963 C   0  0  0  0  0  0  0  0  0  0  0  0
   10.0831  -12.1314   41.3729 C   0  0  2  0  0  0  0  0  0  0  0  0
    9.1508  -11.5343   42.3075 N   0  0  0  0  0  0  0  0  0  0  0  0
   11.3870  -11.3567   41.3999 C   0  0  0  0  0  0  0  0  0  0  0  0
   11.2510  -10.0974   41.4377 O   0  0  0  0  0  0  0  0  0  0  0  0
   12.6058  -12.0398   41.3827 N   0  0  0  0  0  0  0  0  0  0  0  0
   12.7481  -13.4611   41.7568 C   0  0  0  0  0  0  0  0  0  0  0  0
   13.5252  -13.9640   40.5724 C   0  0  0  0  0  0  0  0  0  0  0  0
   14.2397  -12.7642   39.9887 C   0  0  0  0  0  0  0  0  0  0  0  0
   13.9267  -11.6739   41.0535 C   0  0  1  0  0  0  0  0  0  0  0  0
   14.2237  -10.3555   40.5400 C   0  0  0  0  0  0  0  0  0  0  0  0
   15.3921   -9.6451   40.5166 O   0  0  0  0  0  0  0  0  0  0  0  0
   13.2197   -9.7347   40.0116 O   0  0  0  0  0  0  0  0  0  0  0  0
  2  1  1  1
  2  3  1  0
  2  8  1  0
  4  3  1  0
  5  4  1  0
  6  5  1  0
  7  6  1  0
  8 12  1  0
  8  9  2  0
 11 10  1  6
 12 11  1  0
 13 11  1  0
 13 14  2  0
 15 13  1  0
 16 15  1  0
 17 18  1  0
 17 16  1  0
 18 19  1  0
 19 15  1  0
 19 20  1  6
 20 21  1  0
 22 20  2  0
M  END
$$$$
