KSI.pdb
     RDKit          3D

 24 23  0  0  1  0  0  0  0  0999 V2000
   28.8182  -28.7244  -16.1783 N   0  0  0  0  0  0  0  0  0  0  0  0
   27.9942  -28.1973  -17.2421 C   0  0  1  0  0  0  0  0  0  0  0  0
   26.7741  -29.0342  -17.4368 C   0  0  0  0  0  0  0  0  0  0  0  0
   27.0007  -30.4111  -17.9398 C   0  0  0  0  0  0  0  0  0  0  0  0
   26.5474  -31.5221  -17.0581 C   0  0  0  0  0  0  0  0  0  0  0  0
   25.1292  -31.9590  -17.3338 C   0  0  0  0  0  0  0  0  0  0  0  0
   25.1053  -33.1881  -18.1013 N   0  0  0  0  0  0  0  0  0  0  0  0
   27.6600  -26.7848  -16.8976 C   0  0  0  0  0  0  0  0  0  0  0  0
   26.6306  -26.4879  -16.2404 O   0  0  0  0  0  0  0  0  0  0  0  0
   30.5910  -23.9448  -17.5198 O   0  0  0  0  0  0  0  0  0  0  0  0
   29.6778  -23.7967  -16.4701 C   0  0  0  0  0  0  0  0  0  0  0  0
   28.3050  -24.3356  -16.8953 C   0  0  2  0  0  0  0  0  0  0  0  0
   28.4916  -25.6953  -17.2960 N   0  0  0  0  0  0  0  0  0  0  0  0
   27.7833  -23.4984  -18.0425 C   0  0  0  0  0  0  0  0  0  0  0  0
   27.9058  -23.9064  -19.2220 O   0  0  0  0  0  0  0  0  0  0  0  0
   23.0683  -21.1473  -17.6516 C   0  0  0  0  0  0  0  0  0  0  0  0
   24.3022  -21.7245  -18.3564 C   0  0  0  0  0  0  0  0  0  0  0  0
   25.4092  -20.7076  -18.3806 C   0  0  2  0  0  0  0  0  0  0  0  0
   24.9521  -19.5552  -19.2698 C   0  0  0  0  0  0  0  0  0  0  0  0
   26.7185  -21.2818  -18.7354 C   0  0  2  0  0  0  0  0  0  0  0  0
   27.1712  -22.2805  -17.7745 N   0  0  0  0  0  0  0  0  0  0  0  0
   27.7211  -20.2552  -19.0533 C   0  0  0  0  0  0  0  0  0  0  0  0
   28.5456  -19.7493  -18.0667 O   0  0  0  0  0  0  0  0  0  0  0  0
   27.8719  -19.8086  -20.1991 O   0  0  0  0  0  0  0  0  0  0  0  0
  2  1  1  1
  3  2  1  0
  4  3  1  0
  5  6  1  0
  5  4  1  0
  6  7  1  0
  8  2  1  0
  8  9  2  0
 10 11  1  0
 12 11  1  6
 12 13  1  0
 13  8  1  0
 14 12  1  0
 15 14  2  0
 17 16  1  0
 18 17  1  0
 18 19  1  6
 20 18  1  0
 20 21  1  1
 21 14  1  0
 22 20  1  0
 23 22  1  0
 24 22  2  0
M  END
$$$$
