KSI.pdb
     RDKit          3D

 24 23  0  0  1  0  0  0  0  0999 V2000
   27.8667  -23.0212  -16.9649 N   0  0  0  0  0  0  0  0  0  0  0  0
   26.8967  -21.9795  -16.7150 C   0  0  1  0  0  0  0  0  0  0  0  0
   26.3428  -21.4479  -17.9947 C   0  0  0  0  0  0  0  0  0  0  0  0
   26.8596  -20.1278  -18.4310 C   0  0  0  0  0  0  0  0  0  0  0  0
   26.3235  -19.5971  -19.7148 C   0  0  0  0  0  0  0  0  0  0  0  0
   26.8885  -18.2465  -20.0820 C   0  0  0  0  0  0  0  0  0  0  0  0
   26.3565  -17.7896  -21.3503 N   0  0  0  0  0  0  0  0  0  0  0  0
   25.8357  -22.5511  -15.8358 C   0  0  0  0  0  0  0  0  0  0  0  0
   25.4215  -23.7294  -15.9758 O   0  0  0  0  0  0  0  0  0  0  0  0
   24.6632  -20.3527  -12.5247 O   0  0  0  0  0  0  0  0  0  0  0  0
   24.5818  -21.7492  -12.4936 C   0  0  0  0  0  0  0  0  0  0  0  0
   24.2357  -22.2811  -13.8911 C   0  0  2  0  0  0  0  0  0  0  0  0
   25.2346  -21.7900  -14.7884 N   0  0  0  0  0  0  0  0  0  0  0  0
   22.8625  -21.7794  -14.2806 C   0  0  0  0  0  0  0  0  0  0  0  0
   22.7348  -20.6484  -14.8070 O   0  0  0  0  0  0  0  0  0  0  0  0
   18.8008  -25.6415  -15.3534 C   0  0  0  0  0  0  0  0  0  0  0  0
   19.4761  -24.6116  -14.4393 C   0  0  0  0  0  0  0  0  0  0  0  0
   19.7379  -23.3390  -15.1958 C   0  0  2  0  0  0  0  0  0  0  0  0
   20.5135  -23.7079  -16.4568 C   0  0  0  0  0  0  0  0  0  0  0  0
   20.3607  -22.2898  -14.3705 C   0  0  2  0  0  0  0  0  0  0  0  0
   21.7525  -22.5821  -14.0492 N   0  0  0  0  0  0  0  0  0  0  0  0
   19.5401  -21.9199  -13.2086 C   0  0  0  0  0  0  0  0  0  0  0  0
   18.3407  -21.2554  -13.3787 O   0  0  0  0  0  0  0  0  0  0  0  0
   19.8787  -22.1857  -12.0467 O   0  0  0  0  0  0  0  0  0  0  0  0
  2  1  1  6
  3  2  1  0
  4  3  1  0
  5  6  1  0
  5  4  1  0
  6  7  1  0
  8  2  1  0
  8  9  2  0
 10 11  1  0
 12 11  1  1
 12 13  1  0
 13  8  1  0
 14 12  1  0
 15 14  2  0
 17 16  1  0
 18 17  1  0
 18 19  1  6
 20 18  1  0
 20 21  1  1
 21 14  1  0
 22 20  1  0
 23 22  1  0
 24 22  2  0
M  END
$$$$
