KSI.pdb
     RDKit          3D

 24 23  0  0  1  0  0  0  0  0999 V2000
   28.6133  -22.0705  -16.2038 N   0  0  0  0  0  0  0  0  0  0  0  0
   27.8593  -20.9697  -15.6486 C   0  0  1  0  0  0  0  0  0  0  0  0
   27.2097  -20.1696  -16.7279 C   0  0  0  0  0  0  0  0  0  0  0  0
   28.1247  -19.4861  -17.6743 C   0  0  0  0  0  0  0  0  0  0  0  0
   29.1762  -18.6208  -17.0719 C   0  0  0  0  0  0  0  0  0  0  0  0
   30.0200  -17.9073  -18.1000 C   0  0  0  0  0  0  0  0  0  0  0  0
   30.9956  -17.0458  -17.4625 N   0  0  0  0  0  0  0  0  0  0  0  0
   26.8654  -21.5389  -14.6928 C   0  0  0  0  0  0  0  0  0  0  0  0
   26.0178  -22.3958  -15.0489 O   0  0  0  0  0  0  0  0  0  0  0  0
   26.2174  -19.6016  -10.9411 O   0  0  0  0  0  0  0  0  0  0  0  0
   26.2183  -20.9987  -11.0191 C   0  0  0  0  0  0  0  0  0  0  0  0
   25.7609  -21.4417  -12.4157 C   0  0  2  0  0  0  0  0  0  0  0  0
   26.8243  -21.1406  -13.3227 N   0  0  0  0  0  0  0  0  0  0  0  0
   24.5035  -20.6846  -12.7830 C   0  0  0  0  0  0  0  0  0  0  0  0
   24.5817  -19.5027  -13.1947 O   0  0  0  0  0  0  0  0  0  0  0  0
   19.8544  -20.8390  -16.1719 C   0  0  0  0  0  0  0  0  0  0  0  0
   20.2296  -20.4478  -14.7372 C   0  0  0  0  0  0  0  0  0  0  0  0
   21.4935  -21.1482  -14.3219 C   0  0  2  0  0  0  0  0  0  0  0  0
   21.2728  -22.6448  -14.5190 C   0  0  0  0  0  0  0  0  0  0  0  0
   21.9573  -20.7622  -12.9781 C   0  0  2  0  0  0  0  0  0  0  0  0
   23.2698  -21.3112  -12.6593 N   0  0  0  0  0  0  0  0  0  0  0  0
   20.9419  -20.9901  -11.9402 C   0  0  0  0  0  0  0  0  0  0  0  0
   19.9689  -20.0417  -11.6892 O   0  0  0  0  0  0  0  0  0  0  0  0
   20.9110  -22.0247  -11.2591 O   0  0  0  0  0  0  0  0  0  0  0  0
  2  1  1  6
  3  2  1  0
  4  3  1  0
  5  6  1  0
  5  4  1  0
  6  7  1  0
  8  2  1  0
  8  9  2  0
 10 11  1  0
 12 11  1  1
 12 13  1  0
 13  8  1  0
 14 12  1  0
 15 14  2  0
 17 16  1  0
 18 17  1  0
 18 19  1  1
 20 18  1  0
 20 21  1  1
 21 14  1  0
 22 20  1  0
 23 22  1  0
 24 22  2  0
M  END
$$$$
