KSI.pdb
     RDKit          3D

 24 23  0  0  1  0  0  0  0  0999 V2000
   17.5767  -13.0856  -15.6488 N   0  0  0  0  0  0  0  0  0  0  0  0
   18.2051  -12.9951  -16.9471 C   0  0  1  0  0  0  0  0  0  0  0  0
   17.3351  -13.5898  -18.0037 C   0  0  0  0  0  0  0  0  0  0  0  0
   17.2910  -15.0716  -18.0550 C   0  0  0  0  0  0  0  0  0  0  0  0
   16.3061  -15.7371  -17.1583 C   0  0  0  0  0  0  0  0  0  0  0  0
   16.2172  -17.2281  -17.3754 C   0  0  0  0  0  0  0  0  0  0  0  0
   15.3623  -17.8466  -16.3818 N   0  0  0  0  0  0  0  0  0  0  0  0
   18.5031  -11.5565  -17.2059 C   0  0  0  0  0  0  0  0  0  0  0  0
   19.0771  -11.1765  -18.2574 O   0  0  0  0  0  0  0  0  0  0  0  0
   17.3870   -7.0017  -16.4246 O   0  0  0  0  0  0  0  0  0  0  0  0
   17.1377   -8.3781  -16.3874 C   0  0  0  0  0  0  0  0  0  0  0  0
   18.4650   -9.1479  -16.4235 C   0  0  2  0  0  0  0  0  0  0  0  0
   18.1521  -10.5349  -16.2729 N   0  0  0  0  0  0  0  0  0  0  0  0
   19.3439   -8.6638  -15.2911 C   0  0  0  0  0  0  0  0  0  0  0  0
   19.0530   -8.9509  -14.1057 O   0  0  0  0  0  0  0  0  0  0  0  0
   23.9411  -10.2541  -14.5204 C   0  0  0  0  0  0  0  0  0  0  0  0
   22.5752   -9.5627  -14.4280 C   0  0  0  0  0  0  0  0  0  0  0  0
   22.7237   -8.0860  -14.6678 C   0  0  2  0  0  0  0  0  0  0  0  0
   23.7767   -7.5680  -13.6930 C   0  0  0  0  0  0  0  0  0  0  0  0
   21.4420   -7.3605  -14.6381 C   0  0  2  0  0  0  0  0  0  0  0  0
   20.4695   -7.9023  -15.5795 N   0  0  0  0  0  0  0  0  0  0  0  0
   21.6129   -5.9031  -14.7220 C   0  0  0  0  0  0  0  0  0  0  0  0
   21.1164   -5.1987  -15.8022 O   0  0  0  0  0  0  0  0  0  0  0  0
   22.1952   -5.2524  -13.8430 O   0  0  0  0  0  0  0  0  0  0  0  0
  2  1  1  1
  3  2  1  0
  4  3  1  0
  5  6  1  0
  5  4  1  0
  6  7  1  0
  8  2  1  0
  8  9  2  0
 10 11  1  0
 12 11  1  1
 12 13  1  0
 13  8  1  0
 14 12  1  0
 15 14  2  0
 17 16  1  0
 18 17  1  0
 18 19  1  1
 20 18  1  0
 20 21  1  6
 21 14  1  0
 22 20  1  0
 23 22  1  0
 24 22  2  0
M  END
$$$$
