KSI.pdb
     RDKit          3D

 24 23  0  0  1  0  0  0  0  0999 V2000
   15.7130  -14.1632  -18.2729 N   0  0  0  0  0  0  0  0  0  0  0  0
   16.4362  -13.7993  -17.0758 C   0  0  1  0  0  0  0  0  0  0  0  0
   17.4091  -14.8649  -16.6952 C   0  0  0  0  0  0  0  0  0  0  0  0
   16.8319  -16.0889  -16.0879 C   0  0  0  0  0  0  0  0  0  0  0  0
   17.7957  -17.0381  -15.4655 C   0  0  0  0  0  0  0  0  0  0  0  0
   17.1241  -18.2039  -14.7813 C   0  0  0  0  0  0  0  0  0  0  0  0
   18.0884  -19.0014  -14.0502 N   0  0  0  0  0  0  0  0  0  0  0  0
   17.1049  -12.4906  -17.3317 C   0  0  0  0  0  0  0  0  0  0  0  0
   17.6703  -12.2370  -18.4252 O   0  0  0  0  0  0  0  0  0  0  0  0
   16.1170   -9.2398  -15.1116 O   0  0  0  0  0  0  0  0  0  0  0  0
   16.7782   -9.0976  -16.3366 C   0  0  0  0  0  0  0  0  0  0  0  0
   17.8233  -10.2104  -16.4955 C   0  0  2  0  0  0  0  0  0  0  0  0
   17.1380  -11.4565  -16.3483 N   0  0  0  0  0  0  0  0  0  0  0  0
   18.8827  -10.0443  -15.4282 C   0  0  0  0  0  0  0  0  0  0  0  0
   18.7365  -10.5923  -14.3098 O   0  0  0  0  0  0  0  0  0  0  0  0
   23.9011  -10.9081  -13.6757 C   0  0  0  0  0  0  0  0  0  0  0  0
   23.4856   -9.5373  -14.2241 C   0  0  0  0  0  0  0  0  0  0  0  0
   22.3658   -9.6925  -15.2153 C   0  0  2  0  0  0  0  0  0  0  0  0
   22.9075   -9.2907  -16.5838 C   0  0  0  0  0  0  0  0  0  0  0  0
   21.1308   -8.9994  -14.8102 C   0  0  2  0  0  0  0  0  0  0  0  0
   20.0117   -9.2822  -15.7010 N   0  0  0  0  0  0  0  0  0  0  0  0
   21.3431   -7.5691  -14.5467 C   0  0  0  0  0  0  0  0  0  0  0  0
   21.8916   -7.1493  -13.3500 O   0  0  0  0  0  0  0  0  0  0  0  0
   21.0489   -6.6925  -15.3714 O   0  0  0  0  0  0  0  0  0  0  0  0
  2  1  1  6
  3  2  1  0
  4  3  1  0
  5  6  1  0
  5  4  1  0
  6  7  1  0
  8  2  1  0
  8  9  2  0
 10 11  1  0
 12 11  1  1
 12 13  1  0
 13  8  1  0
 14 12  1  0
 15 14  2  0
 17 16  1  0
 18 17  1  0
 18 19  1  6
 20 18  1  0
 20 21  1  6
 21 14  1  0
 22 20  1  0
 23 22  1  0
 24 22  2  0
M  END
$$$$
