KSI.pdb
     RDKit          3D

 24 23  0  0  1  0  0  0  0  0999 V2000
   24.7776  -20.8244  -10.3663 N   0  0  0  0  0  0  0  0  0  0  0  0
   24.6463  -21.2155  -11.7513 C   0  0  1  0  0  0  0  0  0  0  0  0
   23.2423  -21.0382  -12.2252 C   0  0  0  0  0  0  0  0  0  0  0  0
   22.1770  -21.4310  -11.2707 C   0  0  0  0  0  0  0  0  0  0  0  0
   20.7754  -21.3308  -11.7634 C   0  0  0  0  0  0  0  0  0  0  0  0
   19.7582  -21.8362  -10.7694 C   0  0  0  0  0  0  0  0  0  0  0  0
   18.4184  -21.7653  -11.3174 N   0  0  0  0  0  0  0  0  0  0  0  0
   25.6155  -20.4047  -12.5441 C   0  0  0  0  0  0  0  0  0  0  0  0
   26.0502  -19.3000  -12.1314 O   0  0  0  0  0  0  0  0  0  0  0  0
   28.5511  -21.8403  -14.8779 O   0  0  0  0  0  0  0  0  0  0  0  0
   27.6554  -21.0545  -15.6114 C   0  0  0  0  0  0  0  0  0  0  0  0
   26.9414  -20.0693  -14.6758 C   0  0  2  0  0  0  0  0  0  0  0  0
   26.1009  -20.8404  -13.8138 N   0  0  0  0  0  0  0  0  0  0  0  0
   26.1255  -19.1053  -15.5090 C   0  0  0  0  0  0  0  0  0  0  0  0
   24.9593  -19.4089  -15.8558 O   0  0  0  0  0  0  0  0  0  0  0  0
   25.2838  -13.1639  -15.7401 C   0  0  0  0  0  0  0  0  0  0  0  0
   25.3662  -14.4152  -16.6232 C   0  0  0  0  0  0  0  0  0  0  0  0
   25.9979  -15.5472  -15.8616 C   0  0  2  0  0  0  0  0  0  0  0  0
   27.3511  -15.0582  -15.3544 C   0  0  0  0  0  0  0  0  0  0  0  0
   26.0406  -16.8076  -16.6229 C   0  0  2  0  0  0  0  0  0  0  0  0
   26.6810  -17.8880  -15.8824 N   0  0  0  0  0  0  0  0  0  0  0  0
   26.5529  -16.6285  -17.9888 C   0  0  0  0  0  0  0  0  0  0  0  0
   25.7372  -16.1267  -18.9848 O   0  0  0  0  0  0  0  0  0  0  0  0
   27.7181  -16.9104  -18.3017 O   0  0  0  0  0  0  0  0  0  0  0  0
  2  1  1  1
  3  2  1  0
  4  3  1  0
  5  6  1  0
  5  4  1  0
  6  7  1  0
  8  2  1  0
  8  9  2  0
 10 11  1  0
 12 11  1  6
 12 13  1  0
 13  8  1  0
 14 12  1  0
 15 14  2  0
 17 16  1  0
 18 17  1  0
 18 19  1  6
 20 18  1  0
 20 21  1  1
 21 14  1  0
 22 20  1  0
 23 22  1  0
 24 22  2  0
M  END
$$$$
