KSI.pdb
     RDKit          3D

 24 23  0  0  1  0  0  0  0  0999 V2000
   20.9902  -12.8313  -19.0579 N   0  0  0  0  0  0  0  0  0  0  0  0
   20.2922  -11.5949  -19.3274 C   0  0  1  0  0  0  0  0  0  0  0  0
   18.8427  -11.7167  -18.9940 C   0  0  0  0  0  0  0  0  0  0  0  0
   18.0775  -12.7244  -19.7681 C   0  0  0  0  0  0  0  0  0  0  0  0
   16.6059  -12.7558  -19.5432 C   0  0  0  0  0  0  0  0  0  0  0  0
   15.9132  -13.8665  -20.2946 C   0  0  0  0  0  0  0  0  0  0  0  0
   14.4984  -13.8997  -19.9823 N   0  0  0  0  0  0  0  0  0  0  0  0
   20.9624  -10.5172  -18.5434 C   0  0  0  0  0  0  0  0  0  0  0  0
   21.4551  -10.7316  -17.4072 O   0  0  0  0  0  0  0  0  0  0  0  0
   20.3071   -6.4962  -19.4564 O   0  0  0  0  0  0  0  0  0  0  0  0
   21.6401   -6.8760  -19.2644 C   0  0  0  0  0  0  0  0  0  0  0  0
   21.7036   -8.1034  -18.3451 C   0  0  2  0  0  0  0  0  0  0  0  0
   21.0798   -9.1848  -19.0420 N   0  0  0  0  0  0  0  0  0  0  0  0
   20.9701   -7.7916  -17.0591 C   0  0  0  0  0  0  0  0  0  0  0  0
   19.7611   -8.1009  -16.9367 O   0  0  0  0  0  0  0  0  0  0  0  0
   19.5896   -8.6831  -12.0036 C   0  0  0  0  0  0  0  0  0  0  0  0
   20.6596   -7.6588  -12.4015 C   0  0  0  0  0  0  0  0  0  0  0  0
   21.1991   -7.9762  -13.7684 C   0  0  2  0  0  0  0  0  0  0  0  0
   22.5878   -8.5801  -13.5831 C   0  0  0  0  0  0  0  0  0  0  0  0
   21.1395   -6.8339  -14.6966 C   0  0  2  0  0  0  0  0  0  0  0  0
   21.6484   -7.1624  -16.0228 N   0  0  0  0  0  0  0  0  0  0  0  0
   21.7066   -5.6057  -14.1220 C   0  0  0  0  0  0  0  0  0  0  0  0
   22.9991   -5.2210  -14.4233 O   0  0  0  0  0  0  0  0  0  0  0  0
   21.0623   -4.8720  -13.3593 O   0  0  0  0  0  0  0  0  0  0  0  0
  2  1  1  1
  3  2  1  0
  4  3  1  0
  5  6  1  0
  5  4  1  0
  6  7  1  0
  8  2  1  0
  8  9  2  0
 10 11  1  0
 12 11  1  6
 12 13  1  0
 13  8  1  0
 14 12  1  0
 15 14  2  0
 17 16  1  0
 18 17  1  0
 18 19  1  1
 20 18  1  0
 20 21  1  6
 21 14  1  0
 22 20  1  0
 23 22  1  0
 24 22  2  0
M  END
$$$$
