KSI.pdb
     RDKit          3D

 24 23  0  0  1  0  0  0  0  0999 V2000
   27.0713  -22.5935  -16.6555 N   0  0  0  0  0  0  0  0  0  0  0  0
   28.3878  -22.1927  -16.2142 C   0  0  1  0  0  0  0  0  0  0  0  0
   29.1809  -21.6278  -17.3451 C   0  0  0  0  0  0  0  0  0  0  0  0
   28.7231  -21.9908  -18.7085 C   0  0  0  0  0  0  0  0  0  0  0  0
   29.0400  -23.3710  -19.1688 C   0  0  0  0  0  0  0  0  0  0  0  0
   28.6656  -23.6177  -20.6100 C   0  0  0  0  0  0  0  0  0  0  0  0
   28.9727  -24.9794  -20.9996 N   0  0  0  0  0  0  0  0  0  0  0  0
   28.2133  -21.2127  -15.1031 C   0  0  0  0  0  0  0  0  0  0  0  0
   29.1750  -20.5379  -14.6563 O   0  0  0  0  0  0  0  0  0  0  0  0
   24.4038  -19.8662  -13.9181 O   0  0  0  0  0  0  0  0  0  0  0  0
   25.6015  -19.1661  -13.7356 C   0  0  0  0  0  0  0  0  0  0  0  0
   26.7225  -20.1437  -13.3568 C   0  0  2  0  0  0  0  0  0  0  0  0
   26.9447  -20.9891  -14.4882 N   0  0  0  0  0  0  0  0  0  0  0  0
   26.2843  -20.9504  -12.1542 C   0  0  0  0  0  0  0  0  0  0  0  0
   25.8132  -22.1020  -12.3103 O   0  0  0  0  0  0  0  0  0  0  0  0
   28.1398  -19.2133   -7.2155 C   0  0  0  0  0  0  0  0  0  0  0  0
   27.6641  -20.1889   -8.2991 C   0  0  0  0  0  0  0  0  0  0  0  0
   26.1753  -20.0803   -8.4779 C   0  0  2  0  0  0  0  0  0  0  0  0
   25.5244  -20.5161   -7.1688 C   0  0  0  0  0  0  0  0  0  0  0  0
   25.6814  -20.7782   -9.6775 C   0  0  2  0  0  0  0  0  0  0  0  0
   26.4094  -20.4028  -10.8836 N   0  0  0  0  0  0  0  0  0  0  0  0
   24.2194  -20.7105   -9.8119 C   0  0  0  0  0  0  0  0  0  0  0  0
   23.4169  -21.6894   -9.2579 O   0  0  0  0  0  0  0  0  0  0  0  0
   23.6512  -19.7880  -10.4132 O   0  0  0  0  0  0  0  0  0  0  0  0
  2  1  1  6
  3  2  1  0
  4  3  1  0
  5  6  1  0
  5  4  1  0
  6  7  1  0
  8  2  1  0
  8  9  2  0
 10 11  1  0
 12 11  1  6
 12 13  1  0
 13  8  1  0
 14 12  1  0
 15 14  2  0
 17 16  1  0
 18 17  1  0
 18 19  1  1
 20 18  1  0
 20 21  1  6
 21 14  1  0
 22 20  1  0
 23 22  1  0
 24 22  2  0
M  END
$$$$
