KSI.pdb
     RDKit          3D

 24 23  0  0  1  0  0  0  0  0999 V2000
   24.6306  -22.4913  -16.1022 N   0  0  0  0  0  0  0  0  0  0  0  0
   24.3319  -21.9554  -14.7937 C   0  0  1  0  0  0  0  0  0  0  0  0
   23.1823  -22.6755  -14.1717 C   0  0  0  0  0  0  0  0  0  0  0  0
   21.8738  -22.5288  -14.8548 C   0  0  0  0  0  0  0  0  0  0  0  0
   20.7314  -23.2826  -14.2682 C   0  0  0  0  0  0  0  0  0  0  0  0
   19.4544  -23.1374  -15.0596 C   0  0  0  0  0  0  0  0  0  0  0  0
   18.4021  -23.9630  -14.5015 N   0  0  0  0  0  0  0  0  0  0  0  0
   25.5718  -22.0555  -13.9703 C   0  0  0  0  0  0  0  0  0  0  0  0
   26.3352  -23.0516  -14.0386 O   0  0  0  0  0  0  0  0  0  0  0  0
   27.2506  -18.7762  -12.5244 O   0  0  0  0  0  0  0  0  0  0  0  0
   27.9783  -19.9613  -12.3693 C   0  0  0  0  0  0  0  0  0  0  0  0
   27.0186  -21.1303  -12.1086 C   0  0  2  0  0  0  0  0  0  0  0  0
   25.9574  -21.0250  -13.0609 N   0  0  0  0  0  0  0  0  0  0  0  0
   26.4910  -21.0259  -10.6944 C   0  0  0  0  0  0  0  0  0  0  0  0
   25.2547  -20.9842  -10.4885 O   0  0  0  0  0  0  0  0  0  0  0  0
   30.6085  -21.2712   -6.8780 C   0  0  0  0  0  0  0  0  0  0  0  0
   29.2444  -21.6301   -7.4804 C   0  0  0  0  0  0  0  0  0  0  0  0
   28.3343  -20.4337   -7.4538 C   0  0  2  0  0  0  0  0  0  0  0  0
   28.1012  -20.0689   -5.9909 C   0  0  0  0  0  0  0  0  0  0  0  0
   27.1081  -20.6184   -8.2489 C   0  0  2  0  0  0  0  0  0  0  0  0
   27.3874  -20.9769   -9.6343 N   0  0  0  0  0  0  0  0  0  0  0  0
   26.1592  -19.5067   -8.0950 C   0  0  0  0  0  0  0  0  0  0  0  0
   26.4061  -18.2847   -8.6909 O   0  0  0  0  0  0  0  0  0  0  0  0
   25.1131  -19.6142   -7.4397 O   0  0  0  0  0  0  0  0  0  0  0  0
  2  1  1  6
  3  2  1  0
  4  3  1  0
  5  6  1  0
  5  4  1  0
  6  7  1  0
  8  2  1  0
  8  9  2  0
 10 11  1  0
 12 11  1  6
 12 13  1  0
 13  8  1  0
 14 12  1  0
 15 14  2  0
 17 16  1  0
 18 17  1  0
 18 19  1  1
 20 18  1  0
 20 21  1  6
 21 14  1  0
 22 20  1  0
 23 22  1  0
 24 22  2  0
M  END
$$$$
