KSI.pdb
     RDKit          3D

 24 23  0  0  1  0  0  0  0  0999 V2000
   20.5544  -19.7282  -12.9515 N   0  0  0  0  0  0  0  0  0  0  0  0
   21.3179  -20.6078  -12.0960 C   0  0  1  0  0  0  0  0  0  0  0  0
   20.9496  -22.0345  -12.3326 C   0  0  0  0  0  0  0  0  0  0  0  0
   20.4669  -22.3664  -13.6953 C   0  0  0  0  0  0  0  0  0  0  0  0
   21.4852  -22.8797  -14.6528 C   0  0  0  0  0  0  0  0  0  0  0  0
   21.5185  -24.3865  -14.7342 C   0  0  0  0  0  0  0  0  0  0  0  0
   20.4639  -24.8825  -15.5957 N   0  0  0  0  0  0  0  0  0  0  0  0
   22.7638  -20.3482  -12.3557 C   0  0  0  0  0  0  0  0  0  0  0  0
   23.1548  -19.7432  -13.3856 O   0  0  0  0  0  0  0  0  0  0  0  0
   25.4340  -22.2033   -9.8732 O   0  0  0  0  0  0  0  0  0  0  0  0
   25.8881  -20.9673  -10.3465 C   0  0  0  0  0  0  0  0  0  0  0  0
   25.1854  -20.6267  -11.6679 C   0  0  2  0  0  0  0  0  0  0  0  0
   23.7803  -20.7732  -11.4481 N   0  0  0  0  0  0  0  0  0  0  0  0
   25.6691  -21.5783  -12.7401 C   0  0  0  0  0  0  0  0  0  0  0  0
   25.1971  -22.7382  -12.8075 O   0  0  0  0  0  0  0  0  0  0  0  0
   24.3028  -21.7524  -17.9322 C   0  0  0  0  0  0  0  0  0  0  0  0
   25.6573  -21.8816  -17.2243 C   0  0  0  0  0  0  0  0  0  0  0  0
   25.5669  -21.3344  -15.8269 C   0  0  2  0  0  0  0  0  0  0  0  0
   25.1265  -19.8776  -15.9339 C   0  0  0  0  0  0  0  0  0  0  0  0
   26.7898  -21.5551  -15.0359 C   0  0  2  0  0  0  0  0  0  0  0  0
   26.6359  -21.1538  -13.6427 N   0  0  0  0  0  0  0  0  0  0  0  0
   27.9920  -21.0166  -15.6876 C   0  0  0  0  0  0  0  0  0  0  0  0
   28.6177  -21.7201  -16.6990 O   0  0  0  0  0  0  0  0  0  0  0  0
   28.4870  -19.9265  -15.3682 O   0  0  0  0  0  0  0  0  0  0  0  0
  2  1  1  6
  3  2  1  0
  4  3  1  0
  5  6  1  0
  5  4  1  0
  6  7  1  0
  8  2  1  0
  8  9  2  0
 10 11  1  0
 12 11  1  1
 12 13  1  0
 13  8  1  0
 14 12  1  0
 15 14  2  0
 17 16  1  0
 18 17  1  0
 18 19  1  6
 20 18  1  0
 20 21  1  1
 21 14  1  0
 22 20  1  0
 23 22  1  0
 24 22  2  0
M  END
$$$$
