SYL.pdb
     RDKit          3D

 27 27  0  0  1  0  0  0  0  0999 V2000
    7.1646  -19.0619   25.9252 O   0  0  0  0  0  0  0  0  0  0  0  0
    5.9958  -19.4524   25.2690 C   0  0  0  0  0  0  0  0  0  0  0  0
    6.2385  -19.6298   23.7899 C   0  0  2  0  0  0  0  0  0  0  0  0
    6.7843  -20.9401   23.5549 N   0  0  0  0  0  0  0  0  0  0  0  0
    7.1254  -18.5810   23.2457 C   0  0  0  0  0  0  0  0  0  0  0  0
    8.3429  -18.8498   23.0783 O   0  0  0  0  0  0  0  0  0  0  0  0
    9.5350  -11.9176   18.1618 O   0  0  0  0  0  0  0  0  0  0  0  0
    8.8070  -12.7196   19.0651 C   0  0  0  0  0  0  0  0  0  0  0  0
    8.8988  -14.0862   18.9729 C   0  0  0  0  0  0  0  0  0  0  0  0
    8.1840  -14.8961   19.8603 C   0  0  0  0  0  0  0  0  0  0  0  0
    7.3837  -14.3408   20.8320 C   0  0  0  0  0  0  0  0  0  0  0  0
    6.6249  -15.1758   21.7737 C   0  0  0  0  0  0  0  0  0  0  0  0
    7.4435  -16.3057   22.3574 C   0  0  2  0  0  0  0  0  0  0  0  0
    6.5811  -17.3107   22.9301 N   0  0  0  0  0  0  0  0  0  0  0  0
    8.3964  -15.8277   23.3885 C   0  0  0  0  0  0  0  0  0  0  0  0
    9.5850  -15.5277   23.1330 O   0  0  0  0  0  0  0  0  0  0  0  0
    7.3090  -12.9730   20.9033 C   0  0  0  0  0  0  0  0  0  0  0  0
    8.0170  -12.1595   20.0243 C   0  0  0  0  0  0  0  0  0  0  0  0
    6.0166  -12.7788   27.0770 C   0  0  0  0  0  0  0  0  0  0  0  0
    7.0951  -13.2914   26.1456 C   0  0  1  0  0  0  0  0  0  0  0  0
    8.0424  -12.1394   25.7670 C   0  0  0  0  0  0  0  0  0  0  0  0
    7.9043  -14.3758   26.7542 C   0  0  0  0  0  0  0  0  0  0  0  0
    8.7863  -15.0834   25.7706 C   0  0  2  0  0  0  0  0  0  0  0  0
    7.9565  -15.6989   24.7302 N   0  0  0  0  0  0  0  0  0  0  0  0
    9.4690  -16.2141   26.4440 C   0  0  0  0  0  0  0  0  0  0  0  0
    9.2219  -17.4338   26.1459 O   0  0  0  0  0  0  0  0  0  0  0  0
   10.4058  -16.0115   27.4229 O   0  0  0  0  0  0  0  0  0  0  0  0
  2  3  1  0
  2  1  1  0
  3  4  1  1
  5  6  2  0
  5  3  1  0
  7  8  1  0
  8 18  2  0
  9 10  2  0
  9  8  1  0
 10 11  1  0
 11 12  1  0
 11 17  2  0
 13 12  1  1
 13 14  1  0
 14  5  1  0
 15 13  1  0
 16 15  2  0
 18 17  1  0
 20 22  1  0
 20 19  1  1
 21 20  1  0
 23 22  1  1
 23 24  1  0
 24 15  1  0
 25 23  1  0
 26 25  2  0
 27 25  1  0
M  END
$$$$
