SYL.pdb
     RDKit          3D

 27 27  0  0  1  0  0  0  0  0999 V2000
   11.5897  -19.4211   22.5564 O   0  0  0  0  0  0  0  0  0  0  0  0
   10.6297  -19.4058   21.5429 C   0  0  0  0  0  0  0  0  0  0  0  0
   10.5323  -18.0391   20.9098 C   0  0  2  0  0  0  0  0  0  0  0  0
   11.7151  -17.7960   20.1272 N   0  0  0  0  0  0  0  0  0  0  0  0
   10.3357  -16.9762   21.9168 C   0  0  0  0  0  0  0  0  0  0  0  0
   11.2900  -16.1933   22.1597 O   0  0  0  0  0  0  0  0  0  0  0  0
    6.0459  -10.9762   26.6955 O   0  0  0  0  0  0  0  0  0  0  0  0
    6.3810  -12.1393   25.9718 C   0  0  0  0  0  0  0  0  0  0  0  0
    6.0216  -13.3666   26.4709 C   0  0  0  0  0  0  0  0  0  0  0  0
    6.3458  -14.5298   25.7664 C   0  0  0  0  0  0  0  0  0  0  0  0
    7.0247  -14.4633   24.5716 C   0  0  0  0  0  0  0  0  0  0  0  0
    7.3743  -15.6749   23.8168 C   0  0  0  0  0  0  0  0  0  0  0  0
    8.8291  -15.7187   23.4055 C   0  0  2  0  0  0  0  0  0  0  0  0
    9.0848  -16.8708   22.5754 N   0  0  0  0  0  0  0  0  0  0  0  0
    9.7382  -15.7433   24.5771 C   0  0  0  0  0  0  0  0  0  0  0  0
   10.5975  -14.8583   24.7931 O   0  0  0  0  0  0  0  0  0  0  0  0
    7.3725  -13.2253   24.0943 C   0  0  0  0  0  0  0  0  0  0  0  0
    7.0538  -12.0626   24.7889 C   0  0  0  0  0  0  0  0  0  0  0  0
    9.5445  -13.4655   28.5049 C   0  0  0  0  0  0  0  0  0  0  0  0
   10.2752  -14.4582   27.6250 C   0  0  1  0  0  0  0  0  0  0  0  0
   11.7544  -14.5293   28.0426 C   0  0  0  0  0  0  0  0  0  0  0  0
    9.7030  -15.8243   27.7118 C   0  0  0  0  0  0  0  0  0  0  0  0
   10.3574  -16.8032   26.7846 C   0  0  2  0  0  0  0  0  0  0  0  0
    9.6425  -16.8114   25.5045 N   0  0  0  0  0  0  0  0  0  0  0  0
   10.2030  -18.1749   27.3258 C   0  0  0  0  0  0  0  0  0  0  0  0
    9.3082  -18.9809   26.8931 O   0  0  0  0  0  0  0  0  0  0  0  0
   11.0151  -18.6540   28.3197 O   0  0  0  0  0  0  0  0  0  0  0  0
  2  3  1  0
  2  1  1  0
  3  4  1  1
  5  6  2  0
  5  3  1  0
  7  8  1  0
  8 18  2  0
  9 10  2  0
  9  8  1  0
 10 11  1  0
 11 12  1  0
 11 17  2  0
 13 12  1  1
 13 14  1  0
 14  5  1  0
 15 13  1  0
 16 15  2  0
 18 17  1  0
 20 22  1  0
 20 19  1  1
 21 20  1  0
 23 22  1  1
 23 24  1  0
 24 15  1  0
 25 23  1  0
 26 25  2  0
 27 25  1  0
M  END
$$$$
