SYL.pdb
     RDKit          3D

 27 27  0  0  1  0  0  0  0  0999 V2000
    8.0459  -15.2787   18.2673 O   0  0  0  0  0  0  0  0  0  0  0  0
    8.5450  -16.2573   19.1288 C   0  0  0  0  0  0  0  0  0  0  0  0
    7.4769  -17.2635   19.4823 C   0  0  2  0  0  0  0  0  0  0  0  0
    6.2921  -16.9834   18.7154 N   0  0  0  0  0  0  0  0  0  0  0  0
    7.1816  -17.2708   20.9298 C   0  0  0  0  0  0  0  0  0  0  0  0
    6.1270  -16.7148   21.3316 O   0  0  0  0  0  0  0  0  0  0  0  0
    7.8229  -18.9803   29.5494 O   0  0  0  0  0  0  0  0  0  0  0  0
    7.9658  -19.0065   28.1466 C   0  0  0  0  0  0  0  0  0  0  0  0
    9.1722  -18.6630   27.5889 C   0  0  0  0  0  0  0  0  0  0  0  0
    9.3313  -18.6835   26.2001 C   0  0  0  0  0  0  0  0  0  0  0  0
    8.2896  -19.0454   25.3773 C   0  0  0  0  0  0  0  0  0  0  0  0
    8.4378  -19.0729   23.9153 C   0  0  0  0  0  0  0  0  0  0  0  0
    7.8100  -17.8781   23.2327 C   0  0  2  0  0  0  0  0  0  0  0  0
    8.0900  -17.9002   21.8175 N   0  0  0  0  0  0  0  0  0  0  0  0
    8.2826  -16.5959   23.8091 C   0  0  0  0  0  0  0  0  0  0  0  0
    9.3976  -16.0950   23.5370 O   0  0  0  0  0  0  0  0  0  0  0  0
    7.0946  -19.3841   25.9590 C   0  0  0  0  0  0  0  0  0  0  0  0
    6.9276  -19.3664   27.3402 C   0  0  0  0  0  0  0  0  0  0  0  0
    7.3429  -11.5376   25.1821 C   0  0  0  0  0  0  0  0  0  0  0  0
    6.7856  -12.5038   26.2065 C   0  0  1  0  0  0  0  0  0  0  0  0
    5.4556  -11.9619   26.7592 C   0  0  0  0  0  0  0  0  0  0  0  0
    6.5370  -13.8525   25.6405 C   0  0  0  0  0  0  0  0  0  0  0  0
    7.7894  -14.5633   25.2252 C   0  0  2  0  0  0  0  0  0  0  0  0
    7.4451  -15.8927   24.7115 N   0  0  0  0  0  0  0  0  0  0  0  0
    8.6338  -14.8133   26.4180 C   0  0  0  0  0  0  0  0  0  0  0  0
    9.5047  -13.9686   26.8250 O   0  0  0  0  0  0  0  0  0  0  0  0
    8.5237  -15.9652   27.1514 O   0  0  0  0  0  0  0  0  0  0  0  0
  2  3  1  0
  2  1  1  0
  3  4  1  6
  5  6  2  0
  5  3  1  0
  7  8  1  0
  8 18  2  0
  9 10  2  0
  9  8  1  0
 10 11  1  0
 11 12  1  0
 11 17  2  0
 13 12  1  1
 13 14  1  0
 14  5  1  0
 15 13  1  0
 16 15  2  0
 18 17  1  0
 20 22  1  0
 20 19  1  6
 21 20  1  0
 23 22  1  1
 23 24  1  0
 24 15  1  0
 25 23  1  0
 26 25  2  0
 27 25  1  0
M  END
$$$$
