SYL.pdb
     RDKit          3D

 27 27  0  0  1  0  0  0  0  0999 V2000
    8.1787  -13.0128   18.4992 O   0  0  0  0  0  0  0  0  0  0  0  0
    8.0821  -13.4792   19.8116 C   0  0  0  0  0  0  0  0  0  0  0  0
    7.9691  -14.9839   19.8447 C   0  0  2  0  0  0  0  0  0  0  0  0
    6.7351  -15.3785   19.2186 N   0  0  0  0  0  0  0  0  0  0  0  0
    8.0586  -15.5148   21.2204 C   0  0  0  0  0  0  0  0  0  0  0  0
    6.9984  -15.8632   21.8012 O   0  0  0  0  0  0  0  0  0  0  0  0
   11.1480  -20.1776   27.9177 O   0  0  0  0  0  0  0  0  0  0  0  0
   10.9742  -19.4882   26.6997 C   0  0  0  0  0  0  0  0  0  0  0  0
   11.9752  -18.6656   26.2459 C   0  0  0  0  0  0  0  0  0  0  0  0
   11.8195  -17.9748   25.0406 C   0  0  0  0  0  0  0  0  0  0  0  0
   10.6700  -18.1074   24.2963 C   0  0  0  0  0  0  0  0  0  0  0  0
   10.4882  -17.3893   23.0269 C   0  0  0  0  0  0  0  0  0  0  0  0
    9.4351  -16.3063   23.1035 C   0  0  2  0  0  0  0  0  0  0  0  0
    9.3289  -15.6151   21.8414 N   0  0  0  0  0  0  0  0  0  0  0  0
    9.7214  -15.3268   24.1797 C   0  0  0  0  0  0  0  0  0  0  0  0
   10.7487  -14.6108   24.1956 O   0  0  0  0  0  0  0  0  0  0  0  0
    9.6848  -18.9351   24.7713 C   0  0  0  0  0  0  0  0  0  0  0  0
    9.8314  -19.6264   25.9698 C   0  0  0  0  0  0  0  0  0  0  0  0
    5.5921  -12.6998   26.4702 C   0  0  0  0  0  0  0  0  0  0  0  0
    6.9495  -13.1056   25.9351 C   0  0  1  0  0  0  0  0  0  0  0  0
    7.7163  -11.8560   25.4678 C   0  0  0  0  0  0  0  0  0  0  0  0
    7.7760  -13.8036   26.9504 C   0  0  0  0  0  0  0  0  0  0  0  0
    9.0707  -14.3266   26.4060 C   0  0  2  0  0  0  0  0  0  0  0  0
    8.7992  -15.1825   25.2469 N   0  0  0  0  0  0  0  0  0  0  0  0
    9.7038  -15.2171   27.4081 C   0  0  0  0  0  0  0  0  0  0  0  0
   10.2440  -14.7647   28.4763 O   0  0  0  0  0  0  0  0  0  0  0  0
    9.7416  -16.5766   27.2436 O   0  0  0  0  0  0  0  0  0  0  0  0
  2  3  1  0
  2  1  1  0
  3  4  1  1
  5  6  2  0
  5  3  1  0
  7  8  1  0
  8 18  2  0
  9 10  2  0
  9  8  1  0
 10 11  1  0
 11 12  1  0
 11 17  2  0
 13 12  1  6
 13 14  1  0
 14  5  1  0
 15 13  1  0
 16 15  2  0
 18 17  1  0
 20 22  1  0
 20 19  1  1
 21 20  1  0
 23 22  1  1
 23 24  1  0
 24 15  1  0
 25 23  1  0
 26 25  2  0
 27 25  1  0
M  END
$$$$
