SYL.pdb
     RDKit          3D

 27 27  0  0  1  0  0  0  0  0999 V2000
    6.8232  -18.6682   26.2541 O   0  0  0  0  0  0  0  0  0  0  0  0
    7.1438  -19.8928   25.6654 C   0  0  0  0  0  0  0  0  0  0  0  0
    6.8594  -19.8722   24.1832 C   0  0  2  0  0  0  0  0  0  0  0  0
    7.2341  -21.1390   23.6130 N   0  0  0  0  0  0  0  0  0  0  0  0
    7.5529  -18.7592   23.5028 C   0  0  0  0  0  0  0  0  0  0  0  0
    8.7533  -18.9171   23.1613 O   0  0  0  0  0  0  0  0  0  0  0  0
    8.9144  -11.8934   18.3522 O   0  0  0  0  0  0  0  0  0  0  0  0
    8.3336  -12.7631   19.2983 C   0  0  0  0  0  0  0  0  0  0  0  0
    8.1078  -14.0731   18.9554 C   0  0  0  0  0  0  0  0  0  0  0  0
    7.5329  -14.9488   19.8811 C   0  0  0  0  0  0  0  0  0  0  0  0
    7.1872  -14.5150   21.1402 C   0  0  0  0  0  0  0  0  0  0  0  0
    6.5819  -15.4207   22.1268 C   0  0  0  0  0  0  0  0  0  0  0  0
    7.5568  -16.4400   22.6729 C   0  0  2  0  0  0  0  0  0  0  0  0
    6.8489  -17.5537   23.2565 N   0  0  0  0  0  0  0  0  0  0  0  0
    8.4695  -15.8517   23.6831 C   0  0  0  0  0  0  0  0  0  0  0  0
    9.7028  -15.7327   23.5017 O   0  0  0  0  0  0  0  0  0  0  0  0
    7.4229  -13.2017   21.4583 C   0  0  0  0  0  0  0  0  0  0  0  0
    7.9946  -12.3234   20.5432 C   0  0  0  0  0  0  0  0  0  0  0  0
    6.0280  -12.2540   26.7774 C   0  0  0  0  0  0  0  0  0  0  0  0
    7.1031  -12.9403   25.9609 C   0  0  1  0  0  0  0  0  0  0  0  0
    8.0226  -11.8838   25.3236 C   0  0  0  0  0  0  0  0  0  0  0  0
    7.9416  -13.8528   26.7766 C   0  0  0  0  0  0  0  0  0  0  0  0
    8.7738  -14.7898   25.9546 C   0  0  2  0  0  0  0  0  0  0  0  0
    7.9365  -15.3985   24.9162 N   0  0  0  0  0  0  0  0  0  0  0  0
    9.2273  -15.9193   26.8012 C   0  0  0  0  0  0  0  0  0  0  0  0
    8.7776  -17.1077   26.6491 O   0  0  0  0  0  0  0  0  0  0  0  0
   10.1570  -15.7498   27.7929 O   0  0  0  0  0  0  0  0  0  0  0  0
  2  3  1  0
  2  1  1  0
  3  4  1  6
  5  6  2  0
  5  3  1  0
  7  8  1  0
  8 18  2  0
  9 10  2  0
  9  8  1  0
 10 11  1  0
 11 12  1  0
 11 17  2  0
 13 12  1  1
 13 14  1  0
 14  5  1  0
 15 13  1  0
 16 15  2  0
 18 17  1  0
 20 22  1  0
 20 19  1  1
 21 20  1  0
 23 22  1  1
 23 24  1  0
 24 15  1  0
 25 23  1  0
 26 25  2  0
 27 25  1  0
M  END
$$$$
