SYL.pdb
     RDKit          3D

 27 27  0  0  1  0  0  0  0  0999 V2000
    8.9358  -14.4331   20.5378 O   0  0  0  0  0  0  0  0  0  0  0  0
    7.7009  -14.7183   19.9524 C   0  0  0  0  0  0  0  0  0  0  0  0
    7.2698  -16.1320   20.2589 C   0  0  2  0  0  0  0  0  0  0  0  0
    6.0260  -16.4022   19.5879 N   0  0  0  0  0  0  0  0  0  0  0  0
    7.1506  -16.3707   21.7120 C   0  0  0  0  0  0  0  0  0  0  0  0
    6.1209  -15.9603   22.3068 O   0  0  0  0  0  0  0  0  0  0  0  0
    8.1186  -19.5896   29.7750 O   0  0  0  0  0  0  0  0  0  0  0  0
    8.2575  -19.3286   28.3960 C   0  0  0  0  0  0  0  0  0  0  0  0
    9.4997  -19.0356   27.8906 C   0  0  0  0  0  0  0  0  0  0  0  0
    9.6553  -18.7744   26.5261 C   0  0  0  0  0  0  0  0  0  0  0  0
    8.5746  -18.8067   25.6752 C   0  0  0  0  0  0  0  0  0  0  0  0
    8.7185  -18.5349   24.2380 C   0  0  0  0  0  0  0  0  0  0  0  0
    8.1049  -17.2174   23.8190 C   0  0  2  0  0  0  0  0  0  0  0  0
    8.1941  -17.0511   22.3885 N   0  0  0  0  0  0  0  0  0  0  0  0
    8.7511  -16.0639   24.4909 C   0  0  0  0  0  0  0  0  0  0  0  0
    9.8821  -15.6328   24.1700 O   0  0  0  0  0  0  0  0  0  0  0  0
    7.3442  -19.1019   26.2047 C   0  0  0  0  0  0  0  0  0  0  0  0
    7.1803  -19.3632   27.5614 C   0  0  0  0  0  0  0  0  0  0  0  0
    5.6134  -11.9661   26.1467 C   0  0  0  0  0  0  0  0  0  0  0  0
    6.7576  -12.8251   25.6502 C   0  0  1  0  0  0  0  0  0  0  0  0
    7.6729  -11.9906   24.7373 C   0  0  0  0  0  0  0  0  0  0  0  0
    7.5807  -13.3716   26.7570 C   0  0  0  0  0  0  0  0  0  0  0  0
    8.6660  -14.2945   26.2915 C   0  0  2  0  0  0  0  0  0  0  0  0
    8.0696  -15.4081   25.5472 N   0  0  0  0  0  0  0  0  0  0  0  0
    9.3215  -14.9178   27.4661 C   0  0  0  0  0  0  0  0  0  0  0  0
   10.2143  -14.3081   28.1509 O   0  0  0  0  0  0  0  0  0  0  0  0
    9.0029  -16.1832   27.8832 O   0  0  0  0  0  0  0  0  0  0  0  0
  2  3  1  0
  2  1  1  0
  3  4  1  6
  5  6  2  0
  5  3  1  0
  7  8  1  0
  8 18  2  0
  9 10  2  0
  9  8  1  0
 10 11  1  0
 11 12  1  0
 11 17  2  0
 13 12  1  6
 13 14  1  0
 14  5  1  0
 15 13  1  0
 16 15  2  0
 18 17  1  0
 20 22  1  0
 20 19  1  1
 21 20  1  0
 23 22  1  1
 23 24  1  0
 24 15  1  0
 25 23  1  0
 26 25  2  0
 27 25  1  0
M  END
$$$$
