SYL.pdb
     RDKit          3D

 27 27  0  0  1  0  0  0  0  0999 V2000
   10.0184  -16.1892   20.5430 O   0  0  0  0  0  0  0  0  0  0  0  0
   11.1019  -17.0271   20.2723 C   0  0  0  0  0  0  0  0  0  0  0  0
   12.1889  -16.8578   21.3057 C   0  0  2  0  0  0  0  0  0  0  0  0
   13.2408  -17.8040   21.0437 N   0  0  0  0  0  0  0  0  0  0  0  0
   11.6718  -17.0081   22.6815 C   0  0  0  0  0  0  0  0  0  0  0  0
   11.5160  -18.1682   23.1425 O   0  0  0  0  0  0  0  0  0  0  0  0
    9.8308  -15.5962   31.0807 O   0  0  0  0  0  0  0  0  0  0  0  0
   10.1382  -15.3889   29.7200 C   0  0  0  0  0  0  0  0  0  0  0  0
   10.7459  -16.3937   29.0090 C   0  0  0  0  0  0  0  0  0  0  0  0
   11.0577  -16.2050   27.6593 C   0  0  0  0  0  0  0  0  0  0  0  0
   10.7626  -15.0188   27.0276 C   0  0  0  0  0  0  0  0  0  0  0  0
   11.0825  -14.8020   25.6097 C   0  0  0  0  0  0  0  0  0  0  0  0
   10.7720  -16.0008   24.7413 C   0  0  2  0  0  0  0  0  0  0  0  0
   11.3685  -15.8473   23.4365 N   0  0  0  0  0  0  0  0  0  0  0  0
    9.3123  -16.2181   24.5939 C   0  0  0  0  0  0  0  0  0  0  0  0
    8.5984  -16.6989   25.5035 O   0  0  0  0  0  0  0  0  0  0  0  0
   10.1553  -14.0307   27.7599 C   0  0  0  0  0  0  0  0  0  0  0  0
    9.8416  -14.2100   29.1034 C   0  0  0  0  0  0  0  0  0  0  0  0
    7.5850  -13.2935   20.4076 C   0  0  0  0  0  0  0  0  0  0  0  0
    7.9638  -14.1286   21.6128 C   0  0  1  0  0  0  0  0  0  0  0  0
    8.4384  -13.2087   22.7514 C   0  0  0  0  0  0  0  0  0  0  0  0
    6.8324  -14.9449   22.1177 C   0  0  0  0  0  0  0  0  0  0  0  0
    7.2241  -15.8926   23.2108 C   0  0  2  0  0  0  0  0  0  0  0  0
    8.6811  -15.8707   23.3728 N   0  0  0  0  0  0  0  0  0  0  0  0
    6.8984  -17.2799   22.8015 C   0  0  0  0  0  0  0  0  0  0  0  0
    5.6939  -17.6701   22.6157 O   0  0  0  0  0  0  0  0  0  0  0  0
    7.8740  -18.2198   22.5976 O   0  0  0  0  0  0  0  0  0  0  0  0
  2  3  1  0
  2  1  1  0
  3  4  1  6
  5  6  2  0
  5  3  1  0
  7  8  1  0
  8 18  2  0
  9 10  2  0
  9  8  1  0
 10 11  1  0
 11 12  1  0
 11 17  2  0
 13 12  1  1
 13 14  1  0
 14  5  1  0
 15 13  1  0
 16 15  2  0
 18 17  1  0
 20 22  1  0
 20 19  1  6
 21 20  1  0
 23 22  1  6
 23 24  1  0
 24 15  1  0
 25 23  1  0
 26 25  2  0
 27 25  1  0
M  END
$$$$
