SYL.pdb
     RDKit          3D

 27 27  0  0  1  0  0  0  0  0999 V2000
    6.2826  -17.6257   22.0667 O   0  0  0  0  0  0  0  0  0  0  0  0
    6.2804  -16.5156   21.2201 C   0  0  0  0  0  0  0  0  0  0  0  0
    7.4057  -16.5969   20.2175 C   0  0  2  0  0  0  0  0  0  0  0  0
    7.3101  -17.8406   19.5003 N   0  0  0  0  0  0  0  0  0  0  0  0
    8.7290  -16.4559   20.8591 C   0  0  0  0  0  0  0  0  0  0  0  0
    9.4345  -17.4856   21.0161 O   0  0  0  0  0  0  0  0  0  0  0  0
   12.1228  -15.7709   15.8518 O   0  0  0  0  0  0  0  0  0  0  0  0
   11.9292  -15.3649   17.1885 C   0  0  0  0  0  0  0  0  0  0  0  0
   12.6209  -16.0006   18.1895 C   0  0  0  0  0  0  0  0  0  0  0  0
   12.4410  -15.6109   19.5199 C   0  0  0  0  0  0  0  0  0  0  0  0
   11.5749  -14.5922   19.8443 C   0  0  0  0  0  0  0  0  0  0  0  0
   11.3726  -14.1686   21.2370 C   0  0  0  0  0  0  0  0  0  0  0  0
   10.4086  -15.0556   21.9929 C   0  0  2  0  0  0  0  0  0  0  0  0
    9.1616  -15.1720   21.2763 N   0  0  0  0  0  0  0  0  0  0  0  0
   10.1451  -14.5511   23.3625 C   0  0  0  0  0  0  0  0  0  0  0  0
   10.2126  -13.3386   23.6681 O   0  0  0  0  0  0  0  0  0  0  0  0
   10.8958  -13.9730   18.8261 C   0  0  0  0  0  0  0  0  0  0  0  0
   11.0688  -14.3545   17.4994 C   0  0  0  0  0  0  0  0  0  0  0  0
    8.5527  -12.6451   27.5920 C   0  0  0  0  0  0  0  0  0  0  0  0
    7.6927  -13.7208   26.9622 C   0  0  1  0  0  0  0  0  0  0  0  0
    6.2597  -13.1931   26.7729 C   0  0  0  0  0  0  0  0  0  0  0  0
    8.2045  -14.1565   25.6395 C   0  0  0  0  0  0  0  0  0  0  0  0
    9.4131  -15.0381   25.7304 C   0  0  2  0  0  0  0  0  0  0  0  0
    9.7998  -15.4715   24.3842 N   0  0  0  0  0  0  0  0  0  0  0  0
    9.0625  -16.2832   26.4548 C   0  0  0  0  0  0  0  0  0  0  0  0
    9.2781  -16.4255   27.7082 O   0  0  0  0  0  0  0  0  0  0  0  0
    8.4849  -17.3501   25.8184 O   0  0  0  0  0  0  0  0  0  0  0  0
  2  3  1  0
  2  1  1  0
  3  4  1  1
  5  6  2  0
  5  3  1  0
  7  8  1  0
  8 18  2  0
  9 10  2  0
  9  8  1  0
 10 11  1  0
 11 12  1  0
 11 17  2  0
 13 12  1  6
 13 14  1  0
 14  5  1  0
 15 13  1  0
 16 15  2  0
 18 17  1  0
 20 22  1  0
 20 19  1  6
 21 20  1  0
 23 22  1  6
 23 24  1  0
 24 15  1  0
 25 23  1  0
 26 25  2  0
 27 25  1  0
M  END
$$$$
