SYL.pdb
     RDKit          3D

 27 27  0  0  1  0  0  0  0  0999 V2000
    9.6697  -16.1838   17.6729 O   0  0  0  0  0  0  0  0  0  0  0  0
    9.2821  -16.1729   19.0141 C   0  0  0  0  0  0  0  0  0  0  0  0
    8.7839  -17.5310   19.4450 C   0  0  2  0  0  0  0  0  0  0  0  0
    7.6185  -17.8728   18.6735 N   0  0  0  0  0  0  0  0  0  0  0  0
    8.4938  -17.5796   20.8927 C   0  0  0  0  0  0  0  0  0  0  0  0
    7.3008  -17.4542   21.2720 O   0  0  0  0  0  0  0  0  0  0  0  0
    9.4523  -19.1634   29.4942 O   0  0  0  0  0  0  0  0  0  0  0  0
    9.6348  -19.0900   28.0977 C   0  0  0  0  0  0  0  0  0  0  0  0
    8.7187  -19.6888   27.2691 C   0  0  0  0  0  0  0  0  0  0  0  0
    8.8843  -19.6256   25.8824 C   0  0  0  0  0  0  0  0  0  0  0  0
    9.9594  -18.9676   25.3309 C   0  0  0  0  0  0  0  0  0  0  0  0
   10.1504  -18.8906   23.8757 C   0  0  0  0  0  0  0  0  0  0  0  0
    9.2662  -17.8563   23.2152 C   0  0  2  0  0  0  0  0  0  0  0  0
    9.5620  -17.7648   21.8060 N   0  0  0  0  0  0  0  0  0  0  0  0
    9.4140  -16.5184   23.8381 C   0  0  0  0  0  0  0  0  0  0  0  0
   10.4325  -15.8052   23.6899 O   0  0  0  0  0  0  0  0  0  0  0  0
   10.8606  -18.3776   26.1801 C   0  0  0  0  0  0  0  0  0  0  0  0
   10.7034  -18.4356   27.5613 C   0  0  0  0  0  0  0  0  0  0  0  0
    7.7364  -11.8224   25.8675 C   0  0  0  0  0  0  0  0  0  0  0  0
    7.1266  -13.0222   26.5618 C   0  0  1  0  0  0  0  0  0  0  0  0
    5.6768  -12.7039   26.9676 C   0  0  0  0  0  0  0  0  0  0  0  0
    7.1122  -14.2309   25.7015 C   0  0  0  0  0  0  0  0  0  0  0  0
    8.4815  -14.7486   25.3802 C   0  0  2  0  0  0  0  0  0  0  0  0
    8.3623  -16.0094   24.6413 N   0  0  0  0  0  0  0  0  0  0  0  0
    9.1844  -15.0990   26.6377 C   0  0  0  0  0  0  0  0  0  0  0  0
    8.8958  -16.1494   27.3092 O   0  0  0  0  0  0  0  0  0  0  0  0
   10.1854  -14.3148   27.1473 O   0  0  0  0  0  0  0  0  0  0  0  0
  2  3  1  0
  2  1  1  0
  3  4  1  6
  5  6  2  0
  5  3  1  0
  7  8  1  0
  8 18  2  0
  9 10  2  0
  9  8  1  0
 10 11  1  0
 11 12  1  0
 11 17  2  0
 13 12  1  1
 13 14  1  0
 14  5  1  0
 15 13  1  0
 16 15  2  0
 18 17  1  0
 20 22  1  0
 20 19  1  6
 21 20  1  0
 23 22  1  1
 23 24  1  0
 24 15  1  0
 25 23  1  0
 26 25  2  0
 27 25  1  0
M  END
$$$$
