QGP.pdb
     RDKit          3D

 21 21  0  0  1  0  0  0  0  0999 V2000
    5.5772  -20.4553   18.8879 N   0  0  0  0  0  0  0  0  0  0  0  0
    6.2652  -19.2205   18.7657 C   0  0  0  0  0  0  0  0  0  0  0  0
    5.8413  -18.4285   17.8987 O   0  0  0  0  0  0  0  0  0  0  0  0
    7.4050  -18.9394   19.6345 C   0  0  0  0  0  0  0  0  0  0  0  0
    7.9766  -17.5719   19.5555 C   0  0  0  0  0  0  0  0  0  0  0  0
    8.8284  -17.1786   20.7221 C   0  0  2  0  0  0  0  0  0  0  0  0
    9.1565  -18.3204   21.5698 N   0  0  0  0  0  0  0  0  0  0  0  0
    8.2104  -16.1528   21.5720 C   0  0  0  0  0  0  0  0  0  0  0  0
    8.1066  -14.9587   21.1930 O   0  0  0  0  0  0  0  0  0  0  0  0
    7.6873  -16.4300   22.8763 N   0  0  0  0  0  0  0  0  0  0  0  0
    7.0331  -15.4119   23.6523 C   0  0  0  0  0  0  0  0  0  0  0  0
    7.9743  -14.6210   24.4677 C   0  0  0  0  0  0  0  0  0  0  0  0
    9.2066  -14.6834   24.2775 O   0  0  0  0  0  0  0  0  0  0  0  0
    7.4695  -13.7769   25.4833 N   0  0  0  0  0  0  0  0  0  0  0  0
    6.0656  -13.5172   25.7905 C   0  0  0  0  0  0  0  0  0  0  0  0
    6.0301  -12.2853   26.6307 C   0  0  0  0  0  0  0  0  0  0  0  0
    7.4397  -11.7467   26.5548 C   0  0  0  0  0  0  0  0  0  0  0  0
    8.2533  -13.0108   26.4104 C   0  0  1  0  0  0  0  0  0  0  0  0
    8.3944  -13.7624   27.6529 C   0  0  0  0  0  0  0  0  0  0  0  0
    9.1669  -13.4166   28.5799 O   0  0  0  0  0  0  0  0  0  0  0  0
    7.6496  -14.9164   27.8400 O   0  0  0  0  0  0  0  0  0  0  0  0
  1  2  1  0
  2  3  2  0
  2  4  1  0
  5  4  1  0
  6  5  1  0
  6  7  1  1
  8  6  1  0
  8 10  1  0
  9  8  2  0
 11 10  1  0
 11 12  1  0
 12 14  1  0
 13 12  2  0
 14 15  1  0
 14 18  1  0
 15 16  1  0
 16 17  1  0
 18 17  1  0
 18 19  1  1
 19 21  1  0
 20 19  2  0
M  END
$$$$
