QGP.pdb
     RDKit          3D

 21 21  0  0  1  0  0  0  0  0999 V2000
   10.6019  -16.2282   27.5070 N   0  0  0  0  0  0  0  0  0  0  0  0
   10.2045  -17.1360   26.4917 C   0  0  0  0  0  0  0  0  0  0  0  0
   10.8483  -18.2027   26.4130 O   0  0  0  0  0  0  0  0  0  0  0  0
    9.0920  -16.7922   25.6101 C   0  0  0  0  0  0  0  0  0  0  0  0
    7.7969  -17.4628   25.8855 C   0  0  0  0  0  0  0  0  0  0  0  0
    7.0357  -17.8839   24.6671 C   0  0  2  0  0  0  0  0  0  0  0  0
    7.7857  -18.8373   23.8556 N   0  0  0  0  0  0  0  0  0  0  0  0
    6.6578  -16.7592   23.8017 C   0  0  0  0  0  0  0  0  0  0  0  0
    6.2552  -15.6679   24.2785 O   0  0  0  0  0  0  0  0  0  0  0  0
    6.7179  -16.8189   22.3719 N   0  0  0  0  0  0  0  0  0  0  0  0
    6.6410  -15.6287   21.5692 C   0  0  0  0  0  0  0  0  0  0  0  0
    7.7429  -15.5246   20.5937 C   0  0  0  0  0  0  0  0  0  0  0  0
    8.1692  -16.5299   19.9884 O   0  0  0  0  0  0  0  0  0  0  0  0
    8.3259  -14.2617   20.3408 N   0  0  0  0  0  0  0  0  0  0  0  0
    7.9752  -12.9918   20.9711 C   0  0  0  0  0  0  0  0  0  0  0  0
    8.5454  -11.9137   20.1123 C   0  0  0  0  0  0  0  0  0  0  0  0
    8.9967  -12.6364   18.8645 C   0  0  0  0  0  0  0  0  0  0  0  0
    9.3823  -13.9921   19.4069 C   0  0  1  0  0  0  0  0  0  0  0  0
   10.6588  -13.9994   20.1135 C   0  0  0  0  0  0  0  0  0  0  0  0
   10.7514  -13.9293   21.3635 O   0  0  0  0  0  0  0  0  0  0  0  0
   11.8380  -14.0874   19.3903 O   0  0  0  0  0  0  0  0  0  0  0  0
  1  2  1  0
  2  3  2  0
  2  4  1  0
  5  4  1  0
  6  5  1  0
  6  7  1  6
  8  6  1  0
  8 10  1  0
  9  8  2  0
 11 10  1  0
 11 12  1  0
 12 14  1  0
 13 12  2  0
 14 15  1  0
 14 18  1  0
 15 16  1  0
 16 17  1  0
 18 17  1  0
 18 19  1  1
 19 21  1  0
 20 19  2  0
M  END
$$$$
