QGP.pdb
     RDKit          3D

 21 21  0  0  1  0  0  0  0  0999 V2000
    8.7219  -19.7524   27.7010 N   0  0  0  0  0  0  0  0  0  0  0  0
    8.5177  -18.4701   28.2728 C   0  0  0  0  0  0  0  0  0  0  0  0
    9.0702  -18.2540   29.3713 O   0  0  0  0  0  0  0  0  0  0  0  0
    7.6947  -17.4887   27.5709 C   0  0  0  0  0  0  0  0  0  0  0  0
    6.9620  -17.9732   26.3745 C   0  0  0  0  0  0  0  0  0  0  0  0
    7.7428  -17.9265   25.0980 C   0  0  2  0  0  0  0  0  0  0  0  0
    9.1764  -17.7955   25.3378 N   0  0  0  0  0  0  0  0  0  0  0  0
    7.3357  -16.8311   24.2087 C   0  0  0  0  0  0  0  0  0  0  0  0
    6.2128  -16.8246   23.6436 O   0  0  0  0  0  0  0  0  0  0  0  0
    8.1732  -15.7050   23.9219 N   0  0  0  0  0  0  0  0  0  0  0  0
    7.7638  -14.6842   22.9962 C   0  0  0  0  0  0  0  0  0  0  0  0
    8.1119  -15.0060   21.5992 C   0  0  0  0  0  0  0  0  0  0  0  0
    8.0183  -16.1711   21.1604 O   0  0  0  0  0  0  0  0  0  0  0  0
    8.5596  -13.9744   20.7425 N   0  0  0  0  0  0  0  0  0  0  0  0
    8.6657  -12.5533   21.0620 C   0  0  0  0  0  0  0  0  0  0  0  0
    8.7782  -11.8279   19.7635 C   0  0  0  0  0  0  0  0  0  0  0  0
    8.4743  -12.8822   18.7248 C   0  0  0  0  0  0  0  0  0  0  0  0
    8.9975  -14.1358   19.3849 C   0  0  1  0  0  0  0  0  0  0  0  0
   10.4521  -14.2473   19.3616 C   0  0  0  0  0  0  0  0  0  0  0  0
   11.1804  -13.9252   20.3320 O   0  0  0  0  0  0  0  0  0  0  0  0
   11.0808  -14.7293   18.2242 O   0  0  0  0  0  0  0  0  0  0  0  0
  1  2  1  0
  2  3  2  0
  2  4  1  0
  5  4  1  0
  6  5  1  0
  6  7  1  1
  8  6  1  0
  8 10  1  0
  9  8  2  0
 11 10  1  0
 11 12  1  0
 12 14  1  0
 13 12  2  0
 14 15  1  0
 14 18  1  0
 15 16  1  0
 16 17  1  0
 18 17  1  0
 18 19  1  1
 19 21  1  0
 20 19  2  0
M  END
$$$$
