QGP.pdb
     RDKit          3D

 21 21  0  0  1  0  0  0  0  0999 V2000
    7.6917  -16.3747   16.2330 N   0  0  0  0  0  0  0  0  0  0  0  0
    9.0361  -16.0447   16.5438 C   0  0  0  0  0  0  0  0  0  0  0  0
    9.9217  -16.7202   15.9799 O   0  0  0  0  0  0  0  0  0  0  0  0
    9.3157  -14.9607   17.4819 C   0  0  0  0  0  0  0  0  0  0  0  0
    8.6472  -15.0405   18.8046 C   0  0  0  0  0  0  0  0  0  0  0  0
    7.8822  -13.8149   19.1969 C   0  0  2  0  0  0  0  0  0  0  0  0
    8.7224  -12.6216   19.1958 N   0  0  0  0  0  0  0  0  0  0  0  0
    7.2564  -13.9208   20.5212 C   0  0  0  0  0  0  0  0  0  0  0  0
    6.0269  -13.7173   20.6866 O   0  0  0  0  0  0  0  0  0  0  0  0
    7.9870  -14.2583   21.7060 N   0  0  0  0  0  0  0  0  0  0  0  0
    7.3209  -14.4633   22.9633 C   0  0  0  0  0  0  0  0  0  0  0  0
    8.1410  -14.0526   24.1187 C   0  0  0  0  0  0  0  0  0  0  0  0
    9.3883  -14.0727   24.0674 O   0  0  0  0  0  0  0  0  0  0  0  0
    7.5008  -13.6285   25.3058 N   0  0  0  0  0  0  0  0  0  0  0  0
    6.0650  -13.4671   25.5182 C   0  0  0  0  0  0  0  0  0  0  0  0
    5.9029  -12.6288   26.7413 C   0  0  0  0  0  0  0  0  0  0  0  0
    7.2993  -12.1328   27.0358 C   0  0  0  0  0  0  0  0  0  0  0  0
    8.1520  -13.2742   26.5351 C   0  0  1  0  0  0  0  0  0  0  0  0
    8.1612  -14.4323   27.4224 C   0  0  0  0  0  0  0  0  0  0  0  0
    7.3975  -15.4173   27.2728 O   0  0  0  0  0  0  0  0  0  0  0  0
    9.0472  -14.4680   28.4878 O   0  0  0  0  0  0  0  0  0  0  0  0
  1  2  1  0
  2  3  2  0
  2  4  1  0
  5  4  1  0
  6  5  1  0
  6  7  1  1
  8  6  1  0
  8 10  1  0
  9  8  2  0
 11 10  1  0
 11 12  1  0
 12 14  1  0
 13 12  2  0
 14 15  1  0
 14 18  1  0
 15 16  1  0
 16 17  1  0
 18 17  1  0
 18 19  1  1
 19 21  1  0
 20 19  2  0
M  END
$$$$
