QGP.pdb
     RDKit          3D

 21 21  0  0  1  0  0  0  0  0999 V2000
   10.8088  -18.2098   17.8574 N   0  0  0  0  0  0  0  0  0  0  0  0
    9.5966  -18.8686   18.1882 C   0  0  0  0  0  0  0  0  0  0  0  0
    9.0560  -19.5327   17.2798 O   0  0  0  0  0  0  0  0  0  0  0  0
    9.0515  -18.7442   19.5375 C   0  0  0  0  0  0  0  0  0  0  0  0
    9.7589  -17.8160   20.4546 C   0  0  0  0  0  0  0  0  0  0  0  0
    9.1832  -17.7358   21.8343 C   0  0  2  0  0  0  0  0  0  0  0  0
    7.9565  -18.5161   21.9616 N   0  0  0  0  0  0  0  0  0  0  0  0
    8.8863  -16.3621   22.2600 C   0  0  0  0  0  0  0  0  0  0  0  0
    9.7737  -15.4719   22.2775 O   0  0  0  0  0  0  0  0  0  0  0  0
    7.5844  -15.9386   22.6809 N   0  0  0  0  0  0  0  0  0  0  0  0
    7.3357  -14.5852   23.0972 C   0  0  0  0  0  0  0  0  0  0  0  0
    8.0849  -14.2138   24.3125 C   0  0  0  0  0  0  0  0  0  0  0  0
    9.3031  -14.4635   24.4240 O   0  0  0  0  0  0  0  0  0  0  0  0
    7.4092  -13.5629   25.3701 N   0  0  0  0  0  0  0  0  0  0  0  0
    5.9652  -13.4070   25.5238 C   0  0  0  0  0  0  0  0  0  0  0  0
    5.7542  -12.3283   26.5322 C   0  0  0  0  0  0  0  0  0  0  0  0
    7.1292  -11.7338   26.7291 C   0  0  0  0  0  0  0  0  0  0  0  0
    8.0252  -12.9279   26.5006 C   0  0  1  0  0  0  0  0  0  0  0  0
    8.0512  -13.8640   27.6194 C   0  0  0  0  0  0  0  0  0  0  0  0
    8.6583  -13.6325   28.6935 O   0  0  0  0  0  0  0  0  0  0  0  0
    7.3806  -15.0724   27.5131 O   0  0  0  0  0  0  0  0  0  0  0  0
  1  2  1  0
  2  3  2  0
  2  4  1  0
  5  4  1  0
  6  5  1  0
  6  7  1  6
  8  6  1  0
  8 10  1  0
  9  8  2  0
 11 10  1  0
 11 12  1  0
 12 14  1  0
 13 12  2  0
 14 15  1  0
 14 18  1  0
 15 16  1  0
 16 17  1  0
 18 17  1  0
 18 19  1  1
 19 21  1  0
 20 19  2  0
M  END
$$$$
