QGP.pdb
     RDKit          3D

 21 21  0  0  1  0  0  0  0  0999 V2000
    7.0751  -22.2538   22.9918 N   0  0  0  0  0  0  0  0  0  0  0  0
    6.2109  -21.2418   22.5000 C   0  0  0  0  0  0  0  0  0  0  0  0
    6.0422  -21.2036   21.2636 O   0  0  0  0  0  0  0  0  0  0  0  0
    5.5754  -20.3171   23.4351 C   0  0  0  0  0  0  0  0  0  0  0  0
    5.8582  -18.8739   23.2347 C   0  0  0  0  0  0  0  0  0  0  0  0
    6.9145  -18.3100   24.1333 C   0  0  2  0  0  0  0  0  0  0  0  0
    6.3518  -17.7654   25.3648 N   0  0  0  0  0  0  0  0  0  0  0  0
    7.7116  -17.2522   23.4990 C   0  0  0  0  0  0  0  0  0  0  0  0
    8.4679  -17.4927   22.5241 O   0  0  0  0  0  0  0  0  0  0  0  0
    7.6886  -15.8882   23.9356 N   0  0  0  0  0  0  0  0  0  0  0  0
    8.5223  -14.8914   23.3210 C   0  0  0  0  0  0  0  0  0  0  0  0
    8.3734  -13.5605   23.9397 C   0  0  0  0  0  0  0  0  0  0  0  0
    8.8589  -12.5408   23.4076 O   0  0  0  0  0  0  0  0  0  0  0  0
    7.6671  -13.4392   25.1585 N   0  0  0  0  0  0  0  0  0  0  0  0
    6.2326  -13.6220   25.3626 C   0  0  0  0  0  0  0  0  0  0  0  0
    5.9029  -13.0005   26.6780 C   0  0  0  0  0  0  0  0  0  0  0  0
    7.1603  -12.2541   27.0584 C   0  0  0  0  0  0  0  0  0  0  0  0
    8.2367  -13.1102   26.4344 C   0  0  1  0  0  0  0  0  0  0  0  0
    8.5063  -14.3413   27.1696 C   0  0  0  0  0  0  0  0  0  0  0  0
    8.0126  -15.4513   26.8534 O   0  0  0  0  0  0  0  0  0  0  0  0
    9.3444  -14.3068   28.2731 O   0  0  0  0  0  0  0  0  0  0  0  0
  1  2  1  0
  2  3  2  0
  2  4  1  0
  5  4  1  0
  6  5  1  0
  6  7  1  1
  8  6  1  0
  8 10  1  0
  9  8  2  0
 11 10  1  0
 11 12  1  0
 12 14  1  0
 13 12  2  0
 14 15  1  0
 14 18  1  0
 15 16  1  0
 16 17  1  0
 18 17  1  0
 18 19  1  1
 19 21  1  0
 20 19  2  0
M  END
$$$$
