QGP.pdb
     RDKit          3D

 21 21  0  0  1  0  0  0  0  0999 V2000
    7.2258  -19.2916   22.6263 N   0  0  0  0  0  0  0  0  0  0  0  0
    6.9915  -18.9742   23.9891 C   0  0  0  0  0  0  0  0  0  0  0  0
    5.7986  -18.8578   24.3383 O   0  0  0  0  0  0  0  0  0  0  0  0
    8.1235  -18.8033   24.8961 C   0  0  0  0  0  0  0  0  0  0  0  0
    9.4760  -18.9418   24.3008 C   0  0  0  0  0  0  0  0  0  0  0  0
   10.4161  -17.8182   24.6091 C   0  0  2  0  0  0  0  0  0  0  0  0
   10.1435  -17.2181   25.9112 N   0  0  0  0  0  0  0  0  0  0  0  0
   10.3866  -16.7455   23.6066 C   0  0  0  0  0  0  0  0  0  0  0  0
   10.7513  -16.9430   22.4199 O   0  0  0  0  0  0  0  0  0  0  0  0
    9.9472  -15.4141   23.8996 N   0  0  0  0  0  0  0  0  0  0  0  0
    9.7507  -14.4441   22.8569 C   0  0  0  0  0  0  0  0  0  0  0  0
    8.9809  -14.9777   21.7171 C   0  0  0  0  0  0  0  0  0  0  0  0
    8.5168  -16.1366   21.7348 O   0  0  0  0  0  0  0  0  0  0  0  0
    8.7656  -14.1599   20.5842 N   0  0  0  0  0  0  0  0  0  0  0  0
    9.2825  -12.8117   20.3648 C   0  0  0  0  0  0  0  0  0  0  0  0
    8.4745  -12.2157   19.2617 C   0  0  0  0  0  0  0  0  0  0  0  0
    7.3398  -13.1940   19.0659 C   0  0  0  0  0  0  0  0  0  0  0  0
    7.9901  -14.5082   19.4274 C   0  0  1  0  0  0  0  0  0  0  0  0
    8.8798  -15.0262   18.3935 C   0  0  0  0  0  0  0  0  0  0  0  0
   10.1239  -14.8599   18.4127 O   0  0  0  0  0  0  0  0  0  0  0  0
    8.3476  -15.7385   17.3302 O   0  0  0  0  0  0  0  0  0  0  0  0
  1  2  1  0
  2  3  2  0
  2  4  1  0
  5  4  1  0
  6  5  1  0
  6  7  1  1
  8  6  1  0
  8 10  1  0
  9  8  2  0
 11 10  1  0
 11 12  1  0
 12 14  1  0
 13 12  2  0
 14 15  1  0
 14 18  1  0
 15 16  1  0
 16 17  1  0
 18 17  1  0
 18 19  1  6
 19 21  1  0
 20 19  2  0
M  END
$$$$
