QGP.pdb
     RDKit          3D

 21 21  0  0  1  0  0  0  0  0999 V2000
    9.6427  -14.2024   16.2331 N   0  0  0  0  0  0  0  0  0  0  0  0
    8.2333  -14.1430   16.3846 C   0  0  0  0  0  0  0  0  0  0  0  0
    7.5511  -14.4139   15.3746 O   0  0  0  0  0  0  0  0  0  0  0  0
    7.6602  -13.7787   17.6776 C   0  0  0  0  0  0  0  0  0  0  0  0
    8.6215  -13.5083   18.7756 C   0  0  0  0  0  0  0  0  0  0  0  0
    8.8185  -14.6431   19.7320 C   0  0  2  0  0  0  0  0  0  0  0  0
    8.6977  -15.9403   19.0742 N   0  0  0  0  0  0  0  0  0  0  0  0
    7.8765  -14.6227   20.8584 C   0  0  0  0  0  0  0  0  0  0  0  0
    7.1475  -15.6115   21.1250 O   0  0  0  0  0  0  0  0  0  0  0  0
    7.7191  -13.4932   21.7249 N   0  0  0  0  0  0  0  0  0  0  0  0
    6.9501  -13.5806   22.9364 C   0  0  0  0  0  0  0  0  0  0  0  0
    7.7931  -13.6685   24.1438 C   0  0  0  0  0  0  0  0  0  0  0  0
    8.9729  -14.0721   24.0821 O   0  0  0  0  0  0  0  0  0  0  0  0
    7.2531  -13.2881   25.3939 N   0  0  0  0  0  0  0  0  0  0  0  0
    5.8628  -12.9449   25.6807 C   0  0  0  0  0  0  0  0  0  0  0  0
    5.8578  -12.2303   26.9900 C   0  0  0  0  0  0  0  0  0  0  0  0
    7.3193  -11.9765   27.2770 C   0  0  0  0  0  0  0  0  0  0  0  0
    7.9805  -13.1679   26.6256 C   0  0  1  0  0  0  0  0  0  0  0  0
    7.8404  -14.4049   27.3865 C   0  0  0  0  0  0  0  0  0  0  0  0
    6.9109  -15.2265   27.1950 O   0  0  0  0  0  0  0  0  0  0  0  0
    8.7664  -14.7073   28.3726 O   0  0  0  0  0  0  0  0  0  0  0  0
  1  2  1  0
  2  3  2  0
  2  4  1  0
  5  4  1  0
  6  5  1  0
  6  7  1  6
  8  6  1  0
  8 10  1  0
  9  8  2  0
 11 10  1  0
 11 12  1  0
 12 14  1  0
 13 12  2  0
 14 15  1  0
 14 18  1  0
 15 16  1  0
 16 17  1  0
 18 17  1  0
 18 19  1  1
 19 21  1  0
 20 19  2  0
M  END
$$$$
