QGP.pdb
     RDKit          3D

 21 21  0  0  1  0  0  0  0  0999 V2000
   15.0005  -21.7688   20.2260 N   0  0  0  0  0  0  0  0  0  0  0  0
   13.8593  -21.7608   19.3831 C   0  0  0  0  0  0  0  0  0  0  0  0
   13.6629  -22.7866   18.6992 O   0  0  0  0  0  0  0  0  0  0  0  0
   12.9903  -20.5872   19.3545 C   0  0  0  0  0  0  0  0  0  0  0  0
   13.4486  -19.4049   20.1259 C   0  0  0  0  0  0  0  0  0  0  0  0
   12.4711  -18.8996   21.1410 C   0  0  2  0  0  0  0  0  0  0  0  0
   11.5223  -19.9312   21.5479 N   0  0  0  0  0  0  0  0  0  0  0  0
   11.6996  -17.7397   20.6764 C   0  0  0  0  0  0  0  0  0  0  0  0
   12.2595  -16.6574   20.3677 O   0  0  0  0  0  0  0  0  0  0  0  0
   10.2737  -17.7528   20.5418 N   0  0  0  0  0  0  0  0  0  0  0  0
    9.5535  -16.5925   20.0924 C   0  0  0  0  0  0  0  0  0  0  0  0
    9.4652  -15.5399   21.1222 C   0  0  0  0  0  0  0  0  0  0  0  0
   10.3239  -15.4415   22.0232 O   0  0  0  0  0  0  0  0  0  0  0  0
    8.3871  -14.6260   21.0867 N   0  0  0  0  0  0  0  0  0  0  0  0
    7.3094  -14.5790   20.1023 C   0  0  0  0  0  0  0  0  0  0  0  0
    6.6697  -13.2374   20.2288 C   0  0  0  0  0  0  0  0  0  0  0  0
    7.6002  -12.4698   21.1387 C   0  0  0  0  0  0  0  0  0  0  0  0
    8.1507  -13.5635   22.0227 C   0  0  1  0  0  0  0  0  0  0  0  0
    7.2117  -14.0230   23.0406 C   0  0  0  0  0  0  0  0  0  0  0  0
    6.9667  -13.3778   24.0891 O   0  0  0  0  0  0  0  0  0  0  0  0
    6.5474  -15.2263   22.8618 O   0  0  0  0  0  0  0  0  0  0  0  0
  1  2  1  0
  2  3  2  0
  2  4  1  0
  5  4  1  0
  6  5  1  0
  6  7  1  6
  8  6  1  0
  8 10  1  0
  9  8  2  0
 11 10  1  0
 11 12  1  0
 12 14  1  0
 13 12  2  0
 14 15  1  0
 14 18  1  0
 15 16  1  0
 16 17  1  0
 18 17  1  0
 18 19  1  1
 19 21  1  0
 20 19  2  0
M  END
$$$$
