QGP.pdb
     RDKit          3D

 21 21  0  0  1  0  0  0  0  0999 V2000
    9.9799  -14.2704   17.2357 N   0  0  0  0  0  0  0  0  0  0  0  0
    8.6594  -14.5029   16.7721 C   0  0  0  0  0  0  0  0  0  0  0  0
    8.5351  -15.2916   15.8123 O   0  0  0  0  0  0  0  0  0  0  0  0
    7.5370  -13.8291   17.4199 C   0  0  0  0  0  0  0  0  0  0  0  0
    7.7840  -13.2901   18.7805 C   0  0  0  0  0  0  0  0  0  0  0  0
    8.2077  -14.3088   19.7925 C   0  0  2  0  0  0  0  0  0  0  0  0
    7.6942  -15.6383   19.4787 N   0  0  0  0  0  0  0  0  0  0  0  0
    7.7873  -13.9776   21.1600 C   0  0  0  0  0  0  0  0  0  0  0  0
    8.1312  -12.9020   21.7123 O   0  0  0  0  0  0  0  0  0  0  0  0
    6.9667  -14.8407   21.9559 N   0  0  0  0  0  0  0  0  0  0  0  0
    6.4828  -14.4327   23.2466 C   0  0  0  0  0  0  0  0  0  0  0  0
    7.5699  -14.1787   24.2109 C   0  0  0  0  0  0  0  0  0  0  0  0
    8.7553  -14.4620   23.9401 O   0  0  0  0  0  0  0  0  0  0  0  0
    7.2619  -13.6035   25.4651 N   0  0  0  0  0  0  0  0  0  0  0  0
    5.9394  -13.2241   25.9549 C   0  0  0  0  0  0  0  0  0  0  0  0
    6.1558  -12.3072   27.1113 C   0  0  0  0  0  0  0  0  0  0  0  0
    7.6355  -12.0043   27.0696 C   0  0  0  0  0  0  0  0  0  0  0  0
    8.2035  -13.2826   26.5001 C   0  0  1  0  0  0  0  0  0  0  0  0
    8.2525  -14.3808   27.4594 C   0  0  0  0  0  0  0  0  0  0  0  0
    7.3550  -15.2539   27.5490 O   0  0  0  0  0  0  0  0  0  0  0  0
    9.3320  -14.4845   28.3226 O   0  0  0  0  0  0  0  0  0  0  0  0
  1  2  1  0
  2  3  2  0
  2  4  1  0
  5  4  1  0
  6  5  1  0
  6  7  1  6
  8  6  1  0
  8 10  1  0
  9  8  2  0
 11 10  1  0
 11 12  1  0
 12 14  1  0
 13 12  2  0
 14 15  1  0
 14 18  1  0
 15 16  1  0
 16 17  1  0
 18 17  1  0
 18 19  1  1
 19 21  1  0
 20 19  2  0
M  END
$$$$
