WLH.pdb
     RDKit          3D

 33 35  0  0  1  0  0  0  0  0999 V2000
    6.6547  -16.8580   24.8829 N   0  0  0  0  0  0  0  0  0  0  0  0
    7.4885  -15.9013   24.2764 C   0  0  1  0  0  0  0  0  0  0  0  0
    8.6615  -15.4159   25.0539 C   0  0  0  0  0  0  0  0  0  0  0  0
    8.3379  -14.7287   26.3028 C   0  0  0  0  0  0  0  0  0  0  0  0
    8.4693  -15.1288   27.6073 C   0  0  0  0  0  0  0  0  0  0  0  0
    7.9604  -14.2056   28.4320 N   0  0  0  0  0  0  0  0  0  0  0  0
    7.4995  -13.2135   27.6867 C   0  0  0  0  0  0  0  0  0  0  0  0
    6.8986  -11.9946   27.9916 C   0  0  0  0  0  0  0  0  0  0  0  0
    6.5179  -11.0843   27.0360 C   0  0  0  0  0  0  0  0  0  0  0  0
    6.7317  -11.3716   25.6932 C   0  0  0  0  0  0  0  0  0  0  0  0
    7.3218  -12.5711   25.4119 C   0  0  0  0  0  0  0  0  0  0  0  0
    7.7143  -13.5011   26.3503 C   0  0  0  0  0  0  0  0  0  0  0  0
    7.8891  -16.3051   22.8930 C   0  0  0  0  0  0  0  0  0  0  0  0
    7.8224  -17.4868   22.5051 O   0  0  0  0  0  0  0  0  0  0  0  0
    6.4998  -13.8197   19.9592 C   0  0  0  0  0  0  0  0  0  0  0  0
    7.8745  -13.2587   20.3793 C   0  0  2  0  0  0  0  0  0  0  0  0
    8.0037  -11.8894   19.7660 C   0  0  0  0  0  0  0  0  0  0  0  0
    8.8840  -14.2505   19.9379 C   0  0  0  0  0  0  0  0  0  0  0  0
    8.9206  -15.5441   20.6868 C   0  0  2  0  0  0  0  0  0  0  0  0
    8.3630  -15.3157   21.9814 N   0  0  0  0  0  0  0  0  0  0  0  0
   10.2445  -16.1578   20.6372 C   0  0  0  0  0  0  0  0  0  0  0  0
   10.5973  -16.5700   19.4797 O   0  0  0  0  0  0  0  0  0  0  0  0
   11.1150  -16.3243   21.7075 N   0  0  0  0  0  0  0  0  0  0  0  0
   12.3766  -17.0748   21.5684 C   0  0  1  0  0  0  0  0  0  0  0  0
   13.5275  -16.0869   21.6116 C   0  0  0  0  0  0  0  0  0  0  0  0
   13.8138  -15.5318   20.2828 C   0  0  0  0  0  0  0  0  0  0  0  0
   13.1120  -15.8951   19.1216 C   0  0  0  0  0  0  0  0  0  0  0  0
   13.6126  -15.2092   18.0878 N   0  0  0  0  0  0  0  0  0  0  0  0
   14.6113  -14.4178   18.5422 C   0  0  0  0  0  0  0  0  0  0  0  0
   14.7118  -14.6285   19.8574 N   0  0  0  0  0  0  0  0  0  0  0  0
   12.4847  -17.9181   22.8038 C   0  0  0  0  0  0  0  0  0  0  0  0
   11.5543  -17.8922   23.6795 O   0  0  0  0  0  0  0  0  0  0  0  0
   13.5293  -18.7502   23.0997 O   0  0  0  0  0  0  0  0  0  0  0  0
  2  1  1  1
  3  2  1  0
  4  3  1  0
  4  5  2  0
  6  5  1  0
  7  6  1  0
  8  7  2  0
  9  8  1  0
 10  9  2  0
 10 11  1  0
 11 12  2  0
 12  7  1  0
 12  4  1  0
 13  2  1  0
 13 14  2  0
 16 15  1  6
 16 17  1  0
 19 18  1  1
 18 16  1  0
 19 20  1  0
 20 13  1  0
 21 19  1  0
 22 21  2  0
 23 21  1  0
 24 25  1  1
 24 23  1  0
 25 26  1  0
 26 27  2  0
 27 28  1  0
 29 28  1  0
 30 26  1  0
 30 29  2  0
 31 24  1  0
 32 31  2  0
 33 31  1  0
M  END
$$$$
