WLH.pdb
     RDKit          3D

 33 35  0  0  1  0  0  0  0  0999 V2000
    9.7217  -15.3998   24.8942 N   0  0  0  0  0  0  0  0  0  0  0  0
    8.8601  -16.4656   24.5785 C   0  0  1  0  0  0  0  0  0  0  0  0
    7.6647  -16.6662   25.4427 C   0  0  0  0  0  0  0  0  0  0  0  0
    6.9712  -15.4417   25.8379 C   0  0  0  0  0  0  0  0  0  0  0  0
    5.6603  -15.0669   25.6952 C   0  0  0  0  0  0  0  0  0  0  0  0
    5.4843  -13.8121   26.1265 N   0  0  0  0  0  0  0  0  0  0  0  0
    6.6574  -13.3645   26.5458 C   0  0  0  0  0  0  0  0  0  0  0  0
    7.0687  -12.1609   27.1131 C   0  0  0  0  0  0  0  0  0  0  0  0
    8.3618  -11.9191   27.5081 C   0  0  0  0  0  0  0  0  0  0  0  0
    9.3242  -12.9080   27.3430 C   0  0  0  0  0  0  0  0  0  0  0  0
    8.9038  -14.0821   26.7852 C   0  0  0  0  0  0  0  0  0  0  0  0
    7.6138  -14.3510   26.3816 C   0  0  0  0  0  0  0  0  0  0  0  0
    8.4850  -16.4716   23.1305 C   0  0  0  0  0  0  0  0  0  0  0  0
    7.6878  -17.3042   22.6588 O   0  0  0  0  0  0  0  0  0  0  0  0
    6.7613  -14.2175   20.2397 C   0  0  0  0  0  0  0  0  0  0  0  0
    8.0478  -13.4782   20.6632 C   0  0  2  0  0  0  0  0  0  0  0  0
    7.9875  -12.0985   20.0627 C   0  0  0  0  0  0  0  0  0  0  0  0
    9.1818  -14.3190   20.2112 C   0  0  0  0  0  0  0  0  0  0  0  0
    9.3197  -15.6587   20.8605 C   0  0  2  0  0  0  0  0  0  0  0  0
    9.0508  -15.4991   22.2537 N   0  0  0  0  0  0  0  0  0  0  0  0
   10.5790  -16.3044   20.5010 C   0  0  0  0  0  0  0  0  0  0  0  0
   10.7013  -16.5783   19.2584 O   0  0  0  0  0  0  0  0  0  0  0  0
   11.6125  -16.6333   21.3699 N   0  0  0  0  0  0  0  0  0  0  0  0
   12.7823  -17.4104   20.9206 C   0  0  1  0  0  0  0  0  0  0  0  0
   14.0168  -16.5392   21.0600 C   0  0  0  0  0  0  0  0  0  0  0  0
   14.1643  -15.6243   19.9213 C   0  0  0  0  0  0  0  0  0  0  0  0
   13.5451  -15.8268   18.6769 C   0  0  0  0  0  0  0  0  0  0  0  0
   13.8768  -14.8163   17.8652 N   0  0  0  0  0  0  0  0  0  0  0  0
   14.6873  -13.9712   18.5427 C   0  0  0  0  0  0  0  0  0  0  0  0
   14.8438  -14.4760   19.7694 N   0  0  0  0  0  0  0  0  0  0  0  0
   12.9293  -18.5291   21.9086 C   0  0  0  0  0  0  0  0  0  0  0  0
   12.0738  -18.6699   22.8474 O   0  0  0  0  0  0  0  0  0  0  0  0
   13.9354  -19.4558   21.9042 O   0  0  0  0  0  0  0  0  0  0  0  0
  2  1  1  1
  3  2  1  0
  4  3  1  0
  4  5  2  0
  6  5  1  0
  7  6  1  0
  8  7  2  0
  9  8  1  0
 10  9  2  0
 10 11  1  0
 11 12  2  0
 12  7  1  0
 12  4  1  0
 13  2  1  0
 13 14  2  0
 16 15  1  6
 16 17  1  0
 19 18  1  6
 18 16  1  0
 19 20  1  0
 20 13  1  0
 21 19  1  0
 22 21  2  0
 23 21  1  0
 24 25  1  1
 24 23  1  0
 25 26  1  0
 26 27  2  0
 27 28  1  0
 29 28  1  0
 30 26  1  0
 30 29  2  0
 31 24  1  0
 32 31  2  0
 33 31  1  0
M  END
$$$$
