WLH.pdb
     RDKit          3D

 33 35  0  0  1  0  0  0  0  0999 V2000
    6.9304  -17.3489   25.0574 N   0  0  0  0  0  0  0  0  0  0  0  0
    7.6183  -16.2253   24.5651 C   0  0  1  0  0  0  0  0  0  0  0  0
    8.6957  -15.6484   25.4150 C   0  0  0  0  0  0  0  0  0  0  0  0
    8.2348  -14.7909   26.5055 C   0  0  0  0  0  0  0  0  0  0  0  0
    8.2865  -14.9618   27.8646 C   0  0  0  0  0  0  0  0  0  0  0  0
    7.6606  -13.9547   28.4855 N   0  0  0  0  0  0  0  0  0  0  0  0
    7.2021  -13.1333   27.5542 C   0  0  0  0  0  0  0  0  0  0  0  0
    6.5083  -11.9269   27.6080 C   0  0  0  0  0  0  0  0  0  0  0  0
    6.1510  -11.2147   26.4891 C   0  0  0  0  0  0  0  0  0  0  0  0
    6.4865  -11.7019   25.2316 C   0  0  0  0  0  0  0  0  0  0  0  0
    7.1667  -12.8861   25.1970 C   0  0  0  0  0  0  0  0  0  0  0  0
    7.5382  -13.6196   26.3031 C   0  0  0  0  0  0  0  0  0  0  0  0
    8.0916  -16.4301   23.1610 C   0  0  0  0  0  0  0  0  0  0  0  0
    8.1692  -17.5630   22.6494 O   0  0  0  0  0  0  0  0  0  0  0  0
    8.0311  -11.9732   19.5803 C   0  0  0  0  0  0  0  0  0  0  0  0
    7.8425  -13.4756   19.8771 C   0  0  2  0  0  0  0  0  0  0  0  0
    6.5791  -13.6155   20.6846 C   0  0  0  0  0  0  0  0  0  0  0  0
    9.0820  -13.9276   20.5529 C   0  0  0  0  0  0  0  0  0  0  0  0
    9.0807  -15.3249   21.0847 C   0  0  2  0  0  0  0  0  0  0  0  0
    8.4680  -15.3014   22.3743 N   0  0  0  0  0  0  0  0  0  0  0  0
   10.4030  -15.9372   20.9933 C   0  0  0  0  0  0  0  0  0  0  0  0
   10.9014  -15.9550   19.8163 O   0  0  0  0  0  0  0  0  0  0  0  0
   11.1318  -16.4824   22.0434 N   0  0  0  0  0  0  0  0  0  0  0  0
   12.5704  -16.7789   21.9141 C   0  0  1  0  0  0  0  0  0  0  0  0
   13.3222  -15.4644   21.8164 C   0  0  0  0  0  0  0  0  0  0  0  0
   13.7214  -15.1714   20.4342 C   0  0  0  0  0  0  0  0  0  0  0  0
   13.2370  -15.8759   19.3197 C   0  0  0  0  0  0  0  0  0  0  0  0
   13.7900  -15.3612   18.2156 N   0  0  0  0  0  0  0  0  0  0  0  0
   14.6129  -14.3511   18.5797 C   0  0  0  0  0  0  0  0  0  0  0  0
   14.5542  -14.2571   19.9108 N   0  0  0  0  0  0  0  0  0  0  0  0
   12.9724  -17.4107   23.2135 C   0  0  0  0  0  0  0  0  0  0  0  0
   12.0925  -17.6444   24.1103 O   0  0  0  0  0  0  0  0  0  0  0  0
   14.2466  -17.7778   23.5491 O   0  0  0  0  0  0  0  0  0  0  0  0
  2  1  1  1
  3  2  1  0
  4  3  1  0
  4  5  2  0
  6  5  1  0
  7  6  1  0
  8  7  2  0
  9  8  1  0
 10  9  2  0
 10 11  1  0
 11 12  2  0
 12  7  1  0
 12  4  1  0
 13  2  1  0
 13 14  2  0
 16 15  1  1
 16 17  1  0
 19 18  1  1
 18 16  1  0
 19 20  1  0
 20 13  1  0
 21 19  1  0
 22 21  2  0
 23 21  1  0
 24 25  1  1
 24 23  1  0
 25 26  1  0
 26 27  2  0
 27 28  1  0
 29 28  1  0
 30 26  1  0
 30 29  2  0
 31 24  1  0
 32 31  2  0
 33 31  1  0
M  END
$$$$
