WLH.pdb
     RDKit          3D

 33 35  0  0  1  0  0  0  0  0999 V2000
    6.6626  -17.2660   25.5243 N   0  0  0  0  0  0  0  0  0  0  0  0
    7.1761  -16.1209   24.8893 C   0  0  1  0  0  0  0  0  0  0  0  0
    8.3692  -15.4708   25.4974 C   0  0  0  0  0  0  0  0  0  0  0  0
    8.1182  -14.7570   26.7480 C   0  0  0  0  0  0  0  0  0  0  0  0
    8.3704  -15.1093   28.0486 C   0  0  0  0  0  0  0  0  0  0  0  0
    7.8909  -14.1808   28.8848 N   0  0  0  0  0  0  0  0  0  0  0  0
    7.3306  -13.2321   28.1510 C   0  0  0  0  0  0  0  0  0  0  0  0
    6.7056  -12.0286   28.4683 C   0  0  0  0  0  0  0  0  0  0  0  0
    6.2118  -11.1654   27.5209 C   0  0  0  0  0  0  0  0  0  0  0  0
    6.3292  -11.4872   26.1741 C   0  0  0  0  0  0  0  0  0  0  0  0
    6.9447  -12.6710   25.8806 C   0  0  0  0  0  0  0  0  0  0  0  0
    7.4496  -13.5540   26.8105 C   0  0  0  0  0  0  0  0  0  0  0  0
    7.3685  -16.3341   23.4213 C   0  0  0  0  0  0  0  0  0  0  0  0
    7.4377  -17.4737   22.9236 O   0  0  0  0  0  0  0  0  0  0  0  0
    8.8697  -11.9202   19.3966 C   0  0  0  0  0  0  0  0  0  0  0  0
    8.6187  -13.4395   19.4962 C   0  0  2  0  0  0  0  0  0  0  0  0
    7.5205  -13.7749   18.5219 C   0  0  0  0  0  0  0  0  0  0  0  0
    8.3136  -13.7210   20.9193 C   0  0  0  0  0  0  0  0  0  0  0  0
    8.1443  -15.1585   21.2938 C   0  0  2  0  0  0  0  0  0  0  0  0
    7.4771  -15.2059   22.5554 N   0  0  0  0  0  0  0  0  0  0  0  0
    9.3999  -15.8953   21.1831 C   0  0  0  0  0  0  0  0  0  0  0  0
    9.5098  -16.6043   20.1251 O   0  0  0  0  0  0  0  0  0  0  0  0
   10.4421  -15.8882   22.1023 N   0  0  0  0  0  0  0  0  0  0  0  0
   11.6118  -16.7733   21.9517 C   0  0  1  0  0  0  0  0  0  0  0  0
   12.7802  -15.9410   21.4572 C   0  0  0  0  0  0  0  0  0  0  0  0
   12.7666  -15.8050   19.9953 C   0  0  0  0  0  0  0  0  0  0  0  0
   12.6247  -14.5757   19.3308 C   0  0  0  0  0  0  0  0  0  0  0  0
   12.6573  -14.7968   18.0118 N   0  0  0  0  0  0  0  0  0  0  0  0
   12.8149  -16.1242   17.8039 C   0  0  0  0  0  0  0  0  0  0  0  0
   12.8780  -16.7051   19.0050 N   0  0  0  0  0  0  0  0  0  0  0  0
   11.9596  -17.2247   23.3390 C   0  0  0  0  0  0  0  0  0  0  0  0
   11.2005  -16.9186   24.3204 O   0  0  0  0  0  0  0  0  0  0  0  0
   13.0602  -17.9650   23.6729 O   0  0  0  0  0  0  0  0  0  0  0  0
  2  1  1  1
  3  2  1  0
  4  3  1  0
  4  5  2  0
  6  5  1  0
  7  6  1  0
  8  7  2  0
  9  8  1  0
 10  9  2  0
 10 11  1  0
 11 12  2  0
 12  7  1  0
 12  4  1  0
 13  2  1  0
 13 14  2  0
 16 15  1  1
 16 17  1  0
 19 18  1  1
 18 16  1  0
 19 20  1  0
 20 13  1  0
 21 19  1  0
 22 21  2  0
 23 21  1  0
 24 25  1  1
 24 23  1  0
 25 26  1  0
 26 27  2  0
 27 28  1  0
 29 28  1  0
 30 26  1  0
 30 29  2  0
 31 24  1  0
 32 31  2  0
 33 31  1  0
M  END
$$$$
