WLH.pdb
     RDKit          3D

 33 35  0  0  1  0  0  0  0  0999 V2000
    6.2391  -18.0915   24.2857 N   0  0  0  0  0  0  0  0  0  0  0  0
    6.8413  -16.8547   23.9927 C   0  0  1  0  0  0  0  0  0  0  0  0
    7.8322  -16.3213   24.9671 C   0  0  0  0  0  0  0  0  0  0  0  0
    7.2757  -15.4683   26.0155 C   0  0  0  0  0  0  0  0  0  0  0  0
    6.4027  -15.7516   27.0337 C   0  0  0  0  0  0  0  0  0  0  0  0
    6.0958  -14.6373   27.7087 N   0  0  0  0  0  0  0  0  0  0  0  0
    6.7527  -13.6349   27.1466 C   0  0  0  0  0  0  0  0  0  0  0  0
    6.8404  -12.2750   27.4342 C   0  0  0  0  0  0  0  0  0  0  0  0
    7.6251  -11.4043   26.7181 C   0  0  0  0  0  0  0  0  0  0  0  0
    8.3762  -11.8799   25.6500 C   0  0  0  0  0  0  0  0  0  0  0  0
    8.2785  -13.2158   25.3816 C   0  0  0  0  0  0  0  0  0  0  0  0
    7.5008  -14.1108   26.0842 C   0  0  0  0  0  0  0  0  0  0  0  0
    7.3802  -16.8114   22.5980 C   0  0  0  0  0  0  0  0  0  0  0  0
    7.3230  -17.7962   21.8377 O   0  0  0  0  0  0  0  0  0  0  0  0
    8.9033  -11.8289   19.3635 C   0  0  0  0  0  0  0  0  0  0  0  0
    8.8009  -13.3645   19.2522 C   0  0  2  0  0  0  0  0  0  0  0  0
    7.7260  -13.6677   18.2420 C   0  0  0  0  0  0  0  0  0  0  0  0
    8.5451  -13.8675   20.6229 C   0  0  0  0  0  0  0  0  0  0  0  0
    8.4020  -15.3480   20.7746 C   0  0  2  0  0  0  0  0  0  0  0  0
    7.9799  -15.6115   22.1130 N   0  0  0  0  0  0  0  0  0  0  0  0
    9.5907  -16.0547   20.3062 C   0  0  0  0  0  0  0  0  0  0  0  0
    9.8581  -15.8843   19.0679 O   0  0  0  0  0  0  0  0  0  0  0  0
   10.4195  -16.8674   21.0703 N   0  0  0  0  0  0  0  0  0  0  0  0
   11.8775  -16.6535   21.1223 C   0  0  1  0  0  0  0  0  0  0  0  0
   12.1443  -15.1614   21.0525 C   0  0  0  0  0  0  0  0  0  0  0  0
   12.9218  -14.8064   19.8588 C   0  0  0  0  0  0  0  0  0  0  0  0
   12.8660  -15.5252   18.6533 C   0  0  0  0  0  0  0  0  0  0  0  0
   13.6847  -14.9424   17.7702 N   0  0  0  0  0  0  0  0  0  0  0  0
   14.2653  -13.8746   18.3642 C   0  0  0  0  0  0  0  0  0  0  0  0
   13.7927  -13.8144   19.6121 N   0  0  0  0  0  0  0  0  0  0  0  0
   12.3049  -17.1053   22.4869 C   0  0  0  0  0  0  0  0  0  0  0  0
   13.5378  -17.0566   22.8198 O   0  0  0  0  0  0  0  0  0  0  0  0
   11.4670  -17.5871   23.4548 O   0  0  0  0  0  0  0  0  0  0  0  0
  2  1  1  1
  3  2  1  0
  4  3  1  0
  4  5  2  0
  6  5  1  0
  7  6  1  0
  8  7  2  0
  9  8  1  0
 10  9  2  0
 10 11  1  0
 11 12  2  0
 12  7  1  0
 12  4  1  0
 13  2  1  0
 13 14  2  0
 16 15  1  1
 16 17  1  0
 19 18  1  1
 18 16  1  0
 19 20  1  0
 20 13  1  0
 21 19  1  0
 22 21  2  0
 23 21  1  0
 24 25  1  1
 24 23  1  0
 25 26  1  0
 26 27  2  0
 27 28  1  0
 29 28  1  0
 30 26  1  0
 30 29  2  0
 31 24  1  0
 32 31  2  0
 33 31  1  0
M  END
$$$$
