WLH.pdb
     RDKit          3D

 33 35  0  0  1  0  0  0  0  0999 V2000
    9.5185  -15.8077   24.5172 N   0  0  0  0  0  0  0  0  0  0  0  0
    8.2449  -16.2403   24.1061 C   0  0  1  0  0  0  0  0  0  0  0  0
    7.0604  -15.6108   24.7515 C   0  0  0  0  0  0  0  0  0  0  0  0
    7.3187  -14.9821   26.0456 C   0  0  0  0  0  0  0  0  0  0  0  0
    7.9721  -15.4500   27.1561 C   0  0  0  0  0  0  0  0  0  0  0  0
    7.8926  -14.5609   28.1534 N   0  0  0  0  0  0  0  0  0  0  0  0
    7.1984  -13.5242   27.7111 C   0  0  0  0  0  0  0  0  0  0  0  0
    6.8279  -12.3118   28.2878 C   0  0  0  0  0  0  0  0  0  0  0  0
    6.1147  -11.3477   27.6181 C   0  0  0  0  0  0  0  0  0  0  0  0
    5.7323  -11.5704   26.3007 C   0  0  0  0  0  0  0  0  0  0  0  0
    6.1038  -12.7644   25.7507 C   0  0  0  0  0  0  0  0  0  0  0  0
    6.8197  -13.7476   26.3991 C   0  0  0  0  0  0  0  0  0  0  0  0
    8.1089  -16.2426   22.6165 C   0  0  0  0  0  0  0  0  0  0  0  0
    7.2083  -16.8786   22.0371 O   0  0  0  0  0  0  0  0  0  0  0  0
    6.9931  -13.4819   20.4024 C   0  0  0  0  0  0  0  0  0  0  0  0
    8.4896  -13.1748   20.6195 C   0  0  2  0  0  0  0  0  0  0  0  0
    8.7206  -11.7519   20.1839 C   0  0  0  0  0  0  0  0  0  0  0  0
    9.2422  -14.2019   19.8605 C   0  0  0  0  0  0  0  0  0  0  0  0
    9.2168  -15.5913   20.4122 C   0  0  2  0  0  0  0  0  0  0  0  0
    9.0324  -15.4974   21.8251 N   0  0  0  0  0  0  0  0  0  0  0  0
   10.3560  -16.3767   19.9460 C   0  0  0  0  0  0  0  0  0  0  0  0
   10.4208  -16.5196   18.6774 O   0  0  0  0  0  0  0  0  0  0  0  0
   11.3347  -16.9595   20.7420 N   0  0  0  0  0  0  0  0  0  0  0  0
   12.3477  -17.8709   20.1786 C   0  0  1  0  0  0  0  0  0  0  0  0
   13.6853  -17.1544   20.1744 C   0  0  0  0  0  0  0  0  0  0  0  0
   13.7253  -16.0900   19.1639 C   0  0  0  0  0  0  0  0  0  0  0  0
   13.1299  -16.1993   17.8964 C   0  0  0  0  0  0  0  0  0  0  0  0
   13.3429  -15.0621   17.2248 N   0  0  0  0  0  0  0  0  0  0  0  0
   14.0541  -14.2250   18.0146 C   0  0  0  0  0  0  0  0  0  0  0  0
   14.2698  -14.8624   19.1685 N   0  0  0  0  0  0  0  0  0  0  0  0
   12.4660  -19.0004   21.1581 C   0  0  0  0  0  0  0  0  0  0  0  0
   11.7031  -19.0414   22.1824 O   0  0  0  0  0  0  0  0  0  0  0  0
   13.3511  -20.0386   21.0589 O   0  0  0  0  0  0  0  0  0  0  0  0
  2  1  1  6
  3  2  1  0
  4  3  1  0
  4  5  2  0
  6  5  1  0
  7  6  1  0
  8  7  2  0
  9  8  1  0
 10  9  2  0
 10 11  1  0
 11 12  2  0
 12  7  1  0
 12  4  1  0
 13  2  1  0
 13 14  2  0
 16 15  1  6
 16 17  1  0
 19 18  1  1
 18 16  1  0
 19 20  1  0
 20 13  1  0
 21 19  1  0
 22 21  2  0
 23 21  1  0
 24 25  1  1
 24 23  1  0
 25 26  1  0
 26 27  2  0
 27 28  1  0
 29 28  1  0
 30 26  1  0
 30 29  2  0
 31 24  1  0
 32 31  2  0
 33 31  1  0
M  END
$$$$
