WLH.pdb
     RDKit          3D

 33 35  0  0  1  0  0  0  0  0999 V2000
    6.0767  -18.2226   24.0672 N   0  0  0  0  0  0  0  0  0  0  0  0
    6.7860  -17.0148   23.9393 C   0  0  1  0  0  0  0  0  0  0  0  0
    7.4298  -16.4596   25.1613 C   0  0  0  0  0  0  0  0  0  0  0  0
    6.6593  -15.4302   25.8566 C   0  0  0  0  0  0  0  0  0  0  0  0
    5.3513  -15.4118   26.2663 C   0  0  0  0  0  0  0  0  0  0  0  0
    5.0432  -14.2190   26.7896 N   0  0  0  0  0  0  0  0  0  0  0  0
    6.1271  -13.4618   26.7261 C   0  0  0  0  0  0  0  0  0  0  0  0
    6.4034  -12.1601   27.1371 C   0  0  0  0  0  0  0  0  0  0  0  0
    7.6365  -11.5724   26.9941 C   0  0  0  0  0  0  0  0  0  0  0  0
    8.6743  -12.2915   26.4132 C   0  0  0  0  0  0  0  0  0  0  0  0
    8.3861  -13.5664   26.0158 C   0  0  0  0  0  0  0  0  0  0  0  0
    7.1592  -14.1801   26.1486 C   0  0  0  0  0  0  0  0  0  0  0  0
    7.7460  -17.0485   22.7928 C   0  0  0  0  0  0  0  0  0  0  0  0
    8.2641  -18.1098   22.3970 O   0  0  0  0  0  0  0  0  0  0  0  0
    7.3169  -14.2523   19.2602 C   0  0  0  0  0  0  0  0  0  0  0  0
    7.8791  -13.5461   20.5116 C   0  0  2  0  0  0  0  0  0  0  0  0
    7.9547  -12.0752   20.1974 C   0  0  0  0  0  0  0  0  0  0  0  0
    9.1752  -14.1988   20.8139 C   0  0  0  0  0  0  0  0  0  0  0  0
    9.1254  -15.6518   21.1628 C   0  0  2  0  0  0  0  0  0  0  0  0
    8.0861  -15.8351   22.1246 N   0  0  0  0  0  0  0  0  0  0  0  0
   10.4461  -16.1673   21.5119 C   0  0  0  0  0  0  0  0  0  0  0  0
   11.3169  -16.0751   20.5807 O   0  0  0  0  0  0  0  0  0  0  0  0
   10.8149  -16.7301   22.7278 N   0  0  0  0  0  0  0  0  0  0  0  0
   12.1822  -17.2276   22.9664 C   0  0  1  0  0  0  0  0  0  0  0  0
   12.3146  -17.5744   24.4377 C   0  0  0  0  0  0  0  0  0  0  0  0
   12.0450  -16.4122   25.2934 C   0  0  0  0  0  0  0  0  0  0  0  0
   12.2650  -15.0843   24.8921 C   0  0  0  0  0  0  0  0  0  0  0  0
   11.9162  -14.2713   25.8957 N   0  0  0  0  0  0  0  0  0  0  0  0
   11.4798  -15.0286   26.9283 C   0  0  0  0  0  0  0  0  0  0  0  0
   11.5661  -16.3047   26.5434 N   0  0  0  0  0  0  0  0  0  0  0  0
   12.2821  -18.5176   22.2080 C   0  0  0  0  0  0  0  0  0  0  0  0
   13.3624  -19.1993   22.2450 O   0  0  0  0  0  0  0  0  0  0  0  0
   11.2855  -19.0611   21.4449 O   0  0  0  0  0  0  0  0  0  0  0  0
  2  1  1  1
  3  2  1  0
  4  3  1  0
  4  5  2  0
  6  5  1  0
  7  6  1  0
  8  7  2  0
  9  8  1  0
 10  9  2  0
 10 11  1  0
 11 12  2  0
 12  7  1  0
 12  4  1  0
 13  2  1  0
 13 14  2  0
 16 15  1  6
 16 17  1  0
 19 18  1  1
 18 16  1  0
 19 20  1  0
 20 13  1  0
 21 19  1  0
 22 21  2  0
 23 21  1  0
 24 25  1  1
 24 23  1  0
 25 26  1  0
 26 27  2  0
 27 28  1  0
 29 28  1  0
 30 26  1  0
 30 29  2  0
 31 24  1  0
 32 31  2  0
 33 31  1  0
M  END
$$$$
