WLH.pdb
     RDKit          3D

 33 35  0  0  1  0  0  0  0  0999 V2000
    5.4780  -18.7960   23.6654 N   0  0  0  0  0  0  0  0  0  0  0  0
    6.4132  -18.2202   24.5440 C   0  0  1  0  0  0  0  0  0  0  0  0
    7.4539  -19.1117   25.1255 C   0  0  0  0  0  0  0  0  0  0  0  0
    7.3228  -19.3675   26.5587 C   0  0  0  0  0  0  0  0  0  0  0  0
    6.5246  -20.2464   27.2440 C   0  0  0  0  0  0  0  0  0  0  0  0
    6.6705  -20.0776   28.5637 N   0  0  0  0  0  0  0  0  0  0  0  0
    7.5482  -19.1040   28.7482 C   0  0  0  0  0  0  0  0  0  0  0  0
    8.1010  -18.5250   29.8879 C   0  0  0  0  0  0  0  0  0  0  0  0
    9.0390  -17.5227   29.8424 C   0  0  0  0  0  0  0  0  0  0  0  0
    9.4726  -17.0464   28.6110 C   0  0  0  0  0  0  0  0  0  0  0  0
    8.9204  -17.6251   27.5036 C   0  0  0  0  0  0  0  0  0  0  0  0
    7.9794  -18.6320   27.5210 C   0  0  0  0  0  0  0  0  0  0  0  0
    7.0240  -16.9787   23.9757 C   0  0  0  0  0  0  0  0  0  0  0  0
    7.3842  -16.9056   22.7857 O   0  0  0  0  0  0  0  0  0  0  0  0
    5.9016  -12.6020   24.3833 C   0  0  0  0  0  0  0  0  0  0  0  0
    6.3020  -13.3058   25.6967 C   0  0  2  0  0  0  0  0  0  0  0  0
    5.9737  -12.3643   26.8252 C   0  0  0  0  0  0  0  0  0  0  0  0
    7.7349  -13.6607   25.5616 C   0  0  0  0  0  0  0  0  0  0  0  0
    8.0675  -14.7267   24.5675 C   0  0  2  0  0  0  0  0  0  0  0  0
    7.2042  -15.8375   24.8121 N   0  0  0  0  0  0  0  0  0  0  0  0
    9.5012  -15.0006   24.5310 C   0  0  0  0  0  0  0  0  0  0  0  0
   10.2248  -14.0056   24.1841 O   0  0  0  0  0  0  0  0  0  0  0  0
   10.1157  -16.2107   24.8298 N   0  0  0  0  0  0  0  0  0  0  0  0
   11.5817  -16.3641   24.7889 C   0  0  1  0  0  0  0  0  0  0  0  0
   12.0143  -17.1481   26.0139 C   0  0  0  0  0  0  0  0  0  0  0  0
   11.8277  -16.3721   27.2461 C   0  0  0  0  0  0  0  0  0  0  0  0
   11.4095  -15.0313   27.2640 C   0  0  0  0  0  0  0  0  0  0  0  0
   11.3350  -14.6239   28.5361 N   0  0  0  0  0  0  0  0  0  0  0  0
   11.6904  -15.6544   29.3373 C   0  0  0  0  0  0  0  0  0  0  0  0
   11.9800  -16.6880   28.5425 N   0  0  0  0  0  0  0  0  0  0  0  0
   11.8653  -17.2314   23.5987 C   0  0  0  0  0  0  0  0  0  0  0  0
   10.9015  -17.6760   22.8870 O   0  0  0  0  0  0  0  0  0  0  0  0
   13.1111  -17.6116   23.1810 O   0  0  0  0  0  0  0  0  0  0  0  0
  2  1  1  6
  3  2  1  0
  4  3  1  0
  4  5  2  0
  6  5  1  0
  7  6  1  0
  8  7  2  0
  9  8  1  0
 10  9  2  0
 10 11  1  0
 11 12  2  0
 12  7  1  0
 12  4  1  0
 13  2  1  0
 13 14  2  0
 16 15  1  6
 16 17  1  0
 19 18  1  1
 18 16  1  0
 19 20  1  0
 20 13  1  0
 21 19  1  0
 22 21  2  0
 23 21  1  0
 24 25  1  1
 24 23  1  0
 25 26  1  0
 26 27  2  0
 27 28  1  0
 29 28  1  0
 30 26  1  0
 30 29  2  0
 31 24  1  0
 32 31  2  0
 33 31  1  0
M  END
$$$$
