WLH.pdb
     RDKit          3D

 33 35  0  0  1  0  0  0  0  0999 V2000
    9.2981  -17.0309   22.1120 N   0  0  0  0  0  0  0  0  0  0  0  0
   10.5186  -16.6957   22.7255 C   0  0  1  0  0  0  0  0  0  0  0  0
   11.7463  -16.7301   21.8844 C   0  0  0  0  0  0  0  0  0  0  0  0
   11.8796  -17.9066   21.0272 C   0  0  0  0  0  0  0  0  0  0  0  0
   11.9614  -18.0186   19.6635 C   0  0  0  0  0  0  0  0  0  0  0  0
   11.9853  -19.3070   19.3017 N   0  0  0  0  0  0  0  0  0  0  0  0
   11.9191  -20.0342   20.4059 C   0  0  0  0  0  0  0  0  0  0  0  0
   11.9333  -21.4064   20.6433 C   0  0  0  0  0  0  0  0  0  0  0  0
   11.8822  -21.9519   21.9028 C   0  0  0  0  0  0  0  0  0  0  0  0
   11.8119  -21.1141   23.0094 C   0  0  0  0  0  0  0  0  0  0  0  0
   11.7990  -19.7713   22.7586 C   0  0  0  0  0  0  0  0  0  0  0  0
   11.8504  -19.1980   21.5063 C   0  0  0  0  0  0  0  0  0  0  0  0
   10.4262  -15.4142   23.4914 C   0  0  0  0  0  0  0  0  0  0  0  0
   11.4361  -14.7476   23.7865 O   0  0  0  0  0  0  0  0  0  0  0  0
    5.4562  -12.7078   25.9464 C   0  0  0  0  0  0  0  0  0  0  0  0
    6.9469  -13.0009   26.2162 C   0  0  2  0  0  0  0  0  0  0  0  0
    7.6277  -11.6769   26.4431 C   0  0  0  0  0  0  0  0  0  0  0  0
    7.4382  -13.7770   25.0527 C   0  0  0  0  0  0  0  0  0  0  0  0
    8.8264  -14.3230   25.1529 C   0  0  2  0  0  0  0  0  0  0  0  0
    9.1485  -14.9309   23.9016 N   0  0  0  0  0  0  0  0  0  0  0  0
    8.9976  -15.1432   26.3486 C   0  0  0  0  0  0  0  0  0  0  0  0
    8.8902  -14.5058   27.4514 O   0  0  0  0  0  0  0  0  0  0  0  0
    9.2599  -16.5075   26.3801 N   0  0  0  0  0  0  0  0  0  0  0  0
    9.4032  -17.2380   27.6529 C   0  0  1  0  0  0  0  0  0  0  0  0
    8.1294  -18.0254   27.8978 C   0  0  0  0  0  0  0  0  0  0  0  0
    7.7273  -18.7868   26.7086 C   0  0  0  0  0  0  0  0  0  0  0  0
    6.5496  -18.5341   25.9859 C   0  0  0  0  0  0  0  0  0  0  0  0
    6.4827  -19.3947   24.9638 N   0  0  0  0  0  0  0  0  0  0  0  0
    7.5749  -20.1920   25.0030 C   0  0  0  0  0  0  0  0  0  0  0  0
    8.3035  -19.8085   26.0547 N   0  0  0  0  0  0  0  0  0  0  0  0
   10.4938  -18.2416   27.4236 C   0  0  0  0  0  0  0  0  0  0  0  0
   11.0347  -18.3462   26.2706 O   0  0  0  0  0  0  0  0  0  0  0  0
   10.9891  -19.0957   28.3703 O   0  0  0  0  0  0  0  0  0  0  0  0
  2  1  1  6
  3  2  1  0
  4  3  1  0
  4  5  2  0
  6  5  1  0
  7  6  1  0
  8  7  2  0
  9  8  1  0
 10  9  2  0
 10 11  1  0
 11 12  2  0
 12  7  1  0
 12  4  1  0
 13  2  1  0
 13 14  2  0
 16 15  1  6
 16 17  1  0
 19 18  1  6
 18 16  1  0
 19 20  1  0
 20 13  1  0
 21 19  1  0
 22 21  2  0
 23 21  1  0
 24 25  1  6
 24 23  1  0
 25 26  1  0
 26 27  2  0
 27 28  1  0
 29 28  1  0
 30 26  1  0
 30 29  2  0
 31 24  1  0
 32 31  2  0
 33 31  1  0
M  END
$$$$
