WLH.pdb
     RDKit          3D

 33 35  0  0  1  0  0  0  0  0999 V2000
   10.8310  -16.2713   21.8946 N   0  0  0  0  0  0  0  0  0  0  0  0
    9.6430  -15.8198   22.4972 C   0  0  1  0  0  0  0  0  0  0  0  0
    8.3712  -16.4818   22.0970 C   0  0  0  0  0  0  0  0  0  0  0  0
    7.7446  -15.9458   20.8900 C   0  0  0  0  0  0  0  0  0  0  0  0
    7.3004  -16.5734   19.7552 C   0  0  0  0  0  0  0  0  0  0  0  0
    6.8725  -15.6736   18.8615 N   0  0  0  0  0  0  0  0  0  0  0  0
    7.0318  -14.4726   19.3948 C   0  0  0  0  0  0  0  0  0  0  0  0
    6.7419  -13.1865   18.9459 C   0  0  0  0  0  0  0  0  0  0  0  0
    6.9703  -12.0590   19.6964 C   0  0  0  0  0  0  0  0  0  0  0  0
    7.5172  -12.1824   20.9681 C   0  0  0  0  0  0  0  0  0  0  0  0
    7.7955  -13.4506   21.3927 C   0  0  0  0  0  0  0  0  0  0  0  0
    7.5754  -14.5978   20.6612 C   0  0  0  0  0  0  0  0  0  0  0  0
    9.7651  -15.7431   23.9860 C   0  0  0  0  0  0  0  0  0  0  0  0
   10.7786  -16.1470   24.5867 O   0  0  0  0  0  0  0  0  0  0  0  0
    8.1205  -12.1580   26.3604 C   0  0  0  0  0  0  0  0  0  0  0  0
    7.0468  -13.1464   25.8594 C   0  0  2  0  0  0  0  0  0  0  0  0
    5.7034  -12.5393   26.1671 C   0  0  0  0  0  0  0  0  0  0  0  0
    7.3265  -14.4411   26.5249 C   0  0  0  0  0  0  0  0  0  0  0  0
    8.6192  -15.1059   26.1749 C   0  0  2  0  0  0  0  0  0  0  0  0
    8.6950  -15.1925   24.7516 N   0  0  0  0  0  0  0  0  0  0  0  0
    8.8068  -16.3459   26.9226 C   0  0  0  0  0  0  0  0  0  0  0  0
    8.7334  -16.2185   28.1924 O   0  0  0  0  0  0  0  0  0  0  0  0
    9.0514  -17.6031   26.3832 N   0  0  0  0  0  0  0  0  0  0  0  0
    9.1181  -18.8081   27.2304 C   0  0  1  0  0  0  0  0  0  0  0  0
    9.1068  -20.0278   26.3278 C   0  0  0  0  0  0  0  0  0  0  0  0
    7.9247  -20.0453   25.4573 C   0  0  0  0  0  0  0  0  0  0  0  0
    6.6594  -19.5837   25.8560 C   0  0  0  0  0  0  0  0  0  0  0  0
    5.8086  -19.7336   24.8346 N   0  0  0  0  0  0  0  0  0  0  0  0
    6.4810  -20.2752   23.7931 C   0  0  0  0  0  0  0  0  0  0  0  0
    7.7440  -20.4517   24.1902 N   0  0  0  0  0  0  0  0  0  0  0  0
   10.4664  -18.7684   27.8860 C   0  0  0  0  0  0  0  0  0  0  0  0
   11.2667  -17.8018   27.6448 O   0  0  0  0  0  0  0  0  0  0  0  0
   10.9463  -19.7084   28.7561 O   0  0  0  0  0  0  0  0  0  0  0  0
  2  1  1  1
  3  2  1  0
  4  3  1  0
  4  5  2  0
  6  5  1  0
  7  6  1  0
  8  7  2  0
  9  8  1  0
 10  9  2  0
 10 11  1  0
 11 12  2  0
 12  7  1  0
 12  4  1  0
 13  2  1  0
 13 14  2  0
 16 15  1  1
 16 17  1  0
 19 18  1  6
 18 16  1  0
 19 20  1  0
 20 13  1  0
 21 19  1  0
 22 21  2  0
 23 21  1  0
 24 25  1  6
 24 23  1  0
 25 26  1  0
 26 27  2  0
 27 28  1  0
 29 28  1  0
 30 26  1  0
 30 29  2  0
 31 24  1  0
 32 31  2  0
 33 31  1  0
M  END
$$$$
