WLH.pdb
     RDKit          3D

 33 35  0  0  1  0  0  0  0  0999 V2000
    6.3198  -18.4282   24.8549 N   0  0  0  0  0  0  0  0  0  0  0  0
    6.8041  -17.1154   24.7125 C   0  0  1  0  0  0  0  0  0  0  0  0
    7.2584  -16.4101   25.9421 C   0  0  0  0  0  0  0  0  0  0  0  0
    6.5658  -15.1556   26.2307 C   0  0  0  0  0  0  0  0  0  0  0  0
    5.2298  -14.8488   26.2359 C   0  0  0  0  0  0  0  0  0  0  0  0
    5.0517  -13.5436   26.4729 N   0  0  0  0  0  0  0  0  0  0  0  0
    6.2481  -12.9967   26.6206 C   0  0  0  0  0  0  0  0  0  0  0  0
    6.6731  -11.7014   26.9057 C   0  0  0  0  0  0  0  0  0  0  0  0
    7.9956  -11.3578   27.0454 C   0  0  0  0  0  0  0  0  0  0  0  0
    8.9752  -12.3325   26.8989 C   0  0  0  0  0  0  0  0  0  0  0  0
    8.5411  -13.5973   26.6194 C   0  0  0  0  0  0  0  0  0  0  0  0
    7.2218  -13.9691   26.4754 C   0  0  0  0  0  0  0  0  0  0  0  0
    7.8241  -17.0106   23.6235 C   0  0  0  0  0  0  0  0  0  0  0  0
    8.6221  -17.9342   23.3756 O   0  0  0  0  0  0  0  0  0  0  0  0
    8.1169  -14.7723   19.1182 C   0  0  0  0  0  0  0  0  0  0  0  0
    7.5769  -14.0046   20.3429 C   0  0  2  0  0  0  0  0  0  0  0  0
    7.2494  -12.6079   19.8848 C   0  0  0  0  0  0  0  0  0  0  0  0
    8.6206  -14.1013   21.3911 C   0  0  0  0  0  0  0  0  0  0  0  0
    8.9209  -15.4711   21.9095 C   0  0  2  0  0  0  0  0  0  0  0  0
    7.8946  -15.8219   22.8383 N   0  0  0  0  0  0  0  0  0  0  0  0
   10.2997  -15.5795   22.3775 C   0  0  0  0  0  0  0  0  0  0  0  0
   10.4567  -15.3605   23.6270 O   0  0  0  0  0  0  0  0  0  0  0  0
   11.4104  -15.8874   21.6012 N   0  0  0  0  0  0  0  0  0  0  0  0
   12.5523  -16.6416   22.1503 C   0  0  1  0  0  0  0  0  0  0  0  0
   12.1228  -18.0838   22.3456 C   0  0  0  0  0  0  0  0  0  0  0  0
   13.2280  -18.9149   22.8389 C   0  0  0  0  0  0  0  0  0  0  0  0
   14.5155  -18.4190   23.1019 C   0  0  0  0  0  0  0  0  0  0  0  0
   15.2799  -19.4258   23.5401 N   0  0  0  0  0  0  0  0  0  0  0  0
   14.5303  -20.5517   23.5683 C   0  0  0  0  0  0  0  0  0  0  0  0
   13.3076  -20.2201   23.1450 N   0  0  0  0  0  0  0  0  0  0  0  0
   13.5934  -16.6435   21.0708 C   0  0  0  0  0  0  0  0  0  0  0  0
   14.7736  -17.0649   21.3211 O   0  0  0  0  0  0  0  0  0  0  0  0
   13.3955  -16.2186   19.7858 O   0  0  0  0  0  0  0  0  0  0  0  0
  2  1  1  1
  3  2  1  0
  4  3  1  0
  4  5  2  0
  6  5  1  0
  7  6  1  0
  8  7  2  0
  9  8  1  0
 10  9  2  0
 10 11  1  0
 11 12  2  0
 12  7  1  0
 12  4  1  0
 13  2  1  0
 13 14  2  0
 16 15  1  6
 16 17  1  0
 19 18  1  1
 18 16  1  0
 19 20  1  0
 20 13  1  0
 21 19  1  0
 22 21  2  0
 23 21  1  0
 24 25  1  6
 24 23  1  0
 25 26  1  0
 26 27  2  0
 27 28  1  0
 29 28  1  0
 30 26  1  0
 30 29  2  0
 31 24  1  0
 32 31  2  0
 33 31  1  0
M  END
$$$$
