WLH.pdb
     RDKit          3D

 33 35  0  0  1  0  0  0  0  0999 V2000
    6.1030  -18.0258   24.2707 N   0  0  0  0  0  0  0  0  0  0  0  0
    6.8312  -16.8249   24.1950 C   0  0  1  0  0  0  0  0  0  0  0  0
    7.4054  -16.2850   25.4578 C   0  0  0  0  0  0  0  0  0  0  0  0
    6.6836  -15.1520   26.0341 C   0  0  0  0  0  0  0  0  0  0  0  0
    5.3839  -15.0358   26.4540 C   0  0  0  0  0  0  0  0  0  0  0  0
    5.1271  -13.7786   26.8345 N   0  0  0  0  0  0  0  0  0  0  0  0
    6.2363  -13.0755   26.6681 C   0  0  0  0  0  0  0  0  0  0  0  0
    6.5657  -11.7454   26.9173 C   0  0  0  0  0  0  0  0  0  0  0  0
    7.8166  -11.2256   26.6904 C   0  0  0  0  0  0  0  0  0  0  0  0
    8.8184  -12.0471   26.1875 C   0  0  0  0  0  0  0  0  0  0  0  0
    8.4784  -13.3485   25.9489 C   0  0  0  0  0  0  0  0  0  0  0  0
    7.2326  -13.8956   26.1685 C   0  0  0  0  0  0  0  0  0  0  0  0
    7.8587  -16.8613   23.1085 C   0  0  0  0  0  0  0  0  0  0  0  0
    8.3973  -17.9239   22.7450 O   0  0  0  0  0  0  0  0  0  0  0  0
    7.4900  -14.6433   19.0658 C   0  0  0  0  0  0  0  0  0  0  0  0
    7.7127  -13.7841   20.3280 C   0  0  2  0  0  0  0  0  0  0  0  0
    7.5314  -12.3444   19.9250 C   0  0  0  0  0  0  0  0  0  0  0  0
    9.0580  -14.1356   20.8418 C   0  0  0  0  0  0  0  0  0  0  0  0
    9.2129  -15.5032   21.4257 C   0  0  2  0  0  0  0  0  0  0  0  0
    8.2413  -15.6490   22.4618 N   0  0  0  0  0  0  0  0  0  0  0  0
   10.6016  -15.7838   21.7788 C   0  0  0  0  0  0  0  0  0  0  0  0
   10.8923  -15.5722   23.0055 O   0  0  0  0  0  0  0  0  0  0  0  0
   11.5928  -16.2423   20.9195 N   0  0  0  0  0  0  0  0  0  0  0  0
   12.4975  -17.3427   21.3000 C   0  0  1  0  0  0  0  0  0  0  0  0
   11.6848  -18.6212   21.3860 C   0  0  0  0  0  0  0  0  0  0  0  0
   12.5131  -19.7617   21.7969 C   0  0  0  0  0  0  0  0  0  0  0  0
   13.8787  -19.6576   22.1087 C   0  0  0  0  0  0  0  0  0  0  0  0
   14.3333  -20.8695   22.4472 N   0  0  0  0  0  0  0  0  0  0  0  0
   13.3091  -21.7496   22.3641 C   0  0  0  0  0  0  0  0  0  0  0  0
   12.2320  -21.0629   21.9739 N   0  0  0  0  0  0  0  0  0  0  0  0
   13.4419  -17.5081   20.1467 C   0  0  0  0  0  0  0  0  0  0  0  0
   12.9971  -17.4948   18.9488 O   0  0  0  0  0  0  0  0  0  0  0  0
   14.7944  -17.6803   20.2556 O   0  0  0  0  0  0  0  0  0  0  0  0
  2  1  1  1
  3  2  1  0
  4  3  1  0
  4  5  2  0
  6  5  1  0
  7  6  1  0
  8  7  2  0
  9  8  1  0
 10  9  2  0
 10 11  1  0
 11 12  2  0
 12  7  1  0
 12  4  1  0
 13  2  1  0
 13 14  2  0
 16 15  1  6
 16 17  1  0
 19 18  1  1
 18 16  1  0
 19 20  1  0
 20 13  1  0
 21 19  1  0
 22 21  2  0
 23 21  1  0
 24 25  1  6
 24 23  1  0
 25 26  1  0
 26 27  2  0
 27 28  1  0
 29 28  1  0
 30 26  1  0
 30 29  2  0
 31 24  1  0
 32 31  2  0
 33 31  1  0
M  END
$$$$
