WLH.pdb
     RDKit          3D

 33 35  0  0  1  0  0  0  0  0999 V2000
    5.4871  -18.0190   23.9629 N   0  0  0  0  0  0  0  0  0  0  0  0
    6.3061  -16.8891   23.7875 C   0  0  1  0  0  0  0  0  0  0  0  0
    7.0315  -16.3706   24.9795 C   0  0  0  0  0  0  0  0  0  0  0  0
    6.4114  -15.2189   25.6320 C   0  0  0  0  0  0  0  0  0  0  0  0
    5.1000  -14.9565   25.9329 C   0  0  0  0  0  0  0  0  0  0  0  0
    4.9776  -13.7305   26.4557 N   0  0  0  0  0  0  0  0  0  0  0  0
    6.1856  -13.1911   26.4987 C   0  0  0  0  0  0  0  0  0  0  0  0
    6.6651  -11.9677   26.9602 C   0  0  0  0  0  0  0  0  0  0  0  0
    7.9942  -11.6224   26.9324 C   0  0  0  0  0  0  0  0  0  0  0  0
    8.9243  -12.5206   26.4230 C   0  0  0  0  0  0  0  0  0  0  0  0
    8.4371  -13.7155   25.9747 C   0  0  0  0  0  0  0  0  0  0  0  0
    7.1101  -14.0874   25.9921 C   0  0  0  0  0  0  0  0  0  0  0  0
    7.2288  -17.0428   22.6203 C   0  0  0  0  0  0  0  0  0  0  0  0
    6.8136  -17.3496   21.4869 O   0  0  0  0  0  0  0  0  0  0  0  0
    8.0994  -14.9014   19.7750 C   0  0  0  0  0  0  0  0  0  0  0  0
    7.7179  -14.3685   21.1719 C   0  0  2  0  0  0  0  0  0  0  0  0
    7.3226  -12.9249   21.0058 C   0  0  0  0  0  0  0  0  0  0  0  0
    8.8903  -14.6098   22.0465 C   0  0  0  0  0  0  0  0  0  0  0  0
    9.4721  -15.9867   22.0179 C   0  0  2  0  0  0  0  0  0  0  0  0
    8.6285  -16.8341   22.7984 N   0  0  0  0  0  0  0  0  0  0  0  0
   10.8927  -15.9782   22.3550 C   0  0  0  0  0  0  0  0  0  0  0  0
   11.6127  -15.2308   21.6085 O   0  0  0  0  0  0  0  0  0  0  0  0
   11.4993  -16.6922   23.3813 N   0  0  0  0  0  0  0  0  0  0  0  0
   12.8940  -17.1595   23.2787 C   0  0  1  0  0  0  0  0  0  0  0  0
   12.9046  -18.4656   22.5064 C   0  0  0  0  0  0  0  0  0  0  0  0
   12.0834  -19.4895   23.1645 C   0  0  0  0  0  0  0  0  0  0  0  0
   11.4250  -19.2884   24.3888 C   0  0  0  0  0  0  0  0  0  0  0  0
   10.7642  -20.4073   24.7073 N   0  0  0  0  0  0  0  0  0  0  0  0
   10.9741  -21.3209   23.7319 C   0  0  0  0  0  0  0  0  0  0  0  0
   11.7654  -20.7482   22.8210 N   0  0  0  0  0  0  0  0  0  0  0  0
   13.5986  -16.1475   22.4252 C   0  0  0  0  0  0  0  0  0  0  0  0
   12.9398  -15.1920   21.8902 O   0  0  0  0  0  0  0  0  0  0  0  0
   14.9384  -16.1465   22.1496 O   0  0  0  0  0  0  0  0  0  0  0  0
  2  1  1  1
  3  2  1  0
  4  3  1  0
  4  5  2  0
  6  5  1  0
  7  6  1  0
  8  7  2  0
  9  8  1  0
 10  9  2  0
 10 11  1  0
 11 12  2  0
 12  7  1  0
 12  4  1  0
 13  2  1  0
 13 14  2  0
 16 15  1  6
 16 17  1  0
 19 18  1  1
 18 16  1  0
 19 20  1  0
 20 13  1  0
 21 19  1  0
 22 21  2  0
 23 21  1  0
 24 25  1  6
 24 23  1  0
 25 26  1  0
 26 27  2  0
 27 28  1  0
 29 28  1  0
 30 26  1  0
 30 29  2  0
 31 24  1  0
 32 31  2  0
 33 31  1  0
M  END
$$$$
