WLH.pdb
     RDKit          3D

 33 35  0  0  1  0  0  0  0  0999 V2000
    5.6047  -17.5619   24.4924 N   0  0  0  0  0  0  0  0  0  0  0  0
    6.6780  -16.6561   24.5685 C   0  0  1  0  0  0  0  0  0  0  0  0
    7.4189  -16.5704   25.8567 C   0  0  0  0  0  0  0  0  0  0  0  0
    8.1247  -15.3109   26.0850 C   0  0  0  0  0  0  0  0  0  0  0  0
    9.4632  -15.0421   26.2094 C   0  0  0  0  0  0  0  0  0  0  0  0
    9.6543  -13.7500   26.5013 N   0  0  0  0  0  0  0  0  0  0  0  0
    8.4641  -13.1747   26.5700 C   0  0  0  0  0  0  0  0  0  0  0  0
    8.0528  -11.8658   26.8094 C   0  0  0  0  0  0  0  0  0  0  0  0
    6.7347  -11.4795   26.8053 C   0  0  0  0  0  0  0  0  0  0  0  0
    5.7457  -12.4226   26.5532 C   0  0  0  0  0  0  0  0  0  0  0  0
    6.1665  -13.7013   26.3205 C   0  0  0  0  0  0  0  0  0  0  0  0
    7.4811  -14.1153   26.3176 C   0  0  0  0  0  0  0  0  0  0  0  0
    7.6186  -16.8053   23.4151 C   0  0  0  0  0  0  0  0  0  0  0  0
    8.1230  -17.9032   23.1126 O   0  0  0  0  0  0  0  0  0  0  0  0
    6.6780  -14.3822   19.7631 C   0  0  0  0  0  0  0  0  0  0  0  0
    7.4808  -13.5608   20.7935 C   0  0  2  0  0  0  0  0  0  0  0  0
    7.5403  -12.1443   20.2857 C   0  0  0  0  0  0  0  0  0  0  0  0
    8.7908  -14.2389   20.9403 C   0  0  0  0  0  0  0  0  0  0  0  0
    8.7617  -15.6434   21.4519 C   0  0  2  0  0  0  0  0  0  0  0  0
    7.9555  -15.6628   22.6304 N   0  0  0  0  0  0  0  0  0  0  0  0
   10.1052  -16.2044   21.5620 C   0  0  0  0  0  0  0  0  0  0  0  0
   10.5188  -16.8056   20.5125 O   0  0  0  0  0  0  0  0  0  0  0  0
   10.9351  -16.1404   22.6748 N   0  0  0  0  0  0  0  0  0  0  0  0
   12.2928  -16.7154   22.6606 C   0  0  1  0  0  0  0  0  0  0  0  0
   13.2945  -15.5758   22.6855 C   0  0  0  0  0  0  0  0  0  0  0  0
   13.5718  -15.0702   21.3354 C   0  0  0  0  0  0  0  0  0  0  0  0
   13.1400  -15.7105   20.1621 C   0  0  0  0  0  0  0  0  0  0  0  0
   13.5508  -14.9951   19.1090 N   0  0  0  0  0  0  0  0  0  0  0  0
   14.2315  -13.9176   19.5625 C   0  0  0  0  0  0  0  0  0  0  0  0
   14.2298  -13.9849   20.8965 N   0  0  0  0  0  0  0  0  0  0  0  0
   12.4372  -17.4458   23.9625 C   0  0  0  0  0  0  0  0  0  0  0  0
   11.4545  -17.5006   24.7776 O   0  0  0  0  0  0  0  0  0  0  0  0
   13.5692  -18.0881   24.3832 O   0  0  0  0  0  0  0  0  0  0  0  0
  2  1  1  1
  3  2  1  0
  4  3  1  0
  4  5  2  0
  6  5  1  0
  7  6  1  0
  8  7  2  0
  9  8  1  0
 10  9  2  0
 10 11  1  0
 11 12  2  0
 12  7  1  0
 12  4  1  0
 13  2  1  0
 13 14  2  0
 16 15  1  6
 16 17  1  0
 19 18  1  1
 18 16  1  0
 19 20  1  0
 20 13  1  0
 21 19  1  0
 22 21  2  0
 23 21  1  0
 24 25  1  1
 24 23  1  0
 25 26  1  0
 26 27  2  0
 27 28  1  0
 29 28  1  0
 30 26  1  0
 30 29  2  0
 31 24  1  0
 32 31  2  0
 33 31  1  0
M  END
$$$$
