WLH.pdb
     RDKit          3D

 33 35  0  0  1  0  0  0  0  0999 V2000
    5.7349  -17.3977   24.3828 N   0  0  0  0  0  0  0  0  0  0  0  0
    6.6791  -16.4995   23.8536 C   0  0  1  0  0  0  0  0  0  0  0  0
    7.4710  -15.6844   24.8151 C   0  0  0  0  0  0  0  0  0  0  0  0
    6.6841  -14.8178   25.6906 C   0  0  0  0  0  0  0  0  0  0  0  0
    5.4874  -15.0310   26.3243 C   0  0  0  0  0  0  0  0  0  0  0  0
    5.0910  -13.9209   26.9584 N   0  0  0  0  0  0  0  0  0  0  0  0
    6.0081  -12.9900   26.7471 C   0  0  0  0  0  0  0  0  0  0  0  0
    6.1405  -11.6710   27.1742 C   0  0  0  0  0  0  0  0  0  0  0  0
    7.2152  -10.8799   26.8491 C   0  0  0  0  0  0  0  0  0  0  0  0
    8.2319  -11.3984   26.0562 C   0  0  0  0  0  0  0  0  0  0  0  0
    8.0862  -12.6934   25.6461 C   0  0  0  0  0  0  0  0  0  0  0  0
    7.0199  -13.5087   25.9585 C   0  0  0  0  0  0  0  0  0  0  0  0
    7.5668  -17.1526   22.8423 C   0  0  0  0  0  0  0  0  0  0  0  0
    7.2245  -18.1822   22.2308 O   0  0  0  0  0  0  0  0  0  0  0  0
    7.7944  -12.4548   20.4655 C   0  0  0  0  0  0  0  0  0  0  0  0
    8.4862  -13.7891   20.1163 C   0  0  2  0  0  0  0  0  0  0  0  0
    7.8901  -14.2751   18.8216 C   0  0  0  0  0  0  0  0  0  0  0  0
    8.2865  -14.6820   21.2826 C   0  0  0  0  0  0  0  0  0  0  0  0
    9.2161  -15.8472   21.3979 C   0  0  2  0  0  0  0  0  0  0  0  0
    8.8462  -16.5883   22.5611 N   0  0  0  0  0  0  0  0  0  0  0  0
   10.6128  -15.4341   21.2950 C   0  0  0  0  0  0  0  0  0  0  0  0
   10.9158  -14.8493   20.1994 O   0  0  0  0  0  0  0  0  0  0  0  0
   11.5994  -15.6217   22.2556 N   0  0  0  0  0  0  0  0  0  0  0  0
   12.4989  -16.7895   22.2220 C   0  0  1  0  0  0  0  0  0  0  0  0
   11.6686  -18.0237   21.9223 C   0  0  0  0  0  0  0  0  0  0  0  0
   11.2753  -18.7225   23.1521 C   0  0  0  0  0  0  0  0  0  0  0  0
   11.5244  -18.2250   24.4418 C   0  0  0  0  0  0  0  0  0  0  0  0
   11.0391  -19.0938   25.3360 N   0  0  0  0  0  0  0  0  0  0  0  0
   10.4870  -20.1325   24.6678 C   0  0  0  0  0  0  0  0  0  0  0  0
   10.6405  -19.8868   23.3639 N   0  0  0  0  0  0  0  0  0  0  0  0
   13.3968  -16.5756   21.0400 C   0  0  0  0  0  0  0  0  0  0  0  0
   13.1656  -15.6179   20.2261 O   0  0  0  0  0  0  0  0  0  0  0  0
   14.4888  -17.3399   20.7326 O   0  0  0  0  0  0  0  0  0  0  0  0
  2  1  1  1
  3  2  1  0
  4  3  1  0
  4  5  2  0
  6  5  1  0
  7  6  1  0
  8  7  2  0
  9  8  1  0
 10  9  2  0
 10 11  1  0
 11 12  2  0
 12  7  1  0
 12  4  1  0
 13  2  1  0
 13 14  2  0
 16 15  1  1
 16 17  1  0
 19 18  1  1
 18 16  1  0
 19 20  1  0
 20 13  1  0
 21 19  1  0
 22 21  2  0
 23 21  1  0
 24 25  1  6
 24 23  1  0
 25 26  1  0
 26 27  2  0
 27 28  1  0
 29 28  1  0
 30 26  1  0
 30 29  2  0
 31 24  1  0
 32 31  2  0
 33 31  1  0
M  END
$$$$
