WLH.pdb
     RDKit          3D

 33 35  0  0  1  0  0  0  0  0999 V2000
    6.5332  -17.8814   24.4383 N   0  0  0  0  0  0  0  0  0  0  0  0
    7.1897  -16.7139   24.0092 C   0  0  1  0  0  0  0  0  0  0  0  0
    8.0167  -15.9808   25.0065 C   0  0  0  0  0  0  0  0  0  0  0  0
    7.3107  -14.9446   25.7578 C   0  0  0  0  0  0  0  0  0  0  0  0
    6.0628  -14.9403   26.3251 C   0  0  0  0  0  0  0  0  0  0  0  0
    5.7901  -13.7368   26.8434 N   0  0  0  0  0  0  0  0  0  0  0  0
    6.8378  -12.9586   26.6218 C   0  0  0  0  0  0  0  0  0  0  0  0
    7.1283  -11.6374   26.9529 C   0  0  0  0  0  0  0  0  0  0  0  0
    8.3188  -11.0282   26.6395 C   0  0  0  0  0  0  0  0  0  0  0  0
    9.2958  -11.7445   25.9586 C   0  0  0  0  0  0  0  0  0  0  0  0
    8.9946  -13.0387   25.6416 C   0  0  0  0  0  0  0  0  0  0  0  0
    7.8097  -13.6741   25.9448 C   0  0  0  0  0  0  0  0  0  0  0  0
    7.9473  -16.9332   22.7382 C   0  0  0  0  0  0  0  0  0  0  0  0
    8.3233  -18.0656   22.3812 O   0  0  0  0  0  0  0  0  0  0  0  0
    6.9205  -14.6068   19.1408 C   0  0  0  0  0  0  0  0  0  0  0  0
    7.7922  -13.7533   20.0856 C   0  0  2  0  0  0  0  0  0  0  0  0
    7.8339  -12.3597   19.5164 C   0  0  0  0  0  0  0  0  0  0  0  0
    9.1023  -14.4402   20.1812 C   0  0  0  0  0  0  0  0  0  0  0  0
    9.0902  -15.8252   20.7440 C   0  0  2  0  0  0  0  0  0  0  0  0
    8.2541  -15.8195   21.9016 N   0  0  0  0  0  0  0  0  0  0  0  0
   10.4421  -16.3514   20.9090 C   0  0  0  0  0  0  0  0  0  0  0  0
   10.9785  -16.7878   19.8339 O   0  0  0  0  0  0  0  0  0  0  0  0
   11.1615  -16.4144   22.0963 N   0  0  0  0  0  0  0  0  0  0  0  0
   12.5505  -16.9079   22.1333 C   0  0  1  0  0  0  0  0  0  0  0  0
   13.4822  -15.7106   22.1650 C   0  0  0  0  0  0  0  0  0  0  0  0
   13.5823  -15.0684   20.8485 C   0  0  0  0  0  0  0  0  0  0  0  0
   14.2551  -15.6385   19.7552 C   0  0  0  0  0  0  0  0  0  0  0  0
   14.1564  -14.8069   18.7119 N   0  0  0  0  0  0  0  0  0  0  0  0
   13.4443  -13.7223   19.0947 C   0  0  0  0  0  0  0  0  0  0  0  0
   13.1123  -13.9026   20.3759 N   0  0  0  0  0  0  0  0  0  0  0  0
   12.6979  -17.6048   23.4530 C   0  0  0  0  0  0  0  0  0  0  0  0
   13.8396  -18.0477   23.8185 O   0  0  0  0  0  0  0  0  0  0  0  0
   11.6842  -17.8239   24.3449 O   0  0  0  0  0  0  0  0  0  0  0  0
  2  1  1  1
  3  2  1  0
  4  3  1  0
  4  5  2  0
  6  5  1  0
  7  6  1  0
  8  7  2  0
  9  8  1  0
 10  9  2  0
 10 11  1  0
 11 12  2  0
 12  7  1  0
 12  4  1  0
 13  2  1  0
 13 14  2  0
 16 15  1  6
 16 17  1  0
 19 18  1  1
 18 16  1  0
 19 20  1  0
 20 13  1  0
 21 19  1  0
 22 21  2  0
 23 21  1  0
 24 25  1  1
 24 23  1  0
 25 26  1  0
 26 27  2  0
 27 28  1  0
 29 28  1  0
 30 26  1  0
 30 29  2  0
 31 24  1  0
 32 31  2  0
 33 31  1  0
M  END
$$$$
