KQQ.pdb
     RDKit          3D

 28 27  0  0  1  0  0  0  0  0999 V2000
   27.9478  -23.2931  -17.1924 N   0  0  0  0  0  0  0  0  0  0  0  0
   27.4974  -21.9324  -16.8655 C   0  0  1  0  0  0  0  0  0  0  0  0
   26.8559  -21.3342  -18.0701 C   0  0  0  0  0  0  0  0  0  0  0  0
   27.8348  -20.5911  -18.9287 C   0  0  0  0  0  0  0  0  0  0  0  0
   29.0305  -21.4704  -19.3054 C   0  0  0  0  0  0  0  0  0  0  0  0
   30.0377  -20.6968  -20.1138 C   0  0  0  0  0  0  0  0  0  0  0  0
   31.1341  -21.5464  -20.5434 N   0  0  0  0  0  0  0  0  0  0  0  0
   26.5532  -21.9767  -15.7402 C   0  0  0  0  0  0  0  0  0  0  0  0
   25.7422  -22.9359  -15.5973 O   0  0  0  0  0  0  0  0  0  0  0  0
   26.0793  -22.1083  -10.3260 N   0  0  0  0  0  0  0  0  0  0  0  0
   25.1227  -21.0290  -10.4049 C   0  0  0  0  0  0  0  0  0  0  0  0
   24.1543  -21.1275   -9.6487 O   0  0  0  0  0  0  0  0  0  0  0  0
   25.3391  -19.9448  -11.3216 C   0  0  0  0  0  0  0  0  0  0  0  0
   26.1815  -20.1158  -12.5161 C   0  0  0  0  0  0  0  0  0  0  0  0
   25.6231  -20.8034  -13.7024 C   0  0  2  0  0  0  0  0  0  0  0  0
   26.5675  -20.9029  -14.7975 N   0  0  0  0  0  0  0  0  0  0  0  0
   24.2553  -20.4164  -14.1184 C   0  0  0  0  0  0  0  0  0  0  0  0
   24.1604  -19.5142  -14.9784 O   0  0  0  0  0  0  0  0  0  0  0  0
   21.0332  -17.8318  -16.8015 N   0  0  0  0  0  0  0  0  0  0  0  0
   19.9154  -18.2406  -16.0172 C   0  0  0  0  0  0  0  0  0  0  0  0
   18.8142  -17.7099  -16.1436 O   0  0  0  0  0  0  0  0  0  0  0  0
   20.1206  -19.3384  -15.0363 C   0  0  0  0  0  0  0  0  0  0  0  0
   21.5411  -19.8271  -15.0234 C   0  0  0  0  0  0  0  0  0  0  0  0
   21.7543  -20.9911  -14.0953 C   0  0  2  0  0  0  0  0  0  0  0  0
   23.0949  -21.0163  -13.5874 N   0  0  0  0  0  0  0  0  0  0  0  0
   21.2436  -22.2635  -14.6031 C   0  0  0  0  0  0  0  0  0  0  0  0
   21.9982  -23.2617  -14.6425 O   0  0  0  0  0  0  0  0  0  0  0  0
   19.9374  -22.3730  -15.0397 O   0  0  0  0  0  0  0  0  0  0  0  0
  2  1  1  6
  3  2  1  0
  4  5  1  0
  4  3  1  0
  6  7  1  0
  6  5  1  0
  8  9  2  0
  8  2  1  0
 10 11  1  0
 11 12  2  0
 13 14  1  0
 13 11  1  0
 15 14  1  1
 15 16  1  0
 16  8  1  0
 17 15  1  0
 18 17  2  0
 20 19  1  0
 20 22  1  0
 21 20  2  0
 23 22  1  0
 24 23  1  6
 24 25  1  0
 25 17  1  0
 26 28  1  0
 26 24  1  0
 27 26  2  0
M  END
$$$$
