KQQ.pdb
     RDKit          3D

 28 27  0  0  1  0  0  0  0  0999 V2000
   23.3886  -15.6632  -17.7044 N   0  0  0  0  0  0  0  0  0  0  0  0
   23.7902  -17.0668  -17.5315 C   0  0  1  0  0  0  0  0  0  0  0  0
   25.2486  -17.1893  -17.8119 C   0  0  0  0  0  0  0  0  0  0  0  0
   25.5386  -17.3309  -19.2760 C   0  0  0  0  0  0  0  0  0  0  0  0
   27.0370  -17.5088  -19.5360 C   0  0  0  0  0  0  0  0  0  0  0  0
   27.3181  -17.6472  -21.0085 C   0  0  0  0  0  0  0  0  0  0  0  0
   28.7373  -17.8223  -21.2607 N   0  0  0  0  0  0  0  0  0  0  0  0
   23.4838  -17.5081  -16.1636 C   0  0  0  0  0  0  0  0  0  0  0  0
   23.6471  -16.7419  -15.1714 O   0  0  0  0  0  0  0  0  0  0  0  0
   18.9524  -21.5364  -14.2166 N   0  0  0  0  0  0  0  0  0  0  0  0
   19.8913  -21.4830  -13.1203 C   0  0  0  0  0  0  0  0  0  0  0  0
   19.5431  -22.0796  -12.0994 O   0  0  0  0  0  0  0  0  0  0  0  0
   21.1274  -20.7672  -13.2693 C   0  0  0  0  0  0  0  0  0  0  0  0
   21.4660  -20.0890  -14.5307 C   0  0  0  0  0  0  0  0  0  0  0  0
   22.7775  -19.4142  -14.6596 C   0  0  2  0  0  0  0  0  0  0  0  0
   22.9915  -18.8357  -15.9713 N   0  0  0  0  0  0  0  0  0  0  0  0
   23.9548  -20.1299  -14.1163 C   0  0  0  0  0  0  0  0  0  0  0  0
   24.5610  -20.8948  -14.8974 O   0  0  0  0  0  0  0  0  0  0  0  0
   26.3539  -18.8575   -8.3738 N   0  0  0  0  0  0  0  0  0  0  0  0
   27.1598  -19.9774   -8.7316 C   0  0  0  0  0  0  0  0  0  0  0  0
   28.0464  -20.3935   -7.9893 O   0  0  0  0  0  0  0  0  0  0  0  0
   26.8928  -20.6350  -10.0376 C   0  0  0  0  0  0  0  0  0  0  0  0
   25.7728  -19.9707  -10.7869 C   0  0  0  0  0  0  0  0  0  0  0  0
   25.5145  -20.5926  -12.1316 C   0  0  2  0  0  0  0  0  0  0  0  0
   24.3957  -19.9790  -12.7854 N   0  0  0  0  0  0  0  0  0  0  0  0
   25.5238  -22.0547  -12.1271 C   0  0  0  0  0  0  0  0  0  0  0  0
   24.4411  -22.6806  -12.1878 O   0  0  0  0  0  0  0  0  0  0  0  0
   26.7154  -22.7501  -12.0557 O   0  0  0  0  0  0  0  0  0  0  0  0
  2  1  1  1
  3  2  1  0
  4  5  1  0
  4  3  1  0
  6  7  1  0
  6  5  1  0
  8  9  2  0
  8  2  1  0
 10 11  1  0
 11 12  2  0
 13 14  1  0
 13 11  1  0
 15 14  1  6
 15 16  1  0
 16  8  1  0
 17 15  1  0
 18 17  2  0
 20 19  1  0
 20 22  1  0
 21 20  2  0
 23 22  1  0
 24 23  1  1
 24 25  1  0
 25 17  1  0
 26 28  1  0
 26 24  1  0
 27 26  2  0
M  END
$$$$
