KQQ.pdb
     RDKit          3D

 28 27  0  0  1  0  0  0  0  0999 V2000
   23.6553  -17.3554  -15.9706 N   0  0  0  0  0  0  0  0  0  0  0  0
   24.0367  -15.9411  -15.8465 C   0  0  1  0  0  0  0  0  0  0  0  0
   25.3094  -15.7177  -16.5885 C   0  0  0  0  0  0  0  0  0  0  0  0
   26.3832  -16.6825  -16.1836 C   0  0  0  0  0  0  0  0  0  0  0  0
   26.9633  -17.4166  -17.3957 C   0  0  0  0  0  0  0  0  0  0  0  0
   28.1137  -18.3005  -16.9935 C   0  0  0  0  0  0  0  0  0  0  0  0
   28.6479  -19.0232  -18.1340 N   0  0  0  0  0  0  0  0  0  0  0  0
   22.9659  -15.0874  -16.3799 C   0  0  0  0  0  0  0  0  0  0  0  0
   22.2074  -15.4849  -17.3100 O   0  0  0  0  0  0  0  0  0  0  0  0
   17.8003  -14.9982  -16.3740 N   0  0  0  0  0  0  0  0  0  0  0  0
   17.8693  -13.5608  -16.4981 C   0  0  0  0  0  0  0  0  0  0  0  0
   16.7905  -12.9966  -16.6909 O   0  0  0  0  0  0  0  0  0  0  0  0
   19.1365  -12.8926  -16.3966 C   0  0  0  0  0  0  0  0  0  0  0  0
   20.3778  -13.6478  -16.1628 C   0  0  0  0  0  0  0  0  0  0  0  0
   21.6711  -12.9275  -16.1507 C   0  0  2  0  0  0  0  0  0  0  0  0
   22.7942  -13.7831  -15.8221 N   0  0  0  0  0  0  0  0  0  0  0  0
   21.6976  -11.6105  -15.4736 C   0  0  0  0  0  0  0  0  0  0  0  0
   21.5772  -11.6124  -14.2294 O   0  0  0  0  0  0  0  0  0  0  0  0
   22.3012   -6.1544  -18.6949 N   0  0  0  0  0  0  0  0  0  0  0  0
   22.0802   -5.6456  -17.3820 C   0  0  0  0  0  0  0  0  0  0  0  0
   22.0088   -4.4380  -17.1651 O   0  0  0  0  0  0  0  0  0  0  0  0
   21.9340   -6.6254  -16.2738 C   0  0  0  0  0  0  0  0  0  0  0  0
   21.9257   -8.0434  -16.7701 C   0  0  0  0  0  0  0  0  0  0  0  0
   21.8201   -9.0540  -15.6614 C   0  0  2  0  0  0  0  0  0  0  0  0
   21.8480  -10.3940  -16.1707 N   0  0  0  0  0  0  0  0  0  0  0  0
   20.7684   -8.7667  -14.6872 C   0  0  0  0  0  0  0  0  0  0  0  0
   21.0551   -8.1690  -13.6251 O   0  0  0  0  0  0  0  0  0  0  0  0
   19.4629   -9.1494  -14.9284 O   0  0  0  0  0  0  0  0  0  0  0  0
  2  1  1  6
  3  2  1  0
  4  5  1  0
  4  3  1  0
  6  7  1  0
  6  5  1  0
  8  9  2  0
  8  2  1  0
 10 11  1  0
 11 12  2  0
 13 14  1  0
 13 11  1  0
 15 14  1  1
 15 16  1  0
 16  8  1  0
 17 15  1  0
 18 17  2  0
 20 19  1  0
 20 22  1  0
 21 20  2  0
 23 22  1  0
 24 23  1  6
 24 25  1  0
 25 17  1  0
 26 28  1  0
 26 24  1  0
 27 26  2  0
M  END
$$$$
