KQQ.pdb
     RDKit          3D

 28 27  0  0  1  0  0  0  0  0999 V2000
   27.1904  -22.7430  -16.1588 N   0  0  0  0  0  0  0  0  0  0  0  0
   25.7343  -22.9266  -16.2438 C   0  0  1  0  0  0  0  0  0  0  0  0
   25.4479  -24.3331  -16.6438 C   0  0  0  0  0  0  0  0  0  0  0  0
   26.5031  -24.8956  -17.5483 C   0  0  0  0  0  0  0  0  0  0  0  0
   27.4452  -25.8371  -16.7929 C   0  0  0  0  0  0  0  0  0  0  0  0
   28.4206  -26.4948  -17.7322 C   0  0  0  0  0  0  0  0  0  0  0  0
   29.4552  -27.2079  -17.0045 N   0  0  0  0  0  0  0  0  0  0  0  0
   25.1164  -22.6178  -14.9466 C   0  0  0  0  0  0  0  0  0  0  0  0
   23.9451  -23.0018  -14.6661 O   0  0  0  0  0  0  0  0  0  0  0  0
   24.3093  -19.7042  -10.1957 N   0  0  0  0  0  0  0  0  0  0  0  0
   25.1362  -20.6889   -9.5379 C   0  0  0  0  0  0  0  0  0  0  0  0
   24.9691  -20.7884   -8.3207 O   0  0  0  0  0  0  0  0  0  0  0  0
   26.0711  -21.4662  -10.3025 C   0  0  0  0  0  0  0  0  0  0  0  0
   26.3551  -21.1447  -11.7102 C   0  0  0  0  0  0  0  0  0  0  0  0
   25.3198  -21.4083  -12.7352 C   0  0  2  0  0  0  0  0  0  0  0  0
   25.8721  -21.8663  -13.9948 N   0  0  0  0  0  0  0  0  0  0  0  0
   24.2470  -20.3974  -12.8787 C   0  0  0  0  0  0  0  0  0  0  0  0
   24.5954  -19.2503  -13.2329 O   0  0  0  0  0  0  0  0  0  0  0  0
   22.2447  -17.7224  -16.4541 N   0  0  0  0  0  0  0  0  0  0  0  0
   20.9029  -17.7606  -15.9750 C   0  0  0  0  0  0  0  0  0  0  0  0
   20.0298  -17.0398  -16.4530 O   0  0  0  0  0  0  0  0  0  0  0  0
   20.5863  -18.7075  -14.8737 C   0  0  0  0  0  0  0  0  0  0  0  0
   21.7895  -19.4977  -14.4439 C   0  0  0  0  0  0  0  0  0  0  0  0
   21.7272  -19.9276  -13.0041 C   0  0  2  0  0  0  0  0  0  0  0  0
   22.8881  -20.6828  -12.6331 N   0  0  0  0  0  0  0  0  0  0  0  0
   20.4426  -20.5005  -12.6050 C   0  0  0  0  0  0  0  0  0  0  0  0
   20.2699  -21.7388  -12.6713 O   0  0  0  0  0  0  0  0  0  0  0  0
   19.4192  -19.6879  -12.1567 O   0  0  0  0  0  0  0  0  0  0  0  0
  2  1  1  1
  3  2  1  0
  4  5  1  0
  4  3  1  0
  6  7  1  0
  6  5  1  0
  8  9  2  0
  8  2  1  0
 10 11  1  0
 11 12  2  0
 13 14  1  0
 13 11  1  0
 15 14  1  1
 15 16  1  0
 16  8  1  0
 17 15  1  0
 18 17  2  0
 20 19  1  0
 20 22  1  0
 21 20  2  0
 23 22  1  0
 24 23  1  6
 24 25  1  0
 25 17  1  0
 26 28  1  0
 26 24  1  0
 27 26  2  0
M  END
$$$$
