KQQ.pdb
     RDKit          3D

 28 27  0  0  1  0  0  0  0  0999 V2000
   27.3660  -21.7761  -17.7368 N   0  0  0  0  0  0  0  0  0  0  0  0
   27.5819  -20.7531  -16.7034 C   0  0  1  0  0  0  0  0  0  0  0  0
   27.0671  -19.4468  -17.2026 C   0  0  0  0  0  0  0  0  0  0  0  0
   25.9137  -19.6107  -18.1463 C   0  0  0  0  0  0  0  0  0  0  0  0
   25.4196  -18.2585  -18.6678 C   0  0  0  0  0  0  0  0  0  0  0  0
   24.1933  -18.4244  -19.5251 C   0  0  0  0  0  0  0  0  0  0  0  0
   23.7266  -17.1462  -20.0317 N   0  0  0  0  0  0  0  0  0  0  0  0
   26.8959  -21.1440  -15.4639 C   0  0  0  0  0  0  0  0  0  0  0  0
   25.8146  -21.7987  -15.4870 O   0  0  0  0  0  0  0  0  0  0  0  0
   29.6421  -21.2079   -9.5454 N   0  0  0  0  0  0  0  0  0  0  0  0
   28.2198  -21.3409   -9.3318 C   0  0  0  0  0  0  0  0  0  0  0  0
   27.8721  -21.4486   -8.1542 O   0  0  0  0  0  0  0  0  0  0  0  0
   27.3235  -21.3425  -10.4540 C   0  0  0  0  0  0  0  0  0  0  0  0
   27.8207  -21.1425  -11.8245 C   0  0  0  0  0  0  0  0  0  0  0  0
   26.8504  -21.0379  -12.9378 C   0  0  2  0  0  0  0  0  0  0  0  0
   27.4795  -20.7668  -14.2153 N   0  0  0  0  0  0  0  0  0  0  0  0
   25.6267  -20.2422  -12.6867 C   0  0  0  0  0  0  0  0  0  0  0  0
   25.7178  -19.0042  -12.8340 O   0  0  0  0  0  0  0  0  0  0  0  0
   21.4154  -20.5682  -16.0178 N   0  0  0  0  0  0  0  0  0  0  0  0
   20.7310  -19.6569  -15.1618 C   0  0  0  0  0  0  0  0  0  0  0  0
   19.5853  -19.2847  -15.4051 O   0  0  0  0  0  0  0  0  0  0  0  0
   21.4474  -19.1680  -13.9546 C   0  0  0  0  0  0  0  0  0  0  0  0
   22.8038  -19.7971  -13.8083 C   0  0  0  0  0  0  0  0  0  0  0  0
   23.0754  -20.2922  -12.4145 C   0  0  2  0  0  0  0  0  0  0  0  0
   24.4022  -20.8229  -12.2972 N   0  0  0  0  0  0  0  0  0  0  0  0
   22.0084  -21.1203  -11.8544 C   0  0  0  0  0  0  0  0  0  0  0  0
   22.2300  -22.3259  -11.5994 O   0  0  0  0  0  0  0  0  0  0  0  0
   20.7597  -20.5844  -11.6054 O   0  0  0  0  0  0  0  0  0  0  0  0
  2  1  1  6
  3  2  1  0
  4  5  1  0
  4  3  1  0
  6  7  1  0
  6  5  1  0
  8  9  2  0
  8  2  1  0
 10 11  1  0
 11 12  2  0
 13 14  1  0
 13 11  1  0
 15 14  1  1
 15 16  1  0
 16  8  1  0
 17 15  1  0
 18 17  2  0
 20 19  1  0
 20 22  1  0
 21 20  2  0
 23 22  1  0
 24 23  1  6
 24 25  1  0
 25 17  1  0
 26 28  1  0
 26 24  1  0
 27 26  2  0
M  END
$$$$
