KQQ.pdb
     RDKit          3D

 28 27  0  0  1  0  0  0  0  0999 V2000
   23.7947  -15.7874  -18.5662 N   0  0  0  0  0  0  0  0  0  0  0  0
   22.7748  -14.7294  -18.5243 C   0  0  1  0  0  0  0  0  0  0  0  0
   21.4312  -15.3596  -18.3902 C   0  0  0  0  0  0  0  0  0  0  0  0
   21.4709  -16.8417  -18.6127 C   0  0  0  0  0  0  0  0  0  0  0  0
   20.7874  -17.5986  -17.4706 C   0  0  0  0  0  0  0  0  0  0  0  0
   20.8247  -19.0848  -17.7075 C   0  0  0  0  0  0  0  0  0  0  0  0
   20.1219  -19.8040  -16.6601 N   0  0  0  0  0  0  0  0  0  0  0  0
   23.0409  -13.8250  -17.3970 C   0  0  0  0  0  0  0  0  0  0  0  0
   22.9999  -14.2324  -16.2009 O   0  0  0  0  0  0  0  0  0  0  0  0
   27.5382   -9.6724  -16.8358 N   0  0  0  0  0  0  0  0  0  0  0  0
   27.2194  -10.8386  -17.6261 C   0  0  0  0  0  0  0  0  0  0  0  0
   28.1201  -11.2335  -18.3691 O   0  0  0  0  0  0  0  0  0  0  0  0
   25.9249  -11.4501  -17.5117 C   0  0  0  0  0  0  0  0  0  0  0  0
   24.8987  -10.8955  -16.6145 C   0  0  0  0  0  0  0  0  0  0  0  0
   23.5310  -11.4616  -16.6428 C   0  0  2  0  0  0  0  0  0  0  0  0
   23.3510  -12.4590  -17.6792 N   0  0  0  0  0  0  0  0  0  0  0  0
   22.4074  -10.5037  -16.5255 C   0  0  0  0  0  0  0  0  0  0  0  0
   21.5519  -10.5221  -17.4367 O   0  0  0  0  0  0  0  0  0  0  0  0
   17.4980  -10.7792  -15.2949 N   0  0  0  0  0  0  0  0  0  0  0  0
   17.6716   -9.7393  -16.2541 C   0  0  0  0  0  0  0  0  0  0  0  0
   16.7924   -9.4622  -17.0668 O   0  0  0  0  0  0  0  0  0  0  0  0
   18.9560   -8.9911  -16.2410 C   0  0  0  0  0  0  0  0  0  0  0  0
   19.8760   -9.4657  -15.1523 C   0  0  0  0  0  0  0  0  0  0  0  0
   21.1875   -8.7301  -15.1283 C   0  0  2  0  0  0  0  0  0  0  0  0
   22.2809   -9.5998  -15.4505 N   0  0  0  0  0  0  0  0  0  0  0  0
   21.3766   -7.8810  -13.9532 C   0  0  0  0  0  0  0  0  0  0  0  0
   22.3345   -8.1018  -13.1777 O   0  0  0  0  0  0  0  0  0  0  0  0
   20.5080   -6.8390  -13.6915 O   0  0  0  0  0  0  0  0  0  0  0  0
  2  1  1  1
  3  2  1  0
  4  5  1  0
  4  3  1  0
  6  7  1  0
  6  5  1  0
  8  9  2  0
  8  2  1  0
 10 11  1  0
 11 12  2  0
 13 14  1  0
 13 11  1  0
 15 14  1  6
 15 16  1  0
 16  8  1  0
 17 15  1  0
 18 17  2  0
 20 19  1  0
 20 22  1  0
 21 20  2  0
 23 22  1  0
 24 23  1  1
 24 25  1  0
 25 17  1  0
 26 28  1  0
 26 24  1  0
 27 26  2  0
M  END
$$$$
