KQQ.pdb
     RDKit          3D

 28 27  0  0  1  0  0  0  0  0999 V2000
   27.3900  -23.2470  -16.2597 N   0  0  0  0  0  0  0  0  0  0  0  0
   26.0807  -23.8268  -16.5929 C   0  0  1  0  0  0  0  0  0  0  0  0
   26.1882  -25.3126  -16.5584 C   0  0  0  0  0  0  0  0  0  0  0  0
   27.4136  -25.8130  -17.2625 C   0  0  0  0  0  0  0  0  0  0  0  0
   27.4674  -27.3432  -17.2750 C   0  0  0  0  0  0  0  0  0  0  0  0
   28.7079  -27.8353  -17.9718 C   0  0  0  0  0  0  0  0  0  0  0  0
   28.8424  -29.2764  -17.8547 N   0  0  0  0  0  0  0  0  0  0  0  0
   25.0689  -23.3552  -15.6371 C   0  0  0  0  0  0  0  0  0  0  0  0
   23.8488  -23.6610  -15.7640 O   0  0  0  0  0  0  0  0  0  0  0  0
   26.2866  -21.4701   -9.5532 N   0  0  0  0  0  0  0  0  0  0  0  0
   24.9110  -21.1152   -9.8139 C   0  0  0  0  0  0  0  0  0  0  0  0
   24.2810  -20.6987   -8.8398 O   0  0  0  0  0  0  0  0  0  0  0  0
   24.3712  -21.2614  -11.1368 C   0  0  0  0  0  0  0  0  0  0  0  0
   25.1885  -21.7991  -12.2362 C   0  0  0  0  0  0  0  0  0  0  0  0
   24.5737  -21.9852  -13.5701 C   0  0  2  0  0  0  0  0  0  0  0  0
   25.4931  -22.5344  -14.5471 N   0  0  0  0  0  0  0  0  0  0  0  0
   23.7400  -20.8741  -14.0840 C   0  0  0  0  0  0  0  0  0  0  0  0
   24.3217  -19.7928  -14.3180 O   0  0  0  0  0  0  0  0  0  0  0  0
   20.1155  -20.7847  -18.7235 N   0  0  0  0  0  0  0  0  0  0  0  0
   19.6022  -19.5989  -18.1220 C   0  0  0  0  0  0  0  0  0  0  0  0
   18.8406  -18.8491  -18.7287 O   0  0  0  0  0  0  0  0  0  0  0  0
   20.0153  -19.2941  -16.7270 C   0  0  0  0  0  0  0  0  0  0  0  0
   20.9863  -20.3071  -16.1905 C   0  0  0  0  0  0  0  0  0  0  0  0
   21.4258  -20.0126  -14.7828 C   0  0  2  0  0  0  0  0  0  0  0  0
   22.3531  -20.9974  -14.3075 N   0  0  0  0  0  0  0  0  0  0  0  0
   20.3325  -19.6778  -13.8715 C   0  0  0  0  0  0  0  0  0  0  0  0
   19.7862  -20.5834  -13.2014 O   0  0  0  0  0  0  0  0  0  0  0  0
   19.8977  -18.3727  -13.7445 O   0  0  0  0  0  0  0  0  0  0  0  0
  2  1  1  1
  3  2  1  0
  4  5  1  0
  4  3  1  0
  6  7  1  0
  6  5  1  0
  8  9  2  0
  8  2  1  0
 10 11  1  0
 11 12  2  0
 13 14  1  0
 13 11  1  0
 15 14  1  1
 15 16  1  0
 16  8  1  0
 17 15  1  0
 18 17  2  0
 20 19  1  0
 20 22  1  0
 21 20  2  0
 23 22  1  0
 24 23  1  6
 24 25  1  0
 25 17  1  0
 26 28  1  0
 26 24  1  0
 27 26  2  0
M  END
$$$$
