KQQ.pdb
     RDKit          3D

 28 27  0  0  1  0  0  0  0  0999 V2000
   27.8555  -21.1623  -16.8611 N   0  0  0  0  0  0  0  0  0  0  0  0
   27.6569  -20.3193  -15.6732 C   0  0  1  0  0  0  0  0  0  0  0  0
   27.5125  -18.9010  -16.1068 C   0  0  0  0  0  0  0  0  0  0  0  0
   26.3465  -18.7014  -17.0278 C   0  0  0  0  0  0  0  0  0  0  0  0
   26.7550  -17.9418  -18.2930 C   0  0  0  0  0  0  0  0  0  0  0  0
   25.5511  -17.5902  -19.1256 C   0  0  0  0  0  0  0  0  0  0  0  0
   25.9237  -16.7982  -20.2842 N   0  0  0  0  0  0  0  0  0  0  0  0
   26.4634  -20.7641  -14.9401 C   0  0  0  0  0  0  0  0  0  0  0  0
   25.5119  -21.3553  -15.5261 O   0  0  0  0  0  0  0  0  0  0  0  0
   25.8815  -20.7094   -8.3969 N   0  0  0  0  0  0  0  0  0  0  0  0
   24.5688  -20.9879   -8.9313 C   0  0  0  0  0  0  0  0  0  0  0  0
   23.6984  -21.2263   -8.0918 O   0  0  0  0  0  0  0  0  0  0  0  0
   24.3554  -20.9749  -10.3515 C   0  0  0  0  0  0  0  0  0  0  0  0
   25.4641  -20.7186  -11.2846 C   0  0  0  0  0  0  0  0  0  0  0  0
   25.2134  -20.7880  -12.7421 C   0  0  2  0  0  0  0  0  0  0  0  0
   26.3955  -20.5138  -13.5349 N   0  0  0  0  0  0  0  0  0  0  0  0
   23.9851  -20.1288  -13.2422 C   0  0  0  0  0  0  0  0  0  0  0  0
   24.0979  -18.9476  -13.6354 O   0  0  0  0  0  0  0  0  0  0  0  0
   21.2357  -19.9557  -18.3376 N   0  0  0  0  0  0  0  0  0  0  0  0
   20.7536  -18.9938  -17.4027 C   0  0  0  0  0  0  0  0  0  0  0  0
   20.5554  -17.8255  -17.7283 O   0  0  0  0  0  0  0  0  0  0  0  0
   20.4921  -19.4488  -16.0120 C   0  0  0  0  0  0  0  0  0  0  0  0
   21.7339  -19.9660  -15.3432 C   0  0  0  0  0  0  0  0  0  0  0  0
   21.5143  -20.3397  -13.9031 C   0  0  2  0  0  0  0  0  0  0  0  0
   22.7322  -20.7746  -13.2840 N   0  0  0  0  0  0  0  0  0  0  0  0
   20.3475  -21.1910  -13.6764 C   0  0  0  0  0  0  0  0  0  0  0  0
   20.5085  -22.4041  -13.4116 O   0  0  0  0  0  0  0  0  0  0  0  0
   19.0706  -20.6689  -13.7526 O   0  0  0  0  0  0  0  0  0  0  0  0
  2  1  1  6
  3  2  1  0
  4  5  1  0
  4  3  1  0
  6  7  1  0
  6  5  1  0
  8  9  2  0
  8  2  1  0
 10 11  1  0
 11 12  2  0
 13 14  1  0
 13 11  1  0
 15 14  1  1
 15 16  1  0
 16  8  1  0
 17 15  1  0
 18 17  2  0
 20 19  1  0
 20 22  1  0
 21 20  2  0
 23 22  1  0
 24 23  1  6
 24 25  1  0
 25 17  1  0
 26 28  1  0
 26 24  1  0
 27 26  2  0
M  END
$$$$
