KQQ.pdb
     RDKit          3D

 28 27  0  0  1  0  0  0  0  0999 V2000
   19.9686  -13.4366  -18.8189 N   0  0  0  0  0  0  0  0  0  0  0  0
   19.2090  -12.8372  -17.7121 C   0  0  1  0  0  0  0  0  0  0  0  0
   18.6219  -13.9278  -16.8837 C   0  0  0  0  0  0  0  0  0  0  0  0
   17.9080  -14.9532  -17.7125 C   0  0  0  0  0  0  0  0  0  0  0  0
   17.4274  -16.1292  -16.8577 C   0  0  0  0  0  0  0  0  0  0  0  0
   16.6922  -17.1417  -17.6947 C   0  0  0  0  0  0  0  0  0  0  0  0
   16.2635  -18.2757  -16.8956 N   0  0  0  0  0  0  0  0  0  0  0  0
   20.0937  -11.9872  -16.9032 C   0  0  0  0  0  0  0  0  0  0  0  0
   19.7036  -11.4778  -15.8139 O   0  0  0  0  0  0  0  0  0  0  0  0
   27.2521  -10.8135  -15.2736 N   0  0  0  0  0  0  0  0  0  0  0  0
   26.2198  -11.3729  -16.1149 C   0  0  0  0  0  0  0  0  0  0  0  0
   26.5886  -12.2717  -16.8736 O   0  0  0  0  0  0  0  0  0  0  0  0
   24.8760  -10.8735  -16.0290 C   0  0  0  0  0  0  0  0  0  0  0  0
   23.7705  -11.5401  -16.7355 C   0  0  0  0  0  0  0  0  0  0  0  0
   22.4005  -10.9920  -16.6154 C   0  0  2  0  0  0  0  0  0  0  0  0
   21.4203  -11.7429  -17.3748 N   0  0  0  0  0  0  0  0  0  0  0  0
   22.2551   -9.5224  -16.7289 C   0  0  0  0  0  0  0  0  0  0  0  0
   22.3503   -9.0321  -17.8748 O   0  0  0  0  0  0  0  0  0  0  0  0
   19.9519   -6.1971  -18.8425 N   0  0  0  0  0  0  0  0  0  0  0  0
   19.3565   -5.4647  -17.7746 C   0  0  0  0  0  0  0  0  0  0  0  0
   18.7628   -4.4073  -17.9740 O   0  0  0  0  0  0  0  0  0  0  0  0
   19.4723   -6.0227  -16.4017 C   0  0  0  0  0  0  0  0  0  0  0  0
   20.1377   -7.3695  -16.3928 C   0  0  0  0  0  0  0  0  0  0  0  0
   21.3981   -7.3976  -15.5729 C   0  0  2  0  0  0  0  0  0  0  0  0
   22.0218   -8.6879  -15.6165 N   0  0  0  0  0  0  0  0  0  0  0  0
   21.2617   -6.8027  -14.2443 C   0  0  0  0  0  0  0  0  0  0  0  0
   20.8413   -5.6288  -14.1320 O   0  0  0  0  0  0  0  0  0  0  0  0
   21.5929   -7.5241  -13.1135 O   0  0  0  0  0  0  0  0  0  0  0  0
  2  1  1  6
  3  2  1  0
  4  5  1  0
  4  3  1  0
  6  7  1  0
  6  5  1  0
  8  9  2  0
  8  2  1  0
 10 11  1  0
 11 12  2  0
 13 14  1  0
 13 11  1  0
 15 14  1  6
 15 16  1  0
 16  8  1  0
 17 15  1  0
 18 17  2  0
 20 19  1  0
 20 22  1  0
 21 20  2  0
 23 22  1  0
 24 23  1  1
 24 25  1  0
 25 17  1  0
 26 28  1  0
 26 24  1  0
 27 26  2  0
M  END
$$$$
