KQQ.pdb
     RDKit          3D

 28 27  0  0  1  0  0  0  0  0999 V2000
   24.9912  -21.6501  -17.0089 N   0  0  0  0  0  0  0  0  0  0  0  0
   24.2903  -22.6656  -16.2096 C   0  0  1  0  0  0  0  0  0  0  0  0
   25.2905  -23.6287  -15.6688 C   0  0  0  0  0  0  0  0  0  0  0  0
   25.9947  -24.3891  -16.7522 C   0  0  0  0  0  0  0  0  0  0  0  0
   27.0239  -25.3645  -16.1744 C   0  0  0  0  0  0  0  0  0  0  0  0
   27.8206  -26.0222  -17.2694 C   0  0  0  0  0  0  0  0  0  0  0  0
   28.7800  -26.9684  -16.7287 N   0  0  0  0  0  0  0  0  0  0  0  0
   23.5488  -22.0172  -15.1190 C   0  0  0  0  0  0  0  0  0  0  0  0
   24.0288  -21.0307  -14.4907 O   0  0  0  0  0  0  0  0  0  0  0  0
   20.1646  -17.8326  -14.5810 N   0  0  0  0  0  0  0  0  0  0  0  0
   19.8156  -18.4555  -13.3255 C   0  0  0  0  0  0  0  0  0  0  0  0
   19.1316  -17.7650  -12.5674 O   0  0  0  0  0  0  0  0  0  0  0  0
   20.2655  -19.7886  -13.0370 C   0  0  0  0  0  0  0  0  0  0  0  0
   21.1766  -20.4976  -13.9497 C   0  0  0  0  0  0  0  0  0  0  0  0
   21.4297  -21.9414  -13.7414 C   0  0  2  0  0  0  0  0  0  0  0  0
   22.2589  -22.5272  -14.7761 N   0  0  0  0  0  0  0  0  0  0  0  0
   20.2687  -22.7755  -13.3541 C   0  0  0  0  0  0  0  0  0  0  0  0
   19.4147  -23.0007  -14.2387 O   0  0  0  0  0  0  0  0  0  0  0  0
   19.4458  -24.8058   -7.3941 N   0  0  0  0  0  0  0  0  0  0  0  0
   18.2895  -25.3735   -8.0043 C   0  0  0  0  0  0  0  0  0  0  0  0
   17.4975  -26.0608   -7.3635 O   0  0  0  0  0  0  0  0  0  0  0  0
   18.0654  -25.1055   -9.4491 C   0  0  0  0  0  0  0  0  0  0  0  0
   19.1293  -24.2191  -10.0316 C   0  0  0  0  0  0  0  0  0  0  0  0
   19.0030  -24.0490  -11.5205 C   0  0  2  0  0  0  0  0  0  0  0  0
   20.1042  -23.3040  -12.0571 N   0  0  0  0  0  0  0  0  0  0  0  0
   17.6751  -23.6282  -11.9648 C   0  0  0  0  0  0  0  0  0  0  0  0
   16.9302  -24.4467  -12.5502 O   0  0  0  0  0  0  0  0  0  0  0  0
   17.2365  -22.3367  -11.7448 O   0  0  0  0  0  0  0  0  0  0  0  0
  2  1  1  1
  3  2  1  0
  4  5  1  0
  4  3  1  0
  6  7  1  0
  6  5  1  0
  8  9  2  0
  8  2  1  0
 10 11  1  0
 11 12  2  0
 13 14  1  0
 13 11  1  0
 15 14  1  6
 15 16  1  0
 16  8  1  0
 17 15  1  0
 18 17  2  0
 20 19  1  0
 20 22  1  0
 21 20  2  0
 23 22  1  0
 24 23  1  1
 24 25  1  0
 25 17  1  0
 26 28  1  0
 26 24  1  0
 27 26  2  0
M  END
$$$$
