KQQ.pdb
     RDKit          3D

 28 27  0  0  1  0  0  0  0  0999 V2000
   24.0295  -17.1752  -19.8454 N   0  0  0  0  0  0  0  0  0  0  0  0
   23.4947  -16.9915  -18.4884 C   0  0  1  0  0  0  0  0  0  0  0  0
   22.3172  -16.0806  -18.5531 C   0  0  0  0  0  0  0  0  0  0  0  0
   22.4270  -15.0837  -19.6675 C   0  0  0  0  0  0  0  0  0  0  0  0
   22.2931  -13.6485  -19.1510 C   0  0  0  0  0  0  0  0  0  0  0  0
   22.4126  -12.6552  -20.2759 C   0  0  0  0  0  0  0  0  0  0  0  0
   22.3414  -11.2906  -19.7848 N   0  0  0  0  0  0  0  0  0  0  0  0
   23.1159  -18.2933  -17.9214 C   0  0  0  0  0  0  0  0  0  0  0  0
   22.4807  -19.1490  -18.6015 O   0  0  0  0  0  0  0  0  0  0  0  0
   25.2453  -23.8658  -13.6900 N   0  0  0  0  0  0  0  0  0  0  0  0
   25.4084  -22.5678  -14.3021 C   0  0  0  0  0  0  0  0  0  0  0  0
   26.5683  -22.1545  -14.3587 O   0  0  0  0  0  0  0  0  0  0  0  0
   24.2605  -21.8560  -14.7903 C   0  0  0  0  0  0  0  0  0  0  0  0
   24.4013  -20.5501  -15.4540 C   0  0  0  0  0  0  0  0  0  0  0  0
   23.1884  -19.8439  -15.9252 C   0  0  2  0  0  0  0  0  0  0  0  0
   23.4826  -18.5795  -16.5703 N   0  0  0  0  0  0  0  0  0  0  0  0
   22.0389  -19.7925  -14.9927 C   0  0  0  0  0  0  0  0  0  0  0  0
   22.0785  -18.9241  -14.0944 O   0  0  0  0  0  0  0  0  0  0  0  0
   18.0746  -24.6642  -14.4883 N   0  0  0  0  0  0  0  0  0  0  0  0
   17.3408  -23.7026  -13.7344 C   0  0  0  0  0  0  0  0  0  0  0  0
   16.2530  -23.9752  -13.2318 O   0  0  0  0  0  0  0  0  0  0  0  0
   17.9354  -22.3503  -13.5693 C   0  0  0  0  0  0  0  0  0  0  0  0
   19.2465  -22.2170  -14.2906 C   0  0  0  0  0  0  0  0  0  0  0  0
   19.8450  -20.8423  -14.1739 C   0  0  2  0  0  0  0  0  0  0  0  0
   20.9377  -20.6685  -15.0857 N   0  0  0  0  0  0  0  0  0  0  0  0
   20.0905  -20.4106  -12.7987 C   0  0  0  0  0  0  0  0  0  0  0  0
   20.9797  -20.9756  -12.1222 O   0  0  0  0  0  0  0  0  0  0  0  0
   19.3501  -19.3865  -12.2404 O   0  0  0  0  0  0  0  0  0  0  0  0
  2  1  1  6
  3  2  1  0
  4  5  1  0
  4  3  1  0
  6  7  1  0
  6  5  1  0
  8  9  2  0
  8  2  1  0
 10 11  1  0
 11 12  2  0
 13 14  1  0
 13 11  1  0
 15 14  1  1
 15 16  1  0
 16  8  1  0
 17 15  1  0
 18 17  2  0
 20 19  1  0
 20 22  1  0
 21 20  2  0
 23 22  1  0
 24 23  1  1
 24 25  1  0
 25 17  1  0
 26 28  1  0
 26 24  1  0
 27 26  2  0
M  END
$$$$
