KQQ.pdb
     RDKit          3D

 28 27  0  0  1  0  0  0  0  0999 V2000
   25.4700  -17.6412  -19.1147 N   0  0  0  0  0  0  0  0  0  0  0  0
   24.4408  -17.5747  -18.0671 C   0  0  1  0  0  0  0  0  0  0  0  0
   23.1061  -17.4196  -18.7112 C   0  0  0  0  0  0  0  0  0  0  0  0
   22.7753  -15.9865  -19.0017 C   0  0  0  0  0  0  0  0  0  0  0  0
   21.5933  -15.5017  -18.1576 C   0  0  0  0  0  0  0  0  0  0  0  0
   21.1096  -14.1554  -18.6264 C   0  0  0  0  0  0  0  0  0  0  0  0
   20.1867  -13.5650  -17.6735 N   0  0  0  0  0  0  0  0  0  0  0  0
   24.4849  -18.7933  -17.2468 C   0  0  0  0  0  0  0  0  0  0  0  0
   24.6571  -19.9325  -17.7671 O   0  0  0  0  0  0  0  0  0  0  0  0
   26.5267  -22.7126  -11.7280 N   0  0  0  0  0  0  0  0  0  0  0  0
   26.4511  -21.7383  -12.7916 C   0  0  0  0  0  0  0  0  0  0  0  0
   27.4037  -21.7380  -13.5739 O   0  0  0  0  0  0  0  0  0  0  0  0
   25.3200  -20.8575  -12.8780 C   0  0  0  0  0  0  0  0  0  0  0  0
   25.2773  -19.7699  -13.8683 C   0  0  0  0  0  0  0  0  0  0  0  0
   24.2588  -19.8092  -14.9422 C   0  0  2  0  0  0  0  0  0  0  0  0
   24.3280  -18.6671  -15.8321 N   0  0  0  0  0  0  0  0  0  0  0  0
   22.8816  -20.1824  -14.5453 C   0  0  0  0  0  0  0  0  0  0  0  0
   22.1415  -19.2607  -14.1388 O   0  0  0  0  0  0  0  0  0  0  0  0
   18.9604  -22.1450  -10.8317 N   0  0  0  0  0  0  0  0  0  0  0  0
   18.9256  -20.8698  -11.4675 C   0  0  0  0  0  0  0  0  0  0  0  0
   18.1446  -19.9929  -11.1051 O   0  0  0  0  0  0  0  0  0  0  0  0
   19.8711  -20.6278  -12.5886 C   0  0  0  0  0  0  0  0  0  0  0  0
   20.7680  -21.8072  -12.8367 C   0  0  0  0  0  0  0  0  0  0  0  0
   21.0919  -22.0041  -14.2921 C   0  0  2  0  0  0  0  0  0  0  0  0
   22.3982  -21.5056  -14.6093 N   0  0  0  0  0  0  0  0  0  0  0  0
   20.0209  -21.6040  -15.2035 C   0  0  0  0  0  0  0  0  0  0  0  0
   18.9344  -22.2261  -15.1925 O   0  0  0  0  0  0  0  0  0  0  0  0
   20.1979  -20.5473  -16.0757 O   0  0  0  0  0  0  0  0  0  0  0  0
  2  1  1  6
  3  2  1  0
  4  5  1  0
  4  3  1  0
  6  7  1  0
  6  5  1  0
  8  9  2  0
  8  2  1  0
 10 11  1  0
 11 12  2  0
 13 14  1  0
 13 11  1  0
 15 14  1  1
 15 16  1  0
 16  8  1  0
 17 15  1  0
 18 17  2  0
 20 19  1  0
 20 22  1  0
 21 20  2  0
 23 22  1  0
 24 23  1  1
 24 25  1  0
 25 17  1  0
 26 28  1  0
 26 24  1  0
 27 26  2  0
M  END
$$$$
