IGR.pdb
     RDKit          3D

 24 23  0  0  1  0  0  0  0  0999 V2000
   26.4823  -22.5885  -17.3747 C   0  0  0  0  0  0  0  0  0  0  0  0
   26.5131  -22.8311  -15.8947 C   0  0  0  0  0  0  0  0  0  0  0  0
   25.5386  -21.9674  -15.1318 C   0  0  2  0  0  0  0  0  0  0  0  0
   25.6961  -20.5326  -15.5226 C   0  0  0  0  0  0  0  0  0  0  0  0
   25.7533  -22.2027  -13.6495 C   0  0  2  0  0  0  0  0  0  0  0  0
   25.5221  -23.6360  -13.3589 N   0  0  0  0  0  0  0  0  0  0  0  0
   24.7223  -21.4440  -12.9084 C   0  0  0  0  0  0  0  0  0  0  0  0
   24.7849  -20.1706  -12.9156 O   0  0  0  0  0  0  0  0  0  0  0  0
   23.6535  -22.0116  -12.1818 N   0  0  0  0  0  0  0  0  0  0  0  0
   22.6182  -21.1769  -11.6075 C   0  0  0  0  0  0  0  0  0  0  0  0
   21.3349  -21.4708  -12.2925 C   0  0  0  0  0  0  0  0  0  0  0  0
   21.2875  -21.5079  -13.5383 O   0  0  0  0  0  0  0  0  0  0  0  0
   19.0166  -24.9040   -7.3429 N   0  0  0  0  0  0  0  0  0  0  0  0
   17.6421  -24.5444   -7.1691 C   0  0  0  0  0  0  0  0  0  0  0  0
   17.1607  -24.4723   -5.9802 N   0  0  0  0  0  0  0  0  0  0  0  0
   16.8582  -24.2795   -8.3251 N   0  0  0  0  0  0  0  0  0  0  0  0
   17.4270  -24.5553   -9.6172 C   0  0  0  0  0  0  0  0  0  0  0  0
   17.8704  -23.3075  -10.2881 C   0  0  0  0  0  0  0  0  0  0  0  0
   18.4283  -23.4309  -11.6538 C   0  0  0  0  0  0  0  0  0  0  0  0
   18.9506  -22.1754  -12.2787 C   0  0  2  0  0  0  0  0  0  0  0  0
   20.1327  -21.7170  -11.5806 N   0  0  0  0  0  0  0  0  0  0  0  0
   17.9645  -21.1110  -12.4826 C   0  0  0  0  0  0  0  0  0  0  0  0
   17.9881  -20.0497  -11.7878 O   0  0  0  0  0  0  0  0  0  0  0  0
   16.9734  -21.2206  -13.4381 O   0  0  0  0  0  0  0  0  0  0  0  0
  2  1  1  0
  2  3  1  0
  3  5  1  0
  3  4  1  1
  5  7  1  0
  5  6  1  6
  7  9  1  0
  8  7  2  0
  9 10  1  0
 11 12  2  0
 11 10  1  0
 14 13  1  0
 14 15  2  0
 16 14  1  0
 17 16  1  0
 18 17  1  0
 18 19  1  0
 20 19  1  1
 20 21  1  0
 21 11  1  0
 22 20  1  0
 22 24  1  0
 23 22  2  0
M  END
$$$$
