IGR.pdb
     RDKit          3D

 24 23  0  0  1  0  0  0  0  0999 V2000
   17.7022  -19.0420  -18.4730 C   0  0  0  0  0  0  0  0  0  0  0  0
   17.4614  -17.8363  -17.6136 C   0  0  0  0  0  0  0  0  0  0  0  0
   18.0131  -16.5639  -18.2091 C   0  0  2  0  0  0  0  0  0  0  0  0
   19.4793  -16.7019  -18.4682 C   0  0  0  0  0  0  0  0  0  0  0  0
   17.6842  -15.4182  -17.2722 C   0  0  2  0  0  0  0  0  0  0  0  0
   16.2124  -15.3162  -17.1468 N   0  0  0  0  0  0  0  0  0  0  0  0
   18.1483  -14.1619  -17.8999 C   0  0  0  0  0  0  0  0  0  0  0  0
   19.4020  -13.9891  -18.0549 O   0  0  0  0  0  0  0  0  0  0  0  0
   17.3142  -13.1175  -18.3537 N   0  0  0  0  0  0  0  0  0  0  0  0
   17.8774  -11.8889  -18.8749 C   0  0  0  0  0  0  0  0  0  0  0  0
   17.9740  -10.9029  -17.7700 C   0  0  0  0  0  0  0  0  0  0  0  0
   17.5134  -11.1806  -16.6447 O   0  0  0  0  0  0  0  0  0  0  0  0
   22.5096   -8.4502  -12.3446 N   0  0  0  0  0  0  0  0  0  0  0  0
   22.7383   -8.9417  -13.6694 C   0  0  0  0  0  0  0  0  0  0  0  0
   23.6390   -9.8386  -13.8562 N   0  0  0  0  0  0  0  0  0  0  0  0
   21.9559   -8.4156  -14.7333 N   0  0  0  0  0  0  0  0  0  0  0  0
   20.9619   -7.4218  -14.4270 C   0  0  0  0  0  0  0  0  0  0  0  0
   20.1457   -7.0902  -15.6219 C   0  0  0  0  0  0  0  0  0  0  0  0
   19.9852   -8.1435  -16.6496 C   0  0  0  0  0  0  0  0  0  0  0  0
   18.6029   -8.6828  -16.8442 C   0  0  2  0  0  0  0  0  0  0  0  0
   18.5793   -9.6308  -17.9375 N   0  0  0  0  0  0  0  0  0  0  0  0
   17.5389   -7.6799  -16.9407 C   0  0  0  0  0  0  0  0  0  0  0  0
   17.0713   -7.3223  -18.0645 O   0  0  0  0  0  0  0  0  0  0  0  0
   17.0038   -7.0868  -15.8142 O   0  0  0  0  0  0  0  0  0  0  0  0
  2  1  1  0
  2  3  1  0
  3  5  1  0
  3  4  1  1
  5  7  1  0
  5  6  1  6
  7  9  1  0
  8  7  2  0
  9 10  1  0
 11 12  2  0
 11 10  1  0
 14 13  1  0
 14 15  2  0
 16 14  1  0
 17 16  1  0
 18 17  1  0
 18 19  1  0
 20 19  1  6
 20 21  1  0
 21 11  1  0
 22 20  1  0
 22 24  1  0
 23 22  2  0
M  END
$$$$
