IGR.pdb
     RDKit          3D

 24 23  0  0  1  0  0  0  0  0999 V2000
   29.5280  -19.7867  -19.3762 C   0  0  0  0  0  0  0  0  0  0  0  0
   28.9744  -20.2088  -18.0474 C   0  0  0  0  0  0  0  0  0  0  0  0
   27.7484  -19.4282  -17.6409 C   0  0  2  0  0  0  0  0  0  0  0  0
   28.0646  -17.9694  -17.5510 C   0  0  0  0  0  0  0  0  0  0  0  0
   27.2300  -20.0015  -16.3365 C   0  0  2  0  0  0  0  0  0  0  0  0
   26.9359  -21.4391  -16.5345 N   0  0  0  0  0  0  0  0  0  0  0  0
   25.9445  -19.3412  -16.0216 C   0  0  0  0  0  0  0  0  0  0  0  0
   25.9723  -18.1730  -15.5115 O   0  0  0  0  0  0  0  0  0  0  0  0
   24.6649  -19.8956  -16.2401 N   0  0  0  0  0  0  0  0  0  0  0  0
   23.4677  -19.1819  -15.8460 C   0  0  0  0  0  0  0  0  0  0  0  0
   22.5779  -20.1142  -15.1101 C   0  0  0  0  0  0  0  0  0  0  0  0
   21.8239  -20.8833  -15.7390 O   0  0  0  0  0  0  0  0  0  0  0  0
   27.1222  -21.4900  -10.3601 N   0  0  0  0  0  0  0  0  0  0  0  0
   26.6922  -20.6520  -11.4379 C   0  0  0  0  0  0  0  0  0  0  0  0
   27.5428  -20.3021  -12.3349 N   0  0  0  0  0  0  0  0  0  0  0  0
   25.3331  -20.2368  -11.4747 N   0  0  0  0  0  0  0  0  0  0  0  0
   24.4263  -20.7710  -10.4941 C   0  0  0  0  0  0  0  0  0  0  0  0
   23.0133  -20.5904  -10.9121 C   0  0  0  0  0  0  0  0  0  0  0  0
   22.4197  -21.6380  -11.7733 C   0  0  0  0  0  0  0  0  0  0  0  0
   21.7393  -21.1710  -13.0217 C   0  0  2  0  0  0  0  0  0  0  0  0
   22.5440  -20.1728  -13.6930 N   0  0  0  0  0  0  0  0  0  0  0  0
   20.3411  -20.7609  -12.8663 C   0  0  0  0  0  0  0  0  0  0  0  0
   20.0141  -19.5356  -12.8351 O   0  0  0  0  0  0  0  0  0  0  0  0
   19.3266  -21.6905  -12.7492 O   0  0  0  0  0  0  0  0  0  0  0  0
  2  1  1  0
  2  3  1  0
  3  5  1  0
  3  4  1  1
  5  7  1  0
  5  6  1  6
  7  9  1  0
  8  7  2  0
  9 10  1  0
 11 12  2  0
 11 10  1  0
 14 13  1  0
 14 15  2  0
 16 14  1  0
 17 16  1  0
 18 17  1  0
 18 19  1  0
 20 19  1  1
 20 21  1  0
 21 11  1  0
 22 20  1  0
 22 24  1  0
 23 22  2  0
M  END
$$$$
