IGR.pdb
     RDKit          3D

 24 23  0  0  1  0  0  0  0  0999 V2000
   21.4625  -15.2199  -21.3752 C   0  0  0  0  0  0  0  0  0  0  0  0
   20.9947  -15.7814  -20.0652 C   0  0  0  0  0  0  0  0  0  0  0  0
   22.0714  -16.5377  -19.3260 C   0  0  2  0  0  0  0  0  0  0  0  0
   22.6230  -17.6317  -20.1833 C   0  0  0  0  0  0  0  0  0  0  0  0
   21.4865  -17.0466  -18.0230 C   0  0  2  0  0  0  0  0  0  0  0  0
   21.0649  -15.8851  -17.2072 N   0  0  0  0  0  0  0  0  0  0  0  0
   22.5615  -17.7299  -17.2712 C   0  0  0  0  0  0  0  0  0  0  0  0
   23.0103  -18.8339  -17.7243 O   0  0  0  0  0  0  0  0  0  0  0  0
   23.1488  -17.2617  -16.0761 N   0  0  0  0  0  0  0  0  0  0  0  0
   24.1659  -18.0354  -15.3941 C   0  0  0  0  0  0  0  0  0  0  0  0
   23.5026  -19.1003  -14.6013 C   0  0  0  0  0  0  0  0  0  0  0  0
   22.2659  -19.2479  -14.6674 O   0  0  0  0  0  0  0  0  0  0  0  0
   26.4984  -23.4193  -16.2661 N   0  0  0  0  0  0  0  0  0  0  0  0
   25.9442  -24.6550  -15.8028 C   0  0  0  0  0  0  0  0  0  0  0  0
   26.3442  -25.7559  -16.3305 N   0  0  0  0  0  0  0  0  0  0  0  0
   24.9671  -24.6165  -14.7709 N   0  0  0  0  0  0  0  0  0  0  0  0
   24.5231  -23.3338  -14.2946 C   0  0  0  0  0  0  0  0  0  0  0  0
   24.9641  -23.0960  -12.8972 C   0  0  0  0  0  0  0  0  0  0  0  0
   24.5122  -21.8463  -12.2448 C   0  0  0  0  0  0  0  0  0  0  0  0
   23.5348  -21.0090  -13.0085 C   0  0  2  0  0  0  0  0  0  0  0  0
   24.2256  -19.9777  -13.7527 N   0  0  0  0  0  0  0  0  0  0  0  0
   22.4049  -20.4887  -12.2342 C   0  0  0  0  0  0  0  0  0  0  0  0
   22.5243  -19.4544  -11.5093 O   0  0  0  0  0  0  0  0  0  0  0  0
   21.1678  -21.1019  -12.2641 O   0  0  0  0  0  0  0  0  0  0  0  0
  2  1  1  0
  2  3  1  0
  3  5  1  0
  3  4  1  6
  5  7  1  0
  5  6  1  1
  7  9  1  0
  8  7  2  0
  9 10  1  0
 11 12  2  0
 11 10  1  0
 14 13  1  0
 14 15  2  0
 16 14  1  0
 17 16  1  0
 18 17  1  0
 18 19  1  0
 20 19  1  1
 20 21  1  0
 21 11  1  0
 22 20  1  0
 22 24  1  0
 23 22  2  0
M  END
$$$$
