IGR.pdb
     RDKit          3D

 24 23  0  0  1  0  0  0  0  0999 V2000
   21.4599  -23.2480  -15.3051 C   0  0  0  0  0  0  0  0  0  0  0  0
   20.8430  -21.9483  -14.8804 C   0  0  0  0  0  0  0  0  0  0  0  0
   21.3104  -20.7730  -15.7039 C   0  0  2  0  0  0  0  0  0  0  0  0
   21.6667  -21.2141  -17.0876 C   0  0  0  0  0  0  0  0  0  0  0  0
   22.4666  -20.1131  -14.9784 C   0  0  2  0  0  0  0  0  0  0  0  0
   23.5218  -21.1260  -14.7485 N   0  0  0  0  0  0  0  0  0  0  0  0
   21.9892  -19.6826  -13.6463 C   0  0  0  0  0  0  0  0  0  0  0  0
   21.0111  -18.8668  -13.5876 O   0  0  0  0  0  0  0  0  0  0  0  0
   22.5263  -20.1019  -12.4101 N   0  0  0  0  0  0  0  0  0  0  0  0
   21.8938  -19.7322  -11.1605 C   0  0  0  0  0  0  0  0  0  0  0  0
   20.8643  -20.7484  -10.8287 C   0  0  0  0  0  0  0  0  0  0  0  0
   19.6711  -20.4084  -10.7012 O   0  0  0  0  0  0  0  0  0  0  0  0
   18.5762  -25.6920   -4.6161 N   0  0  0  0  0  0  0  0  0  0  0  0
   17.7085  -26.1178   -5.6718 C   0  0  0  0  0  0  0  0  0  0  0  0
   16.9674  -27.1519   -5.4927 N   0  0  0  0  0  0  0  0  0  0  0  0
   17.6999  -25.3762   -6.8846 N   0  0  0  0  0  0  0  0  0  0  0  0
   18.7632  -24.4366   -7.1212 C   0  0  0  0  0  0  0  0  0  0  0  0
   18.5946  -23.7497   -8.4264 C   0  0  0  0  0  0  0  0  0  0  0  0
   19.7065  -22.8898   -8.8910 C   0  0  0  0  0  0  0  0  0  0  0  0
   20.1434  -23.0707  -10.3109 C   0  0  2  0  0  0  0  0  0  0  0  0
   21.1811  -22.1191  -10.6457 N   0  0  0  0  0  0  0  0  0  0  0  0
   19.0678  -23.1096  -11.3051 C   0  0  0  0  0  0  0  0  0  0  0  0
   18.7326  -24.1948  -11.8703 O   0  0  0  0  0  0  0  0  0  0  0  0
   18.3773  -21.9687  -11.6643 O   0  0  0  0  0  0  0  0  0  0  0  0
  2  1  1  0
  2  3  1  0
  3  5  1  0
  3  4  1  6
  5  7  1  0
  5  6  1  1
  7  9  1  0
  8  7  2  0
  9 10  1  0
 11 12  2  0
 11 10  1  0
 14 13  1  0
 14 15  2  0
 16 14  1  0
 17 16  1  0
 18 17  1  0
 18 19  1  0
 20 19  1  1
 20 21  1  0
 21 11  1  0
 22 20  1  0
 22 24  1  0
 23 22  2  0
M  END
$$$$
