IGR.pdb
     RDKit          3D

 24 23  0  0  1  0  0  0  0  0999 V2000
   28.0245  -14.5005  -19.2739 C   0  0  0  0  0  0  0  0  0  0  0  0
   27.2277  -15.7709  -19.3148 C   0  0  0  0  0  0  0  0  0  0  0  0
   27.0625  -16.4110  -17.9580 C   0  0  2  0  0  0  0  0  0  0  0  0
   28.3971  -16.7499  -17.3748 C   0  0  0  0  0  0  0  0  0  0  0  0
   26.1598  -17.6198  -18.1088 C   0  0  2  0  0  0  0  0  0  0  0  0
   24.9556  -17.2198  -18.8718 N   0  0  0  0  0  0  0  0  0  0  0  0
   25.6992  -18.0218  -16.7620 C   0  0  0  0  0  0  0  0  0  0  0  0
   25.1565  -17.1393  -16.0188 O   0  0  0  0  0  0  0  0  0  0  0  0
   25.8055  -19.3184  -16.2144 N   0  0  0  0  0  0  0  0  0  0  0  0
   25.3957  -19.5860  -14.8510 C   0  0  0  0  0  0  0  0  0  0  0  0
   23.9407  -19.8784  -14.8397 C   0  0  0  0  0  0  0  0  0  0  0  0
   23.1994  -19.3873  -15.7142 O   0  0  0  0  0  0  0  0  0  0  0  0
   24.3054  -20.7901  -10.4280 N   0  0  0  0  0  0  0  0  0  0  0  0
   23.5447  -20.7088   -9.2183 C   0  0  0  0  0  0  0  0  0  0  0  0
   24.0725  -21.1154   -8.1198 N   0  0  0  0  0  0  0  0  0  0  0  0
   22.2272  -20.1782   -9.2790 N   0  0  0  0  0  0  0  0  0  0  0  0
   21.4331  -20.4469  -10.4480 C   0  0  0  0  0  0  0  0  0  0  0  0
   21.9301  -19.6877  -11.6230 C   0  0  0  0  0  0  0  0  0  0  0  0
   21.2553  -19.9227  -12.9195 C   0  0  0  0  0  0  0  0  0  0  0  0
   21.9062  -20.9032  -13.8439 C   0  0  2  0  0  0  0  0  0  0  0  0
   23.3403  -20.7090  -13.8587 N   0  0  0  0  0  0  0  0  0  0  0  0
   21.3313  -20.9841  -15.1892 C   0  0  0  0  0  0  0  0  0  0  0  0
   21.7414  -20.2340  -16.1265 O   0  0  0  0  0  0  0  0  0  0  0  0
   20.3234  -21.8793  -15.4893 O   0  0  0  0  0  0  0  0  0  0  0  0
  2  1  1  0
  2  3  1  0
  3  5  1  0
  3  4  1  6
  5  7  1  0
  5  6  1  6
  7  9  1  0
  8  7  2  0
  9 10  1  0
 11 12  2  0
 11 10  1  0
 14 13  1  0
 14 15  2  0
 16 14  1  0
 17 16  1  0
 18 17  1  0
 18 19  1  0
 20 19  1  6
 20 21  1  0
 21 11  1  0
 22 20  1  0
 22 24  1  0
 23 22  2  0
M  END
$$$$
