IGR.pdb
     RDKit          3D

 24 23  0  0  1  0  0  0  0  0999 V2000
   42.6812  -16.3932   -8.7801 C   0  0  0  0  0  0  0  0  0  0  0  0
   43.6570  -15.2868   -8.5081 C   0  0  0  0  0  0  0  0  0  0  0  0
   43.1759  -13.9400   -8.9900 C   0  0  2  0  0  0  0  0  0  0  0  0
   42.7511  -14.0192  -10.4216 C   0  0  0  0  0  0  0  0  0  0  0  0
   44.2810  -12.9284   -8.7571 C   0  0  2  0  0  0  0  0  0  0  0  0
   44.4941  -12.7869   -7.2987 N   0  0  0  0  0  0  0  0  0  0  0  0
   43.8146  -11.6145   -9.2510 C   0  0  0  0  0  0  0  0  0  0  0  0
   43.2144  -10.8391   -8.4360 O   0  0  0  0  0  0  0  0  0  0  0  0
   43.9781  -11.1303  -10.5667 N   0  0  0  0  0  0  0  0  0  0  0  0
   43.7762   -9.7292  -10.8741 C   0  0  0  0  0  0  0  0  0  0  0  0
   42.3189   -9.4708  -10.9836 C   0  0  0  0  0  0  0  0  0  0  0  0
   41.5109  -10.4183  -10.9136 O   0  0  0  0  0  0  0  0  0  0  0  0
   38.2513   -6.0127   -5.8543 N   0  0  0  0  0  0  0  0  0  0  0  0
   37.0435   -6.2408   -6.5878 C   0  0  0  0  0  0  0  0  0  0  0  0
   35.9656   -6.5176   -5.9460 N   0  0  0  0  0  0  0  0  0  0  0  0
   37.0833   -6.1518   -8.0061 N   0  0  0  0  0  0  0  0  0  0  0  0
   38.3469   -5.8892   -8.6414 C   0  0  0  0  0  0  0  0  0  0  0  0
   38.7303   -6.9943   -9.5555 C   0  0  0  0  0  0  0  0  0  0  0  0
   39.9549   -6.8119  -10.3670 C   0  0  0  0  0  0  0  0  0  0  0  0
   40.3591   -7.9618  -11.2353 C   0  0  2  0  0  0  0  0  0  0  0  0
   41.7901   -8.1674  -11.1682 N   0  0  0  0  0  0  0  0  0  0  0  0
   39.8558   -7.9251  -12.6109 C   0  0  0  0  0  0  0  0  0  0  0  0
   38.6126   -7.8605  -12.8555 O   0  0  0  0  0  0  0  0  0  0  0  0
   40.7133   -7.9583  -13.6929 O   0  0  0  0  0  0  0  0  0  0  0  0
  2  1  1  0
  2  3  1  0
  3  5  1  0
  3  4  1  6
  5  7  1  0
  5  6  1  1
  7  9  1  0
  8  7  2  0
  9 10  1  0
 11 12  2  0
 11 10  1  0
 14 13  1  0
 14 15  2  0
 16 14  1  0
 17 16  1  0
 18 17  1  0
 18 19  1  0
 20 19  1  6
 20 21  1  0
 21 11  1  0
 22 20  1  0
 22 24  1  0
 23 22  2  0
M  END
$$$$
