IGR.pdb
     RDKit          3D

 24 23  0  0  1  0  0  0  0  0999 V2000
   24.1858  -20.6800  -17.8496 C   0  0  0  0  0  0  0  0  0  0  0  0
   24.5235  -21.0092  -16.4256 C   0  0  0  0  0  0  0  0  0  0  0  0
   23.4345  -20.6250  -15.4539 C   0  0  2  0  0  0  0  0  0  0  0  0
   23.1455  -19.1608  -15.5461 C   0  0  0  0  0  0  0  0  0  0  0  0
   23.8623  -21.0562  -14.0647 C   0  0  2  0  0  0  0  0  0  0  0  0
   24.0802  -22.5207  -14.0692 N   0  0  0  0  0  0  0  0  0  0  0  0
   22.7423  -20.7930  -13.1353 C   0  0  0  0  0  0  0  0  0  0  0  0
   22.6001  -19.6118  -12.6768 O   0  0  0  0  0  0  0  0  0  0  0  0
   21.7968  -21.7476  -12.7025 N   0  0  0  0  0  0  0  0  0  0  0  0
   20.7059  -21.3704  -11.8274 C   0  0  0  0  0  0  0  0  0  0  0  0
   19.9739  -22.5965  -11.4231 C   0  0  0  0  0  0  0  0  0  0  0  0
   20.4153  -23.7191  -11.7402 O   0  0  0  0  0  0  0  0  0  0  0  0
   19.5301  -22.1295  -15.1306 N   0  0  0  0  0  0  0  0  0  0  0  0
   19.3683  -23.4239  -15.7198 C   0  0  0  0  0  0  0  0  0  0  0  0
   20.1142  -23.7565  -16.7116 N   0  0  0  0  0  0  0  0  0  0  0  0
   18.3832  -24.2965  -15.1822 N   0  0  0  0  0  0  0  0  0  0  0  0
   17.5698  -23.8244  -14.0936 C   0  0  0  0  0  0  0  0  0  0  0  0
   17.8946  -24.5345  -12.8311 C   0  0  0  0  0  0  0  0  0  0  0  0
   17.1749  -24.1117  -11.6085 C   0  0  0  0  0  0  0  0  0  0  0  0
   18.0187  -23.7619  -10.4231 C   0  0  2  0  0  0  0  0  0  0  0  0
   18.7687  -22.5504  -10.6762 N   0  0  0  0  0  0  0  0  0  0  0  0
   18.8531  -24.8455   -9.8969 C   0  0  0  0  0  0  0  0  0  0  0  0
   20.0911  -24.9127  -10.1655 O   0  0  0  0  0  0  0  0  0  0  0  0
   18.3257  -25.8333   -9.0887 O   0  0  0  0  0  0  0  0  0  0  0  0
  2  1  1  0
  2  3  1  0
  3  5  1  0
  3  4  1  1
  5  7  1  0
  5  6  1  6
  7  9  1  0
  8  7  2  0
  9 10  1  0
 11 12  2  0
 11 10  1  0
 14 13  1  0
 14 15  2  0
 16 14  1  0
 17 16  1  0
 18 17  1  0
 18 19  1  0
 20 19  1  6
 20 21  1  0
 21 11  1  0
 22 20  1  0
 22 24  1  0
 23 22  2  0
M  END
$$$$
