IGR.pdb
     RDKit          3D

 24 23  0  0  1  0  0  0  0  0999 V2000
   17.7483  -23.2965   -9.1798 C   0  0  0  0  0  0  0  0  0  0  0  0
   18.9846  -23.2897   -8.3303 C   0  0  0  0  0  0  0  0  0  0  0  0
   19.9996  -22.2624   -8.7688 C   0  0  2  0  0  0  0  0  0  0  0  0
   20.3216  -22.4328  -10.2191 C   0  0  0  0  0  0  0  0  0  0  0  0
   21.2181  -22.3854   -7.8749 C   0  0  2  0  0  0  0  0  0  0  0  0
   20.8122  -22.1041   -6.4791 N   0  0  0  0  0  0  0  0  0  0  0  0
   22.1813  -21.3315   -8.2613 C   0  0  0  0  0  0  0  0  0  0  0  0
   21.7639  -20.1295   -8.3427 O   0  0  0  0  0  0  0  0  0  0  0  0
   23.5471  -21.5382   -8.5516 N   0  0  0  0  0  0  0  0  0  0  0  0
   24.3863  -20.4454   -8.9985 C   0  0  0  0  0  0  0  0  0  0  0  0
   24.3014  -20.3538  -10.4774 C   0  0  0  0  0  0  0  0  0  0  0  0
   23.5396  -19.5206  -11.0076 O   0  0  0  0  0  0  0  0  0  0  0  0
   29.6441  -23.1181  -17.0456 N   0  0  0  0  0  0  0  0  0  0  0  0
   28.7587  -22.1676  -17.6467 C   0  0  0  0  0  0  0  0  0  0  0  0
   28.9115  -21.8686  -18.8868 N   0  0  0  0  0  0  0  0  0  0  0  0
   27.7386  -21.5878  -16.8442 N   0  0  0  0  0  0  0  0  0  0  0  0
   27.5083  -22.1289  -15.5314 C   0  0  0  0  0  0  0  0  0  0  0  0
   26.3444  -21.4795  -14.8775 C   0  0  0  0  0  0  0  0  0  0  0  0
   26.2681  -21.5487  -13.4007 C   0  0  0  0  0  0  0  0  0  0  0  0
   25.0353  -20.9837  -12.7677 C   0  0  2  0  0  0  0  0  0  0  0  0
   25.0633  -21.1881  -11.3353 N   0  0  0  0  0  0  0  0  0  0  0  0
   23.7661  -21.3944  -13.3741 C   0  0  0  0  0  0  0  0  0  0  0  0
   23.1426  -22.4206  -12.9647 O   0  0  0  0  0  0  0  0  0  0  0  0
   23.1996  -20.6811  -14.4121 O   0  0  0  0  0  0  0  0  0  0  0  0
  2  1  1  0
  2  3  1  0
  3  5  1  0
  3  4  1  6
  5  7  1  0
  5  6  1  1
  7  9  1  0
  8  7  2  0
  9 10  1  0
 11 12  2  0
 11 10  1  0
 14 13  1  0
 14 15  2  0
 16 14  1  0
 17 16  1  0
 18 17  1  0
 18 19  1  0
 20 19  1  6
 20 21  1  0
 21 11  1  0
 22 20  1  0
 22 24  1  0
 23 22  2  0
M  END
$$$$
