IGR.pdb
     RDKit          3D

 24 23  0  0  1  0  0  0  0  0999 V2000
   28.3509  -18.7411  -16.7385 C   0  0  0  0  0  0  0  0  0  0  0  0
   27.7027  -19.8564  -15.9729 C   0  0  0  0  0  0  0  0  0  0  0  0
   26.4333  -19.4359  -15.2731 C   0  0  2  0  0  0  0  0  0  0  0  0
   26.7161  -18.3447  -14.2905 C   0  0  0  0  0  0  0  0  0  0  0  0
   25.8146  -20.6625  -14.6317 C   0  0  2  0  0  0  0  0  0  0  0  0
   25.6835  -21.7198  -15.6599 N   0  0  0  0  0  0  0  0  0  0  0  0
   24.4439  -20.3142  -14.1987 C   0  0  0  0  0  0  0  0  0  0  0  0
   23.5943  -19.9789  -15.0882 O   0  0  0  0  0  0  0  0  0  0  0  0
   23.9808  -20.3212  -12.8653 N   0  0  0  0  0  0  0  0  0  0  0  0
   22.6268  -19.9172  -12.5460 C   0  0  0  0  0  0  0  0  0  0  0  0
   21.7775  -21.1306  -12.4514 C   0  0  0  0  0  0  0  0  0  0  0  0
   22.2286  -22.2367  -12.8100 O   0  0  0  0  0  0  0  0  0  0  0  0
   17.4841  -24.7621   -6.0164 N   0  0  0  0  0  0  0  0  0  0  0  0
   17.8437  -25.8105   -6.9222 C   0  0  0  0  0  0  0  0  0  0  0  0
   17.6458  -27.0314   -6.5749 N   0  0  0  0  0  0  0  0  0  0  0  0
   18.4092  -25.4585   -8.1781 N   0  0  0  0  0  0  0  0  0  0  0  0
   18.5480  -24.0636   -8.5008 C   0  0  0  0  0  0  0  0  0  0  0  0
   19.1876  -23.8786   -9.8276 C   0  0  0  0  0  0  0  0  0  0  0  0
   19.3829  -22.4895  -10.3007 C   0  0  0  0  0  0  0  0  0  0  0  0
   19.7077  -22.3167  -11.7513 C   0  0  2  0  0  0  0  0  0  0  0  0
   20.4468  -21.0902  -11.9613 N   0  0  0  0  0  0  0  0  0  0  0  0
   18.5801  -22.4641  -12.6754 C   0  0  0  0  0  0  0  0  0  0  0  0
   17.8313  -21.4810  -12.9622 O   0  0  0  0  0  0  0  0  0  0  0  0
   18.2898  -23.6762  -13.2700 O   0  0  0  0  0  0  0  0  0  0  0  0
  2  1  1  0
  2  3  1  0
  3  5  1  0
  3  4  1  1
  5  7  1  0
  5  6  1  6
  7  9  1  0
  8  7  2  0
  9 10  1  0
 11 12  2  0
 11 10  1  0
 14 13  1  0
 14 15  2  0
 16 14  1  0
 17 16  1  0
 18 17  1  0
 18 19  1  0
 20 19  1  1
 20 21  1  0
 21 11  1  0
 22 20  1  0
 22 24  1  0
 23 22  2  0
M  END
$$$$
