IGR.pdb
     RDKit          3D

 24 23  0  0  1  0  0  0  0  0999 V2000
   27.9055  -18.2926  -20.7124 C   0  0  0  0  0  0  0  0  0  0  0  0
   28.2155  -17.2524  -19.6769 C   0  0  0  0  0  0  0  0  0  0  0  0
   27.3157  -17.3327  -18.4679 C   0  0  2  0  0  0  0  0  0  0  0  0
   27.2995  -18.7244  -17.9209 C   0  0  0  0  0  0  0  0  0  0  0  0
   25.9387  -16.8385  -18.8657 C   0  0  2  0  0  0  0  0  0  0  0  0
   26.0526  -15.4343  -19.3213 N   0  0  0  0  0  0  0  0  0  0  0  0
   25.0859  -16.8285  -17.6573 C   0  0  0  0  0  0  0  0  0  0  0  0
   25.5046  -16.2080  -16.6252 O   0  0  0  0  0  0  0  0  0  0  0  0
   23.8255  -17.4533  -17.5404 N   0  0  0  0  0  0  0  0  0  0  0  0
   23.0648  -17.3692  -16.3106 C   0  0  0  0  0  0  0  0  0  0  0  0
   23.2017  -18.6522  -15.5773 C   0  0  0  0  0  0  0  0  0  0  0  0
   23.4553  -19.7024  -16.2004 O   0  0  0  0  0  0  0  0  0  0  0  0
   21.4741  -20.5049   -8.8851 N   0  0  0  0  0  0  0  0  0  0  0  0
   22.3759  -21.4692   -8.3322 C   0  0  0  0  0  0  0  0  0  0  0  0
   21.9496  -22.2775   -7.4293 N   0  0  0  0  0  0  0  0  0  0  0  0
   23.7160  -21.4956   -8.8060 N   0  0  0  0  0  0  0  0  0  0  0  0
   24.1286  -20.4933   -9.7518 C   0  0  0  0  0  0  0  0  0  0  0  0
   23.5196  -20.7275  -11.0852 C   0  0  0  0  0  0  0  0  0  0  0  0
   23.9181  -19.8191  -12.1840 C   0  0  0  0  0  0  0  0  0  0  0  0
   23.2242  -20.0117  -13.4958 C   0  0  2  0  0  0  0  0  0  0  0  0
   23.0542  -18.7419  -14.1691 N   0  0  0  0  0  0  0  0  0  0  0  0
   21.9890  -20.7987  -13.4501 C   0  0  0  0  0  0  0  0  0  0  0  0
   20.8650  -20.2482  -13.2427 O   0  0  0  0  0  0  0  0  0  0  0  0
   22.0000  -22.1676  -13.6318 O   0  0  0  0  0  0  0  0  0  0  0  0
  2  1  1  0
  2  3  1  0
  3  5  1  0
  3  4  1  6
  5  7  1  0
  5  6  1  1
  7  9  1  0
  8  7  2  0
  9 10  1  0
 11 12  2  0
 11 10  1  0
 14 13  1  0
 14 15  2  0
 16 14  1  0
 17 16  1  0
 18 17  1  0
 18 19  1  0
 20 19  1  1
 20 21  1  0
 21 11  1  0
 22 20  1  0
 22 24  1  0
 23 22  2  0
M  END
$$$$
