IGR.pdb
     RDKit          3D

 24 23  0  0  1  0  0  0  0  0999 V2000
   17.3998  -28.6845   -2.2565 C   0  0  0  0  0  0  0  0  0  0  0  0
   17.5703  -27.2681   -2.7202 C   0  0  0  0  0  0  0  0  0  0  0  0
   17.3009  -27.0904   -4.1945 C   0  0  2  0  0  0  0  0  0  0  0  0
   18.2163  -27.9557   -5.0003 C   0  0  0  0  0  0  0  0  0  0  0  0
   17.4344  -25.6175   -4.5286 C   0  0  2  0  0  0  0  0  0  0  0  0
   16.4132  -24.8641   -3.7660 N   0  0  0  0  0  0  0  0  0  0  0  0
   17.1158  -25.4395   -5.9620 C   0  0  0  0  0  0  0  0  0  0  0  0
   15.8904  -25.3599   -6.3050 O   0  0  0  0  0  0  0  0  0  0  0  0
   18.0625  -25.3457   -7.0048 N   0  0  0  0  0  0  0  0  0  0  0  0
   17.6431  -25.1111   -8.3713 C   0  0  0  0  0  0  0  0  0  0  0  0
   18.8504  -24.9456   -9.2183 C   0  0  0  0  0  0  0  0  0  0  0  0
   19.9634  -25.3192   -8.7971 O   0  0  0  0  0  0  0  0  0  0  0  0
   20.6522  -28.0255  -15.5117 N   0  0  0  0  0  0  0  0  0  0  0  0
   21.7716  -28.5394  -14.7826 C   0  0  0  0  0  0  0  0  0  0  0  0
   22.8605  -28.8010  -15.4123 N   0  0  0  0  0  0  0  0  0  0  0  0
   21.6349  -28.7418  -13.3822 N   0  0  0  0  0  0  0  0  0  0  0  0
   20.3923  -28.3783  -12.7550 C   0  0  0  0  0  0  0  0  0  0  0  0
   20.5119  -27.0882  -12.0302 C   0  0  0  0  0  0  0  0  0  0  0  0
   19.3079  -26.5880  -11.3291 C   0  0  0  0  0  0  0  0  0  0  0  0
   18.8476  -25.2106  -11.6904 C   0  0  2  0  0  0  0  0  0  0  0  0
   18.7967  -24.3696  -10.5137 N   0  0  0  0  0  0  0  0  0  0  0  0
   17.6218  -25.1411  -12.4900 C   0  0  0  0  0  0  0  0  0  0  0  0
   16.4814  -25.3191  -11.9635 O   0  0  0  0  0  0  0  0  0  0  0  0
   17.6597  -24.8785  -13.8454 O   0  0  0  0  0  0  0  0  0  0  0  0
  2  1  1  0
  2  3  1  0
  3  5  1  0
  3  4  1  6
  5  7  1  0
  5  6  1  1
  7  9  1  0
  8  7  2  0
  9 10  1  0
 11 12  2  0
 11 10  1  0
 14 13  1  0
 14 15  2  0
 16 14  1  0
 17 16  1  0
 18 17  1  0
 18 19  1  0
 20 19  1  1
 20 21  1  0
 21 11  1  0
 22 20  1  0
 22 24  1  0
 23 22  2  0
M  END
$$$$
