IGR.pdb
     RDKit          3D

 24 23  0  0  1  0  0  0  0  0999 V2000
   29.0518  -21.1767  -16.8809 C   0  0  0  0  0  0  0  0  0  0  0  0
   28.3786  -21.4220  -15.5630 C   0  0  0  0  0  0  0  0  0  0  0  0
   26.9596  -20.9098  -15.5176 C   0  0  2  0  0  0  0  0  0  0  0  0
   26.1753  -21.4424  -16.6740 C   0  0  0  0  0  0  0  0  0  0  0  0
   27.0014  -19.3947  -15.4801 C   0  0  2  0  0  0  0  0  0  0  0  0
   27.8898  -18.9724  -14.3735 N   0  0  0  0  0  0  0  0  0  0  0  0
   25.6453  -18.9044  -15.1511 C   0  0  0  0  0  0  0  0  0  0  0  0
   25.1447  -19.2188  -14.0214 O   0  0  0  0  0  0  0  0  0  0  0  0
   24.8398  -18.1030  -15.9886 N   0  0  0  0  0  0  0  0  0  0  0  0
   23.5128  -17.6947  -15.5754 C   0  0  0  0  0  0  0  0  0  0  0  0
   22.5791  -18.8294  -15.7831 C   0  0  0  0  0  0  0  0  0  0  0  0
   23.0187  -19.9416  -16.1372 O   0  0  0  0  0  0  0  0  0  0  0  0
   23.8133  -23.7600  -14.3251 N   0  0  0  0  0  0  0  0  0  0  0  0
   22.8032  -24.4670  -13.5980 C   0  0  0  0  0  0  0  0  0  0  0  0
   23.0215  -25.6837  -13.2479 N   0  0  0  0  0  0  0  0  0  0  0  0
   21.5907  -23.7921  -13.2895 N   0  0  0  0  0  0  0  0  0  0  0  0
   21.1856  -22.6935  -14.1252 C   0  0  0  0  0  0  0  0  0  0  0  0
   21.7849  -21.4161  -13.6638 C   0  0  0  0  0  0  0  0  0  0  0  0
   20.9319  -20.2073  -13.7145 C   0  0  0  0  0  0  0  0  0  0  0  0
   20.4123  -19.8116  -15.0610 C   0  0  2  0  0  0  0  0  0  0  0  0
   21.1786  -18.7055  -15.5937 N   0  0  0  0  0  0  0  0  0  0  0  0
   18.9661  -19.5904  -15.1426 C   0  0  0  0  0  0  0  0  0  0  0  0
   18.1987  -20.4451  -15.6812 O   0  0  0  0  0  0  0  0  0  0  0  0
   18.3828  -18.4456  -14.6362 O   0  0  0  0  0  0  0  0  0  0  0  0
  2  1  1  0
  2  3  1  0
  3  5  1  0
  3  4  1  6
  5  7  1  0
  5  6  1  1
  7  9  1  0
  8  7  2  0
  9 10  1  0
 11 12  2  0
 11 10  1  0
 14 13  1  0
 14 15  2  0
 16 14  1  0
 17 16  1  0
 18 17  1  0
 18 19  1  0
 20 19  1  1
 20 21  1  0
 21 11  1  0
 22 20  1  0
 22 24  1  0
 23 22  2  0
M  END
$$$$
