HFL.pdb
     RDKit          3D

 30 31  0  0  1  0  0  0  0  0999 V2000
   11.3512  -16.7243   19.5509 N   0  0  0  0  0  0  0  0  0  0  0  0
   10.9145  -17.4476   20.7028 C   0  0  1  0  0  0  0  0  0  0  0  0
   11.9211  -18.5244   21.1068 C   0  0  0  0  0  0  0  0  0  0  0  0
   11.8099  -19.5930   20.0705 C   0  0  0  0  0  0  0  0  0  0  0  0
   10.8715  -19.7271   19.0659 C   0  0  0  0  0  0  0  0  0  0  0  0
   11.1088  -20.8340   18.3260 N   0  0  0  0  0  0  0  0  0  0  0  0
   12.2008  -21.3977   18.8679 C   0  0  0  0  0  0  0  0  0  0  0  0
   12.6339  -20.6700   19.9116 N   0  0  0  0  0  0  0  0  0  0  0  0
   10.6619  -16.5070   21.8147 C   0  0  0  0  0  0  0  0  0  0  0  0
   11.5892  -15.7672   22.2207 O   0  0  0  0  0  0  0  0  0  0  0  0
    9.3751  -16.4547   22.4062 N   0  0  0  0  0  0  0  0  0  0  0  0
    9.0873  -15.6177   23.5835 C   0  0  1  0  0  0  0  0  0  0  0  0
    7.6863  -15.1428   23.4133 C   0  0  0  0  0  0  0  0  0  0  0  0
    7.1744  -14.2342   24.4335 C   0  0  0  0  0  0  0  0  0  0  0  0
    6.2833  -14.7116   25.3772 C   0  0  0  0  0  0  0  0  0  0  0  0
    5.7689  -13.8807   26.3790 C   0  0  0  0  0  0  0  0  0  0  0  0
    6.1340  -12.5667   26.4539 C   0  0  0  0  0  0  0  0  0  0  0  0
    7.0195  -12.0897   25.5168 C   0  0  0  0  0  0  0  0  0  0  0  0
    7.5187  -12.9054   24.5409 C   0  0  0  0  0  0  0  0  0  0  0  0
    9.1783  -16.4539   24.7985 C   0  0  0  0  0  0  0  0  0  0  0  0
    8.9656  -17.6883   24.7209 O   0  0  0  0  0  0  0  0  0  0  0  0
   11.1471  -14.1724   27.2680 C   0  0  0  0  0  0  0  0  0  0  0  0
   10.7530  -14.8120   28.5798 C   0  0  1  0  0  0  0  0  0  0  0  0
   10.2551  -13.6717   29.4788 C   0  0  0  0  0  0  0  0  0  0  0  0
    9.6153  -15.7665   28.4374 C   0  0  0  0  0  0  0  0  0  0  0  0
    9.7216  -16.6818   27.2474 C   0  0  2  0  0  0  0  0  0  0  0  0
    9.5048  -15.8634   26.0477 N   0  0  0  0  0  0  0  0  0  0  0  0
    8.7818  -17.8060   27.2961 C   0  0  0  0  0  0  0  0  0  0  0  0
    7.6320  -17.7043   26.8025 O   0  0  0  0  0  0  0  0  0  0  0  0
    9.1367  -19.0060   27.8859 O   0  0  0  0  0  0  0  0  0  0  0  0
  2  3  1  0
  2  1  1  6
  3  4  1  0
  4  5  2  0
  5  6  1  0
  7  6  1  0
  8  4  1  0
  8  7  2  0
  9 11  1  0
  9  2  1  0
 10  9  2  0
 12 11  1  0
 12 13  1  6
 13 14  1  0
 14 15  2  0
 14 19  1  0
 15 16  1  0
 16 17  2  0
 18 17  1  0
 19 18  2  0
 20 12  1  0
 21 20  2  0
 23 22  1  6
 23 25  1  0
 24 23  1  0
 26 25  1  1
 26 28  1  0
 26 27  1  0
 27 20  1  0
 28 30  1  0
 29 28  2  0
M  END
$$$$
