HFL.pdb
     RDKit          3D

 30 31  0  0  1  0  0  0  0  0999 V2000
   10.5306  -17.2454   19.0739 N   0  0  0  0  0  0  0  0  0  0  0  0
   10.3753  -17.7817   20.3888 C   0  0  1  0  0  0  0  0  0  0  0  0
   11.5219  -18.7250   20.7514 C   0  0  0  0  0  0  0  0  0  0  0  0
   11.3768  -19.9055   19.8493 C   0  0  0  0  0  0  0  0  0  0  0  0
   10.2964  -20.7539   19.7046 C   0  0  0  0  0  0  0  0  0  0  0  0
   10.5511  -21.7096   18.7824 N   0  0  0  0  0  0  0  0  0  0  0  0
   11.7967  -21.4607   18.3457 C   0  0  0  0  0  0  0  0  0  0  0  0
   12.3060  -20.3862   18.9721 N   0  0  0  0  0  0  0  0  0  0  0  0
   10.2607  -16.6785   21.3658 C   0  0  0  0  0  0  0  0  0  0  0  0
   11.1456  -15.7909   21.4020 O   0  0  0  0  0  0  0  0  0  0  0  0
    9.1523  -16.6395   22.2480 N   0  0  0  0  0  0  0  0  0  0  0  0
    9.0189  -15.6110   23.2938 C   0  0  1  0  0  0  0  0  0  0  0  0
    7.6050  -15.1479   23.2322 C   0  0  0  0  0  0  0  0  0  0  0  0
    7.2018  -14.1433   24.2102 C   0  0  0  0  0  0  0  0  0  0  0  0
    7.6951  -12.8561   24.0987 C   0  0  0  0  0  0  0  0  0  0  0  0
    7.3333  -11.8562   25.0086 C   0  0  0  0  0  0  0  0  0  0  0  0
    6.4778  -12.1243   26.0389 C   0  0  0  0  0  0  0  0  0  0  0  0
    5.9862  -13.4030   26.1521 C   0  0  0  0  0  0  0  0  0  0  0  0
    6.3427  -14.3754   25.2609 C   0  0  0  0  0  0  0  0  0  0  0  0
    9.2758  -16.2314   24.6102 C   0  0  0  0  0  0  0  0  0  0  0  0
    8.6840  -17.2930   24.9231 O   0  0  0  0  0  0  0  0  0  0  0  0
   11.8486  -14.0143   28.1138 C   0  0  0  0  0  0  0  0  0  0  0  0
   10.6530  -14.6343   28.8004 C   0  0  1  0  0  0  0  0  0  0  0  0
    9.8540  -13.4698   29.4017 C   0  0  0  0  0  0  0  0  0  0  0  0
    9.7377  -15.3292   27.8490 C   0  0  0  0  0  0  0  0  0  0  0  0
   10.4385  -16.2038   26.8443 C   0  0  2  0  0  0  0  0  0  0  0  0
   10.1876  -15.6291   25.5166 N   0  0  0  0  0  0  0  0  0  0  0  0
   10.0136  -17.6057   26.9013 C   0  0  0  0  0  0  0  0  0  0  0  0
   10.8549  -18.5272   27.0403 O   0  0  0  0  0  0  0  0  0  0  0  0
    8.6771  -17.9496   26.8036 O   0  0  0  0  0  0  0  0  0  0  0  0
  2  3  1  0
  2  1  1  6
  3  4  1  0
  4  5  2  0
  5  6  1  0
  7  6  1  0
  8  4  1  0
  8  7  2  0
  9 11  1  0
  9  2  1  0
 10  9  2  0
 12 11  1  0
 12 13  1  1
 13 14  1  0
 14 15  2  0
 14 19  1  0
 15 16  1  0
 16 17  2  0
 18 17  1  0
 19 18  2  0
 20 12  1  0
 21 20  2  0
 23 22  1  6
 23 25  1  0
 24 23  1  0
 26 25  1  1
 26 28  1  0
 26 27  1  0
 27 20  1  0
 28 30  1  0
 29 28  2  0
M  END
$$$$
