HFL.pdb
     RDKit          3D

 30 31  0  0  1  0  0  0  0  0999 V2000
   10.6896  -16.9710   19.7238 N   0  0  0  0  0  0  0  0  0  0  0  0
    9.7974  -17.4847   20.7143 C   0  0  1  0  0  0  0  0  0  0  0  0
   10.1301  -18.9320   21.0758 C   0  0  0  0  0  0  0  0  0  0  0  0
    9.8153  -19.7368   19.8585 C   0  0  0  0  0  0  0  0  0  0  0  0
    9.1636  -19.3412   18.7067 C   0  0  0  0  0  0  0  0  0  0  0  0
    9.0709  -20.3641   17.8270 N   0  0  0  0  0  0  0  0  0  0  0  0
    9.6668  -21.4068   18.4285 C   0  0  0  0  0  0  0  0  0  0  0  0
   10.1179  -21.0507   19.6434 N   0  0  0  0  0  0  0  0  0  0  0  0
    9.8259  -16.6147   21.9088 C   0  0  0  0  0  0  0  0  0  0  0  0
   10.8761  -15.9925   22.1950 O   0  0  0  0  0  0  0  0  0  0  0  0
    8.6657  -16.4961   22.7139 N   0  0  0  0  0  0  0  0  0  0  0  0
    8.6527  -15.7090   23.9588 C   0  0  1  0  0  0  0  0  0  0  0  0
    7.2176  -15.4649   24.2719 C   0  0  0  0  0  0  0  0  0  0  0  0
    6.9070  -14.2474   25.0133 C   0  0  0  0  0  0  0  0  0  0  0  0
    5.9362  -14.2852   25.9976 C   0  0  0  0  0  0  0  0  0  0  0  0
    5.6070  -13.1454   26.7398 C   0  0  0  0  0  0  0  0  0  0  0  0
    6.2383  -11.9559   26.5122 C   0  0  0  0  0  0  0  0  0  0  0  0
    7.2036  -11.9156   25.5342 C   0  0  0  0  0  0  0  0  0  0  0  0
    7.5211  -13.0316   24.8126 C   0  0  0  0  0  0  0  0  0  0  0  0
    9.2615  -16.5127   25.0392 C   0  0  0  0  0  0  0  0  0  0  0  0
    9.2603  -17.7651   24.9583 O   0  0  0  0  0  0  0  0  0  0  0  0
    9.7873  -13.7881   29.6698 C   0  0  0  0  0  0  0  0  0  0  0  0
    9.8491  -14.5133   28.3449 C   0  0  1  0  0  0  0  0  0  0  0  0
   10.5430  -13.5563   27.3658 C   0  0  0  0  0  0  0  0  0  0  0  0
   10.6891  -15.7451   28.4002 C   0  0  0  0  0  0  0  0  0  0  0  0
   10.5635  -16.6335   27.1918 C   0  0  2  0  0  0  0  0  0  0  0  0
    9.8447  -15.8710   26.1633 N   0  0  0  0  0  0  0  0  0  0  0  0
    9.8886  -17.9038   27.4750 C   0  0  0  0  0  0  0  0  0  0  0  0
   10.4662  -18.8068   28.1285 O   0  0  0  0  0  0  0  0  0  0  0  0
    8.5999  -18.1403   27.0305 O   0  0  0  0  0  0  0  0  0  0  0  0
  2  3  1  0
  2  1  1  6
  3  4  1  0
  4  5  2  0
  5  6  1  0
  7  6  1  0
  8  4  1  0
  8  7  2  0
  9 11  1  0
  9  2  1  0
 10  9  2  0
 12 11  1  0
 12 13  1  1
 13 14  1  0
 14 15  2  0
 14 19  1  0
 15 16  1  0
 16 17  2  0
 18 17  1  0
 19 18  2  0
 20 12  1  0
 21 20  2  0
 23 22  1  1
 23 25  1  0
 24 23  1  0
 26 25  1  1
 26 28  1  0
 26 27  1  0
 27 20  1  0
 28 30  1  0
 29 28  2  0
M  END
$$$$
