HFL.pdb
     RDKit          3D

 30 31  0  0  1  0  0  0  0  0999 V2000
   11.2846  -17.2197   19.4337 N   0  0  0  0  0  0  0  0  0  0  0  0
   10.4550  -17.7336   20.4771 C   0  0  1  0  0  0  0  0  0  0  0  0
   10.9635  -19.0811   20.9888 C   0  0  0  0  0  0  0  0  0  0  0  0
   10.7663  -20.0428   19.8642 C   0  0  0  0  0  0  0  0  0  0  0  0
    9.6465  -20.7889   19.5525 C   0  0  0  0  0  0  0  0  0  0  0  0
    9.8599  -21.5464   18.4528 N   0  0  0  0  0  0  0  0  0  0  0  0
   11.1191  -21.2753   18.0719 C   0  0  0  0  0  0  0  0  0  0  0  0
   11.6765  -20.3787   18.9036 N   0  0  0  0  0  0  0  0  0  0  0  0
   10.3633  -16.7453   21.5723 C   0  0  0  0  0  0  0  0  0  0  0  0
   11.4050  -16.1833   21.9861 O   0  0  0  0  0  0  0  0  0  0  0  0
    9.0993  -16.4469   22.1393 N   0  0  0  0  0  0  0  0  0  0  0  0
    8.9397  -15.4646   23.2252 C   0  0  1  0  0  0  0  0  0  0  0  0
    7.5279  -14.9975   23.1482 C   0  0  0  0  0  0  0  0  0  0  0  0
    7.1124  -14.0036   24.1319 C   0  0  0  0  0  0  0  0  0  0  0  0
    6.4769  -14.4213   25.2870 C   0  0  0  0  0  0  0  0  0  0  0  0
    6.0647  -13.5068   26.2628 C   0  0  0  0  0  0  0  0  0  0  0  0
    6.2791  -12.1676   26.1016 C   0  0  0  0  0  0  0  0  0  0  0  0
    6.9105  -11.7498   24.9542 C   0  0  0  0  0  0  0  0  0  0  0  0
    7.3109  -12.6471   24.0047 C   0  0  0  0  0  0  0  0  0  0  0  0
    9.1631  -16.1419   24.5194 C   0  0  0  0  0  0  0  0  0  0  0  0
    9.3465  -17.3831   24.5479 O   0  0  0  0  0  0  0  0  0  0  0  0
   12.2827  -14.8497   28.8685 C   0  0  0  0  0  0  0  0  0  0  0  0
   10.7849  -14.8298   29.0719 C   0  0  1  0  0  0  0  0  0  0  0  0
   10.4942  -13.6348   29.9904 C   0  0  0  0  0  0  0  0  0  0  0  0
   10.0340  -14.5836   27.8064 C   0  0  0  0  0  0  0  0  0  0  0  0
   10.0776  -15.7276   26.8294 C   0  0  2  0  0  0  0  0  0  0  0  0
    9.1702  -15.3919   25.7249 N   0  0  0  0  0  0  0  0  0  0  0  0
    9.7223  -17.0164   27.4310 C   0  0  0  0  0  0  0  0  0  0  0  0
   10.5393  -17.6336   28.1575 O   0  0  0  0  0  0  0  0  0  0  0  0
    8.4800  -17.5853   27.2144 O   0  0  0  0  0  0  0  0  0  0  0  0
  2  3  1  0
  2  1  1  6
  3  4  1  0
  4  5  2  0
  5  6  1  0
  7  6  1  0
  8  4  1  0
  8  7  2  0
  9 11  1  0
  9  2  1  0
 10  9  2  0
 12 11  1  0
 12 13  1  1
 13 14  1  0
 14 15  2  0
 14 19  1  0
 15 16  1  0
 16 17  2  0
 18 17  1  0
 19 18  2  0
 20 12  1  0
 21 20  2  0
 23 22  1  6
 23 25  1  0
 24 23  1  0
 26 25  1  1
 26 28  1  0
 26 27  1  0
 27 20  1  0
 28 30  1  0
 29 28  2  0
M  END
$$$$
