HFL.pdb
     RDKit          3D

 30 31  0  0  1  0  0  0  0  0999 V2000
   11.5564  -17.3607   19.7597 N   0  0  0  0  0  0  0  0  0  0  0  0
   10.7089  -17.8595   20.7959 C   0  0  1  0  0  0  0  0  0  0  0  0
   11.2460  -19.1643   21.3834 C   0  0  0  0  0  0  0  0  0  0  0  0
   10.7305  -20.2502   20.4982 C   0  0  0  0  0  0  0  0  0  0  0  0
    9.9453  -20.1422   19.3669 C   0  0  0  0  0  0  0  0  0  0  0  0
    9.6861  -21.3600   18.8392 N   0  0  0  0  0  0  0  0  0  0  0  0
   10.3108  -22.2369   19.6422 C   0  0  0  0  0  0  0  0  0  0  0  0
   10.9403  -21.5920   20.6392 N   0  0  0  0  0  0  0  0  0  0  0  0
   10.5439  -16.8293   21.8429 C   0  0  0  0  0  0  0  0  0  0  0  0
   11.5251  -16.1226   22.1743 O   0  0  0  0  0  0  0  0  0  0  0  0
    9.2788  -16.6548   22.4574 N   0  0  0  0  0  0  0  0  0  0  0  0
    9.0765  -15.7296   23.5854 C   0  0  1  0  0  0  0  0  0  0  0  0
    7.6620  -15.2742   23.4904 C   0  0  0  0  0  0  0  0  0  0  0  0
    7.2390  -14.2491   24.4384 C   0  0  0  0  0  0  0  0  0  0  0  0
    6.4431  -14.6082   25.5109 C   0  0  0  0  0  0  0  0  0  0  0  0
    6.0166  -13.6625   26.4501 C   0  0  0  0  0  0  0  0  0  0  0  0
    6.3759  -12.3499   26.3339 C   0  0  0  0  0  0  0  0  0  0  0  0
    7.1668  -11.9904   25.2686 C   0  0  0  0  0  0  0  0  0  0  0  0
    7.5805  -12.9179   24.3546 C   0  0  0  0  0  0  0  0  0  0  0  0
    9.2709  -16.4681   24.8505 C   0  0  0  0  0  0  0  0  0  0  0  0
    9.0828  -17.7086   24.8813 O   0  0  0  0  0  0  0  0  0  0  0  0
    9.7270  -13.2436   29.1932 C   0  0  0  0  0  0  0  0  0  0  0  0
    9.9048  -14.1303   27.9819 C   0  0  1  0  0  0  0  0  0  0  0  0
   11.1270  -13.5860   27.2295 C   0  0  0  0  0  0  0  0  0  0  0  0
   10.2238  -15.5424   28.3426 C   0  0  0  0  0  0  0  0  0  0  0  0
   10.2457  -16.4892   27.1728 C   0  0  2  0  0  0  0  0  0  0  0  0
    9.6686  -15.7775   26.0255 N   0  0  0  0  0  0  0  0  0  0  0  0
    9.5310  -17.7432   27.4298 C   0  0  0  0  0  0  0  0  0  0  0  0
    9.9903  -18.5918   28.2328 O   0  0  0  0  0  0  0  0  0  0  0  0
    8.3339  -18.0237   26.7954 O   0  0  0  0  0  0  0  0  0  0  0  0
  2  3  1  0
  2  1  1  6
  3  4  1  0
  4  5  2  0
  5  6  1  0
  7  6  1  0
  8  4  1  0
  8  7  2  0
  9 11  1  0
  9  2  1  0
 10  9  2  0
 12 11  1  0
 12 13  1  1
 13 14  1  0
 14 15  2  0
 14 19  1  0
 15 16  1  0
 16 17  2  0
 18 17  1  0
 19 18  2  0
 20 12  1  0
 21 20  2  0
 23 22  1  1
 23 25  1  0
 24 23  1  0
 26 25  1  1
 26 28  1  0
 26 27  1  0
 27 20  1  0
 28 30  1  0
 29 28  2  0
M  END
$$$$
