HFL.pdb
     RDKit          3D

 30 31  0  0  1  0  0  0  0  0999 V2000
   10.8809  -17.0145   19.5237 N   0  0  0  0  0  0  0  0  0  0  0  0
   10.1992  -17.6732   20.5924 C   0  0  1  0  0  0  0  0  0  0  0  0
   10.8688  -18.9983   20.9555 C   0  0  0  0  0  0  0  0  0  0  0  0
   10.5895  -19.9199   19.8148 C   0  0  0  0  0  0  0  0  0  0  0  0
    9.3745  -20.2395   19.2406 C   0  0  0  0  0  0  0  0  0  0  0  0
    9.5352  -21.1163   18.2236 N   0  0  0  0  0  0  0  0  0  0  0  0
   10.8565  -21.3486   18.1585 C   0  0  0  0  0  0  0  0  0  0  0  0
   11.5027  -20.6423   19.1018 N   0  0  0  0  0  0  0  0  0  0  0  0
   10.1226  -16.7740   21.7630 C   0  0  0  0  0  0  0  0  0  0  0  0
   11.1648  -16.2187   22.1847 O   0  0  0  0  0  0  0  0  0  0  0  0
    8.8724  -16.5520   22.3923 N   0  0  0  0  0  0  0  0  0  0  0  0
    8.7284  -15.6626   23.5574 C   0  0  1  0  0  0  0  0  0  0  0  0
    7.3103  -15.2084   23.5508 C   0  0  0  0  0  0  0  0  0  0  0  0
    6.9293  -14.2364   24.5698 C   0  0  0  0  0  0  0  0  0  0  0  0
    7.3408  -12.9227   24.4374 C   0  0  0  0  0  0  0  0  0  0  0  0
    6.9960  -11.9526   25.3852 C   0  0  0  0  0  0  0  0  0  0  0  0
    6.2390  -12.2769   26.4747 C   0  0  0  0  0  0  0  0  0  0  0  0
    5.8288  -13.5821   26.6088 C   0  0  0  0  0  0  0  0  0  0  0  0
    6.1683  -14.5253   25.6802 C   0  0  0  0  0  0  0  0  0  0  0  0
    8.9898  -16.4392   24.7871 C   0  0  0  0  0  0  0  0  0  0  0  0
    8.8068  -17.6808   24.7888 O   0  0  0  0  0  0  0  0  0  0  0  0
   10.4675  -13.2137   29.0094 C   0  0  0  0  0  0  0  0  0  0  0  0
   10.4790  -14.2169   27.8786 C   0  0  1  0  0  0  0  0  0  0  0  0
   11.9532  -14.4194   27.5019 C   0  0  0  0  0  0  0  0  0  0  0  0
    9.9592  -15.5539   28.2883 C   0  0  0  0  0  0  0  0  0  0  0  0
    9.8321  -16.5403   27.1587 C   0  0  2  0  0  0  0  0  0  0  0  0
    9.4459  -15.7837   25.9610 N   0  0  0  0  0  0  0  0  0  0  0  0
    8.8751  -17.6161   27.4346 C   0  0  0  0  0  0  0  0  0  0  0  0
    7.7134  -17.5803   26.9599 O   0  0  0  0  0  0  0  0  0  0  0  0
    9.2262  -18.6968   28.2238 O   0  0  0  0  0  0  0  0  0  0  0  0
  2  3  1  0
  2  1  1  6
  3  4  1  0
  4  5  2  0
  5  6  1  0
  7  6  1  0
  8  4  1  0
  8  7  2  0
  9 11  1  0
  9  2  1  0
 10  9  2  0
 12 11  1  0
 12 13  1  1
 13 14  1  0
 14 15  2  0
 14 19  1  0
 15 16  1  0
 16 17  2  0
 18 17  1  0
 19 18  2  0
 20 12  1  0
 21 20  2  0
 23 22  1  1
 23 25  1  0
 24 23  1  0
 26 25  1  1
 26 28  1  0
 26 27  1  0
 27 20  1  0
 28 30  1  0
 29 28  2  0
M  END
$$$$
