HFL.pdb
     RDKit          3D

 30 31  0  0  1  0  0  0  0  0999 V2000
   11.5019  -16.9956   19.5239 N   0  0  0  0  0  0  0  0  0  0  0  0
   10.8923  -17.6678   20.6272 C   0  0  1  0  0  0  0  0  0  0  0  0
   11.7157  -18.8748   21.0760 C   0  0  0  0  0  0  0  0  0  0  0  0
   11.7096  -19.8218   19.9220 C   0  0  0  0  0  0  0  0  0  0  0  0
   11.8835  -19.5478   18.5794 C   0  0  0  0  0  0  0  0  0  0  0  0
   11.8105  -20.6783   17.8410 N   0  0  0  0  0  0  0  0  0  0  0  0
   11.5900  -21.6668   18.7232 C   0  0  0  0  0  0  0  0  0  0  0  0
   11.5267  -21.1738   19.9719 N   0  0  0  0  0  0  0  0  0  0  0  0
   10.6887  -16.7156   21.7391 C   0  0  0  0  0  0  0  0  0  0  0  0
   11.6432  -15.9971   22.1197 O   0  0  0  0  0  0  0  0  0  0  0  0
    9.4175  -16.6281   22.3595 N   0  0  0  0  0  0  0  0  0  0  0  0
    9.1669  -15.7456   23.5118 C   0  0  1  0  0  0  0  0  0  0  0  0
    7.7220  -15.3915   23.4474 C   0  0  0  0  0  0  0  0  0  0  0  0
    7.2399  -14.4266   24.4297 C   0  0  0  0  0  0  0  0  0  0  0  0
    7.6352  -13.1052   24.3287 C   0  0  0  0  0  0  0  0  0  0  0  0
    7.1950  -12.1415   25.2431 C   0  0  0  0  0  0  0  0  0  0  0  0
    6.3577  -12.4801   26.2675 C   0  0  0  0  0  0  0  0  0  0  0  0
    5.9634  -13.7930   26.3703 C   0  0  0  0  0  0  0  0  0  0  0  0
    6.3962  -14.7298   25.4747 C   0  0  0  0  0  0  0  0  0  0  0  0
    9.4338  -16.4965   24.7563 C   0  0  0  0  0  0  0  0  0  0  0  0
    9.4315  -17.7514   24.7376 O   0  0  0  0  0  0  0  0  0  0  0  0
    9.7226  -13.2524   29.2207 C   0  0  0  0  0  0  0  0  0  0  0  0
   10.0845  -14.1530   28.0618 C   0  0  1  0  0  0  0  0  0  0  0  0
   11.6008  -14.0122   27.8684 C   0  0  0  0  0  0  0  0  0  0  0  0
    9.8262  -15.5941   28.3486 C   0  0  0  0  0  0  0  0  0  0  0  0
   10.0935  -16.5131   27.1870 C   0  0  2  0  0  0  0  0  0  0  0  0
    9.6914  -15.8015   25.9671 N   0  0  0  0  0  0  0  0  0  0  0  0
    9.4034  -17.8018   27.2978 C   0  0  0  0  0  0  0  0  0  0  0  0
    8.2895  -17.9837   26.7482 O   0  0  0  0  0  0  0  0  0  0  0  0
    9.9605  -18.8492   28.0096 O   0  0  0  0  0  0  0  0  0  0  0  0
  2  3  1  0
  2  1  1  6
  3  4  1  0
  4  5  2  0
  5  6  1  0
  7  6  1  0
  8  4  1  0
  8  7  2  0
  9 11  1  0
  9  2  1  0
 10  9  2  0
 12 11  1  0
 12 13  1  1
 13 14  1  0
 14 15  2  0
 14 19  1  0
 15 16  1  0
 16 17  2  0
 18 17  1  0
 19 18  2  0
 20 12  1  0
 21 20  2  0
 23 22  1  1
 23 25  1  0
 24 23  1  0
 26 25  1  1
 26 28  1  0
 26 27  1  0
 27 20  1  0
 28 30  1  0
 29 28  2  0
M  END
$$$$
