HFL.pdb
     RDKit          3D

 30 31  0  0  1  0  0  0  0  0999 V2000
    9.9005  -18.0214   20.2013 N   0  0  0  0  0  0  0  0  0  0  0  0
   11.1278  -17.4442   20.6502 C   0  0  1  0  0  0  0  0  0  0  0  0
   11.8155  -16.6494   19.5404 C   0  0  0  0  0  0  0  0  0  0  0  0
   12.1488  -17.6426   18.4770 C   0  0  0  0  0  0  0  0  0  0  0  0
   11.3873  -18.6964   18.0105 C   0  0  0  0  0  0  0  0  0  0  0  0
   12.0388  -19.3708   17.0361 N   0  0  0  0  0  0  0  0  0  0  0  0
   13.2146  -18.7383   16.8897 C   0  0  0  0  0  0  0  0  0  0  0  0
   13.2982  -17.7029   17.7425 N   0  0  0  0  0  0  0  0  0  0  0  0
   10.8758  -16.5990   21.8362 C   0  0  0  0  0  0  0  0  0  0  0  0
   11.8254  -15.9681   22.3582 O   0  0  0  0  0  0  0  0  0  0  0  0
    9.5645  -16.5136   22.3669 N   0  0  0  0  0  0  0  0  0  0  0  0
    9.2515  -15.7029   23.5560 C   0  0  1  0  0  0  0  0  0  0  0  0
    7.7911  -15.4214   23.4847 C   0  0  0  0  0  0  0  0  0  0  0  0
    7.2772  -14.3954   24.3856 C   0  0  0  0  0  0  0  0  0  0  0  0
    6.4035  -14.7585   25.3944 C   0  0  0  0  0  0  0  0  0  0  0  0
    5.8881  -13.8120   26.2870 C   0  0  0  0  0  0  0  0  0  0  0  0
    6.2347  -12.4947   26.1871 C   0  0  0  0  0  0  0  0  0  0  0  0
    7.1028  -12.1312   25.1851 C   0  0  0  0  0  0  0  0  0  0  0  0
    7.6032  -13.0595   24.3163 C   0  0  0  0  0  0  0  0  0  0  0  0
    9.5398  -16.4992   24.7671 C   0  0  0  0  0  0  0  0  0  0  0  0
    9.6068  -17.7498   24.6872 O   0  0  0  0  0  0  0  0  0  0  0  0
   10.1344  -13.2971   29.2046 C   0  0  0  0  0  0  0  0  0  0  0  0
   10.2612  -14.2199   28.0141 C   0  0  1  0  0  0  0  0  0  0  0  0
   11.7038  -14.0724   27.5106 C   0  0  0  0  0  0  0  0  0  0  0  0
   10.0840  -15.6563   28.3762 C   0  0  0  0  0  0  0  0  0  0  0  0
   10.1551  -16.6018   27.2073 C   0  0  2  0  0  0  0  0  0  0  0  0
    9.7399  -15.8522   26.0149 N   0  0  0  0  0  0  0  0  0  0  0  0
    9.3368  -17.8051   27.3856 C   0  0  0  0  0  0  0  0  0  0  0  0
    8.2172  -17.9095   26.8273 O   0  0  0  0  0  0  0  0  0  0  0  0
    9.7759  -18.8550   28.1722 O   0  0  0  0  0  0  0  0  0  0  0  0
  2  3  1  0
  2  1  1  6
  3  4  1  0
  4  5  2  0
  5  6  1  0
  7  6  1  0
  8  4  1  0
  8  7  2  0
  9 11  1  0
  9  2  1  0
 10  9  2  0
 12 11  1  0
 12 13  1  6
 13 14  1  0
 14 15  2  0
 14 19  1  0
 15 16  1  0
 16 17  2  0
 18 17  1  0
 19 18  2  0
 20 12  1  0
 21 20  2  0
 23 22  1  1
 23 25  1  0
 24 23  1  0
 26 25  1  1
 26 28  1  0
 26 27  1  0
 27 20  1  0
 28 30  1  0
 29 28  2  0
M  END
$$$$
