HFL.pdb
     RDKit          3D

 30 31  0  0  1  0  0  0  0  0999 V2000
    9.5816  -18.1224   20.1371 N   0  0  0  0  0  0  0  0  0  0  0  0
   10.6504  -17.1786   20.0490 C   0  0  1  0  0  0  0  0  0  0  0  0
   10.7337  -16.5503   18.6581 C   0  0  0  0  0  0  0  0  0  0  0  0
   11.1197  -17.6583   17.7351 C   0  0  0  0  0  0  0  0  0  0  0  0
   12.2847  -18.4002   17.7164 C   0  0  0  0  0  0  0  0  0  0  0  0
   12.2588  -19.3177   16.7233 N   0  0  0  0  0  0  0  0  0  0  0  0
   11.0726  -19.1517   16.1154 C   0  0  0  0  0  0  0  0  0  0  0  0
   10.3782  -18.1643   16.7064 N   0  0  0  0  0  0  0  0  0  0  0  0
   10.4894  -16.1456   21.0938 C   0  0  0  0  0  0  0  0  0  0  0  0
   11.3726  -15.2668   21.2350 O   0  0  0  0  0  0  0  0  0  0  0  0
    9.3392  -16.1630   21.9215 N   0  0  0  0  0  0  0  0  0  0  0  0
    9.2021  -15.2788   23.0915 C   0  0  1  0  0  0  0  0  0  0  0  0
    7.7804  -15.3881   23.5207 C   0  0  0  0  0  0  0  0  0  0  0  0
    7.2999  -14.3783   24.4576 C   0  0  0  0  0  0  0  0  0  0  0  0
    7.7181  -13.0682   24.3118 C   0  0  0  0  0  0  0  0  0  0  0  0
    7.2804  -12.0630   25.1815 C   0  0  0  0  0  0  0  0  0  0  0  0
    6.4228  -12.3484   26.2055 C   0  0  0  0  0  0  0  0  0  0  0  0
    6.0058  -13.6500   26.3527 C   0  0  0  0  0  0  0  0  0  0  0  0
    6.4362  -14.6275   25.5006 C   0  0  0  0  0  0  0  0  0  0  0  0
   10.0807  -15.7748   24.1712 C   0  0  0  0  0  0  0  0  0  0  0  0
   11.3024  -15.4877   24.1596 O   0  0  0  0  0  0  0  0  0  0  0  0
   11.4275  -14.2365   28.5607 C   0  0  0  0  0  0  0  0  0  0  0  0
   10.0633  -14.8873   28.5394 C   0  0  1  0  0  0  0  0  0  0  0  0
    9.0913  -13.8623   29.1401 C   0  0  0  0  0  0  0  0  0  0  0  0
    9.5801  -15.1690   27.1563 C   0  0  0  0  0  0  0  0  0  0  0  0
   10.0579  -16.4788   26.5894 C   0  0  2  0  0  0  0  0  0  0  0  0
    9.5452  -16.5722   25.2167 N   0  0  0  0  0  0  0  0  0  0  0  0
    9.6467  -17.6387   27.3863 C   0  0  0  0  0  0  0  0  0  0  0  0
   10.4181  -18.1359   28.2430 O   0  0  0  0  0  0  0  0  0  0  0  0
    8.4005  -18.2146   27.2155 O   0  0  0  0  0  0  0  0  0  0  0  0
  2  3  1  0
  2  1  1  6
  3  4  1  0
  4  5  2  0
  5  6  1  0
  7  6  1  0
  8  4  1  0
  8  7  2  0
  9 11  1  0
  9  2  1  0
 10  9  2  0
 12 11  1  0
 12 13  1  1
 13 14  1  0
 14 15  2  0
 14 19  1  0
 15 16  1  0
 16 17  2  0
 18 17  1  0
 19 18  2  0
 20 12  1  0
 21 20  2  0
 23 22  1  6
 23 25  1  0
 24 23  1  0
 26 25  1  1
 26 28  1  0
 26 27  1  0
 27 20  1  0
 28 30  1  0
 29 28  2  0
M  END
$$$$
