HFL.pdb
     RDKit          3D

 30 31  0  0  1  0  0  0  0  0999 V2000
    8.9226  -19.6587   20.8116 N   0  0  0  0  0  0  0  0  0  0  0  0
    8.4536  -19.3723   22.1302 C   0  0  1  0  0  0  0  0  0  0  0  0
    9.0960  -20.2916   23.1686 C   0  0  0  0  0  0  0  0  0  0  0  0
    8.7961  -21.6832   22.7192 C   0  0  0  0  0  0  0  0  0  0  0  0
    8.1105  -22.0983   21.5942 C   0  0  0  0  0  0  0  0  0  0  0  0
    8.0469  -23.4479   21.5363 N   0  0  0  0  0  0  0  0  0  0  0  0
    8.6951  -23.8827   22.6294 C   0  0  0  0  0  0  0  0  0  0  0  0
    9.1497  -22.8422   23.3484 N   0  0  0  0  0  0  0  0  0  0  0  0
    8.7011  -17.9503   22.4485 C   0  0  0  0  0  0  0  0  0  0  0  0
    9.6821  -17.3636   21.9332 O   0  0  0  0  0  0  0  0  0  0  0  0
    7.8261  -17.2699   23.3315 N   0  0  0  0  0  0  0  0  0  0  0  0
    8.0465  -15.8686   23.7280 C   0  0  1  0  0  0  0  0  0  0  0  0
    6.8102  -15.4480   24.4434 C   0  0  0  0  0  0  0  0  0  0  0  0
    6.7814  -14.0814   24.9532 C   0  0  0  0  0  0  0  0  0  0  0  0
    5.9835  -13.7837   26.0428 C   0  0  0  0  0  0  0  0  0  0  0  0
    5.9266  -12.4893   26.5717 C   0  0  0  0  0  0  0  0  0  0  0  0
    6.6615  -11.4768   26.0239 C   0  0  0  0  0  0  0  0  0  0  0  0
    7.4553  -11.7701   24.9405 C   0  0  0  0  0  0  0  0  0  0  0  0
    7.5071  -13.0357   24.4282 C   0  0  0  0  0  0  0  0  0  0  0  0
    9.1952  -15.8092   24.6558 C   0  0  0  0  0  0  0  0  0  0  0  0
   10.2491  -15.2258   24.3036 O   0  0  0  0  0  0  0  0  0  0  0  0
    9.3952  -13.3967   29.0419 C   0  0  0  0  0  0  0  0  0  0  0  0
    9.6187  -14.2043   27.7837 C   0  0  1  0  0  0  0  0  0  0  0  0
   10.8825  -13.6318   27.1272 C   0  0  0  0  0  0  0  0  0  0  0  0
    9.9012  -15.6422   28.0638 C   0  0  0  0  0  0  0  0  0  0  0  0
   10.2612  -16.4500   26.8460 C   0  0  2  0  0  0  0  0  0  0  0  0
    9.1068  -16.4093   25.9395 N   0  0  0  0  0  0  0  0  0  0  0  0
   10.6380  -17.8319   27.1588 C   0  0  0  0  0  0  0  0  0  0  0  0
   11.6964  -18.0833   27.7853 O   0  0  0  0  0  0  0  0  0  0  0  0
    9.8388  -18.8930   26.7724 O   0  0  0  0  0  0  0  0  0  0  0  0
  2  3  1  0
  2  1  1  6
  3  4  1  0
  4  5  2  0
  5  6  1  0
  7  6  1  0
  8  4  1  0
  8  7  2  0
  9 11  1  0
  9  2  1  0
 10  9  2  0
 12 11  1  0
 12 13  1  1
 13 14  1  0
 14 15  2  0
 14 19  1  0
 15 16  1  0
 16 17  2  0
 18 17  1  0
 19 18  2  0
 20 12  1  0
 21 20  2  0
 23 22  1  1
 23 25  1  0
 24 23  1  0
 26 25  1  1
 26 28  1  0
 26 27  1  0
 27 20  1  0
 28 30  1  0
 29 28  2  0
M  END
$$$$
