HFL.pdb
     RDKit          3D

 30 31  0  0  1  0  0  0  0  0999 V2000
   10.3588  -17.4590   19.0561 N   0  0  0  0  0  0  0  0  0  0  0  0
   10.4244  -18.0291   20.3644 C   0  0  1  0  0  0  0  0  0  0  0  0
   11.6779  -18.8852   20.5435 C   0  0  0  0  0  0  0  0  0  0  0  0
   11.5319  -20.0230   19.5882 C   0  0  0  0  0  0  0  0  0  0  0  0
   10.7273  -21.1408   19.6934 C   0  0  0  0  0  0  0  0  0  0  0  0
   10.8760  -21.9475   18.6183 N   0  0  0  0  0  0  0  0  0  0  0  0
   11.7777  -21.3342   17.8343 C   0  0  0  0  0  0  0  0  0  0  0  0
   12.1810  -20.1825   18.3977 N   0  0  0  0  0  0  0  0  0  0  0  0
   10.3600  -16.9559   21.3786 C   0  0  0  0  0  0  0  0  0  0  0  0
   11.3388  -16.1863   21.5267 O   0  0  0  0  0  0  0  0  0  0  0  0
    9.1930  -16.8118   22.1695 N   0  0  0  0  0  0  0  0  0  0  0  0
    9.0443  -15.7293   23.1572 C   0  0  1  0  0  0  0  0  0  0  0  0
    7.5865  -15.4325   23.2204 C   0  0  0  0  0  0  0  0  0  0  0  0
    7.1757  -14.3551   24.1143 C   0  0  0  0  0  0  0  0  0  0  0  0
    6.4313  -14.6582   25.2397 C   0  0  0  0  0  0  0  0  0  0  0  0
    6.0187  -13.6606   26.1302 C   0  0  0  0  0  0  0  0  0  0  0  0
    6.3408  -12.3514   25.9122 C   0  0  0  0  0  0  0  0  0  0  0  0
    7.0805  -12.0475   24.7940 C   0  0  0  0  0  0  0  0  0  0  0  0
    7.4809  -13.0255   23.9280 C   0  0  0  0  0  0  0  0  0  0  0  0
    9.5039  -16.2171   24.4742 C   0  0  0  0  0  0  0  0  0  0  0  0
    9.1524  -17.3539   24.8732 O   0  0  0  0  0  0  0  0  0  0  0  0
   11.6933  -14.7381   29.4248 C   0  0  0  0  0  0  0  0  0  0  0  0
   10.2538  -14.6578   28.9702 C   0  0  1  0  0  0  0  0  0  0  0  0
    9.6792  -13.3787   29.5947 C   0  0  0  0  0  0  0  0  0  0  0  0
   10.1234  -14.5029   27.4921 C   0  0  0  0  0  0  0  0  0  0  0  0
   10.5600  -15.7082   26.7035 C   0  0  2  0  0  0  0  0  0  0  0  0
   10.3391  -15.4034   25.2842 N   0  0  0  0  0  0  0  0  0  0  0  0
    9.8641  -16.9382   27.0935 C   0  0  0  0  0  0  0  0  0  0  0  0
    8.6218  -17.0472   26.9491 O   0  0  0  0  0  0  0  0  0  0  0  0
   10.5567  -18.0090   27.6300 O   0  0  0  0  0  0  0  0  0  0  0  0
  2  3  1  0
  2  1  1  6
  3  4  1  0
  4  5  2  0
  5  6  1  0
  7  6  1  0
  8  4  1  0
  8  7  2  0
  9 11  1  0
  9  2  1  0
 10  9  2  0
 12 11  1  0
 12 13  1  1
 13 14  1  0
 14 15  2  0
 14 19  1  0
 15 16  1  0
 16 17  2  0
 18 17  1  0
 19 18  2  0
 20 12  1  0
 21 20  2  0
 23 22  1  6
 23 25  1  0
 24 23  1  0
 26 25  1  1
 26 28  1  0
 26 27  1  0
 27 20  1  0
 28 30  1  0
 29 28  2  0
M  END
$$$$
