ECC.pdb
     RDKit          3D

 22 21  0  0  1  0  0  0  0  0999 V2000
    7.5819  -14.7693   19.8971 N   0  0  0  0  0  0  0  0  0  0  0  0
    8.0745  -15.6367   20.9264 C   0  0  1  0  0  0  0  0  0  0  0  0
    9.2144  -16.5156   20.5539 C   0  0  0  0  0  0  0  0  0  0  0  0
    9.1823  -17.1762   19.2343 C   0  0  0  0  0  0  0  0  0  0  0  0
    8.9512  -18.6241   19.2044 C   0  0  0  0  0  0  0  0  0  0  0  0
    8.7455  -19.2769   20.2435 O   0  0  0  0  0  0  0  0  0  0  0  0
    8.3682  -14.8073   22.1296 C   0  0  0  0  0  0  0  0  0  0  0  0
    9.1193  -13.8097   22.0138 O   0  0  0  0  0  0  0  0  0  0  0  0
    8.9495  -19.3488   18.0047 O   0  0  0  0  0  0  0  0  0  0  0  0
    7.8457  -15.0801   23.4054 N   0  0  0  0  0  0  0  0  0  0  0  0
    8.1161  -14.2588   24.5954 C   0  0  1  0  0  0  0  0  0  0  0  0
    6.7319  -14.0621   25.2218 C   0  0  0  0  0  0  0  0  0  0  0  0
    6.7753  -13.2402   26.8083 S   0  0  0  0  0  0  0  0  0  0  0  0
    8.9462  -14.9929   25.5626 C   0  0  0  0  0  0  0  0  0  0  0  0
    9.1284  -16.2365   25.3546 O   0  0  0  0  0  0  0  0  0  0  0  0
    9.5665  -14.4611   26.7022 N   0  0  0  0  0  0  0  0  0  0  0  0
   10.4911  -15.2074   27.5445 C   0  0  1  0  0  0  0  0  0  0  0  0
   10.8758  -14.4033   28.7801 C   0  0  0  0  0  0  0  0  0  0  0  0
   11.3971  -12.7551   28.2658 S   0  0  0  0  0  0  0  0  0  0  0  0
    9.7643  -16.4156   28.0170 C   0  0  0  0  0  0  0  0  0  0  0  0
   10.3646  -17.3926   28.7965 O   0  0  0  0  0  0  0  0  0  0  0  0
    8.5674  -16.5674   27.7067 O   0  0  0  0  0  0  0  0  0  0  0  0
  2  1  1  6
  2  3  1  0
  3  4  1  0
  4  5  1  0
  5  9  1  0
  6  5  2  0
  7  2  1  0
  8  7  2  0
 10  7  1  0
 11 10  1  0
 11 14  1  0
 11 12  1  1
 13 12  1  0
 14 15  2  0
 14 16  1  0
 16 17  1  0
 17 20  1  0
 17 18  1  1
 19 18  1  0
 20 22  2  0
 20 21  1  0
M  END
$$$$
