ECC.pdb
     RDKit          3D

 22 21  0  0  1  0  0  0  0  0999 V2000
    7.4147  -17.7156   22.9586 N   0  0  0  0  0  0  0  0  0  0  0  0
    8.5752  -17.0295   22.4715 C   0  0  1  0  0  0  0  0  0  0  0  0
    8.7204  -16.9535   20.9938 C   0  0  0  0  0  0  0  0  0  0  0  0
    7.7820  -17.7309   20.1608 C   0  0  0  0  0  0  0  0  0  0  0  0
    8.3147  -18.3713   18.9538 C   0  0  0  0  0  0  0  0  0  0  0  0
    9.1392  -19.3012   19.0144 O   0  0  0  0  0  0  0  0  0  0  0  0
    8.6229  -15.6859   23.1154 C   0  0  0  0  0  0  0  0  0  0  0  0
    9.5584  -14.9033   22.8242 O   0  0  0  0  0  0  0  0  0  0  0  0
    7.9236  -17.9703   17.6690 O   0  0  0  0  0  0  0  0  0  0  0  0
    7.6674  -15.2367   24.0429 N   0  0  0  0  0  0  0  0  0  0  0  0
    7.7517  -13.9490   24.7489 C   0  0  1  0  0  0  0  0  0  0  0  0
    6.3498  -13.7674   25.3396 C   0  0  0  0  0  0  0  0  0  0  0  0
    6.1746  -12.2848   26.3222 S   0  0  0  0  0  0  0  0  0  0  0  0
    8.7038  -14.0247   25.8675 C   0  0  0  0  0  0  0  0  0  0  0  0
    8.9642  -12.9443   26.4904 O   0  0  0  0  0  0  0  0  0  0  0  0
    9.3616  -15.1749   26.3265 N   0  0  0  0  0  0  0  0  0  0  0  0
   10.2919  -15.1838   27.4471 C   0  0  1  0  0  0  0  0  0  0  0  0
    9.5495  -15.0976   28.7747 C   0  0  0  0  0  0  0  0  0  0  0  0
    8.6128  -13.5571   28.8217 S   0  0  0  0  0  0  0  0  0  0  0  0
   10.9879  -16.4975   27.4189 C   0  0  0  0  0  0  0  0  0  0  0  0
   11.9919  -16.8316   28.3150 O   0  0  0  0  0  0  0  0  0  0  0  0
   10.6648  -17.3404   26.5604 O   0  0  0  0  0  0  0  0  0  0  0  0
  2  1  1  6
  2  3  1  0
  3  4  1  0
  4  5  1  0
  5  9  1  0
  6  5  2  0
  7  2  1  0
  8  7  2  0
 10  7  1  0
 11 10  1  0
 11 14  1  0
 11 12  1  1
 13 12  1  0
 14 15  2  0
 14 16  1  0
 16 17  1  0
 17 20  1  0
 17 18  1  1
 19 18  1  0
 20 22  2  0
 20 21  1  0
M  END
$$$$
