ECC.pdb
     RDKit          3D

 22 21  0  0  1  0  0  0  0  0999 V2000
    7.6094  -13.9770   19.4800 N   0  0  0  0  0  0  0  0  0  0  0  0
    7.0416  -14.6340   20.6203 C   0  0  1  0  0  0  0  0  0  0  0  0
    6.5866  -16.0340   20.4119 C   0  0  0  0  0  0  0  0  0  0  0  0
    7.5240  -16.9846   19.7822 C   0  0  0  0  0  0  0  0  0  0  0  0
    7.9805  -18.1228   20.5865 C   0  0  0  0  0  0  0  0  0  0  0  0
    7.1813  -18.9356   21.0853 O   0  0  0  0  0  0  0  0  0  0  0  0
    8.0052  -14.5139   21.7512 C   0  0  0  0  0  0  0  0  0  0  0  0
    9.2154  -14.3009   21.5010 O   0  0  0  0  0  0  0  0  0  0  0  0
    9.3399  -18.3552   20.8358 O   0  0  0  0  0  0  0  0  0  0  0  0
    7.6330  -14.6263   23.1018 N   0  0  0  0  0  0  0  0  0  0  0  0
    8.5663  -14.4595   24.2264 C   0  0  1  0  0  0  0  0  0  0  0  0
    7.7110  -13.7982   25.3118 C   0  0  0  0  0  0  0  0  0  0  0  0
    6.2059  -14.6898   25.6781 S   0  0  0  0  0  0  0  0  0  0  0  0
    9.0105  -15.7650   24.7383 C   0  0  0  0  0  0  0  0  0  0  0  0
    8.1835  -16.7320   24.6755 O   0  0  0  0  0  0  0  0  0  0  0  0
   10.2637  -16.0606   25.2936 N   0  0  0  0  0  0  0  0  0  0  0  0
   10.6298  -17.3694   25.8175 C   0  0  1  0  0  0  0  0  0  0  0  0
   12.1386  -17.5750   25.7694 C   0  0  0  0  0  0  0  0  0  0  0  0
   12.6964  -17.4130   24.0619 S   0  0  0  0  0  0  0  0  0  0  0  0
   10.2307  -17.3871   27.2499 C   0  0  0  0  0  0  0  0  0  0  0  0
   10.2787  -18.5354   28.0256 O   0  0  0  0  0  0  0  0  0  0  0  0
    9.8357  -16.3343   27.7859 O   0  0  0  0  0  0  0  0  0  0  0  0
  2  1  1  6
  2  3  1  0
  3  4  1  0
  4  5  1  0
  5  9  1  0
  6  5  2  0
  7  2  1  0
  8  7  2  0
 10  7  1  0
 11 10  1  0
 11 14  1  0
 11 12  1  1
 13 12  1  0
 14 15  2  0
 14 16  1  0
 16 17  1  0
 17 20  1  0
 17 18  1  1
 19 18  1  0
 20 22  2  0
 20 21  1  0
M  END
$$$$
