ECC.pdb
     RDKit          3D

 22 21  0  0  1  0  0  0  0  0999 V2000
    6.7414  -17.8462   23.4294 N   0  0  0  0  0  0  0  0  0  0  0  0
    7.9569  -17.4099   22.8075 C   0  0  1  0  0  0  0  0  0  0  0  0
    7.9809  -17.4396   21.3213 C   0  0  0  0  0  0  0  0  0  0  0  0
    9.2526  -17.1299   20.6389 C   0  0  0  0  0  0  0  0  0  0  0  0
    9.6826  -18.0281   19.5623 C   0  0  0  0  0  0  0  0  0  0  0  0
    9.0438  -18.1306   18.4994 O   0  0  0  0  0  0  0  0  0  0  0  0
    8.2994  -16.0655   23.3530 C   0  0  0  0  0  0  0  0  0  0  0  0
    9.4007  -15.5475   23.0507 O   0  0  0  0  0  0  0  0  0  0  0  0
   10.8351  -18.8179   19.6731 O   0  0  0  0  0  0  0  0  0  0  0  0
    7.4489  -15.3324   24.1981 N   0  0  0  0  0  0  0  0  0  0  0  0
    7.7397  -13.9714   24.6742 C   0  0  1  0  0  0  0  0  0  0  0  0
    6.4062  -13.5014   25.2639 C   0  0  0  0  0  0  0  0  0  0  0  0
    6.5842  -12.5560   26.7703 S   0  0  0  0  0  0  0  0  0  0  0  0
    8.7283  -13.9960   25.7631 C   0  0  0  0  0  0  0  0  0  0  0  0
    9.1187  -12.8754   26.2265 O   0  0  0  0  0  0  0  0  0  0  0  0
    9.2916  -15.1368   26.3525 N   0  0  0  0  0  0  0  0  0  0  0  0
   10.3880  -15.0967   27.3106 C   0  0  1  0  0  0  0  0  0  0  0  0
    9.8986  -14.6520   28.6831 C   0  0  0  0  0  0  0  0  0  0  0  0
    9.7133  -12.8579   28.6845 S   0  0  0  0  0  0  0  0  0  0  0  0
   10.8864  -16.4904   27.4536 C   0  0  0  0  0  0  0  0  0  0  0  0
   10.3546  -17.5522   26.7379 O   0  0  0  0  0  0  0  0  0  0  0  0
   11.8190  -16.7262   28.2452 O   0  0  0  0  0  0  0  0  0  0  0  0
  2  1  1  6
  2  3  1  0
  3  4  1  0
  4  5  1  0
  5  9  1  0
  6  5  2  0
  7  2  1  0
  8  7  2  0
 10  7  1  0
 11 10  1  0
 11 14  1  0
 11 12  1  1
 13 12  1  0
 14 15  2  0
 14 16  1  0
 16 17  1  0
 17 20  1  0
 17 18  1  1
 19 18  1  0
 20 22  2  0
 20 21  1  0
M  END
$$$$
