ECC.pdb
     RDKit          3D

 22 21  0  0  1  0  0  0  0  0999 V2000
    4.5357  -18.2019   15.3948 N   0  0  0  0  0  0  0  0  0  0  0  0
    4.5065  -19.3052   16.3093 C   0  0  1  0  0  0  0  0  0  0  0  0
    5.3239  -20.4894   15.9352 C   0  0  0  0  0  0  0  0  0  0  0  0
    6.7456  -20.2767   15.6002 C   0  0  0  0  0  0  0  0  0  0  0  0
    7.5299  -21.4463   15.1911 C   0  0  0  0  0  0  0  0  0  0  0  0
    8.7693  -21.4017   15.0892 O   0  0  0  0  0  0  0  0  0  0  0  0
    4.8435  -18.7902   17.6670 C   0  0  0  0  0  0  0  0  0  0  0  0
    5.3443  -17.6458   17.7779 O   0  0  0  0  0  0  0  0  0  0  0  0
    6.9259  -22.6756   14.8936 O   0  0  0  0  0  0  0  0  0  0  0  0
    4.6300  -19.5211   18.8482 N   0  0  0  0  0  0  0  0  0  0  0  0
    4.8770  -18.9899   20.1974 C   0  0  1  0  0  0  0  0  0  0  0  0
    3.5090  -18.4540   20.6316 C   0  0  0  0  0  0  0  0  0  0  0  0
    2.1956  -19.6595   20.5043 S   0  0  0  0  0  0  0  0  0  0  0  0
    5.2520  -20.0676   21.1256 C   0  0  0  0  0  0  0  0  0  0  0  0
    5.3354  -21.2472   20.6519 O   0  0  0  0  0  0  0  0  0  0  0  0
    5.5318  -19.9310   22.4928 N   0  0  0  0  0  0  0  0  0  0  0  0
    6.6625  -20.5659   23.1561 C   0  0  1  0  0  0  0  0  0  0  0  0
    7.9808  -19.9652   22.6842 C   0  0  0  0  0  0  0  0  0  0  0  0
    9.3298  -20.7025   23.6273 S   0  0  0  0  0  0  0  0  0  0  0  0
    6.5372  -20.2625   24.6064 C   0  0  0  0  0  0  0  0  0  0  0  0
    5.8915  -19.1309   25.0809 O   0  0  0  0  0  0  0  0  0  0  0  0
    7.0279  -21.0490   25.4385 O   0  0  0  0  0  0  0  0  0  0  0  0
  2  1  1  6
  2  3  1  0
  3  4  1  0
  4  5  1  0
  5  9  1  0
  6  5  2  0
  7  2  1  0
  8  7  2  0
 10  7  1  0
 11 10  1  0
 11 14  1  0
 11 12  1  1
 13 12  1  0
 14 15  2  0
 14 16  1  0
 16 17  1  0
 17 20  1  0
 17 18  1  6
 19 18  1  0
 20 22  2  0
 20 21  1  0
M  END
$$$$
