ECC.pdb
     RDKit          3D

 22 21  0  0  1  0  0  0  0  0999 V2000
   10.3823  -19.5626   21.8560 N   0  0  0  0  0  0  0  0  0  0  0  0
   11.5064  -18.6733   21.8483 C   0  0  1  0  0  0  0  0  0  0  0  0
   12.1244  -18.4085   20.5222 C   0  0  0  0  0  0  0  0  0  0  0  0
   11.2470  -17.9662   19.4207 C   0  0  0  0  0  0  0  0  0  0  0  0
   11.8840  -17.5800   18.1575 C   0  0  0  0  0  0  0  0  0  0  0  0
   13.1157  -17.6511   17.9956 O   0  0  0  0  0  0  0  0  0  0  0  0
   11.1093  -17.4190   22.5490 C   0  0  0  0  0  0  0  0  0  0  0  0
   11.9366  -16.4805   22.6347 O   0  0  0  0  0  0  0  0  0  0  0  0
   11.1399  -17.1107   17.0664 O   0  0  0  0  0  0  0  0  0  0  0  0
    9.8439  -17.2220   23.1278 N   0  0  0  0  0  0  0  0  0  0  0  0
    9.4583  -16.0078   23.8631 C   0  0  1  0  0  0  0  0  0  0  0  0
    7.9395  -16.1423   24.0130 C   0  0  0  0  0  0  0  0  0  0  0  0
    7.1899  -14.8016   24.9269 S   0  0  0  0  0  0  0  0  0  0  0  0
   10.0438  -16.0028   25.2125 C   0  0  0  0  0  0  0  0  0  0  0  0
   10.4659  -17.1131   25.6729 O   0  0  0  0  0  0  0  0  0  0  0  0
   10.1889  -14.8910   26.0545 N   0  0  0  0  0  0  0  0  0  0  0  0
   10.8511  -14.9371   27.3510 C   0  0  1  0  0  0  0  0  0  0  0  0
   10.8104  -13.5760   28.0343 C   0  0  0  0  0  0  0  0  0  0  0  0
    9.2484  -12.7678   27.6346 S   0  0  0  0  0  0  0  0  0  0  0  0
   10.0717  -15.8769   28.1998 C   0  0  0  0  0  0  0  0  0  0  0  0
    8.8515  -16.4045   27.8056 O   0  0  0  0  0  0  0  0  0  0  0  0
   10.5226  -16.2113   29.3119 O   0  0  0  0  0  0  0  0  0  0  0  0
  2  1  1  6
  2  3  1  0
  3  4  1  0
  4  5  1  0
  5  9  1  0
  6  5  2  0
  7  2  1  0
  8  7  2  0
 10  7  1  0
 11 10  1  0
 11 14  1  0
 11 12  1  1
 13 12  1  0
 14 15  2  0
 14 16  1  0
 16 17  1  0
 17 20  1  0
 17 18  1  1
 19 18  1  0
 20 22  2  0
 20 21  1  0
M  END
$$$$
