ECC.pdb
     RDKit          3D

 22 21  0  0  1  0  0  0  0  0999 V2000
   13.8545  -24.6329   27.8779 N   0  0  0  0  0  0  0  0  0  0  0  0
   15.1320  -23.9929   27.7642 C   0  0  1  0  0  0  0  0  0  0  0  0
   15.5363  -23.5735   26.3963 C   0  0  0  0  0  0  0  0  0  0  0  0
   14.5293  -22.9104   25.5449 C   0  0  0  0  0  0  0  0  0  0  0  0
   15.0126  -22.1426   24.3927 C   0  0  0  0  0  0  0  0  0  0  0  0
   14.2470  -21.4490   23.6991 O   0  0  0  0  0  0  0  0  0  0  0  0
   15.1730  -22.8650   28.7380 C   0  0  0  0  0  0  0  0  0  0  0  0
   16.2331  -22.2070   28.8644 O   0  0  0  0  0  0  0  0  0  0  0  0
   16.3615  -22.1490   24.0120 O   0  0  0  0  0  0  0  0  0  0  0  0
   14.0782  -22.4888   29.5348 N   0  0  0  0  0  0  0  0  0  0  0  0
   14.0715  -21.3115   30.4165 C   0  0  1  0  0  0  0  0  0  0  0  0
   12.9039  -20.4711   29.8897 C   0  0  0  0  0  0  0  0  0  0  0  0
   11.3680  -21.3772   29.7692 S   0  0  0  0  0  0  0  0  0  0  0  0
   13.7595  -21.6947   31.8019 C   0  0  0  0  0  0  0  0  0  0  0  0
   12.5383  -21.6506   32.1619 O   0  0  0  0  0  0  0  0  0  0  0  0
   14.6757  -22.1096   32.7790 N   0  0  0  0  0  0  0  0  0  0  0  0
   14.3788  -23.1086   33.7965 C   0  0  1  0  0  0  0  0  0  0  0  0
   14.0350  -24.4501   33.1614 C   0  0  0  0  0  0  0  0  0  0  0  0
   12.2433  -24.5771   32.9976 S   0  0  0  0  0  0  0  0  0  0  0  0
   15.6242  -23.3037   34.5852 C   0  0  0  0  0  0  0  0  0  0  0  0
   16.8525  -22.8044   34.1796 O   0  0  0  0  0  0  0  0  0  0  0  0
   15.5749  -23.9396   35.6553 O   0  0  0  0  0  0  0  0  0  0  0  0
  2  1  1  6
  2  3  1  0
  3  4  1  0
  4  5  1  0
  5  9  1  0
  6  5  2  0
  7  2  1  0
  8  7  2  0
 10  7  1  0
 11 10  1  0
 11 14  1  0
 11 12  1  6
 13 12  1  0
 14 15  2  0
 14 16  1  0
 16 17  1  0
 17 20  1  0
 17 18  1  6
 19 18  1  0
 20 22  2  0
 20 21  1  0
M  END
$$$$
