ECC.pdb
     RDKit          3D

 22 21  0  0  1  0  0  0  0  0999 V2000
   11.0420  -18.8726   21.3532 N   0  0  0  0  0  0  0  0  0  0  0  0
   11.3669  -17.4766   21.3686 C   0  0  1  0  0  0  0  0  0  0  0  0
   11.4408  -16.8056   20.0439 C   0  0  0  0  0  0  0  0  0  0  0  0
   11.7314  -17.6351   18.8581 C   0  0  0  0  0  0  0  0  0  0  0  0
   13.1283  -18.0110   18.6173 C   0  0  0  0  0  0  0  0  0  0  0  0
   13.5443  -19.1632   18.8360 O   0  0  0  0  0  0  0  0  0  0  0  0
   10.4242  -16.7922   22.2986 C   0  0  0  0  0  0  0  0  0  0  0  0
   10.0460  -15.6261   22.0342 O   0  0  0  0  0  0  0  0  0  0  0  0
   14.0681  -17.0934   18.1283 O   0  0  0  0  0  0  0  0  0  0  0  0
    9.9260  -17.3845   23.4717 N   0  0  0  0  0  0  0  0  0  0  0  0
    9.0595  -16.6906   24.4367 C   0  0  1  0  0  0  0  0  0  0  0  0
    8.0588  -17.7686   24.8652 C   0  0  0  0  0  0  0  0  0  0  0  0
    7.3177  -17.4619   26.4625 S   0  0  0  0  0  0  0  0  0  0  0  0
    9.8201  -16.2850   25.6286 C   0  0  0  0  0  0  0  0  0  0  0  0
   10.8833  -16.9342   25.8949 O   0  0  0  0  0  0  0  0  0  0  0  0
    9.4945  -15.2458   26.5119 N   0  0  0  0  0  0  0  0  0  0  0  0
   10.3505  -14.8172   27.6097 C   0  0  1  0  0  0  0  0  0  0  0  0
    9.7529  -13.6162   28.3320 C   0  0  0  0  0  0  0  0  0  0  0  0
    8.9817  -12.5281   27.1178 S   0  0  0  0  0  0  0  0  0  0  0  0
   10.3937  -15.9383   28.5856 C   0  0  0  0  0  0  0  0  0  0  0  0
   11.2044  -15.9203   29.7102 O   0  0  0  0  0  0  0  0  0  0  0  0
    9.6771  -16.9396   28.3961 O   0  0  0  0  0  0  0  0  0  0  0  0
  2  1  1  6
  2  3  1  0
  3  4  1  0
  4  5  1  0
  5  9  1  0
  6  5  2  0
  7  2  1  0
  8  7  2  0
 10  7  1  0
 11 10  1  0
 11 14  1  0
 11 12  1  1
 13 12  1  0
 14 15  2  0
 14 16  1  0
 16 17  1  0
 17 20  1  0
 17 18  1  1
 19 18  1  0
 20 22  2  0
 20 21  1  0
M  END
$$$$
