ECC.pdb
     RDKit          3D

 22 21  0  0  1  0  0  0  0  0999 V2000
    5.7725  -16.3324   20.7418 N   0  0  0  0  0  0  0  0  0  0  0  0
    7.0138  -17.0475   20.7906 C   0  0  1  0  0  0  0  0  0  0  0  0
    7.6778  -17.2991   19.4844 C   0  0  0  0  0  0  0  0  0  0  0  0
    8.1248  -16.1350   18.6946 C   0  0  0  0  0  0  0  0  0  0  0  0
    8.8347  -16.3979   17.4385 C   0  0  0  0  0  0  0  0  0  0  0  0
    8.4659  -17.2876   16.6507 O   0  0  0  0  0  0  0  0  0  0  0  0
    7.9107  -16.3527   21.7575 C   0  0  0  0  0  0  0  0  0  0  0  0
    9.1515  -16.4034   21.5829 O   0  0  0  0  0  0  0  0  0  0  0  0
    9.9652  -15.6614   17.0590 O   0  0  0  0  0  0  0  0  0  0  0  0
    7.4419  -15.6329   22.8699 N   0  0  0  0  0  0  0  0  0  0  0  0
    8.3119  -15.1095   23.9342 C   0  0  1  0  0  0  0  0  0  0  0  0
    7.6490  -13.7847   24.3250 C   0  0  0  0  0  0  0  0  0  0  0  0
    6.0748  -13.9880   25.1466 S   0  0  0  0  0  0  0  0  0  0  0  0
    8.2868  -15.9889   25.1130 C   0  0  0  0  0  0  0  0  0  0  0  0
    7.2309  -16.6733   25.3119 O   0  0  0  0  0  0  0  0  0  0  0  0
    9.3156  -16.1559   26.0510 N   0  0  0  0  0  0  0  0  0  0  0  0
    9.5857  -17.4085   26.7434 C   0  0  1  0  0  0  0  0  0  0  0  0
   10.0203  -18.4918   25.7642 C   0  0  0  0  0  0  0  0  0  0  0  0
   10.4785  -19.9689   26.6922 S   0  0  0  0  0  0  0  0  0  0  0  0
   10.7323  -17.1577   27.6564 C   0  0  0  0  0  0  0  0  0  0  0  0
   10.9530  -17.9055   28.8029 O   0  0  0  0  0  0  0  0  0  0  0  0
   11.5338  -16.2416   27.3912 O   0  0  0  0  0  0  0  0  0  0  0  0
  2  1  1  6
  2  3  1  0
  3  4  1  0
  4  5  1  0
  5  9  1  0
  6  5  2  0
  7  2  1  0
  8  7  2  0
 10  7  1  0
 11 10  1  0
 11 14  1  0
 11 12  1  1
 13 12  1  0
 14 15  2  0
 14 16  1  0
 16 17  1  0
 17 20  1  0
 17 18  1  6
 19 18  1  0
 20 22  2  0
 20 21  1  0
M  END
$$$$
