ECC.pdb
     RDKit          3D

 22 21  0  0  1  0  0  0  0  0999 V2000
   10.4526  -15.9648   20.2596 N   0  0  0  0  0  0  0  0  0  0  0  0
   10.1384  -16.7711   21.4023 C   0  0  1  0  0  0  0  0  0  0  0  0
   11.0640  -17.9001   21.6833 C   0  0  0  0  0  0  0  0  0  0  0  0
   11.5816  -18.6775   20.5402 C   0  0  0  0  0  0  0  0  0  0  0  0
   10.6322  -19.5195   19.8052 C   0  0  0  0  0  0  0  0  0  0  0  0
   10.3582  -19.3090   18.6098 O   0  0  0  0  0  0  0  0  0  0  0  0
    9.9748  -15.8669   22.5761 C   0  0  0  0  0  0  0  0  0  0  0  0
   10.8382  -14.9828   22.7895 O   0  0  0  0  0  0  0  0  0  0  0  0
    9.9837  -20.6052   20.4095 O   0  0  0  0  0  0  0  0  0  0  0  0
    8.8944  -15.9468   23.4713 N   0  0  0  0  0  0  0  0  0  0  0  0
    8.7213  -15.0567   24.6295 C   0  0  1  0  0  0  0  0  0  0  0  0
    7.2357  -15.1981   24.9760 C   0  0  0  0  0  0  0  0  0  0  0  0
    6.7172  -14.1621   26.3370 S   0  0  0  0  0  0  0  0  0  0  0  0
    9.4987  -15.5372   25.7820 C   0  0  0  0  0  0  0  0  0  0  0  0
    9.7774  -16.7795   25.8247 O   0  0  0  0  0  0  0  0  0  0  0  0
    9.9719  -14.7621   26.8504 N   0  0  0  0  0  0  0  0  0  0  0  0
   10.8571  -15.2691   27.8900 C   0  0  1  0  0  0  0  0  0  0  0  0
   11.0382  -14.2435   29.0020 C   0  0  0  0  0  0  0  0  0  0  0  0
   10.7479  -12.5952   28.3298 S   0  0  0  0  0  0  0  0  0  0  0  0
   10.1842  -16.4516   28.4900 C   0  0  0  0  0  0  0  0  0  0  0  0
   10.8054  -17.2760   29.4158 O   0  0  0  0  0  0  0  0  0  0  0  0
    9.0153  -16.7229   28.1555 O   0  0  0  0  0  0  0  0  0  0  0  0
  2  1  1  6
  2  3  1  0
  3  4  1  0
  4  5  1  0
  5  9  1  0
  6  5  2  0
  7  2  1  0
  8  7  2  0
 10  7  1  0
 11 10  1  0
 11 14  1  0
 11 12  1  1
 13 12  1  0
 14 15  2  0
 14 16  1  0
 16 17  1  0
 17 20  1  0
 17 18  1  1
 19 18  1  0
 20 22  2  0
 20 21  1  0
M  END
$$$$
