ECC.pdb
     RDKit          3D

 22 21  0  0  1  0  0  0  0  0999 V2000
   11.7841  -19.5259   21.6924 N   0  0  0  0  0  0  0  0  0  0  0  0
   12.8750  -18.9781   22.4436 C   0  0  1  0  0  0  0  0  0  0  0  0
   14.1146  -18.6805   21.6785 C   0  0  0  0  0  0  0  0  0  0  0  0
   13.9770  -18.1123   20.3232 C   0  0  0  0  0  0  0  0  0  0  0  0
   15.2074  -17.8046   19.5869 C   0  0  0  0  0  0  0  0  0  0  0  0
   15.1838  -17.2523   18.4722 O   0  0  0  0  0  0  0  0  0  0  0  0
   12.3721  -17.7909   23.1916 C   0  0  0  0  0  0  0  0  0  0  0  0
   13.1962  -16.9581   23.6388 O   0  0  0  0  0  0  0  0  0  0  0  0
   16.4743  -18.1160   20.0993 O   0  0  0  0  0  0  0  0  0  0  0  0
   11.0089  -17.5448   23.4290 N   0  0  0  0  0  0  0  0  0  0  0  0
   10.5041  -16.3941   24.1935 C   0  0  1  0  0  0  0  0  0  0  0  0
    8.9872  -16.4615   23.9901 C   0  0  0  0  0  0  0  0  0  0  0  0
    8.0989  -15.1320   24.7888 S   0  0  0  0  0  0  0  0  0  0  0  0
   10.7720  -16.5598   25.6303 C   0  0  0  0  0  0  0  0  0  0  0  0
   11.0616  -17.7301   26.0419 O   0  0  0  0  0  0  0  0  0  0  0  0
   10.7431  -15.5528   26.6057 N   0  0  0  0  0  0  0  0  0  0  0  0
   11.0259  -15.7821   28.0160 C   0  0  1  0  0  0  0  0  0  0  0  0
   10.6891  -14.5511   28.8482 C   0  0  0  0  0  0  0  0  0  0  0  0
   11.2438  -13.0793   27.9656 S   0  0  0  0  0  0  0  0  0  0  0  0
   10.1224  -16.8746   28.4646 C   0  0  0  0  0  0  0  0  0  0  0  0
   10.2692  -17.5123   29.6870 O   0  0  0  0  0  0  0  0  0  0  0  0
    9.1923  -17.2407   27.7211 O   0  0  0  0  0  0  0  0  0  0  0  0
  2  1  1  6
  2  3  1  0
  3  4  1  0
  4  5  1  0
  5  9  1  0
  6  5  2  0
  7  2  1  0
  8  7  2  0
 10  7  1  0
 11 10  1  0
 11 14  1  0
 11 12  1  1
 13 12  1  0
 14 15  2  0
 14 16  1  0
 16 17  1  0
 17 20  1  0
 17 18  1  1
 19 18  1  0
 20 22  2  0
 20 21  1  0
M  END
$$$$
