ECC.pdb
     RDKit          3D

 22 21  0  0  1  0  0  0  0  0999 V2000
    9.1094  -16.4568   19.3270 N   0  0  0  0  0  0  0  0  0  0  0  0
    9.4425  -17.0275   20.5990 C   0  0  1  0  0  0  0  0  0  0  0  0
   10.7553  -17.7202   20.6838 C   0  0  0  0  0  0  0  0  0  0  0  0
   11.5054  -17.9467   19.4330 C   0  0  0  0  0  0  0  0  0  0  0  0
   12.7855  -18.6559   19.5269 C   0  0  0  0  0  0  0  0  0  0  0  0
   13.8618  -18.0494   19.6751 O   0  0  0  0  0  0  0  0  0  0  0  0
    9.2935  -15.9667   21.6357 C   0  0  0  0  0  0  0  0  0  0  0  0
    9.6067  -14.7866   21.3496 O   0  0  0  0  0  0  0  0  0  0  0  0
   12.8647  -20.0534   19.4549 O   0  0  0  0  0  0  0  0  0  0  0  0
    8.8156  -16.2136   22.9340 N   0  0  0  0  0  0  0  0  0  0  0  0
    8.6050  -15.1649   23.9437 C   0  0  1  0  0  0  0  0  0  0  0  0
    7.1271  -15.3147   24.3186 C   0  0  0  0  0  0  0  0  0  0  0  0
    6.7083  -16.9370   24.9409 S   0  0  0  0  0  0  0  0  0  0  0  0
    9.4032  -15.4299   25.1505 C   0  0  0  0  0  0  0  0  0  0  0  0
   10.0429  -16.5304   25.2008 O   0  0  0  0  0  0  0  0  0  0  0  0
    9.5365  -14.5879   26.2638 N   0  0  0  0  0  0  0  0  0  0  0  0
   10.3656  -14.8985   27.4204 C   0  0  1  0  0  0  0  0  0  0  0  0
   10.1698  -13.8685   28.5258 C   0  0  0  0  0  0  0  0  0  0  0  0
   11.1429  -14.3607   29.9624 S   0  0  0  0  0  0  0  0  0  0  0  0
    9.8934  -16.2051   27.9505 C   0  0  0  0  0  0  0  0  0  0  0  0
   10.7592  -17.1691   28.4440 O   0  0  0  0  0  0  0  0  0  0  0  0
    8.6731  -16.4554   27.9570 O   0  0  0  0  0  0  0  0  0  0  0  0
  2  1  1  6
  2  3  1  0
  3  4  1  0
  4  5  1  0
  5  9  1  0
  6  5  2  0
  7  2  1  0
  8  7  2  0
 10  7  1  0
 11 10  1  0
 11 14  1  0
 11 12  1  1
 13 12  1  0
 14 15  2  0
 14 16  1  0
 16 17  1  0
 17 20  1  0
 17 18  1  1
 19 18  1  0
 20 22  2  0
 20 21  1  0
M  END
$$$$
