HFK.pdb
     RDKit          3D

 31 32  0  0  1  0  0  0  0  0999 V2000
   29.0248  -21.6594  -16.6659 N   0  0  0  0  0  0  0  0  0  0  0  0
   27.8069  -20.9064  -16.4922 C   0  0  1  0  0  0  0  0  0  0  0  0
   27.0140  -21.0059  -17.7664 C   0  0  0  0  0  0  0  0  0  0  0  0
   27.6595  -20.1388  -18.7780 C   0  0  0  0  0  0  0  0  0  0  0  0
   27.7256  -18.7643  -18.7231 C   0  0  0  0  0  0  0  0  0  0  0  0
   28.3799  -18.2892  -19.7982 N   0  0  0  0  0  0  0  0  0  0  0  0
   28.7287  -19.3490  -20.5332 C   0  0  0  0  0  0  0  0  0  0  0  0
   28.2897  -20.4818  -19.9122 N   0  0  0  0  0  0  0  0  0  0  0  0
   27.0434  -21.3265  -15.2982 C   0  0  0  0  0  0  0  0  0  0  0  0
   27.0507  -22.5434  -14.9845 O   0  0  0  0  0  0  0  0  0  0  0  0
   26.2977  -20.4541  -14.4736 N   0  0  0  0  0  0  0  0  0  0  0  0
   25.6041  -20.8084  -13.2846 C   0  0  1  0  0  0  0  0  0  0  0  0
   25.9785  -20.0214  -12.0739 C   0  0  0  0  0  0  0  0  0  0  0  0
   27.1972  -20.4672  -11.4029 C   0  0  0  0  0  0  0  0  0  0  0  0
   27.2374  -21.0478  -10.1538 C   0  0  0  0  0  0  0  0  0  0  0  0
   28.4186  -21.4518   -9.5643 C   0  0  0  0  0  0  0  0  0  0  0  0
   29.6150  -21.2777  -10.2320 C   0  0  0  0  0  0  0  0  0  0  0  0
   29.5956  -20.6902  -11.5011 C   0  0  0  0  0  0  0  0  0  0  0  0
   28.4027  -20.3015  -12.0544 C   0  0  0  0  0  0  0  0  0  0  0  0
   24.1263  -20.7518  -13.5673 C   0  0  0  0  0  0  0  0  0  0  0  0
   23.6437  -19.7383  -14.1308 O   0  0  0  0  0  0  0  0  0  0  0  0
   23.2649  -21.8104  -13.2153 N   0  0  0  0  0  0  0  0  0  0  0  0
   21.8253  -21.8423  -13.3704 C   0  0  1  0  0  0  0  0  0  0  0  0
   21.2943  -23.2005  -13.6068 C   0  0  0  0  0  0  0  0  0  0  0  0
   21.9859  -24.0543  -14.5952 C   0  0  0  0  0  0  0  0  0  0  0  0
   21.3670  -25.4098  -14.8048 C   0  0  0  0  0  0  0  0  0  0  0  0
   22.1278  -26.2352  -15.8218 C   0  0  0  0  0  0  0  0  0  0  0  0
   21.5473  -27.5677  -15.8088 N   0  0  0  0  0  0  0  0  0  0  0  0
   21.1086  -21.0355  -12.3540 C   0  0  0  0  0  0  0  0  0  0  0  0
   21.5169  -20.9095  -11.1778 O   0  0  0  0  0  0  0  0  0  0  0  0
   19.9383  -20.3751  -12.6642 O   0  0  0  0  0  0  0  0  0  0  0  0
  2  1  1  6
  2  3  1  0
  3  4  1  0
  4  5  2  0
  6  5  1  0
  7  6  1  0
  8  7  2  0
  8  4  1  0
  9  2  1  0
 10  9  2  0
 11  9  1  0
 12 13  1  1
 12 11  1  0
 13 14  1  0
 14 15  2  0
 15 16  1  0
 17 16  2  0
 18 17  1  0
 19 18  2  0
 19 14  1  0
 20 22  1  0
 20 12  1  0
 21 20  2  0
 23 24  1  1
 23 22  1  0
 25 24  1  0
 26 27  1  0
 26 25  1  0
 27 28  1  0
 29 23  1  0
 29 31  1  0
 30 29  2  0
M  END
$$$$
