HFK.pdb
     RDKit          3D

 31 32  0  0  1  0  0  0  0  0999 V2000
   26.4680  -19.7360  -15.8507 N   0  0  0  0  0  0  0  0  0  0  0  0
   26.5627  -21.1474  -15.5687 C   0  0  1  0  0  0  0  0  0  0  0  0
   28.0186  -21.4944  -15.4207 C   0  0  0  0  0  0  0  0  0  0  0  0
   28.6914  -21.2125  -16.7090 C   0  0  0  0  0  0  0  0  0  0  0  0
   29.5202  -20.1410  -16.9568 C   0  0  0  0  0  0  0  0  0  0  0  0
   29.9636  -20.1827  -18.2261 N   0  0  0  0  0  0  0  0  0  0  0  0
   29.4238  -21.2698  -18.7846 C   0  0  0  0  0  0  0  0  0  0  0  0
   28.6452  -21.9019  -17.8596 N   0  0  0  0  0  0  0  0  0  0  0  0
   25.7476  -21.5509  -14.4035 C   0  0  0  0  0  0  0  0  0  0  0  0
   25.7000  -22.7705  -14.1038 O   0  0  0  0  0  0  0  0  0  0  0  0
   25.0096  -20.6598  -13.5921 N   0  0  0  0  0  0  0  0  0  0  0  0
   24.1577  -21.0156  -12.5114 C   0  0  1  0  0  0  0  0  0  0  0  0
   24.2755  -20.1524  -11.3006 C   0  0  0  0  0  0  0  0  0  0  0  0
   25.4428  -20.4214  -10.4644 C   0  0  0  0  0  0  0  0  0  0  0  0
   25.7650  -19.7251   -9.3196 C   0  0  0  0  0  0  0  0  0  0  0  0
   26.8822  -20.0209   -8.5646 C   0  0  0  0  0  0  0  0  0  0  0  0
   27.7215  -21.0473   -8.9513 C   0  0  0  0  0  0  0  0  0  0  0  0
   27.4120  -21.7663  -10.1104 C   0  0  0  0  0  0  0  0  0  0  0  0
   26.2933  -21.4434  -10.8347 C   0  0  0  0  0  0  0  0  0  0  0  0
   22.7451  -21.0834  -13.0285 C   0  0  0  0  0  0  0  0  0  0  0  0
   22.2695  -20.1048  -13.6560 O   0  0  0  0  0  0  0  0  0  0  0  0
   21.9376  -22.2209  -12.8267 N   0  0  0  0  0  0  0  0  0  0  0  0
   20.5451  -22.3696  -13.1961 C   0  0  1  0  0  0  0  0  0  0  0  0
   20.0567  -23.7591  -13.0815 C   0  0  0  0  0  0  0  0  0  0  0  0
   18.6303  -24.0198  -13.3671 C   0  0  0  0  0  0  0  0  0  0  0  0
   18.2318  -25.4704  -13.3323 C   0  0  0  0  0  0  0  0  0  0  0  0
   16.8057  -25.6834  -13.7962 C   0  0  0  0  0  0  0  0  0  0  0  0
   16.5642  -27.1167  -13.7859 N   0  0  0  0  0  0  0  0  0  0  0  0
   19.6693  -21.3260  -12.6114 C   0  0  0  0  0  0  0  0  0  0  0  0
   19.6885  -21.0281  -11.3962 O   0  0  0  0  0  0  0  0  0  0  0  0
   18.7778  -20.6233  -13.3945 O   0  0  0  0  0  0  0  0  0  0  0  0
  2  1  1  1
  2  3  1  0
  3  4  1  0
  4  5  2  0
  6  5  1  0
  7  6  1  0
  8  7  2  0
  8  4  1  0
  9  2  1  0
 10  9  2  0
 11  9  1  0
 12 13  1  1
 12 11  1  0
 13 14  1  0
 14 15  2  0
 15 16  1  0
 17 16  2  0
 18 17  1  0
 19 18  2  0
 19 14  1  0
 20 22  1  0
 20 12  1  0
 21 20  2  0
 23 24  1  1
 23 22  1  0
 25 24  1  0
 26 27  1  0
 26 25  1  0
 27 28  1  0
 29 23  1  0
 29 31  1  0
 30 29  2  0
M  END
$$$$
