HFK.pdb
     RDKit          3D

 31 32  0  0  1  0  0  0  0  0999 V2000
   14.8874  -18.3591    4.5522 N   0  0  0  0  0  0  0  0  0  0  0  0
   16.3040  -18.5289    4.7643 C   0  0  1  0  0  0  0  0  0  0  0  0
   17.0199  -18.0264    3.5408 C   0  0  0  0  0  0  0  0  0  0  0  0
   16.7783  -18.9867    2.4403 C   0  0  0  0  0  0  0  0  0  0  0  0
   17.6626  -19.9553    2.0202 C   0  0  0  0  0  0  0  0  0  0  0  0
   17.1323  -20.6554    1.0013 N   0  0  0  0  0  0  0  0  0  0  0  0
   15.9213  -20.1399    0.7719 C   0  0  0  0  0  0  0  0  0  0  0  0
   15.7015  -19.1192    1.6502 N   0  0  0  0  0  0  0  0  0  0  0  0
   16.7726  -17.8935    6.0140 C   0  0  0  0  0  0  0  0  0  0  0  0
   16.3735  -16.7312    6.2771 O   0  0  0  0  0  0  0  0  0  0  0  0
   17.6448  -18.5005    6.9456 N   0  0  0  0  0  0  0  0  0  0  0  0
   18.0589  -17.9530    8.1903 C   0  0  1  0  0  0  0  0  0  0  0  0
   17.7637  -18.7976    9.3839 C   0  0  0  0  0  0  0  0  0  0  0  0
   16.3462  -18.9199    9.7156 C   0  0  0  0  0  0  0  0  0  0  0  0
   15.6011  -17.9466   10.3453 C   0  0  0  0  0  0  0  0  0  0  0  0
   14.2620  -18.1136   10.6361 C   0  0  0  0  0  0  0  0  0  0  0  0
   13.6253  -19.2901   10.2929 C   0  0  0  0  0  0  0  0  0  0  0  0
   14.3640  -20.2906    9.6530 C   0  0  0  0  0  0  0  0  0  0  0  0
   15.6927  -20.0885    9.3805 C   0  0  0  0  0  0  0  0  0  0  0  0
   19.5195  -17.6018    8.0872 C   0  0  0  0  0  0  0  0  0  0  0  0
   20.2844  -18.3337    7.4113 O   0  0  0  0  0  0  0  0  0  0  0  0
   20.0547  -16.4683    8.7315 N   0  0  0  0  0  0  0  0  0  0  0  0
   21.4459  -16.0663    8.7609 C   0  0  1  0  0  0  0  0  0  0  0  0
   21.6351  -14.6466    9.1230 C   0  0  0  0  0  0  0  0  0  0  0  0
   21.2890  -13.6212    8.1165 C   0  0  0  0  0  0  0  0  0  0  0  0
   21.6181  -12.2075    8.5133 C   0  0  0  0  0  0  0  0  0  0  0  0
   21.1847  -11.2034    7.4653 C   0  0  0  0  0  0  0  0  0  0  0  0
   21.6967   -9.9077    7.8796 N   0  0  0  0  0  0  0  0  0  0  0  0
   22.3207  -17.0351    9.4637 C   0  0  0  0  0  0  0  0  0  0  0  0
   21.8882  -17.8479   10.3112 O   0  0  0  0  0  0  0  0  0  0  0  0
   23.6755  -17.0857    9.2106 O   0  0  0  0  0  0  0  0  0  0  0  0
  2  1  1  6
  2  3  1  0
  3  4  1  0
  4  5  2  0
  6  5  1  0
  7  6  1  0
  8  7  2  0
  8  4  1  0
  9  2  1  0
 10  9  2  0
 11  9  1  0
 12 13  1  1
 12 11  1  0
 13 14  1  0
 14 15  2  0
 15 16  1  0
 17 16  2  0
 18 17  1  0
 19 18  2  0
 19 14  1  0
 20 22  1  0
 20 12  1  0
 21 20  2  0
 23 24  1  1
 23 22  1  0
 25 24  1  0
 26 27  1  0
 26 25  1  0
 27 28  1  0
 29 23  1  0
 29 31  1  0
 30 29  2  0
M  END
$$$$
