HFK.pdb
     RDKit          3D

 31 32  0  0  1  0  0  0  0  0999 V2000
   18.0915  -23.4098  -14.8409 N   0  0  0  0  0  0  0  0  0  0  0  0
   17.2297  -23.6252  -13.7045 C   0  0  1  0  0  0  0  0  0  0  0  0
   16.3238  -24.7830  -14.0219 C   0  0  0  0  0  0  0  0  0  0  0  0
   15.2455  -24.2927  -14.9099 C   0  0  0  0  0  0  0  0  0  0  0  0
   14.0307  -23.7986  -14.4895 C   0  0  0  0  0  0  0  0  0  0  0  0
   13.2845  -23.4410  -15.5502 N   0  0  0  0  0  0  0  0  0  0  0  0
   14.0146  -23.7035  -16.6378 C   0  0  0  0  0  0  0  0  0  0  0  0
   15.2145  -24.2245  -16.2499 N   0  0  0  0  0  0  0  0  0  0  0  0
   17.9827  -23.8045  -12.4451 C   0  0  0  0  0  0  0  0  0  0  0  0
   18.9136  -24.6484  -12.4228 O   0  0  0  0  0  0  0  0  0  0  0  0
   17.7324  -23.0911  -11.2511 N   0  0  0  0  0  0  0  0  0  0  0  0
   18.4725  -23.1897  -10.0416 C   0  0  1  0  0  0  0  0  0  0  0  0
   19.2035  -21.9520   -9.6431 C   0  0  0  0  0  0  0  0  0  0  0  0
   19.8205  -21.2197  -10.7465 C   0  0  0  0  0  0  0  0  0  0  0  0
   21.1262  -21.3756  -11.1586 C   0  0  0  0  0  0  0  0  0  0  0  0
   21.6603  -20.6570  -12.2093 C   0  0  0  0  0  0  0  0  0  0  0  0
   20.8765  -19.7433  -12.8863 C   0  0  0  0  0  0  0  0  0  0  0  0
   19.5483  -19.5703  -12.4835 C   0  0  0  0  0  0  0  0  0  0  0  0
   19.0529  -20.3023  -11.4351 C   0  0  0  0  0  0  0  0  0  0  0  0
   17.5446  -23.6773   -8.9606 C   0  0  0  0  0  0  0  0  0  0  0  0
   16.3363  -23.3348   -8.9831 O   0  0  0  0  0  0  0  0  0  0  0  0
   17.9969  -24.5118   -7.9187 N   0  0  0  0  0  0  0  0  0  0  0  0
   17.2232  -24.9793   -6.7871 C   0  0  1  0  0  0  0  0  0  0  0  0
   16.6663  -26.3338   -6.9812 C   0  0  0  0  0  0  0  0  0  0  0  0
   15.7387  -26.8568   -5.9564 C   0  0  0  0  0  0  0  0  0  0  0  0
   15.1422  -28.2024   -6.2692 C   0  0  0  0  0  0  0  0  0  0  0  0
   14.2026  -28.6788   -5.1809 C   0  0  0  0  0  0  0  0  0  0  0  0
   13.7359  -29.9994   -5.5694 N   0  0  0  0  0  0  0  0  0  0  0  0
   17.8843  -24.7325   -5.4834 C   0  0  0  0  0  0  0  0  0  0  0  0
   19.1182  -24.5559   -5.3721 O   0  0  0  0  0  0  0  0  0  0  0  0
   17.1565  -24.6853   -4.3130 O   0  0  0  0  0  0  0  0  0  0  0  0
  2  1  1  6
  2  3  1  0
  3  4  1  0
  4  5  2  0
  6  5  1  0
  7  6  1  0
  8  7  2  0
  8  4  1  0
  9  2  1  0
 10  9  2  0
 11  9  1  0
 12 13  1  1
 12 11  1  0
 13 14  1  0
 14 15  2  0
 15 16  1  0
 17 16  2  0
 18 17  1  0
 19 18  2  0
 19 14  1  0
 20 22  1  0
 20 12  1  0
 21 20  2  0
 23 24  1  6
 23 22  1  0
 25 24  1  0
 26 27  1  0
 26 25  1  0
 27 28  1  0
 29 23  1  0
 29 31  1  0
 30 29  2  0
M  END
$$$$
