HFK.pdb
     RDKit          3D

 31 32  0  0  1  0  0  0  0  0999 V2000
   28.5324  -21.0484  -15.1649 N   0  0  0  0  0  0  0  0  0  0  0  0
   27.6858  -20.1192  -14.4575 C   0  0  1  0  0  0  0  0  0  0  0  0
   26.9811  -19.2656  -15.4758 C   0  0  0  0  0  0  0  0  0  0  0  0
   27.9893  -18.3958  -16.1229 C   0  0  0  0  0  0  0  0  0  0  0  0
   28.7455  -18.7353  -17.2227 C   0  0  0  0  0  0  0  0  0  0  0  0
   29.5623  -17.7191  -17.5541 N   0  0  0  0  0  0  0  0  0  0  0  0
   29.3309  -16.7397  -16.6753 C   0  0  0  0  0  0  0  0  0  0  0  0
   28.3695  -17.1502  -15.7986 N   0  0  0  0  0  0  0  0  0  0  0  0
   26.7598  -20.7917  -13.5218 C   0  0  0  0  0  0  0  0  0  0  0  0
   26.2983  -21.9150  -13.8451 O   0  0  0  0  0  0  0  0  0  0  0  0
   26.3497  -20.2615  -12.2777 N   0  0  0  0  0  0  0  0  0  0  0  0
   25.2692  -20.7271  -11.4802 C   0  0  1  0  0  0  0  0  0  0  0  0
   25.3371  -20.3503  -10.0385 C   0  0  0  0  0  0  0  0  0  0  0  0
   26.6513  -20.5125   -9.4214 C   0  0  0  0  0  0  0  0  0  0  0  0
   27.6000  -21.4270   -9.8251 C   0  0  0  0  0  0  0  0  0  0  0  0
   28.8288  -21.5391   -9.2060 C   0  0  0  0  0  0  0  0  0  0  0  0
   29.1404  -20.7156   -8.1419 C   0  0  0  0  0  0  0  0  0  0  0  0
   28.1910  -19.7806   -7.7168 C   0  0  0  0  0  0  0  0  0  0  0  0
   26.9809  -19.6985   -8.3566 C   0  0  0  0  0  0  0  0  0  0  0  0
   23.9830  -20.2842  -12.1257 C   0  0  0  0  0  0  0  0  0  0  0  0
   24.0178  -19.7136  -13.2441 O   0  0  0  0  0  0  0  0  0  0  0  0
   22.7344  -20.4933  -11.5061 N   0  0  0  0  0  0  0  0  0  0  0  0
   21.5199  -20.9589  -12.1431 C   0  0  1  0  0  0  0  0  0  0  0  0
   21.7380  -22.1098  -13.0433 C   0  0  0  0  0  0  0  0  0  0  0  0
   20.7258  -22.3772  -14.0865 C   0  0  0  0  0  0  0  0  0  0  0  0
   20.0645  -23.7258  -13.9969 C   0  0  0  0  0  0  0  0  0  0  0  0
   19.0170  -23.9221  -15.0733 C   0  0  0  0  0  0  0  0  0  0  0  0
   18.3243  -25.1639  -14.7719 N   0  0  0  0  0  0  0  0  0  0  0  0
   20.3761  -21.0773  -11.2075 C   0  0  0  0  0  0  0  0  0  0  0  0
   20.3631  -21.8852  -10.2519 O   0  0  0  0  0  0  0  0  0  0  0  0
   19.2541  -20.2881  -11.3502 O   0  0  0  0  0  0  0  0  0  0  0  0
  2  1  1  6
  2  3  1  0
  3  4  1  0
  4  5  2  0
  6  5  1  0
  7  6  1  0
  8  7  2  0
  8  4  1  0
  9  2  1  0
 10  9  2  0
 11  9  1  0
 12 13  1  1
 12 11  1  0
 13 14  1  0
 14 15  2  0
 15 16  1  0
 17 16  2  0
 18 17  1  0
 19 18  2  0
 19 14  1  0
 20 22  1  0
 20 12  1  0
 21 20  2  0
 23 24  1  1
 23 22  1  0
 25 24  1  0
 26 27  1  0
 26 25  1  0
 27 28  1  0
 29 23  1  0
 29 31  1  0
 30 29  2  0
M  END
$$$$
