HFK.pdb
     RDKit          3D

 31 32  0  0  1  0  0  0  0  0999 V2000
   24.5034  -24.8676  -19.2959 N   0  0  0  0  0  0  0  0  0  0  0  0
   23.5064  -24.1046  -18.5856 C   0  0  1  0  0  0  0  0  0  0  0  0
   22.6084  -23.4545  -19.6019 C   0  0  0  0  0  0  0  0  0  0  0  0
   23.3997  -22.4370  -20.3302 C   0  0  0  0  0  0  0  0  0  0  0  0
   24.0307  -21.3569  -19.7542 C   0  0  0  0  0  0  0  0  0  0  0  0
   24.6600  -20.6320  -20.6965 N   0  0  0  0  0  0  0  0  0  0  0  0
   24.4338  -21.2422  -21.8634 C   0  0  0  0  0  0  0  0  0  0  0  0
   23.6634  -22.3464  -21.6430 N   0  0  0  0  0  0  0  0  0  0  0  0
   22.7698  -24.9152  -17.5930 C   0  0  0  0  0  0  0  0  0  0  0  0
   22.3656  -26.0545  -17.9365 O   0  0  0  0  0  0  0  0  0  0  0  0
   22.4824  -24.5018  -16.2725 N   0  0  0  0  0  0  0  0  0  0  0  0
   21.8339  -25.2750  -15.2715 C   0  0  1  0  0  0  0  0  0  0  0  0
   22.2533  -24.9787  -13.8710 C   0  0  0  0  0  0  0  0  0  0  0  0
   21.5192  -25.7101  -12.8412 C   0  0  0  0  0  0  0  0  0  0  0  0
   21.7390  -27.0293  -12.5085 C   0  0  0  0  0  0  0  0  0  0  0  0
   21.0154  -27.6738  -11.5253 C   0  0  0  0  0  0  0  0  0  0  0  0
   20.0310  -26.9920  -10.8372 C   0  0  0  0  0  0  0  0  0  0  0  0
   19.7923  -25.6522  -11.1600 C   0  0  0  0  0  0  0  0  0  0  0  0
   20.5315  -25.0455  -12.1428 C   0  0  0  0  0  0  0  0  0  0  0  0
   20.3465  -25.1396  -15.4624 C   0  0  0  0  0  0  0  0  0  0  0  0
   19.8375  -23.9951  -15.5561 O   0  0  0  0  0  0  0  0  0  0  0  0
   19.5051  -26.2678  -15.5393 N   0  0  0  0  0  0  0  0  0  0  0  0
   18.0612  -26.2639  -15.6521 C   0  0  1  0  0  0  0  0  0  0  0  0
   17.5138  -27.5326  -16.1748 C   0  0  0  0  0  0  0  0  0  0  0  0
   16.0543  -27.6234  -16.3891 C   0  0  0  0  0  0  0  0  0  0  0  0
   15.5825  -28.9154  -16.9992 C   0  0  0  0  0  0  0  0  0  0  0  0
   14.0878  -28.9201  -17.2447 C   0  0  0  0  0  0  0  0  0  0  0  0
   13.8645  -28.2672  -18.5240 N   0  0  0  0  0  0  0  0  0  0  0  0
   17.3818  -25.7102  -14.4564 C   0  0  0  0  0  0  0  0  0  0  0  0
   17.8641  -25.7915  -13.3046 O   0  0  0  0  0  0  0  0  0  0  0  0
   16.1655  -25.0687  -14.5611 O   0  0  0  0  0  0  0  0  0  0  0  0
  2  1  1  6
  2  3  1  0
  3  4  1  0
  4  5  2  0
  6  5  1  0
  7  6  1  0
  8  7  2  0
  8  4  1  0
  9  2  1  0
 10  9  2  0
 11  9  1  0
 12 13  1  1
 12 11  1  0
 13 14  1  0
 14 15  2  0
 15 16  1  0
 17 16  2  0
 18 17  1  0
 19 18  2  0
 19 14  1  0
 20 22  1  0
 20 12  1  0
 21 20  2  0
 23 24  1  1
 23 22  1  0
 25 24  1  0
 26 27  1  0
 26 25  1  0
 27 28  1  0
 29 23  1  0
 29 31  1  0
 30 29  2  0
M  END
$$$$
