HFK.pdb
     RDKit          3D

 31 32  0  0  1  0  0  0  0  0999 V2000
   28.0560  -22.4073  -18.5481 N   0  0  0  0  0  0  0  0  0  0  0  0
   27.3265  -21.2869  -18.0068 C   0  0  1  0  0  0  0  0  0  0  0  0
   26.3583  -20.8131  -19.0557 C   0  0  0  0  0  0  0  0  0  0  0  0
   27.1250  -20.0904  -20.0958 C   0  0  0  0  0  0  0  0  0  0  0  0
   27.6794  -18.8382  -19.9505 C   0  0  0  0  0  0  0  0  0  0  0  0
   28.3071  -18.4757  -21.0837 N   0  0  0  0  0  0  0  0  0  0  0  0
   28.1558  -19.4858  -21.9450 C   0  0  0  0  0  0  0  0  0  0  0  0
   27.4333  -20.4750  -21.3441 N   0  0  0  0  0  0  0  0  0  0  0  0
   26.6778  -21.6001  -16.7160 C   0  0  0  0  0  0  0  0  0  0  0  0
   26.0483  -22.6829  -16.6132 O   0  0  0  0  0  0  0  0  0  0  0  0
   26.7122  -20.7652  -15.5763 N   0  0  0  0  0  0  0  0  0  0  0  0
   26.0849  -21.0216  -14.3269 C   0  0  1  0  0  0  0  0  0  0  0  0
   26.7429  -20.3907  -13.1461 C   0  0  0  0  0  0  0  0  0  0  0  0
   26.0949  -20.6589  -11.8645 C   0  0  0  0  0  0  0  0  0  0  0  0
   26.4484  -21.6760  -11.0044 C   0  0  0  0  0  0  0  0  0  0  0  0
   25.8018  -21.8858   -9.8029 C   0  0  0  0  0  0  0  0  0  0  0  0
   24.7605  -21.0593   -9.4288 C   0  0  0  0  0  0  0  0  0  0  0  0
   24.3863  -20.0210  -10.2879 C   0  0  0  0  0  0  0  0  0  0  0  0
   25.0522  -19.8435  -11.4734 C   0  0  0  0  0  0  0  0  0  0  0  0
   24.6329  -20.6401  -14.4423 C   0  0  0  0  0  0  0  0  0  0  0  0
   24.3251  -19.5154  -14.9092 O   0  0  0  0  0  0  0  0  0  0  0  0
   23.6041  -21.5149  -14.0387 N   0  0  0  0  0  0  0  0  0  0  0  0
   22.1836  -21.2324  -14.0265 C   0  0  1  0  0  0  0  0  0  0  0  0
   21.4196  -22.0437  -14.9962 C   0  0  0  0  0  0  0  0  0  0  0  0
   19.9614  -21.8219  -15.0910 C   0  0  0  0  0  0  0  0  0  0  0  0
   19.2626  -22.6421  -16.1412 C   0  0  0  0  0  0  0  0  0  0  0  0
   17.8110  -22.2427  -16.3072 C   0  0  0  0  0  0  0  0  0  0  0  0
   17.2179  -23.1757  -17.2508 N   0  0  0  0  0  0  0  0  0  0  0  0
   21.6142  -21.1517  -12.6601 C   0  0  0  0  0  0  0  0  0  0  0  0
   21.6851  -22.0939  -11.8397 O   0  0  0  0  0  0  0  0  0  0  0  0
   20.9689  -20.0138  -12.2232 O   0  0  0  0  0  0  0  0  0  0  0  0
  2  1  1  6
  2  3  1  0
  3  4  1  0
  4  5  2  0
  6  5  1  0
  7  6  1  0
  8  7  2  0
  8  4  1  0
  9  2  1  0
 10  9  2  0
 11  9  1  0
 12 13  1  1
 12 11  1  0
 13 14  1  0
 14 15  2  0
 15 16  1  0
 17 16  2  0
 18 17  1  0
 19 18  2  0
 19 14  1  0
 20 22  1  0
 20 12  1  0
 21 20  2  0
 23 24  1  6
 23 22  1  0
 25 24  1  0
 26 27  1  0
 26 25  1  0
 27 28  1  0
 29 23  1  0
 29 31  1  0
 30 29  2  0
M  END
$$$$
