HFK.pdb
     RDKit          3D

 31 32  0  0  1  0  0  0  0  0999 V2000
   25.4582  -23.8497  -16.6591 N   0  0  0  0  0  0  0  0  0  0  0  0
   25.9069  -22.5950  -16.1068 C   0  0  1  0  0  0  0  0  0  0  0  0
   25.5111  -21.5006  -17.0595 C   0  0  0  0  0  0  0  0  0  0  0  0
   26.5751  -21.3738  -18.0811 C   0  0  0  0  0  0  0  0  0  0  0  0
   27.5172  -22.3348  -18.3732 C   0  0  0  0  0  0  0  0  0  0  0  0
   28.3339  -21.9005  -19.3499 N   0  0  0  0  0  0  0  0  0  0  0  0
   27.9184  -20.6741  -19.6791 C   0  0  0  0  0  0  0  0  0  0  0  0
   26.8429  -20.3488  -18.9052 N   0  0  0  0  0  0  0  0  0  0  0  0
   25.4180  -22.3720  -14.7298 C   0  0  0  0  0  0  0  0  0  0  0  0
   24.2507  -22.7407  -14.4453 O   0  0  0  0  0  0  0  0  0  0  0  0
   26.1717  -21.7690  -13.6976 N   0  0  0  0  0  0  0  0  0  0  0  0
   25.7173  -21.4829  -12.3815 C   0  0  1  0  0  0  0  0  0  0  0  0
   26.7870  -21.4028  -11.3450 C   0  0  0  0  0  0  0  0  0  0  0  0
   26.3259  -21.0168  -10.0136 C   0  0  0  0  0  0  0  0  0  0  0  0
   25.4728  -21.7649   -9.2314 C   0  0  0  0  0  0  0  0  0  0  0  0
   25.0675  -21.3530   -7.9776 C   0  0  0  0  0  0  0  0  0  0  0  0
   25.5206  -20.1518   -7.4686 C   0  0  0  0  0  0  0  0  0  0  0  0
   26.3873  -19.3776   -8.2469 C   0  0  0  0  0  0  0  0  0  0  0  0
   26.7679  -19.8196   -9.4879 C   0  0  0  0  0  0  0  0  0  0  0  0
   24.8795  -20.2328  -12.4345 C   0  0  0  0  0  0  0  0  0  0  0  0
   25.3402  -19.2035  -12.9876 O   0  0  0  0  0  0  0  0  0  0  0  0
   23.5856  -20.1857  -11.8775 N   0  0  0  0  0  0  0  0  0  0  0  0
   22.4137  -19.5682  -12.4633 C   0  0  1  0  0  0  0  0  0  0  0  0
   22.6004  -19.1891  -13.8788 C   0  0  0  0  0  0  0  0  0  0  0  0
   21.4541  -18.5911  -14.5947 C   0  0  0  0  0  0  0  0  0  0  0  0
   21.7494  -18.1411  -15.9999 C   0  0  0  0  0  0  0  0  0  0  0  0
   20.5345  -17.5389  -16.6751 C   0  0  0  0  0  0  0  0  0  0  0  0
   20.9229  -17.2115  -18.0370 N   0  0  0  0  0  0  0  0  0  0  0  0
   21.1544  -20.2831  -12.1458 C   0  0  0  0  0  0  0  0  0  0  0  0
   20.0270  -19.7512  -12.2557 O   0  0  0  0  0  0  0  0  0  0  0  0
   21.1684  -21.5906  -11.7073 O   0  0  0  0  0  0  0  0  0  0  0  0
  2  1  1  6
  2  3  1  0
  3  4  1  0
  4  5  2  0
  6  5  1  0
  7  6  1  0
  8  7  2  0
  8  4  1  0
  9  2  1  0
 10  9  2  0
 11  9  1  0
 12 13  1  1
 12 11  1  0
 13 14  1  0
 14 15  2  0
 15 16  1  0
 17 16  2  0
 18 17  1  0
 19 18  2  0
 19 14  1  0
 20 22  1  0
 20 12  1  0
 21 20  2  0
 23 24  1  6
 23 22  1  0
 25 24  1  0
 26 27  1  0
 26 25  1  0
 27 28  1  0
 29 23  1  0
 29 31  1  0
 30 29  2  0
M  END
$$$$
