HFK.pdb
     RDKit          3D

 31 32  0  0  1  0  0  0  0  0999 V2000
   28.6269  -23.2969  -17.4489 N   0  0  0  0  0  0  0  0  0  0  0  0
   27.7132  -24.3879  -17.2141 C   0  0  1  0  0  0  0  0  0  0  0  0
   26.4825  -24.1497  -18.0451 C   0  0  0  0  0  0  0  0  0  0  0  0
   25.6870  -23.0847  -17.3934 C   0  0  0  0  0  0  0  0  0  0  0  0
   26.0257  -22.4402  -16.2245 C   0  0  0  0  0  0  0  0  0  0  0  0
   25.0875  -21.5289  -15.9099 N   0  0  0  0  0  0  0  0  0  0  0  0
   24.1582  -21.5899  -16.8679 C   0  0  0  0  0  0  0  0  0  0  0  0
   24.5217  -22.5404  -17.7767 N   0  0  0  0  0  0  0  0  0  0  0  0
   28.3306  -25.7093  -17.4551 C   0  0  0  0  0  0  0  0  0  0  0  0
   28.9359  -25.8946  -18.5406 O   0  0  0  0  0  0  0  0  0  0  0  0
   28.2913  -26.7917  -16.5474 N   0  0  0  0  0  0  0  0  0  0  0  0
   28.9272  -28.0520  -16.7136 C   0  0  1  0  0  0  0  0  0  0  0  0
   29.9436  -28.3909  -15.6756 C   0  0  0  0  0  0  0  0  0  0  0  0
   31.1397  -27.5524  -15.6889 C   0  0  0  0  0  0  0  0  0  0  0  0
   31.2903  -26.3889  -14.9659 C   0  0  0  0  0  0  0  0  0  0  0  0
   32.4441  -25.6326  -15.0146 C   0  0  0  0  0  0  0  0  0  0  0  0
   33.4984  -26.0372  -15.8097 C   0  0  0  0  0  0  0  0  0  0  0  0
   33.3656  -27.2155  -16.5516 C   0  0  0  0  0  0  0  0  0  0  0  0
   32.2040  -27.9405  -16.4775 C   0  0  0  0  0  0  0  0  0  0  0  0
   27.8587  -29.1063  -16.8314 C   0  0  0  0  0  0  0  0  0  0  0  0
   26.7724  -28.9557  -16.2190 O   0  0  0  0  0  0  0  0  0  0  0  0
   28.0447  -30.2636  -17.6141 N   0  0  0  0  0  0  0  0  0  0  0  0
   27.0928  -31.3374  -17.8104 C   0  0  1  0  0  0  0  0  0  0  0  0
   27.2096  -31.9857  -19.1327 C   0  0  0  0  0  0  0  0  0  0  0  0
   26.2253  -33.0309  -19.4832 C   0  0  0  0  0  0  0  0  0  0  0  0
   26.4872  -33.7366  -20.7861 C   0  0  0  0  0  0  0  0  0  0  0  0
   25.4173  -34.7594  -21.1080 C   0  0  0  0  0  0  0  0  0  0  0  0
   25.8289  -35.4369  -22.3264 N   0  0  0  0  0  0  0  0  0  0  0  0
   26.9940  -32.2522  -16.6480 C   0  0  0  0  0  0  0  0  0  0  0  0
   27.9846  -32.8472  -16.1678 O   0  0  0  0  0  0  0  0  0  0  0  0
   25.7839  -32.4932  -16.0318 O   0  0  0  0  0  0  0  0  0  0  0  0
  2  1  1  6
  2  3  1  0
  3  4  1  0
  4  5  2  0
  6  5  1  0
  7  6  1  0
  8  7  2  0
  8  4  1  0
  9  2  1  0
 10  9  2  0
 11  9  1  0
 12 13  1  1
 12 11  1  0
 13 14  1  0
 14 15  2  0
 15 16  1  0
 17 16  2  0
 18 17  1  0
 19 18  2  0
 19 14  1  0
 20 22  1  0
 20 12  1  0
 21 20  2  0
 23 24  1  6
 23 22  1  0
 25 24  1  0
 26 27  1  0
 26 25  1  0
 27 28  1  0
 29 23  1  0
 29 31  1  0
 30 29  2  0
M  END
$$$$
