HFK.pdb
     RDKit          3D

 31 32  0  0  1  0  0  0  0  0999 V2000
   20.7875  -13.6483  -18.4377 N   0  0  0  0  0  0  0  0  0  0  0  0
   20.7930  -12.2498  -18.7908 C   0  0  1  0  0  0  0  0  0  0  0  0
   19.7697  -12.0404  -19.8728 C   0  0  0  0  0  0  0  0  0  0  0  0
   20.1805  -12.8335  -21.0535 C   0  0  0  0  0  0  0  0  0  0  0  0
   19.4219  -13.8097  -21.6602 C   0  0  0  0  0  0  0  0  0  0  0  0
   20.0897  -14.3325  -22.7043 N   0  0  0  0  0  0  0  0  0  0  0  0
   21.2635  -13.6973  -22.7649 C   0  0  0  0  0  0  0  0  0  0  0  0
   21.3224  -12.7799  -21.7567 N   0  0  0  0  0  0  0  0  0  0  0  0
   20.5924  -11.3670  -17.6222 C   0  0  0  0  0  0  0  0  0  0  0  0
   19.7416  -11.7034  -16.7608 O   0  0  0  0  0  0  0  0  0  0  0  0
   21.2925  -10.1601  -17.3979 N   0  0  0  0  0  0  0  0  0  0  0  0
   21.1210   -9.2810  -16.2941 C   0  0  1  0  0  0  0  0  0  0  0  0
   22.3320   -9.0854  -15.4454 C   0  0  0  0  0  0  0  0  0  0  0  0
   22.1773   -8.1108  -14.3682 C   0  0  0  0  0  0  0  0  0  0  0  0
   22.3933   -6.7560  -14.4990 C   0  0  0  0  0  0  0  0  0  0  0  0
   22.2324   -5.8770  -13.4468 C   0  0  0  0  0  0  0  0  0  0  0  0
   21.8417   -6.3498  -12.2094 C   0  0  0  0  0  0  0  0  0  0  0  0
   21.6175   -7.7219  -12.0558 C   0  0  0  0  0  0  0  0  0  0  0  0
   21.7875   -8.5643  -13.1243 C   0  0  0  0  0  0  0  0  0  0  0  0
   20.5702   -7.9785  -16.8112 C   0  0  0  0  0  0  0  0  0  0  0  0
   21.1776   -7.3717  -17.7280 O   0  0  0  0  0  0  0  0  0  0  0  0
   19.3856   -7.4184  -16.2920 N   0  0  0  0  0  0  0  0  0  0  0  0
   18.7962   -6.1475  -16.6595 C   0  0  1  0  0  0  0  0  0  0  0  0
   17.3212   -6.1435  -16.5782 C   0  0  0  0  0  0  0  0  0  0  0  0
   16.6108   -4.8898  -16.9063 C   0  0  0  0  0  0  0  0  0  0  0  0
   15.1101   -4.9979  -16.9246 C   0  0  0  0  0  0  0  0  0  0  0  0
   14.4464   -3.6866  -17.2912 C   0  0  0  0  0  0  0  0  0  0  0  0
   14.7930   -2.7293  -16.2539 N   0  0  0  0  0  0  0  0  0  0  0  0
   19.4810   -4.9849  -16.0452 C   0  0  0  0  0  0  0  0  0  0  0  0
   19.9497   -4.0406  -16.7195 O   0  0  0  0  0  0  0  0  0  0  0  0
   19.6351   -4.8895  -14.6780 O   0  0  0  0  0  0  0  0  0  0  0  0
  2  1  1  1
  2  3  1  0
  3  4  1  0
  4  5  2  0
  6  5  1  0
  7  6  1  0
  8  7  2  0
  8  4  1  0
  9  2  1  0
 10  9  2  0
 11  9  1  0
 12 13  1  6
 12 11  1  0
 13 14  1  0
 14 15  2  0
 15 16  1  0
 17 16  2  0
 18 17  1  0
 19 18  2  0
 19 14  1  0
 20 22  1  0
 20 12  1  0
 21 20  2  0
 23 24  1  1
 23 22  1  0
 25 24  1  0
 26 27  1  0
 26 25  1  0
 27 28  1  0
 29 23  1  0
 29 31  1  0
 30 29  2  0
M  END
$$$$
