HFK.pdb
     RDKit          3D

 31 32  0  0  1  0  0  0  0  0999 V2000
   15.8762  -20.9493    1.0826 N   0  0  0  0  0  0  0  0  0  0  0  0
   15.4219  -19.9171    1.9818 C   0  0  1  0  0  0  0  0  0  0  0  0
   14.4655  -20.5417    2.9601 C   0  0  0  0  0  0  0  0  0  0  0  0
   13.2589  -20.9671    2.2152 C   0  0  0  0  0  0  0  0  0  0  0  0
   12.3055  -20.1211    1.6938 C   0  0  0  0  0  0  0  0  0  0  0  0
   11.3431  -20.8315    1.0785 N   0  0  0  0  0  0  0  0  0  0  0  0
   11.6775  -22.1189    1.2051 C   0  0  0  0  0  0  0  0  0  0  0  0
   12.8486  -22.2054    1.8997 N   0  0  0  0  0  0  0  0  0  0  0  0
   16.5373  -19.2008    2.6360 C   0  0  0  0  0  0  0  0  0  0  0  0
   17.5975  -19.8346    2.8679 O   0  0  0  0  0  0  0  0  0  0  0  0
   16.5016  -17.8426    3.0247 N   0  0  0  0  0  0  0  0  0  0  0  0
   17.5138  -17.1453    3.7386 C   0  0  1  0  0  0  0  0  0  0  0  0
   18.0347  -15.9202    3.0656 C   0  0  0  0  0  0  0  0  0  0  0  0
   19.3114  -16.0924    2.3766 C   0  0  0  0  0  0  0  0  0  0  0  0
   20.2580  -15.1032    2.2198 C   0  0  0  0  0  0  0  0  0  0  0  0
   21.4504  -15.3195    1.5588 C   0  0  0  0  0  0  0  0  0  0  0  0
   21.7261  -16.5641    1.0273 C   0  0  0  0  0  0  0  0  0  0  0  0
   20.7782  -17.5818    1.1757 C   0  0  0  0  0  0  0  0  0  0  0  0
   19.6047  -17.3293    1.8388 C   0  0  0  0  0  0  0  0  0  0  0  0
   17.0001  -16.8599    5.1249 C   0  0  0  0  0  0  0  0  0  0  0  0
   15.9573  -16.1745    5.2681 O   0  0  0  0  0  0  0  0  0  0  0  0
   17.6606  -17.3432    6.2724 N   0  0  0  0  0  0  0  0  0  0  0  0
   17.2247  -17.1999    7.6462 C   0  0  1  0  0  0  0  0  0  0  0  0
   17.1347  -18.4865    8.3665 C   0  0  0  0  0  0  0  0  0  0  0  0
   16.2958  -19.5531    7.7810 C   0  0  0  0  0  0  0  0  0  0  0  0
   16.9468  -20.9082    7.7174 C   0  0  0  0  0  0  0  0  0  0  0  0
   16.0269  -21.9580    7.1289 C   0  0  0  0  0  0  0  0  0  0  0  0
   16.7428  -23.2223    7.1692 N   0  0  0  0  0  0  0  0  0  0  0  0
   17.9117  -16.1016    8.3671 C   0  0  0  0  0  0  0  0  0  0  0  0
   18.9380  -15.5386    7.9248 O   0  0  0  0  0  0  0  0  0  0  0  0
   17.4422  -15.6421    9.5797 O   0  0  0  0  0  0  0  0  0  0  0  0
  2  1  1  6
  2  3  1  0
  3  4  1  0
  4  5  2  0
  6  5  1  0
  7  6  1  0
  8  7  2  0
  8  4  1  0
  9  2  1  0
 10  9  2  0
 11  9  1  0
 12 13  1  6
 12 11  1  0
 13 14  1  0
 14 15  2  0
 15 16  1  0
 17 16  2  0
 18 17  1  0
 19 18  2  0
 19 14  1  0
 20 22  1  0
 20 12  1  0
 21 20  2  0
 23 24  1  1
 23 22  1  0
 25 24  1  0
 26 27  1  0
 26 25  1  0
 27 28  1  0
 29 23  1  0
 29 31  1  0
 30 29  2  0
M  END
$$$$
