HFK.pdb
     RDKit          3D

 31 32  0  0  1  0  0  0  0  0999 V2000
   27.9014  -21.7226  -16.6664 N   0  0  0  0  0  0  0  0  0  0  0  0
   27.6521  -20.5661  -15.8413 C   0  0  1  0  0  0  0  0  0  0  0  0
   26.6163  -19.7199  -16.5290 C   0  0  0  0  0  0  0  0  0  0  0  0
   27.2486  -19.0888  -17.7096 C   0  0  0  0  0  0  0  0  0  0  0  0
   27.0785  -19.4928  -19.0151 C   0  0  0  0  0  0  0  0  0  0  0  0
   27.7930  -18.7061  -19.8398 N   0  0  0  0  0  0  0  0  0  0  0  0
   28.4138  -17.8080  -19.0696 C   0  0  0  0  0  0  0  0  0  0  0  0
   28.0830  -18.0392  -17.7663 N   0  0  0  0  0  0  0  0  0  0  0  0
   27.2833  -20.9245  -14.4554 C   0  0  0  0  0  0  0  0  0  0  0  0
   26.4513  -21.8500  -14.2811 O   0  0  0  0  0  0  0  0  0  0  0  0
   27.8009  -20.2985  -13.2990 N   0  0  0  0  0  0  0  0  0  0  0  0
   27.4248  -20.5707  -11.9556 C   0  0  1  0  0  0  0  0  0  0  0  0
   28.3489  -20.0304  -10.9168 C   0  0  0  0  0  0  0  0  0  0  0  0
   27.8470  -20.1073   -9.5469 C   0  0  0  0  0  0  0  0  0  0  0  0
   27.8524  -21.2471   -8.7723 C   0  0  0  0  0  0  0  0  0  0  0  0
   27.3650  -21.2652   -7.4809 C   0  0  0  0  0  0  0  0  0  0  0  0
   26.8486  -20.1114   -6.9245 C   0  0  0  0  0  0  0  0  0  0  0  0
   26.8340  -18.9438   -7.6944 C   0  0  0  0  0  0  0  0  0  0  0  0
   27.3271  -18.9644   -8.9738 C   0  0  0  0  0  0  0  0  0  0  0  0
   26.0080  -20.1002  -11.7591 C   0  0  0  0  0  0  0  0  0  0  0  0
   25.7200  -18.8980  -11.9816 O   0  0  0  0  0  0  0  0  0  0  0  0
   24.9907  -20.9764  -11.3301 N   0  0  0  0  0  0  0  0  0  0  0  0
   23.6038  -20.6379  -11.0859 C   0  0  1  0  0  0  0  0  0  0  0  0
   22.6962  -21.0850  -12.1624 C   0  0  0  0  0  0  0  0  0  0  0  0
   22.5130  -20.1972  -13.3297 C   0  0  0  0  0  0  0  0  0  0  0  0
   21.6782  -20.7749  -14.4403 C   0  0  0  0  0  0  0  0  0  0  0  0
   21.5374  -19.8192  -15.6070 C   0  0  0  0  0  0  0  0  0  0  0  0
   20.7132  -20.4825  -16.6037 N   0  0  0  0  0  0  0  0  0  0  0  0
   23.1628  -20.9368   -9.7024 C   0  0  0  0  0  0  0  0  0  0  0  0
   22.0597  -20.5607   -9.2467 O   0  0  0  0  0  0  0  0  0  0  0  0
   23.9626  -21.6560   -8.8393 O   0  0  0  0  0  0  0  0  0  0  0  0
  2  1  1  6
  2  3  1  0
  3  4  1  0
  4  5  2  0
  6  5  1  0
  7  6  1  0
  8  7  2  0
  8  4  1  0
  9  2  1  0
 10  9  2  0
 11  9  1  0
 12 13  1  1
 12 11  1  0
 13 14  1  0
 14 15  2  0
 15 16  1  0
 17 16  2  0
 18 17  1  0
 19 18  2  0
 19 14  1  0
 20 22  1  0
 20 12  1  0
 21 20  2  0
 23 24  1  6
 23 22  1  0
 25 24  1  0
 26 27  1  0
 26 25  1  0
 27 28  1  0
 29 23  1  0
 29 31  1  0
 30 29  2  0
M  END
$$$$
