SWT.pdb
     RDKit          3D

 28 29  0  0  1  0  0  0  0  0999 V2000
    8.6858  -16.7561   19.6357 O   0  0  0  0  0  0  0  0  0  0  0  0
    7.3589  -16.6597   19.9794 C   0  0  0  0  0  0  0  0  0  0  0  0
    7.0763  -15.3717   20.7635 C   0  0  2  0  0  0  0  0  0  0  0  0
    7.0911  -14.3031   19.7982 N   0  0  0  0  0  0  0  0  0  0  0  0
    8.0935  -15.1815   21.8298 C   0  0  0  0  0  0  0  0  0  0  0  0
    9.0065  -14.3347   21.6587 O   0  0  0  0  0  0  0  0  0  0  0  0
    8.0858  -15.9178   23.0484 N   0  0  0  0  0  0  0  0  0  0  0  0
    9.1541  -15.8374   24.0121 C   0  0  1  0  0  0  0  0  0  0  0  0
    8.6841  -15.8011   25.4264 C   0  0  0  0  0  0  0  0  0  0  0  0
    7.5299  -14.9186   25.6921 C   0  0  0  0  0  0  0  0  0  0  0  0
    6.1800  -15.2990   25.6853 C   0  0  0  0  0  0  0  0  0  0  0  0
    5.4013  -14.2359   25.9486 N   0  0  0  0  0  0  0  0  0  0  0  0
    6.1881  -13.1496   26.1329 C   0  0  0  0  0  0  0  0  0  0  0  0
    5.8610  -11.8436   26.4299 C   0  0  0  0  0  0  0  0  0  0  0  0
    6.9066  -10.9522   26.5681 C   0  0  0  0  0  0  0  0  0  0  0  0
    8.2208  -11.3212   26.4223 C   0  0  0  0  0  0  0  0  0  0  0  0
    8.5047  -12.6290   26.1270 C   0  0  0  0  0  0  0  0  0  0  0  0
    7.4966  -13.5634   25.9772 C   0  0  0  0  0  0  0  0  0  0  0  0
   10.1718  -16.8801   23.7338 C   0  0  0  0  0  0  0  0  0  0  0  0
    9.8720  -18.1059   23.8067 O   0  0  0  0  0  0  0  0  0  0  0  0
   12.5838  -17.1282   20.6957 C   0  0  0  0  0  0  0  0  0  0  0  0
   13.3653  -17.1450   21.9791 C   0  0  1  0  0  0  0  0  0  0  0  0
   13.9026  -15.8923   22.2633 O   0  0  0  0  0  0  0  0  0  0  0  0
   12.5165  -17.6011   23.1667 C   0  0  2  0  0  0  0  0  0  0  0  0
   11.5107  -16.5800   23.3764 N   0  0  0  0  0  0  0  0  0  0  0  0
   13.4182  -17.6124   24.3315 C   0  0  0  0  0  0  0  0  0  0  0  0
   14.4510  -18.5283   24.4680 O   0  0  0  0  0  0  0  0  0  0  0  0
   13.2590  -16.7707   25.2401 O   0  0  0  0  0  0  0  0  0  0  0  0
  2  1  1  0
  2  3  1  0
  3  5  1  0
  3  4  1  6
  5  6  2  0
  7  8  1  0
  7  5  1  0
  8  9  1  1
  9 10  1  0
 10 18  1  0
 11 10  2  0
 11 12  1  0
 12 13  1  0
 13 14  1  0
 14 15  2  0
 16 15  1  0
 17 16  2  0
 18 13  2  0
 18 17  1  0
 19 25  1  0
 19  8  1  0
 20 19  2  0
 22 21  1  6
 23 22  1  0
 24 25  1  1
 24 22  1  0
 26 24  1  0
 27 26  1  0
 28 26  2  0
M  END
$$$$
