SWT.pdb
     RDKit          3D

 28 29  0  0  1  0  0  0  0  0999 V2000
    8.2388  -16.6292   19.2757 O   0  0  0  0  0  0  0  0  0  0  0  0
    7.2525  -16.7045   20.2293 C   0  0  0  0  0  0  0  0  0  0  0  0
    7.0896  -15.3719   20.9719 C   0  0  2  0  0  0  0  0  0  0  0  0
    7.1394  -14.3431   19.9654 N   0  0  0  0  0  0  0  0  0  0  0  0
    8.1586  -15.2141   21.9919 C   0  0  0  0  0  0  0  0  0  0  0  0
    9.0836  -14.3888   21.7843 O   0  0  0  0  0  0  0  0  0  0  0  0
    8.1880  -15.9585   23.2052 N   0  0  0  0  0  0  0  0  0  0  0  0
    9.2473  -15.8261   24.1730 C   0  0  1  0  0  0  0  0  0  0  0  0
    8.7650  -15.7303   25.5804 C   0  0  0  0  0  0  0  0  0  0  0  0
    7.6075  -14.8390   25.7983 C   0  0  0  0  0  0  0  0  0  0  0  0
    6.2581  -15.2209   25.7942 C   0  0  0  0  0  0  0  0  0  0  0  0
    5.4760  -14.1488   26.0058 N   0  0  0  0  0  0  0  0  0  0  0  0
    6.2602  -13.0549   26.1528 C   0  0  0  0  0  0  0  0  0  0  0  0
    5.9292  -11.7381   26.3924 C   0  0  0  0  0  0  0  0  0  0  0  0
    6.9727  -10.8405   26.5038 C   0  0  0  0  0  0  0  0  0  0  0  0
    8.2885  -11.2137   26.3861 C   0  0  0  0  0  0  0  0  0  0  0  0
    8.5763  -12.5322   26.1477 C   0  0  0  0  0  0  0  0  0  0  0  0
    7.5704  -13.4733   26.0268 C   0  0  0  0  0  0  0  0  0  0  0  0
   10.2756  -16.8719   23.9502 C   0  0  0  0  0  0  0  0  0  0  0  0
    9.9544  -18.0942   23.9290 O   0  0  0  0  0  0  0  0  0  0  0  0
   12.6174  -17.0536   21.0428 C   0  0  0  0  0  0  0  0  0  0  0  0
   13.4540  -17.1378   22.2883 C   0  0  1  0  0  0  0  0  0  0  0  0
   14.0481  -15.9139   22.5851 O   0  0  0  0  0  0  0  0  0  0  0  0
   12.6427  -17.6013   23.4992 C   0  0  2  0  0  0  0  0  0  0  0  0
   11.6483  -16.5785   23.7506 N   0  0  0  0  0  0  0  0  0  0  0  0
   13.5821  -17.6262   24.6336 C   0  0  0  0  0  0  0  0  0  0  0  0
   14.5940  -18.5683   24.7452 O   0  0  0  0  0  0  0  0  0  0  0  0
   13.4757  -16.7721   25.5384 O   0  0  0  0  0  0  0  0  0  0  0  0
  2  1  1  0
  2  3  1  0
  3  5  1  0
  3  4  1  6
  5  6  2  0
  7  8  1  0
  7  5  1  0
  8  9  1  1
  9 10  1  0
 10 18  1  0
 11 10  2  0
 11 12  1  0
 12 13  1  0
 13 14  1  0
 14 15  2  0
 16 15  1  0
 17 16  2  0
 18 13  2  0
 18 17  1  0
 19 25  1  0
 19  8  1  0
 20 19  2  0
 22 21  1  6
 23 22  1  0
 24 25  1  1
 24 22  1  0
 26 24  1  0
 27 26  1  0
 28 26  2  0
M  END
$$$$
