SWT.pdb
     RDKit          3D

 28 29  0  0  1  0  0  0  0  0999 V2000
   10.0623  -19.1266   18.9976 O   0  0  0  0  0  0  0  0  0  0  0  0
    8.7841  -18.8172   18.5997 C   0  0  0  0  0  0  0  0  0  0  0  0
    8.5683  -17.2994   18.5414 C   0  0  2  0  0  0  0  0  0  0  0  0
    9.5105  -16.7971   17.5750 N   0  0  0  0  0  0  0  0  0  0  0  0
    8.7649  -16.6970   19.8854 C   0  0  0  0  0  0  0  0  0  0  0  0
    9.8775  -16.1851   20.1683 O   0  0  0  0  0  0  0  0  0  0  0  0
    7.7457  -16.6701   20.8792 N   0  0  0  0  0  0  0  0  0  0  0  0
    7.9473  -16.0932   22.1841 C   0  0  1  0  0  0  0  0  0  0  0  0
    6.6918  -15.6099   22.8264 C   0  0  0  0  0  0  0  0  0  0  0  0
    6.8096  -15.2263   24.2478 C   0  0  0  0  0  0  0  0  0  0  0  0
    6.7128  -16.0908   25.3479 C   0  0  0  0  0  0  0  0  0  0  0  0
    6.8490  -15.3977   26.4910 N   0  0  0  0  0  0  0  0  0  0  0  0
    7.0351  -14.0901   26.1927 C   0  0  0  0  0  0  0  0  0  0  0  0
    7.2283  -13.0001   27.0144 C   0  0  0  0  0  0  0  0  0  0  0  0
    7.4012  -11.7756   26.3998 C   0  0  0  0  0  0  0  0  0  0  0  0
    7.3864  -11.6210   25.0359 C   0  0  0  0  0  0  0  0  0  0  0  0
    7.1914  -12.7291   24.2535 C   0  0  0  0  0  0  0  0  0  0  0  0
    7.0125  -13.9794   24.8161 C   0  0  0  0  0  0  0  0  0  0  0  0
    8.7509  -17.0104   23.0289 C   0  0  0  0  0  0  0  0  0  0  0  0
    8.4160  -18.2221   23.1597 O   0  0  0  0  0  0  0  0  0  0  0  0
   12.2850  -17.9553   22.5122 C   0  0  0  0  0  0  0  0  0  0  0  0
   12.1687  -17.3808   23.8959 C   0  0  1  0  0  0  0  0  0  0  0  0
   12.5324  -16.0369   23.9203 O   0  0  0  0  0  0  0  0  0  0  0  0
   10.7556  -17.5221   24.4635 C   0  0  2  0  0  0  0  0  0  0  0  0
    9.9161  -16.6009   23.7252 N   0  0  0  0  0  0  0  0  0  0  0  0
   10.8307  -17.0650   25.8618 C   0  0  0  0  0  0  0  0  0  0  0  0
   11.4524  -17.8043   26.8573 O   0  0  0  0  0  0  0  0  0  0  0  0
   10.3188  -15.9710   26.1791 O   0  0  0  0  0  0  0  0  0  0  0  0
  2  1  1  0
  2  3  1  0
  3  5  1  0
  3  4  1  6
  5  6  2  0
  7  8  1  0
  7  5  1  0
  8  9  1  1
  9 10  1  0
 10 18  1  0
 11 10  2  0
 11 12  1  0
 12 13  1  0
 13 14  1  0
 14 15  2  0
 16 15  1  0
 17 16  2  0
 18 13  2  0
 18 17  1  0
 19 25  1  0
 19  8  1  0
 20 19  2  0
 22 21  1  6
 23 22  1  0
 24 25  1  6
 24 22  1  0
 26 24  1  0
 27 26  1  0
 28 26  2  0
M  END
$$$$
