SWT.pdb
     RDKit          3D

 28 29  0  0  1  0  0  0  0  0999 V2000
    7.9863  -17.3690   19.5727 O   0  0  0  0  0  0  0  0  0  0  0  0
    6.7667  -17.0298   20.1069 C   0  0  0  0  0  0  0  0  0  0  0  0
    6.8127  -15.6488   20.7736 C   0  0  2  0  0  0  0  0  0  0  0  0
    6.9765  -14.6942   19.7080 N   0  0  0  0  0  0  0  0  0  0  0  0
    7.9221  -15.5874   21.7603 C   0  0  0  0  0  0  0  0  0  0  0  0
    8.9928  -15.0123   21.4400 O   0  0  0  0  0  0  0  0  0  0  0  0
    7.8321  -16.1530   23.0637 N   0  0  0  0  0  0  0  0  0  0  0  0
    8.9120  -16.0882   24.0156 C   0  0  1  0  0  0  0  0  0  0  0  0
    8.4583  -16.0467   25.4350 C   0  0  0  0  0  0  0  0  0  0  0  0
    7.4799  -14.9894   25.7609 C   0  0  0  0  0  0  0  0  0  0  0  0
    6.0968  -15.1626   25.9159 C   0  0  0  0  0  0  0  0  0  0  0  0
    5.5133  -13.9834   26.1896 N   0  0  0  0  0  0  0  0  0  0  0  0
    6.4641  -13.0200   26.2237 C   0  0  0  0  0  0  0  0  0  0  0  0
    6.3636  -11.6671   26.4693 C   0  0  0  0  0  0  0  0  0  0  0  0
    7.5355  -10.9373   26.4436 C   0  0  0  0  0  0  0  0  0  0  0  0
    8.7586  -11.5059   26.1881 C   0  0  0  0  0  0  0  0  0  0  0  0
    8.8166  -12.8540   25.9485 C   0  0  0  0  0  0  0  0  0  0  0  0
    7.6740  -13.6326   25.9616 C   0  0  0  0  0  0  0  0  0  0  0  0
    9.9121  -17.1447   23.7252 C   0  0  0  0  0  0  0  0  0  0  0  0
    9.5556  -18.3516   23.6073 O   0  0  0  0  0  0  0  0  0  0  0  0
   12.2601  -17.3802   20.8242 C   0  0  0  0  0  0  0  0  0  0  0  0
   13.0832  -17.4388   22.0802 C   0  0  1  0  0  0  0  0  0  0  0  0
   13.6455  -16.2001   22.3775 O   0  0  0  0  0  0  0  0  0  0  0  0
   12.2682  -17.9147   23.2836 C   0  0  2  0  0  0  0  0  0  0  0  0
   11.2954  -16.8786   23.5639 N   0  0  0  0  0  0  0  0  0  0  0  0
   13.2118  -17.9850   24.4126 C   0  0  0  0  0  0  0  0  0  0  0  0
   14.1841  -18.9692   24.5136 O   0  0  0  0  0  0  0  0  0  0  0  0
   13.1461  -17.1322   25.3225 O   0  0  0  0  0  0  0  0  0  0  0  0
  2  1  1  0
  2  3  1  0
  3  5  1  0
  3  4  1  6
  5  6  2  0
  7  8  1  0
  7  5  1  0
  8  9  1  1
  9 10  1  0
 10 18  1  0
 11 10  2  0
 11 12  1  0
 12 13  1  0
 13 14  1  0
 14 15  2  0
 16 15  1  0
 17 16  2  0
 18 13  2  0
 18 17  1  0
 19 25  1  0
 19  8  1  0
 20 19  2  0
 22 21  1  6
 23 22  1  0
 24 25  1  1
 24 22  1  0
 26 24  1  0
 27 26  1  0
 28 26  2  0
M  END
$$$$
