SWT.pdb
     RDKit          3D

 28 29  0  0  1  0  0  0  0  0999 V2000
    9.4920  -19.4150   19.9237 O   0  0  0  0  0  0  0  0  0  0  0  0
    8.4578  -18.8299   19.2338 C   0  0  0  0  0  0  0  0  0  0  0  0
    8.7298  -17.3427   18.9733 C   0  0  2  0  0  0  0  0  0  0  0  0
    9.7376  -17.2931   17.9458 N   0  0  0  0  0  0  0  0  0  0  0  0
    9.1672  -16.6701   20.2240 C   0  0  0  0  0  0  0  0  0  0  0  0
   10.3883  -16.6694   20.5220 O   0  0  0  0  0  0  0  0  0  0  0  0
    8.2633  -16.0194   21.1110 N   0  0  0  0  0  0  0  0  0  0  0  0
    8.7004  -15.3277   22.2970 C   0  0  1  0  0  0  0  0  0  0  0  0
    7.7677  -14.2535   22.7426 C   0  0  0  0  0  0  0  0  0  0  0  0
    7.3127  -14.3454   24.1448 C   0  0  0  0  0  0  0  0  0  0  0  0
    6.7768  -15.4824   24.7668 C   0  0  0  0  0  0  0  0  0  0  0  0
    6.4526  -15.2003   26.0401 N   0  0  0  0  0  0  0  0  0  0  0  0
    6.7551  -13.9052   26.2941 C   0  0  0  0  0  0  0  0  0  0  0  0
    6.6153  -13.1592   27.4450 C   0  0  0  0  0  0  0  0  0  0  0  0
    7.0309  -11.8434   27.3927 C   0  0  0  0  0  0  0  0  0  0  0  0
    7.5628  -11.2774   26.2607 C   0  0  0  0  0  0  0  0  0  0  0  0
    7.6851  -12.0522   25.1369 C   0  0  0  0  0  0  0  0  0  0  0  0
    7.2844  -13.3755   25.1334 C   0  0  0  0  0  0  0  0  0  0  0  0
    9.0564  -16.3044   23.3553 C   0  0  0  0  0  0  0  0  0  0  0  0
    8.3365  -17.3236   23.5572 O   0  0  0  0  0  0  0  0  0  0  0  0
   11.9789  -18.3897   23.3162 C   0  0  0  0  0  0  0  0  0  0  0  0
   12.0319  -17.6341   24.6142 C   0  0  1  0  0  0  0  0  0  0  0  0
   12.8425  -16.5064   24.5129 O   0  0  0  0  0  0  0  0  0  0  0  0
   10.6433  -17.2050   25.0902 C   0  0  2  0  0  0  0  0  0  0  0  0
   10.1963  -16.1646   24.1868 N   0  0  0  0  0  0  0  0  0  0  0  0
   10.8354  -16.6117   26.4247 C   0  0  0  0  0  0  0  0  0  0  0  0
   11.1368  -17.3729   27.5445 O   0  0  0  0  0  0  0  0  0  0  0  0
   10.7257  -15.3762   26.5696 O   0  0  0  0  0  0  0  0  0  0  0  0
  2  1  1  0
  2  3  1  0
  3  5  1  0
  3  4  1  6
  5  6  2  0
  7  8  1  0
  7  5  1  0
  8  9  1  1
  9 10  1  0
 10 18  1  0
 11 10  2  0
 11 12  1  0
 12 13  1  0
 13 14  1  0
 14 15  2  0
 16 15  1  0
 17 16  2  0
 18 13  2  0
 18 17  1  0
 19 25  1  0
 19  8  1  0
 20 19  2  0
 22 21  1  6
 23 22  1  0
 24 25  1  6
 24 22  1  0
 26 24  1  0
 27 26  1  0
 28 26  2  0
M  END
$$$$
