SWT.pdb
     RDKit          3D

 28 29  0  0  1  0  0  0  0  0999 V2000
    8.5534  -16.9720   19.7935 O   0  0  0  0  0  0  0  0  0  0  0  0
    7.2386  -16.7048   20.0895 C   0  0  0  0  0  0  0  0  0  0  0  0
    7.0929  -15.3720   20.8353 C   0  0  2  0  0  0  0  0  0  0  0  0
    7.2161  -14.3393   19.8392 N   0  0  0  0  0  0  0  0  0  0  0  0
    8.1269  -15.2572   21.8963 C   0  0  0  0  0  0  0  0  0  0  0  0
    9.1253  -14.5197   21.6986 O   0  0  0  0  0  0  0  0  0  0  0  0
    8.0426  -15.9479   23.1385 N   0  0  0  0  0  0  0  0  0  0  0  0
    9.1197  -15.9605   24.0956 C   0  0  1  0  0  0  0  0  0  0  0  0
    8.6616  -15.9331   25.5140 C   0  0  0  0  0  0  0  0  0  0  0  0
    7.5904  -14.9631   25.8193 C   0  0  0  0  0  0  0  0  0  0  0  0
    6.2190  -15.2449   25.9012 C   0  0  0  0  0  0  0  0  0  0  0  0
    5.5343  -14.1221   26.1772 N   0  0  0  0  0  0  0  0  0  0  0  0
    6.4055  -13.0911   26.2839 C   0  0  0  0  0  0  0  0  0  0  0  0
    6.1897  -11.7577   26.5604 C   0  0  0  0  0  0  0  0  0  0  0  0
    7.3020  -10.9411   26.6121 C   0  0  0  0  0  0  0  0  0  0  0  0
    8.5759  -11.4077   26.4022 C   0  0  0  0  0  0  0  0  0  0  0  0
    8.7486  -12.7396   26.1298 C   0  0  0  0  0  0  0  0  0  0  0  0
    7.6699  -13.6023   26.0656 C   0  0  0  0  0  0  0  0  0  0  0  0
   10.0683  -17.0570   23.7818 C   0  0  0  0  0  0  0  0  0  0  0  0
    9.6437  -18.2186   23.5211 O   0  0  0  0  0  0  0  0  0  0  0  0
   12.5134  -17.2303   21.0432 C   0  0  0  0  0  0  0  0  0  0  0  0
   13.2883  -17.4627   22.3097 C   0  0  1  0  0  0  0  0  0  0  0  0
   13.9492  -16.3079   22.7202 O   0  0  0  0  0  0  0  0  0  0  0  0
   12.3968  -17.9554   23.4505 C   0  0  2  0  0  0  0  0  0  0  0  0
   11.4747  -16.8799   23.7529 N   0  0  0  0  0  0  0  0  0  0  0  0
   13.2861  -18.1458   24.6093 C   0  0  0  0  0  0  0  0  0  0  0  0
   14.1609  -19.2175   24.7118 O   0  0  0  0  0  0  0  0  0  0  0  0
   13.2628  -17.3184   25.5444 O   0  0  0  0  0  0  0  0  0  0  0  0
  2  1  1  0
  2  3  1  0
  3  5  1  0
  3  4  1  6
  5  6  2  0
  7  8  1  0
  7  5  1  0
  8  9  1  1
  9 10  1  0
 10 18  1  0
 11 10  2  0
 11 12  1  0
 12 13  1  0
 13 14  1  0
 14 15  2  0
 16 15  1  0
 17 16  2  0
 18 13  2  0
 18 17  1  0
 19 25  1  0
 19  8  1  0
 20 19  2  0
 22 21  1  6
 23 22  1  0
 24 25  1  1
 24 22  1  0
 26 24  1  0
 27 26  1  0
 28 26  2  0
M  END
$$$$
