SWT.pdb
     RDKit          3D

 28 29  0  0  1  0  0  0  0  0999 V2000
    8.1334  -19.3237   20.3315 O   0  0  0  0  0  0  0  0  0  0  0  0
    7.2609  -18.4754   19.6937 C   0  0  0  0  0  0  0  0  0  0  0  0
    7.9496  -17.1659   19.2882 C   0  0  2  0  0  0  0  0  0  0  0  0
    8.7878  -17.4856   18.1616 N   0  0  0  0  0  0  0  0  0  0  0  0
    8.7258  -16.6148   20.4292 C   0  0  0  0  0  0  0  0  0  0  0  0
    9.9530  -16.8728   20.5141 O   0  0  0  0  0  0  0  0  0  0  0  0
    8.1431  -15.8007   21.4415 N   0  0  0  0  0  0  0  0  0  0  0  0
    8.9150  -15.2146   22.5078 C   0  0  1  0  0  0  0  0  0  0  0  0
    8.3020  -13.9846   23.0856 C   0  0  0  0  0  0  0  0  0  0  0  0
    7.5605  -14.1749   24.3488 C   0  0  0  0  0  0  0  0  0  0  0  0
    6.8995  -15.3447   24.7508 C   0  0  0  0  0  0  0  0  0  0  0  0
    6.3150  -15.1550   25.9459 N   0  0  0  0  0  0  0  0  0  0  0  0
    6.5635  -13.8904   26.3610 C   0  0  0  0  0  0  0  0  0  0  0  0
    6.1873  -13.2330   27.5130 C   0  0  0  0  0  0  0  0  0  0  0  0
    6.6113  -11.9265   27.6551 C   0  0  0  0  0  0  0  0  0  0  0  0
    7.3732  -11.2863   26.7095 C   0  0  0  0  0  0  0  0  0  0  0  0
    7.7263  -11.9741   25.5780 C   0  0  0  0  0  0  0  0  0  0  0  0
    7.3287  -13.2842   25.3840 C   0  0  0  0  0  0  0  0  0  0  0  0
    9.2681  -16.2493   23.5105 C   0  0  0  0  0  0  0  0  0  0  0  0
    8.3872  -17.0385   23.9564 O   0  0  0  0  0  0  0  0  0  0  0  0
   12.1999  -18.7953   23.1473 C   0  0  0  0  0  0  0  0  0  0  0  0
   12.3045  -18.0211   24.4311 C   0  0  1  0  0  0  0  0  0  0  0  0
   13.1783  -16.9442   24.3053 O   0  0  0  0  0  0  0  0  0  0  0  0
   10.9460  -17.5040   24.9066 C   0  0  2  0  0  0  0  0  0  0  0  0
   10.5802  -16.4181   24.0203 N   0  0  0  0  0  0  0  0  0  0  0  0
   11.1694  -16.9505   26.2533 C   0  0  0  0  0  0  0  0  0  0  0  0
   11.4343  -17.7502   27.3554 O   0  0  0  0  0  0  0  0  0  0  0  0
   11.1214  -15.7146   26.4256 O   0  0  0  0  0  0  0  0  0  0  0  0
  2  1  1  0
  2  3  1  0
  3  5  1  0
  3  4  1  6
  5  6  2  0
  7  8  1  0
  7  5  1  0
  8  9  1  1
  9 10  1  0
 10 18  1  0
 11 10  2  0
 11 12  1  0
 12 13  1  0
 13 14  1  0
 14 15  2  0
 16 15  1  0
 17 16  2  0
 18 13  2  0
 18 17  1  0
 19 25  1  0
 19  8  1  0
 20 19  2  0
 22 21  1  6
 23 22  1  0
 24 25  1  6
 24 22  1  0
 26 24  1  0
 27 26  1  0
 28 26  2  0
M  END
$$$$
