SWT.pdb
     RDKit          3D

 28 29  0  0  1  0  0  0  0  0999 V2000
    8.0378  -18.3065   20.2623 O   0  0  0  0  0  0  0  0  0  0  0  0
    6.8006  -18.1538   20.8401 C   0  0  0  0  0  0  0  0  0  0  0  0
    6.5498  -16.6963   21.2481 C   0  0  2  0  0  0  0  0  0  0  0  0
    6.3128  -15.9727   20.0257 N   0  0  0  0  0  0  0  0  0  0  0  0
    7.7138  -16.1626   22.0019 C   0  0  0  0  0  0  0  0  0  0  0  0
    8.4646  -15.3196   21.4492 O   0  0  0  0  0  0  0  0  0  0  0  0
    8.0244  -16.5621   23.3327 N   0  0  0  0  0  0  0  0  0  0  0  0
    9.1695  -16.0589   24.0482 C   0  0  1  0  0  0  0  0  0  0  0  0
    8.8944  -15.7539   25.4813 C   0  0  0  0  0  0  0  0  0  0  0  0
    7.7103  -14.9090   25.7373 C   0  0  0  0  0  0  0  0  0  0  0  0
    6.3764  -15.3414   25.7626 C   0  0  0  0  0  0  0  0  0  0  0  0
    5.5603  -14.3016   26.0050 N   0  0  0  0  0  0  0  0  0  0  0  0
    6.3065  -13.1803   26.1441 C   0  0  0  0  0  0  0  0  0  0  0  0
    5.9327  -11.8794   26.4058 C   0  0  0  0  0  0  0  0  0  0  0  0
    6.9444  -10.9443   26.5009 C   0  0  0  0  0  0  0  0  0  0  0  0
    8.2699  -11.2665   26.3467 C   0  0  0  0  0  0  0  0  0  0  0  0
    8.6006  -12.5709   26.0872 C   0  0  0  0  0  0  0  0  0  0  0  0
    7.6279  -13.5479   25.9813 C   0  0  0  0  0  0  0  0  0  0  0  0
   10.3391  -16.9440   23.8263 C   0  0  0  0  0  0  0  0  0  0  0  0
   10.3087  -18.1529   24.1942 O   0  0  0  0  0  0  0  0  0  0  0  0
   12.2408  -17.2511   20.4753 C   0  0  0  0  0  0  0  0  0  0  0  0
   13.2227  -16.9995   21.5847 C   0  0  1  0  0  0  0  0  0  0  0  0
   13.6195  -15.6652   21.6192 O   0  0  0  0  0  0  0  0  0  0  0  0
   12.6593  -17.3843   22.9535 C   0  0  2  0  0  0  0  0  0  0  0  0
   11.5349  -16.5058   23.2032 N   0  0  0  0  0  0  0  0  0  0  0  0
   13.7173  -17.0756   23.9309 C   0  0  0  0  0  0  0  0  0  0  0  0
   14.8500  -17.8624   24.0795 O   0  0  0  0  0  0  0  0  0  0  0  0
   13.6041  -16.0694   24.6619 O   0  0  0  0  0  0  0  0  0  0  0  0
  2  1  1  0
  2  3  1  0
  3  5  1  0
  3  4  1  6
  5  6  2  0
  7  8  1  0
  7  5  1  0
  8  9  1  1
  9 10  1  0
 10 18  1  0
 11 10  2  0
 11 12  1  0
 12 13  1  0
 13 14  1  0
 14 15  2  0
 16 15  1  0
 17 16  2  0
 18 13  2  0
 18 17  1  0
 19 25  1  0
 19  8  1  0
 20 19  2  0
 22 21  1  6
 23 22  1  0
 24 25  1  1
 24 22  1  0
 26 24  1  0
 27 26  1  0
 28 26  2  0
M  END
$$$$
