SWT.pdb
     RDKit          3D

 28 29  0  0  1  0  0  0  0  0999 V2000
    8.5698  -16.9759   19.8643 O   0  0  0  0  0  0  0  0  0  0  0  0
    7.2665  -16.7834   20.2543 C   0  0  0  0  0  0  0  0  0  0  0  0
    7.0844  -15.4264   20.9465 C   0  0  2  0  0  0  0  0  0  0  0  0
    7.1702  -14.4319   19.9085 N   0  0  0  0  0  0  0  0  0  0  0  0
    8.1204  -15.2373   21.9948 C   0  0  0  0  0  0  0  0  0  0  0  0
    9.0786  -14.4550   21.7721 O   0  0  0  0  0  0  0  0  0  0  0  0
    8.0817  -15.9046   23.2519 N   0  0  0  0  0  0  0  0  0  0  0  0
    9.1244  -15.7680   24.2370 C   0  0  1  0  0  0  0  0  0  0  0  0
    8.6203  -15.7019   25.6384 C   0  0  0  0  0  0  0  0  0  0  0  0
    7.4894  -14.7796   25.8662 C   0  0  0  0  0  0  0  0  0  0  0  0
    6.1322  -15.1307   25.9082 C   0  0  0  0  0  0  0  0  0  0  0  0
    5.3802  -14.0364   26.1150 N   0  0  0  0  0  0  0  0  0  0  0  0
    6.1921  -12.9574   26.2138 C   0  0  0  0  0  0  0  0  0  0  0  0
    5.8971  -11.6282   26.4303 C   0  0  0  0  0  0  0  0  0  0  0  0
    6.9628  -10.7522   26.4913 C   0  0  0  0  0  0  0  0  0  0  0  0
    8.2663  -11.1578   26.3467 C   0  0  0  0  0  0  0  0  0  0  0  0
    8.5181  -12.4878   26.1327 C   0  0  0  0  0  0  0  0  0  0  0  0
    7.4888  -13.4083   26.0623 C   0  0  0  0  0  0  0  0  0  0  0  0
   10.1743  -16.7920   24.0139 C   0  0  0  0  0  0  0  0  0  0  0  0
    9.9892  -17.9902   24.3714 O   0  0  0  0  0  0  0  0  0  0  0  0
   12.5001  -16.9298   20.7551 C   0  0  0  0  0  0  0  0  0  0  0  0
   13.2996  -17.0330   22.0233 C   0  0  1  0  0  0  0  0  0  0  0  0
   13.8938  -15.8168   22.3498 O   0  0  0  0  0  0  0  0  0  0  0  0
   12.4503  -17.5027   23.2053 C   0  0  2  0  0  0  0  0  0  0  0  0
   11.4199  -16.5036   23.4009 N   0  0  0  0  0  0  0  0  0  0  0  0
   13.3413  -17.4884   24.3783 C   0  0  0  0  0  0  0  0  0  0  0  0
   14.4112  -18.3606   24.5146 O   0  0  0  0  0  0  0  0  0  0  0  0
   13.1380  -16.6645   25.2944 O   0  0  0  0  0  0  0  0  0  0  0  0
  2  1  1  0
  2  3  1  0
  3  5  1  0
  3  4  1  6
  5  6  2  0
  7  8  1  0
  7  5  1  0
  8  9  1  1
  9 10  1  0
 10 18  1  0
 11 10  2  0
 11 12  1  0
 12 13  1  0
 13 14  1  0
 14 15  2  0
 16 15  1  0
 17 16  2  0
 18 13  2  0
 18 17  1  0
 19 25  1  0
 19  8  1  0
 20 19  2  0
 22 21  1  6
 23 22  1  0
 24 25  1  1
 24 22  1  0
 26 24  1  0
 27 26  1  0
 28 26  2  0
M  END
$$$$
