SWT.pdb
     RDKit          3D

 28 29  0  0  1  0  0  0  0  0999 V2000
    7.9884  -17.2779   19.7171 O   0  0  0  0  0  0  0  0  0  0  0  0
    6.8122  -16.9514   20.3480 C   0  0  0  0  0  0  0  0  0  0  0  0
    6.8707  -15.5392   20.9445 C   0  0  2  0  0  0  0  0  0  0  0  0
    6.9509  -14.6346   19.8269 N   0  0  0  0  0  0  0  0  0  0  0  0
    8.0361  -15.4112   21.8574 C   0  0  0  0  0  0  0  0  0  0  0  0
    9.0261  -14.7284   21.4918 O   0  0  0  0  0  0  0  0  0  0  0  0
    8.0883  -16.0294   23.1389 N   0  0  0  0  0  0  0  0  0  0  0  0
    9.2301  -15.9167   24.0106 C   0  0  1  0  0  0  0  0  0  0  0  0
    8.8757  -15.8482   25.4570 C   0  0  0  0  0  0  0  0  0  0  0  0
    7.7320  -14.9759   25.7925 C   0  0  0  0  0  0  0  0  0  0  0  0
    6.3910  -15.3739   25.8940 C   0  0  0  0  0  0  0  0  0  0  0  0
    5.6189  -14.3162   26.1955 N   0  0  0  0  0  0  0  0  0  0  0  0
    6.4016  -13.2163   26.3004 C   0  0  0  0  0  0  0  0  0  0  0  0
    6.0788  -11.9091   26.5971 C   0  0  0  0  0  0  0  0  0  0  0  0
    7.1188  -11.0017   26.6401 C   0  0  0  0  0  0  0  0  0  0  0  0
    8.4236  -11.3563   26.4028 C   0  0  0  0  0  0  0  0  0  0  0  0
    8.7034  -12.6657   26.1110 C   0  0  0  0  0  0  0  0  0  0  0  0
    7.7006  -13.6160   26.0544 C   0  0  0  0  0  0  0  0  0  0  0  0
   10.2319  -16.9585   23.6764 C   0  0  0  0  0  0  0  0  0  0  0  0
    9.9564  -18.1838   23.8193 O   0  0  0  0  0  0  0  0  0  0  0  0
   12.1857  -17.3494   20.4032 C   0  0  0  0  0  0  0  0  0  0  0  0
   13.1544  -17.2799   21.5499 C   0  0  1  0  0  0  0  0  0  0  0  0
   13.6989  -16.0048   21.6785 O   0  0  0  0  0  0  0  0  0  0  0  0
   12.5082  -17.6789   22.8774 C   0  0  2  0  0  0  0  0  0  0  0  0
   11.5283  -16.6581   23.1871 N   0  0  0  0  0  0  0  0  0  0  0  0
   13.5794  -17.6175   23.8867 C   0  0  0  0  0  0  0  0  0  0  0  0
   13.6244  -16.6401   24.8700 O   0  0  0  0  0  0  0  0  0  0  0  0
   14.4900  -18.4718   23.8692 O   0  0  0  0  0  0  0  0  0  0  0  0
  2  1  1  0
  2  3  1  0
  3  5  1  0
  3  4  1  6
  5  6  2  0
  7  8  1  0
  7  5  1  0
  8  9  1  1
  9 10  1  0
 10 18  1  0
 11 10  2  0
 11 12  1  0
 12 13  1  0
 13 14  1  0
 14 15  2  0
 16 15  1  0
 17 16  2  0
 18 13  2  0
 18 17  1  0
 19 25  1  0
 19  8  1  0
 20 19  2  0
 22 21  1  6
 23 22  1  0
 24 25  1  1
 24 22  1  0
 26 24  1  0
 27 26  1  0
 28 26  2  0
M  END
$$$$
