SWT.pdb
     RDKit          3D

 28 29  0  0  1  0  0  0  0  0999 V2000
    8.2864  -16.5728   19.2631 O   0  0  0  0  0  0  0  0  0  0  0  0
    7.0545  -16.2618   19.7862 C   0  0  0  0  0  0  0  0  0  0  0  0
    7.1095  -14.9753   20.6201 C   0  0  2  0  0  0  0  0  0  0  0  0
    7.4267  -13.9140   19.6998 N   0  0  0  0  0  0  0  0  0  0  0  0
    8.1197  -15.1030   21.7022 C   0  0  0  0  0  0  0  0  0  0  0  0
    9.2305  -14.5295   21.5714 O   0  0  0  0  0  0  0  0  0  0  0  0
    7.8903  -15.8502   22.8923 N   0  0  0  0  0  0  0  0  0  0  0  0
    8.8599  -15.9372   23.9547 C   0  0  1  0  0  0  0  0  0  0  0  0
    8.2544  -15.9916   25.3159 C   0  0  0  0  0  0  0  0  0  0  0  0
    7.3078  -14.9040   25.6364 C   0  0  0  0  0  0  0  0  0  0  0  0
    5.9102  -15.0115   25.6820 C   0  0  0  0  0  0  0  0  0  0  0  0
    5.3669  -13.8206   25.9862 N   0  0  0  0  0  0  0  0  0  0  0  0
    6.3589  -12.9133   26.1472 C   0  0  0  0  0  0  0  0  0  0  0  0
    6.3073  -11.5735   26.4685 C   0  0  0  0  0  0  0  0  0  0  0  0
    7.5125  -10.9074   26.5711 C   0  0  0  0  0  0  0  0  0  0  0  0
    8.7216  -11.5250   26.3682 C   0  0  0  0  0  0  0  0  0  0  0  0
    8.7306  -12.8580   26.0503 C   0  0  0  0  0  0  0  0  0  0  0  0
    7.5532  -13.5736   25.9341 C   0  0  0  0  0  0  0  0  0  0  0  0
    9.8284  -17.0251   23.6737 C   0  0  0  0  0  0  0  0  0  0  0  0
    9.4253  -18.1632   23.2999 O   0  0  0  0  0  0  0  0  0  0  0  0
   13.8619  -16.0706   23.4161 C   0  0  0  0  0  0  0  0  0  0  0  0
   13.3321  -17.3101   22.7517 C   0  0  1  0  0  0  0  0  0  0  0  0
   14.3313  -18.2662   22.5894 O   0  0  0  0  0  0  0  0  0  0  0  0
   12.1725  -17.9327   23.5308 C   0  0  2  0  0  0  0  0  0  0  0  0
   11.2314  -16.8651   23.8010 N   0  0  0  0  0  0  0  0  0  0  0  0
   12.7401  -18.3882   24.8115 C   0  0  0  0  0  0  0  0  0  0  0  0
   12.4684  -17.7563   26.0161 O   0  0  0  0  0  0  0  0  0  0  0  0
   13.4977  -19.3808   24.8295 O   0  0  0  0  0  0  0  0  0  0  0  0
  2  1  1  0
  2  3  1  0
  3  5  1  0
  3  4  1  6
  5  6  2  0
  7  8  1  0
  7  5  1  0
  8  9  1  1
  9 10  1  0
 10 18  1  0
 11 10  2  0
 11 12  1  0
 12 13  1  0
 13 14  1  0
 14 15  2  0
 16 15  1  0
 17 16  2  0
 18 13  2  0
 18 17  1  0
 19 25  1  0
 19  8  1  0
 20 19  2  0
 22 21  1  1
 23 22  1  0
 24 25  1  1
 24 22  1  0
 26 24  1  0
 27 26  1  0
 28 26  2  0
M  END
$$$$
