SWT.pdb
     RDKit          3D

 28 29  0  0  1  0  0  0  0  0999 V2000
    8.8989  -16.0440   19.1956 O   0  0  0  0  0  0  0  0  0  0  0  0
    7.5843  -15.9266   19.5773 C   0  0  0  0  0  0  0  0  0  0  0  0
    7.3687  -14.6976   20.4699 C   0  0  2  0  0  0  0  0  0  0  0  0
    7.6421  -13.5496   19.6446 N   0  0  0  0  0  0  0  0  0  0  0  0
    8.2566  -14.7602   21.6597 C   0  0  0  0  0  0  0  0  0  0  0  0
    9.2566  -14.0009   21.7158 O   0  0  0  0  0  0  0  0  0  0  0  0
    8.0290  -15.6461   22.7507 N   0  0  0  0  0  0  0  0  0  0  0  0
    8.9648  -15.7999   23.8356 C   0  0  1  0  0  0  0  0  0  0  0  0
    8.3163  -15.9674   25.1675 C   0  0  0  0  0  0  0  0  0  0  0  0
    7.2813  -14.9685   25.5027 C   0  0  0  0  0  0  0  0  0  0  0  0
    5.8969  -15.1911   25.5326 C   0  0  0  0  0  0  0  0  0  0  0  0
    5.2555  -14.0558   25.8576 N   0  0  0  0  0  0  0  0  0  0  0  0
    6.1684  -13.0742   26.0478 C   0  0  0  0  0  0  0  0  0  0  0  0
    6.0045  -11.7507   26.3977 C   0  0  0  0  0  0  0  0  0  0  0  0
    7.1502  -10.9906   26.5264 C   0  0  0  0  0  0  0  0  0  0  0  0
    8.4074  -11.5025   26.3215 C   0  0  0  0  0  0  0  0  0  0  0  0
    8.5282  -12.8228   25.9746 C   0  0  0  0  0  0  0  0  0  0  0  0
    7.4144  -13.6295   25.8317 C   0  0  0  0  0  0  0  0  0  0  0  0
    9.9608  -16.8485   23.5056 C   0  0  0  0  0  0  0  0  0  0  0  0
    9.6184  -18.0639   23.4470 O   0  0  0  0  0  0  0  0  0  0  0  0
   12.8224  -16.5585   20.7570 C   0  0  0  0  0  0  0  0  0  0  0  0
   13.3771  -16.9803   22.0884 C   0  0  1  0  0  0  0  0  0  0  0  0
   13.9656  -15.9094   22.7561 O   0  0  0  0  0  0  0  0  0  0  0  0
   12.3081  -17.5993   22.9901 C   0  0  2  0  0  0  0  0  0  0  0  0
   11.3245  -16.5656   23.2400 N   0  0  0  0  0  0  0  0  0  0  0  0
   12.9816  -17.9180   24.2608 C   0  0  0  0  0  0  0  0  0  0  0  0
   12.7210  -17.2311   25.4374 O   0  0  0  0  0  0  0  0  0  0  0  0
   13.8229  -18.8402   24.2960 O   0  0  0  0  0  0  0  0  0  0  0  0
  2  1  1  0
  2  3  1  0
  3  5  1  0
  3  4  1  6
  5  6  2  0
  7  8  1  0
  7  5  1  0
  8  9  1  1
  9 10  1  0
 10 18  1  0
 11 10  2  0
 11 12  1  0
 12 13  1  0
 13 14  1  0
 14 15  2  0
 16 15  1  0
 17 16  2  0
 18 13  2  0
 18 17  1  0
 19 25  1  0
 19  8  1  0
 20 19  2  0
 22 21  1  6
 23 22  1  0
 24 25  1  1
 24 22  1  0
 26 24  1  0
 27 26  1  0
 28 26  2  0
M  END
$$$$
