SWT.pdb
     RDKit          3D

 28 29  0  0  1  0  0  0  0  0999 V2000
    9.3839  -21.2711   21.5409 O   0  0  0  0  0  0  0  0  0  0  0  0
    8.2026  -20.7727   21.0471 C   0  0  0  0  0  0  0  0  0  0  0  0
    8.3958  -19.3792   20.4351 C   0  0  2  0  0  0  0  0  0  0  0  0
    9.3832  -19.5301   19.3977 N   0  0  0  0  0  0  0  0  0  0  0  0
    8.8191  -18.4100   21.4788 C   0  0  0  0  0  0  0  0  0  0  0  0
   10.0458  -18.2053   21.6605 O   0  0  0  0  0  0  0  0  0  0  0  0
    7.8952  -17.6940   22.2918 N   0  0  0  0  0  0  0  0  0  0  0  0
    8.3116  -16.7193   23.2681 C   0  0  1  0  0  0  0  0  0  0  0  0
    7.3410  -15.6030   23.4524 C   0  0  0  0  0  0  0  0  0  0  0  0
    7.8058  -14.4878   24.3020 C   0  0  0  0  0  0  0  0  0  0  0  0
    9.0588  -13.8618   24.2316 C   0  0  0  0  0  0  0  0  0  0  0  0
    9.1464  -12.9013   25.1673 N   0  0  0  0  0  0  0  0  0  0  0  0
    7.9875  -12.8619   25.8665 C   0  0  0  0  0  0  0  0  0  0  0  0
    7.5955  -12.0511   26.9104 C   0  0  0  0  0  0  0  0  0  0  0  0
    6.3257  -12.2503   27.4151 C   0  0  0  0  0  0  0  0  0  0  0  0
    5.4714  -13.2040   26.9201 C   0  0  0  0  0  0  0  0  0  0  0  0
    5.8985  -13.9902   25.8821 C   0  0  0  0  0  0  0  0  0  0  0  0
    7.1603  -13.8339   25.3387 C   0  0  0  0  0  0  0  0  0  0  0  0
    8.7097  -17.3959   24.5268 C   0  0  0  0  0  0  0  0  0  0  0  0
    7.8950  -18.1430   25.1398 O   0  0  0  0  0  0  0  0  0  0  0  0
   11.7585  -19.6727   24.9939 C   0  0  0  0  0  0  0  0  0  0  0  0
   11.8003  -18.5488   25.9906 C   0  0  1  0  0  0  0  0  0  0  0  0
   12.6205  -17.5120   25.5533 O   0  0  0  0  0  0  0  0  0  0  0  0
   10.4088  -17.9880   26.2879 C   0  0  2  0  0  0  0  0  0  0  0  0
    9.9947  -17.2548   25.1092 N   0  0  0  0  0  0  0  0  0  0  0  0
   10.5831  -17.0310   27.3940 C   0  0  0  0  0  0  0  0  0  0  0  0
   10.8954  -17.4302   28.6853 O   0  0  0  0  0  0  0  0  0  0  0  0
   10.4473  -15.8088   27.1765 O   0  0  0  0  0  0  0  0  0  0  0  0
  2  1  1  0
  2  3  1  0
  3  5  1  0
  3  4  1  6
  5  6  2  0
  7  8  1  0
  7  5  1  0
  8  9  1  1
  9 10  1  0
 10 18  1  0
 11 10  2  0
 11 12  1  0
 12 13  1  0
 13 14  1  0
 14 15  2  0
 16 15  1  0
 17 16  2  0
 18 13  2  0
 18 17  1  0
 19 25  1  0
 19  8  1  0
 20 19  2  0
 22 21  1  6
 23 22  1  0
 24 25  1  6
 24 22  1  0
 26 24  1  0
 27 26  1  0
 28 26  2  0
M  END
$$$$
