SQL.pdb
     RDKit          3D

 24 23  0  0  1  0  0  0  0  0999 V2000
   17.3721  -16.4691  -15.9402 O   0  0  0  0  0  0  0  0  0  0  0  0
   17.2487  -15.0803  -15.9545 C   0  0  0  0  0  0  0  0  0  0  0  0
   16.8379  -14.6547  -17.3492 C   0  0  2  0  0  0  0  0  0  0  0  0
   17.2845  -15.5672  -18.3578 N   0  0  0  0  0  0  0  0  0  0  0  0
   17.4232  -13.3250  -17.6073 C   0  0  0  0  0  0  0  0  0  0  0  0
   17.7336  -13.0096  -18.7780 O   0  0  0  0  0  0  0  0  0  0  0  0
   14.7581   -8.7357  -18.3028 N   0  0  0  0  0  0  0  0  0  0  0  0
   16.0122   -8.0992  -18.1979 C   0  0  0  0  0  0  0  0  0  0  0  0
   16.1084   -6.8744  -18.4026 O   0  0  0  0  0  0  0  0  0  0  0  0
   17.2000   -8.8978  -17.8450 C   0  0  0  0  0  0  0  0  0  0  0  0
   16.8384  -10.3301  -17.6019 C   0  0  0  0  0  0  0  0  0  0  0  0
   17.9897  -11.0313  -16.9114 C   0  0  2  0  0  0  0  0  0  0  0  0
   17.6479  -12.3874  -16.5755 N   0  0  0  0  0  0  0  0  0  0  0  0
   18.3330  -10.3083  -15.6426 C   0  0  0  0  0  0  0  0  0  0  0  0
   17.5766  -10.3624  -14.6442 O   0  0  0  0  0  0  0  0  0  0  0  0
   22.7507   -6.8236  -13.3885 C   0  0  0  0  0  0  0  0  0  0  0  0
   21.9452   -8.0642  -13.1409 C   0  0  2  0  0  0  0  0  0  0  0  0
   22.7947   -9.1514  -12.5044 C   0  0  0  0  0  0  0  0  0  0  0  0
   21.4407   -8.5970  -14.4622 C   0  0  0  0  0  0  0  0  0  0  0  0
   19.9578   -8.9578  -14.3405 C   0  0  2  0  0  0  0  0  0  0  0  0
   19.5161   -9.5626  -15.5747 N   0  0  0  0  0  0  0  0  0  0  0  0
   19.2136   -7.6897  -14.0984 C   0  0  0  0  0  0  0  0  0  0  0  0
   18.7801   -6.9813  -15.0448 O   0  0  0  0  0  0  0  0  0  0  0  0
   19.0040   -7.2986  -12.7896 O   0  0  0  0  0  0  0  0  0  0  0  0
  2  1  1  0
  3  2  1  0
  3  4  1  6
  5  3  1  0
  5  6  2  0
  7  8  1  0
  8 10  1  0
  9  8  2  0
 10 11  1  0
 12 11  1  1
 12 13  1  0
 13  5  1  0
 14 12  1  0
 15 14  2  0
 17 19  1  0
 17 16  1  6
 17 18  1  0
 20 19  1  6
 20 22  1  0
 20 21  1  0
 21 14  1  0
 22 24  1  0
 23 22  2  0
M  END
$$$$
