SQL.pdb
     RDKit          3D

 24 23  0  0  1  0  0  0  0  0999 V2000
   13.9156  -12.3835  -14.9455 O   0  0  0  0  0  0  0  0  0  0  0  0
   15.0021  -11.5501  -15.2085 C   0  0  0  0  0  0  0  0  0  0  0  0
   15.8687  -12.2168  -16.2571 C   0  0  2  0  0  0  0  0  0  0  0  0
   16.4696  -13.4280  -15.7866 N   0  0  0  0  0  0  0  0  0  0  0  0
   16.9313  -11.2661  -16.6372 C   0  0  0  0  0  0  0  0  0  0  0  0
   18.1175  -11.6620  -16.6876 O   0  0  0  0  0  0  0  0  0  0  0  0
   19.4286   -9.6741  -20.6340 N   0  0  0  0  0  0  0  0  0  0  0  0
   18.6817   -8.5170  -20.3303 C   0  0  0  0  0  0  0  0  0  0  0  0
   19.1583   -7.3895  -20.5602 O   0  0  0  0  0  0  0  0  0  0  0  0
   17.3380   -8.6591  -19.7409 C   0  0  0  0  0  0  0  0  0  0  0  0
   17.2747   -8.0409  -18.3789 C   0  0  0  0  0  0  0  0  0  0  0  0
   17.7345   -9.0481  -17.3454 C   0  0  2  0  0  0  0  0  0  0  0  0
   16.6583   -9.9161  -16.9487 N   0  0  0  0  0  0  0  0  0  0  0  0
   18.2286   -8.3291  -16.1250 C   0  0  0  0  0  0  0  0  0  0  0  0
   17.4431   -8.0118  -15.2008 O   0  0  0  0  0  0  0  0  0  0  0  0
   21.1256   -7.7792  -12.0374 C   0  0  0  0  0  0  0  0  0  0  0  0
   22.0264   -7.5231  -13.2089 C   0  0  2  0  0  0  0  0  0  0  0  0
   22.1650   -6.0343  -13.4785 C   0  0  0  0  0  0  0  0  0  0  0  0
   21.4229   -8.1540  -14.4426 C   0  0  0  0  0  0  0  0  0  0  0  0
   20.1329   -7.4202  -14.8186 C   0  0  2  0  0  0  0  0  0  0  0  0
   19.5874   -8.0088  -16.0187 N   0  0  0  0  0  0  0  0  0  0  0  0
   20.4920   -5.9954  -15.0667 C   0  0  0  0  0  0  0  0  0  0  0  0
   20.8912   -5.5958  -16.1920 O   0  0  0  0  0  0  0  0  0  0  0  0
   20.3760   -5.1036  -14.0173 O   0  0  0  0  0  0  0  0  0  0  0  0
  2  1  1  0
  3  2  1  0
  3  4  1  1
  5  3  1  0
  5  6  2  0
  7  8  1  0
  8 10  1  0
  9  8  2  0
 10 11  1  0
 12 11  1  6
 12 13  1  0
 13  5  1  0
 14 12  1  0
 15 14  2  0
 17 19  1  0
 17 16  1  1
 17 18  1  0
 20 19  1  6
 20 22  1  0
 20 21  1  0
 21 14  1  0
 22 24  1  0
 23 22  2  0
M  END
$$$$
