SQL.pdb
     RDKit          3D

 24 23  0  0  1  0  0  0  0  0999 V2000
   43.0100  -10.1187   -4.1331 O   0  0  0  0  0  0  0  0  0  0  0  0
   42.8128   -9.7273   -5.4568 C   0  0  0  0  0  0  0  0  0  0  0  0
   43.9282  -10.3149   -6.2967 C   0  0  2  0  0  0  0  0  0  0  0  0
   45.2179   -9.8150   -5.9278 N   0  0  0  0  0  0  0  0  0  0  0  0
   43.6620   -9.9713   -7.7068 C   0  0  0  0  0  0  0  0  0  0  0  0
   44.3923   -9.1324   -8.2808 O   0  0  0  0  0  0  0  0  0  0  0  0
   41.8578  -13.3798  -12.4940 N   0  0  0  0  0  0  0  0  0  0  0  0
   41.7945  -12.0710  -13.0155 C   0  0  0  0  0  0  0  0  0  0  0  0
   41.5829  -11.8937  -14.2301 O   0  0  0  0  0  0  0  0  0  0  0  0
   41.9808  -10.9231  -12.1097 C   0  0  0  0  0  0  0  0  0  0  0  0
   42.2088  -11.3749  -10.7007 C   0  0  0  0  0  0  0  0  0  0  0  0
   42.3881  -10.1662   -9.8057 C   0  0  2  0  0  0  0  0  0  0  0  0
   42.6064  -10.5576   -8.4389 N   0  0  0  0  0  0  0  0  0  0  0  0
   41.1548   -9.3137   -9.8559 C   0  0  0  0  0  0  0  0  0  0  0  0
   40.7716   -8.7960  -10.9316 O   0  0  0  0  0  0  0  0  0  0  0  0
   37.6349  -10.8450   -8.6652 C   0  0  0  0  0  0  0  0  0  0  0  0
   38.3172  -10.2916   -7.4496 C   0  0  2  0  0  0  0  0  0  0  0  0
   37.5802  -10.6852   -6.1806 C   0  0  0  0  0  0  0  0  0  0  0  0
   38.3152   -8.7823   -7.5267 C   0  0  0  0  0  0  0  0  0  0  0  0
   39.2014   -8.3240   -8.6880 C   0  0  2  0  0  0  0  0  0  0  0  0
   40.4223   -9.0942   -8.6830 N   0  0  0  0  0  0  0  0  0  0  0  0
   39.5065   -6.8822   -8.4679 C   0  0  0  0  0  0  0  0  0  0  0  0
   40.6722   -6.4798   -8.2135 O   0  0  0  0  0  0  0  0  0  0  0  0
   38.4651   -5.9773   -8.5499 O   0  0  0  0  0  0  0  0  0  0  0  0
  2  1  1  0
  3  2  1  0
  3  4  1  1
  5  3  1  0
  5  6  2  0
  7  8  1  0
  8 10  1  0
  9  8  2  0
 10 11  1  0
 12 11  1  6
 12 13  1  0
 13  5  1  0
 14 12  1  0
 15 14  2  0
 17 19  1  0
 17 16  1  6
 17 18  1  0
 20 19  1  1
 20 22  1  0
 20 21  1  0
 21 14  1  0
 22 24  1  0
 23 22  2  0
M  END
$$$$
