SQL.pdb
     RDKit          3D

 24 23  0  0  1  0  0  0  0  0999 V2000
   15.2096  -13.9944  -15.2484 O   0  0  0  0  0  0  0  0  0  0  0  0
   15.9057  -12.8478  -15.6289 C   0  0  0  0  0  0  0  0  0  0  0  0
   16.4206  -13.0512  -17.0391 C   0  0  2  0  0  0  0  0  0  0  0  0
   16.9686  -14.3580  -17.2425 N   0  0  0  0  0  0  0  0  0  0  0  0
   17.4693  -12.0434  -17.2878 C   0  0  0  0  0  0  0  0  0  0  0  0
   18.5327  -12.3920  -17.8482 O   0  0  0  0  0  0  0  0  0  0  0  0
   16.8983   -5.7860  -17.7871 N   0  0  0  0  0  0  0  0  0  0  0  0
   18.2384   -6.0485  -18.1393 C   0  0  0  0  0  0  0  0  0  0  0  0
   18.9624   -5.1290  -18.5656 O   0  0  0  0  0  0  0  0  0  0  0  0
   18.7675   -7.4171  -17.9970 C   0  0  0  0  0  0  0  0  0  0  0  0
   17.7166   -8.3554  -17.4909 C   0  0  0  0  0  0  0  0  0  0  0  0
   18.3190   -9.7317  -17.2981 C   0  0  2  0  0  0  0  0  0  0  0  0
   17.3173  -10.6900  -16.9145 N   0  0  0  0  0  0  0  0  0  0  0  0
   19.3560   -9.6813  -16.2153 C   0  0  0  0  0  0  0  0  0  0  0  0
   19.0534   -9.9125  -15.0208 O   0  0  0  0  0  0  0  0  0  0  0  0
   23.2934  -10.6990  -13.6337 C   0  0  0  0  0  0  0  0  0  0  0  0
   23.9183  -10.4259  -14.9695 C   0  0  2  0  0  0  0  0  0  0  0  0
   24.6432   -9.0906  -14.9727 C   0  0  0  0  0  0  0  0  0  0  0  0
   22.8317  -10.3556  -16.0176 C   0  0  0  0  0  0  0  0  0  0  0  0
   21.7317   -9.3959  -15.5563 C   0  0  2  0  0  0  0  0  0  0  0  0
   20.6808   -9.3714  -16.5458 N   0  0  0  0  0  0  0  0  0  0  0  0
   22.3480   -8.0448  -15.4328 C   0  0  0  0  0  0  0  0  0  0  0  0
   22.5046   -7.2910  -16.4291 O   0  0  0  0  0  0  0  0  0  0  0  0
   22.7524   -7.6269  -14.1791 O   0  0  0  0  0  0  0  0  0  0  0  0
  2  1  1  0
  3  2  1  0
  3  4  1  1
  5  3  1  0
  5  6  2  0
  7  8  1  0
  8 10  1  0
  9  8  2  0
 10 11  1  0
 12 11  1  1
 12 13  1  0
 13  5  1  0
 14 12  1  0
 15 14  2  0
 17 19  1  0
 17 16  1  1
 17 18  1  0
 20 19  1  6
 20 22  1  0
 20 21  1  0
 21 14  1  0
 22 24  1  0
 23 22  2  0
M  END
$$$$
