SQL.pdb
     RDKit          3D

 24 23  0  0  1  0  0  0  0  0999 V2000
   11.9916  -10.7046  -11.8908 O   0  0  0  0  0  0  0  0  0  0  0  0
   12.5282  -10.5166  -13.1640 C   0  0  0  0  0  0  0  0  0  0  0  0
   13.8695  -11.2185  -13.2222 C   0  0  2  0  0  0  0  0  0  0  0  0
   13.8314  -12.5284  -12.6459 N   0  0  0  0  0  0  0  0  0  0  0  0
   14.8443  -10.3935  -12.4830 C   0  0  0  0  0  0  0  0  0  0  0  0
   15.0569  -10.6338  -11.2732 O   0  0  0  0  0  0  0  0  0  0  0  0
   20.3549   -9.7765  -15.1133 N   0  0  0  0  0  0  0  0  0  0  0  0
   19.5054   -8.8037  -14.5469 C   0  0  0  0  0  0  0  0  0  0  0  0
   19.7275   -7.5935  -14.7405 O   0  0  0  0  0  0  0  0  0  0  0  0
   18.3583   -9.2356  -13.7279 C   0  0  0  0  0  0  0  0  0  0  0  0
   17.6296   -8.0614  -13.1523 C   0  0  0  0  0  0  0  0  0  0  0  0
   16.4690   -8.5504  -12.3109 C   0  0  2  0  0  0  0  0  0  0  0  0
   15.5521   -9.3350  -13.0935 N   0  0  0  0  0  0  0  0  0  0  0  0
   15.7204   -7.3763  -11.7528 C   0  0  0  0  0  0  0  0  0  0  0  0
   14.8080   -6.8213  -12.4096 O   0  0  0  0  0  0  0  0  0  0  0  0
   13.1638   -7.0189   -8.2053 C   0  0  0  0  0  0  0  0  0  0  0  0
   14.6153   -7.2113   -7.8803 C   0  0  2  0  0  0  0  0  0  0  0  0
   14.8266   -7.3603   -6.3831 C   0  0  0  0  0  0  0  0  0  0  0  0
   15.3873   -5.9920   -8.3290 C   0  0  0  0  0  0  0  0  0  0  0  0
   15.2818   -5.8454   -9.8493 C   0  0  2  0  0  0  0  0  0  0  0  0
   16.0472   -6.8948  -10.4793 N   0  0  0  0  0  0  0  0  0  0  0  0
   15.8507   -4.5148  -10.2049 C   0  0  0  0  0  0  0  0  0  0  0  0
   17.0063   -4.3931  -10.6899 O   0  0  0  0  0  0  0  0  0  0  0  0
   15.0703   -3.3950   -9.9878 O   0  0  0  0  0  0  0  0  0  0  0  0
  2  1  1  0
  3  2  1  0
  3  4  1  1
  5  3  1  0
  5  6  2  0
  7  8  1  0
  8 10  1  0
  9  8  2  0
 10 11  1  0
 12 11  1  6
 12 13  1  0
 13  5  1  0
 14 12  1  0
 15 14  2  0
 17 19  1  0
 17 16  1  1
 17 18  1  0
 20 19  1  1
 20 22  1  0
 20 21  1  0
 21 14  1  0
 22 24  1  0
 23 22  2  0
M  END
$$$$
