SQL.pdb
     RDKit          3D

 24 23  0  0  1  0  0  0  0  0999 V2000
   14.2854  -11.2792  -16.0417 O   0  0  0  0  0  0  0  0  0  0  0  0
   14.6869  -10.8537  -14.7759 C   0  0  0  0  0  0  0  0  0  0  0  0
   16.1612  -11.1638  -14.6166 C   0  0  2  0  0  0  0  0  0  0  0  0
   16.4183  -12.5658  -14.4834 N   0  0  0  0  0  0  0  0  0  0  0  0
   16.6420  -10.4674  -13.4078 C   0  0  0  0  0  0  0  0  0  0  0  0
   16.3642  -10.9351  -12.2806 O   0  0  0  0  0  0  0  0  0  0  0  0
   21.5189   -6.6610  -13.0127 N   0  0  0  0  0  0  0  0  0  0  0  0
   21.5069   -8.0665  -13.1275 C   0  0  0  0  0  0  0  0  0  0  0  0
   22.5292   -8.6698  -13.5046 O   0  0  0  0  0  0  0  0  0  0  0  0
   20.2760   -8.8074  -12.7972 C   0  0  0  0  0  0  0  0  0  0  0  0
   19.1435   -7.8740  -12.5017 C   0  0  0  0  0  0  0  0  0  0  0  0
   17.8799   -8.6737  -12.2605 C   0  0  2  0  0  0  0  0  0  0  0  0
   17.4097   -9.2841  -13.4750 N   0  0  0  0  0  0  0  0  0  0  0  0
   16.8006   -7.7685  -11.7445 C   0  0  0  0  0  0  0  0  0  0  0  0
   16.0653   -7.1272  -12.5318 O   0  0  0  0  0  0  0  0  0  0  0  0
   14.0138   -6.8190   -6.3231 C   0  0  0  0  0  0  0  0  0  0  0  0
   14.0947   -6.5641   -7.7989 C   0  0  2  0  0  0  0  0  0  0  0  0
   12.8587   -7.0841   -8.5134 C   0  0  0  0  0  0  0  0  0  0  0  0
   15.2885   -7.3001   -8.3622 C   0  0  0  0  0  0  0  0  0  0  0  0
   15.5135   -6.8806   -9.8173 C   0  0  2  0  0  0  0  0  0  0  0  0
   16.6136   -7.6395  -10.3629 N   0  0  0  0  0  0  0  0  0  0  0  0
   15.8483   -5.4286   -9.8112 C   0  0  0  0  0  0  0  0  0  0  0  0
   17.0180   -5.0161   -9.5940 O   0  0  0  0  0  0  0  0  0  0  0  0
   14.8304   -4.5257  -10.0534 O   0  0  0  0  0  0  0  0  0  0  0  0
  2  1  1  0
  3  2  1  0
  3  4  1  1
  5  3  1  0
  5  6  2  0
  7  8  1  0
  8 10  1  0
  9  8  2  0
 10 11  1  0
 12 11  1  6
 12 13  1  0
 13  5  1  0
 14 12  1  0
 15 14  2  0
 17 19  1  0
 17 16  1  1
 17 18  1  0
 20 19  1  1
 20 22  1  0
 20 21  1  0
 21 14  1  0
 22 24  1  0
 23 22  2  0
M  END
$$$$
