SQL.pdb
     RDKit          3D

 24 23  0  0  1  0  0  0  0  0999 V2000
   28.6276  -22.6587  -15.4357 O   0  0  0  0  0  0  0  0  0  0  0  0
   27.5494  -21.8085  -15.6784 C   0  0  0  0  0  0  0  0  0  0  0  0
   26.2962  -22.6521  -15.7925 C   0  0  2  0  0  0  0  0  0  0  0  0
   26.2384  -23.3902  -17.0178 N   0  0  0  0  0  0  0  0  0  0  0  0
   25.1332  -21.7470  -15.7183 C   0  0  0  0  0  0  0  0  0  0  0  0
   24.5693  -21.3869  -16.7760 O   0  0  0  0  0  0  0  0  0  0  0  0
   20.8687  -21.0782  -11.2922 N   0  0  0  0  0  0  0  0  0  0  0  0
   20.9872  -22.0696  -12.2881 C   0  0  0  0  0  0  0  0  0  0  0  0
   20.3084  -23.1113  -12.2144 O   0  0  0  0  0  0  0  0  0  0  0  0
   21.9192  -21.8578  -13.4105 C   0  0  0  0  0  0  0  0  0  0  0  0
   22.6370  -20.5505  -13.2806 C   0  0  0  0  0  0  0  0  0  0  0  0
   23.5281  -20.3417  -14.4875 C   0  0  2  0  0  0  0  0  0  0  0  0
   24.6283  -21.2682  -14.4895 N   0  0  0  0  0  0  0  0  0  0  0  0
   24.0891  -18.9506  -14.4659 C   0  0  0  0  0  0  0  0  0  0  0  0
   25.0255  -18.6445  -13.6905 O   0  0  0  0  0  0  0  0  0  0  0  0
   27.4346  -15.9454  -17.3995 C   0  0  0  0  0  0  0  0  0  0  0  0
   26.3194  -15.6942  -16.4287 C   0  0  2  0  0  0  0  0  0  0  0  0
   26.8496  -15.1437  -15.1155 C   0  0  0  0  0  0  0  0  0  0  0  0
   25.6248  -17.0018  -16.1258 C   0  0  0  0  0  0  0  0  0  0  0  0
   24.2310  -16.7255  -15.5559 C   0  0  2  0  0  0  0  0  0  0  0  0
   23.5575  -17.9814  -15.3252 N   0  0  0  0  0  0  0  0  0  0  0  0
   23.4888  -15.9275  -16.5723 C   0  0  0  0  0  0  0  0  0  0  0  0
   22.8411  -16.4734  -17.5038 O   0  0  0  0  0  0  0  0  0  0  0  0
   23.5259  -14.5497  -16.4707 O   0  0  0  0  0  0  0  0  0  0  0  0
  2  1  1  0
  3  2  1  0
  3  4  1  6
  5  3  1  0
  5  6  2  0
  7  8  1  0
  8 10  1  0
  9  8  2  0
 10 11  1  0
 12 11  1  1
 12 13  1  0
 13  5  1  0
 14 12  1  0
 15 14  2  0
 17 19  1  0
 17 16  1  6
 17 18  1  0
 20 19  1  6
 20 22  1  0
 20 21  1  0
 21 14  1  0
 22 24  1  0
 23 22  2  0
M  END
$$$$
