SQL.pdb
     RDKit          3D

 24 23  0  0  1  0  0  0  0  0999 V2000
   26.9662  -19.3200  -16.7014 O   0  0  0  0  0  0  0  0  0  0  0  0
   26.7843  -18.6351  -15.5005 C   0  0  0  0  0  0  0  0  0  0  0  0
   27.4882  -19.4064  -14.4029 C   0  0  2  0  0  0  0  0  0  0  0  0
   27.6989  -20.7809  -14.7432 N   0  0  0  0  0  0  0  0  0  0  0  0
   26.6519  -19.3317  -13.1895 C   0  0  0  0  0  0  0  0  0  0  0  0
   26.1402  -18.2365  -12.8652 O   0  0  0  0  0  0  0  0  0  0  0  0
   21.3825  -19.7312  -10.3316 N   0  0  0  0  0  0  0  0  0  0  0  0
   21.8603  -20.5593  -11.3684 C   0  0  0  0  0  0  0  0  0  0  0  0
   21.1918  -21.5429  -11.7386 O   0  0  0  0  0  0  0  0  0  0  0  0
   23.1532  -20.2471  -12.0041 C   0  0  0  0  0  0  0  0  0  0  0  0
   24.2365  -21.1509  -11.5034 C   0  0  0  0  0  0  0  0  0  0  0  0
   25.4964  -20.3449  -11.2648 C   0  0  2  0  0  0  0  0  0  0  0  0
   26.4052  -20.4578  -12.3739 N   0  0  0  0  0  0  0  0  0  0  0  0
   26.1937  -20.8502  -10.0365 C   0  0  0  0  0  0  0  0  0  0  0  0
   26.8157  -21.9387  -10.0493 O   0  0  0  0  0  0  0  0  0  0  0  0
   26.8866  -20.2328   -4.7140 C   0  0  0  0  0  0  0  0  0  0  0  0
   28.0105  -19.8155   -5.6152 C   0  0  2  0  0  0  0  0  0  0  0  0
   28.7766  -18.6419   -5.0284 C   0  0  0  0  0  0  0  0  0  0  0  0
   27.4397  -19.3681   -6.9412 C   0  0  0  0  0  0  0  0  0  0  0  0
   26.7699  -20.5539   -7.6407 C   0  0  2  0  0  0  0  0  0  0  0  0
   26.1479  -20.0934   -8.8594 N   0  0  0  0  0  0  0  0  0  0  0  0
   25.7360  -21.0885   -6.7104 C   0  0  0  0  0  0  0  0  0  0  0  0
   24.5501  -20.6652   -6.7189 O   0  0  0  0  0  0  0  0  0  0  0  0
   26.1109  -22.0772   -5.8206 O   0  0  0  0  0  0  0  0  0  0  0  0
  2  1  1  0
  3  2  1  0
  3  4  1  6
  5  3  1  0
  5  6  2  0
  7  8  1  0
  8 10  1  0
  9  8  2  0
 10 11  1  0
 12 11  1  6
 12 13  1  0
 13  5  1  0
 14 12  1  0
 15 14  2  0
 17 19  1  0
 17 16  1  1
 17 18  1  0
 20 19  1  1
 20 22  1  0
 20 21  1  0
 21 14  1  0
 22 24  1  0
 23 22  2  0
M  END
$$$$
