SQL.pdb
     RDKit          3D

 24 23  0  0  1  0  0  0  0  0999 V2000
   16.9929  -25.8420   -2.1242 O   0  0  0  0  0  0  0  0  0  0  0  0
   15.7375  -26.0445   -2.6961 C   0  0  0  0  0  0  0  0  0  0  0  0
   15.4707  -24.9134   -3.6681 C   0  0  2  0  0  0  0  0  0  0  0  0
   16.5537  -24.7040   -4.5806 N   0  0  0  0  0  0  0  0  0  0  0  0
   15.2560  -23.6829   -2.8825 C   0  0  0  0  0  0  0  0  0  0  0  0
   16.0966  -22.7583   -2.9514 O   0  0  0  0  0  0  0  0  0  0  0  0
    9.7663  -21.1281   -1.4739 N   0  0  0  0  0  0  0  0  0  0  0  0
   10.7149  -20.1153   -1.2224 C   0  0  0  0  0  0  0  0  0  0  0  0
   10.3389  -18.9447   -1.0236 O   0  0  0  0  0  0  0  0  0  0  0  0
   12.1484  -20.4586   -1.1980 C   0  0  0  0  0  0  0  0  0  0  0  0
   12.3688  -21.8946   -1.5591 C   0  0  0  0  0  0  0  0  0  0  0  0
   13.8493  -22.2088   -1.4989 C   0  0  2  0  0  0  0  0  0  0  0  0
   14.1292  -23.5077   -2.0496 N   0  0  0  0  0  0  0  0  0  0  0  0
   14.3098  -22.1977   -0.0712 C   0  0  0  0  0  0  0  0  0  0  0  0
   14.4737  -23.2672    0.5622 O   0  0  0  0  0  0  0  0  0  0  0  0
   17.9332  -21.2226    2.2957 C   0  0  0  0  0  0  0  0  0  0  0  0
   17.3557  -20.0995    1.4867 C   0  0  2  0  0  0  0  0  0  0  0  0
   18.2376  -18.8642    1.5561 C   0  0  0  0  0  0  0  0  0  0  0  0
   16.0054  -19.7263    2.0537 C   0  0  0  0  0  0  0  0  0  0  0  0
   15.0445  -20.9106    1.9195 C   0  0  2  0  0  0  0  0  0  0  0  0
   14.5597  -20.9738    0.5611 N   0  0  0  0  0  0  0  0  0  0  0  0
   13.9107  -20.6672    2.8553 C   0  0  0  0  0  0  0  0  0  0  0  0
   12.8124  -20.1939    2.4614 O   0  0  0  0  0  0  0  0  0  0  0  0
   14.0914  -20.9769    4.1900 O   0  0  0  0  0  0  0  0  0  0  0  0
  2  1  1  0
  3  2  1  0
  3  4  1  6
  5  3  1  0
  5  6  2  0
  7  8  1  0
  8 10  1  0
  9  8  2  0
 10 11  1  0
 12 11  1  1
 12 13  1  0
 13  5  1  0
 14 12  1  0
 15 14  2  0
 17 19  1  0
 17 16  1  1
 17 18  1  0
 20 19  1  6
 20 22  1  0
 20 21  1  0
 21 14  1  0
 22 24  1  0
 23 22  2  0
M  END
$$$$
