FKW.pdb
     RDKit          3D

 35 37  0  0  1  0  0  0  0  0999 V2000
   10.0310  -16.1153   19.7719 N   0  0  0  0  0  0  0  0  0  0  0  0
    9.3995  -15.9689   21.0516 C   0  0  1  0  0  0  0  0  0  0  0  0
    7.9325  -15.7056   20.8745 C   0  0  0  0  0  0  0  0  0  0  0  0
    7.6405  -14.5260   20.0476 C   0  0  0  0  0  0  0  0  0  0  0  0
    7.1777  -14.6457   18.7598 C   0  0  0  0  0  0  0  0  0  0  0  0
    6.9066  -13.5063   17.9995 C   0  0  0  0  0  0  0  0  0  0  0  0
    7.0943  -12.2429   18.5166 C   0  0  0  0  0  0  0  0  0  0  0  0
    7.5564  -12.1240   19.8027 C   0  0  0  0  0  0  0  0  0  0  0  0
    7.8183  -13.2538   20.5371 C   0  0  0  0  0  0  0  0  0  0  0  0
    9.6592  -17.1911   21.8694 C   0  0  0  0  0  0  0  0  0  0  0  0
    8.8090  -17.6109   22.7092 O   0  0  0  0  0  0  0  0  0  0  0  0
   10.8658  -17.9212   21.7325 N   0  0  0  0  0  0  0  0  0  0  0  0
   11.3982  -18.6933   22.8860 C   0  0  1  0  0  0  0  0  0  0  0  0
   12.6520  -19.3828   22.4376 C   0  0  0  0  0  0  0  0  0  0  0  0
   13.2983  -20.2269   23.4878 C   0  0  0  0  0  0  0  0  0  0  0  0
   14.6317  -20.7912   22.9769 C   0  0  0  0  0  0  0  0  0  0  0  0
   15.2389  -21.6277   24.0878 C   0  0  0  0  0  0  0  0  0  0  0  0
   16.5323  -22.1328   23.6819 N   0  0  0  0  0  0  0  0  0  0  0  0
   11.5451  -17.7507   23.9966 C   0  0  0  0  0  0  0  0  0  0  0  0
   12.0558  -16.6045   23.7482 O   0  0  0  0  0  0  0  0  0  0  0  0
   11.1381  -18.0724   25.3058 N   0  0  0  0  0  0  0  0  0  0  0  0
   10.4113  -17.0570   26.0801 C   0  0  1  0  0  0  0  0  0  0  0  0
    9.4239  -16.4376   25.1367 C   0  0  0  0  0  0  0  0  0  0  0  0
    8.4943  -15.4522   25.7038 C   0  0  0  0  0  0  0  0  0  0  0  0
    7.0943  -15.4877   25.5841 C   0  0  0  0  0  0  0  0  0  0  0  0
    6.5758  -14.4320   26.1836 N   0  0  0  0  0  0  0  0  0  0  0  0
    7.5347  -13.6492   26.7234 C   0  0  0  0  0  0  0  0  0  0  0  0
    7.4634  -12.4745   27.4436 C   0  0  0  0  0  0  0  0  0  0  0  0
    8.6373  -11.9066   27.8887 C   0  0  0  0  0  0  0  0  0  0  0  0
    9.8348  -12.5413   27.5925 C   0  0  0  0  0  0  0  0  0  0  0  0
    9.8937  -13.7122   26.8727 C   0  0  0  0  0  0  0  0  0  0  0  0
    8.7319  -14.2868   26.4236 C   0  0  0  0  0  0  0  0  0  0  0  0
    9.8021  -17.7167   27.2344 C   0  0  0  0  0  0  0  0  0  0  0  0
    9.7169  -17.0875   28.3332 O   0  0  0  0  0  0  0  0  0  0  0  0
    9.2865  -19.0071   27.2411 O   0  0  0  0  0  0  0  0  0  0  0  0
  2  1  1  6
  2  3  1  0
  3  4  1  0
  4  5  2  0
  5  6  1  0
  7  6  2  0
  8  7  1  0
  9  8  2  0
  9  4  1  0
 10  2  1  0
 11 10  2  0
 12 10  1  0
 13 19  1  0
 13 12  1  0
 13 14  1  6
 15 14  1  0
 16 17  1  0
 16 15  1  0
 18 17  1  0
 19 21  1  0
 20 19  2  0
 21 22  1  0
 22 23  1  6
 22 33  1  0
 24 23  1  0
 25 24  2  0
 26 27  1  0
 26 25  1  0
 27 32  2  0
 28 29  2  0
 28 27  1  0
 29 30  1  0
 30 31  2  0
 32 24  1  0
 32 31  1  0
 33 34  2  0
 33 35  1  0
M  END
$$$$
