FKW.pdb
     RDKit          3D

 35 37  0  0  1  0  0  0  0  0999 V2000
    9.2865  -16.1826   20.3695 N   0  0  0  0  0  0  0  0  0  0  0  0
    8.9573  -15.4868   21.5802 C   0  0  1  0  0  0  0  0  0  0  0  0
    7.5803  -14.8986   21.4776 C   0  0  0  0  0  0  0  0  0  0  0  0
    7.4165  -13.9739   20.3468 C   0  0  0  0  0  0  0  0  0  0  0  0
    8.0122  -12.7362   20.3363 C   0  0  0  0  0  0  0  0  0  0  0  0
    7.8403  -11.8805   19.2465 C   0  0  0  0  0  0  0  0  0  0  0  0
    7.0755  -12.2519   18.1621 C   0  0  0  0  0  0  0  0  0  0  0  0
    6.4808  -13.4880   18.1732 C   0  0  0  0  0  0  0  0  0  0  0  0
    6.6594  -14.3176   19.2521 C   0  0  0  0  0  0  0  0  0  0  0  0
    9.0863  -16.4245   22.7352 C   0  0  0  0  0  0  0  0  0  0  0  0
    8.2750  -16.3831   23.7071 O   0  0  0  0  0  0  0  0  0  0  0  0
   10.1210  -17.3913   22.7817 N   0  0  0  0  0  0  0  0  0  0  0  0
   10.2781  -18.2495   23.9855 C   0  0  1  0  0  0  0  0  0  0  0  0
   11.3048  -19.2964   23.6723 C   0  0  0  0  0  0  0  0  0  0  0  0
   11.4844  -20.3214   24.7449 C   0  0  0  0  0  0  0  0  0  0  0  0
   12.5893  -21.3147   24.3580 C   0  0  0  0  0  0  0  0  0  0  0  0
   13.2343  -21.8143   25.6373 C   0  0  0  0  0  0  0  0  0  0  0  0
   12.3618  -22.7590   26.3001 N   0  0  0  0  0  0  0  0  0  0  0  0
   10.5896  -17.3584   25.1047 C   0  0  0  0  0  0  0  0  0  0  0  0
   11.5225  -16.4977   24.9457 O   0  0  0  0  0  0  0  0  0  0  0  0
    9.8926  -17.4249   26.3265 N   0  0  0  0  0  0  0  0  0  0  0  0
   10.3864  -16.6255   27.4561 C   0  0  1  0  0  0  0  0  0  0  0  0
    9.1756  -16.0252   28.1060 C   0  0  0  0  0  0  0  0  0  0  0  0
    8.1755  -15.4230   27.2149 C   0  0  0  0  0  0  0  0  0  0  0  0
    7.1648  -16.1215   26.5321 C   0  0  0  0  0  0  0  0  0  0  0  0
    6.4678  -15.2761   25.7958 N   0  0  0  0  0  0  0  0  0  0  0  0
    6.9304  -14.0134   25.9210 C   0  0  0  0  0  0  0  0  0  0  0  0
    6.5126  -12.8229   25.3627 C   0  0  0  0  0  0  0  0  0  0  0  0
    7.1845  -11.6687   25.7019 C   0  0  0  0  0  0  0  0  0  0  0  0
    8.2485  -11.7571   26.5878 C   0  0  0  0  0  0  0  0  0  0  0  0
    8.6568  -12.9502   27.1377 C   0  0  0  0  0  0  0  0  0  0  0  0
    7.9962  -14.1061   26.8071 C   0  0  0  0  0  0  0  0  0  0  0  0
   11.1599  -17.5057   28.3311 C   0  0  0  0  0  0  0  0  0  0  0  0
   11.1307  -18.7585   28.1309 O   0  0  0  0  0  0  0  0  0  0  0  0
   11.9534  -17.0866   29.3920 O   0  0  0  0  0  0  0  0  0  0  0  0
  2  1  1  6
  2  3  1  0
  3  4  1  0
  4  5  2  0
  5  6  1  0
  7  6  2  0
  8  7  1  0
  9  8  2  0
  9  4  1  0
 10  2  1  0
 11 10  2  0
 12 10  1  0
 13 19  1  0
 13 12  1  0
 13 14  1  6
 15 14  1  0
 16 17  1  0
 16 15  1  0
 18 17  1  0
 19 21  1  0
 20 19  2  0
 21 22  1  0
 22 23  1  1
 22 33  1  0
 24 23  1  0
 25 24  2  0
 26 27  1  0
 26 25  1  0
 27 32  2  0
 28 29  2  0
 28 27  1  0
 29 30  1  0
 30 31  2  0
 32 24  1  0
 32 31  1  0
 33 34  2  0
 33 35  1  0
M  END
$$$$
