FKW.pdb
     RDKit          3D

 35 37  0  0  1  0  0  0  0  0999 V2000
    5.4351  -18.5894   23.8515 N   0  0  0  0  0  0  0  0  0  0  0  0
    5.9702  -17.2632   23.7376 C   0  0  1  0  0  0  0  0  0  0  0  0
    5.8109  -16.5305   25.0378 C   0  0  0  0  0  0  0  0  0  0  0  0
    6.1562  -15.1040   24.9573 C   0  0  0  0  0  0  0  0  0  0  0  0
    5.5838  -14.2759   24.0226 C   0  0  0  0  0  0  0  0  0  0  0  0
    5.9301  -12.9242   23.9723 C   0  0  0  0  0  0  0  0  0  0  0  0
    6.8470  -12.3899   24.8513 C   0  0  0  0  0  0  0  0  0  0  0  0
    7.4183  -13.2174   25.7844 C   0  0  0  0  0  0  0  0  0  0  0  0
    7.0673  -14.5440   25.8209 C   0  0  0  0  0  0  0  0  0  0  0  0
    7.3977  -17.3457   23.3070 C   0  0  0  0  0  0  0  0  0  0  0  0
    8.1616  -18.2583   23.7407 O   0  0  0  0  0  0  0  0  0  0  0  0
    7.9444  -16.4054   22.3991 N   0  0  0  0  0  0  0  0  0  0  0  0
    9.3024  -16.6246   21.8352 C   0  0  1  0  0  0  0  0  0  0  0  0
    9.3301  -16.0289   20.4594 C   0  0  0  0  0  0  0  0  0  0  0  0
    8.1802  -15.1230   20.1587 C   0  0  0  0  0  0  0  0  0  0  0  0
    8.3447  -14.4907   18.7693 C   0  0  0  0  0  0  0  0  0  0  0  0
    7.1276  -13.6237   18.5059 C   0  0  0  0  0  0  0  0  0  0  0  0
    7.2187  -13.0211   17.1938 N   0  0  0  0  0  0  0  0  0  0  0  0
   10.2563  -16.0674   22.7961 C   0  0  0  0  0  0  0  0  0  0  0  0
   10.3195  -14.7949   22.9108 O   0  0  0  0  0  0  0  0  0  0  0  0
   11.0851  -16.8884   23.5848 N   0  0  0  0  0  0  0  0  0  0  0  0
   12.3801  -16.3533   24.0270 C   0  0  1  0  0  0  0  0  0  0  0  0
   12.0762  -15.3609   25.1093 C   0  0  0  0  0  0  0  0  0  0  0  0
   11.7175  -15.9051   26.4254 C   0  0  0  0  0  0  0  0  0  0  0  0
   11.9880  -17.2108   26.8699 C   0  0  0  0  0  0  0  0  0  0  0  0
   11.4979  -17.3708   28.0852 N   0  0  0  0  0  0  0  0  0  0  0  0
   10.8942  -16.2465   28.5270 C   0  0  0  0  0  0  0  0  0  0  0  0
   10.2669  -15.9490   29.7192 C   0  0  0  0  0  0  0  0  0  0  0  0
    9.7529  -14.6820   29.8909 C   0  0  0  0  0  0  0  0  0  0  0  0
    9.8899  -13.7656   28.8584 C   0  0  0  0  0  0  0  0  0  0  0  0
   10.5169  -14.0739   27.6734 C   0  0  0  0  0  0  0  0  0  0  0  0
   11.0319  -15.3320   27.4904 C   0  0  0  0  0  0  0  0  0  0  0  0
   13.2104  -17.4760   24.4616 C   0  0  0  0  0  0  0  0  0  0  0  0
   14.4121  -17.2597   24.8073 O   0  0  0  0  0  0  0  0  0  0  0  0
   12.7933  -18.7993   24.5394 O   0  0  0  0  0  0  0  0  0  0  0  0
  2  1  1  1
  2  3  1  0
  3  4  1  0
  4  5  2  0
  5  6  1  0
  7  6  2  0
  8  7  1  0
  9  8  2  0
  9  4  1  0
 10  2  1  0
 11 10  2  0
 12 10  1  0
 13 19  1  0
 13 12  1  0
 13 14  1  6
 15 14  1  0
 16 17  1  0
 16 15  1  0
 18 17  1  0
 19 21  1  0
 20 19  2  0
 21 22  1  0
 22 23  1  1
 22 33  1  0
 24 23  1  0
 25 24  2  0
 26 27  1  0
 26 25  1  0
 27 32  2  0
 28 29  2  0
 28 27  1  0
 29 30  1  0
 30 31  2  0
 32 24  1  0
 32 31  1  0
 33 34  2  0
 33 35  1  0
M  END
$$$$
