FKW.pdb
     RDKit          3D

 35 37  0  0  1  0  0  0  0  0999 V2000
    5.7530  -20.3871   20.7023 N   0  0  0  0  0  0  0  0  0  0  0  0
    6.0707  -19.6671   21.9018 C   0  0  1  0  0  0  0  0  0  0  0  0
    6.7745  -20.5698   22.8727 C   0  0  0  0  0  0  0  0  0  0  0  0
    7.2801  -19.8742   24.0648 C   0  0  0  0  0  0  0  0  0  0  0  0
    8.6184  -19.8552   24.3743 C   0  0  0  0  0  0  0  0  0  0  0  0
    9.0691  -19.1837   25.5124 C   0  0  0  0  0  0  0  0  0  0  0  0
    8.1911  -18.5279   26.3478 C   0  0  0  0  0  0  0  0  0  0  0  0
    6.8549  -18.5473   26.0383 C   0  0  0  0  0  0  0  0  0  0  0  0
    6.4276  -19.2119   24.9158 C   0  0  0  0  0  0  0  0  0  0  0  0
    6.8880  -18.4673   21.5517 C   0  0  0  0  0  0  0  0  0  0  0  0
    8.1172  -18.5723   21.2644 O   0  0  0  0  0  0  0  0  0  0  0  0
    6.3148  -17.1718   21.5295 N   0  0  0  0  0  0  0  0  0  0  0  0
    7.1946  -15.9741   21.4866 C   0  0  1  0  0  0  0  0  0  0  0  0
    6.3596  -14.8061   21.0544 C   0  0  0  0  0  0  0  0  0  0  0  0
    7.1486  -13.6084   20.6346 C   0  0  0  0  0  0  0  0  0  0  0  0
    7.7140  -13.8072   19.2210 C   0  0  0  0  0  0  0  0  0  0  0  0
    8.3673  -12.5058   18.7943 C   0  0  0  0  0  0  0  0  0  0  0  0
    9.0316  -12.6753   17.5204 N   0  0  0  0  0  0  0  0  0  0  0  0
    7.8240  -15.8619   22.8038 C   0  0  0  0  0  0  0  0  0  0  0  0
    7.1206  -15.4024   23.7684 O   0  0  0  0  0  0  0  0  0  0  0  0
    9.1599  -16.2475   23.0266 N   0  0  0  0  0  0  0  0  0  0  0  0
   10.0209  -15.3564   23.8163 C   0  0  1  0  0  0  0  0  0  0  0  0
    9.6700  -15.5997   25.2537 C   0  0  0  0  0  0  0  0  0  0  0  0
    8.3922  -15.0506   25.7257 C   0  0  0  0  0  0  0  0  0  0  0  0
    7.2888  -15.8066   26.1575 C   0  0  0  0  0  0  0  0  0  0  0  0
    6.2990  -14.9943   26.4785 N   0  0  0  0  0  0  0  0  0  0  0  0
    6.6425  -13.7007   26.2980 C   0  0  0  0  0  0  0  0  0  0  0  0
    5.9483  -12.5279   26.5124 C   0  0  0  0  0  0  0  0  0  0  0  0
    6.5828  -11.3334   26.2492 C   0  0  0  0  0  0  0  0  0  0  0  0
    7.8885  -11.3654   25.7814 C   0  0  0  0  0  0  0  0  0  0  0  0
    8.5706  -12.5413   25.5705 C   0  0  0  0  0  0  0  0  0  0  0  0
    7.9492  -13.7368   25.8283 C   0  0  0  0  0  0  0  0  0  0  0  0
   11.4126  -15.6567   23.4818 C   0  0  0  0  0  0  0  0  0  0  0  0
   11.6719  -16.6719   22.7658 O   0  0  0  0  0  0  0  0  0  0  0  0
   12.5132  -14.9087   23.8822 O   0  0  0  0  0  0  0  0  0  0  0  0
  2  1  1  6
  2  3  1  0
  3  4  1  0
  4  5  2  0
  5  6  1  0
  7  6  2  0
  8  7  1  0
  9  8  2  0
  9  4  1  0
 10  2  1  0
 11 10  2  0
 12 10  1  0
 13 19  1  0
 13 12  1  0
 13 14  1  1
 15 14  1  0
 16 17  1  0
 16 15  1  0
 18 17  1  0
 19 21  1  0
 20 19  2  0
 21 22  1  0
 22 23  1  1
 22 33  1  0
 24 23  1  0
 25 24  2  0
 26 27  1  0
 26 25  1  0
 27 32  2  0
 28 29  2  0
 28 27  1  0
 29 30  1  0
 30 31  2  0
 32 24  1  0
 32 31  1  0
 33 34  2  0
 33 35  1  0
M  END
$$$$
