FKW.pdb
     RDKit          3D

 35 37  0  0  1  0  0  0  0  0999 V2000
    7.7687  -20.7202   20.8341 N   0  0  0  0  0  0  0  0  0  0  0  0
    7.1530  -19.6248   21.5262 C   0  0  1  0  0  0  0  0  0  0  0  0
    7.1825  -19.8695   23.0067 C   0  0  0  0  0  0  0  0  0  0  0  0
    8.4987  -20.2884   23.5093 C   0  0  0  0  0  0  0  0  0  0  0  0
    9.2272  -19.4994   24.3660 C   0  0  0  0  0  0  0  0  0  0  0  0
   10.4737  -19.9255   24.8287 C   0  0  0  0  0  0  0  0  0  0  0  0
   11.0014  -21.1381   24.4416 C   0  0  0  0  0  0  0  0  0  0  0  0
   10.2736  -21.9256   23.5861 C   0  0  0  0  0  0  0  0  0  0  0  0
    9.0497  -21.4924   23.1401 C   0  0  0  0  0  0  0  0  0  0  0  0
    7.8445  -18.3560   21.1495 C   0  0  0  0  0  0  0  0  0  0  0  0
    9.0011  -18.3679   20.6332 O   0  0  0  0  0  0  0  0  0  0  0  0
    7.2291  -17.0968   21.3575 N   0  0  0  0  0  0  0  0  0  0  0  0
    7.9217  -15.8544   20.9253 C   0  0  1  0  0  0  0  0  0  0  0  0
    6.8776  -14.8035   20.6933 C   0  0  0  0  0  0  0  0  0  0  0  0
    7.4037  -13.5331   20.1080 C   0  0  0  0  0  0  0  0  0  0  0  0
    7.7455  -13.7275   18.6239 C   0  0  0  0  0  0  0  0  0  0  0  0
    8.3293  -12.4259   18.1067 C   0  0  0  0  0  0  0  0  0  0  0  0
    8.6914  -12.5606   16.7125 N   0  0  0  0  0  0  0  0  0  0  0  0
    8.9244  -15.5495   21.9477 C   0  0  0  0  0  0  0  0  0  0  0  0
    9.7563  -14.6069   21.7110 O   0  0  0  0  0  0  0  0  0  0  0  0
    8.9866  -16.2555   23.1645 N   0  0  0  0  0  0  0  0  0  0  0  0
    9.7577  -15.6725   24.2710 C   0  0  1  0  0  0  0  0  0  0  0  0
    9.0363  -16.0511   25.5299 C   0  0  0  0  0  0  0  0  0  0  0  0
    7.8587  -15.2486   25.8854 C   0  0  0  0  0  0  0  0  0  0  0  0
    6.5993  -15.7609   26.2416 C   0  0  0  0  0  0  0  0  0  0  0  0
    5.7662  -14.7614   26.4647 N   0  0  0  0  0  0  0  0  0  0  0  0
    6.3689  -13.5661   26.2864 C   0  0  0  0  0  0  0  0  0  0  0  0
    5.9035  -12.2742   26.4200 C   0  0  0  0  0  0  0  0  0  0  0  0
    6.7776  -11.2352   26.1849 C   0  0  0  0  0  0  0  0  0  0  0  0
    8.0833  -11.5360   25.8253 C   0  0  0  0  0  0  0  0  0  0  0  0
    8.5360  -12.8285   25.6943 C   0  0  0  0  0  0  0  0  0  0  0  0
    7.6750  -13.8711   25.9251 C   0  0  0  0  0  0  0  0  0  0  0  0
   11.1256  -16.1834   24.1894 C   0  0  0  0  0  0  0  0  0  0  0  0
   12.0826  -15.4583   24.6002 O   0  0  0  0  0  0  0  0  0  0  0  0
   11.4881  -17.4299   23.6934 O   0  0  0  0  0  0  0  0  0  0  0  0
  2  1  1  6
  2  3  1  0
  3  4  1  0
  4  5  2  0
  5  6  1  0
  7  6  2  0
  8  7  1  0
  9  8  2  0
  9  4  1  0
 10  2  1  0
 11 10  2  0
 12 10  1  0
 13 19  1  0
 13 12  1  0
 13 14  1  1
 15 14  1  0
 16 17  1  0
 16 15  1  0
 18 17  1  0
 19 21  1  0
 20 19  2  0
 21 22  1  0
 22 23  1  1
 22 33  1  0
 24 23  1  0
 25 24  2  0
 26 27  1  0
 26 25  1  0
 27 32  2  0
 28 29  2  0
 28 27  1  0
 29 30  1  0
 30 31  2  0
 32 24  1  0
 32 31  1  0
 33 34  2  0
 33 35  1  0
M  END
$$$$
