FKW.pdb
     RDKit          3D

 35 37  0  0  1  0  0  0  0  0999 V2000
    6.3610  -16.2765   20.6185 N   0  0  0  0  0  0  0  0  0  0  0  0
    7.7856  -16.2684   20.7869 C   0  0  1  0  0  0  0  0  0  0  0  0
    8.2492  -14.8969   21.1833 C   0  0  0  0  0  0  0  0  0  0  0  0
    8.0732  -13.8873   20.1297 C   0  0  0  0  0  0  0  0  0  0  0  0
    8.5218  -14.0974   18.8485 C   0  0  0  0  0  0  0  0  0  0  0  0
    8.3377  -13.1204   17.8682 C   0  0  0  0  0  0  0  0  0  0  0  0
    7.7066  -11.9301   18.1575 C   0  0  0  0  0  0  0  0  0  0  0  0
    7.2589  -11.7208   19.4371 C   0  0  0  0  0  0  0  0  0  0  0  0
    7.4476  -12.6912   20.3895 C   0  0  0  0  0  0  0  0  0  0  0  0
    8.1666  -17.3056   21.7914 C   0  0  0  0  0  0  0  0  0  0  0  0
    7.4124  -17.5766   22.7723 O   0  0  0  0  0  0  0  0  0  0  0  0
    9.3847  -18.0206   21.6799 N   0  0  0  0  0  0  0  0  0  0  0  0
    9.8687  -18.8402   22.8220 C   0  0  1  0  0  0  0  0  0  0  0  0
   10.8576  -19.8329   22.2883 C   0  0  0  0  0  0  0  0  0  0  0  0
   10.2859  -20.8018   21.3045 C   0  0  0  0  0  0  0  0  0  0  0  0
   11.3642  -21.7889   20.8352 C   0  0  0  0  0  0  0  0  0  0  0  0
   10.7348  -22.7113   19.8078 C   0  0  0  0  0  0  0  0  0  0  0  0
    9.4839  -23.2372   20.3094 N   0  0  0  0  0  0  0  0  0  0  0  0
   10.3752  -17.9069   23.8300 C   0  0  0  0  0  0  0  0  0  0  0  0
   11.3852  -17.1834   23.5253 O   0  0  0  0  0  0  0  0  0  0  0  0
    9.7809  -17.7884   25.1012 N   0  0  0  0  0  0  0  0  0  0  0  0
   10.4539  -16.9610   26.1118 C   0  0  1  0  0  0  0  0  0  0  0  0
   10.1587  -15.5357   25.7512 C   0  0  0  0  0  0  0  0  0  0  0  0
    8.7552  -15.1099   25.8290 C   0  0  0  0  0  0  0  0  0  0  0  0
    7.6384  -15.9570   25.7260 C   0  0  0  0  0  0  0  0  0  0  0  0
    6.5339  -15.2385   25.8057 N   0  0  0  0  0  0  0  0  0  0  0  0
    6.8083  -13.9253   25.9608 C   0  0  0  0  0  0  0  0  0  0  0  0
    5.9866  -12.8259   26.1012 C   0  0  0  0  0  0  0  0  0  0  0  0
    6.5701  -11.5885   26.2656 C   0  0  0  0  0  0  0  0  0  0  0  0
    7.9549  -11.5055   26.2822 C   0  0  0  0  0  0  0  0  0  0  0  0
    8.7643  -12.6088   26.1404 C   0  0  0  0  0  0  0  0  0  0  0  0
    8.1951  -13.8459   25.9754 C   0  0  0  0  0  0  0  0  0  0  0  0
    9.9574  -17.3595   27.4284 C   0  0  0  0  0  0  0  0  0  0  0  0
   10.4221  -16.7908   28.4633 O   0  0  0  0  0  0  0  0  0  0  0  0
    8.9900  -18.3296   27.6609 O   0  0  0  0  0  0  0  0  0  0  0  0
  2  1  1  1
  2  3  1  0
  3  4  1  0
  4  5  2  0
  5  6  1  0
  7  6  2  0
  8  7  1  0
  9  8  2  0
  9  4  1  0
 10  2  1  0
 11 10  2  0
 12 10  1  0
 13 19  1  0
 13 12  1  0
 13 14  1  6
 15 14  1  0
 16 17  1  0
 16 15  1  0
 18 17  1  0
 19 21  1  0
 20 19  2  0
 21 22  1  0
 22 23  1  6
 22 33  1  0
 24 23  1  0
 25 24  2  0
 26 27  1  0
 26 25  1  0
 27 32  2  0
 28 29  2  0
 28 27  1  0
 29 30  1  0
 30 31  2  0
 32 24  1  0
 32 31  1  0
 33 34  2  0
 33 35  1  0
M  END
$$$$
