FKW.pdb
     RDKit          3D

 35 37  0  0  1  0  0  0  0  0999 V2000
    5.5512  -18.2065   24.3451 N   0  0  0  0  0  0  0  0  0  0  0  0
    6.1411  -16.9220   24.0999 C   0  0  1  0  0  0  0  0  0  0  0  0
    6.1360  -16.1046   25.3587 C   0  0  0  0  0  0  0  0  0  0  0  0
    6.6192  -14.7292   25.1710 C   0  0  0  0  0  0  0  0  0  0  0  0
    6.6454  -13.8272   26.2067 C   0  0  0  0  0  0  0  0  0  0  0  0
    7.1126  -12.5280   25.9982 C   0  0  0  0  0  0  0  0  0  0  0  0
    7.5558  -12.1200   24.7590 C   0  0  0  0  0  0  0  0  0  0  0  0
    7.5294  -13.0212   23.7250 C   0  0  0  0  0  0  0  0  0  0  0  0
    7.0672  -14.2947   23.9462 C   0  0  0  0  0  0  0  0  0  0  0  0
    7.5185  -17.1110   23.5548 C   0  0  0  0  0  0  0  0  0  0  0  0
    8.3442  -17.8909   24.1154 O   0  0  0  0  0  0  0  0  0  0  0  0
    7.9468  -16.4236   22.3923 N   0  0  0  0  0  0  0  0  0  0  0  0
    9.2774  -16.7258   21.8021 C   0  0  1  0  0  0  0  0  0  0  0  0
    9.2940  -16.1827   20.4046 C   0  0  0  0  0  0  0  0  0  0  0  0
    8.5522  -14.8964   20.2362 C   0  0  0  0  0  0  0  0  0  0  0  0
    8.5723  -14.4541   18.7660 C   0  0  0  0  0  0  0  0  0  0  0  0
    7.8000  -13.1522   18.6615 C   0  0  0  0  0  0  0  0  0  0  0  0
    7.8148  -12.6715   17.2970 N   0  0  0  0  0  0  0  0  0  0  0  0
   10.2817  -16.1786   22.7162 C   0  0  0  0  0  0  0  0  0  0  0  0
   10.4007  -14.9068   22.7863 O   0  0  0  0  0  0  0  0  0  0  0  0
   11.0991  -17.0078   23.5082 N   0  0  0  0  0  0  0  0  0  0  0  0
   12.1780  -16.3853   24.2875 C   0  0  1  0  0  0  0  0  0  0  0  0
   12.1948  -17.0849   25.6137 C   0  0  0  0  0  0  0  0  0  0  0  0
   11.0270  -16.8867   26.4820 C   0  0  0  0  0  0  0  0  0  0  0  0
    9.9316  -17.7610   26.5888 C   0  0  0  0  0  0  0  0  0  0  0  0
    9.0499  -17.2586   27.4330 N   0  0  0  0  0  0  0  0  0  0  0  0
    9.4625  -16.0734   27.9319 C   0  0  0  0  0  0  0  0  0  0  0  0
    8.8869  -15.2091   28.8403 C   0  0  0  0  0  0  0  0  0  0  0  0
    9.5704  -14.0607   29.1761 C   0  0  0  0  0  0  0  0  0  0  0  0
   10.8041  -13.8271   28.5860 C   0  0  0  0  0  0  0  0  0  0  0  0
   11.3680  -14.6960   27.6807 C   0  0  0  0  0  0  0  0  0  0  0  0
   10.6968  -15.8422   27.3380 C   0  0  0  0  0  0  0  0  0  0  0  0
   13.4204  -16.5158   23.5271 C   0  0  0  0  0  0  0  0  0  0  0  0
   13.4360  -17.2427   22.4871 O   0  0  0  0  0  0  0  0  0  0  0  0
   14.6230  -15.8951   23.8428 O   0  0  0  0  0  0  0  0  0  0  0  0
  2  1  1  1
  2  3  1  0
  3  4  1  0
  4  5  2  0
  5  6  1  0
  7  6  2  0
  8  7  1  0
  9  8  2  0
  9  4  1  0
 10  2  1  0
 11 10  2  0
 12 10  1  0
 13 19  1  0
 13 12  1  0
 13 14  1  6
 15 14  1  0
 16 17  1  0
 16 15  1  0
 18 17  1  0
 19 21  1  0
 20 19  2  0
 21 22  1  0
 22 23  1  1
 22 33  1  0
 24 23  1  0
 25 24  2  0
 26 27  1  0
 26 25  1  0
 27 32  2  0
 28 29  2  0
 28 27  1  0
 29 30  1  0
 30 31  2  0
 32 24  1  0
 32 31  1  0
 33 34  2  0
 33 35  1  0
M  END
$$$$
