FKW.pdb
     RDKit          3D

 35 37  0  0  1  0  0  0  0  0999 V2000
    5.6367  -17.8591   24.8337 N   0  0  0  0  0  0  0  0  0  0  0  0
    6.4935  -16.7404   24.5645 C   0  0  1  0  0  0  0  0  0  0  0  0
    6.7287  -15.9575   25.8233 C   0  0  0  0  0  0  0  0  0  0  0  0
    6.5435  -14.5086   25.6602 C   0  0  0  0  0  0  0  0  0  0  0  0
    7.3734  -13.7619   24.8597 C   0  0  0  0  0  0  0  0  0  0  0  0
    7.1707  -12.3873   24.7224 C   0  0  0  0  0  0  0  0  0  0  0  0
    6.1420  -11.7490   25.3804 C   0  0  0  0  0  0  0  0  0  0  0  0
    5.3136  -12.4951   26.1797 C   0  0  0  0  0  0  0  0  0  0  0  0
    5.5260  -13.8456   26.3042 C   0  0  0  0  0  0  0  0  0  0  0  0
    7.7668  -17.2325   23.9591 C   0  0  0  0  0  0  0  0  0  0  0  0
    8.3416  -18.2730   24.3966 O   0  0  0  0  0  0  0  0  0  0  0  0
    8.3738  -16.5511   22.8753 N   0  0  0  0  0  0  0  0  0  0  0  0
    9.6935  -17.0043   22.3622 C   0  0  1  0  0  0  0  0  0  0  0  0
    9.7946  -16.5892   20.9249 C   0  0  0  0  0  0  0  0  0  0  0  0
   11.0480  -17.0341   20.2435 C   0  0  0  0  0  0  0  0  0  0  0  0
   11.0379  -16.6060   18.7691 C   0  0  0  0  0  0  0  0  0  0  0  0
   12.2668  -17.1980   18.1045 C   0  0  0  0  0  0  0  0  0  0  0  0
   12.3257  -16.7958   16.7161 N   0  0  0  0  0  0  0  0  0  0  0  0
   10.7101  -16.4568   23.2624 C   0  0  0  0  0  0  0  0  0  0  0  0
   10.6749  -15.2036   23.5169 O   0  0  0  0  0  0  0  0  0  0  0  0
   11.7027  -17.2672   23.8464 N   0  0  0  0  0  0  0  0  0  0  0  0
   12.7962  -16.6132   24.5781 C   0  0  1  0  0  0  0  0  0  0  0  0
   12.8534  -17.2722   25.9238 C   0  0  0  0  0  0  0  0  0  0  0  0
   11.7357  -17.0073   26.8390 C   0  0  0  0  0  0  0  0  0  0  0  0
   10.7945  -17.9562   27.2740 C   0  0  0  0  0  0  0  0  0  0  0  0
    9.9117  -17.3697   28.0609 N   0  0  0  0  0  0  0  0  0  0  0  0
   10.1774  -16.0538   28.2079 C   0  0  0  0  0  0  0  0  0  0  0  0
    9.5468  -15.0654   28.9351 C   0  0  0  0  0  0  0  0  0  0  0  0
   10.0733  -13.7923   28.9045 C   0  0  0  0  0  0  0  0  0  0  0  0
   11.2115  -13.5638   28.1449 C   0  0  0  0  0  0  0  0  0  0  0  0
   11.8314  -14.5573   27.4231 C   0  0  0  0  0  0  0  0  0  0  0  0
   11.3163  -15.8285   27.4451 C   0  0  0  0  0  0  0  0  0  0  0  0
   14.0195  -16.7573   23.7896 C   0  0  0  0  0  0  0  0  0  0  0  0
   15.0882  -16.2092   24.1995 O   0  0  0  0  0  0  0  0  0  0  0  0
   14.1273  -17.4645   22.5983 O   0  0  0  0  0  0  0  0  0  0  0  0
  2  1  1  1
  2  3  1  0
  3  4  1  0
  4  5  2  0
  5  6  1  0
  7  6  2  0
  8  7  1  0
  9  8  2  0
  9  4  1  0
 10  2  1  0
 11 10  2  0
 12 10  1  0
 13 19  1  0
 13 12  1  0
 13 14  1  6
 15 14  1  0
 16 17  1  0
 16 15  1  0
 18 17  1  0
 19 21  1  0
 20 19  2  0
 21 22  1  0
 22 23  1  1
 22 33  1  0
 24 23  1  0
 25 24  2  0
 26 27  1  0
 26 25  1  0
 27 32  2  0
 28 29  2  0
 28 27  1  0
 29 30  1  0
 30 31  2  0
 32 24  1  0
 32 31  1  0
 33 34  2  0
 33 35  1  0
M  END
$$$$
