FKW.pdb
     RDKit          3D

 35 37  0  0  1  0  0  0  0  0999 V2000
    5.9815  -17.9739   24.9637 N   0  0  0  0  0  0  0  0  0  0  0  0
    6.5998  -16.7045   24.7102 C   0  0  1  0  0  0  0  0  0  0  0  0
    6.9420  -16.0305   26.0069 C   0  0  0  0  0  0  0  0  0  0  0  0
    6.8462  -14.5648   25.9533 C   0  0  0  0  0  0  0  0  0  0  0  0
    5.7836  -13.8917   26.5054 C   0  0  0  0  0  0  0  0  0  0  0  0
    5.7217  -12.4983   26.4410 C   0  0  0  0  0  0  0  0  0  0  0  0
    6.7161  -11.7680   25.8273 C   0  0  0  0  0  0  0  0  0  0  0  0
    7.7769  -12.4407   25.2761 C   0  0  0  0  0  0  0  0  0  0  0  0
    7.8231  -13.8108   25.3477 C   0  0  0  0  0  0  0  0  0  0  0  0
    7.8002  -16.9077   23.8454 C   0  0  0  0  0  0  0  0  0  0  0  0
    8.5865  -17.8827   24.0337 O   0  0  0  0  0  0  0  0  0  0  0  0
    8.0987  -16.0160   22.7856 N   0  0  0  0  0  0  0  0  0  0  0  0
    9.3443  -16.1977   21.9945 C   0  0  1  0  0  0  0  0  0  0  0  0
    9.2342  -15.3493   20.7631 C   0  0  0  0  0  0  0  0  0  0  0  0
    8.1504  -15.7679   19.8232 C   0  0  0  0  0  0  0  0  0  0  0  0
    8.3609  -17.2212   19.3749 C   0  0  0  0  0  0  0  0  0  0  0  0
    7.3259  -17.5340   18.3103 C   0  0  0  0  0  0  0  0  0  0  0  0
    7.5529  -18.8554   17.7668 N   0  0  0  0  0  0  0  0  0  0  0  0
   10.4633  -15.8918   22.8878 C   0  0  0  0  0  0  0  0  0  0  0  0
   10.6834  -14.6651   23.1766 O   0  0  0  0  0  0  0  0  0  0  0  0
   11.2823  -16.9014   23.4290 N   0  0  0  0  0  0  0  0  0  0  0  0
   12.4666  -16.5004   24.2008 C   0  0  1  0  0  0  0  0  0  0  0  0
   12.4208  -17.2857   25.4774 C   0  0  0  0  0  0  0  0  0  0  0  0
   11.2606  -17.0641   26.3502 C   0  0  0  0  0  0  0  0  0  0  0  0
   10.3178  -18.0395   26.7178 C   0  0  0  0  0  0  0  0  0  0  0  0
    9.3921  -17.4892   27.4813 N   0  0  0  0  0  0  0  0  0  0  0  0
    9.6290  -16.1739   27.6756 C   0  0  0  0  0  0  0  0  0  0  0  0
    8.9511  -15.2163   28.4014 C   0  0  0  0  0  0  0  0  0  0  0  0
    9.4568  -13.9348   28.4285 C   0  0  0  0  0  0  0  0  0  0  0  0
   10.6226  -13.6672   27.7255 C   0  0  0  0  0  0  0  0  0  0  0  0
   11.2897  -14.6303   27.0044 C   0  0  0  0  0  0  0  0  0  0  0  0
   10.7956  -15.9095   26.9694 C   0  0  0  0  0  0  0  0  0  0  0  0
   13.6505  -16.7590   23.3821 C   0  0  0  0  0  0  0  0  0  0  0  0
   14.7806  -16.3389   23.7780 O   0  0  0  0  0  0  0  0  0  0  0  0
   13.6563  -17.4479   22.1752 O   0  0  0  0  0  0  0  0  0  0  0  0
  2  1  1  1
  2  3  1  0
  3  4  1  0
  4  5  2  0
  5  6  1  0
  7  6  2  0
  8  7  1  0
  9  8  2  0
  9  4  1  0
 10  2  1  0
 11 10  2  0
 12 10  1  0
 13 19  1  0
 13 12  1  0
 13 14  1  6
 15 14  1  0
 16 17  1  0
 16 15  1  0
 18 17  1  0
 19 21  1  0
 20 19  2  0
 21 22  1  0
 22 23  1  1
 22 33  1  0
 24 23  1  0
 25 24  2  0
 26 27  1  0
 26 25  1  0
 27 32  2  0
 28 29  2  0
 28 27  1  0
 29 30  1  0
 30 31  2  0
 32 24  1  0
 32 31  1  0
 33 34  2  0
 33 35  1  0
M  END
$$$$
