ART.pdb
     RDKit          3D

 24 23  0  0  1  0  0  0  0  0999 V2000
   26.7679  -23.8474  -18.5708 C   0  0  0  0  0  0  0  0  0  0  0  0
   27.1430  -24.2299  -17.1618 C   0  0  2  0  0  0  0  0  0  0  0  0
   27.3532  -25.6420  -17.0248 N   0  0  0  0  0  0  0  0  0  0  0  0
   26.1273  -23.7146  -16.1716 C   0  0  0  0  0  0  0  0  0  0  0  0
   25.0781  -24.3504  -16.0861 O   0  0  0  0  0  0  0  0  0  0  0  0
   24.0253  -20.6144   -9.1892 N   0  0  0  0  0  0  0  0  0  0  0  0
   25.4378  -20.4639   -9.0323 C   0  0  0  0  0  0  0  0  0  0  0  0
   25.9213  -20.2123   -7.8565 N   0  0  0  0  0  0  0  0  0  0  0  0
   26.3377  -20.5776  -10.1128 N   0  0  0  0  0  0  0  0  0  0  0  0
   26.1304  -19.8789  -11.3274 C   0  0  0  0  0  0  0  0  0  0  0  0
   25.2560  -20.5847  -12.3423 C   0  0  0  0  0  0  0  0  0  0  0  0
   26.2258  -21.2969  -13.2743 C   0  0  0  0  0  0  0  0  0  0  0  0
   25.5342  -21.9744  -14.4401 C   0  0  2  0  0  0  0  0  0  0  0  0
   26.3870  -22.5702  -15.4014 N   0  0  0  0  0  0  0  0  0  0  0  0
   24.4597  -21.1265  -14.9363 C   0  0  0  0  0  0  0  0  0  0  0  0
   24.7864  -20.0441  -15.4953 O   0  0  0  0  0  0  0  0  0  0  0  0
   26.9179  -20.0408   -7.6783 C   0  0  0  0  0  0  0  0  0  0  0  0
   19.6343  -20.6326  -16.1819 C   0  0  2  0  0  0  0  0  0  0  0  0
   20.7976  -21.4515  -15.7001 O   0  0  0  0  0  0  0  0  0  0  0  0
   21.1424  -22.3333  -16.7291 C   0  0  1  0  0  0  0  0  0  0  0  0
   22.0257  -20.6387  -15.3801 N   0  0  0  0  0  0  0  0  0  0  0  0
   23.1024  -21.4263  -14.8382 C   0  0  0  0  0  0  0  0  0  0  0  0
   21.6405  -19.6192  -14.3859 O   0  0  0  0  0  0  0  0  0  0  0  0
   21.6647  -19.8195  -13.1408 O   0  0  0  0  0  0  0  0  0  0  0  0
  2  3  1  0
  2  1  1  6
  4  2  1  0
  5  4  2  0
  6  7  1  0
  7  9  1  0
  8  7  2  0
 10  9  1  0
 10 11  1  0
 11 12  1  0
 13 12  1  1
 13 14  1  0
 14  4  1  0
 15 13  1  0
 15 21  1  0
 16 15  2  0
 18 17  1  1
 19 18  1  0
 20 18  1  0
 20 21  1  1
 20 22  1  0
 22 24  1  0
 23 22  2  0
M  END
$$$$
