ART.pdb
     RDKit          3D

 24 23  0  0  1  0  0  0  0  0999 V2000
   17.9690  -11.1567  -18.4143 C   0  0  0  0  0  0  0  0  0  0  0  0
   19.0996  -11.0092  -17.4282 C   0  0  2  0  0  0  0  0  0  0  0  0
   19.3426  -12.2220  -16.7022 N   0  0  0  0  0  0  0  0  0  0  0  0
   18.8642   -9.8392  -16.5045 C   0  0  0  0  0  0  0  0  0  0  0  0
   18.7333   -8.7398  -17.0400 O   0  0  0  0  0  0  0  0  0  0  0  0
   14.9041   -6.5678  -10.7789 N   0  0  0  0  0  0  0  0  0  0  0  0
   15.8760   -6.8039   -9.7581 C   0  0  0  0  0  0  0  0  0  0  0  0
   16.0918   -5.8897   -8.8652 N   0  0  0  0  0  0  0  0  0  0  0  0
   16.6188   -8.0008   -9.6798 N   0  0  0  0  0  0  0  0  0  0  0  0
   16.7965   -8.8386  -10.8081 C   0  0  0  0  0  0  0  0  0  0  0  0
   17.7391   -8.3097  -11.8685 C   0  0  0  0  0  0  0  0  0  0  0  0
   17.8036   -9.4047  -12.9237 C   0  0  0  0  0  0  0  0  0  0  0  0
   18.6370   -9.0154  -14.1281 C   0  0  2  0  0  0  0  0  0  0  0  0
   18.8024  -10.0190  -15.1138 N   0  0  0  0  0  0  0  0  0  0  0  0
   19.8309   -8.3051  -13.6927 C   0  0  0  0  0  0  0  0  0  0  0  0
   20.5730   -8.8803  -12.8505 O   0  0  0  0  0  0  0  0  0  0  0  0
   16.7743   -5.9902   -8.1046 C   0  0  0  0  0  0  0  0  0  0  0  0
   21.6385   -5.3466  -16.1530 C   0  0  2  0  0  0  0  0  0  0  0  0
   22.3068   -6.1793  -15.0965 O   0  0  0  0  0  0  0  0  0  0  0  0
   23.4607   -5.4987  -14.6961 C   0  0  1  0  0  0  0  0  0  0  0  0
   21.4656   -6.3926  -13.8645 N   0  0  0  0  0  0  0  0  0  0  0  0
   20.2098   -7.0409  -14.1400 C   0  0  0  0  0  0  0  0  0  0  0  0
   21.1931   -5.0684  -13.2743 O   0  0  0  0  0  0  0  0  0  0  0  0
   20.0372   -4.5709  -13.1883 O   0  0  0  0  0  0  0  0  0  0  0  0
  2  3  1  0
  2  1  1  6
  4  2  1  0
  5  4  2  0
  6  7  1  0
  7  9  1  0
  8  7  2  0
 10  9  1  0
 10 11  1  0
 11 12  1  0
 13 12  1  1
 13 14  1  0
 14  4  1  0
 15 13  1  0
 15 21  1  0
 16 15  2  0
 18 17  1  6
 19 18  1  0
 20 18  1  0
 20 21  1  6
 20 22  1  0
 22 24  1  0
 23 22  2  0
M  END
$$$$
