ART.pdb
     RDKit          3D

 24 23  0  0  1  0  0  0  0  0999 V2000
   29.9129  -23.5680  -16.0941 C   0  0  0  0  0  0  0  0  0  0  0  0
   28.7774  -22.9264  -16.8499 C   0  0  2  0  0  0  0  0  0  0  0  0
   29.2413  -22.1557  -17.9669 N   0  0  0  0  0  0  0  0  0  0  0  0
   27.9051  -22.1101  -15.9277 C   0  0  0  0  0  0  0  0  0  0  0  0
   27.3640  -22.7205  -15.0073 O   0  0  0  0  0  0  0  0  0  0  0  0
   25.4447  -14.7302  -17.5841 N   0  0  0  0  0  0  0  0  0  0  0  0
   25.1585  -14.3703  -16.2310 C   0  0  0  0  0  0  0  0  0  0  0  0
   24.2987  -13.4300  -15.9939 N   0  0  0  0  0  0  0  0  0  0  0  0
   25.7780  -15.0000  -15.1310 N   0  0  0  0  0  0  0  0  0  0  0  0
   26.7103  -16.0518  -15.3070 C   0  0  0  0  0  0  0  0  0  0  0  0
   26.1342  -17.4503  -15.2338 C   0  0  0  0  0  0  0  0  0  0  0  0
   27.3211  -18.3796  -15.4434 C   0  0  0  0  0  0  0  0  0  0  0  0
   26.9459  -19.8452  -15.3549 C   0  0  2  0  0  0  0  0  0  0  0  0
   27.7347  -20.7314  -16.1287 N   0  0  0  0  0  0  0  0  0  0  0  0
   25.4999  -19.9901  -15.4422 C   0  0  0  0  0  0  0  0  0  0  0  0
   24.9452  -19.6323  -16.5169 O   0  0  0  0  0  0  0  0  0  0  0  0
   24.0706  -13.0952  -15.0502 C   0  0  0  0  0  0  0  0  0  0  0  0
   23.4147  -22.9900  -13.1861 C   0  0  2  0  0  0  0  0  0  0  0  0
   23.1024  -22.3728  -14.5194 O   0  0  0  0  0  0  0  0  0  0  0  0
   21.7500  -22.6102  -14.7831 C   0  0  1  0  0  0  0  0  0  0  0  0
   23.3098  -20.8808  -14.5652 N   0  0  0  0  0  0  0  0  0  0  0  0
   24.6901  -20.4951  -14.4268 C   0  0  0  0  0  0  0  0  0  0  0  0
   22.5410  -20.2883  -13.4543 O   0  0  0  0  0  0  0  0  0  0  0  0
   23.0745  -19.6735  -12.4908 O   0  0  0  0  0  0  0  0  0  0  0  0
  2  3  1  0
  2  1  1  1
  4  2  1  0
  5  4  2  0
  6  7  1  0
  7  9  1  0
  8  7  2  0
 10  9  1  0
 10 11  1  0
 11 12  1  0
 13 12  1  6
 13 14  1  0
 14  4  1  0
 15 13  1  0
 15 21  1  0
 16 15  2  0
 18 17  1  6
 19 18  1  0
 20 18  1  0
 20 21  1  6
 20 22  1  0
 22 24  1  0
 23 22  2  0
M  END
$$$$
