ART.pdb
     RDKit          3D

 24 23  0  0  1  0  0  0  0  0999 V2000
   18.9009   -9.4789  -20.1091 C   0  0  0  0  0  0  0  0  0  0  0  0
   20.2555   -8.9419  -19.7230 C   0  0  2  0  0  0  0  0  0  0  0  0
   21.3179   -9.8117  -20.1377 N   0  0  0  0  0  0  0  0  0  0  0  0
   20.3191   -8.6425  -18.2452 C   0  0  0  0  0  0  0  0  0  0  0  0
   19.4386   -7.9086  -17.7995 O   0  0  0  0  0  0  0  0  0  0  0  0
   24.9370  -14.0524  -15.9494 N   0  0  0  0  0  0  0  0  0  0  0  0
   23.6164  -14.5853  -15.8296 C   0  0  0  0  0  0  0  0  0  0  0  0
   23.4100  -15.8346  -16.1059 N   0  0  0  0  0  0  0  0  0  0  0  0
   22.5165  -13.8025  -15.4203 N   0  0  0  0  0  0  0  0  0  0  0  0
   22.6685  -12.4413  -15.0588 C   0  0  0  0  0  0  0  0  0  0  0  0
   21.8527  -11.4579  -15.8712 C   0  0  0  0  0  0  0  0  0  0  0  0
   22.1895  -10.0907  -15.2936 C   0  0  0  0  0  0  0  0  0  0  0  0
   21.5499   -8.9516  -16.0618 C   0  0  2  0  0  0  0  0  0  0  0  0
   21.3363   -9.1825  -17.4429 N   0  0  0  0  0  0  0  0  0  0  0  0
   22.1739   -7.6913  -15.6851 C   0  0  0  0  0  0  0  0  0  0  0  0
   23.3459   -7.4779  -16.0995 O   0  0  0  0  0  0  0  0  0  0  0  0
   22.4859  -16.2802  -16.0595 C   0  0  0  0  0  0  0  0  0  0  0  0
   19.9562   -4.2142  -14.7836 C   0  0  2  0  0  0  0  0  0  0  0  0
   21.4129   -4.2650  -15.1460 O   0  0  0  0  0  0  0  0  0  0  0  0
   22.0095   -3.1052  -14.6421 C   0  0  1  0  0  0  0  0  0  0  0  0
   22.1492   -5.4384  -14.5525 N   0  0  0  0  0  0  0  0  0  0  0  0
   21.5694   -6.7087  -14.9036 C   0  0  0  0  0  0  0  0  0  0  0  0
   22.1130   -5.2929  -13.0850 O   0  0  0  0  0  0  0  0  0  0  0  0
   21.5436   -6.1178  -12.3192 O   0  0  0  0  0  0  0  0  0  0  0  0
  2  3  1  0
  2  1  1  1
  4  2  1  0
  5  4  2  0
  6  7  1  0
  7  9  1  0
  8  7  2  0
 10  9  1  0
 10 11  1  0
 11 12  1  0
 13 12  1  6
 13 14  1  0
 14  4  1  0
 15 13  1  0
 15 21  1  0
 16 15  2  0
 18 17  1  6
 19 18  1  0
 20 18  1  0
 20 21  1  6
 20 22  1  0
 22 24  1  0
 23 22  2  0
M  END
$$$$
