ART.pdb
     RDKit          3D

 24 23  0  0  1  0  0  0  0  0999 V2000
   16.6221  -21.1465  -16.7427 C   0  0  0  0  0  0  0  0  0  0  0  0
   18.0978  -21.4029  -16.5727 C   0  0  2  0  0  0  0  0  0  0  0  0
   18.6262  -22.2246  -17.6228 N   0  0  0  0  0  0  0  0  0  0  0  0
   18.3950  -21.9750  -15.2082 C   0  0  0  0  0  0  0  0  0  0  0  0
   17.8517  -23.0440  -14.9353 O   0  0  0  0  0  0  0  0  0  0  0  0
   25.6425  -21.9703  -11.2023 N   0  0  0  0  0  0  0  0  0  0  0  0
   25.4038  -21.7278  -12.5903 C   0  0  0  0  0  0  0  0  0  0  0  0
   26.0173  -22.4502  -13.4743 N   0  0  0  0  0  0  0  0  0  0  0  0
   24.5210  -20.7257  -13.0448 N   0  0  0  0  0  0  0  0  0  0  0  0
   23.2211  -20.5801  -12.5009 C   0  0  0  0  0  0  0  0  0  0  0  0
   22.1535  -21.4535  -13.1255 C   0  0  0  0  0  0  0  0  0  0  0  0
   20.8568  -21.0454  -12.4412 C   0  0  0  0  0  0  0  0  0  0  0  0
   19.6395  -21.7350  -13.0238 C   0  0  2  0  0  0  0  0  0  0  0  0
   19.2474  -21.3064  -14.3156 N   0  0  0  0  0  0  0  0  0  0  0  0
   18.5990  -21.8377  -12.0108 C   0  0  0  0  0  0  0  0  0  0  0  0
   18.1129  -20.7614  -11.5678 O   0  0  0  0  0  0  0  0  0  0  0  0
   25.9696  -22.2717  -14.4844 C   0  0  0  0  0  0  0  0  0  0  0  0
   15.1214  -22.9755  -12.2092 C   0  0  2  0  0  0  0  0  0  0  0  0
   15.7934  -23.8079  -11.1548 O   0  0  0  0  0  0  0  0  0  0  0  0
   16.2028  -24.9994  -11.7613 C   0  0  2  0  0  0  0  0  0  0  0  0
   17.0207  -23.1662  -10.5606 N   0  0  0  0  0  0  0  0  0  0  0  0
   18.1043  -23.0360  -11.4997 C   0  0  0  0  0  0  0  0  0  0  0  0
   17.4686  -24.0122   -9.4382 O   0  0  0  0  0  0  0  0  0  0  0  0
   18.5633  -24.6387   -9.4345 O   0  0  0  0  0  0  0  0  0  0  0  0
  2  3  1  0
  2  1  1  6
  4  2  1  0
  5  4  2  0
  6  7  1  0
  7  9  1  0
  8  7  2  0
 10  9  1  0
 10 11  1  0
 11 12  1  0
 13 12  1  1
 13 14  1  0
 14  4  1  0
 15 13  1  0
 15 21  1  0
 16 15  2  0
 18 17  1  1
 19 18  1  0
 20 18  1  0
 20 21  1  1
 20 22  1  0
 22 24  1  0
 23 22  2  0
M  END
$$$$
