ART.pdb
     RDKit          3D

 24 23  0  0  1  0  0  0  0  0999 V2000
   24.5074   -9.2148  -21.0862 C   0  0  0  0  0  0  0  0  0  0  0  0
   23.7878   -9.7939  -19.8948 C   0  0  2  0  0  0  0  0  0  0  0  0
   23.2003  -11.0690  -20.1880 N   0  0  0  0  0  0  0  0  0  0  0  0
   22.7727   -8.8199  -19.3485 C   0  0  0  0  0  0  0  0  0  0  0  0
   21.8841   -8.4676  -20.1223 O   0  0  0  0  0  0  0  0  0  0  0  0
   20.3071   -9.5537  -11.4472 N   0  0  0  0  0  0  0  0  0  0  0  0
   21.5605   -9.6121  -12.1312 C   0  0  0  0  0  0  0  0  0  0  0  0
   22.6298   -9.9243  -11.4688 N   0  0  0  0  0  0  0  0  0  0  0  0
   21.6859   -9.3412  -13.5100 N   0  0  0  0  0  0  0  0  0  0  0  0
   20.5513   -9.1171  -14.3280 C   0  0  0  0  0  0  0  0  0  0  0  0
   20.8327   -8.9958  -15.8109 C   0  0  0  0  0  0  0  0  0  0  0  0
   21.6411   -7.7147  -15.9578 C   0  0  0  0  0  0  0  0  0  0  0  0
   22.0103   -7.4114  -17.3959 C   0  0  2  0  0  0  0  0  0  0  0  0
   22.8579   -8.3545  -18.0270 N   0  0  0  0  0  0  0  0  0  0  0  0
   22.3622   -6.0049  -17.5284 C   0  0  0  0  0  0  0  0  0  0  0  0
   23.4652   -5.6348  -17.0412 O   0  0  0  0  0  0  0  0  0  0  0  0
   23.5683   -9.9460  -11.8850 C   0  0  0  0  0  0  0  0  0  0  0  0
   22.4123   -3.9636  -20.8981 C   0  0  2  0  0  0  0  0  0  0  0  0
   21.6258   -3.2493  -19.8363 O   0  0  0  0  0  0  0  0  0  0  0  0
   20.2750   -3.5400  -20.0504 C   0  0  2  0  0  0  0  0  0  0  0  0
   21.9582   -3.6858  -18.4327 N   0  0  0  0  0  0  0  0  0  0  0  0
   21.5701   -5.0441  -18.1538 C   0  0  0  0  0  0  0  0  0  0  0  0
   21.2417   -2.7906  -17.5046 O   0  0  0  0  0  0  0  0  0  0  0  0
   21.4768   -1.5549  -17.4111 O   0  0  0  0  0  0  0  0  0  0  0  0
  2  3  1  0
  2  1  1  6
  4  2  1  0
  5  4  2  0
  6  7  1  0
  7  9  1  0
  8  7  2  0
 10  9  1  0
 10 11  1  0
 11 12  1  0
 13 12  1  1
 13 14  1  0
 14  4  1  0
 15 13  1  0
 15 21  1  0
 16 15  2  0
 18 17  1  6
 19 18  1  0
 20 18  1  0
 20 21  1  1
 20 22  1  0
 22 24  1  0
 23 22  2  0
M  END
$$$$
