ART.pdb
     RDKit          3D

 24 23  0  0  1  0  0  0  0  0999 V2000
   25.7219  -10.4699  -15.1013 C   0  0  0  0  0  0  0  0  0  0  0  0
   24.6122  -10.8688  -16.0403 C   0  0  2  0  0  0  0  0  0  0  0  0
   25.1006  -11.1671  -17.3554 N   0  0  0  0  0  0  0  0  0  0  0  0
   23.5241   -9.8234  -16.0689 C   0  0  0  0  0  0  0  0  0  0  0  0
   23.7122   -8.8611  -16.8113 O   0  0  0  0  0  0  0  0  0  0  0  0
   15.7064  -12.6337  -14.3663 N   0  0  0  0  0  0  0  0  0  0  0  0
   16.4183  -13.0737  -15.5247 C   0  0  0  0  0  0  0  0  0  0  0  0
   15.9203  -14.0244  -16.2511 N   0  0  0  0  0  0  0  0  0  0  0  0
   17.6525  -12.5130  -15.9154 N   0  0  0  0  0  0  0  0  0  0  0  0
   18.2374  -11.4377  -15.2025 C   0  0  0  0  0  0  0  0  0  0  0  0
   19.5391  -10.9127  -15.7708 C   0  0  0  0  0  0  0  0  0  0  0  0
   19.9298   -9.7552  -14.8631 C   0  0  0  0  0  0  0  0  0  0  0  0
   21.2401   -9.1076  -15.2634 C   0  0  2  0  0  0  0  0  0  0  0  0
   22.3697   -9.9620  -15.2826 N   0  0  0  0  0  0  0  0  0  0  0  0
   21.3842   -7.8269  -14.5861 C   0  0  0  0  0  0  0  0  0  0  0  0
   21.7620   -7.8465  -13.3829 O   0  0  0  0  0  0  0  0  0  0  0  0
   16.3558  -14.3637  -17.1170 C   0  0  0  0  0  0  0  0  0  0  0  0
   23.8142   -5.1418  -14.7295 C   0  0  2  0  0  0  0  0  0  0  0  0
   22.4835   -4.5307  -15.0638 O   0  0  0  0  0  0  0  0  0  0  0  0
   22.3719   -4.5093  -16.4574 C   0  0  2  0  0  0  0  0  0  0  0  0
   21.3050   -5.3069  -14.5346 N   0  0  0  0  0  0  0  0  0  0  0  0
   21.1362   -6.5870  -15.1718 C   0  0  0  0  0  0  0  0  0  0  0  0
   20.0942   -4.4985  -14.7723 O   0  0  0  0  0  0  0  0  0  0  0  0
   19.2148   -4.7991  -15.6252 O   0  0  0  0  0  0  0  0  0  0  0  0
  2  3  1  0
  2  1  1  1
  4  2  1  0
  5  4  2  0
  6  7  1  0
  7  9  1  0
  8  7  2  0
 10  9  1  0
 10 11  1  0
 11 12  1  0
 13 12  1  1
 13 14  1  0
 14  4  1  0
 15 13  1  0
 15 21  1  0
 16 15  2  0
 18 17  1  6
 19 18  1  0
 20 18  1  0
 20 21  1  1
 20 22  1  0
 22 24  1  0
 23 22  2  0
M  END
$$$$
