ART.pdb
     RDKit          3D

 24 23  0  0  1  0  0  0  0  0999 V2000
   18.8053  -20.5611  -12.0478 C   0  0  0  0  0  0  0  0  0  0  0  0
   18.4321  -21.8160  -12.7951 C   0  0  2  0  0  0  0  0  0  0  0  0
   17.4034  -21.5789  -13.7659 N   0  0  0  0  0  0  0  0  0  0  0  0
   18.0594  -22.9245  -11.8412 C   0  0  0  0  0  0  0  0  0  0  0  0
   16.9332  -22.8658  -11.3507 O   0  0  0  0  0  0  0  0  0  0  0  0
   21.8184  -30.9012  -11.1215 N   0  0  0  0  0  0  0  0  0  0  0  0
   20.6796  -30.9782  -10.2616 C   0  0  0  0  0  0  0  0  0  0  0  0
   20.3472  -32.1222   -9.7514 N   0  0  0  0  0  0  0  0  0  0  0  0
   19.8930  -29.8517   -9.9412 N   0  0  0  0  0  0  0  0  0  0  0  0
   20.1743  -28.5728  -10.4816 C   0  0  0  0  0  0  0  0  0  0  0  0
   19.1969  -27.4790  -10.1058 C   0  0  0  0  0  0  0  0  0  0  0  0
   19.6284  -26.2657  -10.9170 C   0  0  0  0  0  0  0  0  0  0  0  0
   18.7571  -25.0506  -10.6704 C   0  0  2  0  0  0  0  0  0  0  0  0
   18.9646  -23.9554  -11.5443 N   0  0  0  0  0  0  0  0  0  0  0  0
   18.7024  -24.7645   -9.2439 C   0  0  0  0  0  0  0  0  0  0  0  0
   19.6351  -24.0698   -8.7557 O   0  0  0  0  0  0  0  0  0  0  0  0
   19.5191  -32.2600   -9.1599 C   0  0  0  0  0  0  0  0  0  0  0  0
   15.9250  -24.4922   -5.0938 C   0  0  1  0  0  0  0  0  0  0  0  0
   16.1150  -24.9256   -6.5194 O   0  0  0  0  0  0  0  0  0  0  0  0
   15.3326  -24.0867   -7.3188 C   0  0  1  0  0  0  0  0  0  0  0  0
   17.5356  -24.8090   -7.0088 N   0  0  0  0  0  0  0  0  0  0  0  0
   17.6959  -25.2014   -8.3848 C   0  0  0  0  0  0  0  0  0  0  0  0
   18.3716  -25.6864   -6.1678 O   0  0  0  0  0  0  0  0  0  0  0  0
   18.9406  -25.2989   -5.1108 O   0  0  0  0  0  0  0  0  0  0  0  0
  2  3  1  0
  2  1  1  1
  4  2  1  0
  5  4  2  0
  6  7  1  0
  7  9  1  0
  8  7  2  0
 10  9  1  0
 10 11  1  0
 11 12  1  0
 13 12  1  1
 13 14  1  0
 14  4  1  0
 15 13  1  0
 15 21  1  0
 16 15  2  0
 18 17  1  1
 19 18  1  0
 20 18  1  0
 20 21  1  6
 20 22  1  0
 22 24  1  0
 23 22  2  0
M  END
$$$$
