ART.pdb
     RDKit          3D

 24 23  0  0  1  0  0  0  0  0999 V2000
   10.8847  -10.4388  -11.0545 C   0  0  0  0  0  0  0  0  0  0  0  0
   12.2290  -11.1202  -11.0260 C   0  0  2  0  0  0  0  0  0  0  0  0
   12.1605  -12.4219  -10.4279 N   0  0  0  0  0  0  0  0  0  0  0  0
   13.2645  -10.2488  -10.3581 C   0  0  0  0  0  0  0  0  0  0  0  0
   13.1542  -10.1064   -9.1416 O   0  0  0  0  0  0  0  0  0  0  0  0
   18.8161   -9.6169  -16.0929 N   0  0  0  0  0  0  0  0  0  0  0  0
   18.3755  -10.7461  -15.3358 C   0  0  0  0  0  0  0  0  0  0  0  0
   17.8362  -11.7506  -15.9521 N   0  0  0  0  0  0  0  0  0  0  0  0
   18.5026  -10.8153  -13.9325 N   0  0  0  0  0  0  0  0  0  0  0  0
   18.0744   -9.7555  -13.0958 C   0  0  0  0  0  0  0  0  0  0  0  0
   16.7843  -10.0026  -12.3426 C   0  0  0  0  0  0  0  0  0  0  0  0
   16.5753   -8.7563  -11.4945 C   0  0  0  0  0  0  0  0  0  0  0  0
   15.3469   -8.8427  -10.6111 C   0  0  2  0  0  0  0  0  0  0  0  0
   14.2880   -9.6437  -11.1042 N   0  0  0  0  0  0  0  0  0  0  0  0
   15.0047   -7.5186  -10.1117 C   0  0  0  0  0  0  0  0  0  0  0  0
   14.4927   -6.7053  -10.9285 O   0  0  0  0  0  0  0  0  0  0  0  0
   17.5432  -12.6142  -15.4801 C   0  0  0  0  0  0  0  0  0  0  0  0
   14.1776   -4.4041   -6.3105 C   0  0  2  0  0  0  0  0  0  0  0  0
   14.3827   -5.7754   -6.8881 O   0  0  0  0  0  0  0  0  0  0  0  0
   13.1344   -6.4043   -6.9246 C   0  0  1  0  0  0  0  0  0  0  0  0
   14.9203   -5.7707   -8.2960 N   0  0  0  0  0  0  0  0  0  0  0  0
   15.2014   -7.0896   -8.8005 C   0  0  0  0  0  0  0  0  0  0  0  0
   16.1718   -4.9899   -8.2940 O   0  0  0  0  0  0  0  0  0  0  0  0
   16.2058   -3.7320   -8.3820 O   0  0  0  0  0  0  0  0  0  0  0  0
  2  3  1  0
  2  1  1  1
  4  2  1  0
  5  4  2  0
  6  7  1  0
  7  9  1  0
  8  7  2  0
 10  9  1  0
 10 11  1  0
 11 12  1  0
 13 12  1  6
 13 14  1  0
 14  4  1  0
 15 13  1  0
 15 21  1  0
 16 15  2  0
 18 17  1  1
 19 18  1  0
 20 18  1  0
 20 21  1  1
 20 22  1  0
 22 24  1  0
 23 22  2  0
M  END
$$$$
