ART.pdb
     RDKit          3D

 24 23  0  0  1  0  0  0  0  0999 V2000
   24.5199  -14.7943  -18.5170 C   0  0  0  0  0  0  0  0  0  0  0  0
   25.2477  -16.1143  -18.5345 C   0  0  2  0  0  0  0  0  0  0  0  0
   25.5158  -16.5638  -19.8698 N   0  0  0  0  0  0  0  0  0  0  0  0
   24.5052  -17.1535  -17.7305 C   0  0  0  0  0  0  0  0  0  0  0  0
   23.3620  -17.4149  -18.1010 O   0  0  0  0  0  0  0  0  0  0  0  0
   28.8062  -20.7014  -16.9574 N   0  0  0  0  0  0  0  0  0  0  0  0
   28.8582  -21.9262  -16.2230 C   0  0  0  0  0  0  0  0  0  0  0  0
   29.5982  -22.8961  -16.6604 N   0  0  0  0  0  0  0  0  0  0  0  0
   28.1312  -22.1277  -15.0309 N   0  0  0  0  0  0  0  0  0  0  0  0
   27.2022  -21.1688  -14.5576 C   0  0  0  0  0  0  0  0  0  0  0  0
   26.3492  -20.5100  -15.6212 C   0  0  0  0  0  0  0  0  0  0  0  0
   25.4989  -19.4928  -14.8738 C   0  0  0  0  0  0  0  0  0  0  0  0
   24.5322  -18.7540  -15.7772 C   0  0  2  0  0  0  0  0  0  0  0  0
   25.1058  -17.7742  -16.6241 N   0  0  0  0  0  0  0  0  0  0  0  0
   23.3466  -18.3723  -15.0234 C   0  0  0  0  0  0  0  0  0  0  0  0
   23.5188  -17.6809  -13.9827 O   0  0  0  0  0  0  0  0  0  0  0  0
   29.7196  -23.7857  -16.1619 C   0  0  0  0  0  0  0  0  0  0  0  0
   19.5522  -17.8092  -16.7866 C   0  0  2  0  0  0  0  0  0  0  0  0
   20.0309  -17.2983  -15.4578 O   0  0  0  0  0  0  0  0  0  0  0  0
   18.8993  -17.0043  -14.6910 C   0  0  1  0  0  0  0  0  0  0  0  0
   20.8496  -18.2956  -14.6791 N   0  0  0  0  0  0  0  0  0  0  0  0
   22.0411  -18.7149  -15.3703 C   0  0  0  0  0  0  0  0  0  0  0  0
   20.0025  -19.4792  -14.4392 O   0  0  0  0  0  0  0  0  0  0  0  0
   18.9393  -19.4465  -13.7612 O   0  0  0  0  0  0  0  0  0  0  0  0
  2  3  1  0
  2  1  1  6
  4  2  1  0
  5  4  2  0
  6  7  1  0
  7  9  1  0
  8  7  2  0
 10  9  1  0
 10 11  1  0
 11 12  1  0
 13 12  1  1
 13 14  1  0
 14  4  1  0
 15 13  1  0
 15 21  1  0
 16 15  2  0
 18 17  1  6
 19 18  1  0
 20 18  1  0
 20 21  1  6
 20 22  1  0
 22 24  1  0
 23 22  2  0
M  END
$$$$
