ART.pdb
     RDKit          3D

 24 23  0  0  1  0  0  0  0  0999 V2000
   27.3555  -18.9693  -17.4914 C   0  0  0  0  0  0  0  0  0  0  0  0
   27.7869  -20.2199  -16.7688 C   0  0  2  0  0  0  0  0  0  0  0  0
   28.2211  -21.2430  -17.6753 N   0  0  0  0  0  0  0  0  0  0  0  0
   26.7016  -20.7131  -15.8433 C   0  0  0  0  0  0  0  0  0  0  0  0
   25.7742  -21.3263  -16.3689 O   0  0  0  0  0  0  0  0  0  0  0  0
   22.7656  -20.2254   -9.6534 N   0  0  0  0  0  0  0  0  0  0  0  0
   23.4474  -20.9327   -8.6155 C   0  0  0  0  0  0  0  0  0  0  0  0
   22.7664  -21.4113   -7.6221 N   0  0  0  0  0  0  0  0  0  0  0  0
   24.8437  -21.1339   -8.6249 N   0  0  0  0  0  0  0  0  0  0  0  0
   25.6477  -20.7039   -9.7090 C   0  0  0  0  0  0  0  0  0  0  0  0
   25.0487  -20.9099  -11.0844 C   0  0  0  0  0  0  0  0  0  0  0  0
   26.1370  -20.4830  -12.0590 C   0  0  0  0  0  0  0  0  0  0  0  0
   25.7394  -20.6748  -13.5087 C   0  0  2  0  0  0  0  0  0  0  0  0
   26.7675  -20.4732  -14.4619 N   0  0  0  0  0  0  0  0  0  0  0  0
   24.4609  -20.0250  -13.7593 C   0  0  0  0  0  0  0  0  0  0  0  0
   24.4436  -18.7639  -13.7698 O   0  0  0  0  0  0  0  0  0  0  0  0
   23.1922  -21.9041   -6.8282 C   0  0  0  0  0  0  0  0  0  0  0  0
   20.1105  -19.9678  -15.9883 C   0  0  2  0  0  0  0  0  0  0  0  0
   21.4773  -20.5048  -15.6727 O   0  0  0  0  0  0  0  0  0  0  0  0
   22.3562  -20.0033  -16.6375 C   0  0  1  0  0  0  0  0  0  0  0  0
   22.0043  -20.0798  -14.3263 N   0  0  0  0  0  0  0  0  0  0  0  0
   23.2611  -20.6958  -13.9884 C   0  0  0  0  0  0  0  0  0  0  0  0
   21.0034  -20.4638  -13.3129 O   0  0  0  0  0  0  0  0  0  0  0  0
   20.0299  -19.7314  -12.9860 O   0  0  0  0  0  0  0  0  0  0  0  0
  2  3  1  0
  2  1  1  6
  4  2  1  0
  5  4  2  0
  6  7  1  0
  7  9  1  0
  8  7  2  0
 10  9  1  0
 10 11  1  0
 11 12  1  0
 13 12  1  1
 13 14  1  0
 14  4  1  0
 15 13  1  0
 15 21  1  0
 16 15  2  0
 18 17  1  6
 19 18  1  0
 20 18  1  0
 20 21  1  6
 20 22  1  0
 22 24  1  0
 23 22  2  0
M  END
$$$$
