ART.pdb
     RDKit          3D

 24 23  0  0  1  0  0  0  0  0999 V2000
   22.7603  -20.7883  -17.5946 C   0  0  0  0  0  0  0  0  0  0  0  0
   22.3400  -22.0106  -16.8188 C   0  0  2  0  0  0  0  0  0  0  0  0
   22.8133  -23.2217  -17.4240 N   0  0  0  0  0  0  0  0  0  0  0  0
   20.8454  -22.0333  -16.6109 C   0  0  0  0  0  0  0  0  0  0  0  0
   20.1615  -22.2935  -17.5994 O   0  0  0  0  0  0  0  0  0  0  0  0
   18.1822  -25.1866   -9.3108 N   0  0  0  0  0  0  0  0  0  0  0  0
   18.9022  -25.9419  -10.2873 C   0  0  0  0  0  0  0  0  0  0  0  0
   19.1845  -27.1836  -10.0458 N   0  0  0  0  0  0  0  0  0  0  0  0
   19.3240  -25.3890  -11.5147 N   0  0  0  0  0  0  0  0  0  0  0  0
   18.8478  -24.1332  -11.9650 C   0  0  0  0  0  0  0  0  0  0  0  0
   19.2663  -23.7440  -13.3672 C   0  0  0  0  0  0  0  0  0  0  0  0
   18.6266  -22.3844  -13.6091 C   0  0  0  0  0  0  0  0  0  0  0  0
   18.9202  -21.8311  -14.9891 C   0  0  2  0  0  0  0  0  0  0  0  0
   20.2884  -21.7684  -15.3500 N   0  0  0  0  0  0  0  0  0  0  0  0
   18.1129  -20.6429  -15.2259 C   0  0  0  0  0  0  0  0  0  0  0  0
   18.5475  -19.5476  -14.7762 O   0  0  0  0  0  0  0  0  0  0  0  0
   19.7280  -27.7759  -10.6847 C   0  0  0  0  0  0  0  0  0  0  0  0
   14.3719  -18.3994  -17.6715 C   0  0  2  0  0  0  0  0  0  0  0  0
   15.1893  -19.6215  -17.3644 O   0  0  0  0  0  0  0  0  0  0  0  0
   16.0129  -19.8615  -18.4685 C   0  0  1  0  0  0  0  0  0  0  0  0
   16.0874  -19.4695  -16.1637 N   0  0  0  0  0  0  0  0  0  0  0  0
   16.9002  -20.6311  -15.9121 C   0  0  0  0  0  0  0  0  0  0  0  0
   15.2270  -19.2325  -14.9891 O   0  0  0  0  0  0  0  0  0  0  0  0
   14.5861  -20.1466  -14.4020 O   0  0  0  0  0  0  0  0  0  0  0  0
  2  3  1  0
  2  1  1  6
  4  2  1  0
  5  4  2  0
  6  7  1  0
  7  9  1  0
  8  7  2  0
 10  9  1  0
 10 11  1  0
 11 12  1  0
 13 12  1  1
 13 14  1  0
 14  4  1  0
 15 13  1  0
 15 21  1  0
 16 15  2  0
 18 17  1  6
 19 18  1  0
 20 18  1  0
 20 21  1  1
 20 22  1  0
 22 24  1  0
 23 22  2  0
M  END
$$$$
