HKA.pdb
     RDKit          3D

 25 25  0  0  1  0  0  0  0  0999 V2000
   17.8428   -9.2452  -13.5300 N   0  0  0  0  0  0  0  0  0  0  0  0
   18.3597   -8.4715  -12.4412 C   0  0  1  0  0  0  0  0  0  0  0  0
   19.5374   -7.6127  -12.8430 C   0  0  0  0  0  0  0  0  0  0  0  0
   20.6917   -8.4119  -13.2865 C   0  0  0  0  0  0  0  0  0  0  0  0
   20.8214   -9.7727  -13.3320 C   0  0  0  0  0  0  0  0  0  0  0  0
   22.0529  -10.0204  -13.8072 N   0  0  0  0  0  0  0  0  0  0  0  0
   22.6836   -8.8603  -14.0550 C   0  0  0  0  0  0  0  0  0  0  0  0
   21.8387   -7.8793  -13.7317 N   0  0  0  0  0  0  0  0  0  0  0  0
   17.2961   -7.5568  -11.9668 C   0  0  0  0  0  0  0  0  0  0  0  0
   16.4814   -7.0975  -12.7849 O   0  0  0  0  0  0  0  0  0  0  0  0
   17.1770   -7.1903  -10.6213 N   0  0  0  0  0  0  0  0  0  0  0  0
   16.2105   -6.3965   -9.9674 C   0  0  1  0  0  0  0  0  0  0  0  0
   15.7173   -6.7942   -8.6287 C   0  0  0  0  0  0  0  0  0  0  0  0
   14.7484   -5.8800   -7.9570 C   0  0  0  0  0  0  0  0  0  0  0  0
   13.5108   -6.6248   -7.4238 C   0  0  0  0  0  0  0  0  0  0  0  0
   12.5466   -5.5717   -6.9097 C   0  0  0  0  0  0  0  0  0  0  0  0
   11.3939   -6.2549   -6.3795 N   0  0  0  0  0  0  0  0  0  0  0  0
   16.5019   -4.9552  -10.0585 C   0  0  0  0  0  0  0  0  0  0  0  0
   17.5391   -4.5082   -9.4438 O   0  0  0  0  0  0  0  0  0  0  0  0
   15.4985   -2.0304  -12.0456 C   0  0  0  0  0  0  0  0  0  0  0  0
   16.1649   -2.6278  -10.7992 C   0  0  2  0  0  0  0  0  0  0  0  0
   15.7293   -4.0279  -10.7704 N   0  0  0  0  0  0  0  0  0  0  0  0
   15.5655   -1.9388   -9.6365 C   0  0  0  0  0  0  0  0  0  0  0  0
   15.9890   -0.6929   -9.1953 O   0  0  0  0  0  0  0  0  0  0  0  0
   14.6346   -2.4870   -9.0102 O   0  0  0  0  0  0  0  0  0  0  0  0
  2  1  1  6
  2  9  1  0
  3  2  1  0
  4  3  1  0
  5  4  2  0
  6  5  1  0
  7  6  1  0
  7  8  2  0
  8  4  1  0
  9 11  1  0
  9 10  2  0
 11 12  1  0
 12 18  1  0
 12 13  1  1
 13 14  1  0
 14 15  1  0
 16 17  1  0
 16 15  1  0
 18 19  2  0
 21 20  1  6
 21 23  1  0
 22 21  1  0
 22 18  1  0
 23 24  1  0
 25 23  2  0
M  END
$$$$
