HKA.pdb
     RDKit          3D

 25 25  0  0  1  0  0  0  0  0999 V2000
   24.2349  -20.9571  -16.6127 N   0  0  0  0  0  0  0  0  0  0  0  0
   23.8185  -20.2609  -15.4324 C   0  0  1  0  0  0  0  0  0  0  0  0
   23.8153  -18.7596  -15.6109 C   0  0  0  0  0  0  0  0  0  0  0  0
   25.1596  -18.2215  -15.8777 C   0  0  0  0  0  0  0  0  0  0  0  0
   26.3472  -18.5600  -15.2897 C   0  0  0  0  0  0  0  0  0  0  0  0
   27.2880  -17.7960  -15.8685 N   0  0  0  0  0  0  0  0  0  0  0  0
   26.7204  -17.0008  -16.7906 C   0  0  0  0  0  0  0  0  0  0  0  0
   25.4134  -17.2703  -16.7878 N   0  0  0  0  0  0  0  0  0  0  0  0
   22.4297  -20.6639  -15.1133 C   0  0  0  0  0  0  0  0  0  0  0  0
   21.6395  -20.9054  -16.0413 O   0  0  0  0  0  0  0  0  0  0  0  0
   21.9748  -20.7825  -13.7950 N   0  0  0  0  0  0  0  0  0  0  0  0
   20.7790  -21.3284  -13.2813 C   0  0  1  0  0  0  0  0  0  0  0  0
   20.7781  -21.9678  -11.9454 C   0  0  0  0  0  0  0  0  0  0  0  0
   19.5355  -22.6808  -11.5289 C   0  0  0  0  0  0  0  0  0  0  0  0
   19.7241  -23.4767  -10.2245 C   0  0  0  0  0  0  0  0  0  0  0  0
   18.3974  -24.1468   -9.9179 C   0  0  0  0  0  0  0  0  0  0  0  0
   18.5966  -25.0144   -8.7846 N   0  0  0  0  0  0  0  0  0  0  0  0
   19.6165  -20.4473  -13.4884 C   0  0  0  0  0  0  0  0  0  0  0  0
   19.5879  -19.3264  -12.8590 O   0  0  0  0  0  0  0  0  0  0  0  0
   17.3010  -19.5722  -15.9965 C   0  0  0  0  0  0  0  0  0  0  0  0
   17.4746  -19.7357  -14.4808 C   0  0  2  0  0  0  0  0  0  0  0  0
   18.5321  -20.7400  -14.3261 N   0  0  0  0  0  0  0  0  0  0  0  0
   16.2127  -20.3197  -13.9783 C   0  0  0  0  0  0  0  0  0  0  0  0
   15.0404  -19.5884  -13.8482 O   0  0  0  0  0  0  0  0  0  0  0  0
   16.1807  -21.5245  -13.6512 O   0  0  0  0  0  0  0  0  0  0  0  0
  2  1  1  6
  2  9  1  0
  3  2  1  0
  4  3  1  0
  5  4  2  0
  6  5  1  0
  7  6  1  0
  7  8  2  0
  8  4  1  0
  9 11  1  0
  9 10  2  0
 11 12  1  0
 12 18  1  0
 12 13  1  1
 13 14  1  0
 14 15  1  0
 16 17  1  0
 16 15  1  0
 18 19  2  0
 21 20  1  6
 21 23  1  0
 22 21  1  0
 22 18  1  0
 23 24  1  0
 25 23  2  0
M  END
$$$$
