HKA.pdb
     RDKit          3D

 25 25  0  0  1  0  0  0  0  0999 V2000
   24.0666  -12.4065  -17.9777 N   0  0  0  0  0  0  0  0  0  0  0  0
   24.1821  -11.6247  -16.7833 C   0  0  1  0  0  0  0  0  0  0  0  0
   25.5894  -11.1256  -16.5462 C   0  0  0  0  0  0  0  0  0  0  0  0
   26.5578  -12.2239  -16.3922 C   0  0  0  0  0  0  0  0  0  0  0  0
   26.6317  -13.1650  -15.4025 C   0  0  0  0  0  0  0  0  0  0  0  0
   27.6816  -13.9475  -15.7012 N   0  0  0  0  0  0  0  0  0  0  0  0
   28.2547  -13.5204  -16.8387 C   0  0  0  0  0  0  0  0  0  0  0  0
   27.5567  -12.4617  -17.2544 N   0  0  0  0  0  0  0  0  0  0  0  0
   23.3140  -10.4322  -16.9152 C   0  0  0  0  0  0  0  0  0  0  0  0
   23.1436   -9.9270  -18.0376 O   0  0  0  0  0  0  0  0  0  0  0  0
   22.6760   -9.8520  -15.8129 N   0  0  0  0  0  0  0  0  0  0  0  0
   21.6886   -8.8457  -15.7476 C   0  0  1  0  0  0  0  0  0  0  0  0
   20.3285   -9.1816  -15.2671 C   0  0  0  0  0  0  0  0  0  0  0  0
   19.5410  -10.1606  -16.0716 C   0  0  0  0  0  0  0  0  0  0  0  0
   18.1862  -10.4989  -15.4230 C   0  0  0  0  0  0  0  0  0  0  0  0
   17.5347  -11.5637  -16.2860 C   0  0  0  0  0  0  0  0  0  0  0  0
   18.1484  -12.8265  -15.9614 N   0  0  0  0  0  0  0  0  0  0  0  0
   22.1966   -7.5866  -15.1755 C   0  0  0  0  0  0  0  0  0  0  0  0
   22.7703   -7.6332  -14.0257 O   0  0  0  0  0  0  0  0  0  0  0  0
   22.6199   -4.0382  -16.1624 C   0  0  0  0  0  0  0  0  0  0  0  0
   22.7355   -5.1809  -15.1448 C   0  0  2  0  0  0  0  0  0  0  0  0
   22.1020   -6.3330  -15.7945 N   0  0  0  0  0  0  0  0  0  0  0  0
   21.9012   -4.7931  -13.9875 C   0  0  0  0  0  0  0  0  0  0  0  0
   22.3716   -4.0042  -12.9470 O   0  0  0  0  0  0  0  0  0  0  0  0
   20.7166   -5.1835  -13.9257 O   0  0  0  0  0  0  0  0  0  0  0  0
  2  1  1  6
  2  9  1  0
  3  2  1  0
  4  3  1  0
  5  4  2  0
  6  5  1  0
  7  6  1  0
  7  8  2  0
  8  4  1  0
  9 11  1  0
  9 10  2  0
 11 12  1  0
 12 18  1  0
 12 13  1  1
 13 14  1  0
 14 15  1  0
 16 17  1  0
 16 15  1  0
 18 19  2  0
 21 20  1  6
 21 23  1  0
 22 21  1  0
 22 18  1  0
 23 24  1  0
 25 23  2  0
M  END
$$$$
