HKA.pdb
     RDKit          3D

 25 25  0  0  1  0  0  0  0  0999 V2000
   26.1634  -15.0070  -17.8405 N   0  0  0  0  0  0  0  0  0  0  0  0
   26.7897  -14.6182  -19.0684 C   0  0  1  0  0  0  0  0  0  0  0  0
   25.9727  -14.9925  -20.2843 C   0  0  0  0  0  0  0  0  0  0  0  0
   25.7789  -16.4469  -20.4064 C   0  0  0  0  0  0  0  0  0  0  0  0
   26.4452  -17.4542  -19.7646 C   0  0  0  0  0  0  0  0  0  0  0  0
   25.9108  -18.6042  -20.2070 N   0  0  0  0  0  0  0  0  0  0  0  0
   24.9404  -18.3388  -21.0973 C   0  0  0  0  0  0  0  0  0  0  0  0
   24.8679  -17.0112  -21.2122 N   0  0  0  0  0  0  0  0  0  0  0  0
   26.9333  -13.1443  -19.0778 C   0  0  0  0  0  0  0  0  0  0  0  0
   26.0467  -12.4449  -18.5594 O   0  0  0  0  0  0  0  0  0  0  0  0
   28.0397  -12.5093  -19.6537 N   0  0  0  0  0  0  0  0  0  0  0  0
   28.3949  -11.1442  -19.6988 C   0  0  1  0  0  0  0  0  0  0  0  0
   29.8242  -10.7564  -19.6822 C   0  0  0  0  0  0  0  0  0  0  0  0
   30.5869  -11.0084  -18.4251 C   0  0  0  0  0  0  0  0  0  0  0  0
   32.0746  -10.6335  -18.5554 C   0  0  0  0  0  0  0  0  0  0  0  0
   32.7193  -10.9012  -17.2079 C   0  0  0  0  0  0  0  0  0  0  0  0
   34.1379  -10.6927  -17.3520 N   0  0  0  0  0  0  0  0  0  0  0  0
   27.6137  -10.3856  -20.6913 C   0  0  0  0  0  0  0  0  0  0  0  0
   27.5466  -10.8481  -21.8892 O   0  0  0  0  0  0  0  0  0  0  0  0
   24.7897   -9.2401  -21.4637 C   0  0  0  0  0  0  0  0  0  0  0  0
   26.1668   -8.5648  -21.5098 C   0  0  2  0  0  0  0  0  0  0  0  0
   26.9324   -9.1902  -20.4264 N   0  0  0  0  0  0  0  0  0  0  0  0
   25.9465   -7.1467  -21.1541 C   0  0  0  0  0  0  0  0  0  0  0  0
   26.3395   -6.6021  -19.9396 O   0  0  0  0  0  0  0  0  0  0  0  0
   25.3828   -6.3888  -21.9710 O   0  0  0  0  0  0  0  0  0  0  0  0
  2  1  1  1
  2  9  1  0
  3  2  1  0
  4  3  1  0
  5  4  2  0
  6  5  1  0
  7  6  1  0
  7  8  2  0
  8  4  1  0
  9 11  1  0
  9 10  2  0
 11 12  1  0
 12 18  1  0
 12 13  1  6
 13 14  1  0
 14 15  1  0
 16 17  1  0
 16 15  1  0
 18 19  2  0
 21 20  1  1
 21 23  1  0
 22 21  1  0
 22 18  1  0
 23 24  1  0
 25 23  2  0
M  END
$$$$
