HKA.pdb
     RDKit          3D

 25 25  0  0  1  0  0  0  0  0999 V2000
   20.1218  -13.1197  -16.7059 N   0  0  0  0  0  0  0  0  0  0  0  0
   19.4811  -11.8948  -16.3313 C   0  0  1  0  0  0  0  0  0  0  0  0
   18.6456  -12.0325  -15.0787 C   0  0  0  0  0  0  0  0  0  0  0  0
   17.5274  -12.9751  -15.2487 C   0  0  0  0  0  0  0  0  0  0  0  0
   16.5331  -12.9605  -16.1877 C   0  0  0  0  0  0  0  0  0  0  0  0
   15.7537  -14.0237  -15.9311 N   0  0  0  0  0  0  0  0  0  0  0  0
   16.2340  -14.6903  -14.8682 C   0  0  0  0  0  0  0  0  0  0  0  0
   17.3232  -14.0378  -14.4571 N   0  0  0  0  0  0  0  0  0  0  0  0
   20.5259  -10.8842  -16.0483 C   0  0  0  0  0  0  0  0  0  0  0  0
   21.5254  -11.2134  -15.3875 O   0  0  0  0  0  0  0  0  0  0  0  0
   20.4251   -9.5641  -16.5024 N   0  0  0  0  0  0  0  0  0  0  0  0
   21.3770   -8.5222  -16.5166 C   0  0  1  0  0  0  0  0  0  0  0  0
   22.0373   -8.1481  -17.7884 C   0  0  0  0  0  0  0  0  0  0  0  0
   22.6533   -9.2464  -18.5884 C   0  0  0  0  0  0  0  0  0  0  0  0
   23.1722   -8.7589  -19.9536 C   0  0  0  0  0  0  0  0  0  0  0  0
   23.6898   -9.9790  -20.6929 C   0  0  0  0  0  0  0  0  0  0  0  0
   24.1260   -9.5484  -21.9971 N   0  0  0  0  0  0  0  0  0  0  0  0
   20.9484   -7.3494  -15.7345 C   0  0  0  0  0  0  0  0  0  0  0  0
   19.7318   -6.9520  -15.8587 O   0  0  0  0  0  0  0  0  0  0  0  0
   22.1612   -5.2005  -12.9943 C   0  0  0  0  0  0  0  0  0  0  0  0
   21.2124   -5.4609  -14.1717 C   0  0  2  0  0  0  0  0  0  0  0  0
   21.7718   -6.6297  -14.8585 N   0  0  0  0  0  0  0  0  0  0  0  0
   21.3399   -4.2965  -15.0738 C   0  0  0  0  0  0  0  0  0  0  0  0
   20.6769   -3.0966  -14.8578 O   0  0  0  0  0  0  0  0  0  0  0  0
   22.0732   -4.3773  -16.0815 O   0  0  0  0  0  0  0  0  0  0  0  0
  2  1  1  1
  2  9  1  0
  3  2  1  0
  4  3  1  0
  5  4  2  0
  6  5  1  0
  7  6  1  0
  7  8  2  0
  8  4  1  0
  9 11  1  0
  9 10  2  0
 11 12  1  0
 12 18  1  0
 12 13  1  6
 13 14  1  0
 14 15  1  0
 16 17  1  0
 16 15  1  0
 18 19  2  0
 21 20  1  1
 21 23  1  0
 22 21  1  0
 22 18  1  0
 23 24  1  0
 25 23  2  0
M  END
$$$$
