HKA.pdb
     RDKit          3D

 25 25  0  0  1  0  0  0  0  0999 V2000
   20.9256   -9.7235  -21.2519 N   0  0  0  0  0  0  0  0  0  0  0  0
   21.5356   -8.5451  -20.7130 C   0  0  1  0  0  0  0  0  0  0  0  0
   21.6780   -7.4415  -21.7367 C   0  0  0  0  0  0  0  0  0  0  0  0
   22.6219   -7.7893  -22.8119 C   0  0  0  0  0  0  0  0  0  0  0  0
   23.7745   -7.1499  -23.1765 C   0  0  0  0  0  0  0  0  0  0  0  0
   24.2833   -7.8441  -24.2076 N   0  0  0  0  0  0  0  0  0  0  0  0
   23.4841   -8.8867  -24.4888 C   0  0  0  0  0  0  0  0  0  0  0  0
   22.4671   -8.8435  -23.6257 N   0  0  0  0  0  0  0  0  0  0  0  0
   20.6740   -8.0230  -19.6276 C   0  0  0  0  0  0  0  0  0  0  0  0
   19.4453   -7.9642  -19.8034 O   0  0  0  0  0  0  0  0  0  0  0  0
   21.1996   -7.5914  -18.4044 N   0  0  0  0  0  0  0  0  0  0  0  0
   20.5597   -7.0466  -17.2705 C   0  0  1  0  0  0  0  0  0  0  0  0
   20.6539   -7.7450  -15.9678 C   0  0  0  0  0  0  0  0  0  0  0  0
   19.9265   -7.1412  -14.8137 C   0  0  0  0  0  0  0  0  0  0  0  0
   19.9987   -8.0180  -13.5501 C   0  0  0  0  0  0  0  0  0  0  0  0
   19.3393   -7.2359  -12.4291 C   0  0  0  0  0  0  0  0  0  0  0  0
   19.3206   -8.0780  -11.2598 N   0  0  0  0  0  0  0  0  0  0  0  0
   20.7588   -5.5919  -17.1491 C   0  0  0  0  0  0  0  0  0  0  0  0
   21.9600   -5.1383  -17.2194 O   0  0  0  0  0  0  0  0  0  0  0  0
   20.2594   -2.8133  -18.3719 C   0  0  0  0  0  0  0  0  0  0  0  0
   20.0784   -3.2345  -16.9075 C   0  0  2  0  0  0  0  0  0  0  0  0
   19.7308   -4.6582  -16.9624 N   0  0  0  0  0  0  0  0  0  0  0  0
   18.9005   -2.4956  -16.4049 C   0  0  0  0  0  0  0  0  0  0  0  0
   18.9425   -1.1528  -16.0567 O   0  0  0  0  0  0  0  0  0  0  0  0
   17.8092   -3.0900  -16.2813 O   0  0  0  0  0  0  0  0  0  0  0  0
  2  1  1  6
  2  9  1  0
  3  2  1  0
  4  3  1  0
  5  4  2  0
  6  5  1  0
  7  6  1  0
  7  8  2  0
  8  4  1  0
  9 11  1  0
  9 10  2  0
 11 12  1  0
 12 18  1  0
 12 13  1  1
 13 14  1  0
 14 15  1  0
 16 17  1  0
 16 15  1  0
 18 19  2  0
 21 20  1  6
 21 23  1  0
 22 21  1  0
 22 18  1  0
 23 24  1  0
 25 23  2  0
M  END
$$$$
