HKA.pdb
     RDKit          3D

 25 25  0  0  1  0  0  0  0  0999 V2000
   26.6527  -20.2453  -11.2613 N   0  0  0  0  0  0  0  0  0  0  0  0
   25.7168  -20.5256  -12.3085 C   0  0  1  0  0  0  0  0  0  0  0  0
   24.3092  -20.0943  -11.9640 C   0  0  0  0  0  0  0  0  0  0  0  0
   23.8330  -20.6833  -10.7014 C   0  0  0  0  0  0  0  0  0  0  0  0
   24.5231  -21.4486   -9.8021 C   0  0  0  0  0  0  0  0  0  0  0  0
   23.6610  -21.7442   -8.8156 N   0  0  0  0  0  0  0  0  0  0  0  0
   22.4665  -21.1878   -9.0773 C   0  0  0  0  0  0  0  0  0  0  0  0
   22.5834  -20.5388  -10.2375 N   0  0  0  0  0  0  0  0  0  0  0  0
   26.1203  -19.7691  -13.5159 C   0  0  0  0  0  0  0  0  0  0  0  0
   26.7777  -18.7229  -13.3848 O   0  0  0  0  0  0  0  0  0  0  0  0
   25.7845  -20.1949  -14.8062 N   0  0  0  0  0  0  0  0  0  0  0  0
   26.1758  -19.6990  -16.0682 C   0  0  1  0  0  0  0  0  0  0  0  0
   27.2367  -20.3935  -16.8334 C   0  0  0  0  0  0  0  0  0  0  0  0
   27.6087  -19.8223  -18.1604 C   0  0  0  0  0  0  0  0  0  0  0  0
   28.7069  -20.6399  -18.8649 C   0  0  0  0  0  0  0  0  0  0  0  0
   29.0152  -19.9344  -20.1727 C   0  0  0  0  0  0  0  0  0  0  0  0
   30.0209  -20.7049  -20.8594 N   0  0  0  0  0  0  0  0  0  0  0  0
   25.0285  -19.3166  -16.9097 C   0  0  0  0  0  0  0  0  0  0  0  0
   24.1464  -20.2143  -17.1733 O   0  0  0  0  0  0  0  0  0  0  0  0
   23.5413  -16.2798  -18.4121 C   0  0  0  0  0  0  0  0  0  0  0  0
   23.6255  -17.8043  -18.2601 C   0  0  2  0  0  0  0  0  0  0  0  0
   24.8237  -18.0391  -17.4478 N   0  0  0  0  0  0  0  0  0  0  0  0
   23.8779  -18.3438  -19.6133 C   0  0  0  0  0  0  0  0  0  0  0  0
   22.8649  -18.7909  -20.4500 O   0  0  0  0  0  0  0  0  0  0  0  0
   25.0496  -18.4079  -20.0405 O   0  0  0  0  0  0  0  0  0  0  0  0
  2  1  1  1
  2  9  1  0
  3  2  1  0
  4  3  1  0
  5  4  2  0
  6  5  1  0
  7  6  1  0
  7  8  2  0
  8  4  1  0
  9 11  1  0
  9 10  2  0
 11 12  1  0
 12 18  1  0
 12 13  1  6
 13 14  1  0
 14 15  1  0
 16 17  1  0
 16 15  1  0
 18 19  2  0
 21 20  1  6
 21 23  1  0
 22 21  1  0
 22 18  1  0
 23 24  1  0
 25 23  2  0
M  END
$$$$
