HKA.pdb
     RDKit          3D

 25 25  0  0  1  0  0  0  0  0999 V2000
   24.6324   -9.6545  -20.5848 N   0  0  0  0  0  0  0  0  0  0  0  0
   24.7615   -9.5610  -19.1615 C   0  0  1  0  0  0  0  0  0  0  0  0
   25.9170   -8.6833  -18.7366 C   0  0  0  0  0  0  0  0  0  0  0  0
   27.2246   -9.2943  -19.0277 C   0  0  0  0  0  0  0  0  0  0  0  0
   27.7816   -9.5814  -20.2434 C   0  0  0  0  0  0  0  0  0  0  0  0
   28.9815  -10.1292  -19.9907 N   0  0  0  0  0  0  0  0  0  0  0  0
   29.1810  -10.1884  -18.6635 C   0  0  0  0  0  0  0  0  0  0  0  0
   28.0960   -9.6732  -18.0818 N   0  0  0  0  0  0  0  0  0  0  0  0
   23.5277   -8.9502  -18.6158 C   0  0  0  0  0  0  0  0  0  0  0  0
   22.9218   -8.1005  -19.2902 O   0  0  0  0  0  0  0  0  0  0  0  0
   23.0186   -9.2994  -17.3597 N   0  0  0  0  0  0  0  0  0  0  0  0
   21.8500   -8.8751  -16.6917 C   0  0  1  0  0  0  0  0  0  0  0  0
   21.0558   -9.8507  -15.9100 C   0  0  0  0  0  0  0  0  0  0  0  0
   20.4212  -10.9735  -16.6599 C   0  0  0  0  0  0  0  0  0  0  0  0
   19.7127  -11.9750  -15.7294 C   0  0  0  0  0  0  0  0  0  0  0  0
   19.0561  -13.0167  -16.6164 C   0  0  0  0  0  0  0  0  0  0  0  0
   18.5447  -14.0591  -15.7628 N   0  0  0  0  0  0  0  0  0  0  0  0
   22.0322   -7.5961  -15.9834 C   0  0  0  0  0  0  0  0  0  0  0  0
   22.9464   -7.5295  -15.0816 O   0  0  0  0  0  0  0  0  0  0  0  0
   20.7455   -4.1208  -16.1002 C   0  0  0  0  0  0  0  0  0  0  0  0
   21.6130   -5.2206  -15.4737 C   0  0  2  0  0  0  0  0  0  0  0  0
   21.2799   -6.4380  -16.2206 N   0  0  0  0  0  0  0  0  0  0  0  0
   21.1317   -5.3898  -14.0861 C   0  0  0  0  0  0  0  0  0  0  0  0
   21.5637   -4.5946  -13.0338 O   0  0  0  0  0  0  0  0  0  0  0  0
   20.2983   -6.2837  -13.8295 O   0  0  0  0  0  0  0  0  0  0  0  0
  2  1  1  6
  2  9  1  0
  3  2  1  0
  4  3  1  0
  5  4  2  0
  6  5  1  0
  7  6  1  0
  7  8  2  0
  8  4  1  0
  9 11  1  0
  9 10  2  0
 11 12  1  0
 12 18  1  0
 12 13  1  1
 13 14  1  0
 14 15  1  0
 16 17  1  0
 16 15  1  0
 18 19  2  0
 21 20  1  6
 21 23  1  0
 22 21  1  0
 22 18  1  0
 23 24  1  0
 25 23  2  0
M  END
$$$$
