HKA.pdb
     RDKit          3D

 25 25  0  0  1  0  0  0  0  0999 V2000
   17.8527  -13.8606  -17.9894 N   0  0  0  0  0  0  0  0  0  0  0  0
   18.5855  -12.7802  -18.5783 C   0  0  1  0  0  0  0  0  0  0  0  0
   17.6859  -11.7112  -19.1559 C   0  0  0  0  0  0  0  0  0  0  0  0
   16.8868  -12.2009  -20.2914 C   0  0  0  0  0  0  0  0  0  0  0  0
   17.2834  -12.4260  -21.5809 C   0  0  0  0  0  0  0  0  0  0  0  0
   16.1993  -12.8676  -22.2393 N   0  0  0  0  0  0  0  0  0  0  0  0
   15.1516  -12.9216  -21.4001 C   0  0  0  0  0  0  0  0  0  0  0  0
   15.5850  -12.5101  -20.2069 N   0  0  0  0  0  0  0  0  0  0  0  0
   19.4044  -12.1373  -17.5251 C   0  0  0  0  0  0  0  0  0  0  0  0
   19.0483  -12.2304  -16.3383 O   0  0  0  0  0  0  0  0  0  0  0  0
   20.5716  -11.4248  -17.8230 N   0  0  0  0  0  0  0  0  0  0  0  0
   21.5461  -10.8608  -16.9720 C   0  0  1  0  0  0  0  0  0  0  0  0
   22.9763  -11.1872  -17.1756 C   0  0  0  0  0  0  0  0  0  0  0  0
   23.9563  -10.5940  -16.2199 C   0  0  0  0  0  0  0  0  0  0  0  0
   25.4035  -11.0266  -16.5183 C   0  0  0  0  0  0  0  0  0  0  0  0
   26.2766  -10.4396  -15.4246 C   0  0  0  0  0  0  0  0  0  0  0  0
   27.6323  -10.8598  -15.6736 N   0  0  0  0  0  0  0  0  0  0  0  0
   21.3224   -9.4260  -16.7233 C   0  0  0  0  0  0  0  0  0  0  0  0
   21.8347   -8.5825  -17.5477 O   0  0  0  0  0  0  0  0  0  0  0  0
   19.2939   -7.2141  -14.5858 C   0  0  0  0  0  0  0  0  0  0  0  0
   20.5100   -7.4510  -15.4910 C   0  0  2  0  0  0  0  0  0  0  0  0
   20.5873   -8.9070  -15.6491 N   0  0  0  0  0  0  0  0  0  0  0  0
   21.6933   -7.0116  -14.7212 C   0  0  0  0  0  0  0  0  0  0  0  0
   22.6558   -7.8915  -14.2464 O   0  0  0  0  0  0  0  0  0  0  0  0
   21.8511   -5.7971  -14.4770 O   0  0  0  0  0  0  0  0  0  0  0  0
  2  1  1  1
  2  9  1  0
  3  2  1  0
  4  3  1  0
  5  4  2  0
  6  5  1  0
  7  6  1  0
  7  8  2  0
  8  4  1  0
  9 11  1  0
  9 10  2  0
 11 12  1  0
 12 18  1  0
 12 13  1  6
 13 14  1  0
 14 15  1  0
 16 17  1  0
 16 15  1  0
 18 19  2  0
 21 20  1  1
 21 23  1  0
 22 21  1  0
 22 18  1  0
 23 24  1  0
 25 23  2  0
M  END
$$$$
