HKA.pdb
     RDKit          3D

 25 25  0  0  1  0  0  0  0  0999 V2000
   15.7275  -14.5357    6.1281 N   0  0  0  0  0  0  0  0  0  0  0  0
   16.5448  -15.3109    5.2436 C   0  0  1  0  0  0  0  0  0  0  0  0
   18.0152  -15.2296    5.5860 C   0  0  0  0  0  0  0  0  0  0  0  0
   18.5900  -13.9069    5.2895 C   0  0  0  0  0  0  0  0  0  0  0  0
   17.9586  -12.7856    4.8265 C   0  0  0  0  0  0  0  0  0  0  0  0
   18.9033  -11.8375    4.7146 N   0  0  0  0  0  0  0  0  0  0  0  0
   20.0918  -12.3368    5.0924 C   0  0  0  0  0  0  0  0  0  0  0  0
   19.8880  -13.6081    5.4433 N   0  0  0  0  0  0  0  0  0  0  0  0
   16.1487  -16.7330    5.3613 C   0  0  0  0  0  0  0  0  0  0  0  0
   15.8193  -17.1811    6.4724 O   0  0  0  0  0  0  0  0  0  0  0  0
   16.1329  -17.5936    4.2577 N   0  0  0  0  0  0  0  0  0  0  0  0
   15.9255  -18.9876    4.1825 C   0  0  1  0  0  0  0  0  0  0  0  0
   15.6220  -19.6155    2.8760 C   0  0  0  0  0  0  0  0  0  0  0  0
   15.4281  -21.0946    2.8563 C   0  0  0  0  0  0  0  0  0  0  0  0
   15.2384  -21.6432    1.4302 C   0  0  0  0  0  0  0  0  0  0  0  0
   14.9143  -23.1199    1.5624 C   0  0  0  0  0  0  0  0  0  0  0  0
   14.9112  -23.6878    0.2379 N   0  0  0  0  0  0  0  0  0  0  0  0
   16.9139  -19.7526    4.9627 C   0  0  0  0  0  0  0  0  0  0  0  0
   18.1602  -19.5698    4.7043 O   0  0  0  0  0  0  0  0  0  0  0  0
   17.1276  -21.7438    8.0308 C   0  0  0  0  0  0  0  0  0  0  0  0
   17.6908  -21.3704    6.6532 C   0  0  2  0  0  0  0  0  0  0  0  0
   16.5964  -20.6702    5.9729 N   0  0  0  0  0  0  0  0  0  0  0  0
   17.9297  -22.6447    5.9424 C   0  0  0  0  0  0  0  0  0  0  0  0
   19.0449  -23.4391    6.1689 O   0  0  0  0  0  0  0  0  0  0  0  0
   17.1013  -23.0407    5.0960 O   0  0  0  0  0  0  0  0  0  0  0  0
  2  1  1  1
  2  9  1  0
  3  2  1  0
  4  3  1  0
  5  4  2  0
  6  5  1  0
  7  6  1  0
  7  8  2  0
  8  4  1  0
  9 11  1  0
  9 10  2  0
 11 12  1  0
 12 18  1  0
 12 13  1  6
 13 14  1  0
 14 15  1  0
 16 17  1  0
 16 15  1  0
 18 19  2  0
 21 20  1  1
 21 23  1  0
 22 21  1  0
 22 18  1  0
 23 24  1  0
 25 23  2  0
M  END
$$$$
