HKA.pdb
     RDKit          3D

 25 25  0  0  1  0  0  0  0  0999 V2000
   16.7712   -9.3660  -11.8700 N   0  0  0  0  0  0  0  0  0  0  0  0
   16.9231   -9.1449  -13.2769 C   0  0  1  0  0  0  0  0  0  0  0  0
   15.9563   -8.1137  -13.8133 C   0  0  0  0  0  0  0  0  0  0  0  0
   14.5720   -8.6127  -13.8646 C   0  0  0  0  0  0  0  0  0  0  0  0
   13.9753   -9.3785  -14.8280 C   0  0  0  0  0  0  0  0  0  0  0  0
   12.7085   -9.5730  -14.4268 N   0  0  0  0  0  0  0  0  0  0  0  0
   12.5063   -8.9541  -13.2517 C   0  0  0  0  0  0  0  0  0  0  0  0
   13.6571   -8.3677  -12.9157 N   0  0  0  0  0  0  0  0  0  0  0  0
   18.2895   -8.6324  -13.5283 C   0  0  0  0  0  0  0  0  0  0  0  0
   18.7970   -7.8360  -12.7207 O   0  0  0  0  0  0  0  0  0  0  0  0
   19.0324   -9.0167  -14.6505 N   0  0  0  0  0  0  0  0  0  0  0  0
   20.3015   -8.5944  -15.1008 C   0  0  1  0  0  0  0  0  0  0  0  0
   20.9928   -9.3549  -16.1673 C   0  0  0  0  0  0  0  0  0  0  0  0
   22.3383   -8.8696  -16.5914 C   0  0  0  0  0  0  0  0  0  0  0  0
   22.8687   -9.6162  -17.8291 C   0  0  0  0  0  0  0  0  0  0  0  0
   24.2918   -9.1412  -18.0576 C   0  0  0  0  0  0  0  0  0  0  0  0
   24.7224   -9.6472  -19.3364 N   0  0  0  0  0  0  0  0  0  0  0  0
   20.3769   -7.1371  -15.3045 C   0  0  0  0  0  0  0  0  0  0  0  0
   19.5212   -6.5922  -16.0946 O   0  0  0  0  0  0  0  0  0  0  0  0
   22.0004   -4.1865  -13.8243 C   0  0  0  0  0  0  0  0  0  0  0  0
   21.2627   -4.8578  -14.9904 C   0  0  2  0  0  0  0  0  0  0  0  0
   21.3167   -6.2937  -14.6971 N   0  0  0  0  0  0  0  0  0  0  0  0
   22.0783   -4.6070  -16.1978 C   0  0  0  0  0  0  0  0  0  0  0  0
   21.9945   -3.4352  -16.9367 O   0  0  0  0  0  0  0  0  0  0  0  0
   22.8852   -5.4775  -16.5860 O   0  0  0  0  0  0  0  0  0  0  0  0
  2  1  1  1
  2  9  1  0
  3  2  1  0
  4  3  1  0
  5  4  2  0
  6  5  1  0
  7  6  1  0
  7  8  2  0
  8  4  1  0
  9 11  1  0
  9 10  2  0
 11 12  1  0
 12 18  1  0
 12 13  1  6
 13 14  1  0
 14 15  1  0
 16 17  1  0
 16 15  1  0
 18 19  2  0
 21 20  1  1
 21 23  1  0
 22 21  1  0
 22 18  1  0
 23 24  1  0
 25 23  2  0
M  END
$$$$
