HKA.pdb
     RDKit          3D

 25 25  0  0  1  0  0  0  0  0999 V2000
   27.2447  -20.1687  -18.4258 N   0  0  0  0  0  0  0  0  0  0  0  0
   26.7332  -19.2674  -17.4373 C   0  0  1  0  0  0  0  0  0  0  0  0
   25.9196  -18.1434  -18.0376 C   0  0  0  0  0  0  0  0  0  0  0  0
   26.7405  -17.2189  -18.8372 C   0  0  0  0  0  0  0  0  0  0  0  0
   26.8440  -17.1273  -20.1978 C   0  0  0  0  0  0  0  0  0  0  0  0
   27.7145  -16.1351  -20.4458 N   0  0  0  0  0  0  0  0  0  0  0  0
   28.1491  -15.6145  -19.2861 C   0  0  0  0  0  0  0  0  0  0  0  0
   27.5446  -16.2874  -18.3049 N   0  0  0  0  0  0  0  0  0  0  0  0
   25.8340  -20.0206  -16.5334 C   0  0  0  0  0  0  0  0  0  0  0  0
   25.2590  -21.0370  -16.9583 O   0  0  0  0  0  0  0  0  0  0  0  0
   25.6087  -19.6244  -15.2101 N   0  0  0  0  0  0  0  0  0  0  0  0
   24.8782  -20.2481  -14.1760 C   0  0  1  0  0  0  0  0  0  0  0  0
   25.3879  -20.2023  -12.7862 C   0  0  0  0  0  0  0  0  0  0  0  0
   24.5387  -20.8180  -11.7253 C   0  0  0  0  0  0  0  0  0  0  0  0
   25.1142  -20.6027  -10.3135 C   0  0  0  0  0  0  0  0  0  0  0  0
   24.1768  -21.2956   -9.3419 C   0  0  0  0  0  0  0  0  0  0  0  0
   24.7036  -21.1055   -8.0141 N   0  0  0  0  0  0  0  0  0  0  0  0
   23.4322  -19.9781  -14.2582 C   0  0  0  0  0  0  0  0  0  0  0  0
   23.0320  -18.7691  -14.0802 O   0  0  0  0  0  0  0  0  0  0  0  0
   20.3664  -21.6095  -15.4544 C   0  0  0  0  0  0  0  0  0  0  0  0
   21.0544  -20.5170  -14.6253 C   0  0  2  0  0  0  0  0  0  0  0  0
   22.4529  -20.9458  -14.5186 N   0  0  0  0  0  0  0  0  0  0  0  0
   20.4534  -20.5786  -13.2759 C   0  0  0  0  0  0  0  0  0  0  0  0
   19.2931  -19.8985  -12.9334 O   0  0  0  0  0  0  0  0  0  0  0  0
   21.0003  -21.2689  -12.3906 O   0  0  0  0  0  0  0  0  0  0  0  0
  2  1  1  6
  2  9  1  0
  3  2  1  0
  4  3  1  0
  5  4  2  0
  6  5  1  0
  7  6  1  0
  7  8  2  0
  8  4  1  0
  9 11  1  0
  9 10  2  0
 11 12  1  0
 12 18  1  0
 12 13  1  1
 13 14  1  0
 14 15  1  0
 16 17  1  0
 16 15  1  0
 18 19  2  0
 21 20  1  6
 21 23  1  0
 22 21  1  0
 22 18  1  0
 23 24  1  0
 25 23  2  0
M  END
$$$$
