RSY.pdb
     RDKit          3D

 30 30  0  0  1  0  0  0  0  0999 V2000
   22.9905  -18.9905  -20.5401 N   0  0  0  0  0  0  0  0  0  0  0  0
   23.6430  -20.2353  -20.3353 C   0  0  0  0  0  0  0  0  0  0  0  0
   24.2533  -20.8285  -21.2931 N   0  0  0  0  0  0  0  0  0  0  0  0
   23.6223  -20.8347  -19.0565 N   0  0  0  0  0  0  0  0  0  0  0  0
   22.7832  -20.2551  -17.9789 C   0  0  0  0  0  0  0  0  0  0  0  0
   22.9225  -21.1258  -16.7839 C   0  0  0  0  0  0  0  0  0  0  0  0
   22.0433  -20.7068  -15.6671 C   0  0  0  0  0  0  0  0  0  0  0  0
   22.1612  -19.3102  -15.1895 C   0  0  2  0  0  0  0  0  0  0  0  0
   23.2457  -19.0299  -14.3015 N   0  0  0  0  0  0  0  0  0  0  0  0
   20.8418  -18.9295  -14.5785 C   0  0  0  0  0  0  0  0  0  0  0  0
   20.7024  -18.8101  -13.3392 O   0  0  0  0  0  0  0  0  0  0  0  0
   24.7632  -21.7279  -21.2056 O   0  0  0  0  0  0  0  0  0  0  0  0
   17.8363  -18.6807  -16.9884 C   0  0  0  0  0  0  0  0  0  0  0  0
   17.5991  -17.7870  -15.9399 C   0  0  1  0  0  0  0  0  0  0  0  0
   18.4872  -18.2391  -14.7812 N   0  0  0  0  0  0  0  0  0  0  0  0
   19.7307  -18.6991  -15.4163 C   0  0  0  0  0  0  0  0  0  0  0  0
   17.8679  -19.3858  -14.0787 O   0  0  0  0  0  0  0  0  0  0  0  0
   18.4433  -20.4996  -14.0786 O   0  0  0  0  0  0  0  0  0  0  0  0
   14.8429  -25.3686   -8.9201 C   0  0  0  0  0  0  0  0  0  0  0  0
   15.3679  -24.2783   -9.6314 C   0  0  0  0  0  0  0  0  0  0  0  0
   16.1221  -24.4604  -10.7742 C   0  0  0  0  0  0  0  0  0  0  0  0
   16.6222  -23.3951  -11.4499 C   0  0  0  0  0  0  0  0  0  0  0  0
   16.3850  -22.1116  -11.0058 C   0  0  0  0  0  0  0  0  0  0  0  0
   16.9192  -20.9284  -11.7101 C   0  0  1  0  0  0  0  0  0  0  0  0
   15.9965  -20.4443  -12.8271 N   0  0  0  0  0  0  0  0  0  0  0  0
   16.6366  -19.2820  -13.3958 C   0  0  0  0  0  0  0  0  0  0  0  0
   14.6508  -20.1057  -12.3271 O   0  0  0  0  0  0  0  0  0  0  0  0
   13.6988  -21.1035  -12.2344 C   0  0  0  0  0  0  0  0  0  0  0  0
   15.6410  -21.9169   -9.8768 C   0  0  0  0  0  0  0  0  0  0  0  0
   15.1371  -23.0036   -9.1971 O   0  0  0  0  0  0  0  0  0  0  0  0
  1  2  1  0
  2  3  2  0
  4  2  1  0
  5  4  1  0
  5  6  1  0
  7  6  1  0
  7  8  1  0
  8  9  1  1
 10 15  1  0
 10  8  1  0
 11 10  2  0
 12 13  1  0
 14 13  1  1
 14 16  1  0
 14 15  1  0
 16 17  2  0
 18 19  1  0
 19 29  2  0
 19 20  1  0
 20 21  2  0
 21 22  1  0
 22 23  1  0
 24 23  1  6
 25 24  1  0
 25 16  1  0
 26 27  1  0
 26 24  1  0
 28 22  2  0
 29 28  1  0
 30 26  2  0
M  END
$$$$
