RSY.pdb
     RDKit          3D

 30 30  0  0  1  0  0  0  0  0999 V2000
   27.3954  -16.4543  -19.5864 N   0  0  0  0  0  0  0  0  0  0  0  0
   28.5136  -16.8618  -18.8111 C   0  0  0  0  0  0  0  0  0  0  0  0
   29.5552  -16.1224  -18.7115 N   0  0  0  0  0  0  0  0  0  0  0  0
   28.4830  -18.1022  -18.1362 N   0  0  0  0  0  0  0  0  0  0  0  0
   27.3746  -19.0561  -18.3868 C   0  0  0  0  0  0  0  0  0  0  0  0
   27.6857  -20.3090  -17.6525 C   0  0  0  0  0  0  0  0  0  0  0  0
   26.6605  -20.6446  -16.6366 C   0  0  0  0  0  0  0  0  0  0  0  0
   26.9788  -20.3536  -15.2202 C   0  0  2  0  0  0  0  0  0  0  0  0
   28.3136  -20.6389  -14.7955 N   0  0  0  0  0  0  0  0  0  0  0  0
   25.9692  -21.0763  -14.3731 C   0  0  0  0  0  0  0  0  0  0  0  0
   24.9887  -21.6674  -14.8816 O   0  0  0  0  0  0  0  0  0  0  0  0
   30.4063  -16.3651  -18.1699 O   0  0  0  0  0  0  0  0  0  0  0  0
   26.0924  -20.6894  -10.3471 C   0  0  0  0  0  0  0  0  0  0  0  0
   25.6782  -21.9461  -10.7984 C   0  0  1  0  0  0  0  0  0  0  0  0
   25.0606  -21.7245  -12.1786 N   0  0  0  0  0  0  0  0  0  0  0  0
   26.1254  -21.0930  -12.9714 C   0  0  0  0  0  0  0  0  0  0  0  0
   23.9236  -20.7808  -12.0853 O   0  0  0  0  0  0  0  0  0  0  0  0
   24.0924  -19.6532  -11.5638 O   0  0  0  0  0  0  0  0  0  0  0  0
   21.7666  -20.2879  -18.8313 C   0  0  0  0  0  0  0  0  0  0  0  0
   21.8318  -19.9586  -17.4683 C   0  0  0  0  0  0  0  0  0  0  0  0
   23.0429  -19.8260  -16.8172 C   0  0  0  0  0  0  0  0  0  0  0  0
   23.0879  -19.5070  -15.4989 C   0  0  0  0  0  0  0  0  0  0  0  0
   21.9239  -19.3099  -14.7871 C   0  0  0  0  0  0  0  0  0  0  0  0
   21.9332  -18.9695  -13.3500 C   0  0  1  0  0  0  0  0  0  0  0  0
   21.5465  -20.1525  -12.4643 N   0  0  0  0  0  0  0  0  0  0  0  0
   22.6339  -21.0968  -12.5649 C   0  0  0  0  0  0  0  0  0  0  0  0
   20.2774  -20.7723  -12.8898 O   0  0  0  0  0  0  0  0  0  0  0  0
   20.2900  -22.0720  -13.3599 C   0  0  0  0  0  0  0  0  0  0  0  0
   20.7192  -19.4381  -15.4184 C   0  0  0  0  0  0  0  0  0  0  0  0
   20.6823  -19.7620  -16.7565 O   0  0  0  0  0  0  0  0  0  0  0  0
  1  2  1  0
  2  3  2  0
  4  2  1  0
  5  4  1  0
  5  6  1  0
  7  6  1  0
  7  8  1  0
  8  9  1  1
 10 15  1  0
 10  8  1  0
 11 10  2  0
 12 13  1  0
 14 13  1  6
 14 16  1  0
 14 15  1  0
 16 17  2  0
 18 19  1  0
 19 29  2  0
 19 20  1  0
 20 21  2  0
 21 22  1  0
 22 23  1  0
 24 23  1  1
 25 24  1  0
 25 16  1  0
 26 27  1  0
 26 24  1  0
 28 22  2  0
 29 28  1  0
 30 26  2  0
M  END
$$$$
