RSY.pdb
     RDKit          3D

 30 30  0  0  1  0  0  0  0  0999 V2000
   16.5901  -13.0443  -19.1078 N   0  0  0  0  0  0  0  0  0  0  0  0
   17.1741  -14.2681  -18.6849 C   0  0  0  0  0  0  0  0  0  0  0  0
   16.5596  -15.3822  -18.8363 N   0  0  0  0  0  0  0  0  0  0  0  0
   18.4534  -14.2635  -18.0864 N   0  0  0  0  0  0  0  0  0  0  0  0
   19.1146  -12.9764  -17.7586 C   0  0  0  0  0  0  0  0  0  0  0  0
   19.9252  -12.5752  -18.9365 C   0  0  0  0  0  0  0  0  0  0  0  0
   20.6287  -11.2870  -18.7330 C   0  0  0  0  0  0  0  0  0  0  0  0
   22.1078  -11.2960  -18.8019 C   0  0  2  0  0  0  0  0  0  0  0  0
   22.7600  -12.4808  -18.3391 N   0  0  0  0  0  0  0  0  0  0  0  0
   22.6010  -10.0791  -18.0704 C   0  0  0  0  0  0  0  0  0  0  0  0
   23.1180  -10.1622  -16.9322 O   0  0  0  0  0  0  0  0  0  0  0  0
   16.9522  -16.3136  -18.6019 O   0  0  0  0  0  0  0  0  0  0  0  0
   23.7976   -5.4862  -18.3400 C   0  0  0  0  0  0  0  0  0  0  0  0
   23.1824   -6.5611  -18.9886 C   0  0  2  0  0  0  0  0  0  0  0  0
   23.0073   -7.6546  -17.9354 N   0  0  0  0  0  0  0  0  0  0  0  0
   22.4818   -8.8108  -18.6758 C   0  0  0  0  0  0  0  0  0  0  0  0
   21.9990   -7.2428  -16.9326 O   0  0  0  0  0  0  0  0  0  0  0  0
   20.7837   -7.4667  -17.1442 O   0  0  0  0  0  0  0  0  0  0  0  0
   18.1230   -5.9617   -9.2554 C   0  0  0  0  0  0  0  0  0  0  0  0
   19.0680   -6.0883  -10.2857 C   0  0  0  0  0  0  0  0  0  0  0  0
   19.6444   -4.9792  -10.8738 C   0  0  0  0  0  0  0  0  0  0  0  0
   20.5565   -5.1195  -11.8687 C   0  0  0  0  0  0  0  0  0  0  0  0
   20.9232   -6.3733  -12.3093 C   0  0  0  0  0  0  0  0  0  0  0  0
   21.9062   -6.5651  -13.3947 C   0  0  2  0  0  0  0  0  0  0  0  0
   21.3411   -6.2078  -14.7681 N   0  0  0  0  0  0  0  0  0  0  0  0
   22.3480   -6.5977  -15.7262 C   0  0  0  0  0  0  0  0  0  0  0  0
   21.0391   -4.7689  -14.8862 O   0  0  0  0  0  0  0  0  0  0  0  0
   19.7741   -4.3196  -14.5567 C   0  0  0  0  0  0  0  0  0  0  0  0
   20.3609   -7.4789  -11.7367 C   0  0  0  0  0  0  0  0  0  0  0  0
   19.4360   -7.3277  -10.7275 O   0  0  0  0  0  0  0  0  0  0  0  0
  1  2  1  0
  2  3  2  0
  4  2  1  0
  5  4  1  0
  5  6  1  0
  7  6  1  0
  7  8  1  0
  8  9  1  1
 10 15  1  0
 10  8  1  0
 11 10  2  0
 12 13  1  0
 14 13  1  6
 14 16  1  0
 14 15  1  0
 16 17  2  0
 18 19  1  0
 19 29  2  0
 19 20  1  0
 20 21  2  0
 21 22  1  0
 22 23  1  0
 24 23  1  6
 25 24  1  0
 25 16  1  0
 26 27  1  0
 26 24  1  0
 28 22  2  0
 29 28  1  0
 30 26  2  0
M  END
$$$$
