RSY.pdb
     RDKit          3D

 30 30  0  0  1  0  0  0  0  0999 V2000
   22.5349  -18.4440  -22.5176 N   0  0  0  0  0  0  0  0  0  0  0  0
   23.4302  -17.4334  -22.0762 C   0  0  0  0  0  0  0  0  0  0  0  0
   23.3401  -16.2322  -22.5128 N   0  0  0  0  0  0  0  0  0  0  0  0
   24.4391  -17.7517  -21.1404 N   0  0  0  0  0  0  0  0  0  0  0  0
   24.5121  -19.1167  -20.5636 C   0  0  0  0  0  0  0  0  0  0  0  0
   23.3990  -19.2528  -19.5899 C   0  0  0  0  0  0  0  0  0  0  0  0
   23.8262  -19.8848  -18.3195 C   0  0  0  0  0  0  0  0  0  0  0  0
   24.9002  -19.2169  -17.5496 C   0  0  2  0  0  0  0  0  0  0  0  0
   26.0640  -18.8297  -18.2837 N   0  0  0  0  0  0  0  0  0  0  0  0
   25.2542  -20.1145  -16.3971 C   0  0  0  0  0  0  0  0  0  0  0  0
   24.4318  -20.9343  -15.9269 O   0  0  0  0  0  0  0  0  0  0  0  0
   23.9594  -15.4493  -22.2297 O   0  0  0  0  0  0  0  0  0  0  0  0
   28.5491  -21.9740  -15.9627 C   0  0  0  0  0  0  0  0  0  0  0  0
   28.3538  -21.1969  -14.8171 C   0  0  2  0  0  0  0  0  0  0  0  0
   26.8490  -20.9495  -14.7175 N   0  0  0  0  0  0  0  0  0  0  0  0
   26.5424  -20.0364  -15.8281 C   0  0  0  0  0  0  0  0  0  0  0  0
   26.5258  -20.2648  -13.4452 O   0  0  0  0  0  0  0  0  0  0  0  0
   26.3638  -19.0217  -13.4314 O   0  0  0  0  0  0  0  0  0  0  0  0
   19.4055  -19.9922   -8.9391 C   0  0  0  0  0  0  0  0  0  0  0  0
   20.5673  -20.1700   -9.7064 C   0  0  0  0  0  0  0  0  0  0  0  0
   21.6951  -19.4013   -9.4934 C   0  0  0  0  0  0  0  0  0  0  0  0
   22.8102  -19.5864  -10.2443 C   0  0  0  0  0  0  0  0  0  0  0  0
   22.8354  -20.5463  -11.2337 C   0  0  0  0  0  0  0  0  0  0  0  0
   24.0275  -20.7710  -12.0760 C   0  0  1  0  0  0  0  0  0  0  0  0
   25.3326  -20.6356  -11.2939 N   0  0  0  0  0  0  0  0  0  0  0  0
   26.3887  -20.9590  -12.2235 C   0  0  0  0  0  0  0  0  0  0  0  0
   25.3744  -21.5340  -10.1249 O   0  0  0  0  0  0  0  0  0  0  0  0
   25.1732  -21.0044   -8.8641 C   0  0  0  0  0  0  0  0  0  0  0  0
   21.7270  -21.3135  -11.4554 C   0  0  0  0  0  0  0  0  0  0  0  0
   20.5995  -21.1192  -10.6887 O   0  0  0  0  0  0  0  0  0  0  0  0
  1  2  1  0
  2  3  2  0
  4  2  1  0
  5  4  1  0
  5  6  1  0
  7  6  1  0
  7  8  1  0
  8  9  1  6
 10 15  1  0
 10  8  1  0
 11 10  2  0
 12 13  1  0
 14 13  1  6
 14 16  1  0
 14 15  1  0
 16 17  2  0
 18 19  1  0
 19 29  2  0
 19 20  1  0
 20 21  2  0
 21 22  1  0
 22 23  1  0
 24 23  1  6
 25 24  1  0
 25 16  1  0
 26 27  1  0
 26 24  1  0
 28 22  2  0
 29 28  1  0
 30 26  2  0
M  END
$$$$
