RSY.pdb
     RDKit          3D

 30 30  0  0  1  0  0  0  0  0999 V2000
   19.5127  -27.3448  -10.2003 N   0  0  0  0  0  0  0  0  0  0  0  0
   18.6926  -28.5028  -10.2617 C   0  0  0  0  0  0  0  0  0  0  0  0
   19.1212  -29.5909  -10.7852 N   0  0  0  0  0  0  0  0  0  0  0  0
   17.3812  -28.4606   -9.7387 N   0  0  0  0  0  0  0  0  0  0  0  0
   16.8147  -27.1760   -9.2590 C   0  0  0  0  0  0  0  0  0  0  0  0
   17.2743  -26.9767   -7.8609 C   0  0  0  0  0  0  0  0  0  0  0  0
   16.2732  -26.2720   -7.0262 C   0  0  0  0  0  0  0  0  0  0  0  0
   16.5925  -24.8930   -6.5916 C   0  0  2  0  0  0  0  0  0  0  0  0
   17.7852  -24.3160   -7.1281 N   0  0  0  0  0  0  0  0  0  0  0  0
   16.6100  -24.8862   -5.0887 C   0  0  0  0  0  0  0  0  0  0  0  0
   17.6773  -25.0082   -4.4441 O   0  0  0  0  0  0  0  0  0  0  0  0
   18.5589  -30.4547  -10.9038 O   0  0  0  0  0  0  0  0  0  0  0  0
   13.2227  -24.5450   -3.5561 C   0  0  0  0  0  0  0  0  0  0  0  0
   14.0624  -24.2889   -2.4681 C   0  0  1  0  0  0  0  0  0  0  0  0
   15.4731  -24.6702   -2.9156 N   0  0  0  0  0  0  0  0  0  0  0  0
   15.3982  -24.7385   -4.3821 C   0  0  0  0  0  0  0  0  0  0  0  0
   15.8280  -26.0125   -2.4015 O   0  0  0  0  0  0  0  0  0  0  0  0
   15.3986  -27.0356   -2.9851 O   0  0  0  0  0  0  0  0  0  0  0  0
   19.2330  -29.4015   -6.4033 C   0  0  0  0  0  0  0  0  0  0  0  0
   19.0241  -28.9775   -5.0816 C   0  0  0  0  0  0  0  0  0  0  0  0
   19.0300  -27.6375   -4.7462 C   0  0  0  0  0  0  0  0  0  0  0  0
   18.8262  -27.2449   -3.4632 C   0  0  0  0  0  0  0  0  0  0  0  0
   18.6096  -28.1786   -2.4724 C   0  0  0  0  0  0  0  0  0  0  0  0
   18.3920  -27.7896   -1.0643 C   0  0  2  0  0  0  0  0  0  0  0  0
   16.9218  -27.5186   -0.7509 N   0  0  0  0  0  0  0  0  0  0  0  0
   16.6427  -26.1982   -1.2636 C   0  0  0  0  0  0  0  0  0  0  0  0
   16.6416  -27.5857    0.6957 O   0  0  0  0  0  0  0  0  0  0  0  0
   16.8472  -28.7779    1.3643 C   0  0  0  0  0  0  0  0  0  0  0  0
   18.6014  -29.5073   -2.7899 C   0  0  0  0  0  0  0  0  0  0  0  0
   18.8089  -29.8973   -4.0944 O   0  0  0  0  0  0  0  0  0  0  0  0
  1  2  1  0
  2  3  2  0
  4  2  1  0
  5  4  1  0
  5  6  1  0
  7  6  1  0
  7  8  1  0
  8  9  1  6
 10 15  1  0
 10  8  1  0
 11 10  2  0
 12 13  1  0
 14 13  1  6
 14 16  1  0
 14 15  1  0
 16 17  2  0
 18 19  1  0
 19 29  2  0
 19 20  1  0
 20 21  2  0
 21 22  1  0
 22 23  1  0
 24 23  1  6
 25 24  1  0
 25 16  1  0
 26 27  1  0
 26 24  1  0
 28 22  2  0
 29 28  1  0
 30 26  2  0
M  END
$$$$
