RSY.pdb
     RDKit          3D

 30 30  0  0  1  0  0  0  0  0999 V2000
   25.1419  -13.1220  -21.2203 N   0  0  0  0  0  0  0  0  0  0  0  0
   23.9821  -12.8942  -22.0078 C   0  0  0  0  0  0  0  0  0  0  0  0
   24.0217  -12.1390  -23.0421 N   0  0  0  0  0  0  0  0  0  0  0  0
   22.7611  -13.5075  -21.6499 N   0  0  0  0  0  0  0  0  0  0  0  0
   22.7029  -14.4169  -20.4790 C   0  0  0  0  0  0  0  0  0  0  0  0
   22.6454  -13.5736  -19.2579 C   0  0  0  0  0  0  0  0  0  0  0  0
   22.3872  -14.3631  -18.0309 C   0  0  0  0  0  0  0  0  0  0  0  0
   23.0244  -15.6956  -17.9270 C   0  0  2  0  0  0  0  0  0  0  0  0
   23.5890  -16.2271  -19.1279 N   0  0  0  0  0  0  0  0  0  0  0  0
   22.0110  -16.6356  -17.3366 C   0  0  0  0  0  0  0  0  0  0  0  0
   20.8008  -16.3242  -17.2470 O   0  0  0  0  0  0  0  0  0  0  0  0
   23.2160  -11.9433  -23.6659 O   0  0  0  0  0  0  0  0  0  0  0  0
   22.2931  -20.6167  -17.4946 C   0  0  0  0  0  0  0  0  0  0  0  0
   21.1447  -19.8222  -17.4291 C   0  0  1  0  0  0  0  0  0  0  0  0
   21.3958  -18.7947  -16.3260 N   0  0  0  0  0  0  0  0  0  0  0  0
   22.4273  -17.9003  -16.8712 C   0  0  0  0  0  0  0  0  0  0  0  0
   21.9418  -19.4600  -15.1213 O   0  0  0  0  0  0  0  0  0  0  0  0
   23.1514  -19.3151  -14.8250 O   0  0  0  0  0  0  0  0  0  0  0  0
   24.3980  -21.6843   -7.3706 C   0  0  0  0  0  0  0  0  0  0  0  0
   23.8121  -21.2110   -8.5552 C   0  0  0  0  0  0  0  0  0  0  0  0
   22.4404  -21.1399   -8.7011 C   0  0  0  0  0  0  0  0  0  0  0  0
   21.8904  -20.6796   -9.8532 C   0  0  0  0  0  0  0  0  0  0  0  0
   22.6933  -20.2749  -10.8983 C   0  0  0  0  0  0  0  0  0  0  0  0
   22.1311  -19.7760  -12.1696 C   0  0  1  0  0  0  0  0  0  0  0  0
   21.7128  -20.9053  -13.1093 N   0  0  0  0  0  0  0  0  0  0  0  0
   21.1496  -20.2651  -14.2743 C   0  0  0  0  0  0  0  0  0  0  0  0
   20.7291  -21.8101  -12.4855 O   0  0  0  0  0  0  0  0  0  0  0  0
   21.1073  -23.1039  -12.1793 C   0  0  0  0  0  0  0  0  0  0  0  0
   24.0516  -20.3401  -10.7677 C   0  0  0  0  0  0  0  0  0  0  0  0
   24.6016  -20.8084   -9.5951 O   0  0  0  0  0  0  0  0  0  0  0  0
  1  2  1  0
  2  3  2  0
  4  2  1  0
  5  4  1  0
  5  6  1  0
  7  6  1  0
  7  8  1  0
  8  9  1  6
 10 15  1  0
 10  8  1  0
 11 10  2  0
 12 13  1  0
 14 13  1  6
 14 16  1  0
 14 15  1  0
 16 17  2  0
 18 19  1  0
 19 29  2  0
 19 20  1  0
 20 21  2  0
 21 22  1  0
 22 23  1  0
 24 23  1  6
 25 24  1  0
 25 16  1  0
 26 27  1  0
 26 24  1  0
 28 22  2  0
 29 28  1  0
 30 26  2  0
M  END
$$$$
