RSY.pdb
     RDKit          3D

 30 30  0  0  1  0  0  0  0  0999 V2000
   41.7862   -5.6039   -5.9835 N   0  0  0  0  0  0  0  0  0  0  0  0
   43.0011   -5.1253   -5.4247 C   0  0  0  0  0  0  0  0  0  0  0  0
   43.0053   -4.1779   -4.5620 N   0  0  0  0  0  0  0  0  0  0  0  0
   44.2289   -5.6989   -5.8229 N   0  0  0  0  0  0  0  0  0  0  0  0
   44.2475   -6.7826   -6.8360 C   0  0  0  0  0  0  0  0  0  0  0  0
   43.9213   -8.0535   -6.1401 C   0  0  0  0  0  0  0  0  0  0  0  0
   43.9910   -9.2300   -7.0383 C   0  0  0  0  0  0  0  0  0  0  0  0
   45.0683  -10.2158   -6.7934 C   0  0  2  0  0  0  0  0  0  0  0  0
   46.3786   -9.6872   -6.5773 N   0  0  0  0  0  0  0  0  0  0  0  0
   45.0542  -11.1927   -7.9356 C   0  0  0  0  0  0  0  0  0  0  0  0
   45.9970  -11.2540   -8.7584 O   0  0  0  0  0  0  0  0  0  0  0  0
   43.8543   -3.7941   -4.1055 O   0  0  0  0  0  0  0  0  0  0  0  0
   41.8104  -13.4004   -8.4189 C   0  0  0  0  0  0  0  0  0  0  0  0
   42.9412  -14.0397   -8.9359 C   0  0  1  0  0  0  0  0  0  0  0  0
   43.9423  -12.9352   -9.2730 N   0  0  0  0  0  0  0  0  0  0  0  0
   43.9558  -12.0640   -8.0890 C   0  0  0  0  0  0  0  0  0  0  0  0
   43.4632  -12.1458  -10.4302 O   0  0  0  0  0  0  0  0  0  0  0  0
   42.7835  -11.1100  -10.2380 O   0  0  0  0  0  0  0  0  0  0  0  0
   42.4882   -9.1824  -18.6624 C   0  0  0  0  0  0  0  0  0  0  0  0
   42.9186   -9.8331  -17.4954 C   0  0  0  0  0  0  0  0  0  0  0  0
   42.6240  -11.1623  -17.2622 C   0  0  0  0  0  0  0  0  0  0  0  0
   43.0481  -11.7761  -16.1286 C   0  0  0  0  0  0  0  0  0  0  0  0
   43.7810  -11.0817  -15.1899 C   0  0  0  0  0  0  0  0  0  0  0  0
   44.2528  -11.7136  -13.9411 C   0  0  1  0  0  0  0  0  0  0  0  0
   43.1625  -11.7899  -12.8740 N   0  0  0  0  0  0  0  0  0  0  0  0
   43.7410  -12.5112  -11.7653 C   0  0  0  0  0  0  0  0  0  0  0  0
   41.9520  -12.4743  -13.3659 O   0  0  0  0  0  0  0  0  0  0  0  0
   41.8196  -13.8346  -13.1595 C   0  0  0  0  0  0  0  0  0  0  0  0
   44.0794   -9.7664  -15.4076 C   0  0  0  0  0  0  0  0  0  0  0  0
   43.6453   -9.1511  -16.5607 O   0  0  0  0  0  0  0  0  0  0  0  0
  1  2  1  0
  2  3  2  0
  4  2  1  0
  5  4  1  0
  5  6  1  0
  7  6  1  0
  7  8  1  0
  8  9  1  6
 10 15  1  0
 10  8  1  0
 11 10  2  0
 12 13  1  0
 14 13  1  1
 14 16  1  0
 14 15  1  0
 16 17  2  0
 18 19  1  0
 19 29  2  0
 19 20  1  0
 20 21  2  0
 21 22  1  0
 22 23  1  0
 24 23  1  1
 25 24  1  0
 25 16  1  0
 26 27  1  0
 26 24  1  0
 28 22  2  0
 29 28  1  0
 30 26  2  0
M  END
$$$$
