RSY.pdb
     RDKit          3D

 30 30  0  0  1  0  0  0  0  0999 V2000
   32.6105  -22.7968  -12.1373 N   0  0  0  0  0  0  0  0  0  0  0  0
   32.4916  -22.8782  -10.7243 C   0  0  0  0  0  0  0  0  0  0  0  0
   33.4982  -23.1806   -9.9914 N   0  0  0  0  0  0  0  0  0  0  0  0
   31.2454  -22.6229  -10.1106 N   0  0  0  0  0  0  0  0  0  0  0  0
   30.0980  -22.1559  -10.9271 C   0  0  0  0  0  0  0  0  0  0  0  0
   30.1507  -20.6723  -10.9685 C   0  0  0  0  0  0  0  0  0  0  0  0
   29.1002  -20.0880  -11.8350 C   0  0  0  0  0  0  0  0  0  0  0  0
   28.1425  -21.0195  -12.4733 C   0  0  2  0  0  0  0  0  0  0  0  0
   28.5163  -21.5415  -13.7504 N   0  0  0  0  0  0  0  0  0  0  0  0
   26.8107  -20.3254  -12.5348 C   0  0  0  0  0  0  0  0  0  0  0  0
   26.2945  -19.8045  -11.5191 O   0  0  0  0  0  0  0  0  0  0  0  0
   33.4816  -23.2423   -8.9558 O   0  0  0  0  0  0  0  0  0  0  0  0
   25.3402  -19.6055  -16.0480 C   0  0  0  0  0  0  0  0  0  0  0  0
   24.7751  -18.7900  -15.0631 C   0  0  1  0  0  0  0  0  0  0  0  0
   24.8067  -19.5981  -13.7664 N   0  0  0  0  0  0  0  0  0  0  0  0
   26.1217  -20.2555  -13.7635 C   0  0  0  0  0  0  0  0  0  0  0  0
   23.7598  -20.6447  -13.7897 O   0  0  0  0  0  0  0  0  0  0  0  0
   24.0547  -21.8118  -14.1398 O   0  0  0  0  0  0  0  0  0  0  0  0
   17.7348  -16.2457  -12.9573 C   0  0  0  0  0  0  0  0  0  0  0  0
   18.4041  -17.4691  -12.7962 C   0  0  0  0  0  0  0  0  0  0  0  0
   17.8802  -18.6468  -13.2928 C   0  0  0  0  0  0  0  0  0  0  0  0
   18.5406  -19.8209  -13.1284 C   0  0  0  0  0  0  0  0  0  0  0  0
   19.7469  -19.8572  -12.4619 C   0  0  0  0  0  0  0  0  0  0  0  0
   20.4902  -21.1168  -12.2567 C   0  0  1  0  0  0  0  0  0  0  0  0
   21.4317  -21.4380  -13.4160 N   0  0  0  0  0  0  0  0  0  0  0  0
   22.4196  -20.3854  -13.4294 C   0  0  0  0  0  0  0  0  0  0  0  0
   20.7205  -21.5015  -14.7066 O   0  0  0  0  0  0  0  0  0  0  0  0
   20.9950  -20.5504  -15.6714 C   0  0  0  0  0  0  0  0  0  0  0  0
   20.2765  -18.6999  -11.9654 C   0  0  0  0  0  0  0  0  0  0  0  0
   19.5999  -17.5126  -12.1367 O   0  0  0  0  0  0  0  0  0  0  0  0
  1  2  1  0
  2  3  2  0
  4  2  1  0
  5  4  1  0
  5  6  1  0
  7  6  1  0
  7  8  1  0
  8  9  1  6
 10 15  1  0
 10  8  1  0
 11 10  2  0
 12 13  1  0
 14 13  1  1
 14 16  1  0
 14 15  1  0
 16 17  2  0
 18 19  1  0
 19 29  2  0
 19 20  1  0
 20 21  2  0
 21 22  1  0
 22 23  1  0
 24 23  1  1
 25 24  1  0
 25 16  1  0
 26 27  1  0
 26 24  1  0
 28 22  2  0
 29 28  1  0
 30 26  2  0
M  END
$$$$
