RSY.pdb
     RDKit          3D

 30 30  0  0  1  0  0  0  0  0999 V2000
   28.6675  -30.4641  -16.9180 N   0  0  0  0  0  0  0  0  0  0  0  0
   29.5358  -29.6525  -17.6956 C   0  0  0  0  0  0  0  0  0  0  0  0
   30.5720  -30.1472  -18.2644 N   0  0  0  0  0  0  0  0  0  0  0  0
   29.2581  -28.2761  -17.8483 N   0  0  0  0  0  0  0  0  0  0  0  0
   27.8977  -27.7576  -17.5627 C   0  0  0  0  0  0  0  0  0  0  0  0
   27.4544  -26.9821  -18.7492 C   0  0  0  0  0  0  0  0  0  0  0  0
   26.7534  -25.7292  -18.3827 C   0  0  0  0  0  0  0  0  0  0  0  0
   26.2784  -25.5933  -16.9868 C   0  0  2  0  0  0  0  0  0  0  0  0
   25.0969  -26.3204  -16.6422 N   0  0  0  0  0  0  0  0  0  0  0  0
   26.1188  -24.1255  -16.7054 C   0  0  0  0  0  0  0  0  0  0  0  0
   25.0896  -23.6710  -16.1542 O   0  0  0  0  0  0  0  0  0  0  0  0
   31.2357  -29.6137  -18.8571 O   0  0  0  0  0  0  0  0  0  0  0  0
   28.0145  -19.7614  -17.1960 C   0  0  0  0  0  0  0  0  0  0  0  0
   28.2643  -21.1355  -17.1333 C   0  0  1  0  0  0  0  0  0  0  0  0
   26.9238  -21.8019  -16.8255 N   0  0  0  0  0  0  0  0  0  0  0  0
   27.1500  -23.2341  -17.0680 C   0  0  0  0  0  0  0  0  0  0  0  0
   25.8866  -21.3252  -17.7682 O   0  0  0  0  0  0  0  0  0  0  0  0
   25.8701  -21.7566  -18.9452 O   0  0  0  0  0  0  0  0  0  0  0  0
   19.2345  -18.9651  -22.5015 C   0  0  0  0  0  0  0  0  0  0  0  0
   20.1492  -19.4267  -21.5421 C   0  0  0  0  0  0  0  0  0  0  0  0
   19.8579  -19.3872  -20.1924 C   0  0  0  0  0  0  0  0  0  0  0  0
   20.7538  -19.8378  -19.2781 C   0  0  0  0  0  0  0  0  0  0  0  0
   21.9712  -20.3431  -19.6823 C   0  0  0  0  0  0  0  0  0  0  0  0
   22.9742  -20.8350  -18.7162 C   0  0  1  0  0  0  0  0  0  0  0  0
   24.0322  -19.7849  -18.3829 N   0  0  0  0  0  0  0  0  0  0  0  0
   24.8962  -20.3898  -17.3972 C   0  0  0  0  0  0  0  0  0  0  0  0
   23.4344  -18.5423  -17.8592 O   0  0  0  0  0  0  0  0  0  0  0  0
   22.9955  -17.5813  -18.7505 C   0  0  0  0  0  0  0  0  0  0  0  0
   22.2725  -20.3878  -21.0140 C   0  0  0  0  0  0  0  0  0  0  0  0
   21.3576  -19.9286  -21.9353 O   0  0  0  0  0  0  0  0  0  0  0  0
  1  2  1  0
  2  3  2  0
  4  2  1  0
  5  4  1  0
  5  6  1  0
  7  6  1  0
  7  8  1  0
  8  9  1  6
 10 15  1  0
 10  8  1  0
 11 10  2  0
 12 13  1  0
 14 13  1  1
 14 16  1  0
 14 15  1  0
 16 17  2  0
 18 19  1  0
 19 29  2  0
 19 20  1  0
 20 21  2  0
 21 22  1  0
 22 23  1  0
 24 23  1  6
 25 24  1  0
 25 16  1  0
 26 27  1  0
 26 24  1  0
 28 22  2  0
 29 28  1  0
 30 26  2  0
M  END
$$$$
