RSY.pdb
     RDKit          3D

 30 30  0  0  1  0  0  0  0  0999 V2000
   27.6330  -30.3984  -17.7484 N   0  0  0  0  0  0  0  0  0  0  0  0
   27.6938  -29.7068  -16.5094 C   0  0  0  0  0  0  0  0  0  0  0  0
   27.9766  -30.3212  -15.4212 N   0  0  0  0  0  0  0  0  0  0  0  0
   27.4391  -28.3181  -16.4694 N   0  0  0  0  0  0  0  0  0  0  0  0
   27.1372  -27.5828  -17.7221 C   0  0  0  0  0  0  0  0  0  0  0  0
   28.4260  -27.3264  -18.4141 C   0  0  0  0  0  0  0  0  0  0  0  0
   28.6613  -25.8854  -18.6666 C   0  0  0  0  0  0  0  0  0  0  0  0
   29.7058  -25.2108  -17.8626 C   0  0  2  0  0  0  0  0  0  0  0  0
   30.5206  -26.0515  -17.0425 N   0  0  0  0  0  0  0  0  0  0  0  0
   29.0296  -24.1430  -17.0491 C   0  0  0  0  0  0  0  0  0  0  0  0
   28.6010  -24.3704  -15.8941 O   0  0  0  0  0  0  0  0  0  0  0  0
   28.0824  -29.8684  -14.4936 O   0  0  0  0  0  0  0  0  0  0  0  0
   29.0159  -20.4193  -18.4667 C   0  0  0  0  0  0  0  0  0  0  0  0
   29.0732  -20.5411  -17.0752 C   0  0  1  0  0  0  0  0  0  0  0  0
   28.3029  -21.8133  -16.7234 N   0  0  0  0  0  0  0  0  0  0  0  0
   28.8719  -22.8519  -17.5945 C   0  0  0  0  0  0  0  0  0  0  0  0
   26.8699  -21.6536  -17.0593 O   0  0  0  0  0  0  0  0  0  0  0  0
   26.4203  -22.1500  -18.1191 O   0  0  0  0  0  0  0  0  0  0  0  0
   18.3846  -19.2681  -16.1666 C   0  0  0  0  0  0  0  0  0  0  0  0
   19.7470  -19.5387  -15.9640 C   0  0  0  0  0  0  0  0  0  0  0  0
   20.2102  -20.8322  -15.8202 C   0  0  0  0  0  0  0  0  0  0  0  0
   21.5308  -21.0761  -15.6251 C   0  0  0  0  0  0  0  0  0  0  0  0
   22.4329  -20.0353  -15.5671 C   0  0  0  0  0  0  0  0  0  0  0  0
   23.8759  -20.2613  -15.3483 C   0  0  1  0  0  0  0  0  0  0  0  0
   24.5813  -20.7969  -16.5929 N   0  0  0  0  0  0  0  0  0  0  0  0
   25.9687  -20.9553  -16.2265 C   0  0  0  0  0  0  0  0  0  0  0  0
   24.4472  -19.8830  -17.7428 O   0  0  0  0  0  0  0  0  0  0  0  0
   25.2916  -18.7926  -17.8352 C   0  0  0  0  0  0  0  0  0  0  0  0
   21.9886  -18.7510  -15.7074 C   0  0  0  0  0  0  0  0  0  0  0  0
   20.6468  -18.5122  -15.9052 O   0  0  0  0  0  0  0  0  0  0  0  0
  1  2  1  0
  2  3  2  0
  4  2  1  0
  5  4  1  0
  5  6  1  0
  7  6  1  0
  7  8  1  0
  8  9  1  1
 10 15  1  0
 10  8  1  0
 11 10  2  0
 12 13  1  0
 14 13  1  1
 14 16  1  0
 14 15  1  0
 16 17  2  0
 18 19  1  0
 19 29  2  0
 19 20  1  0
 20 21  2  0
 21 22  1  0
 22 23  1  0
 24 23  1  1
 25 24  1  0
 25 16  1  0
 26 27  1  0
 26 24  1  0
 28 22  2  0
 29 28  1  0
 30 26  2  0
M  END
$$$$
