RSY.pdb
     RDKit          3D

 30 30  0  0  1  0  0  0  0  0999 V2000
   28.5724  -28.7821  -16.5945 N   0  0  0  0  0  0  0  0  0  0  0  0
   27.5621  -28.4878  -17.5485 C   0  0  0  0  0  0  0  0  0  0  0  0
   26.6965  -29.3688  -17.8896 N   0  0  0  0  0  0  0  0  0  0  0  0
   27.5054  -27.2041  -18.1350 N   0  0  0  0  0  0  0  0  0  0  0  0
   28.4240  -26.1353  -17.6712 C   0  0  0  0  0  0  0  0  0  0  0  0
   28.0789  -25.8278  -16.2598 C   0  0  0  0  0  0  0  0  0  0  0  0
   27.9840  -24.3721  -15.9998 C   0  0  0  0  0  0  0  0  0  0  0  0
   26.9524  -23.6100  -16.7397 C   0  0  2  0  0  0  0  0  0  0  0  0
   27.3288  -23.1105  -18.0250 N   0  0  0  0  0  0  0  0  0  0  0  0
   26.4775  -22.5031  -15.8405 C   0  0  0  0  0  0  0  0  0  0  0  0
   26.8887  -21.3272  -15.9737 O   0  0  0  0  0  0  0  0  0  0  0  0
   25.9459  -29.2235  -18.5910 O   0  0  0  0  0  0  0  0  0  0  0  0
   22.9921  -20.7487  -13.3298 C   0  0  0  0  0  0  0  0  0  0  0  0
   23.5121  -21.7839  -14.1125 C   0  0  1  0  0  0  0  0  0  0  0  0
   25.0333  -21.6588  -14.0342 N   0  0  0  0  0  0  0  0  0  0  0  0
   25.5459  -22.7898  -14.8211 C   0  0  0  0  0  0  0  0  0  0  0  0
   25.4886  -21.8174  -12.6344 O   0  0  0  0  0  0  0  0  0  0  0  0
   25.4141  -22.9390  -12.0793 O   0  0  0  0  0  0  0  0  0  0  0  0
   28.6176  -19.4746   -4.6900 C   0  0  0  0  0  0  0  0  0  0  0  0
   28.3458  -19.6033   -6.0611 C   0  0  0  0  0  0  0  0  0  0  0  0
   29.0497  -20.4884   -6.8543 C   0  0  0  0  0  0  0  0  0  0  0  0
   28.7739  -20.6004   -8.1784 C   0  0  0  0  0  0  0  0  0  0  0  0
   27.7852  -19.8312   -8.7540 C   0  0  0  0  0  0  0  0  0  0  0  0
   27.4625  -19.9197  -10.1925 C   0  0  1  0  0  0  0  0  0  0  0  0
   26.3240  -20.8969  -10.4794 N   0  0  0  0  0  0  0  0  0  0  0  0
   26.0128  -20.7447  -11.8808 C   0  0  0  0  0  0  0  0  0  0  0  0
   25.1359  -20.6233   -9.6492 O   0  0  0  0  0  0  0  0  0  0  0  0
   25.0021  -21.2706   -8.4353 C   0  0  0  0  0  0  0  0  0  0  0  0
   27.0814  -18.9515   -7.9814 C   0  0  0  0  0  0  0  0  0  0  0  0
   27.3675  -18.8441   -6.6385 O   0  0  0  0  0  0  0  0  0  0  0  0
  1  2  1  0
  2  3  2  0
  4  2  1  0
  5  4  1  0
  5  6  1  0
  7  6  1  0
  7  8  1  0
  8  9  1  6
 10 15  1  0
 10  8  1  0
 11 10  2  0
 12 13  1  0
 14 13  1  6
 14 16  1  0
 14 15  1  0
 16 17  2  0
 18 19  1  0
 19 29  2  0
 19 20  1  0
 20 21  2  0
 21 22  1  0
 22 23  1  0
 24 23  1  6
 25 24  1  0
 25 16  1  0
 26 27  1  0
 26 24  1  0
 28 22  2  0
 29 28  1  0
 30 26  2  0
M  END
$$$$
