RSY.pdb
     RDKit          3D

 30 30  0  0  1  0  0  0  0  0999 V2000
   27.3628  -18.0927  -22.2246 N   0  0  0  0  0  0  0  0  0  0  0  0
   27.7568  -16.9043  -22.8953 C   0  0  0  0  0  0  0  0  0  0  0  0
   28.9583  -16.7461  -23.3114 N   0  0  0  0  0  0  0  0  0  0  0  0
   26.8130  -15.8757  -23.1101 N   0  0  0  0  0  0  0  0  0  0  0  0
   25.4150  -16.0419  -22.6419 C   0  0  0  0  0  0  0  0  0  0  0  0
   24.6490  -14.8483  -23.0825 C   0  0  0  0  0  0  0  0  0  0  0  0
   23.2339  -14.8848  -22.6446 C   0  0  0  0  0  0  0  0  0  0  0  0
   22.7250  -13.7270  -21.8747 C   0  0  2  0  0  0  0  0  0  0  0  0
   23.6757  -12.7098  -21.5508 N   0  0  0  0  0  0  0  0  0  0  0  0
   22.0573  -14.2645  -20.6400 C   0  0  0  0  0  0  0  0  0  0  0  0
   22.5400  -14.0785  -19.4990 O   0  0  0  0  0  0  0  0  0  0  0  0
   29.3165  -15.8934  -23.7817 O   0  0  0  0  0  0  0  0  0  0  0  0
   18.2944  -14.1958  -18.7687 C   0  0  0  0  0  0  0  0  0  0  0  0
   19.6780  -14.0658  -18.9215 C   0  0  1  0  0  0  0  0  0  0  0  0
   20.1689  -15.3820  -19.5234 N   0  0  0  0  0  0  0  0  0  0  0  0
   20.8577  -14.9960  -20.7635 C   0  0  0  0  0  0  0  0  0  0  0  0
   19.0184  -16.2446  -19.8756 O   0  0  0  0  0  0  0  0  0  0  0  0
   18.4232  -16.0733  -20.9657 O   0  0  0  0  0  0  0  0  0  0  0  0
   14.4637  -22.8359  -22.5748 C   0  0  0  0  0  0  0  0  0  0  0  0
   15.3231  -21.8232  -22.1205 C   0  0  0  0  0  0  0  0  0  0  0  0
   15.0663  -20.4911  -22.3806 C   0  0  0  0  0  0  0  0  0  0  0  0
   15.9077  -19.5246  -21.9338 C   0  0  0  0  0  0  0  0  0  0  0  0
   17.0341  -19.8573  -21.2120 C   0  0  0  0  0  0  0  0  0  0  0  0
   17.9767  -18.8340  -20.7163 C   0  0  1  0  0  0  0  0  0  0  0  0
   17.4882  -18.1566  -19.4374 N   0  0  0  0  0  0  0  0  0  0  0  0
   18.5510  -17.2705  -19.0257 C   0  0  0  0  0  0  0  0  0  0  0  0
   17.1827  -19.1327  -18.3746 O   0  0  0  0  0  0  0  0  0  0  0  0
   16.1835  -20.0641  -18.5861 C   0  0  0  0  0  0  0  0  0  0  0  0
   17.3005  -21.1709  -20.9477 C   0  0  0  0  0  0  0  0  0  0  0  0
   16.4414  -22.1455  -21.4047 O   0  0  0  0  0  0  0  0  0  0  0  0
  1  2  1  0
  2  3  2  0
  4  2  1  0
  5  4  1  0
  5  6  1  0
  7  6  1  0
  7  8  1  0
  8  9  1  1
 10 15  1  0
 10  8  1  0
 11 10  2  0
 12 13  1  0
 14 13  1  1
 14 16  1  0
 14 15  1  0
 16 17  2  0
 18 19  1  0
 19 29  2  0
 19 20  1  0
 20 21  2  0
 21 22  1  0
 22 23  1  0
 24 23  1  6
 25 24  1  0
 25 16  1  0
 26 27  1  0
 26 24  1  0
 28 22  2  0
 29 28  1  0
 30 26  2  0
M  END
$$$$
