RSY.pdb
     RDKit          3D

 30 30  0  0  1  0  0  0  0  0999 V2000
   25.1405  -16.4052  -16.0491 N   0  0  0  0  0  0  0  0  0  0  0  0
   26.5223  -16.1050  -16.1826 C   0  0  0  0  0  0  0  0  0  0  0  0
   27.3966  -17.0372  -16.2740 N   0  0  0  0  0  0  0  0  0  0  0  0
   26.9463  -14.7581  -16.2155 N   0  0  0  0  0  0  0  0  0  0  0  0
   25.9434  -13.6654  -16.2543 C   0  0  0  0  0  0  0  0  0  0  0  0
   26.2089  -12.8553  -17.4704 C   0  0  0  0  0  0  0  0  0  0  0  0
   25.3411  -11.6575  -17.5586 C   0  0  0  0  0  0  0  0  0  0  0  0
   25.5568  -10.7379  -18.6990 C   0  0  2  0  0  0  0  0  0  0  0  0
   26.9108  -10.5452  -19.1147 N   0  0  0  0  0  0  0  0  0  0  0  0
   24.8990   -9.4309  -18.3553 C   0  0  0  0  0  0  0  0  0  0  0  0
   25.5295   -8.5074  -17.7903 O   0  0  0  0  0  0  0  0  0  0  0  0
   28.4077  -16.8877  -16.4528 O   0  0  0  0  0  0  0  0  0  0  0  0
   22.6171   -7.4151  -20.6697 C   0  0  0  0  0  0  0  0  0  0  0  0
   21.9144   -7.7062  -19.4967 C   0  0  2  0  0  0  0  0  0  0  0  0
   22.9653   -7.9078  -18.4055 N   0  0  0  0  0  0  0  0  0  0  0  0
   23.5395   -9.2340  -18.6751 C   0  0  0  0  0  0  0  0  0  0  0  0
   22.3205   -7.9386  -17.0731 O   0  0  0  0  0  0  0  0  0  0  0  0
   21.8500   -9.0146  -16.6345 O   0  0  0  0  0  0  0  0  0  0  0  0
   23.5552   -0.7906  -15.1730 C   0  0  0  0  0  0  0  0  0  0  0  0
   23.3369   -2.1483  -14.8913 C   0  0  0  0  0  0  0  0  0  0  0  0
   24.1042   -3.1370  -15.4758 C   0  0  0  0  0  0  0  0  0  0  0  0
   23.8798   -4.4450  -15.1921 C   0  0  0  0  0  0  0  0  0  0  0  0
   22.8806   -4.8086  -14.3146 C   0  0  0  0  0  0  0  0  0  0  0  0
   22.6018   -6.2217  -13.9878 C   0  0  1  0  0  0  0  0  0  0  0  0
   21.6015   -6.8601  -14.9497 N   0  0  0  0  0  0  0  0  0  0  0  0
   22.2083   -6.7914  -16.2578 C   0  0  0  0  0  0  0  0  0  0  0  0
   20.3016   -6.1630  -14.9412 O   0  0  0  0  0  0  0  0  0  0  0  0
   19.5170   -6.2203  -13.8046 C   0  0  0  0  0  0  0  0  0  0  0  0
   22.1139   -3.8411  -13.7295 C   0  0  0  0  0  0  0  0  0  0  0  0
   22.3483   -2.5160  -14.0227 O   0  0  0  0  0  0  0  0  0  0  0  0
  1  2  1  0
  2  3  2  0
  4  2  1  0
  5  4  1  0
  5  6  1  0
  7  6  1  0
  7  8  1  0
  8  9  1  1
 10 15  1  0
 10  8  1  0
 11 10  2  0
 12 13  1  0
 14 13  1  6
 14 16  1  0
 14 15  1  0
 16 17  2  0
 18 19  1  0
 19 29  2  0
 19 20  1  0
 20 21  2  0
 21 22  1  0
 22 23  1  0
 24 23  1  1
 25 24  1  0
 25 16  1  0
 26 27  1  0
 26 24  1  0
 28 22  2  0
 29 28  1  0
 30 26  2  0
M  END
$$$$
