RSI.pdb
     RDKit          3D

 26 25  0  0  1  0  0  0  0  0999 V2000
    8.4913  -13.5052   14.1213 N   0  0  0  0  0  0  0  0  0  0  0  0
    8.7356  -14.5765   15.0160 C   0  0  0  0  0  0  0  0  0  0  0  0
    8.3108  -15.7840   14.7425 N   0  0  0  0  0  0  0  0  0  0  0  0
    9.4504  -14.3678   16.2358 N   0  0  0  0  0  0  0  0  0  0  0  0
    8.8758  -13.6252   17.3324 C   0  0  0  0  0  0  0  0  0  0  0  0
    7.4099  -13.9713   17.4717 C   0  0  0  0  0  0  0  0  0  0  0  0
    7.0733  -14.0894   18.9486 C   0  0  0  0  0  0  0  0  0  0  0  0
    8.1044  -15.0049   19.5759 C   0  0  2  0  0  0  0  0  0  0  0  0
    8.0725  -16.2981   18.8763 N   0  0  0  0  0  0  0  0  0  0  0  0
    7.6960  -15.2048   20.9862 C   0  0  0  0  0  0  0  0  0  0  0  0
    7.5188  -14.2145   21.7288 O   0  0  0  0  0  0  0  0  0  0  0  0
    8.5427  -16.5647   15.3959 O   0  0  0  0  0  0  0  0  0  0  0  0
    8.1354  -18.7565   23.0854 C   0  0  0  0  0  0  0  0  0  0  0  0
    6.8332  -18.2086   23.1778 C   0  0  1  0  0  0  0  0  0  0  0  0
    6.9911  -16.7399   22.8687 N   0  0  0  0  0  0  0  0  0  0  0  0
    7.4963  -16.4979   21.5320 C   0  0  0  0  0  0  0  0  0  0  0  0
    7.8979  -16.1544   23.8957 O   0  0  0  0  0  0  0  0  0  0  0  0
    9.1305  -16.0638   23.6633 C   0  0  0  0  0  0  0  0  0  0  0  0
    7.5182  -11.3355   27.4735 C   0  0  0  0  0  0  0  0  0  0  0  0
    8.2511  -12.6298   27.1821 C   0  0  2  0  0  0  0  0  0  0  0  0
    7.4775  -13.5261   26.2817 C   0  0  0  0  0  0  0  0  0  0  0  0
    6.1109  -13.7871   26.8875 C   0  0  2  0  0  0  0  0  0  0  0  0
    8.2292  -14.8031   26.0263 N   0  0  0  0  0  0  0  0  0  0  0  0
    7.4421  -15.6853   25.1447 C   0  0  0  0  0  0  0  0  0  0  0  0
    8.5097  -15.6018   27.2324 O   0  0  0  0  0  0  0  0  0  0  0  0
    9.5453  -15.2649   28.0685 O   0  0  0  0  0  0  0  0  0  0  0  0
  2  1  1  0
  3  2  2  0
  4  2  1  0
  5  6  1  0
  5  4  1  0
  6  7  1  0
  7  8  1  0
  8  9  1  6
 10  8  1  0
 11 10  2  0
 12 13  1  0
 14 13  1  6
 14 16  1  0
 14 15  1  0
 15 10  1  0
 16 17  2  0
 19 18  1  0
 19 20  1  0
 20 21  1  6
 22 20  1  0
 22 23  1  1
 23 16  1  0
 24 25  1  0
 24 22  1  0
 26 24  2  0
M  END
$$$$
