RSI.pdb
     RDKit          3D

 26 25  0  0  1  0  0  0  0  0999 V2000
    7.2482  -15.0508   15.1258 N   0  0  0  0  0  0  0  0  0  0  0  0
    8.4202  -14.2574   15.1959 C   0  0  0  0  0  0  0  0  0  0  0  0
    9.3879  -14.4191   14.3295 N   0  0  0  0  0  0  0  0  0  0  0  0
    8.5755  -13.2628   16.2102 N   0  0  0  0  0  0  0  0  0  0  0  0
    8.4414  -13.5831   17.6115 C   0  0  0  0  0  0  0  0  0  0  0  0
    7.1405  -14.3184   17.8457 C   0  0  0  0  0  0  0  0  0  0  0  0
    6.9668  -14.5423   19.3383 C   0  0  0  0  0  0  0  0  0  0  0  0
    8.3346  -14.8510   19.9117 C   0  0  2  0  0  0  0  0  0  0  0  0
    8.8659  -16.0477   19.2420 N   0  0  0  0  0  0  0  0  0  0  0  0
    8.1376  -15.1461   21.3504 C   0  0  0  0  0  0  0  0  0  0  0  0
    7.6102  -14.2905   22.0943 O   0  0  0  0  0  0  0  0  0  0  0  0
   10.2633  -13.8598   14.4348 O   0  0  0  0  0  0  0  0  0  0  0  0
   10.2032  -18.0524   23.4849 C   0  0  0  0  0  0  0  0  0  0  0  0
    8.7984  -18.1243   23.6452 C   0  0  1  0  0  0  0  0  0  0  0  0
    8.2828  -16.7480   23.3024 N   0  0  0  0  0  0  0  0  0  0  0  0
    8.5318  -16.3819   21.9223 C   0  0  0  0  0  0  0  0  0  0  0  0
    8.9223  -15.7779   24.2351 O   0  0  0  0  0  0  0  0  0  0  0  0
   10.0795  -15.3487   23.9946 C   0  0  0  0  0  0  0  0  0  0  0  0
    6.3893  -11.5540   25.9665 C   0  0  0  0  0  0  0  0  0  0  0  0
    7.4770  -12.5455   25.6044 C   0  0  2  0  0  0  0  0  0  0  0  0
    7.9506  -13.3194   26.7831 C   0  0  0  0  0  0  0  0  0  0  0  0
    8.5561  -12.3671   27.7976 C   0  0  2  0  0  0  0  0  0  0  0  0
    8.9256  -14.3847   26.3646 N   0  0  0  0  0  0  0  0  0  0  0  0
    8.2888  -15.3026   25.4015 C   0  0  0  0  0  0  0  0  0  0  0  0
    9.4083  -15.2405   27.4627 O   0  0  0  0  0  0  0  0  0  0  0  0
   10.4790  -14.8545   28.2305 O   0  0  0  0  0  0  0  0  0  0  0  0
  2  1  1  0
  3  2  2  0
  4  2  1  0
  5  6  1  0
  5  4  1  0
  6  7  1  0
  7  8  1  0
  8  9  1  6
 10  8  1  0
 11 10  2  0
 12 13  1  0
 14 13  1  6
 14 16  1  0
 14 15  1  0
 15 10  1  0
 16 17  2  0
 19 18  1  0
 19 20  1  0
 20 21  1  1
 22 20  1  0
 22 23  1  6
 23 16  1  0
 24 25  1  0
 24 22  1  0
 26 24  2  0
M  END
$$$$
