RSI.pdb
     RDKit          3D

 26 25  0  0  1  0  0  0  0  0999 V2000
    6.7282  -14.5134   17.6458 N   0  0  0  0  0  0  0  0  0  0  0  0
    8.0383  -13.9928   17.5033 C   0  0  0  0  0  0  0  0  0  0  0  0
    8.2330  -12.7060   17.3631 N   0  0  0  0  0  0  0  0  0  0  0  0
    9.1775  -14.8555   17.5099 N   0  0  0  0  0  0  0  0  0  0  0  0
    9.0403  -16.2912   17.4442 C   0  0  0  0  0  0  0  0  0  0  0  0
    9.3679  -16.8982   18.7904 C   0  0  0  0  0  0  0  0  0  0  0  0
   10.6068  -16.2164   19.3461 C   0  0  0  0  0  0  0  0  0  0  0  0
   10.8934  -16.8324   20.7000 C   0  0  2  0  0  0  0  0  0  0  0  0
   10.7864  -18.2945   20.5835 N   0  0  0  0  0  0  0  0  0  0  0  0
    9.8442  -16.3403   21.6235 C   0  0  0  0  0  0  0  0  0  0  0  0
    9.7306  -15.1138   21.8390 O   0  0  0  0  0  0  0  0  0  0  0  0
    9.1957  -12.3567   17.1596 O   0  0  0  0  0  0  0  0  0  0  0  0
    8.1686  -18.8421   24.3777 C   0  0  0  0  0  0  0  0  0  0  0  0
    7.2000  -17.9513   23.8556 C   0  0  1  0  0  0  0  0  0  0  0  0
    7.9835  -16.8000   23.2738 N   0  0  0  0  0  0  0  0  0  0  0  0
    8.9515  -17.2233   22.2817 C   0  0  0  0  0  0  0  0  0  0  0  0
    8.6506  -16.0890   24.4004 O   0  0  0  0  0  0  0  0  0  0  0  0
    9.9014  -16.1404   24.5196 C   0  0  0  0  0  0  0  0  0  0  0  0
    5.7439  -12.0698   26.3179 C   0  0  0  0  0  0  0  0  0  0  0  0
    7.0864  -12.6686   25.9486 C   0  0  2  0  0  0  0  0  0  0  0  0
    7.6133  -13.5697   27.0083 C   0  0  0  0  0  0  0  0  0  0  0  0
    8.2392  -12.7351   28.1104 C   0  0  2  0  0  0  0  0  0  0  0  0
    8.5895  -14.5572   26.4316 N   0  0  0  0  0  0  0  0  0  0  0  0
    7.9420  -15.3440   25.3652 C   0  0  0  0  0  0  0  0  0  0  0  0
    9.1018  -15.5477   27.3947 O   0  0  0  0  0  0  0  0  0  0  0  0
    8.6063  -16.8280   27.4108 O   0  0  0  0  0  0  0  0  0  0  0  0
  2  1  1  0
  3  2  2  0
  4  2  1  0
  5  6  1  0
  5  4  1  0
  6  7  1  0
  7  8  1  0
  8  9  1  6
 10  8  1  0
 11 10  2  0
 12 13  1  0
 14 13  1  6
 14 16  1  0
 14 15  1  0
 15 10  1  0
 16 17  2  0
 19 18  1  0
 19 20  1  0
 20 21  1  1
 22 20  1  0
 22 23  1  6
 23 16  1  0
 24 25  1  0
 24 22  1  0
 26 24  2  0
M  END
$$$$
