RSI.pdb
     RDKit          3D

 26 25  0  0  1  0  0  0  0  0999 V2000
    9.7090  -15.4250   16.1674 N   0  0  0  0  0  0  0  0  0  0  0  0
    8.7250  -14.5773   15.6011 C   0  0  0  0  0  0  0  0  0  0  0  0
    8.2787  -14.7902   14.3891 N   0  0  0  0  0  0  0  0  0  0  0  0
    8.1949  -13.4721   16.3358 N   0  0  0  0  0  0  0  0  0  0  0  0
    8.2748  -13.4124   17.7761 C   0  0  0  0  0  0  0  0  0  0  0  0
    7.3891  -14.4785   18.3819 C   0  0  0  0  0  0  0  0  0  0  0  0
    7.3475  -14.2823   19.8879 C   0  0  0  0  0  0  0  0  0  0  0  0
    8.6349  -14.8459   20.4534 C   0  0  2  0  0  0  0  0  0  0  0  0
    8.9771  -16.0700   19.7136 N   0  0  0  0  0  0  0  0  0  0  0  0
    8.3638  -15.1927   21.8683 C   0  0  0  0  0  0  0  0  0  0  0  0
    7.8673  -14.3379   22.6341 O   0  0  0  0  0  0  0  0  0  0  0  0
    7.5315  -14.1694   14.0062 O   0  0  0  0  0  0  0  0  0  0  0  0
   10.2637  -18.2099   23.9787 C   0  0  0  0  0  0  0  0  0  0  0  0
    8.8524  -18.2677   24.0756 C   0  0  1  0  0  0  0  0  0  0  0  0
    8.3694  -16.8736   23.7583 N   0  0  0  0  0  0  0  0  0  0  0  0
    8.6517  -16.4779   22.3928 C   0  0  0  0  0  0  0  0  0  0  0  0
    9.0088  -15.9396   24.7272 O   0  0  0  0  0  0  0  0  0  0  0  0
   10.1432  -15.4582   24.4765 C   0  0  0  0  0  0  0  0  0  0  0  0
    6.6275  -11.7454   26.2147 C   0  0  0  0  0  0  0  0  0  0  0  0
    7.7858  -12.7018   26.0118 C   0  0  2  0  0  0  0  0  0  0  0  0
    8.0707  -13.5095   27.2279 C   0  0  0  0  0  0  0  0  0  0  0  0
    8.6150  -12.6025   28.3159 C   0  0  2  0  0  0  0  0  0  0  0  0
    9.0174  -14.6339   26.9113 N   0  0  0  0  0  0  0  0  0  0  0  0
    8.4002  -15.5560   25.9398 C   0  0  0  0  0  0  0  0  0  0  0  0
    9.3856  -15.4700   28.0674 O   0  0  0  0  0  0  0  0  0  0  0  0
    8.9201  -16.7571   28.1755 O   0  0  0  0  0  0  0  0  0  0  0  0
  2  1  1  0
  3  2  2  0
  4  2  1  0
  5  6  1  0
  5  4  1  0
  6  7  1  0
  7  8  1  0
  8  9  1  6
 10  8  1  0
 11 10  2  0
 12 13  1  0
 14 13  1  6
 14 16  1  0
 14 15  1  0
 15 10  1  0
 16 17  2  0
 19 18  1  0
 19 20  1  0
 20 21  1  1
 22 20  1  0
 22 23  1  6
 23 16  1  0
 24 25  1  0
 24 22  1  0
 26 24  2  0
M  END
$$$$
