RSI.pdb
     RDKit          3D

 26 25  0  0  1  0  0  0  0  0999 V2000
    8.8509  -15.0079   14.9081 N   0  0  0  0  0  0  0  0  0  0  0  0
    7.9745  -13.9023   15.0395 C   0  0  0  0  0  0  0  0  0  0  0  0
    7.3927  -13.3837   13.9879 N   0  0  0  0  0  0  0  0  0  0  0  0
    7.7029  -13.3270   16.3192 N   0  0  0  0  0  0  0  0  0  0  0  0
    8.5488  -13.5852   17.4603 C   0  0  0  0  0  0  0  0  0  0  0  0
    8.4156  -15.0328   17.8783 C   0  0  0  0  0  0  0  0  0  0  0  0
    9.2793  -15.2691   19.1057 C   0  0  0  0  0  0  0  0  0  0  0  0
    9.0857  -16.7121   19.5241 C   0  0  2  0  0  0  0  0  0  0  0  0
    8.3088  -17.4031   18.4840 N   0  0  0  0  0  0  0  0  0  0  0  0
    8.3027  -16.6904   20.7819 C   0  0  0  0  0  0  0  0  0  0  0  0
    7.0880  -16.3948   20.7534 O   0  0  0  0  0  0  0  0  0  0  0  0
    6.7735  -12.5515   14.1081 O   0  0  0  0  0  0  0  0  0  0  0  0
    9.4855  -18.7262   24.0739 C   0  0  0  0  0  0  0  0  0  0  0  0
    8.1335  -18.3185   23.9732 C   0  0  1  0  0  0  0  0  0  0  0  0
    8.1682  -16.9723   23.2918 N   0  0  0  0  0  0  0  0  0  0  0  0
    8.8901  -16.9967   22.0353 C   0  0  0  0  0  0  0  0  0  0  0  0
    8.7800  -15.9990   24.2396 O   0  0  0  0  0  0  0  0  0  0  0  0
   10.0189  -15.7859   24.2044 C   0  0  0  0  0  0  0  0  0  0  0  0
    5.7550  -11.8096   25.9049 C   0  0  0  0  0  0  0  0  0  0  0  0
    6.9148  -12.6853   25.4744 C   0  0  2  0  0  0  0  0  0  0  0  0
    7.5693  -13.3617   26.6261 C   0  0  0  0  0  0  0  0  0  0  0  0
    8.1460  -12.3146   27.5609 C   0  0  2  0  0  0  0  0  0  0  0  0
    8.6200  -14.3266   26.1508 N   0  0  0  0  0  0  0  0  0  0  0  0
    8.0311  -15.2863   25.1982 C   0  0  0  0  0  0  0  0  0  0  0  0
    9.2241  -15.1489   27.2140 O   0  0  0  0  0  0  0  0  0  0  0  0
   10.3795  -14.7467   27.8371 O   0  0  0  0  0  0  0  0  0  0  0  0
  2  1  1  0
  3  2  2  0
  4  2  1  0
  5  6  1  0
  5  4  1  0
  6  7  1  0
  7  8  1  0
  8  9  1  6
 10  8  1  0
 11 10  2  0
 12 13  1  0
 14 13  1  6
 14 16  1  0
 14 15  1  0
 15 10  1  0
 16 17  2  0
 19 18  1  0
 19 20  1  0
 20 21  1  1
 22 20  1  0
 22 23  1  6
 23 16  1  0
 24 25  1  0
 24 22  1  0
 26 24  2  0
M  END
$$$$
