RSI.pdb
     RDKit          3D

 26 25  0  0  1  0  0  0  0  0999 V2000
   14.1466  -18.3590   16.2232 N   0  0  0  0  0  0  0  0  0  0  0  0
   12.9780  -19.1222   15.9787 C   0  0  0  0  0  0  0  0  0  0  0  0
   12.6074  -19.4010   14.7547 N   0  0  0  0  0  0  0  0  0  0  0  0
   12.1767  -19.6068   17.0582 N   0  0  0  0  0  0  0  0  0  0  0  0
   12.4184  -19.2003   18.4223 C   0  0  0  0  0  0  0  0  0  0  0  0
   11.2110  -18.4629   18.9576 C   0  0  0  0  0  0  0  0  0  0  0  0
   11.5180  -17.9777   20.3642 C   0  0  0  0  0  0  0  0  0  0  0  0
   11.1134  -19.0798   21.3214 C   0  0  2  0  0  0  0  0  0  0  0  0
   10.1560  -19.9652   20.6413 N   0  0  0  0  0  0  0  0  0  0  0  0
   10.4399  -18.4242   22.4670 C   0  0  0  0  0  0  0  0  0  0  0  0
    9.8626  -17.3270   22.3042 O   0  0  0  0  0  0  0  0  0  0  0  0
   11.7224  -19.9332   14.6002 O   0  0  0  0  0  0  0  0  0  0  0  0
    9.8606  -20.4466   26.0566 C   0  0  0  0  0  0  0  0  0  0  0  0
    8.9281  -19.4562   25.6644 C   0  0  1  0  0  0  0  0  0  0  0  0
    9.7268  -18.4335   24.8937 N   0  0  0  0  0  0  0  0  0  0  0  0
   10.4268  -19.0047   23.7603 C   0  0  0  0  0  0  0  0  0  0  0  0
   10.6808  -17.7931   25.8422 O   0  0  0  0  0  0  0  0  0  0  0  0
   11.9072  -18.0626   25.7733 C   0  0  0  0  0  0  0  0  0  0  0  0
    9.1994  -13.1184   28.7369 C   0  0  0  0  0  0  0  0  0  0  0  0
    9.5509  -14.5816   28.5552 C   0  0  2  0  0  0  0  0  0  0  0  0
   10.8747  -14.7673   27.9028 C   0  0  0  0  0  0  0  0  0  0  0  0
   10.8705  -14.0726   26.5536 C   0  0  1  0  0  0  0  0  0  0  0  0
   11.2075  -16.2284   27.7786 N   0  0  0  0  0  0  0  0  0  0  0  0
   10.2771  -16.8805   26.8381 C   0  0  0  0  0  0  0  0  0  0  0  0
   11.0966  -16.9920   29.0339 O   0  0  0  0  0  0  0  0  0  0  0  0
   11.9844  -16.7825   30.0600 O   0  0  0  0  0  0  0  0  0  0  0  0
  2  1  1  0
  3  2  2  0
  4  2  1  0
  5  6  1  0
  5  4  1  0
  6  7  1  0
  7  8  1  0
  8  9  1  6
 10  8  1  0
 11 10  2  0
 12 13  1  0
 14 13  1  6
 14 16  1  0
 14 15  1  0
 15 10  1  0
 16 17  2  0
 19 18  1  0
 19 20  1  0
 20 21  1  1
 22 20  1  0
 22 23  1  6
 23 16  1  0
 24 25  1  0
 24 22  1  0
 26 24  2  0
M  END
$$$$
