RSI.pdb
     RDKit          3D

 26 25  0  0  1  0  0  0  0  0999 V2000
    9.4299  -13.9722   14.7302 N   0  0  0  0  0  0  0  0  0  0  0  0
    8.0498  -14.2884   14.7848 C   0  0  0  0  0  0  0  0  0  0  0  0
    7.4820  -14.9655   13.8191 N   0  0  0  0  0  0  0  0  0  0  0  0
    7.2445  -13.8786   15.8919 N   0  0  0  0  0  0  0  0  0  0  0  0
    7.8175  -13.2216   17.0427 C   0  0  0  0  0  0  0  0  0  0  0  0
    8.9313  -14.0705   17.6142 C   0  0  0  0  0  0  0  0  0  0  0  0
    8.7492  -14.1678   19.1195 C   0  0  0  0  0  0  0  0  0  0  0  0
    9.0536  -15.5965   19.5206 C   0  0  2  0  0  0  0  0  0  0  0  0
    8.3826  -16.5030   18.5768 N   0  0  0  0  0  0  0  0  0  0  0  0
    8.4802  -15.7915   20.8730 C   0  0  0  0  0  0  0  0  0  0  0  0
    7.4217  -15.2062   21.1900 O   0  0  0  0  0  0  0  0  0  0  0  0
    6.4623  -15.1817   13.8812 O   0  0  0  0  0  0  0  0  0  0  0  0
   10.5061  -17.9902   23.8041 C   0  0  0  0  0  0  0  0  0  0  0  0
    9.0952  -18.1067   23.8082 C   0  0  1  0  0  0  0  0  0  0  0  0
    8.5841  -16.8360   23.1741 N   0  0  0  0  0  0  0  0  0  0  0  0
    9.0981  -16.6299   21.8347 C   0  0  0  0  0  0  0  0  0  0  0  0
    8.9534  -15.7021   24.0674 O   0  0  0  0  0  0  0  0  0  0  0  0
    9.9909  -15.0319   23.8312 C   0  0  0  0  0  0  0  0  0  0  0  0
    6.6275  -11.0299   27.0104 C   0  0  0  0  0  0  0  0  0  0  0  0
    7.6470  -12.1462   27.1195 C   0  0  2  0  0  0  0  0  0  0  0  0
    7.3316  -13.2886   26.2207 C   0  0  0  0  0  0  0  0  0  0  0  0
    6.1223  -14.0308   26.7589 C   0  0  2  0  0  0  0  0  0  0  0  0
    8.5227  -14.1941   26.0714 N   0  0  0  0  0  0  0  0  0  0  0  0
    8.1877  -15.3289   25.1909 C   0  0  0  0  0  0  0  0  0  0  0  0
    8.9954  -14.7989   27.3291 O   0  0  0  0  0  0  0  0  0  0  0  0
    8.9049  -16.1541   27.5301 O   0  0  0  0  0  0  0  0  0  0  0  0
  2  1  1  0
  3  2  2  0
  4  2  1  0
  5  6  1  0
  5  4  1  0
  6  7  1  0
  7  8  1  0
  8  9  1  6
 10  8  1  0
 11 10  2  0
 12 13  1  0
 14 13  1  6
 14 16  1  0
 14 15  1  0
 15 10  1  0
 16 17  2  0
 19 18  1  0
 19 20  1  0
 20 21  1  6
 22 20  1  0
 22 23  1  1
 23 16  1  0
 24 25  1  0
 24 22  1  0
 26 24  2  0
M  END
$$$$
