RSI.pdb
     RDKit          3D

 26 25  0  0  1  0  0  0  0  0999 V2000
   12.3909  -16.9422   17.1201 N   0  0  0  0  0  0  0  0  0  0  0  0
   11.5131  -16.8203   16.0145 C   0  0  0  0  0  0  0  0  0  0  0  0
   11.9428  -16.3518   14.8702 N   0  0  0  0  0  0  0  0  0  0  0  0
   10.1408  -17.2051   16.1188 N   0  0  0  0  0  0  0  0  0  0  0  0
    9.6287  -17.8721   17.2924 C   0  0  0  0  0  0  0  0  0  0  0  0
    9.1025  -16.8482   18.2735 C   0  0  0  0  0  0  0  0  0  0  0  0
    9.8834  -16.9676   19.5713 C   0  0  0  0  0  0  0  0  0  0  0  0
    9.0793  -17.8499   20.5038 C   0  0  2  0  0  0  0  0  0  0  0  0
    7.7666  -18.1068   19.8925 N   0  0  0  0  0  0  0  0  0  0  0  0
    8.8899  -17.0843   21.7583 C   0  0  0  0  0  0  0  0  0  0  0  0
    8.9173  -15.8344   21.7343 O   0  0  0  0  0  0  0  0  0  0  0  0
   11.2695  -16.2461   14.0791 O   0  0  0  0  0  0  0  0  0  0  0  0
    7.2911  -18.9458   24.9619 C   0  0  0  0  0  0  0  0  0  0  0  0
    7.1467  -17.5379   24.9270 C   0  0  1  0  0  0  0  0  0  0  0  0
    8.3856  -17.0228   24.2360 N   0  0  0  0  0  0  0  0  0  0  0  0
    8.6759  -17.7277   23.0033 C   0  0  0  0  0  0  0  0  0  0  0  0
    9.5206  -17.1353   25.1947 O   0  0  0  0  0  0  0  0  0  0  0  0
   10.4967  -17.8804   24.9238 C   0  0  0  0  0  0  0  0  0  0  0  0
    9.6599  -13.7900   29.8615 C   0  0  0  0  0  0  0  0  0  0  0  0
    9.6112  -15.0521   29.0236 C   0  0  2  0  0  0  0  0  0  0  0  0
   10.7810  -15.1705   28.1126 C   0  0  0  0  0  0  0  0  0  0  0  0
   10.8313  -13.9581   27.2013 C   0  0  1  0  0  0  0  0  0  0  0  0
   10.7214  -16.4544   27.3324 N   0  0  0  0  0  0  0  0  0  0  0  0
    9.5634  -16.4377   26.4191 C   0  0  0  0  0  0  0  0  0  0  0  0
   10.5552  -17.6654   28.1553 O   0  0  0  0  0  0  0  0  0  0  0  0
    9.4005  -18.4049   28.0852 O   0  0  0  0  0  0  0  0  0  0  0  0
  2  1  1  0
  3  2  2  0
  4  2  1  0
  5  6  1  0
  5  4  1  0
  6  7  1  0
  7  8  1  0
  8  9  1  6
 10  8  1  0
 11 10  2  0
 12 13  1  0
 14 13  1  6
 14 16  1  0
 14 15  1  0
 15 10  1  0
 16 17  2  0
 19 18  1  0
 19 20  1  0
 20 21  1  1
 22 20  1  0
 22 23  1  6
 23 16  1  0
 24 25  1  0
 24 22  1  0
 26 24  2  0
M  END
$$$$
