DAG.pdb
     RDKit          3D

 18 17  0  0  1  0  0  0  0  0999 V2000
   10.1213  -17.7940   21.2317 N   0  0  0  0  0  0  0  0  0  0  0  0
   11.2666  -17.1493   21.8423 C   0  0  1  0  0  0  0  0  0  0  0  0
   12.0467  -16.4352   20.7602 C   0  0  0  0  0  0  0  0  0  0  0  0
   12.7078  -17.3495   19.8345 C   0  0  0  0  0  0  0  0  0  0  0  0
   12.3584  -17.3815   18.6315 O   0  0  0  0  0  0  0  0  0  0  0  0
   10.7675  -16.0865   22.7792 C   0  0  0  0  0  0  0  0  0  0  0  0
   11.5857  -15.3183   23.3560 O   0  0  0  0  0  0  0  0  0  0  0  0
   13.7186  -18.1870   20.2602 O   0  0  0  0  0  0  0  0  0  0  0  0
    7.5730  -14.3505   23.4947 C   0  0  0  0  0  0  0  0  0  0  0  0
    8.9172  -14.8738   23.9829 C   0  0  2  0  0  0  0  0  0  0  0  0
    9.3975  -15.8948   23.0569 N   0  0  0  0  0  0  0  0  0  0  0  0
    8.7988  -15.5038   25.3176 C   0  0  0  0  0  0  0  0  0  0  0  0
    8.2967  -14.8811   26.3151 O   0  0  0  0  0  0  0  0  0  0  0  0
    9.2293  -16.8313   25.5853 N   0  0  0  0  0  0  0  0  0  0  0  0
    9.0522  -17.4249   26.9164 C   0  0  0  0  0  0  0  0  0  0  0  0
   10.3388  -17.8884   27.4641 C   0  0  0  0  0  0  0  0  0  0  0  0
   10.4789  -18.5239   28.6916 O   0  0  0  0  0  0  0  0  0  0  0  0
   11.3698  -17.7001   26.7858 O   0  0  0  0  0  0  0  0  0  0  0  0
  2  1  1  6
  2  3  1  0
  3  4  1  0
  4  8  1  0
  5  4  2  0
  6  2  1  0
  7  6  2  0
 10  9  1  6
 10 11  1  0
 11  6  1  0
 12 10  1  0
 12 14  1  0
 13 12  2  0
 15 14  1  0
 16 15  1  0
 17 16  1  0
 18 16  2  0
M  END
$$$$
