DAG.pdb
     RDKit          3D

 18 17  0  0  1  0  0  0  0  0999 V2000
   -3.3032  -25.6781   28.5047 N   0  0  0  0  0  0  0  0  0  0  0  0
   -3.2761  -25.3877   29.9243 C   0  0  1  0  0  0  0  0  0  0  0  0
   -1.8420  -25.4635   30.4008 C   0  0  0  0  0  0  0  0  0  0  0  0
   -1.3256  -26.8278   30.4436 C   0  0  0  0  0  0  0  0  0  0  0  0
   -2.0820  -27.7909   30.1781 O   0  0  0  0  0  0  0  0  0  0  0  0
   -3.7168  -23.9657   30.1249 C   0  0  0  0  0  0  0  0  0  0  0  0
   -3.7357  -23.4682   31.2844 O   0  0  0  0  0  0  0  0  0  0  0  0
   -0.0098  -27.0816   30.7733 O   0  0  0  0  0  0  0  0  0  0  0  0
   -4.1837  -20.9516   27.9920 C   0  0  0  0  0  0  0  0  0  0  0  0
   -4.5109  -21.7404   29.2530 C   0  0  2  0  0  0  0  0  0  0  0  0
   -4.1214  -23.1338   29.0595 N   0  0  0  0  0  0  0  0  0  0  0  0
   -5.9632  -21.7201   29.5409 C   0  0  0  0  0  0  0  0  0  0  0  0
   -6.5791  -20.6363   29.8253 O   0  0  0  0  0  0  0  0  0  0  0  0
   -6.7700  -22.8897   29.5226 N   0  0  0  0  0  0  0  0  0  0  0  0
   -8.2275  -22.7999   29.6750 C   0  0  0  0  0  0  0  0  0  0  0  0
   -8.6401  -23.1692   31.0401 C   0  0  0  0  0  0  0  0  0  0  0  0
   -7.7539  -23.4769   32.0650 O   0  0  0  0  0  0  0  0  0  0  0  0
   -9.8613  -23.2094   31.2957 O   0  0  0  0  0  0  0  0  0  0  0  0
  2  1  1  6
  2  3  1  0
  3  4  1  0
  4  8  1  0
  5  4  2  0
  6  2  1  0
  7  6  2  0
 10  9  1  6
 10 11  1  0
 11  6  1  0
 12 10  1  0
 12 14  1  0
 13 12  2  0
 15 14  1  0
 16 15  1  0
 17 16  1  0
 18 16  2  0
M  END
$$$$
