DAG.pdb
     RDKit          3D

 18 17  0  0  1  0  0  0  0  0999 V2000
    8.4752  -18.1700   19.5224 N   0  0  0  0  0  0  0  0  0  0  0  0
    9.2173  -17.0756   18.9291 C   0  0  1  0  0  0  0  0  0  0  0  0
    8.6045  -16.7566   17.5829 C   0  0  0  0  0  0  0  0  0  0  0  0
    8.7032  -17.8611   16.6341 C   0  0  0  0  0  0  0  0  0  0  0  0
    7.8087  -18.7381   16.6008 O   0  0  0  0  0  0  0  0  0  0  0  0
    9.0254  -15.8555   19.7841 C   0  0  0  0  0  0  0  0  0  0  0  0
    9.5687  -14.7642   19.4579 O   0  0  0  0  0  0  0  0  0  0  0  0
    9.7706  -17.9608   15.7651 O   0  0  0  0  0  0  0  0  0  0  0  0
    6.7177  -14.5935   22.3576 C   0  0  0  0  0  0  0  0  0  0  0  0
    8.1473  -14.7042   21.8447 C   0  0  2  0  0  0  0  0  0  0  0  0
    8.2504  -15.8629   20.9631 N   0  0  0  0  0  0  0  0  0  0  0  0
    9.1056  -14.9037   22.9558 C   0  0  0  0  0  0  0  0  0  0  0  0
    9.1011  -14.1555   23.9927 O   0  0  0  0  0  0  0  0  0  0  0  0
   10.0891  -15.9293   22.9518 N   0  0  0  0  0  0  0  0  0  0  0  0
   10.9974  -16.1042   24.0920 C   0  0  0  0  0  0  0  0  0  0  0  0
   12.3732  -16.3681   23.6364 C   0  0  0  0  0  0  0  0  0  0  0  0
   13.4480  -16.5841   24.4898 O   0  0  0  0  0  0  0  0  0  0  0  0
   12.5908  -16.4005   22.4076 O   0  0  0  0  0  0  0  0  0  0  0  0
  2  1  1  1
  2  3  1  0
  3  4  1  0
  4  8  1  0
  5  4  2  0
  6  2  1  0
  7  6  2  0
 10  9  1  1
 10 11  1  0
 11  6  1  0
 12 10  1  0
 12 14  1  0
 13 12  2  0
 15 14  1  0
 16 15  1  0
 17 16  1  0
 18 16  2  0
M  END
$$$$
