DAG.pdb
     RDKit          3D

 18 17  0  0  1  0  0  0  0  0999 V2000
   -3.8351  -27.4027   26.2126 N   0  0  0  0  0  0  0  0  0  0  0  0
   -3.3810  -26.5700   27.3085 C   0  0  1  0  0  0  0  0  0  0  0  0
   -2.9001  -25.2525   26.7408 C   0  0  0  0  0  0  0  0  0  0  0  0
   -1.6149  -25.3598   26.0577 C   0  0  0  0  0  0  0  0  0  0  0  0
   -0.9596  -26.4260   26.1232 O   0  0  0  0  0  0  0  0  0  0  0  0
   -4.5614  -26.2519   28.1815 C   0  0  0  0  0  0  0  0  0  0  0  0
   -5.7169  -26.1804   27.6795 O   0  0  0  0  0  0  0  0  0  0  0  0
   -1.1017  -24.3023   25.3348 O   0  0  0  0  0  0  0  0  0  0  0  0
   -5.4308  -26.7093   31.6816 C   0  0  0  0  0  0  0  0  0  0  0  0
   -5.6060  -25.8488   30.4374 C   0  0  2  0  0  0  0  0  0  0  0  0
   -4.4458  -26.0227   29.5689 N   0  0  0  0  0  0  0  0  0  0  0  0
   -5.6920  -24.4115   30.7828 C   0  0  0  0  0  0  0  0  0  0  0  0
   -4.7969  -23.8330   31.4892 O   0  0  0  0  0  0  0  0  0  0  0  0
   -6.7629  -23.5789   30.3596 N   0  0  0  0  0  0  0  0  0  0  0  0
   -6.7979  -22.1567   30.7223 C   0  0  0  0  0  0  0  0  0  0  0  0
   -7.9810  -21.4934   30.1475 C   0  0  0  0  0  0  0  0  0  0  0  0
   -8.8367  -22.0873   29.2281 O   0  0  0  0  0  0  0  0  0  0  0  0
   -8.2337  -20.3248   30.5066 O   0  0  0  0  0  0  0  0  0  0  0  0
  2  1  1  6
  2  3  1  0
  3  4  1  0
  4  8  1  0
  5  4  2  0
  6  2  1  0
  7  6  2  0
 10  9  1  1
 10 11  1  0
 11  6  1  0
 12 10  1  0
 12 14  1  0
 13 12  2  0
 15 14  1  0
 16 15  1  0
 17 16  1  0
 18 16  2  0
M  END
$$$$
