DAG.pdb
     RDKit          3D

 18 17  0  0  1  0  0  0  0  0999 V2000
    8.9302  -27.1903   33.0792 N   0  0  0  0  0  0  0  0  0  0  0  0
    9.1459  -25.8174   33.4902 C   0  0  1  0  0  0  0  0  0  0  0  0
    8.5906  -24.9045   32.4189 C   0  0  0  0  0  0  0  0  0  0  0  0
    9.3886  -24.9062   31.1969 C   0  0  0  0  0  0  0  0  0  0  0  0
    9.2798  -25.8509   30.3808 O   0  0  0  0  0  0  0  0  0  0  0  0
    8.3360  -25.5616   34.7292 C   0  0  0  0  0  0  0  0  0  0  0  0
    8.3082  -24.4073   35.2382 O   0  0  0  0  0  0  0  0  0  0  0  0
   10.2684  -23.8799   30.9191 O   0  0  0  0  0  0  0  0  0  0  0  0
    5.5288  -27.1382   36.5356 C   0  0  0  0  0  0  0  0  0  0  0  0
    6.8122  -26.3199   36.5855 C   0  0  2  0  0  0  0  0  0  0  0  0
    7.5847  -26.5681   35.3721 N   0  0  0  0  0  0  0  0  0  0  0  0
    7.6564  -26.7095   37.7379 C   0  0  0  0  0  0  0  0  0  0  0  0
    7.2191  -26.6679   38.9388 O   0  0  0  0  0  0  0  0  0  0  0  0
    8.9989  -27.1532   37.5961 N   0  0  0  0  0  0  0  0  0  0  0  0
    9.8014  -27.5087   38.7730 C   0  0  0  0  0  0  0  0  0  0  0  0
   10.7191  -26.4153   39.1371 C   0  0  0  0  0  0  0  0  0  0  0  0
   11.7688  -26.5472   40.0377 O   0  0  0  0  0  0  0  0  0  0  0  0
   10.5458  -25.2992   38.6054 O   0  0  0  0  0  0  0  0  0  0  0  0
  2  1  1  6
  2  3  1  0
  3  4  1  0
  4  8  1  0
  5  4  2  0
  6  2  1  0
  7  6  2  0
 10  9  1  6
 10 11  1  0
 11  6  1  0
 12 10  1  0
 12 14  1  0
 13 12  2  0
 15 14  1  0
 16 15  1  0
 17 16  1  0
 18 16  2  0
M  END
$$$$
