DAG.pdb
     RDKit          3D

 18 17  0  0  1  0  0  0  0  0999 V2000
   13.2281  -18.9409   19.1604 N   0  0  0  0  0  0  0  0  0  0  0  0
   13.1826  -17.6052   18.5999 C   0  0  1  0  0  0  0  0  0  0  0  0
   13.2671  -17.7155   17.0932 C   0  0  0  0  0  0  0  0  0  0  0  0
   14.6278  -17.9306   16.6115 C   0  0  0  0  0  0  0  0  0  0  0  0
   14.8228  -18.5890   15.5632 O   0  0  0  0  0  0  0  0  0  0  0  0
   11.8391  -17.0082   18.9084 C   0  0  0  0  0  0  0  0  0  0  0  0
   11.5904  -15.8134   18.5873 O   0  0  0  0  0  0  0  0  0  0  0  0
   15.7138  -17.4195   17.2924 O   0  0  0  0  0  0  0  0  0  0  0  0
    8.4451  -18.1675   19.8816 C   0  0  0  0  0  0  0  0  0  0  0  0
    9.5463  -17.1175   19.9446 C   0  0  2  0  0  0  0  0  0  0  0  0
   10.8129  -17.7293   19.5546 N   0  0  0  0  0  0  0  0  0  0  0  0
    9.7113  -16.5900   21.3183 C   0  0  0  0  0  0  0  0  0  0  0  0
    8.7474  -16.0325   21.9469 O   0  0  0  0  0  0  0  0  0  0  0  0
   10.9385  -16.6635   22.0310 N   0  0  0  0  0  0  0  0  0  0  0  0
   11.0267  -16.2101   23.4246 C   0  0  0  0  0  0  0  0  0  0  0  0
   12.3838  -16.4115   23.9612 C   0  0  0  0  0  0  0  0  0  0  0  0
   12.7301  -16.2233   25.2935 O   0  0  0  0  0  0  0  0  0  0  0  0
   13.2812  -16.7737   23.1727 O   0  0  0  0  0  0  0  0  0  0  0  0
  2  1  1  1
  2  3  1  0
  3  4  1  0
  4  8  1  0
  5  4  2  0
  6  2  1  0
  7  6  2  0
 10  9  1  1
 10 11  1  0
 11  6  1  0
 12 10  1  0
 12 14  1  0
 13 12  2  0
 15 14  1  0
 16 15  1  0
 17 16  1  0
 18 16  2  0
M  END
$$$$
