DAG.pdb
     RDKit          3D

 18 17  0  0  1  0  0  0  0  0999 V2000
    7.4617  -16.9952   22.0260 N   0  0  0  0  0  0  0  0  0  0  0  0
    8.7834  -16.4249   21.8582 C   0  0  1  0  0  0  0  0  0  0  0  0
    8.8732  -15.8253   20.4719 C   0  0  0  0  0  0  0  0  0  0  0  0
    9.2130  -16.8062   19.4461 C   0  0  0  0  0  0  0  0  0  0  0  0
    9.4062  -18.0026   19.7651 O   0  0  0  0  0  0  0  0  0  0  0  0
    8.9333  -15.2854   22.8255 C   0  0  0  0  0  0  0  0  0  0  0  0
    9.9827  -14.5847   22.8179 O   0  0  0  0  0  0  0  0  0  0  0  0
    9.3269  -16.4404   18.1204 O   0  0  0  0  0  0  0  0  0  0  0  0
    6.6764  -13.2801   25.0060 C   0  0  0  0  0  0  0  0  0  0  0  0
    8.0652  -13.8074   24.6706 C   0  0  2  0  0  0  0  0  0  0  0  0
    7.9385  -14.9467   23.7670 N   0  0  0  0  0  0  0  0  0  0  0  0
    8.7715  -14.2780   25.8840 C   0  0  0  0  0  0  0  0  0  0  0  0
    8.9552  -13.5172   26.8951 O   0  0  0  0  0  0  0  0  0  0  0  0
    9.2912  -15.5943   26.0126 N   0  0  0  0  0  0  0  0  0  0  0  0
   10.0163  -16.0012   27.2227 C   0  0  0  0  0  0  0  0  0  0  0  0
   10.4468  -17.4072   27.1334 C   0  0  0  0  0  0  0  0  0  0  0  0
   11.0931  -18.0900   28.1564 O   0  0  0  0  0  0  0  0  0  0  0  0
   10.2183  -18.0271   26.0742 O   0  0  0  0  0  0  0  0  0  0  0  0
  2  1  1  6
  2  3  1  0
  3  4  1  0
  4  8  1  0
  5  4  2  0
  6  2  1  0
  7  6  2  0
 10  9  1  1
 10 11  1  0
 11  6  1  0
 12 10  1  0
 12 14  1  0
 13 12  2  0
 15 14  1  0
 16 15  1  0
 17 16  1  0
 18 16  2  0
M  END
$$$$
