DAG.pdb
     RDKit          3D

 18 17  0  0  1  0  0  0  0  0999 V2000
    5.7992  -23.8584   28.2394 N   0  0  0  0  0  0  0  0  0  0  0  0
    7.1534  -24.2181   27.8694 C   0  0  1  0  0  0  0  0  0  0  0  0
    7.5779  -23.3497   26.7052 C   0  0  0  0  0  0  0  0  0  0  0  0
    6.8718  -23.6676   25.4681 C   0  0  0  0  0  0  0  0  0  0  0  0
    6.6398  -24.8626   25.1705 O   0  0  0  0  0  0  0  0  0  0  0  0
    8.0641  -23.8720   29.0128 C   0  0  0  0  0  0  0  0  0  0  0  0
    7.8672  -22.8194   29.6804 O   0  0  0  0  0  0  0  0  0  0  0  0
    6.4507  -22.6708   24.6118 O   0  0  0  0  0  0  0  0  0  0  0  0
   10.7199  -25.6283   30.9925 C   0  0  0  0  0  0  0  0  0  0  0  0
   10.0176  -24.3602   30.5254 C   0  0  2  0  0  0  0  0  0  0  0  0
    9.1564  -24.6809   29.3914 N   0  0  0  0  0  0  0  0  0  0  0  0
   10.9904  -23.3405   30.0711 C   0  0  0  0  0  0  0  0  0  0  0  0
   11.4354  -23.3198   28.8726 O   0  0  0  0  0  0  0  0  0  0  0  0
   11.4950  -22.3216   30.9235 N   0  0  0  0  0  0  0  0  0  0  0  0
   12.3788  -21.2728   30.3996 C   0  0  0  0  0  0  0  0  0  0  0  0
   12.7976  -20.3511   31.4697 C   0  0  0  0  0  0  0  0  0  0  0  0
   13.6706  -19.2865   31.2829 O   0  0  0  0  0  0  0  0  0  0  0  0
   12.3419  -20.5349   32.6173 O   0  0  0  0  0  0  0  0  0  0  0  0
  2  1  1  1
  2  3  1  0
  3  4  1  0
  4  8  1  0
  5  4  2  0
  6  2  1  0
  7  6  2  0
 10  9  1  6
 10 11  1  0
 11  6  1  0
 12 10  1  0
 12 14  1  0
 13 12  2  0
 15 14  1  0
 16 15  1  0
 17 16  1  0
 18 16  2  0
M  END
$$$$
