DAG.pdb
     RDKit          3D

 18 17  0  0  1  0  0  0  0  0999 V2000
   14.0759  -21.8821   26.5967 N   0  0  0  0  0  0  0  0  0  0  0  0
   14.5043  -20.5431   26.9489 C   0  0  1  0  0  0  0  0  0  0  0  0
   14.3623  -19.6591   25.7291 C   0  0  0  0  0  0  0  0  0  0  0  0
   15.4595  -19.8154   24.7795 C   0  0  0  0  0  0  0  0  0  0  0  0
   15.2684  -20.4182   23.6976 O   0  0  0  0  0  0  0  0  0  0  0  0
   13.5576  -19.9997   27.9810 C   0  0  0  0  0  0  0  0  0  0  0  0
   12.5516  -19.3272   27.6231 O   0  0  0  0  0  0  0  0  0  0  0  0
   16.7141  -19.3087   25.0506 O   0  0  0  0  0  0  0  0  0  0  0  0
   11.4492  -20.6601   30.0489 C   0  0  0  0  0  0  0  0  0  0  0  0
   12.7137  -19.8667   30.3501 C   0  0  2  0  0  0  0  0  0  0  0  0
   13.7364  -20.2056   29.3653 N   0  0  0  0  0  0  0  0  0  0  0  0
   13.2552  -20.2011   31.6871 C   0  0  0  0  0  0  0  0  0  0  0  0
   12.5865  -19.9927   32.7569 O   0  0  0  0  0  0  0  0  0  0  0  0
   14.5426  -20.7714   31.8777 N   0  0  0  0  0  0  0  0  0  0  0  0
   15.0498  -21.0482   33.2274 C   0  0  0  0  0  0  0  0  0  0  0  0
   14.8083  -22.4514   33.6056 C   0  0  0  0  0  0  0  0  0  0  0  0
   15.4189  -23.0840   34.6814 O   0  0  0  0  0  0  0  0  0  0  0  0
   14.0055  -23.1166   32.9190 O   0  0  0  0  0  0  0  0  0  0  0  0
  2  1  1  6
  2  3  1  0
  3  4  1  0
  4  8  1  0
  5  4  2  0
  6  2  1  0
  7  6  2  0
 10  9  1  6
 10 11  1  0
 11  6  1  0
 12 10  1  0
 12 14  1  0
 13 12  2  0
 15 14  1  0
 16 15  1  0
 17 16  1  0
 18 16  2  0
M  END
$$$$
