DAG.pdb
     RDKit          3D

 18 17  0  0  1  0  0  0  0  0999 V2000
    8.2196  -16.4790   23.4328 N   0  0  0  0  0  0  0  0  0  0  0  0
    9.6472  -16.2396   23.5038 C   0  0  1  0  0  0  0  0  0  0  0  0
   10.0916  -15.6081   22.2025 C   0  0  0  0  0  0  0  0  0  0  0  0
   10.1116  -16.5501   21.0879 C   0  0  0  0  0  0  0  0  0  0  0  0
    9.7277  -17.7304   21.2604 O   0  0  0  0  0  0  0  0  0  0  0  0
    9.9035  -15.2230   24.5796 C   0  0  0  0  0  0  0  0  0  0  0  0
   11.0668  -14.7651   24.7514 O   0  0  0  0  0  0  0  0  0  0  0  0
   10.5483  -16.1645   19.8369 O   0  0  0  0  0  0  0  0  0  0  0  0
    7.8781  -12.8659   26.6046 C   0  0  0  0  0  0  0  0  0  0  0  0
    9.1307  -13.7171   26.4445 C   0  0  2  0  0  0  0  0  0  0  0  0
    8.8878  -14.7391   25.4311 N   0  0  0  0  0  0  0  0  0  0  0  0
    9.4751  -14.4133   27.7051 C   0  0  0  0  0  0  0  0  0  0  0  0
    9.7221  -13.7724   28.7836 O   0  0  0  0  0  0  0  0  0  0  0  0
    9.5556  -15.8282   27.8081 N   0  0  0  0  0  0  0  0  0  0  0  0
    9.8607  -16.4724   29.0917 C   0  0  0  0  0  0  0  0  0  0  0  0
   11.2208  -17.0384   29.0891 C   0  0  0  0  0  0  0  0  0  0  0  0
   11.7410  -17.8193   30.1137 O   0  0  0  0  0  0  0  0  0  0  0  0
   11.9545  -16.8038   28.1068 O   0  0  0  0  0  0  0  0  0  0  0  0
  2  1  1  6
  2  3  1  0
  3  4  1  0
  4  8  1  0
  5  4  2  0
  6  2  1  0
  7  6  2  0
 10  9  1  1
 10 11  1  0
 11  6  1  0
 12 10  1  0
 12 14  1  0
 13 12  2  0
 15 14  1  0
 16 15  1  0
 17 16  1  0
 18 16  2  0
M  END
$$$$
