DAG.pdb
     RDKit          3D

 18 17  0  0  1  0  0  0  0  0999 V2000
   13.2298  -14.6876   17.6840 N   0  0  0  0  0  0  0  0  0  0  0  0
   11.8937  -15.2284   17.8349 C   0  0  1  0  0  0  0  0  0  0  0  0
   12.0067  -16.6436   18.3582 C   0  0  0  0  0  0  0  0  0  0  0  0
   12.6438  -17.5535   17.4116 C   0  0  0  0  0  0  0  0  0  0  0  0
   12.5373  -17.3489   16.1799 O   0  0  0  0  0  0  0  0  0  0  0  0
   11.1805  -14.4382   18.8948 C   0  0  0  0  0  0  0  0  0  0  0  0
   11.8027  -14.0577   19.9246 O   0  0  0  0  0  0  0  0  0  0  0  0
   13.3674  -18.6443   17.8486 O   0  0  0  0  0  0  0  0  0  0  0  0
    7.8105  -12.7799   19.2079 C   0  0  0  0  0  0  0  0  0  0  0  0
    9.1582  -13.2163   19.7668 C   0  0  2  0  0  0  0  0  0  0  0  0
    9.8167  -14.0890   18.7996 N   0  0  0  0  0  0  0  0  0  0  0  0
    8.9988  -13.9842   21.0228 C   0  0  0  0  0  0  0  0  0  0  0  0
    8.4745  -13.4664   22.0677 O   0  0  0  0  0  0  0  0  0  0  0  0
    9.4118  -15.3371   21.1578 N   0  0  0  0  0  0  0  0  0  0  0  0
    9.1604  -16.0794   22.3993 C   0  0  0  0  0  0  0  0  0  0  0  0
   10.3345  -16.0365   23.2881 C   0  0  0  0  0  0  0  0  0  0  0  0
   10.4151  -16.7032   24.5043 O   0  0  0  0  0  0  0  0  0  0  0  0
   11.3203  -15.3600   22.9293 O   0  0  0  0  0  0  0  0  0  0  0  0
  2  1  1  1
  2  3  1  0
  3  4  1  0
  4  8  1  0
  5  4  2  0
  6  2  1  0
  7  6  2  0
 10  9  1  6
 10 11  1  0
 11  6  1  0
 12 10  1  0
 12 14  1  0
 13 12  2  0
 15 14  1  0
 16 15  1  0
 17 16  1  0
 18 16  2  0
M  END
$$$$
