DAG.pdb
     RDKit          3D

 18 17  0  0  1  0  0  0  0  0999 V2000
    8.5048  -18.1676   19.8543 N   0  0  0  0  0  0  0  0  0  0  0  0
    9.7405  -17.4246   19.7077 C   0  0  1  0  0  0  0  0  0  0  0  0
   10.0260  -17.2578   18.2311 C   0  0  0  0  0  0  0  0  0  0  0  0
   10.8709  -18.3174   17.6894 C   0  0  0  0  0  0  0  0  0  0  0  0
   11.2386  -19.2617   18.4265 O   0  0  0  0  0  0  0  0  0  0  0  0
    9.5302  -16.0433   20.2593 C   0  0  0  0  0  0  0  0  0  0  0  0
   10.5114  -15.2617   20.3955 O   0  0  0  0  0  0  0  0  0  0  0  0
   11.2768  -18.3008   16.3706 O   0  0  0  0  0  0  0  0  0  0  0  0
    6.6261  -13.7827   20.9162 C   0  0  0  0  0  0  0  0  0  0  0  0
    8.0615  -14.2169   21.1813 C   0  0  2  0  0  0  0  0  0  0  0  0
    8.2619  -15.5590   20.6437 N   0  0  0  0  0  0  0  0  0  0  0  0
    8.3498  -14.2712   22.6327 C   0  0  0  0  0  0  0  0  0  0  0  0
    8.2205  -13.2452   23.3847 O   0  0  0  0  0  0  0  0  0  0  0  0
    8.7862  -15.4535   23.2890 N   0  0  0  0  0  0  0  0  0  0  0  0
    9.1097  -15.4425   24.7211 C   0  0  0  0  0  0  0  0  0  0  0  0
   10.4520  -15.9987   24.9642 C   0  0  0  0  0  0  0  0  0  0  0  0
   11.0137  -16.1541   26.2254 O   0  0  0  0  0  0  0  0  0  0  0  0
   11.1301  -16.3535   23.9779 O   0  0  0  0  0  0  0  0  0  0  0  0
  2  1  1  6
  2  3  1  0
  3  4  1  0
  4  8  1  0
  5  4  2  0
  6  2  1  0
  7  6  2  0
 10  9  1  1
 10 11  1  0
 11  6  1  0
 12 10  1  0
 12 14  1  0
 13 12  2  0
 15 14  1  0
 16 15  1  0
 17 16  1  0
 18 16  2  0
M  END
$$$$
