DAG.pdb
     RDKit          3D

 18 17  0  0  1  0  0  0  0  0999 V2000
    9.6298  -18.3316   20.2205 N   0  0  0  0  0  0  0  0  0  0  0  0
   10.7200  -17.3853   20.3481 C   0  0  1  0  0  0  0  0  0  0  0  0
   11.2732  -17.1039   18.9681 C   0  0  0  0  0  0  0  0  0  0  0  0
   11.7662  -18.3014   18.2952 C   0  0  0  0  0  0  0  0  0  0  0  0
   12.3446  -19.1958   18.9554 O   0  0  0  0  0  0  0  0  0  0  0  0
   10.1620  -16.0864   20.8560 C   0  0  0  0  0  0  0  0  0  0  0  0
   10.9210  -15.0898   21.0086 O   0  0  0  0  0  0  0  0  0  0  0  0
   11.6073  -18.4707   16.9349 O   0  0  0  0  0  0  0  0  0  0  0  0
    6.7580  -14.5974   21.2181 C   0  0  0  0  0  0  0  0  0  0  0  0
    8.2395  -14.6246   21.5700 C   0  0  2  0  0  0  0  0  0  0  0  0
    8.7996  -15.9150   21.1805 N   0  0  0  0  0  0  0  0  0  0  0  0
    8.4512  -14.4691   23.0273 C   0  0  0  0  0  0  0  0  0  0  0  0
    7.9872  -13.4679   23.6731 O   0  0  0  0  0  0  0  0  0  0  0  0
    9.1770  -15.4101   23.8063 N   0  0  0  0  0  0  0  0  0  0  0  0
    9.2297  -15.2937   25.2689 C   0  0  0  0  0  0  0  0  0  0  0  0
   10.0646  -16.3569   25.8543 C   0  0  0  0  0  0  0  0  0  0  0  0
   10.2394  -16.5469   27.2194 O   0  0  0  0  0  0  0  0  0  0  0  0
   10.6533  -17.1378   25.0784 O   0  0  0  0  0  0  0  0  0  0  0  0
  2  1  1  6
  2  3  1  0
  3  4  1  0
  4  8  1  0
  5  4  2  0
  6  2  1  0
  7  6  2  0
 10  9  1  1
 10 11  1  0
 11  6  1  0
 12 10  1  0
 12 14  1  0
 13 12  2  0
 15 14  1  0
 16 15  1  0
 17 16  1  0
 18 16  2  0
M  END
$$$$
