KPN.pdb
     RDKit          3D

 25 25  0  0  1  0  0  0  0  0999 V2000
    8.4811  -15.0701   19.9528 N   0  0  0  0  0  0  0  0  0  0  0  0
    7.7722  -15.8408   20.9687 C   0  0  1  0  0  0  0  0  0  0  0  0
    7.6110  -17.2786   20.4905 C   0  0  0  0  0  0  0  0  0  0  0  0
    6.8636  -18.1358   21.4378 C   0  0  0  0  0  0  0  0  0  0  0  0
    5.4160  -18.3257   21.2246 C   0  0  0  0  0  0  0  0  0  0  0  0
    4.7149  -19.2830   22.1200 C   0  0  0  0  0  0  0  0  0  0  0  0
    3.3213  -19.3799   21.6629 N   0  0  0  0  0  0  0  0  0  0  0  0
    8.6040  -15.8150   22.2016 C   0  0  0  0  0  0  0  0  0  0  0  0
    9.6197  -16.5947   22.2038 O   0  0  0  0  0  0  0  0  0  0  0  0
    8.3354  -15.0006   23.3271 N   0  0  0  0  0  0  0  0  0  0  0  0
    7.6058  -13.7250   23.1848 C   0  0  0  0  0  0  0  0  0  0  0  0
    6.7242  -13.6472   24.3874 C   0  0  0  0  0  0  0  0  0  0  0  0
    7.3700  -14.5458   25.3840 C   0  0  0  0  0  0  0  0  0  0  0  0
    8.6446  -15.0598   24.7058 C   0  0  1  0  0  0  0  0  0  0  0  0
    8.8872  -16.3853   25.2878 C   0  0  0  0  0  0  0  0  0  0  0  0
    8.1082  -17.3388   25.3776 O   0  0  0  0  0  0  0  0  0  0  0  0
   12.5949  -20.5378   26.2786 N   0  0  0  0  0  0  0  0  0  0  0  0
   12.6062  -19.2489   26.8743 C   0  0  0  0  0  0  0  0  0  0  0  0
   13.1106  -19.1341   28.0143 O   0  0  0  0  0  0  0  0  0  0  0  0
   12.0532  -18.0793   26.1986 C   0  0  0  0  0  0  0  0  0  0  0  0
   10.5967  -17.8308   26.4723 C   0  0  2  0  0  0  0  0  0  0  0  0
   10.2031  -16.6030   25.8234 N   0  0  0  0  0  0  0  0  0  0  0  0
   10.3982  -17.8071   27.9192 C   0  0  0  0  0  0  0  0  0  0  0  0
   10.3205  -16.7232   28.5291 O   0  0  0  0  0  0  0  0  0  0  0  0
   10.2944  -18.9822   28.6278 O   0  0  0  0  0  0  0  0  0  0  0  0
  2  1  1  6
  3  2  1  0
  4  3  1  0
  4  5  1  0
  6  5  1  0
  6  7  1  0
  8  2  1  0
  9  8  2  0
 10  8  1  0
 10 14  1  0
 11 10  1  0
 12 11  1  0
 12 13  1  0
 13 14  1  0
 15 22  1  0
 14 15  1  1
 16 15  2  0
 18 17  1  0
 18 19  2  0
 20 18  1  0
 21 22  1  0
 21 20  1  1
 23 21  1  0
 24 23  2  0
 25 23  1  0
M  END
$$$$
