KPN.pdb
     RDKit          3D

 25 25  0  0  1  0  0  0  0  0999 V2000
    9.0909  -16.1580   15.7903 N   0  0  0  0  0  0  0  0  0  0  0  0
    8.1886  -15.6440   16.8152 C   0  0  1  0  0  0  0  0  0  0  0  0
    7.1256  -16.6914   17.1234 C   0  0  0  0  0  0  0  0  0  0  0  0
    7.5722  -18.0791   16.8669 C   0  0  0  0  0  0  0  0  0  0  0  0
    6.6917  -19.1897   17.2772 C   0  0  0  0  0  0  0  0  0  0  0  0
    5.8609  -19.8266   16.2219 C   0  0  0  0  0  0  0  0  0  0  0  0
    5.2963  -21.0612   16.7855 N   0  0  0  0  0  0  0  0  0  0  0  0
    9.0045  -15.3875   18.0322 C   0  0  0  0  0  0  0  0  0  0  0  0
   10.0448  -16.1215   18.1693 O   0  0  0  0  0  0  0  0  0  0  0  0
    8.6965  -14.4085   19.0063 N   0  0  0  0  0  0  0  0  0  0  0  0
    7.9679  -13.1773   18.6416 C   0  0  0  0  0  0  0  0  0  0  0  0
    7.0470  -12.9187   19.7883 C   0  0  0  0  0  0  0  0  0  0  0  0
    7.6627  -13.6439   20.9340 C   0  0  0  0  0  0  0  0  0  0  0  0
    8.9605  -14.2475   20.3862 C   0  0  1  0  0  0  0  0  0  0  0  0
    9.1882  -15.4629   21.1772 C   0  0  0  0  0  0  0  0  0  0  0  0
    8.4644  -16.4574   21.2825 O   0  0  0  0  0  0  0  0  0  0  0  0
   12.0381  -18.7841   24.1281 N   0  0  0  0  0  0  0  0  0  0  0  0
   12.8249  -18.0352   23.2135 C   0  0  0  0  0  0  0  0  0  0  0  0
   14.0241  -18.3631   23.0661 O   0  0  0  0  0  0  0  0  0  0  0  0
   12.2755  -16.9141   22.4575 C   0  0  0  0  0  0  0  0  0  0  0  0
   10.8203  -16.6415   22.7141 C   0  0  2  0  0  0  0  0  0  0  0  0
   10.4135  -15.5016   21.9274 N   0  0  0  0  0  0  0  0  0  0  0  0
   10.6352  -16.4464   24.1497 C   0  0  0  0  0  0  0  0  0  0  0  0
   10.8951  -17.3645   24.9514 O   0  0  0  0  0  0  0  0  0  0  0  0
   10.1712  -15.2455   24.6359 O   0  0  0  0  0  0  0  0  0  0  0  0
  2  1  1  6
  3  2  1  0
  4  3  1  0
  4  5  1  0
  6  5  1  0
  6  7  1  0
  8  2  1  0
  9  8  2  0
 10  8  1  0
 10 14  1  0
 11 10  1  0
 12 11  1  0
 12 13  1  0
 13 14  1  0
 15 22  1  0
 14 15  1  1
 16 15  2  0
 18 17  1  0
 18 19  2  0
 20 18  1  0
 21 22  1  0
 21 20  1  1
 23 21  1  0
 24 23  2  0
 25 23  1  0
M  END
$$$$
