KPN.pdb
     RDKit          3D

 25 25  0  0  1  0  0  0  0  0999 V2000
    9.1762  -16.6593   16.0958 N   0  0  0  0  0  0  0  0  0  0  0  0
    8.2419  -16.2505   17.1392 C   0  0  1  0  0  0  0  0  0  0  0  0
    7.3978  -17.4478   17.5584 C   0  0  0  0  0  0  0  0  0  0  0  0
    6.6708  -18.0802   16.4349 C   0  0  0  0  0  0  0  0  0  0  0  0
    5.8070  -19.2420   16.7195 C   0  0  0  0  0  0  0  0  0  0  0  0
    5.0875  -19.8539   15.5717 C   0  0  0  0  0  0  0  0  0  0  0  0
    4.3880  -21.0466   16.0706 N   0  0  0  0  0  0  0  0  0  0  0  0
    9.0509  -15.7805   18.2956 C   0  0  0  0  0  0  0  0  0  0  0  0
   10.0908  -16.4768   18.5666 O   0  0  0  0  0  0  0  0  0  0  0  0
    8.7369  -14.6445   19.0785 N   0  0  0  0  0  0  0  0  0  0  0  0
    8.1783  -13.4262   18.4593 C   0  0  0  0  0  0  0  0  0  0  0  0
    7.1678  -12.9237   19.4370 C   0  0  0  0  0  0  0  0  0  0  0  0
    7.5795  -13.5169   20.7394 C   0  0  0  0  0  0  0  0  0  0  0  0
    8.8631  -14.3006   20.4445 C   0  0  1  0  0  0  0  0  0  0  0  0
    8.8811  -15.3981   21.4189 C   0  0  0  0  0  0  0  0  0  0  0  0
    7.9923  -16.2175   21.6693 O   0  0  0  0  0  0  0  0  0  0  0  0
   12.7060  -19.0909   23.8456 N   0  0  0  0  0  0  0  0  0  0  0  0
   11.4178  -18.8345   23.3060 C   0  0  0  0  0  0  0  0  0  0  0  0
   10.5000  -19.6442   23.5690 O   0  0  0  0  0  0  0  0  0  0  0  0
   11.1476  -17.6704   22.4681 C   0  0  0  0  0  0  0  0  0  0  0  0
   10.3088  -16.6102   23.1241 C   0  0  2  0  0  0  0  0  0  0  0  0
   10.0910  -15.5385   22.1819 N   0  0  0  0  0  0  0  0  0  0  0  0
   10.9863  -16.1768   24.3433 C   0  0  0  0  0  0  0  0  0  0  0  0
   11.8090  -15.2413   24.3111 O   0  0  0  0  0  0  0  0  0  0  0  0
   10.7247  -16.7963   25.5439 O   0  0  0  0  0  0  0  0  0  0  0  0
  2  1  1  6
  3  2  1  0
  4  3  1  0
  4  5  1  0
  6  5  1  0
  6  7  1  0
  8  2  1  0
  9  8  2  0
 10  8  1  0
 10 14  1  0
 11 10  1  0
 12 11  1  0
 12 13  1  0
 13 14  1  0
 15 22  1  0
 14 15  1  1
 16 15  2  0
 18 17  1  0
 18 19  2  0
 20 18  1  0
 21 22  1  0
 21 20  1  6
 23 21  1  0
 24 23  2  0
 25 23  1  0
M  END
$$$$
