KPN.pdb
     RDKit          3D

 25 25  0  0  1  0  0  0  0  0999 V2000
    8.3699  -14.2081   20.9156 N   0  0  0  0  0  0  0  0  0  0  0  0
    7.4927  -14.3288   22.0752 C   0  0  1  0  0  0  0  0  0  0  0  0
    6.7665  -15.6673   22.0217 C   0  0  0  0  0  0  0  0  0  0  0  0
    7.1768  -16.5166   20.8810 C   0  0  0  0  0  0  0  0  0  0  0  0
    6.6835  -17.9060   20.8237 C   0  0  0  0  0  0  0  0  0  0  0  0
    7.1771  -18.7593   19.7111 C   0  0  0  0  0  0  0  0  0  0  0  0
    6.5173  -20.0676   19.8282 N   0  0  0  0  0  0  0  0  0  0  0  0
    8.3540  -14.2761   23.2867 C   0  0  0  0  0  0  0  0  0  0  0  0
    9.4542  -14.9274   23.2157 O   0  0  0  0  0  0  0  0  0  0  0  0
    8.0267  -13.5674   24.4668 N   0  0  0  0  0  0  0  0  0  0  0  0
    7.2725  -12.2996   24.4069 C   0  0  0  0  0  0  0  0  0  0  0  0
    6.3476  -12.3439   25.5782 C   0  0  0  0  0  0  0  0  0  0  0  0
    6.9792  -13.3113   26.5178 C   0  0  0  0  0  0  0  0  0  0  0  0
    8.2886  -13.7386   25.8460 C   0  0  1  0  0  0  0  0  0  0  0  0
    8.5421  -15.1040   26.3214 C   0  0  0  0  0  0  0  0  0  0  0  0
    7.7910  -16.0829   26.2812 O   0  0  0  0  0  0  0  0  0  0  0  0
   13.2848  -18.8105   26.5724 N   0  0  0  0  0  0  0  0  0  0  0  0
   12.0415  -18.3304   27.0625 C   0  0  0  0  0  0  0  0  0  0  0  0
   11.4088  -19.0536   27.8649 O   0  0  0  0  0  0  0  0  0  0  0  0
   11.4975  -17.0379   26.6580 C   0  0  0  0  0  0  0  0  0  0  0  0
   10.2587  -16.6221   27.4000 C   0  0  2  0  0  0  0  0  0  0  0  0
    9.8328  -15.3325   26.9109 N   0  0  0  0  0  0  0  0  0  0  0  0
   10.5560  -16.6265   28.8300 C   0  0  0  0  0  0  0  0  0  0  0  0
   10.8246  -15.5640   29.4233 O   0  0  0  0  0  0  0  0  0  0  0  0
   10.5432  -17.8047   29.5409 O   0  0  0  0  0  0  0  0  0  0  0  0
  2  1  1  6
  3  2  1  0
  4  3  1  0
  4  5  1  0
  6  5  1  0
  6  7  1  0
  8  2  1  0
  9  8  2  0
 10  8  1  0
 10 14  1  0
 11 10  1  0
 12 11  1  0
 12 13  1  0
 13 14  1  0
 15 22  1  0
 14 15  1  6
 16 15  2  0
 18 17  1  0
 18 19  2  0
 20 18  1  0
 21 22  1  0
 21 20  1  6
 23 21  1  0
 24 23  2  0
 25 23  1  0
M  END
$$$$
