KPN.pdb
     RDKit          3D

 25 25  0  0  1  0  0  0  0  0999 V2000
    8.3633  -15.3549   21.4304 N   0  0  0  0  0  0  0  0  0  0  0  0
    7.4345  -15.0868   22.5232 C   0  0  1  0  0  0  0  0  0  0  0  0
    6.6006  -16.3332   22.7942 C   0  0  0  0  0  0  0  0  0  0  0  0
    7.4008  -17.5767   22.8575 C   0  0  0  0  0  0  0  0  0  0  0  0
    6.7069  -18.8473   23.1424 C   0  0  0  0  0  0  0  0  0  0  0  0
    7.5429  -20.0720   23.2467 C   0  0  0  0  0  0  0  0  0  0  0  0
    7.7386  -20.3561   24.6756 N   0  0  0  0  0  0  0  0  0  0  0  0
    8.2492  -14.7603   23.7240 C   0  0  0  0  0  0  0  0  0  0  0  0
    9.3581  -15.3914   23.8323 O   0  0  0  0  0  0  0  0  0  0  0  0
    7.8705  -13.8215   24.7126 N   0  0  0  0  0  0  0  0  0  0  0  0
    6.9882  -12.6848   24.3822 C   0  0  0  0  0  0  0  0  0  0  0  0
    6.0929  -12.5326   25.5675 C   0  0  0  0  0  0  0  0  0  0  0  0
    6.8373  -13.1779   26.6844 C   0  0  0  0  0  0  0  0  0  0  0  0
    8.1723  -13.6271   26.0805 C   0  0  1  0  0  0  0  0  0  0  0  0
    8.5738  -14.8055   26.8582 C   0  0  0  0  0  0  0  0  0  0  0  0
    7.8805  -15.7621   27.2160 O   0  0  0  0  0  0  0  0  0  0  0  0
   12.6980  -15.4253   25.4611 N   0  0  0  0  0  0  0  0  0  0  0  0
   12.0989  -16.3936   26.3095 C   0  0  0  0  0  0  0  0  0  0  0  0
   11.7323  -17.4755   25.7975 O   0  0  0  0  0  0  0  0  0  0  0  0
   11.9059  -16.1580   27.7369 C   0  0  0  0  0  0  0  0  0  0  0  0
   10.4867  -15.8662   28.1352 C   0  0  2  0  0  0  0  0  0  0  0  0
    9.9543  -14.8531   27.2555 N   0  0  0  0  0  0  0  0  0  0  0  0
   10.4756  -15.4718   29.5415 C   0  0  0  0  0  0  0  0  0  0  0  0
   10.8198  -16.2782   30.4271 O   0  0  0  0  0  0  0  0  0  0  0  0
   10.0845  -14.2040   29.9068 O   0  0  0  0  0  0  0  0  0  0  0  0
  2  1  1  6
  3  2  1  0
  4  3  1  0
  4  5  1  0
  6  5  1  0
  6  7  1  0
  8  2  1  0
  9  8  2  0
 10  8  1  0
 10 14  1  0
 11 10  1  0
 12 11  1  0
 12 13  1  0
 13 14  1  0
 15 22  1  0
 14 15  1  1
 16 15  2  0
 18 17  1  0
 18 19  2  0
 20 18  1  0
 21 22  1  0
 21 20  1  6
 23 21  1  0
 24 23  2  0
 25 23  1  0
M  END
$$$$
