KPN.pdb
     RDKit          3D

 25 25  0  0  1  0  0  0  0  0999 V2000
   10.4830  -17.5353   16.1270 N   0  0  0  0  0  0  0  0  0  0  0  0
   10.3974  -16.2312   16.7756 C   0  0  1  0  0  0  0  0  0  0  0  0
    8.9693  -15.7094   16.6738 C   0  0  0  0  0  0  0  0  0  0  0  0
    8.5204  -15.4855   15.2812 C   0  0  0  0  0  0  0  0  0  0  0  0
    7.1614  -14.9571   15.0555 C   0  0  0  0  0  0  0  0  0  0  0  0
    6.7506  -14.7115   13.6482 C   0  0  0  0  0  0  0  0  0  0  0  0
    5.3453  -14.2805   13.6643 N   0  0  0  0  0  0  0  0  0  0  0  0
   10.7571  -16.4257   18.2057 C   0  0  0  0  0  0  0  0  0  0  0  0
   10.3119  -17.4956   18.7507 O   0  0  0  0  0  0  0  0  0  0  0  0
   11.5379  -15.5194   18.9614 N   0  0  0  0  0  0  0  0  0  0  0  0
   12.3456  -14.4766   18.2982 C   0  0  0  0  0  0  0  0  0  0  0  0
   12.2196  -13.2740   19.1744 C   0  0  0  0  0  0  0  0  0  0  0  0
   11.8403  -13.8197   20.5071 C   0  0  0  0  0  0  0  0  0  0  0  0
   11.8218  -15.3425   20.3355 C   0  0  1  0  0  0  0  0  0  0  0  0
   10.8282  -15.8304   21.2994 C   0  0  0  0  0  0  0  0  0  0  0  0
    9.6730  -15.4337   21.4786 O   0  0  0  0  0  0  0  0  0  0  0  0
    9.1929  -18.8395   21.2378 N   0  0  0  0  0  0  0  0  0  0  0  0
    9.8665  -19.5494   22.2667 C   0  0  0  0  0  0  0  0  0  0  0  0
    9.8493  -20.8004   22.2241 O   0  0  0  0  0  0  0  0  0  0  0  0
   10.5641  -18.8644   23.3504 C   0  0  0  0  0  0  0  0  0  0  0  0
   10.4961  -17.3646   23.2870 C   0  0  2  0  0  0  0  0  0  0  0  0
   11.2544  -16.9112   22.1456 N   0  0  0  0  0  0  0  0  0  0  0  0
   10.9859  -16.8282   24.5542 C   0  0  0  0  0  0  0  0  0  0  0  0
   10.2726  -16.8675   25.5754 O   0  0  0  0  0  0  0  0  0  0  0  0
   12.2419  -16.2721   24.6367 O   0  0  0  0  0  0  0  0  0  0  0  0
  2  1  1  6
  3  2  1  0
  4  3  1  0
  4  5  1  0
  6  5  1  0
  6  7  1  0
  8  2  1  0
  9  8  2  0
 10  8  1  0
 10 14  1  0
 11 10  1  0
 12 11  1  0
 12 13  1  0
 13 14  1  0
 15 22  1  0
 14 15  1  1
 16 15  2  0
 18 17  1  0
 18 19  2  0
 20 18  1  0
 21 22  1  0
 21 20  1  1
 23 21  1  0
 24 23  2  0
 25 23  1  0
M  END
$$$$
