KPN.pdb
     RDKit          3D

 25 25  0  0  1  0  0  0  0  0999 V2000
    9.4966  -16.1447   15.8830 N   0  0  0  0  0  0  0  0  0  0  0  0
    8.5150  -15.6428   16.8386 C   0  0  1  0  0  0  0  0  0  0  0  0
    7.4550  -16.7103   17.0813 C   0  0  0  0  0  0  0  0  0  0  0  0
    8.0194  -18.0444   17.3857 C   0  0  0  0  0  0  0  0  0  0  0  0
    7.0918  -19.1431   17.7161 C   0  0  0  0  0  0  0  0  0  0  0  0
    7.6868  -20.4753   18.0006 C   0  0  0  0  0  0  0  0  0  0  0  0
    6.5831  -21.4031   18.2863 N   0  0  0  0  0  0  0  0  0  0  0  0
    9.2390  -15.3606   18.1070 C   0  0  0  0  0  0  0  0  0  0  0  0
   10.2078  -16.1514   18.3822 O   0  0  0  0  0  0  0  0  0  0  0  0
    8.9194  -14.3006   18.9881 N   0  0  0  0  0  0  0  0  0  0  0  0
    8.3287  -13.0452   18.4831 C   0  0  0  0  0  0  0  0  0  0  0  0
    7.3273  -12.6458   19.5162 C   0  0  0  0  0  0  0  0  0  0  0  0
    7.7725  -13.3387   20.7570 C   0  0  0  0  0  0  0  0  0  0  0  0
    9.0640  -14.0705   20.3759 C   0  0  1  0  0  0  0  0  0  0  0  0
    9.1185  -15.2455   21.2538 C   0  0  0  0  0  0  0  0  0  0  0  0
    8.2521  -16.1047   21.4416 O   0  0  0  0  0  0  0  0  0  0  0  0
   12.5518  -18.5983   21.2873 N   0  0  0  0  0  0  0  0  0  0  0  0
   12.6157  -17.2462   21.7163 C   0  0  0  0  0  0  0  0  0  0  0  0
   13.1988  -16.4228   20.9753 O   0  0  0  0  0  0  0  0  0  0  0  0
   12.0277  -16.8061   22.9776 C   0  0  0  0  0  0  0  0  0  0  0  0
   10.5557  -16.5117   22.9110 C   0  0  2  0  0  0  0  0  0  0  0  0
   10.3395  -15.4200   21.9917 N   0  0  0  0  0  0  0  0  0  0  0  0
   10.0818  -16.2287   24.2633 C   0  0  0  0  0  0  0  0  0  0  0  0
    9.6989  -15.0837   24.5725 O   0  0  0  0  0  0  0  0  0  0  0  0
   10.0520  -17.2233   25.2138 O   0  0  0  0  0  0  0  0  0  0  0  0
  2  1  1  6
  3  2  1  0
  4  3  1  0
  4  5  1  0
  6  5  1  0
  6  7  1  0
  8  2  1  0
  9  8  2  0
 10  8  1  0
 10 14  1  0
 11 10  1  0
 12 11  1  0
 12 13  1  0
 13 14  1  0
 15 22  1  0
 14 15  1  1
 16 15  2  0
 18 17  1  0
 18 19  2  0
 20 18  1  0
 21 22  1  0
 21 20  1  1
 23 21  1  0
 24 23  2  0
 25 23  1  0
M  END
$$$$
