KPN.pdb
     RDKit          3D

 25 25  0  0  1  0  0  0  0  0999 V2000
   10.0988  -14.9861   15.2947 N   0  0  0  0  0  0  0  0  0  0  0  0
    9.0473  -15.0665   16.3029 C   0  0  1  0  0  0  0  0  0  0  0  0
    8.4839  -16.4820   16.3331 C   0  0  0  0  0  0  0  0  0  0  0  0
    7.8679  -16.8998   15.0537 C   0  0  0  0  0  0  0  0  0  0  0  0
    7.2973  -18.2569   14.9565 C   0  0  0  0  0  0  0  0  0  0  0  0
    6.7150  -18.6596   13.6494 C   0  0  0  0  0  0  0  0  0  0  0  0
    6.3496  -20.0802   13.7445 N   0  0  0  0  0  0  0  0  0  0  0  0
    9.6704  -14.7490   17.6157 C   0  0  0  0  0  0  0  0  0  0  0  0
   10.8427  -15.2280   17.8054 O   0  0  0  0  0  0  0  0  0  0  0  0
    9.0521  -13.9727   18.6243 N   0  0  0  0  0  0  0  0  0  0  0  0
    8.1988  -12.8186   18.2783 C   0  0  0  0  0  0  0  0  0  0  0  0
    7.0752  -12.8598   19.2609 C   0  0  0  0  0  0  0  0  0  0  0  0
    7.6092  -13.6456   20.4077 C   0  0  0  0  0  0  0  0  0  0  0  0
    9.0599  -13.9740   20.0385 C   0  0  1  0  0  0  0  0  0  0  0  0
    9.3544  -15.2447   20.7116 C   0  0  0  0  0  0  0  0  0  0  0  0
    8.9053  -16.3675   20.4631 O   0  0  0  0  0  0  0  0  0  0  0  0
   13.8926  -17.5111   23.9452 N   0  0  0  0  0  0  0  0  0  0  0  0
   12.8497  -17.6061   22.9862 C   0  0  0  0  0  0  0  0  0  0  0  0
   12.4471  -18.7482   22.6688 O   0  0  0  0  0  0  0  0  0  0  0  0
   12.2501  -16.4238   22.3756 C   0  0  0  0  0  0  0  0  0  0  0  0
   10.7565  -16.3385   22.5151 C   0  0  2  0  0  0  0  0  0  0  0  0
   10.2872  -15.1740   21.8028 N   0  0  0  0  0  0  0  0  0  0  0  0
   10.4282  -16.3145   23.9382 C   0  0  0  0  0  0  0  0  0  0  0  0
   10.4310  -15.2402   24.5698 O   0  0  0  0  0  0  0  0  0  0  0  0
   10.1115  -17.4786   24.6001 O   0  0  0  0  0  0  0  0  0  0  0  0
  2  1  1  6
  3  2  1  0
  4  3  1  0
  4  5  1  0
  6  5  1  0
  6  7  1  0
  8  2  1  0
  9  8  2  0
 10  8  1  0
 10 14  1  0
 11 10  1  0
 12 11  1  0
 12 13  1  0
 13 14  1  0
 15 22  1  0
 14 15  1  1
 16 15  2  0
 18 17  1  0
 18 19  2  0
 20 18  1  0
 21 22  1  0
 21 20  1  1
 23 21  1  0
 24 23  2  0
 25 23  1  0
M  END
$$$$
