KPN.pdb
     RDKit          3D

 25 25  0  0  1  0  0  0  0  0999 V2000
   10.1219  -14.6462   15.3435 N   0  0  0  0  0  0  0  0  0  0  0  0
    9.2599  -15.2848   16.3324 C   0  0  1  0  0  0  0  0  0  0  0  0
    9.3202  -16.7969   16.1534 C   0  0  0  0  0  0  0  0  0  0  0  0
    8.0105  -17.4060   15.8303 C   0  0  0  0  0  0  0  0  0  0  0  0
    7.8278  -18.0200   14.5012 C   0  0  0  0  0  0  0  0  0  0  0  0
    6.5091  -18.6428   14.2135 C   0  0  0  0  0  0  0  0  0  0  0  0
    6.5924  -19.2661   12.8848 N   0  0  0  0  0  0  0  0  0  0  0  0
    9.7844  -14.9197   17.6756 C   0  0  0  0  0  0  0  0  0  0  0  0
   10.9107  -15.4395   17.9930 O   0  0  0  0  0  0  0  0  0  0  0  0
    9.1225  -14.0583   18.5823 N   0  0  0  0  0  0  0  0  0  0  0  0
    8.2712  -12.9541   18.0970 C   0  0  0  0  0  0  0  0  0  0  0  0
    7.1133  -12.9155   19.0389 C   0  0  0  0  0  0  0  0  0  0  0  0
    7.6130  -13.5805   20.2742 C   0  0  0  0  0  0  0  0  0  0  0  0
    9.0792  -13.9238   19.9894 C   0  0  1  0  0  0  0  0  0  0  0  0
    9.3614  -15.1200   20.7918 C   0  0  0  0  0  0  0  0  0  0  0  0
    8.8030  -16.2203   20.7526 O   0  0  0  0  0  0  0  0  0  0  0  0
   13.8466  -15.0395   21.2050 N   0  0  0  0  0  0  0  0  0  0  0  0
   13.0434  -16.1179   21.6615 C   0  0  0  0  0  0  0  0  0  0  0  0
   13.0203  -17.1639   20.9740 O   0  0  0  0  0  0  0  0  0  0  0  0
   12.2604  -16.0334   22.8903 C   0  0  0  0  0  0  0  0  0  0  0  0
   10.7721  -16.0393   22.6839 C   0  0  2  0  0  0  0  0  0  0  0  0
   10.4268  -14.9955   21.7485 N   0  0  0  0  0  0  0  0  0  0  0  0
   10.1268  -15.8836   23.9849 C   0  0  0  0  0  0  0  0  0  0  0  0
    9.4465  -14.8702   24.2361 O   0  0  0  0  0  0  0  0  0  0  0  0
   10.2618  -16.8547   24.9505 O   0  0  0  0  0  0  0  0  0  0  0  0
  2  1  1  6
  3  2  1  0
  4  3  1  0
  4  5  1  0
  6  5  1  0
  6  7  1  0
  8  2  1  0
  9  8  2  0
 10  8  1  0
 10 14  1  0
 11 10  1  0
 12 11  1  0
 12 13  1  0
 13 14  1  0
 15 22  1  0
 14 15  1  1
 16 15  2  0
 18 17  1  0
 18 19  2  0
 20 18  1  0
 21 22  1  0
 21 20  1  1
 23 21  1  0
 24 23  2  0
 25 23  1  0
M  END
$$$$
