KPN.pdb
     RDKit          3D

 25 25  0  0  1  0  0  0  0  0999 V2000
    8.6289  -16.8294   16.2723 N   0  0  0  0  0  0  0  0  0  0  0  0
    7.8182  -16.2989   17.3631 C   0  0  1  0  0  0  0  0  0  0  0  0
    6.8869  -17.3901   17.8769 C   0  0  0  0  0  0  0  0  0  0  0  0
    6.5734  -18.4237   16.8648 C   0  0  0  0  0  0  0  0  0  0  0  0
    6.6599  -19.8433   17.2575 C   0  0  0  0  0  0  0  0  0  0  0  0
    6.2261  -20.8545   16.2580 C   0  0  0  0  0  0  0  0  0  0  0  0
    6.4339  -22.1832   16.8514 N   0  0  0  0  0  0  0  0  0  0  0  0
    8.7512  -15.8879   18.4462 C   0  0  0  0  0  0  0  0  0  0  0  0
    9.7692  -16.6449   18.6203 O   0  0  0  0  0  0  0  0  0  0  0  0
    8.5730  -14.7443   19.2602 N   0  0  0  0  0  0  0  0  0  0  0  0
    7.8676  -13.5518   18.7504 C   0  0  0  0  0  0  0  0  0  0  0  0
    7.0644  -13.0537   19.9064 C   0  0  0  0  0  0  0  0  0  0  0  0
    7.7484  -13.6115   21.1058 C   0  0  0  0  0  0  0  0  0  0  0  0
    8.9655  -14.3708   20.5664 C   0  0  1  0  0  0  0  0  0  0  0  0
    9.2111  -15.4483   21.5325 C   0  0  0  0  0  0  0  0  0  0  0  0
    8.4545  -16.3631   21.8713 O   0  0  0  0  0  0  0  0  0  0  0  0
   13.6183  -18.5382   23.7950 N   0  0  0  0  0  0  0  0  0  0  0  0
   12.9821  -17.3350   24.1997 C   0  0  0  0  0  0  0  0  0  0  0  0
   12.9105  -17.0931   25.4259 O   0  0  0  0  0  0  0  0  0  0  0  0
   12.4214  -16.3940   23.2351 C   0  0  0  0  0  0  0  0  0  0  0  0
   10.9256  -16.4514   23.1039 C   0  0  2  0  0  0  0  0  0  0  0  0
   10.5003  -15.4382   22.1677 N   0  0  0  0  0  0  0  0  0  0  0  0
   10.3409  -16.2900   24.4326 C   0  0  0  0  0  0  0  0  0  0  0  0
   10.0303  -15.1590   24.8536 O   0  0  0  0  0  0  0  0  0  0  0  0
   10.1254  -17.3856   25.2369 O   0  0  0  0  0  0  0  0  0  0  0  0
  2  1  1  6
  3  2  1  0
  4  3  1  0
  4  5  1  0
  6  5  1  0
  6  7  1  0
  8  2  1  0
  9  8  2  0
 10  8  1  0
 10 14  1  0
 11 10  1  0
 12 11  1  0
 12 13  1  0
 13 14  1  0
 15 22  1  0
 14 15  1  1
 16 15  2  0
 18 17  1  0
 18 19  2  0
 20 18  1  0
 21 22  1  0
 21 20  1  1
 23 21  1  0
 24 23  2  0
 25 23  1  0
M  END
$$$$
