KPN.pdb
     RDKit          3D

 25 25  0  0  1  0  0  0  0  0999 V2000
    5.7158  -18.9845   23.0737 N   0  0  0  0  0  0  0  0  0  0  0  0
    6.4037  -17.8183   23.6172 C   0  0  1  0  0  0  0  0  0  0  0  0
    7.0388  -18.1840   24.9533 C   0  0  0  0  0  0  0  0  0  0  0  0
    7.8770  -17.1055   25.5235 C   0  0  0  0  0  0  0  0  0  0  0  0
    7.9937  -17.0053   26.9909 C   0  0  0  0  0  0  0  0  0  0  0  0
    8.9268  -17.9450   27.6663 C   0  0  0  0  0  0  0  0  0  0  0  0
    9.0115  -17.5484   29.0791 N   0  0  0  0  0  0  0  0  0  0  0  0
    7.4656  -17.4409   22.6464 C   0  0  0  0  0  0  0  0  0  0  0  0
    8.4047  -18.2970   22.4884 O   0  0  0  0  0  0  0  0  0  0  0  0
    7.4848  -16.2279   21.9181 N   0  0  0  0  0  0  0  0  0  0  0  0
    6.2327  -15.6112   21.4368 C   0  0  0  0  0  0  0  0  0  0  0  0
    6.4304  -14.1423   21.6179 C   0  0  0  0  0  0  0  0  0  0  0  0
    7.9085  -13.9650   21.6548 C   0  0  0  0  0  0  0  0  0  0  0  0
    8.4939  -15.3639   21.4332 C   0  0  1  0  0  0  0  0  0  0  0  0
    9.7804  -15.3635   22.1400 C   0  0  0  0  0  0  0  0  0  0  0  0
   10.0305  -14.9589   23.2792 O   0  0  0  0  0  0  0  0  0  0  0  0
   14.6368  -16.6396   23.3416 N   0  0  0  0  0  0  0  0  0  0  0  0
   13.4324  -17.2445   23.7886 C   0  0  0  0  0  0  0  0  0  0  0  0
   13.5001  -18.0491   24.7453 O   0  0  0  0  0  0  0  0  0  0  0  0
   12.1437  -16.9533   23.1682 C   0  0  0  0  0  0  0  0  0  0  0  0
   12.2162  -16.0385   21.9783 C   0  0  2  0  0  0  0  0  0  0  0  0
   10.8952  -15.9046   21.4119 N   0  0  0  0  0  0  0  0  0  0  0  0
   13.1934  -16.5824   21.0390 C   0  0  0  0  0  0  0  0  0  0  0  0
   12.9668  -17.6506   20.4384 O   0  0  0  0  0  0  0  0  0  0  0  0
   14.3778  -15.9219   20.8050 O   0  0  0  0  0  0  0  0  0  0  0  0
  2  1  1  6
  3  2  1  0
  4  3  1  0
  4  5  1  0
  6  5  1  0
  6  7  1  0
  8  2  1  0
  9  8  2  0
 10  8  1  0
 10 14  1  0
 11 10  1  0
 12 11  1  0
 12 13  1  0
 13 14  1  0
 15 22  1  0
 14 15  1  1
 16 15  2  0
 18 17  1  0
 18 19  2  0
 20 18  1  0
 21 22  1  0
 21 20  1  1
 23 21  1  0
 24 23  2  0
 25 23  1  0
M  END
$$$$
