KPN.pdb
     RDKit          3D

 25 25  0  0  1  0  0  0  0  0999 V2000
    8.0554  -13.8628   20.9353 N   0  0  0  0  0  0  0  0  0  0  0  0
    7.1984  -14.0387   22.1029 C   0  0  1  0  0  0  0  0  0  0  0  0
    6.3123  -15.2615   21.8992 C   0  0  0  0  0  0  0  0  0  0  0  0
    7.0720  -16.5032   21.6312 C   0  0  0  0  0  0  0  0  0  0  0  0
    6.3268  -17.7691   21.4928 C   0  0  0  0  0  0  0  0  0  0  0  0
    7.1218  -19.0112   21.3061 C   0  0  0  0  0  0  0  0  0  0  0  0
    6.1761  -20.1166   21.0952 N   0  0  0  0  0  0  0  0  0  0  0  0
    8.0888  -14.2568   23.2743 C   0  0  0  0  0  0  0  0  0  0  0  0
    9.0951  -15.0227   23.0730 O   0  0  0  0  0  0  0  0  0  0  0  0
    7.8835  -13.6796   24.5497 N   0  0  0  0  0  0  0  0  0  0  0  0
    7.1215  -12.4242   24.7014 C   0  0  0  0  0  0  0  0  0  0  0  0
    6.3242  -12.6042   25.9511 C   0  0  0  0  0  0  0  0  0  0  0  0
    7.0549  -13.6542   26.7136 C   0  0  0  0  0  0  0  0  0  0  0  0
    8.2889  -13.9892   25.8687 C   0  0  1  0  0  0  0  0  0  0  0  0
    8.5967  -15.3925   26.1695 C   0  0  0  0  0  0  0  0  0  0  0  0
    7.8665  -16.3810   26.0523 O   0  0  0  0  0  0  0  0  0  0  0  0
   12.5815  -19.4769   25.8081 N   0  0  0  0  0  0  0  0  0  0  0  0
   12.3875  -18.4412   26.7600 C   0  0  0  0  0  0  0  0  0  0  0  0
   12.7809  -18.6403   27.9317 O   0  0  0  0  0  0  0  0  0  0  0  0
   11.7518  -17.1755   26.4076 C   0  0  0  0  0  0  0  0  0  0  0  0
   10.3898  -16.9722   27.0088 C   0  0  2  0  0  0  0  0  0  0  0  0
    9.9208  -15.6510   26.6652 N   0  0  0  0  0  0  0  0  0  0  0  0
   10.4853  -17.1933   28.4494 C   0  0  0  0  0  0  0  0  0  0  0  0
   10.5911  -18.3479   28.9063 O   0  0  0  0  0  0  0  0  0  0  0  0
   10.4597  -16.1288   29.3211 O   0  0  0  0  0  0  0  0  0  0  0  0
  2  1  1  6
  3  2  1  0
  4  3  1  0
  4  5  1  0
  6  5  1  0
  6  7  1  0
  8  2  1  0
  9  8  2  0
 10  8  1  0
 10 14  1  0
 11 10  1  0
 12 11  1  0
 12 13  1  0
 13 14  1  0
 15 22  1  0
 14 15  1  6
 16 15  2  0
 18 17  1  0
 18 19  2  0
 20 18  1  0
 21 22  1  0
 21 20  1  6
 23 21  1  0
 24 23  2  0
 25 23  1  0
M  END
$$$$
