NVY.pdb
     RDKit          3D

 28 28  0  0  1  0  0  0  0  0999 V2000
    3.8005  -20.1342   23.0660 N   0  0  0  0  0  0  0  0  0  0  0  0
    5.0816  -19.9770   23.6479 C   0  0  0  0  0  0  0  0  0  0  0  0
    5.2797  -20.6369   24.7263 O   0  0  0  0  0  0  0  0  0  0  0  0
    6.1786  -19.1572   23.1569 C   0  0  0  0  0  0  0  0  0  0  0  0
    5.8707  -18.2459   22.0225 C   0  0  2  0  0  0  0  0  0  0  0  0
    5.2863  -18.8958   20.8686 N   0  0  0  0  0  0  0  0  0  0  0  0
    7.0379  -17.3970   21.6755 C   0  0  0  0  0  0  0  0  0  0  0  0
    8.1091  -17.9497   21.2526 O   0  0  0  0  0  0  0  0  0  0  0  0
    7.1899  -14.2922   19.5100 C   0  0  0  0  0  0  0  0  0  0  0  0
    7.8970  -13.9485   20.7978 C   0  0  1  0  0  0  0  0  0  0  0  0
    7.0233  -13.0417   21.6372 C   0  0  0  0  0  0  0  0  0  0  0  0
    8.2677  -15.2066   21.5030 C   0  0  2  0  0  0  0  0  0  0  0  0
    7.0733  -15.9906   21.7768 N   0  0  0  0  0  0  0  0  0  0  0  0
    8.9793  -14.9051   22.7813 C   0  0  0  0  0  0  0  0  0  0  0  0
    8.8651  -13.7646   23.2767 O   0  0  0  0  0  0  0  0  0  0  0  0
    5.2725  -12.4356   26.5410 O   0  0  0  0  0  0  0  0  0  0  0  0
    6.3488  -13.2956   26.3683 C   0  0  0  0  0  0  0  0  0  0  0  0
    6.1861  -14.6286   26.0171 C   0  0  0  0  0  0  0  0  0  0  0  0
    7.2410  -15.4825   25.8448 C   0  0  0  0  0  0  0  0  0  0  0  0
    8.5342  -15.0409   26.0175 C   0  0  0  0  0  0  0  0  0  0  0  0
    9.7092  -15.9212   25.8564 C   0  0  0  0  0  0  0  0  0  0  0  0
   10.4873  -15.5605   24.6287 C   0  0  2  0  0  0  0  0  0  0  0  0
    9.7626  -15.8876   23.4140 N   0  0  0  0  0  0  0  0  0  0  0  0
   11.8378  -16.1068   24.5469 C   0  0  0  0  0  0  0  0  0  0  0  0
   12.7564  -15.8497   25.5717 O   0  0  0  0  0  0  0  0  0  0  0  0
    8.7208  -13.7149   26.3681 C   0  0  0  0  0  0  0  0  0  0  0  0
    7.6510  -12.8647   26.5387 C   0  0  0  0  0  0  0  0  0  0  0  0
   12.2735  -16.8148   23.6067 O   0  0  0  0  0  0  0  0  0  0  0  0
  1  2  1  0
  2  3  2  0
  4  2  1  0
  5  4  1  0
  5  6  1  6
  7  5  1  0
  7  8  2  0
 10 12  1  0
 10  9  1  6
 11 10  1  0
 12 13  1  1
 13  7  1  0
 14 15  2  0
 14 12  1  0
 16 17  1  0
 17 18  2  0
 18 19  1  0
 20 21  1  0
 20 19  2  0
 22 21  1  1
 22 23  1  0
 23 14  1  0
 24 22  1  0
 25 24  1  0
 26 20  1  0
 27 26  2  0
 27 17  1  0
 28 24  2  0
M  END
$$$$
