NVY.pdb
     RDKit          3D

 28 28  0  0  1  0  0  0  0  0999 V2000
   10.2183  -20.4651   17.9660 N   0  0  0  0  0  0  0  0  0  0  0  0
   10.1709  -20.3026   19.3716 C   0  0  0  0  0  0  0  0  0  0  0  0
   10.0663  -21.3849   20.0464 O   0  0  0  0  0  0  0  0  0  0  0  0
   10.2273  -19.0548   20.1175 C   0  0  0  0  0  0  0  0  0  0  0  0
   10.2434  -17.8021   19.3162 C   0  0  2  0  0  0  0  0  0  0  0  0
   11.3824  -17.6657   18.4333 N   0  0  0  0  0  0  0  0  0  0  0  0
   10.0315  -16.6074   20.1713 C   0  0  0  0  0  0  0  0  0  0  0  0
   10.9812  -16.1998   20.9221 O   0  0  0  0  0  0  0  0  0  0  0  0
    7.2523  -12.8361   21.7477 C   0  0  0  0  0  0  0  0  0  0  0  0
    7.4887  -13.9252   20.7305 C   0  0  1  0  0  0  0  0  0  0  0  0
    7.7020  -13.3132   19.3630 C   0  0  0  0  0  0  0  0  0  0  0  0
    8.6361  -14.7656   21.1716 C   0  0  2  0  0  0  0  0  0  0  0  0
    8.8372  -15.8596   20.2341 N   0  0  0  0  0  0  0  0  0  0  0  0
    8.3953  -15.3107   22.5414 C   0  0  0  0  0  0  0  0  0  0  0  0
    8.6845  -16.5034   22.7716 O   0  0  0  0  0  0  0  0  0  0  0  0
   10.7265  -15.6364   30.7077 O   0  0  0  0  0  0  0  0  0  0  0  0
   10.4635  -15.4148   29.3625 C   0  0  0  0  0  0  0  0  0  0  0  0
   10.3398  -14.1390   28.8297 C   0  0  0  0  0  0  0  0  0  0  0  0
   10.0811  -13.9119   27.5056 C   0  0  0  0  0  0  0  0  0  0  0  0
    9.9301  -14.9655   26.6314 C   0  0  0  0  0  0  0  0  0  0  0  0
    9.6382  -14.7793   25.1956 C   0  0  0  0  0  0  0  0  0  0  0  0
    8.1621  -14.7699   24.9435 C   0  0  2  0  0  0  0  0  0  0  0  0
    7.8532  -14.4955   23.5517 N   0  0  0  0  0  0  0  0  0  0  0  0
    7.3755  -13.8848   25.7960 C   0  0  0  0  0  0  0  0  0  0  0  0
    7.4281  -12.4998   25.5985 O   0  0  0  0  0  0  0  0  0  0  0  0
   10.0492  -16.2473   27.1404 C   0  0  0  0  0  0  0  0  0  0  0  0
   10.3099  -16.4635   28.4752 C   0  0  0  0  0  0  0  0  0  0  0  0
    6.6248  -14.2614   26.7285 O   0  0  0  0  0  0  0  0  0  0  0  0
  1  2  1  0
  2  3  2  0
  4  2  1  0
  5  4  1  0
  5  6  1  1
  7  5  1  0
  7  8  2  0
 10 12  1  0
 10  9  1  1
 11 10  1  0
 12 13  1  6
 13  7  1  0
 14 15  2  0
 14 12  1  0
 16 17  1  0
 17 18  2  0
 18 19  1  0
 20 21  1  0
 20 19  2  0
 22 21  1  6
 22 23  1  0
 23 14  1  0
 24 22  1  0
 25 24  1  0
 26 20  1  0
 27 26  2  0
 27 17  1  0
 28 24  2  0
M  END
$$$$
