NVY.pdb
     RDKit          3D

 28 28  0  0  1  0  0  0  0  0999 V2000
    5.2219  -20.9412   21.7116 N   0  0  0  0  0  0  0  0  0  0  0  0
    5.7232  -20.1236   22.7531 C   0  0  0  0  0  0  0  0  0  0  0  0
    5.3607  -20.4554   23.9347 O   0  0  0  0  0  0  0  0  0  0  0  0
    6.5926  -18.9643   22.6235 C   0  0  0  0  0  0  0  0  0  0  0  0
    6.7848  -18.4286   21.2495 C   0  0  2  0  0  0  0  0  0  0  0  0
    7.2106  -19.4096   20.2740 N   0  0  0  0  0  0  0  0  0  0  0  0
    7.6379  -17.2138   21.2544 C   0  0  0  0  0  0  0  0  0  0  0  0
    8.8933  -17.3309   21.0496 O   0  0  0  0  0  0  0  0  0  0  0  0
    8.2558  -12.3406   21.1547 C   0  0  0  0  0  0  0  0  0  0  0  0
    7.3403  -13.5351   21.0459 C   0  0  1  0  0  0  0  0  0  0  0  0
    6.8480  -13.6769   19.6220 C   0  0  0  0  0  0  0  0  0  0  0  0
    8.0573  -14.7465   21.5316 C   0  0  2  0  0  0  0  0  0  0  0  0
    7.1732  -15.9004   21.4751 N   0  0  0  0  0  0  0  0  0  0  0  0
    8.5415  -14.5479   22.9306 C   0  0  0  0  0  0  0  0  0  0  0  0
    7.9972  -13.6721   23.6349 O   0  0  0  0  0  0  0  0  0  0  0  0
    6.2192  -10.7520   27.3182 O   0  0  0  0  0  0  0  0  0  0  0  0
    6.7729  -11.9539   26.8981 C   0  0  0  0  0  0  0  0  0  0  0  0
    6.0010  -12.9926   26.3960 C   0  0  0  0  0  0  0  0  0  0  0  0
    6.5386  -14.1798   25.9797 C   0  0  0  0  0  0  0  0  0  0  0  0
    7.8977  -14.3937   26.0450 C   0  0  0  0  0  0  0  0  0  0  0  0
    8.5305  -15.6591   25.6211 C   0  0  0  0  0  0  0  0  0  0  0  0
    9.8049  -15.4009   24.8782 C   0  0  2  0  0  0  0  0  0  0  0  0
    9.5901  -15.3327   23.4440 N   0  0  0  0  0  0  0  0  0  0  0  0
   10.9033  -16.3195   25.1586 C   0  0  0  0  0  0  0  0  0  0  0  0
   11.4532  -16.3756   26.4449 O   0  0  0  0  0  0  0  0  0  0  0  0
    8.6876  -13.3716   26.5426 C   0  0  0  0  0  0  0  0  0  0  0  0
    8.1350  -12.1808   26.9586 C   0  0  0  0  0  0  0  0  0  0  0  0
   11.4245  -17.0969   24.3224 O   0  0  0  0  0  0  0  0  0  0  0  0
  1  2  1  0
  2  3  2  0
  4  2  1  0
  5  4  1  0
  5  6  1  6
  7  5  1  0
  7  8  2  0
 10 12  1  0
 10  9  1  6
 11 10  1  0
 12 13  1  1
 13  7  1  0
 14 15  2  0
 14 12  1  0
 16 17  1  0
 17 18  2  0
 18 19  1  0
 20 21  1  0
 20 19  2  0
 22 21  1  1
 22 23  1  0
 23 14  1  0
 24 22  1  0
 25 24  1  0
 26 20  1  0
 27 26  2  0
 27 17  1  0
 28 24  2  0
M  END
$$$$
