NVY.pdb
     RDKit          3D

 28 28  0  0  1  0  0  0  0  0999 V2000
    9.9869  -19.5811   15.9966 N   0  0  0  0  0  0  0  0  0  0  0  0
   10.3375  -19.3566   17.3498 C   0  0  0  0  0  0  0  0  0  0  0  0
   10.6296  -20.4052   18.0227 O   0  0  0  0  0  0  0  0  0  0  0  0
   10.3993  -18.0799   18.0447 C   0  0  0  0  0  0  0  0  0  0  0  0
    9.9075  -18.0631   19.4481 C   0  0  2  0  0  0  0  0  0  0  0  0
    8.6964  -18.8238   19.6717 N   0  0  0  0  0  0  0  0  0  0  0  0
    9.8240  -16.6789   19.9780 C   0  0  0  0  0  0  0  0  0  0  0  0
   10.8392  -15.9098   19.8794 O   0  0  0  0  0  0  0  0  0  0  0  0
    7.1839  -12.8744   21.6654 C   0  0  0  0  0  0  0  0  0  0  0  0
    7.2370  -14.2488   21.0451 C   0  0  1  0  0  0  0  0  0  0  0  0
    6.6558  -14.2047   19.6485 C   0  0  0  0  0  0  0  0  0  0  0  0
    8.6416  -14.7426   21.0698 C   0  0  2  0  0  0  0  0  0  0  0  0
    8.6901  -16.1195   20.6031 N   0  0  0  0  0  0  0  0  0  0  0  0
    9.2074  -14.6555   22.4495 C   0  0  0  0  0  0  0  0  0  0  0  0
    9.2495  -13.5411   23.0112 O   0  0  0  0  0  0  0  0  0  0  0  0
   10.8036  -14.8350   30.7602 O   0  0  0  0  0  0  0  0  0  0  0  0
   10.3639  -14.9340   29.4470 C   0  0  0  0  0  0  0  0  0  0  0  0
    9.8821  -16.1208   28.9120 C   0  0  0  0  0  0  0  0  0  0  0  0
    9.4467  -16.2269   27.6193 C   0  0  0  0  0  0  0  0  0  0  0  0
    9.4709  -15.1343   26.7809 C   0  0  0  0  0  0  0  0  0  0  0  0
    9.0249  -15.1944   25.3742 C   0  0  0  0  0  0  0  0  0  0  0  0
   10.1086  -15.7268   24.4884 C   0  0  2  0  0  0  0  0  0  0  0  0
    9.6833  -15.8071   23.1026 N   0  0  0  0  0  0  0  0  0  0  0  0
   10.6898  -17.0036   24.8896 C   0  0  0  0  0  0  0  0  0  0  0  0
   11.1401  -17.9011   23.9140 O   0  0  0  0  0  0  0  0  0  0  0  0
    9.9476  -13.9398   27.2928 C   0  0  0  0  0  0  0  0  0  0  0  0
   10.3831  -13.8451   28.5958 C   0  0  0  0  0  0  0  0  0  0  0  0
   10.8309  -17.3909   26.0750 O   0  0  0  0  0  0  0  0  0  0  0  0
  1  2  1  0
  2  3  2  0
  4  2  1  0
  5  4  1  0
  5  6  1  6
  7  5  1  0
  7  8  2  0
 10 12  1  0
 10  9  1  6
 11 10  1  0
 12 13  1  1
 13  7  1  0
 14 15  2  0
 14 12  1  0
 16 17  1  0
 17 18  2  0
 18 19  1  0
 20 21  1  0
 20 19  2  0
 22 21  1  1
 22 23  1  0
 23 14  1  0
 24 22  1  0
 25 24  1  0
 26 20  1  0
 27 26  2  0
 27 17  1  0
 28 24  2  0
M  END
$$$$
