NVY.pdb
     RDKit          3D

 28 28  0  0  1  0  0  0  0  0999 V2000
   10.2786  -17.6344   14.6576 N   0  0  0  0  0  0  0  0  0  0  0  0
    9.7024  -17.8894   15.9254 C   0  0  0  0  0  0  0  0  0  0  0  0
    9.4937  -19.1227   16.1958 O   0  0  0  0  0  0  0  0  0  0  0  0
    9.3282  -16.9127   16.9366 C   0  0  0  0  0  0  0  0  0  0  0  0
    9.5950  -17.2858   18.3513 C   0  0  2  0  0  0  0  0  0  0  0  0
    8.8428  -18.4280   18.8257 N   0  0  0  0  0  0  0  0  0  0  0  0
    9.4877  -16.1112   19.2525 C   0  0  0  0  0  0  0  0  0  0  0  0
    9.6350  -14.9377   18.7698 O   0  0  0  0  0  0  0  0  0  0  0  0
    7.4259  -13.1490   21.8577 C   0  0  0  0  0  0  0  0  0  0  0  0
    7.8023  -14.2549   20.9026 C   0  0  1  0  0  0  0  0  0  0  0  0
    8.0670  -13.6789   19.5285 C   0  0  0  0  0  0  0  0  0  0  0  0
    8.9701  -14.9984   21.4511 C   0  0  2  0  0  0  0  0  0  0  0  0
    9.2329  -16.1759   20.6383 N   0  0  0  0  0  0  0  0  0  0  0  0
    8.7191  -15.4059   22.8661 C   0  0  0  0  0  0  0  0  0  0  0  0
    7.6922  -16.0668   23.1267 O   0  0  0  0  0  0  0  0  0  0  0  0
    5.7572  -10.7882   27.0495 O   0  0  0  0  0  0  0  0  0  0  0  0
    6.2987  -12.0136   26.6850 C   0  0  0  0  0  0  0  0  0  0  0  0
    5.5092  -13.1019   26.3396 C   0  0  0  0  0  0  0  0  0  0  0  0
    6.0346  -14.3125   25.9791 C   0  0  0  0  0  0  0  0  0  0  0  0
    7.3986  -14.5011   25.9447 C   0  0  0  0  0  0  0  0  0  0  0  0
    8.0200  -15.7890   25.5749 C   0  0  0  0  0  0  0  0  0  0  0  0
    9.4625  -15.6071   25.2163 C   0  0  2  0  0  0  0  0  0  0  0  0
    9.6226  -15.0516   23.8846 N   0  0  0  0  0  0  0  0  0  0  0  0
   10.3065  -16.7897   25.3507 C   0  0  0  0  0  0  0  0  0  0  0  0
   11.0605  -17.2350   24.2582 O   0  0  0  0  0  0  0  0  0  0  0  0
    8.2060  -13.4295   26.2854 C   0  0  0  0  0  0  0  0  0  0  0  0
    7.6656  -12.2155   26.6466 C   0  0  0  0  0  0  0  0  0  0  0  0
   10.4268  -17.4749   26.3952 O   0  0  0  0  0  0  0  0  0  0  0  0
  1  2  1  0
  2  3  2  0
  4  2  1  0
  5  4  1  0
  5  6  1  1
  7  5  1  0
  7  8  2  0
 10 12  1  0
 10  9  1  1
 11 10  1  0
 12 13  1  6
 13  7  1  0
 14 15  2  0
 14 12  1  0
 16 17  1  0
 17 18  2  0
 18 19  1  0
 20 21  1  0
 20 19  2  0
 22 21  1  6
 22 23  1  0
 23 14  1  0
 24 22  1  0
 25 24  1  0
 26 20  1  0
 27 26  2  0
 27 17  1  0
 28 24  2  0
M  END
$$$$
