NVY.pdb
     RDKit          3D

 28 28  0  0  1  0  0  0  0  0999 V2000
    4.8910  -20.6087   23.7414 N   0  0  0  0  0  0  0  0  0  0  0  0
    5.2174  -19.9945   22.5082 C   0  0  0  0  0  0  0  0  0  0  0  0
    4.4827  -20.3306   21.5157 O   0  0  0  0  0  0  0  0  0  0  0  0
    6.2831  -19.0372   22.2546 C   0  0  0  0  0  0  0  0  0  0  0  0
    6.3182  -18.4258   20.8993 C   0  0  2  0  0  0  0  0  0  0  0  0
    6.4949  -19.3701   19.8164 N   0  0  0  0  0  0  0  0  0  0  0  0
    7.2768  -17.2941   20.8385 C   0  0  0  0  0  0  0  0  0  0  0  0
    8.5249  -17.5380   20.7179 O   0  0  0  0  0  0  0  0  0  0  0  0
    8.3724  -12.5079   20.5413 C   0  0  0  0  0  0  0  0  0  0  0  0
    7.3306  -13.5968   20.4657 C   0  0  1  0  0  0  0  0  0  0  0  0
    6.8355  -13.7358   19.0425 C   0  0  0  0  0  0  0  0  0  0  0  0
    7.9051  -14.8613   21.0026 C   0  0  2  0  0  0  0  0  0  0  0  0
    6.9231  -15.9304   20.9072 N   0  0  0  0  0  0  0  0  0  0  0  0
    8.3271  -14.6873   22.4249 C   0  0  0  0  0  0  0  0  0  0  0  0
    7.6108  -14.0009   23.1833 O   0  0  0  0  0  0  0  0  0  0  0  0
   10.3535  -15.2314   30.6651 O   0  0  0  0  0  0  0  0  0  0  0  0
    9.9645  -15.2784   29.3332 C   0  0  0  0  0  0  0  0  0  0  0  0
    9.6359  -14.1374   28.6141 C   0  0  0  0  0  0  0  0  0  0  0  0
    9.2520  -14.1749   27.3015 C   0  0  0  0  0  0  0  0  0  0  0  0
    9.1753  -15.3744   26.6288 C   0  0  0  0  0  0  0  0  0  0  0  0
    8.7556  -15.4751   25.2163 C   0  0  0  0  0  0  0  0  0  0  0  0
    9.8845  -15.1327   24.2938 C   0  0  2  0  0  0  0  0  0  0  0  0
    9.5086  -15.2852   22.8998 N   0  0  0  0  0  0  0  0  0  0  0  0
   11.1401  -15.8358   24.5349 C   0  0  0  0  0  0  0  0  0  0  0  0
   12.0600  -15.3223   25.4569 O   0  0  0  0  0  0  0  0  0  0  0  0
    9.4984  -16.5259   27.3260 C   0  0  0  0  0  0  0  0  0  0  0  0
    9.8836  -16.4756   28.6471 C   0  0  0  0  0  0  0  0  0  0  0  0
   11.4893  -16.9015   23.9716 O   0  0  0  0  0  0  0  0  0  0  0  0
  1  2  1  0
  2  3  2  0
  4  2  1  0
  5  4  1  0
  5  6  1  6
  7  5  1  0
  7  8  2  0
 10 12  1  0
 10  9  1  6
 11 10  1  0
 12 13  1  1
 13  7  1  0
 14 15  2  0
 14 12  1  0
 16 17  1  0
 17 18  2  0
 18 19  1  0
 20 21  1  0
 20 19  2  0
 22 21  1  1
 22 23  1  0
 23 14  1  0
 24 22  1  0
 25 24  1  0
 26 20  1  0
 27 26  2  0
 27 17  1  0
 28 24  2  0
M  END
$$$$
