NVY.pdb
     RDKit          3D

 28 28  0  0  1  0  0  0  0  0999 V2000
    6.9651  -13.0030   17.4123 N   0  0  0  0  0  0  0  0  0  0  0  0
    8.1945  -13.5760   17.8181 C   0  0  0  0  0  0  0  0  0  0  0  0
    9.1956  -13.3198   17.0632 O   0  0  0  0  0  0  0  0  0  0  0  0
    8.4355  -14.4123   18.9839 C   0  0  0  0  0  0  0  0  0  0  0  0
    8.7508  -15.8419   18.7220 C   0  0  2  0  0  0  0  0  0  0  0  0
    7.8077  -16.5187   17.8572 N   0  0  0  0  0  0  0  0  0  0  0  0
    9.0086  -16.5813   19.9832 C   0  0  0  0  0  0  0  0  0  0  0  0
    8.0454  -17.1940   20.5564 O   0  0  0  0  0  0  0  0  0  0  0  0
   11.8460  -18.9661   23.1086 C   0  0  0  0  0  0  0  0  0  0  0  0
   11.6675  -18.2327   21.8021 C   0  0  1  0  0  0  0  0  0  0  0  0
   11.6039  -19.2245   20.6609 C   0  0  0  0  0  0  0  0  0  0  0  0
   10.4555  -17.3718   21.8862 C   0  0  2  0  0  0  0  0  0  0  0  0
   10.2601  -16.6684   20.6279 N   0  0  0  0  0  0  0  0  0  0  0  0
   10.5840  -16.3869   23.0019 C   0  0  0  0  0  0  0  0  0  0  0  0
   11.0683  -15.2624   22.7564 O   0  0  0  0  0  0  0  0  0  0  0  0
    5.9421  -10.9742   27.4252 O   0  0  0  0  0  0  0  0  0  0  0  0
    6.5087  -11.9979   26.6778 C   0  0  0  0  0  0  0  0  0  0  0  0
    5.8955  -13.2339   26.5253 C   0  0  0  0  0  0  0  0  0  0  0  0
    6.4467  -14.2477   25.7904 C   0  0  0  0  0  0  0  0  0  0  0  0
    7.6592  -14.0758   25.1599 C   0  0  0  0  0  0  0  0  0  0  0  0
    8.3060  -15.1390   24.3645 C   0  0  0  0  0  0  0  0  0  0  0  0
    9.4585  -15.7411   25.1074 C   0  0  2  0  0  0  0  0  0  0  0  0
   10.1673  -16.7205   24.3035 N   0  0  0  0  0  0  0  0  0  0  0  0
    9.1445  -16.3211   26.4089 C   0  0  0  0  0  0  0  0  0  0  0  0
    8.5495  -17.5863   26.4822 O   0  0  0  0  0  0  0  0  0  0  0  0
    8.2894  -12.8511   25.2982 C   0  0  0  0  0  0  0  0  0  0  0  0
    7.7247  -11.8379   26.0404 C   0  0  0  0  0  0  0  0  0  0  0  0
    9.3660  -15.7720   27.5154 O   0  0  0  0  0  0  0  0  0  0  0  0
  1  2  1  0
  2  3  2  0
  4  2  1  0
  5  4  1  0
  5  6  1  1
  7  5  1  0
  7  8  2  0
 10 12  1  0
 10  9  1  1
 11 10  1  0
 12 13  1  6
 13  7  1  0
 14 15  2  0
 14 12  1  0
 16 17  1  0
 17 18  2  0
 18 19  1  0
 20 21  1  0
 20 19  2  0
 22 21  1  6
 22 23  1  0
 23 14  1  0
 24 22  1  0
 25 24  1  0
 26 20  1  0
 27 26  2  0
 27 17  1  0
 28 24  2  0
M  END
$$$$
