NVY.pdb
     RDKit          3D

 28 28  0  0  1  0  0  0  0  0999 V2000
   11.7336  -19.6057   16.9735 N   0  0  0  0  0  0  0  0  0  0  0  0
   11.8681  -18.2181   16.7265 C   0  0  0  0  0  0  0  0  0  0  0  0
   12.6418  -17.9054   15.7563 O   0  0  0  0  0  0  0  0  0  0  0  0
   11.2297  -17.1280   17.4481 C   0  0  0  0  0  0  0  0  0  0  0  0
   10.2532  -17.5112   18.5023 C   0  0  2  0  0  0  0  0  0  0  0  0
    9.0215  -18.0850   18.0033 N   0  0  0  0  0  0  0  0  0  0  0  0
   10.0243  -16.4007   19.4604 C   0  0  0  0  0  0  0  0  0  0  0  0
   11.0279  -15.8323   20.0097 O   0  0  0  0  0  0  0  0  0  0  0  0
    7.0160  -13.1512   21.6498 C   0  0  0  0  0  0  0  0  0  0  0  0
    7.2745  -14.1407   20.5404 C   0  0  1  0  0  0  0  0  0  0  0  0
    7.2069  -13.4397   19.2009 C   0  0  0  0  0  0  0  0  0  0  0  0
    8.5842  -14.8087   20.7763 C   0  0  2  0  0  0  0  0  0  0  0  0
    8.7585  -15.9026   19.8333 N   0  0  0  0  0  0  0  0  0  0  0  0
    8.6678  -15.3276   22.1745 C   0  0  0  0  0  0  0  0  0  0  0  0
    8.1897  -16.4534   22.4260 O   0  0  0  0  0  0  0  0  0  0  0  0
   10.3050  -16.4505   30.6709 O   0  0  0  0  0  0  0  0  0  0  0  0
   10.2777  -15.9050   29.3945 C   0  0  0  0  0  0  0  0  0  0  0  0
    9.7238  -14.6599   29.1300 C   0  0  0  0  0  0  0  0  0  0  0  0
    9.6931  -14.1151   27.8754 C   0  0  0  0  0  0  0  0  0  0  0  0
   10.2228  -14.7978   26.8028 C   0  0  0  0  0  0  0  0  0  0  0  0
   10.2061  -14.2635   25.4260 C   0  0  0  0  0  0  0  0  0  0  0  0
    9.2711  -15.0459   24.5565 C   0  0  2  0  0  0  0  0  0  0  0  0
    9.2736  -14.5622   23.1876 N   0  0  0  0  0  0  0  0  0  0  0  0
    7.8947  -15.1471   25.0301 C   0  0  0  0  0  0  0  0  0  0  0  0
    7.4958  -16.2611   25.7784 O   0  0  0  0  0  0  0  0  0  0  0  0
   10.7806  -16.0419   27.0427 C   0  0  0  0  0  0  0  0  0  0  0  0
   10.8059  -16.5800   28.3100 C   0  0  0  0  0  0  0  0  0  0  0  0
    6.9963  -14.2957   24.8224 O   0  0  0  0  0  0  0  0  0  0  0  0
  1  2  1  0
  2  3  2  0
  4  2  1  0
  5  4  1  0
  5  6  1  6
  7  5  1  0
  7  8  2  0
 10 12  1  0
 10  9  1  1
 11 10  1  0
 12 13  1  6
 13  7  1  0
 14 15  2  0
 14 12  1  0
 16 17  1  0
 17 18  2  0
 18 19  1  0
 20 21  1  0
 20 19  2  0
 22 21  1  1
 22 23  1  0
 23 14  1  0
 24 22  1  0
 25 24  1  0
 26 20  1  0
 27 26  2  0
 27 17  1  0
 28 24  2  0
M  END
$$$$
