NVY.pdb
     RDKit          3D

 28 28  0  0  1  0  0  0  0  0999 V2000
    4.8652  -19.6660   23.5763 N   0  0  0  0  0  0  0  0  0  0  0  0
    6.2293  -19.5116   23.2303 C   0  0  0  0  0  0  0  0  0  0  0  0
    7.0006  -19.1491   24.1850 O   0  0  0  0  0  0  0  0  0  0  0  0
    6.8367  -19.7180   21.9245 C   0  0  0  0  0  0  0  0  0  0  0  0
    6.4866  -18.7337   20.8660 C   0  0  2  0  0  0  0  0  0  0  0  0
    6.3219  -19.3020   19.5449 N   0  0  0  0  0  0  0  0  0  0  0  0
    7.4069  -17.5691   20.8812 C   0  0  0  0  0  0  0  0  0  0  0  0
    8.6526  -17.7541   20.6670 O   0  0  0  0  0  0  0  0  0  0  0  0
    8.2751  -12.7588   20.5874 C   0  0  0  0  0  0  0  0  0  0  0  0
    7.3069  -13.9149   20.5362 C   0  0  1  0  0  0  0  0  0  0  0  0
    6.8357  -14.1276   19.1139 C   0  0  0  0  0  0  0  0  0  0  0  0
    7.9568  -15.1231   21.1151 C   0  0  2  0  0  0  0  0  0  0  0  0
    7.0184  -16.2346   21.1214 N   0  0  0  0  0  0  0  0  0  0  0  0
    8.4303  -14.8526   22.5058 C   0  0  0  0  0  0  0  0  0  0  0  0
    7.6697  -14.2499   23.2916 O   0  0  0  0  0  0  0  0  0  0  0  0
   10.6919  -14.9270   30.6413 O   0  0  0  0  0  0  0  0  0  0  0  0
   10.2950  -15.1198   29.3248 C   0  0  0  0  0  0  0  0  0  0  0  0
   10.3349  -16.3643   28.7112 C   0  0  0  0  0  0  0  0  0  0  0  0
    9.9455  -16.5630   27.4148 C   0  0  0  0  0  0  0  0  0  0  0  0
    9.4887  -15.5108   26.6523 C   0  0  0  0  0  0  0  0  0  0  0  0
    9.0672  -15.6651   25.2452 C   0  0  0  0  0  0  0  0  0  0  0  0
   10.1006  -15.1163   24.3106 C   0  0  2  0  0  0  0  0  0  0  0  0
    9.7083  -15.2690   22.9212 N   0  0  0  0  0  0  0  0  0  0  0  0
   11.4559  -15.6269   24.4883 C   0  0  0  0  0  0  0  0  0  0  0  0
   11.8189  -16.8525   23.9171 O   0  0  0  0  0  0  0  0  0  0  0  0
    9.4404  -14.2599   27.2434 C   0  0  0  0  0  0  0  0  0  0  0  0
    9.8349  -14.0722   28.5493 C   0  0  0  0  0  0  0  0  0  0  0  0
   12.3657  -15.0487   25.1309 O   0  0  0  0  0  0  0  0  0  0  0  0
  1  2  1  0
  2  3  2  0
  4  2  1  0
  5  4  1  0
  5  6  1  6
  7  5  1  0
  7  8  2  0
 10 12  1  0
 10  9  1  6
 11 10  1  0
 12 13  1  1
 13  7  1  0
 14 15  2  0
 14 12  1  0
 16 17  1  0
 17 18  2  0
 18 19  1  0
 20 21  1  0
 20 19  2  0
 22 21  1  1
 22 23  1  0
 23 14  1  0
 24 22  1  0
 25 24  1  0
 26 20  1  0
 27 26  2  0
 27 17  1  0
 28 24  2  0
M  END
$$$$
