NVY.pdb
     RDKit          3D

 28 28  0  0  1  0  0  0  0  0999 V2000
    8.2843  -20.5064   17.1658 N   0  0  0  0  0  0  0  0  0  0  0  0
    7.9736  -20.4328   18.5452 C   0  0  0  0  0  0  0  0  0  0  0  0
    7.5902  -21.5298   19.0812 O   0  0  0  0  0  0  0  0  0  0  0  0
    8.0430  -19.2601   19.4034 C   0  0  0  0  0  0  0  0  0  0  0  0
    8.3500  -17.9665   18.7369 C   0  0  2  0  0  0  0  0  0  0  0  0
    9.3052  -18.0585   17.6531 N   0  0  0  0  0  0  0  0  0  0  0  0
    8.7002  -16.9158   19.7253 C   0  0  0  0  0  0  0  0  0  0  0  0
    9.7701  -17.0361   20.4127 O   0  0  0  0  0  0  0  0  0  0  0  0
    7.9893  -12.4586   21.7271 C   0  0  0  0  0  0  0  0  0  0  0  0
    7.5836  -13.4871   20.7002 C   0  0  1  0  0  0  0  0  0  0  0  0
    7.8238  -12.9451   19.3079 C   0  0  0  0  0  0  0  0  0  0  0  0
    8.3199  -14.7549   20.9605 C   0  0  2  0  0  0  0  0  0  0  0  0
    7.9322  -15.7615   19.9845 N   0  0  0  0  0  0  0  0  0  0  0  0
    8.0403  -15.2539   22.3405 C   0  0  0  0  0  0  0  0  0  0  0  0
    6.8747  -15.5957   22.6298 O   0  0  0  0  0  0  0  0  0  0  0  0
    8.1218  -20.5545   28.9982 O   0  0  0  0  0  0  0  0  0  0  0  0
    8.1964  -19.8143   27.8259 C   0  0  0  0  0  0  0  0  0  0  0  0
    9.2551  -19.9356   26.9364 C   0  0  0  0  0  0  0  0  0  0  0  0
    9.3362  -19.2104   25.7791 C   0  0  0  0  0  0  0  0  0  0  0  0
    8.3470  -18.3117   25.4458 C   0  0  0  0  0  0  0  0  0  0  0  0
    8.3889  -17.4942   24.2164 C   0  0  0  0  0  0  0  0  0  0  0  0
    8.8691  -16.1063   24.5092 C   0  0  2  0  0  0  0  0  0  0  0  0
    9.0707  -15.3367   23.2947 N   0  0  0  0  0  0  0  0  0  0  0  0
   10.0599  -16.0074   25.3465 C   0  0  0  0  0  0  0  0  0  0  0  0
   11.3020  -15.7340   24.7613 O   0  0  0  0  0  0  0  0  0  0  0  0
    7.2811  -18.1738   26.3182 C   0  0  0  0  0  0  0  0  0  0  0  0
    7.2104  -18.9094   27.4802 C   0  0  0  0  0  0  0  0  0  0  0  0
   10.0786  -16.1498   26.5932 O   0  0  0  0  0  0  0  0  0  0  0  0
  1  2  1  0
  2  3  2  0
  4  2  1  0
  5  4  1  0
  5  6  1  6
  7  5  1  0
  7  8  2  0
 10 12  1  0
 10  9  1  1
 11 10  1  0
 12 13  1  6
 13  7  1  0
 14 15  2  0
 14 12  1  0
 16 17  1  0
 17 18  2  0
 18 19  1  0
 20 21  1  0
 20 19  2  0
 22 21  1  6
 22 23  1  0
 23 14  1  0
 24 22  1  0
 25 24  1  0
 26 20  1  0
 27 26  2  0
 27 17  1  0
 28 24  2  0
M  END
$$$$
