DFG.pdb
     RDKit          3D

 24 24  0  0  1  0  0  0  0  0999 V2000
    8.7173  -19.0526   20.4647 N   0  0  0  0  0  0  0  0  0  0  0  0
    9.8424  -18.3136   19.9258 C   0  0  1  0  0  0  0  0  0  0  0  0
    9.5215  -17.8068   18.5343 C   0  0  0  0  0  0  0  0  0  0  0  0
   10.7124  -17.7519   17.6734 C   0  0  0  0  0  0  0  0  0  0  0  0
   11.7209  -18.4733   17.8508 O   0  0  0  0  0  0  0  0  0  0  0  0
   10.1915  -17.1815   20.8340 C   0  0  0  0  0  0  0  0  0  0  0  0
   11.1696  -16.4306   20.6462 O   0  0  0  0  0  0  0  0  0  0  0  0
   10.7078  -16.8540   16.6167 O   0  0  0  0  0  0  0  0  0  0  0  0
    9.4018  -16.9141   21.9717 N   0  0  0  0  0  0  0  0  0  0  0  0
    9.7201  -15.7808   22.8397 C   0  0  1  0  0  0  0  0  0  0  0  0
    8.5070  -14.9120   23.0256 C   0  0  0  0  0  0  0  0  0  0  0  0
    7.9857  -14.2448   21.8376 C   0  0  0  0  0  0  0  0  0  0  0  0
    6.8302  -14.6823   21.1967 C   0  0  0  0  0  0  0  0  0  0  0  0
    6.3375  -14.0586   20.0814 C   0  0  0  0  0  0  0  0  0  0  0  0
    6.9782  -12.9562   19.5433 C   0  0  0  0  0  0  0  0  0  0  0  0
    8.1181  -12.5106   20.1611 C   0  0  0  0  0  0  0  0  0  0  0  0
    8.6018  -13.1451   21.2790 C   0  0  0  0  0  0  0  0  0  0  0  0
   10.1347  -16.3750   24.1284 C   0  0  0  0  0  0  0  0  0  0  0  0
   10.4626  -15.6588   25.1395 O   0  0  0  0  0  0  0  0  0  0  0  0
   10.2021  -17.7729   24.3629 N   0  0  0  0  0  0  0  0  0  0  0  0
   10.5096  -18.3176   25.6957 C   0  0  0  0  0  0  0  0  0  0  0  0
   11.9297  -18.7179   25.7244 C   0  0  0  0  0  0  0  0  0  0  0  0
   12.8262  -17.8433   25.7459 O   0  0  0  0  0  0  0  0  0  0  0  0
   12.2959  -20.0447   25.7276 O   0  0  0  0  0  0  0  0  0  0  0  0
  2  1  1  1
  2  3  1  0
  3  4  1  0
  4  8  1  0
  5  4  2  0
  6  9  1  0
  6  2  1  0
  7  6  2  0
 10  9  1  0
 10 18  1  0
 10 11  1  1
 11 12  1  0
 12 17  2  0
 12 13  1  0
 13 14  2  0
 14 15  1  0
 16 15  2  0
 17 16  1  0
 18 20  1  0
 19 18  2  0
 20 21  1  0
 21 22  1  0
 22 23  2  0
 22 24  1  0
M  END
$$$$
