DFG.pdb
     RDKit          3D

 24 24  0  0  1  0  0  0  0  0999 V2000
    7.3690  -16.4456   21.2384 N   0  0  0  0  0  0  0  0  0  0  0  0
    8.6292  -15.7289   21.2686 C   0  0  1  0  0  0  0  0  0  0  0  0
    8.5079  -14.4187   20.5171 C   0  0  0  0  0  0  0  0  0  0  0  0
    8.3320  -14.6206   19.0712 C   0  0  0  0  0  0  0  0  0  0  0  0
    8.6626  -15.6745   18.4805 O   0  0  0  0  0  0  0  0  0  0  0  0
    9.0475  -15.4917   22.6818 C   0  0  0  0  0  0  0  0  0  0  0  0
   10.0307  -14.7914   22.9957 O   0  0  0  0  0  0  0  0  0  0  0  0
    7.7719  -13.5872   18.3356 O   0  0  0  0  0  0  0  0  0  0  0  0
    8.3218  -16.0702   23.7440 N   0  0  0  0  0  0  0  0  0  0  0  0
    8.7683  -15.8906   25.1252 C   0  0  1  0  0  0  0  0  0  0  0  0
    7.6089  -15.4997   25.9993 C   0  0  0  0  0  0  0  0  0  0  0  0
    7.3067  -14.0756   26.0955 C   0  0  0  0  0  0  0  0  0  0  0  0
    8.0367  -13.2237   26.9194 C   0  0  0  0  0  0  0  0  0  0  0  0
    7.7562  -11.8863   27.0123 C   0  0  0  0  0  0  0  0  0  0  0  0
    6.7237  -11.3252   26.2813 C   0  0  0  0  0  0  0  0  0  0  0  0
    5.9935  -12.1489   25.4641 C   0  0  0  0  0  0  0  0  0  0  0  0
    6.2850  -13.4884   25.3800 C   0  0  0  0  0  0  0  0  0  0  0  0
    9.3099  -17.2027   25.5386 C   0  0  0  0  0  0  0  0  0  0  0  0
    8.5560  -18.2120   25.7743 O   0  0  0  0  0  0  0  0  0  0  0  0
   10.6948  -17.4632   25.7052 N   0  0  0  0  0  0  0  0  0  0  0  0
   11.3186  -17.4963   27.0384 C   0  0  0  0  0  0  0  0  0  0  0  0
   11.0847  -18.8257   27.6347 C   0  0  0  0  0  0  0  0  0  0  0  0
   10.3447  -19.6516   27.0521 O   0  0  0  0  0  0  0  0  0  0  0  0
   11.6668  -19.1829   28.8297 O   0  0  0  0  0  0  0  0  0  0  0  0
  2  1  1  1
  2  3  1  0
  3  4  1  0
  4  8  1  0
  5  4  2  0
  6  9  1  0
  6  2  1  0
  7  6  2  0
 10  9  1  0
 10 18  1  0
 10 11  1  1
 11 12  1  0
 12 17  2  0
 12 13  1  0
 13 14  2  0
 14 15  1  0
 16 15  2  0
 17 16  1  0
 18 20  1  0
 19 18  2  0
 20 21  1  0
 21 22  1  0
 22 23  2  0
 22 24  1  0
M  END
$$$$
