DFG.pdb
     RDKit          3D

 24 24  0  0  1  0  0  0  0  0999 V2000
    7.3904  -16.5890   21.1244 N   0  0  0  0  0  0  0  0  0  0  0  0
    8.5275  -15.7050   20.9571 C   0  0  1  0  0  0  0  0  0  0  0  0
    8.1377  -14.4966   20.1301 C   0  0  0  0  0  0  0  0  0  0  0  0
    7.8854  -14.8427   18.7234 C   0  0  0  0  0  0  0  0  0  0  0  0
    7.9573  -16.0124   18.2812 O   0  0  0  0  0  0  0  0  0  0  0  0
    9.0496  -15.2871   22.2917 C   0  0  0  0  0  0  0  0  0  0  0  0
    9.9205  -14.4066   22.4403 O   0  0  0  0  0  0  0  0  0  0  0  0
    7.5525  -13.8161   17.8527 O   0  0  0  0  0  0  0  0  0  0  0  0
    8.5601  -15.8931   23.4675 N   0  0  0  0  0  0  0  0  0  0  0  0
    8.9458  -15.3741   24.7794 C   0  0  1  0  0  0  0  0  0  0  0  0
    7.7402  -15.2700   25.6719 C   0  0  0  0  0  0  0  0  0  0  0  0
    7.3227  -13.9276   26.0620 C   0  0  0  0  0  0  0  0  0  0  0  0
    6.0359  -13.4578   25.8160 C   0  0  0  0  0  0  0  0  0  0  0  0
    5.6401  -12.1984   26.1808 C   0  0  0  0  0  0  0  0  0  0  0  0
    6.5160  -11.3353   26.8158 C   0  0  0  0  0  0  0  0  0  0  0  0
    7.7881  -11.7806   27.0666 C   0  0  0  0  0  0  0  0  0  0  0  0
    8.1724  -13.0458   26.6955 C   0  0  0  0  0  0  0  0  0  0  0  0
    9.9105  -16.3536   25.3232 C   0  0  0  0  0  0  0  0  0  0  0  0
   10.1733  -16.4342   26.5750 O   0  0  0  0  0  0  0  0  0  0  0  0
   10.6204  -17.2847   24.5215 N   0  0  0  0  0  0  0  0  0  0  0  0
   11.5049  -18.2995   25.1177 C   0  0  0  0  0  0  0  0  0  0  0  0
   12.1390  -19.0688   24.0298 C   0  0  0  0  0  0  0  0  0  0  0  0
   12.1265  -18.6239   22.8589 O   0  0  0  0  0  0  0  0  0  0  0  0
   12.7504  -20.2775   24.2746 O   0  0  0  0  0  0  0  0  0  0  0  0
  2  1  1  1
  2  3  1  0
  3  4  1  0
  4  8  1  0
  5  4  2  0
  6  9  1  0
  6  2  1  0
  7  6  2  0
 10  9  1  0
 10 18  1  0
 10 11  1  1
 11 12  1  0
 12 17  2  0
 12 13  1  0
 13 14  2  0
 14 15  1  0
 16 15  2  0
 17 16  1  0
 18 20  1  0
 19 18  2  0
 20 21  1  0
 21 22  1  0
 22 23  2  0
 22 24  1  0
M  END
$$$$
