DFG.pdb
     RDKit          3D

 24 24  0  0  1  0  0  0  0  0999 V2000
    9.3309  -16.8806   19.7038 N   0  0  0  0  0  0  0  0  0  0  0  0
    9.0165  -17.3039   21.0545 C   0  0  1  0  0  0  0  0  0  0  0  0
    9.9266  -18.4399   21.4754 C   0  0  0  0  0  0  0  0  0  0  0  0
    9.8389  -19.5905   20.5639 C   0  0  0  0  0  0  0  0  0  0  0  0
   10.8275  -20.0598   19.9545 O   0  0  0  0  0  0  0  0  0  0  0  0
    9.1417  -16.1498   21.9930 C   0  0  0  0  0  0  0  0  0  0  0  0
    9.9879  -15.2441   21.8543 O   0  0  0  0  0  0  0  0  0  0  0  0
    8.5962  -20.1767   20.3773 O   0  0  0  0  0  0  0  0  0  0  0  0
    8.2795  -16.0410   23.1040 N   0  0  0  0  0  0  0  0  0  0  0  0
    8.2931  -14.8354   23.9319 C   0  0  1  0  0  0  0  0  0  0  0  0
    6.8943  -14.4771   24.3511 C   0  0  0  0  0  0  0  0  0  0  0  0
    6.7508  -13.3707   25.2912 C   0  0  0  0  0  0  0  0  0  0  0  0
    6.2049  -13.5500   26.5590 C   0  0  0  0  0  0  0  0  0  0  0  0
    6.0687  -12.5140   27.4444 C   0  0  0  0  0  0  0  0  0  0  0  0
    6.4739  -11.2344   27.1073 C   0  0  0  0  0  0  0  0  0  0  0  0
    7.0140  -11.0384   25.8626 C   0  0  0  0  0  0  0  0  0  0  0  0
    7.1451  -12.0858   24.9840 C   0  0  0  0  0  0  0  0  0  0  0  0
    9.1166  -15.1761   25.1116 C   0  0  0  0  0  0  0  0  0  0  0  0
    9.3653  -14.3299   26.0415 O   0  0  0  0  0  0  0  0  0  0  0  0
    9.6952  -16.4546   25.3225 N   0  0  0  0  0  0  0  0  0  0  0  0
   10.4935  -16.7516   26.5233 C   0  0  0  0  0  0  0  0  0  0  0  0
   11.0525  -18.1109   26.3926 C   0  0  0  0  0  0  0  0  0  0  0  0
   11.0293  -18.6933   25.2839 O   0  0  0  0  0  0  0  0  0  0  0  0
   11.6046  -18.7611   27.4730 O   0  0  0  0  0  0  0  0  0  0  0  0
  2  1  1  6
  2  3  1  0
  3  4  1  0
  4  8  1  0
  5  4  2  0
  6  9  1  0
  6  2  1  0
  7  6  2  0
 10  9  1  0
 10 18  1  0
 10 11  1  1
 11 12  1  0
 12 17  2  0
 12 13  1  0
 13 14  2  0
 14 15  1  0
 16 15  2  0
 17 16  1  0
 18 20  1  0
 19 18  2  0
 20 21  1  0
 21 22  1  0
 22 23  2  0
 22 24  1  0
M  END
$$$$
