DFG.pdb
     RDKit          3D

 24 24  0  0  1  0  0  0  0  0999 V2000
    8.6009  -16.5491   21.7206 N   0  0  0  0  0  0  0  0  0  0  0  0
    9.9308  -16.4347   22.2868 C   0  0  1  0  0  0  0  0  0  0  0  0
   10.7746  -15.4848   21.4612 C   0  0  0  0  0  0  0  0  0  0  0  0
   11.1047  -16.0388   20.1396 C   0  0  0  0  0  0  0  0  0  0  0  0
   11.0797  -17.2647   19.8840 O   0  0  0  0  0  0  0  0  0  0  0  0
    9.8441  -15.9710   23.7032 C   0  0  0  0  0  0  0  0  0  0  0  0
   10.4816  -14.9932   24.1430 O   0  0  0  0  0  0  0  0  0  0  0  0
   11.4594  -15.1516   19.1348 O   0  0  0  0  0  0  0  0  0  0  0  0
    9.0118  -16.6444   24.6214 N   0  0  0  0  0  0  0  0  0  0  0  0
    8.8425  -16.1272   25.9790 C   0  0  1  0  0  0  0  0  0  0  0  0
    7.4265  -15.6658   26.1863 C   0  0  0  0  0  0  0  0  0  0  0  0
    7.1668  -14.2398   26.0200 C   0  0  0  0  0  0  0  0  0  0  0  0
    6.9700  -13.6703   24.7653 C   0  0  0  0  0  0  0  0  0  0  0  0
    6.7258  -12.3322   24.6051 C   0  0  0  0  0  0  0  0  0  0  0  0
    6.6649  -11.4860   25.6985 C   0  0  0  0  0  0  0  0  0  0  0  0
    6.8564  -12.0290   26.9426 C   0  0  0  0  0  0  0  0  0  0  0  0
    7.1005  -13.3725   27.0897 C   0  0  0  0  0  0  0  0  0  0  0  0
    9.1547  -17.2610   26.8750 C   0  0  0  0  0  0  0  0  0  0  0  0
    9.0502  -17.1763   28.1496 O   0  0  0  0  0  0  0  0  0  0  0  0
    9.5879  -18.5308   26.4128 N   0  0  0  0  0  0  0  0  0  0  0  0
    9.7794  -19.6631   27.3342 C   0  0  0  0  0  0  0  0  0  0  0  0
   11.1935  -19.6940   27.7544 C   0  0  0  0  0  0  0  0  0  0  0  0
   11.9890  -18.8198   27.3399 O   0  0  0  0  0  0  0  0  0  0  0  0
   11.6640  -20.6726   28.6004 O   0  0  0  0  0  0  0  0  0  0  0  0
  2  1  1  6
  2  3  1  0
  3  4  1  0
  4  8  1  0
  5  4  2  0
  6  9  1  0
  6  2  1  0
  7  6  2  0
 10  9  1  0
 10 18  1  0
 10 11  1  6
 11 12  1  0
 12 17  2  0
 12 13  1  0
 13 14  2  0
 14 15  1  0
 16 15  2  0
 17 16  1  0
 18 20  1  0
 19 18  2  0
 20 21  1  0
 21 22  1  0
 22 23  2  0
 22 24  1  0
M  END
$$$$
