DFG.pdb
     RDKit          3D

 24 24  0  0  1  0  0  0  0  0999 V2000
    6.8533  -15.7202   19.6160 N   0  0  0  0  0  0  0  0  0  0  0  0
    7.2187  -16.5569   20.7425 C   0  0  1  0  0  0  0  0  0  0  0  0
    8.1743  -17.6467   20.3008 C   0  0  0  0  0  0  0  0  0  0  0  0
    7.5297  -18.6265   19.4139 C   0  0  0  0  0  0  0  0  0  0  0  0
    6.2889  -18.7885   19.3574 O   0  0  0  0  0  0  0  0  0  0  0  0
    7.8281  -15.7234   21.8206 C   0  0  0  0  0  0  0  0  0  0  0  0
    8.5827  -14.7566   21.5937 O   0  0  0  0  0  0  0  0  0  0  0  0
    8.3448  -19.4037   18.6050 O   0  0  0  0  0  0  0  0  0  0  0  0
    7.5627  -16.0102   23.1759 N   0  0  0  0  0  0  0  0  0  0  0  0
    8.0062  -15.0916   24.2240 C   0  0  1  0  0  0  0  0  0  0  0  0
    6.8890  -14.8352   25.1971 C   0  0  0  0  0  0  0  0  0  0  0  0
    6.8705  -13.5310   25.8509 C   0  0  0  0  0  0  0  0  0  0  0  0
    5.7188  -12.7510   25.9018 C   0  0  0  0  0  0  0  0  0  0  0  0
    5.6974  -11.5264   26.5147 C   0  0  0  0  0  0  0  0  0  0  0  0
    6.8342  -11.0126   27.1138 C   0  0  0  0  0  0  0  0  0  0  0  0
    7.9783  -11.7668   27.0737 C   0  0  0  0  0  0  0  0  0  0  0  0
    7.9866  -12.9933   26.4558 C   0  0  0  0  0  0  0  0  0  0  0  0
    9.1327  -15.7738   24.8959 C   0  0  0  0  0  0  0  0  0  0  0  0
    9.8196  -15.2133   25.8215 O   0  0  0  0  0  0  0  0  0  0  0  0
    9.5480  -17.0948   24.5860 N   0  0  0  0  0  0  0  0  0  0  0  0
   10.7756  -17.6718   25.1584 C   0  0  0  0  0  0  0  0  0  0  0  0
   10.5068  -18.0574   26.5571 C   0  0  0  0  0  0  0  0  0  0  0  0
   10.1383  -17.1926   27.3850 O   0  0  0  0  0  0  0  0  0  0  0  0
   10.6536  -19.3597   26.9780 O   0  0  0  0  0  0  0  0  0  0  0  0
  2  1  1  6
  2  3  1  0
  3  4  1  0
  4  8  1  0
  5  4  2  0
  6  9  1  0
  6  2  1  0
  7  6  2  0
 10  9  1  0
 10 18  1  0
 10 11  1  1
 11 12  1  0
 12 17  2  0
 12 13  1  0
 13 14  2  0
 14 15  1  0
 16 15  2  0
 17 16  1  0
 18 20  1  0
 19 18  2  0
 20 21  1  0
 21 22  1  0
 22 23  2  0
 22 24  1  0
M  END
$$$$
