DFG.pdb
     RDKit          3D

 24 24  0  0  1  0  0  0  0  0999 V2000
17025124.000016670012.0000-1015102.1250 N   0  0  0  0  0  0  0  0  0  0  0  0
17025126.000016670012.0000-1015103.1875 C   0  0  1  0  0  0  0  0  0  0  0  0
17025128.000016670014.0000-1015103.5625 C   0  0  0  0  0  0  0  0  0  0  0  0
17025124.000016670013.0000-1015102.3750 C   0  0  0  0  0  0  0  0  0  0  0  0
17025126.000016670014.0000-1015101.3125 O   0  0  0  0  0  0  0  0  0  0  0  0
17025126.000016670012.0000-1015102.9375 C   0  0  0  0  0  0  0  0  0  0  0  0
17025128.000016670011.0000-1015101.8750 O   0  0  0  0  0  0  0  0  0  0  0  0
17025126.000016670014.0000-1015102.6875 O   0  0  0  0  0  0  0  0  0  0  0  0
17025128.000016670012.0000-1015103.8125 N   0  0  0  0  0  0  0  0  0  0  0  0
17025128.000016670011.0000-1015104.5000 C   0  0  1  0  0  0  0  0  0  0  0  0
17025130.000016670011.0000-1015103.7500 C   0  0  0  0  0  0  0  0  0  0  0  0
17025130.000016670012.0000-1015102.3750 C   0  0  0  0  0  0  0  0  0  0  0  0
17025130.000016670014.0000-1015101.8125 C   0  0  0  0  0  0  0  0  0  0  0  0
17025130.000016670014.0000-1015100.5625 C   0  0  0  0  0  0  0  0  0  0  0  0
17025132.000016670013.0000-1015099.5625 C   0  0  0  0  0  0  0  0  0  0  0  0
17025132.000016670013.0000-1015100.4375 C   0  0  0  0  0  0  0  0  0  0  0  0
17025132.000016670012.0000-1015101.7500 C   0  0  0  0  0  0  0  0  0  0  0  0
17025128.000016670010.0000-1015104.2500 C   0  0  0  0  0  0  0  0  0  0  0  0
17025128.000016670009.0000-1015105.0000 O   0  0  0  0  0  0  0  0  0  0  0  0
17025128.000016670009.0000-1015102.8750 N   0  0  0  0  0  0  0  0  0  0  0  0
17025130.000016670008.0000-1015103.1250 C   0  0  0  0  0  0  0  0  0  0  0  0
17025128.000016670007.0000-1015102.5000 C   0  0  0  0  0  0  0  0  0  0  0  0
17025128.000016670007.0000-1015103.5000 O   0  0  0  0  0  0  0  0  0  0  0  0
17025128.000016670006.0000-1015101.0000 O   0  0  0  0  0  0  0  0  0  0  0  0
  2  1  1  1
  2  3  1  0
  3  4  1  0
  4  8  1  0
  5  4  2  0
  6  9  1  0
  6  2  1  0
  7  6  2  0
 10  9  1  0
 10 18  1  0
 10 11  1  6
 11 12  1  0
 12 17  2  0
 12 13  1  0
 13 14  2  0
 14 15  1  0
 16 15  2  0
 17 16  1  0
 18 20  1  0
 19 18  2  0
 20 21  1  0
 21 22  1  0
 22 23  2  0
 22 24  1  0
M  END
$$$$
