DFG.pdb
     RDKit          3D

 24 24  0  0  1  0  0  0  0  0999 V2000
    9.3906  -15.7643   18.7173 N   0  0  0  0  0  0  0  0  0  0  0  0
    8.5777  -16.3315   19.7755 C   0  0  1  0  0  0  0  0  0  0  0  0
    8.8299  -17.8211   19.8920 C   0  0  0  0  0  0  0  0  0  0  0  0
    8.4942  -18.5410   18.6545 C   0  0  0  0  0  0  0  0  0  0  0  0
    9.3116  -18.7219   17.7229 O   0  0  0  0  0  0  0  0  0  0  0  0
    8.8688  -15.6427   21.0674 C   0  0  0  0  0  0  0  0  0  0  0  0
    9.9441  -15.0561   21.3027 O   0  0  0  0  0  0  0  0  0  0  0  0
    7.2070  -19.0397   18.5233 O   0  0  0  0  0  0  0  0  0  0  0  0
    7.9068  -15.6315   22.0989 N   0  0  0  0  0  0  0  0  0  0  0  0
    8.1370  -14.8485   23.3126 C   0  0  1  0  0  0  0  0  0  0  0  0
    6.9785  -13.9229   23.5613 C   0  0  0  0  0  0  0  0  0  0  0  0
    6.9784  -13.1913   24.8236 C   0  0  0  0  0  0  0  0  0  0  0  0
    7.7902  -12.0794   25.0284 C   0  0  0  0  0  0  0  0  0  0  0  0
    7.7928  -11.3899   26.2117 C   0  0  0  0  0  0  0  0  0  0  0  0
    6.9782  -11.7780   27.2611 C   0  0  0  0  0  0  0  0  0  0  0  0
    6.1715  -12.8712   27.0779 C   0  0  0  0  0  0  0  0  0  0  0  0
    6.1783  -13.5539   25.8862 C   0  0  0  0  0  0  0  0  0  0  0  0
    8.2534  -15.8384   24.4046 C   0  0  0  0  0  0  0  0  0  0  0  0
    7.2725  -16.5808   24.7642 O   0  0  0  0  0  0  0  0  0  0  0  0
    9.4461  -16.0581   25.1415 N   0  0  0  0  0  0  0  0  0  0  0  0
    9.5302  -17.0968   26.1814 C   0  0  0  0  0  0  0  0  0  0  0  0
   10.8688  -17.0367   26.7995 C   0  0  0  0  0  0  0  0  0  0  0  0
   11.7313  -16.2479   26.3492 O   0  0  0  0  0  0  0  0  0  0  0  0
   11.1952  -17.8366   27.8710 O   0  0  0  0  0  0  0  0  0  0  0  0
  2  1  1  6
  2  3  1  0
  3  4  1  0
  4  8  1  0
  5  4  2  0
  6  9  1  0
  6  2  1  0
  7  6  2  0
 10  9  1  0
 10 18  1  0
 10 11  1  1
 11 12  1  0
 12 17  2  0
 12 13  1  0
 13 14  2  0
 14 15  1  0
 16 15  2  0
 17 16  1  0
 18 20  1  0
 19 18  2  0
 20 21  1  0
 21 22  1  0
 22 23  2  0
 22 24  1  0
M  END
$$$$
