DFG.pdb
     RDKit          3D

 24 24  0  0  1  0  0  0  0  0999 V2000
    9.8712  -18.6544   20.4530 N   0  0  0  0  0  0  0  0  0  0  0  0
   10.8029  -17.5717   20.2040 C   0  0  1  0  0  0  0  0  0  0  0  0
   10.6131  -17.0254   18.8034 C   0  0  0  0  0  0  0  0  0  0  0  0
   11.2942  -17.8441   17.7895 C   0  0  0  0  0  0  0  0  0  0  0  0
   11.8529  -18.9344   18.0504 O   0  0  0  0  0  0  0  0  0  0  0  0
   10.6181  -16.4953   21.2216 C   0  0  0  0  0  0  0  0  0  0  0  0
   11.2992  -15.4506   21.2436 O   0  0  0  0  0  0  0  0  0  0  0  0
   11.3128  -17.3768   16.4841 O   0  0  0  0  0  0  0  0  0  0  0  0
    9.6355  -16.6273   22.2248 N   0  0  0  0  0  0  0  0  0  0  0  0
    9.4448  -15.5666   23.2136 C   0  0  1  0  0  0  0  0  0  0  0  0
    8.0460  -15.0219   23.1281 C   0  0  0  0  0  0  0  0  0  0  0  0
    7.7206  -14.2225   21.9519 C   0  0  0  0  0  0  0  0  0  0  0  0
    8.0865  -12.8835   21.8494 C   0  0  0  0  0  0  0  0  0  0  0  0
    7.7831  -12.1298   20.7469 C   0  0  0  0  0  0  0  0  0  0  0  0
    7.0927  -12.6784   19.6802 C   0  0  0  0  0  0  0  0  0  0  0  0
    6.7239  -13.9962   19.7631 C   0  0  0  0  0  0  0  0  0  0  0  0
    7.0343  -14.7411   20.8744 C   0  0  0  0  0  0  0  0  0  0  0  0
    9.6729  -16.2060   24.5271 C   0  0  0  0  0  0  0  0  0  0  0  0
    9.4253  -15.6074   25.6330 O   0  0  0  0  0  0  0  0  0  0  0  0
   10.1750  -17.5241   24.6821 N   0  0  0  0  0  0  0  0  0  0  0  0
   10.3178  -18.1442   26.0097 C   0  0  0  0  0  0  0  0  0  0  0  0
   11.7336  -18.5089   26.2092 C   0  0  0  0  0  0  0  0  0  0  0  0
   12.5744  -18.2677   25.3125 O   0  0  0  0  0  0  0  0  0  0  0  0
   12.1564  -19.1152   27.3703 O   0  0  0  0  0  0  0  0  0  0  0  0
  2  1  1  1
  2  3  1  0
  3  4  1  0
  4  8  1  0
  5  4  2  0
  6  9  1  0
  6  2  1  0
  7  6  2  0
 10  9  1  0
 10 18  1  0
 10 11  1  1
 11 12  1  0
 12 17  2  0
 12 13  1  0
 13 14  2  0
 14 15  1  0
 16 15  2  0
 17 16  1  0
 18 20  1  0
 19 18  2  0
 20 21  1  0
 21 22  1  0
 22 23  2  0
 22 24  1  0
M  END
$$$$
