DFG.pdb
     RDKit          3D

 24 24  0  0  1  0  0  0  0  0999 V2000
    7.8340  -16.9887   21.6247 N   0  0  0  0  0  0  0  0  0  0  0  0
    8.8743  -15.9788   21.6064 C   0  0  1  0  0  0  0  0  0  0  0  0
    8.4547  -14.8065   20.7429 C   0  0  0  0  0  0  0  0  0  0  0  0
    8.2363  -15.1968   19.3421 C   0  0  0  0  0  0  0  0  0  0  0  0
    7.9390  -14.3796   18.4406 O   0  0  0  0  0  0  0  0  0  0  0  0
    9.1748  -15.5304   22.9982 C   0  0  0  0  0  0  0  0  0  0  0  0
    9.9132  -14.5598   23.2596 O   0  0  0  0  0  0  0  0  0  0  0  0
    8.3684  -16.5377   19.0144 O   0  0  0  0  0  0  0  0  0  0  0  0
    8.6158  -16.2109   24.0999 N   0  0  0  0  0  0  0  0  0  0  0  0
    8.9111  -15.7726   25.4637 C   0  0  1  0  0  0  0  0  0  0  0  0
    7.6409  -15.3967   26.1752 C   0  0  0  0  0  0  0  0  0  0  0  0
    7.3362  -13.9732   26.2722 C   0  0  0  0  0  0  0  0  0  0  0  0
    6.1202  -13.4511   25.8409 C   0  0  0  0  0  0  0  0  0  0  0  0
    5.8303  -12.1156   25.9305 C   0  0  0  0  0  0  0  0  0  0  0  0
    6.7472  -11.2242   26.4598 C   0  0  0  0  0  0  0  0  0  0  0  0
    7.9507  -11.7202   26.8899 C   0  0  0  0  0  0  0  0  0  0  0  0
    8.2290  -13.0617   26.7945 C   0  0  0  0  0  0  0  0  0  0  0  0
    9.5499  -16.9325   26.1213 C   0  0  0  0  0  0  0  0  0  0  0  0
   10.0155  -16.8736   27.3140 O   0  0  0  0  0  0  0  0  0  0  0  0
    9.6999  -18.2010   25.5034 N   0  0  0  0  0  0  0  0  0  0  0  0
   11.0193  -18.8383   25.3601 C   0  0  0  0  0  0  0  0  0  0  0  0
   11.4270  -19.3769   26.6720 C   0  0  0  0  0  0  0  0  0  0  0  0
   12.5328  -19.9519   26.7964 O   0  0  0  0  0  0  0  0  0  0  0  0
   10.6108  -19.2612   27.7744 O   0  0  0  0  0  0  0  0  0  0  0  0
  2  1  1  1
  2  3  1  0
  3  4  1  0
  4  8  1  0
  5  4  2  0
  6  9  1  0
  6  2  1  0
  7  6  2  0
 10  9  1  0
 10 18  1  0
 10 11  1  1
 11 12  1  0
 12 17  2  0
 12 13  1  0
 13 14  2  0
 14 15  1  0
 16 15  2  0
 17 16  1  0
 18 20  1  0
 19 18  2  0
 20 21  1  0
 21 22  1  0
 22 23  2  0
 22 24  1  0
M  END
$$$$
