DFG.pdb
     RDKit          3D

 24 24  0  0  1  0  0  0  0  0999 V2000
    8.0274  -16.8039   19.1382 N   0  0  0  0  0  0  0  0  0  0  0  0
    8.2605  -17.3553   20.4588 C   0  0  1  0  0  0  0  0  0  0  0  0
    9.3997  -18.3536   20.4189 C   0  0  0  0  0  0  0  0  0  0  0  0
    9.0370  -19.5838   19.6996 C   0  0  0  0  0  0  0  0  0  0  0  0
    7.9506  -19.7289   19.0934 O   0  0  0  0  0  0  0  0  0  0  0  0
    8.5530  -16.2567   21.4261 C   0  0  0  0  0  0  0  0  0  0  0  0
    9.2190  -15.2443   21.1305 O   0  0  0  0  0  0  0  0  0  0  0  0
    9.9497  -20.6277   19.6989 O   0  0  0  0  0  0  0  0  0  0  0  0
    8.0707  -16.3285   22.7497 N   0  0  0  0  0  0  0  0  0  0  0  0
    8.2767  -15.2110   23.6706 C   0  0  1  0  0  0  0  0  0  0  0  0
    6.9541  -14.6971   24.1681 C   0  0  0  0  0  0  0  0  0  0  0  0
    6.9917  -13.7188   25.2497 C   0  0  0  0  0  0  0  0  0  0  0  0
    7.1369  -14.1000   26.5805 C   0  0  0  0  0  0  0  0  0  0  0  0
    7.1729  -13.1847   27.5986 C   0  0  0  0  0  0  0  0  0  0  0  0
    7.0648  -11.8296   27.3389 C   0  0  0  0  0  0  0  0  0  0  0  0
    6.9211  -11.4351   26.0339 C   0  0  0  0  0  0  0  0  0  0  0  0
    6.8865  -12.3631   25.0221 C   0  0  0  0  0  0  0  0  0  0  0  0
    9.0723  -15.7623   24.7881 C   0  0  0  0  0  0  0  0  0  0  0  0
    8.7969  -16.8878   25.3359 O   0  0  0  0  0  0  0  0  0  0  0  0
   10.2011  -15.1078   25.3461 N   0  0  0  0  0  0  0  0  0  0  0  0
   11.5732  -15.5609   25.0640 C   0  0  0  0  0  0  0  0  0  0  0  0
   11.9489  -16.5766   26.0664 C   0  0  0  0  0  0  0  0  0  0  0  0
   11.0816  -17.0428   26.8406 O   0  0  0  0  0  0  0  0  0  0  0  0
   13.2449  -17.0282   26.1717 O   0  0  0  0  0  0  0  0  0  0  0  0
  2  1  1  6
  2  3  1  0
  3  4  1  0
  4  8  1  0
  5  4  2  0
  6  9  1  0
  6  2  1  0
  7  6  2  0
 10  9  1  0
 10 18  1  0
 10 11  1  1
 11 12  1  0
 12 17  2  0
 12 13  1  0
 13 14  2  0
 14 15  1  0
 16 15  2  0
 17 16  1  0
 18 20  1  0
 19 18  2  0
 20 21  1  0
 21 22  1  0
 22 23  2  0
 22 24  1  0
M  END
$$$$
