DFG.pdb
     RDKit          3D

 24 24  0  0  1  0  0  0  0  0999 V2000
    8.6897  -17.1292   21.8895 N   0  0  0  0  0  0  0  0  0  0  0  0
    9.9874  -16.5166   22.0974 C   0  0  1  0  0  0  0  0  0  0  0  0
   10.1787  -15.3527   21.1462 C   0  0  0  0  0  0  0  0  0  0  0  0
   10.2799  -15.7890   19.7457 C   0  0  0  0  0  0  0  0  0  0  0  0
   10.2260  -16.9906   19.3960 O   0  0  0  0  0  0  0  0  0  0  0  0
   10.1190  -16.0687   23.5153 C   0  0  0  0  0  0  0  0  0  0  0  0
   11.0183  -15.2992   23.9088 O   0  0  0  0  0  0  0  0  0  0  0  0
   10.4429  -14.8144   18.7729 O   0  0  0  0  0  0  0  0  0  0  0  0
    9.2014  -16.5149   24.4892 N   0  0  0  0  0  0  0  0  0  0  0  0
    9.2837  -16.0168   25.8619 C   0  0  1  0  0  0  0  0  0  0  0  0
    7.9270  -15.5750   26.3364 C   0  0  0  0  0  0  0  0  0  0  0  0
    7.5656  -14.1822   26.0951 C   0  0  0  0  0  0  0  0  0  0  0  0
    6.8219  -13.7984   24.9830 C   0  0  0  0  0  0  0  0  0  0  0  0
    6.4804  -12.4921   24.7530 C   0  0  0  0  0  0  0  0  0  0  0  0
    6.8670  -11.4928   25.6288 C   0  0  0  0  0  0  0  0  0  0  0  0
    7.6002  -11.8518   26.7301 C   0  0  0  0  0  0  0  0  0  0  0  0
    7.9361  -13.1654   26.9492 C   0  0  0  0  0  0  0  0  0  0  0  0
    9.7684  -17.1580   26.6673 C   0  0  0  0  0  0  0  0  0  0  0  0
    9.8740  -17.1006   27.9433 O   0  0  0  0  0  0  0  0  0  0  0  0
   10.1510  -18.4058   26.1104 N   0  0  0  0  0  0  0  0  0  0  0  0
   10.5481  -19.5406   26.9601 C   0  0  0  0  0  0  0  0  0  0  0  0
   12.0218  -19.5977   27.0108 C   0  0  0  0  0  0  0  0  0  0  0  0
   12.5911  -20.5095   27.6538 O   0  0  0  0  0  0  0  0  0  0  0  0
   12.7938  -18.6614   26.3612 O   0  0  0  0  0  0  0  0  0  0  0  0
  2  1  1  1
  2  3  1  0
  3  4  1  0
  4  8  1  0
  5  4  2  0
  6  9  1  0
  6  2  1  0
  7  6  2  0
 10  9  1  0
 10 18  1  0
 10 11  1  1
 11 12  1  0
 12 17  2  0
 12 13  1  0
 13 14  2  0
 14 15  1  0
 16 15  2  0
 17 16  1  0
 18 20  1  0
 19 18  2  0
 20 21  1  0
 21 22  1  0
 22 23  2  0
 22 24  1  0
M  END
$$$$
