DFG.pdb
     RDKit          3D

 24 24  0  0  1  0  0  0  0  0999 V2000
   10.5098  -16.1936   19.9751 N   0  0  0  0  0  0  0  0  0  0  0  0
    9.4953  -16.7701   20.8359 C   0  0  1  0  0  0  0  0  0  0  0  0
    9.7574  -18.2483   21.0417 C   0  0  0  0  0  0  0  0  0  0  0  0
    9.8094  -18.9866   19.7711 C   0  0  0  0  0  0  0  0  0  0  0  0
    9.0202  -18.7747   18.8218 O   0  0  0  0  0  0  0  0  0  0  0  0
    9.4665  -16.0505   22.1435 C   0  0  0  0  0  0  0  0  0  0  0  0
   10.4860  -15.5836   22.6898 O   0  0  0  0  0  0  0  0  0  0  0  0
   10.7837  -19.9629   19.6278 O   0  0  0  0  0  0  0  0  0  0  0  0
    8.2465  -15.8684   22.8274 N   0  0  0  0  0  0  0  0  0  0  0  0
    8.2031  -15.0831   24.0605 C   0  0  1  0  0  0  0  0  0  0  0  0
    7.3038  -13.8908   23.8857 C   0  0  0  0  0  0  0  0  0  0  0  0
    7.0099  -13.1061   25.0801 C   0  0  0  0  0  0  0  0  0  0  0  0
    5.8861  -13.3532   25.8633 C   0  0  0  0  0  0  0  0  0  0  0  0
    5.6068  -12.6190   26.9852 C   0  0  0  0  0  0  0  0  0  0  0  0
    6.4421  -11.5913   27.3870 C   0  0  0  0  0  0  0  0  0  0  0  0
    7.5542  -11.3332   26.6280 C   0  0  0  0  0  0  0  0  0  0  0  0
    7.8228  -12.0769   25.5051 C   0  0  0  0  0  0  0  0  0  0  0  0
    7.6608  -15.9950   25.0902 C   0  0  0  0  0  0  0  0  0  0  0  0
    6.6992  -16.8071   24.8487 O   0  0  0  0  0  0  0  0  0  0  0  0
    8.1513  -16.0577   26.4203 N   0  0  0  0  0  0  0  0  0  0  0  0
    9.5893  -16.1898   26.7069 C   0  0  0  0  0  0  0  0  0  0  0  0
    9.9020  -17.6192   26.8974 C   0  0  0  0  0  0  0  0  0  0  0  0
    9.8500  -18.1242   28.0425 O   0  0  0  0  0  0  0  0  0  0  0  0
   10.2538  -18.4193   25.8340 O   0  0  0  0  0  0  0  0  0  0  0  0
  2  1  1  6
  2  3  1  0
  3  4  1  0
  4  8  1  0
  5  4  2  0
  6  9  1  0
  6  2  1  0
  7  6  2  0
 10  9  1  0
 10 18  1  0
 10 11  1  6
 11 12  1  0
 12 17  2  0
 12 13  1  0
 13 14  2  0
 14 15  1  0
 16 15  2  0
 17 16  1  0
 18 20  1  0
 19 18  2  0
 20 21  1  0
 21 22  1  0
 22 23  2  0
 22 24  1  0
M  END
$$$$
