ICN.pdb
     RDKit          3D

 23 22  0  0  1  0  0  0  0  0999 V2000
    8.0078  -11.3339   26.8556 C   0  0  0  0  0  0  0  0  0  0  0  0
    7.8923  -12.8195   26.8392 C   0  0  0  0  0  0  0  0  0  0  0  0
    6.7144  -13.3226   26.0065 C   0  0  2  0  0  0  0  0  0  0  0  0
    5.4797  -12.8637   26.7452 C   0  0  0  0  0  0  0  0  0  0  0  0
    6.7286  -14.8421   25.9646 C   0  0  2  0  0  0  0  0  0  0  0  0
    7.6613  -15.3103   26.9906 N   0  0  0  0  0  0  0  0  0  0  0  0
    7.1587  -15.3407   24.6600 C   0  0  0  0  0  0  0  0  0  0  0  0
    6.4475  -16.2740   24.1257 O   0  0  0  0  0  0  0  0  0  0  0  0
    8.2785  -14.8960   23.9249 N   0  0  0  0  0  0  0  0  0  0  0  0
    8.6667  -15.5822   22.6903 C   0  0  1  0  0  0  0  0  0  0  0  0
    8.2537  -14.7371   21.5021 C   0  0  0  0  0  0  0  0  0  0  0  0
    7.8128  -13.0724   22.0185 S   0  0  0  0  0  0  0  0  0  0  0  0
   10.1280  -15.7955   22.7027 C   0  0  0  0  0  0  0  0  0  0  0  0
   10.8457  -15.0139   23.4174 O   0  0  0  0  0  0  0  0  0  0  0  0
   13.6047  -19.3348   23.8048 N   0  0  0  0  0  0  0  0  0  0  0  0
   12.2991  -19.2137   24.4034 C   0  0  0  0  0  0  0  0  0  0  0  0
   12.0524  -19.9365   25.3846 O   0  0  0  0  0  0  0  0  0  0  0  0
   11.3508  -18.2615   23.8324 C   0  0  0  0  0  0  0  0  0  0  0  0
   11.8759  -17.6077   22.6019 C   0  0  2  0  0  0  0  0  0  0  0  0
   10.8229  -16.7883   21.9994 N   0  0  0  0  0  0  0  0  0  0  0  0
   12.3755  -18.5532   21.6136 C   0  0  0  0  0  0  0  0  0  0  0  0
   13.6449  -18.6660   21.4001 O   0  0  0  0  0  0  0  0  0  0  0  0
   11.5853  -19.3775   20.8498 O   0  0  0  0  0  0  0  0  0  0  0  0
  1  2  1  0
  2  3  1  0
  3  4  1  1
  5  3  1  0
  5  7  1  0
  5  6  1  1
  7  9  1  0
  8  7  2  0
  9 10  1  0
 10 11  1  6
 10 13  1  0
 11 12  1  0
 13 14  2  0
 13 20  1  0
 15 16  1  0
 16 18  1  0
 17 16  2  0
 19 18  1  1
 19 21  1  0
 20 19  1  0
 21 22  2  0
 21 23  1  0
M  END
$$$$
