ICN.pdb
     RDKit          3D

 23 22  0  0  1  0  0  0  0  0999 V2000
    7.7112  -12.1541   20.1216 C   0  0  0  0  0  0  0  0  0  0  0  0
    7.6585  -13.6410   20.2049 C   0  0  0  0  0  0  0  0  0  0  0  0
    7.1626  -14.1510   21.5570 C   0  0  2  0  0  0  0  0  0  0  0  0
    8.1958  -13.6930   22.5587 C   0  0  0  0  0  0  0  0  0  0  0  0
    7.1229  -15.6705   21.5482 C   0  0  2  0  0  0  0  0  0  0  0  0
    5.9970  -16.0849   20.7100 N   0  0  0  0  0  0  0  0  0  0  0  0
    6.9458  -16.2124   22.8937 C   0  0  0  0  0  0  0  0  0  0  0  0
    5.7969  -16.0340   23.4508 O   0  0  0  0  0  0  0  0  0  0  0  0
    7.9123  -16.9169   23.6431 N   0  0  0  0  0  0  0  0  0  0  0  0
    7.6266  -17.3116   25.0246 C   0  0  1  0  0  0  0  0  0  0  0  0
    7.1760  -18.7584   25.0441 C   0  0  0  0  0  0  0  0  0  0  0  0
    6.7866  -19.2888   26.7172 S   0  0  0  0  0  0  0  0  0  0  0  0
    8.8477  -17.1292   25.8348 C   0  0  0  0  0  0  0  0  0  0  0  0
    9.9735  -17.4262   25.3046 O   0  0  0  0  0  0  0  0  0  0  0  0
    8.7411  -13.1867   28.4184 N   0  0  0  0  0  0  0  0  0  0  0  0
    9.7881  -14.0708   27.9715 C   0  0  0  0  0  0  0  0  0  0  0  0
   10.4000  -13.7528   26.9368 O   0  0  0  0  0  0  0  0  0  0  0  0
   10.0689  -15.2750   28.7479 C   0  0  0  0  0  0  0  0  0  0  0  0
   10.1518  -16.4927   27.8948 C   0  0  2  0  0  0  0  0  0  0  0  0
    8.9009  -16.6515   27.1510 N   0  0  0  0  0  0  0  0  0  0  0  0
   10.4218  -17.7089   28.6486 C   0  0  0  0  0  0  0  0  0  0  0  0
    9.5597  -18.6713   28.6676 O   0  0  0  0  0  0  0  0  0  0  0  0
   11.5635  -17.9410   29.3767 O   0  0  0  0  0  0  0  0  0  0  0  0
  1  2  1  0
  2  3  1  0
  3  4  1  1
  5  3  1  0
  5  7  1  0
  5  6  1  6
  7  9  1  0
  8  7  2  0
  9 10  1  0
 10 11  1  6
 10 13  1  0
 11 12  1  0
 13 14  2  0
 13 20  1  0
 15 16  1  0
 16 18  1  0
 17 16  2  0
 19 18  1  1
 19 21  1  0
 20 19  1  0
 21 22  2  0
 21 23  1  0
M  END
$$$$
