ICN.pdb
     RDKit          3D

 23 22  0  0  1  0  0  0  0  0999 V2000
    6.3258  -11.6335   27.6511 C   0  0  0  0  0  0  0  0  0  0  0  0
    5.8074  -12.7909   26.8685 C   0  0  0  0  0  0  0  0  0  0  0  0
    6.9063  -13.5726   26.1505 C   0  0  2  0  0  0  0  0  0  0  0  0
    7.5157  -12.5963   25.1727 C   0  0  0  0  0  0  0  0  0  0  0  0
    6.2914  -14.7276   25.3768 C   0  0  2  0  0  0  0  0  0  0  0  0
    5.8933  -15.7528   26.3423 N   0  0  0  0  0  0  0  0  0  0  0  0
    7.2397  -15.3045   24.4263 C   0  0  0  0  0  0  0  0  0  0  0  0
    8.0376  -16.2134   24.8730 O   0  0  0  0  0  0  0  0  0  0  0  0
    7.3649  -14.9643   23.0622 N   0  0  0  0  0  0  0  0  0  0  0  0
    8.2670  -15.7256   22.1947 C   0  0  1  0  0  0  0  0  0  0  0  0
    8.1517  -15.2017   20.7774 C   0  0  0  0  0  0  0  0  0  0  0  0
    9.2407  -16.1039   19.6672 S   0  0  0  0  0  0  0  0  0  0  0  0
    9.6475  -15.5816   22.6991 C   0  0  0  0  0  0  0  0  0  0  0  0
   10.0150  -14.4354   23.1324 O   0  0  0  0  0  0  0  0  0  0  0  0
   14.5355  -16.6969   24.1169 N   0  0  0  0  0  0  0  0  0  0  0  0
   13.5493  -17.4492   24.8510 C   0  0  0  0  0  0  0  0  0  0  0  0
   13.9554  -18.1632   25.7844 O   0  0  0  0  0  0  0  0  0  0  0  0
   12.1464  -17.3331   24.4633 C   0  0  0  0  0  0  0  0  0  0  0  0
   11.9492  -16.3945   23.3243 C   0  0  2  0  0  0  0  0  0  0  0  0
   10.6151  -16.5935   22.7553 N   0  0  0  0  0  0  0  0  0  0  0  0
   12.9476  -16.5418   22.2746 C   0  0  0  0  0  0  0  0  0  0  0  0
   14.1963  -16.3231   22.5247 O   0  0  0  0  0  0  0  0  0  0  0  0
   12.6731  -16.9104   20.9799 O   0  0  0  0  0  0  0  0  0  0  0  0
  1  2  1  0
  2  3  1  0
  3  4  1  6
  5  3  1  0
  5  7  1  0
  5  6  1  1
  7  9  1  0
  8  7  2  0
  9 10  1  0
 10 11  1  6
 10 13  1  0
 11 12  1  0
 13 14  2  0
 13 20  1  0
 15 16  1  0
 16 18  1  0
 17 16  2  0
 19 18  1  1
 19 21  1  0
 20 19  1  0
 21 22  2  0
 21 23  1  0
M  END
$$$$
