ICN.pdb
     RDKit          3D

 23 22  0  0  1  0  0  0  0  0999 V2000
    7.8231  -11.8011   18.5777 C   0  0  0  0  0  0  0  0  0  0  0  0
    7.5056  -13.1162   19.2025 C   0  0  0  0  0  0  0  0  0  0  0  0
    8.7483  -13.8965   19.6277 C   0  0  2  0  0  0  0  0  0  0  0  0
    9.5347  -12.9480   20.5010 C   0  0  0  0  0  0  0  0  0  0  0  0
    9.5791  -14.2437   18.4029 C   0  0  2  0  0  0  0  0  0  0  0  0
    8.7843  -15.1388   17.5609 N   0  0  0  0  0  0  0  0  0  0  0  0
   10.8267  -14.9103   18.7698 C   0  0  0  0  0  0  0  0  0  0  0  0
   10.7390  -16.1229   19.1990 O   0  0  0  0  0  0  0  0  0  0  0  0
   12.1221  -14.3548   18.6964 N   0  0  0  0  0  0  0  0  0  0  0  0
   13.2976  -15.1987   18.9242 C   0  0  1  0  0  0  0  0  0  0  0  0
   14.4510  -14.6785   18.0902 C   0  0  0  0  0  0  0  0  0  0  0  0
   14.1942  -15.0307   16.3459 S   0  0  0  0  0  0  0  0  0  0  0  0
   13.6327  -15.1713   20.3622 C   0  0  0  0  0  0  0  0  0  0  0  0
   13.6167  -14.0424   20.9639 O   0  0  0  0  0  0  0  0  0  0  0  0
   11.8910  -18.8265   22.6175 N   0  0  0  0  0  0  0  0  0  0  0  0
   12.4256  -17.6500   23.2561 C   0  0  0  0  0  0  0  0  0  0  0  0
   11.6137  -16.8650   23.7763 O   0  0  0  0  0  0  0  0  0  0  0  0
   13.8715  -17.4477   23.2571 C   0  0  0  0  0  0  0  0  0  0  0  0
   14.2668  -16.1805   22.5823 C   0  0  2  0  0  0  0  0  0  0  0  0
   13.9707  -16.2782   21.1519 N   0  0  0  0  0  0  0  0  0  0  0  0
   15.6722  -15.8444   22.7616 C   0  0  0  0  0  0  0  0  0  0  0  0
   16.4948  -15.9219   21.7681 O   0  0  0  0  0  0  0  0  0  0  0  0
   16.2331  -15.4317   23.9459 O   0  0  0  0  0  0  0  0  0  0  0  0
  1  2  1  0
  2  3  1  0
  3  4  1  1
  5  3  1  0
  5  7  1  0
  5  6  1  6
  7  9  1  0
  8  7  2  0
  9 10  1  0
 10 11  1  6
 10 13  1  0
 11 12  1  0
 13 14  2  0
 13 20  1  0
 15 16  1  0
 16 18  1  0
 17 16  2  0
 19 18  1  1
 19 21  1  0
 20 19  1  0
 21 22  2  0
 21 23  1  0
M  END
$$$$
