ICN.pdb
     RDKit          3D

 23 22  0  0  1  0  0  0  0  0999 V2000
    6.8005  -17.4371   19.5531 C   0  0  0  0  0  0  0  0  0  0  0  0
    6.6574  -16.0412   20.0550 C   0  0  0  0  0  0  0  0  0  0  0  0
    7.4388  -15.7810   21.3417 C   0  0  2  0  0  0  0  0  0  0  0  0
    6.8205  -16.6931   22.3745 C   0  0  0  0  0  0  0  0  0  0  0  0
    7.2430  -14.3377   21.7770 C   0  0  2  0  0  0  0  0  0  0  0  0
    7.7846  -13.4750   20.7262 N   0  0  0  0  0  0  0  0  0  0  0  0
    7.9333  -14.0560   23.0338 C   0  0  0  0  0  0  0  0  0  0  0  0
    9.2223  -14.0642   23.0091 O   0  0  0  0  0  0  0  0  0  0  0  0
    7.3238  -13.7718   24.2747 N   0  0  0  0  0  0  0  0  0  0  0  0
    8.1478  -13.5677   25.4686 C   0  0  1  0  0  0  0  0  0  0  0  0
    7.3589  -12.7669   26.4849 C   0  0  0  0  0  0  0  0  0  0  0  0
    5.5988  -12.8233   26.1227 S   0  0  0  0  0  0  0  0  0  0  0  0
    8.5281  -14.8854   26.0162 C   0  0  0  0  0  0  0  0  0  0  0  0
    7.7515  -15.8777   25.7949 O   0  0  0  0  0  0  0  0  0  0  0  0
   12.9465  -18.3580   27.3649 N   0  0  0  0  0  0  0  0  0  0  0  0
   11.6826  -18.3004   26.6745 C   0  0  0  0  0  0  0  0  0  0  0  0
   11.0995  -19.3778   26.4617 O   0  0  0  0  0  0  0  0  0  0  0  0
   11.1634  -16.9976   26.2684 C   0  0  0  0  0  0  0  0  0  0  0  0
   10.0668  -16.5227   27.1568 C   0  0  2  0  0  0  0  0  0  0  0  0
    9.6774  -15.1665   26.7667 N   0  0  0  0  0  0  0  0  0  0  0  0
   10.4213  -16.5347   28.5691 C   0  0  0  0  0  0  0  0  0  0  0  0
   10.7359  -15.4368   29.1735 O   0  0  0  0  0  0  0  0  0  0  0  0
   10.4535  -17.6589   29.3582 O   0  0  0  0  0  0  0  0  0  0  0  0
  1  2  1  0
  2  3  1  0
  3  4  1  1
  5  3  1  0
  5  7  1  0
  5  6  1  6
  7  9  1  0
  8  7  2  0
  9 10  1  0
 10 11  1  1
 10 13  1  0
 11 12  1  0
 13 14  2  0
 13 20  1  0
 15 16  1  0
 16 18  1  0
 17 16  2  0
 19 18  1  6
 19 21  1  0
 20 19  1  0
 21 22  2  0
 21 23  1  0
M  END
$$$$
