ICN.pdb
     RDKit          3D

 23 22  0  0  1  0  0  0  0  0999 V2000
    8.4267  -19.2593   14.6813 C   0  0  0  0  0  0  0  0  0  0  0  0
    8.0544  -19.2465   16.1242 C   0  0  0  0  0  0  0  0  0  0  0  0
    8.7201  -18.1165   16.9077 C   0  0  2  0  0  0  0  0  0  0  0  0
   10.2036  -18.3785   16.8017 C   0  0  0  0  0  0  0  0  0  0  0  0
    8.3081  -18.1943   18.3689 C   0  0  2  0  0  0  0  0  0  0  0  0
    6.8480  -18.1143   18.4280 N   0  0  0  0  0  0  0  0  0  0  0  0
    8.8817  -17.0999   19.1491 C   0  0  0  0  0  0  0  0  0  0  0  0
   10.1679  -17.0318   19.2058 O   0  0  0  0  0  0  0  0  0  0  0  0
    8.1619  -16.1055   19.8457 N   0  0  0  0  0  0  0  0  0  0  0  0
    8.8744  -15.1111   20.6516 C   0  0  1  0  0  0  0  0  0  0  0  0
    7.8998  -14.0362   21.0888 C   0  0  0  0  0  0  0  0  0  0  0  0
    7.2555  -13.1367   19.6718 S   0  0  0  0  0  0  0  0  0  0  0  0
    9.4740  -15.7858   21.8204 C   0  0  0  0  0  0  0  0  0  0  0  0
    8.7187  -16.5204   22.5461 O   0  0  0  0  0  0  0  0  0  0  0  0
   12.7062  -19.8916   23.3957 N   0  0  0  0  0  0  0  0  0  0  0  0
   11.7815  -18.8960   23.8767 C   0  0  0  0  0  0  0  0  0  0  0  0
   11.5576  -18.8692   25.0995 O   0  0  0  0  0  0  0  0  0  0  0  0
   11.1668  -17.9860   22.9145 C   0  0  0  0  0  0  0  0  0  0  0  0
   11.3897  -16.5560   23.2648 C   0  0  2  0  0  0  0  0  0  0  0  0
   10.8137  -15.7043   22.2227 N   0  0  0  0  0  0  0  0  0  0  0  0
   12.7946  -16.2168   23.4423 C   0  0  0  0  0  0  0  0  0  0  0  0
   13.4741  -16.7324   24.4130 O   0  0  0  0  0  0  0  0  0  0  0  0
   13.5004  -15.3585   22.6345 O   0  0  0  0  0  0  0  0  0  0  0  0
  1  2  1  0
  2  3  1  0
  3  4  1  1
  5  3  1  0
  5  7  1  0
  5  6  1  6
  7  9  1  0
  8  7  2  0
  9 10  1  0
 10 11  1  1
 10 13  1  0
 11 12  1  0
 13 14  2  0
 13 20  1  0
 15 16  1  0
 16 18  1  0
 17 16  2  0
 19 18  1  6
 19 21  1  0
 20 19  1  0
 21 22  2  0
 21 23  1  0
M  END
$$$$
