ICN.pdb
     RDKit          3D

 23 22  0  0  1  0  0  0  0  0999 V2000
   10.2391  -16.1755   16.7560 C   0  0  0  0  0  0  0  0  0  0  0  0
    9.8007  -14.9662   17.5083 C   0  0  0  0  0  0  0  0  0  0  0  0
    8.2879  -14.8990   17.7113 C   0  0  2  0  0  0  0  0  0  0  0  0
    7.7038  -14.7997   16.3222 C   0  0  0  0  0  0  0  0  0  0  0  0
    7.9306  -13.6423   18.4883 C   0  0  2  0  0  0  0  0  0  0  0  0
    8.5411  -12.5024   17.8028 N   0  0  0  0  0  0  0  0  0  0  0  0
    8.4262  -13.6992   19.8618 C   0  0  0  0  0  0  0  0  0  0  0  0
    9.5499  -13.1154   20.1040 O   0  0  0  0  0  0  0  0  0  0  0  0
    7.7905  -14.3304   20.9525 N   0  0  0  0  0  0  0  0  0  0  0  0
    8.4159  -14.3147   22.2771 C   0  0  1  0  0  0  0  0  0  0  0  0
    7.3417  -14.4698   23.3347 C   0  0  0  0  0  0  0  0  0  0  0  0
    8.0623  -14.5228   24.9810 S   0  0  0  0  0  0  0  0  0  0  0  0
    9.3951  -15.4174   22.3550 C   0  0  0  0  0  0  0  0  0  0  0  0
    9.0226  -16.5827   21.9808 O   0  0  0  0  0  0  0  0  0  0  0  0
   13.2853  -14.0202   20.7187 N   0  0  0  0  0  0  0  0  0  0  0  0
   12.9247  -15.3994   20.9316 C   0  0  0  0  0  0  0  0  0  0  0  0
   12.5757  -16.0576   19.9362 O   0  0  0  0  0  0  0  0  0  0  0  0
   12.9883  -15.9403   22.2862 C   0  0  0  0  0  0  0  0  0  0  0  0
   11.6657  -16.4310   22.7631 C   0  0  2  0  0  0  0  0  0  0  0  0
   10.7187  -15.3153   22.8034 N   0  0  0  0  0  0  0  0  0  0  0  0
   11.7221  -17.0627   24.0738 C   0  0  0  0  0  0  0  0  0  0  0  0
   11.0059  -16.6096   25.0492 O   0  0  0  0  0  0  0  0  0  0  0  0
   12.5032  -18.1489   24.3860 O   0  0  0  0  0  0  0  0  0  0  0  0
  1  2  1  0
  2  3  1  0
  3  4  1  6
  5  3  1  0
  5  7  1  0
  5  6  1  6
  7  9  1  0
  8  7  2  0
  9 10  1  0
 10 11  1  1
 10 13  1  0
 11 12  1  0
 13 14  2  0
 13 20  1  0
 15 16  1  0
 16 18  1  0
 17 16  2  0
 19 18  1  1
 19 21  1  0
 20 19  1  0
 21 22  2  0
 21 23  1  0
M  END
$$$$
