ICN.pdb
     RDKit          3D

 23 22  0  0  1  0  0  0  0  0999 V2000
    7.4751  -12.1214   18.9529 C   0  0  0  0  0  0  0  0  0  0  0  0
    7.4799  -13.2283   19.9506 C   0  0  0  0  0  0  0  0  0  0  0  0
    8.2609  -14.4558   19.4842 C   0  0  2  0  0  0  0  0  0  0  0  0
    7.5302  -14.9508   18.2588 C   0  0  0  0  0  0  0  0  0  0  0  0
    8.2120  -15.5320   20.5567 C   0  0  2  0  0  0  0  0  0  0  0  0
    6.8071  -15.8685   20.7906 N   0  0  0  0  0  0  0  0  0  0  0  0
    8.8114  -15.0729   21.8079 C   0  0  0  0  0  0  0  0  0  0  0  0
   10.0671  -14.7817   21.7841 O   0  0  0  0  0  0  0  0  0  0  0  0
    8.1460  -14.9139   23.0425 N   0  0  0  0  0  0  0  0  0  0  0  0
    8.9012  -14.5446   24.2421 C   0  0  1  0  0  0  0  0  0  0  0  0
    7.9443  -13.9971   25.2818 C   0  0  0  0  0  0  0  0  0  0  0  0
    6.5429  -15.0999   25.5107 S   0  0  0  0  0  0  0  0  0  0  0  0
    9.6036  -15.7402   24.7501 C   0  0  0  0  0  0  0  0  0  0  0  0
    9.1231  -16.8902   24.4615 O   0  0  0  0  0  0  0  0  0  0  0  0
   12.4356  -19.3493   26.8438 N   0  0  0  0  0  0  0  0  0  0  0  0
   10.9999  -19.2480   26.7668 C   0  0  0  0  0  0  0  0  0  0  0  0
   10.3406  -20.2631   27.0515 O   0  0  0  0  0  0  0  0  0  0  0  0
   10.4066  -17.9762   26.3642 C   0  0  0  0  0  0  0  0  0  0  0  0
   11.4328  -16.9721   25.9690 C   0  0  2  0  0  0  0  0  0  0  0  0
   10.7680  -15.7441   25.5295 N   0  0  0  0  0  0  0  0  0  0  0  0
   12.3242  -17.4404   24.9172 C   0  0  0  0  0  0  0  0  0  0  0  0
   13.5862  -17.1659   24.9595 O   0  0  0  0  0  0  0  0  0  0  0  0
   11.9303  -18.1837   23.8310 O   0  0  0  0  0  0  0  0  0  0  0  0
  1  2  1  0
  2  3  1  0
  3  4  1  6
  5  3  1  0
  5  7  1  0
  5  6  1  1
  7  9  1  0
  8  7  2  0
  9 10  1  0
 10 11  1  1
 10 13  1  0
 11 12  1  0
 13 14  2  0
 13 20  1  0
 15 16  1  0
 16 18  1  0
 17 16  2  0
 19 18  1  6
 19 21  1  0
 20 19  1  0
 21 22  2  0
 21 23  1  0
M  END
$$$$
