ICN.pdb
     RDKit          3D

 23 22  0  0  1  0  0  0  0  0999 V2000
    8.3296  -12.9818   17.2820 C   0  0  0  0  0  0  0  0  0  0  0  0
    7.5416  -13.7581   18.2805 C   0  0  0  0  0  0  0  0  0  0  0  0
    8.1559  -13.7381   19.6792 C   0  0  2  0  0  0  0  0  0  0  0  0
    9.4759  -14.4595   19.5448 C   0  0  0  0  0  0  0  0  0  0  0  0
    7.2668  -14.5103   20.6404 C   0  0  2  0  0  0  0  0  0  0  0  0
    6.0074  -13.7768   20.7739 N   0  0  0  0  0  0  0  0  0  0  0  0
    7.8866  -14.6454   21.9569 C   0  0  0  0  0  0  0  0  0  0  0  0
    8.0602  -13.5637   22.6366 O   0  0  0  0  0  0  0  0  0  0  0  0
    8.3116  -15.8490   22.5592 N   0  0  0  0  0  0  0  0  0  0  0  0
    8.9282  -15.8281   23.8878 C   0  0  1  0  0  0  0  0  0  0  0  0
    7.9829  -16.4694   24.8836 C   0  0  0  0  0  0  0  0  0  0  0  0
    8.7506  -16.6066   26.5036 S   0  0  0  0  0  0  0  0  0  0  0  0
   10.2093  -16.5606   23.8304 C   0  0  0  0  0  0  0  0  0  0  0  0
   10.1842  -17.7944   23.4931 O   0  0  0  0  0  0  0  0  0  0  0  0
   13.7507  -14.0246   22.1533 N   0  0  0  0  0  0  0  0  0  0  0  0
   13.6941  -15.4519   22.3461 C   0  0  0  0  0  0  0  0  0  0  0  0
   13.5134  -16.1568   21.3378 O   0  0  0  0  0  0  0  0  0  0  0  0
   13.8499  -15.9845   23.6967 C   0  0  0  0  0  0  0  0  0  0  0  0
   12.6988  -16.8357   24.1063 C   0  0  2  0  0  0  0  0  0  0  0  0
   11.4759  -16.0309   24.1106 N   0  0  0  0  0  0  0  0  0  0  0  0
   12.8735  -17.4536   25.4132 C   0  0  0  0  0  0  0  0  0  0  0  0
   13.8599  -18.2600   25.6285 O   0  0  0  0  0  0  0  0  0  0  0  0
   12.0478  -17.2491   26.4921 O   0  0  0  0  0  0  0  0  0  0  0  0
  1  2  1  0
  2  3  1  0
  3  4  1  6
  5  3  1  0
  5  7  1  0
  5  6  1  1
  7  9  1  0
  8  7  2  0
  9 10  1  0
 10 11  1  1
 10 13  1  0
 11 12  1  0
 13 14  2  0
 13 20  1  0
 15 16  1  0
 16 18  1  0
 17 16  2  0
 19 18  1  1
 19 21  1  0
 20 19  1  0
 21 22  2  0
 21 23  1  0
M  END
$$$$
