ICN.pdb
     RDKit          3D

 23 22  0  0  1  0  0  0  0  0999 V2000
    7.4400  -12.0735   19.9162 C   0  0  0  0  0  0  0  0  0  0  0  0
    7.5849  -13.5512   20.0435 C   0  0  0  0  0  0  0  0  0  0  0  0
    7.1390  -14.0848   21.4038 C   0  0  2  0  0  0  0  0  0  0  0  0
    8.1145  -13.5030   22.3991 C   0  0  0  0  0  0  0  0  0  0  0  0
    7.2579  -15.6002   21.4237 C   0  0  2  0  0  0  0  0  0  0  0  0
    6.2227  -16.1428   20.5429 N   0  0  0  0  0  0  0  0  0  0  0  0
    7.0736  -16.1371   22.7702 C   0  0  0  0  0  0  0  0  0  0  0  0
    5.8733  -16.1398   23.2409 O   0  0  0  0  0  0  0  0  0  0  0  0
    8.0846  -16.6576   23.6063 N   0  0  0  0  0  0  0  0  0  0  0  0
    7.7540  -17.1288   24.9534 C   0  0  1  0  0  0  0  0  0  0  0  0
    7.3076  -18.5750   24.8774 C   0  0  0  0  0  0  0  0  0  0  0  0
    6.9826  -19.2353   26.5177 S   0  0  0  0  0  0  0  0  0  0  0  0
    8.9466  -16.9899   25.8131 C   0  0  0  0  0  0  0  0  0  0  0  0
   10.0838  -17.3130   25.3241 O   0  0  0  0  0  0  0  0  0  0  0  0
    8.7871  -13.1574   28.3260 N   0  0  0  0  0  0  0  0  0  0  0  0
    9.8763  -14.0189   27.9400 C   0  0  0  0  0  0  0  0  0  0  0  0
   10.5213  -13.7027   26.9251 O   0  0  0  0  0  0  0  0  0  0  0  0
   10.1587  -15.1996   28.7512 C   0  0  0  0  0  0  0  0  0  0  0  0
   10.1796  -16.4503   27.9434 C   0  0  2  0  0  0  0  0  0  0  0  0
    8.9609  -16.5284   27.1360 N   0  0  0  0  0  0  0  0  0  0  0  0
   10.3018  -17.6568   28.7494 C   0  0  0  0  0  0  0  0  0  0  0  0
    9.3663  -18.5481   28.7380 O   0  0  0  0  0  0  0  0  0  0  0  0
   11.3711  -17.9512   29.5602 O   0  0  0  0  0  0  0  0  0  0  0  0
  1  2  1  0
  2  3  1  0
  3  4  1  1
  5  3  1  0
  5  7  1  0
  5  6  1  6
  7  9  1  0
  8  7  2  0
  9 10  1  0
 10 11  1  6
 10 13  1  0
 11 12  1  0
 13 14  2  0
 13 20  1  0
 15 16  1  0
 16 18  1  0
 17 16  2  0
 19 18  1  1
 19 21  1  0
 20 19  1  0
 21 22  2  0
 21 23  1  0
M  END
$$$$
