ICN.pdb
     RDKit          3D

 23 22  0  0  1  0  0  0  0  0999 V2000
    8.8025  -12.5745   19.6567 C   0  0  0  0  0  0  0  0  0  0  0  0
    7.5283  -13.3439   19.5850 C   0  0  0  0  0  0  0  0  0  0  0  0
    7.0857  -13.9027   20.9363 C   0  0  2  0  0  0  0  0  0  0  0  0
    7.7386  -13.0139   21.9680 C   0  0  0  0  0  0  0  0  0  0  0  0
    7.6110  -15.3196   21.1016 C   0  0  2  0  0  0  0  0  0  0  0  0
    6.9574  -16.1602   20.0977 N   0  0  0  0  0  0  0  0  0  0  0  0
    7.3232  -15.8486   22.4330 C   0  0  0  0  0  0  0  0  0  0  0  0
    6.0841  -15.9122   22.7832 O   0  0  0  0  0  0  0  0  0  0  0  0
    8.2730  -16.3011   23.3740 N   0  0  0  0  0  0  0  0  0  0  0  0
    7.8320  -16.8308   24.6666 C   0  0  1  0  0  0  0  0  0  0  0  0
    7.4311  -18.2825   24.4971 C   0  0  0  0  0  0  0  0  0  0  0  0
    7.0138  -19.0240   26.0808 S   0  0  0  0  0  0  0  0  0  0  0  0
    8.9368  -16.6992   25.6377 C   0  0  0  0  0  0  0  0  0  0  0  0
   10.1150  -17.0230   25.2587 O   0  0  0  0  0  0  0  0  0  0  0  0
    8.4369  -13.0579   27.9862 N   0  0  0  0  0  0  0  0  0  0  0  0
    9.7061  -13.7371   28.0589 C   0  0  0  0  0  0  0  0  0  0  0  0
   10.6733  -13.2007   27.4907 O   0  0  0  0  0  0  0  0  0  0  0  0
    9.7852  -15.0008   28.7861 C   0  0  0  0  0  0  0  0  0  0  0  0
    9.9615  -16.1672   27.8774 C   0  0  2  0  0  0  0  0  0  0  0  0
    8.8248  -16.2440   26.9581 N   0  0  0  0  0  0  0  0  0  0  0  0
   10.0971  -17.4339   28.5829 C   0  0  0  0  0  0  0  0  0  0  0  0
    9.2213  -18.3699   28.4199 O   0  0  0  0  0  0  0  0  0  0  0  0
   11.1192  -17.7426   29.4473 O   0  0  0  0  0  0  0  0  0  0  0  0
  1  2  1  0
  2  3  1  0
  3  4  1  1
  5  3  1  0
  5  7  1  0
  5  6  1  6
  7  9  1  0
  8  7  2  0
  9 10  1  0
 10 11  1  6
 10 13  1  0
 11 12  1  0
 13 14  2  0
 13 20  1  0
 15 16  1  0
 16 18  1  0
 17 16  2  0
 19 18  1  1
 19 21  1  0
 20 19  1  0
 21 22  2  0
 21 23  1  0
M  END
$$$$
