ICN.pdb
     RDKit          3D

 23 22  0  0  1  0  0  0  0  0999 V2000
    8.3113  -12.2799   18.5736 C   0  0  0  0  0  0  0  0  0  0  0  0
    7.3935  -13.2523   19.2314 C   0  0  0  0  0  0  0  0  0  0  0  0
    7.9296  -13.7818   20.5604 C   0  0  2  0  0  0  0  0  0  0  0  0
    9.2488  -14.4361   20.2253 C   0  0  0  0  0  0  0  0  0  0  0  0
    6.9821  -14.8348   21.1120 C   0  0  2  0  0  0  0  0  0  0  0  0
    5.6530  -14.2313   21.2169 N   0  0  0  0  0  0  0  0  0  0  0  0
    7.4042  -15.3009   22.4311 C   0  0  0  0  0  0  0  0  0  0  0  0
    7.6198  -14.4014   23.3292 O   0  0  0  0  0  0  0  0  0  0  0  0
    7.5958  -16.6444   22.8192 N   0  0  0  0  0  0  0  0  0  0  0  0
    8.1951  -16.9554   24.1192 C   0  0  1  0  0  0  0  0  0  0  0  0
    7.1351  -17.5500   25.0245 C   0  0  0  0  0  0  0  0  0  0  0  0
    7.6645  -17.5184   26.7424 S   0  0  0  0  0  0  0  0  0  0  0  0
    9.3077  -17.9050   23.9163 C   0  0  0  0  0  0  0  0  0  0  0  0
    9.4923  -18.3758   22.7411 O   0  0  0  0  0  0  0  0  0  0  0  0
   14.3000  -18.6713   24.1032 N   0  0  0  0  0  0  0  0  0  0  0  0
   13.5927  -17.5179   23.6063 C   0  0  0  0  0  0  0  0  0  0  0  0
   14.2323  -16.7158   22.9038 O   0  0  0  0  0  0  0  0  0  0  0  0
   12.1829  -17.3572   23.9505 C   0  0  0  0  0  0  0  0  0  0  0  0
   11.6306  -18.5505   24.6491 C   0  0  2  0  0  0  0  0  0  0  0  0
   10.2020  -18.3503   24.8987 N   0  0  0  0  0  0  0  0  0  0  0  0
   12.3025  -18.8464   25.9066 C   0  0  0  0  0  0  0  0  0  0  0  0
   13.0117  -19.9192   26.0323 O   0  0  0  0  0  0  0  0  0  0  0  0
   12.2515  -18.0525   27.0267 O   0  0  0  0  0  0  0  0  0  0  0  0
  1  2  1  0
  2  3  1  0
  3  4  1  6
  5  3  1  0
  5  7  1  0
  5  6  1  1
  7  9  1  0
  8  7  2  0
  9 10  1  0
 10 11  1  1
 10 13  1  0
 11 12  1  0
 13 14  2  0
 13 20  1  0
 15 16  1  0
 16 18  1  0
 17 16  2  0
 19 18  1  1
 19 21  1  0
 20 19  1  0
 21 22  2  0
 21 23  1  0
M  END
$$$$
