GVI.pdb
     RDKit          3D

 20 19  0  0  1  0  0  0  0  0999 V2000
    6.6209  -18.0855   21.4053 N   0  0  0  0  0  0  0  0  0  0  0  0
    6.4205  -17.7838   22.7938 C   0  0  0  0  0  0  0  0  0  0  0  0
    7.2656  -16.6105   23.1754 C   0  0  0  0  0  0  0  0  0  0  0  0
    8.4265  -16.4709   22.7096 O   0  0  0  0  0  0  0  0  0  0  0  0
    6.1552  -13.6361   26.3300 C   0  0  0  0  0  0  0  0  0  0  0  0
    6.7913  -13.4159   24.9854 C   0  0  1  0  0  0  0  0  0  0  0  0
    7.7465  -12.2249   25.1518 C   0  0  0  0  0  0  0  0  0  0  0  0
    7.6446  -14.5654   24.5126 C   0  0  2  0  0  0  0  0  0  0  0  0
    6.7756  -15.6397   24.0646 N   0  0  0  0  0  0  0  0  0  0  0  0
    8.5737  -15.1109   25.5019 C   0  0  0  0  0  0  0  0  0  0  0  0
    8.0819  -15.9171   26.3674 O   0  0  0  0  0  0  0  0  0  0  0  0
    9.6612  -13.4495   29.6784 C   0  0  0  0  0  0  0  0  0  0  0  0
   10.1161  -13.7744   28.2830 C   0  0  0  0  0  0  0  0  0  0  0  0
   10.2824  -15.2449   28.0271 C   0  0  2  0  0  0  0  0  0  0  0  0
   11.2528  -15.7741   29.0712 C   0  0  0  0  0  0  0  0  0  0  0  0
   10.7618  -15.5561   26.6246 C   0  0  2  0  0  0  0  0  0  0  0  0
    9.9503  -14.8673   25.6305 N   0  0  0  0  0  0  0  0  0  0  0  0
   10.8242  -17.0051   26.3648 C   0  0  0  0  0  0  0  0  0  0  0  0
   11.9027  -17.6416   26.2852 O   0  0  0  0  0  0  0  0  0  0  0  0
    9.6588  -17.7750   26.1874 O   0  0  0  0  0  0  0  0  0  0  0  0
  1  2  1  0
  3  4  2  0
  3  2  1  0
  6  5  1  1
  6  8  1  0
  7  6  1  0
  8  9  1  1
  9  3  1  0
 10  8  1  0
 10 11  2  0
 13 12  1  0
 14 13  1  0
 14 15  1  1
 16 17  1  6
 16 14  1  0
 17 10  1  0
 18 16  1  0
 19 18  2  0
 20 18  1  0
M  END
$$$$
