GVI.pdb
     RDKit          3D

 20 19  0  0  1  0  0  0  0  0999 V2000
    6.0544  -18.8221   20.4961 N   0  0  0  0  0  0  0  0  0  0  0  0
    5.8078  -17.5058   21.0119 C   0  0  0  0  0  0  0  0  0  0  0  0
    7.0902  -16.7374   21.0493 C   0  0  0  0  0  0  0  0  0  0  0  0
    8.1911  -17.3052   20.8262 O   0  0  0  0  0  0  0  0  0  0  0  0
    7.5478  -13.5293   19.2754 C   0  0  0  0  0  0  0  0  0  0  0  0
    8.2080  -13.3573   20.6154 C   0  0  1  0  0  0  0  0  0  0  0  0
    7.2794  -12.4530   21.4390 C   0  0  0  0  0  0  0  0  0  0  0  0
    8.3435  -14.6355   21.4033 C   0  0  2  0  0  0  0  0  0  0  0  0
    7.0876  -15.3621   21.3355 N   0  0  0  0  0  0  0  0  0  0  0  0
    8.7033  -14.4740   22.8118 C   0  0  0  0  0  0  0  0  0  0  0  0
    9.8541  -13.9666   23.0553 O   0  0  0  0  0  0  0  0  0  0  0  0
    5.8135  -11.8148   26.1768 C   0  0  0  0  0  0  0  0  0  0  0  0
    6.9077  -12.5242   25.4292 C   0  0  0  0  0  0  0  0  0  0  0  0
    7.3833  -13.7809   26.1000 C   0  0  2  0  0  0  0  0  0  0  0  0
    7.9228  -13.3833   27.4648 C   0  0  0  0  0  0  0  0  0  0  0  0
    8.4251  -14.5295   25.2949 C   0  0  2  0  0  0  0  0  0  0  0  0
    7.9460  -14.8033   23.9472 N   0  0  0  0  0  0  0  0  0  0  0  0
    8.8755  -15.7588   25.9710 C   0  0  0  0  0  0  0  0  0  0  0  0
    8.4326  -16.8983   25.6883 O   0  0  0  0  0  0  0  0  0  0  0  0
    9.8454  -15.7283   26.9911 O   0  0  0  0  0  0  0  0  0  0  0  0
  1  2  1  0
  3  4  2  0
  3  2  1  0
  6  5  1  6
  6  8  1  0
  7  6  1  0
  8  9  1  1
  9  3  1  0
 10  8  1  0
 10 11  2  0
 13 12  1  0
 14 13  1  0
 14 15  1  1
 16 17  1  6
 16 14  1  0
 17 10  1  0
 18 16  1  0
 19 18  2  0
 20 18  1  0
M  END
$$$$
