GVI.pdb
     RDKit          3D

 20 19  0  0  1  0  0  0  0  0999 V2000
   12.1834  -17.1968   19.7081 N   0  0  0  0  0  0  0  0  0  0  0  0
   11.0138  -17.5132   20.4770 C   0  0  0  0  0  0  0  0  0  0  0  0
   10.5107  -16.2762   21.1500 C   0  0  0  0  0  0  0  0  0  0  0  0
   11.2964  -15.3423   21.4577 O   0  0  0  0  0  0  0  0  0  0  0  0
    7.6434  -14.1807   19.9258 C   0  0  0  0  0  0  0  0  0  0  0  0
    7.4391  -14.4389   21.3930 C   0  0  1  0  0  0  0  0  0  0  0  0
    6.4155  -15.5795   21.4901 C   0  0  0  0  0  0  0  0  0  0  0  0
    8.6719  -14.9296   22.1090 C   0  0  2  0  0  0  0  0  0  0  0  0
    9.1460  -16.1350   21.4517 N   0  0  0  0  0  0  0  0  0  0  0  0
    8.5015  -15.2213   23.5322 C   0  0  0  0  0  0  0  0  0  0  0  0
    8.8223  -16.3998   23.9186 O   0  0  0  0  0  0  0  0  0  0  0  0
    6.0521  -11.7482   27.3807 C   0  0  0  0  0  0  0  0  0  0  0  0
    6.3748  -12.8907   26.4587 C   0  0  0  0  0  0  0  0  0  0  0  0
    7.6089  -13.6530   26.8477 C   0  0  2  0  0  0  0  0  0  0  0  0
    8.7600  -12.6599   26.8706 C   0  0  0  0  0  0  0  0  0  0  0  0
    7.9067  -14.8171   25.9257 C   0  0  2  0  0  0  0  0  0  0  0  0
    8.0289  -14.3714   24.5447 N   0  0  0  0  0  0  0  0  0  0  0  0
    6.9193  -15.9024   26.0603 C   0  0  0  0  0  0  0  0  0  0  0  0
    5.9806  -16.0802   25.2467 O   0  0  0  0  0  0  0  0  0  0  0  0
    6.9703  -16.8199   27.1270 O   0  0  0  0  0  0  0  0  0  0  0  0
  1  2  1  0
  3  4  2  0
  3  2  1  0
  6  5  1  6
  6  8  1  0
  7  6  1  0
  8  9  1  6
  9  3  1  0
 10  8  1  0
 10 11  2  0
 13 12  1  0
 14 13  1  0
 14 15  1  6
 16 17  1  6
 16 14  1  0
 17 10  1  0
 18 16  1  0
 19 18  2  0
 20 18  1  0
M  END
$$$$
