GVI.pdb
     RDKit          3D

 20 19  0  0  1  0  0  0  0  0999 V2000
    7.8698  -12.8183   17.7377 N   0  0  0  0  0  0  0  0  0  0  0  0
    8.7987  -12.9117   18.8275 C   0  0  0  0  0  0  0  0  0  0  0  0
    8.1851  -13.7027   19.9384 C   0  0  0  0  0  0  0  0  0  0  0  0
    7.0607  -13.3907   20.4100 O   0  0  0  0  0  0  0  0  0  0  0  0
    7.9534  -18.0381   22.2191 C   0  0  0  0  0  0  0  0  0  0  0  0
    8.5908  -17.0742   21.2569 C   0  0  1  0  0  0  0  0  0  0  0  0
    8.0554  -17.4394   19.8647 C   0  0  0  0  0  0  0  0  0  0  0  0
    8.2050  -15.6342   21.4821 C   0  0  2  0  0  0  0  0  0  0  0  0
    8.8568  -14.8127   20.4770 N   0  0  0  0  0  0  0  0  0  0  0  0
    8.5330  -15.0912   22.8000 C   0  0  0  0  0  0  0  0  0  0  0  0
    9.7494  -14.7358   22.9875 O   0  0  0  0  0  0  0  0  0  0  0  0
    6.8304  -11.4020   27.3166 C   0  0  0  0  0  0  0  0  0  0  0  0
    7.7274  -12.5145   26.8504 C   0  0  0  0  0  0  0  0  0  0  0  0
    7.2415  -13.2038   25.6077 C   0  0  2  0  0  0  0  0  0  0  0  0
    5.8438  -13.7250   25.9021 C   0  0  0  0  0  0  0  0  0  0  0  0
    8.1572  -14.3188   25.1470 C   0  0  2  0  0  0  0  0  0  0  0  0
    7.6820  -14.9034   23.9007 N   0  0  0  0  0  0  0  0  0  0  0  0
    8.3550  -15.3440   26.1867 C   0  0  0  0  0  0  0  0  0  0  0  0
    7.7399  -16.4377   26.1969 O   0  0  0  0  0  0  0  0  0  0  0  0
    9.2605  -15.1551   27.2481 O   0  0  0  0  0  0  0  0  0  0  0  0
  1  2  1  0
  3  4  2  0
  3  2  1  0
  6  5  1  1
  6  8  1  0
  7  6  1  0
  8  9  1  6
  9  3  1  0
 10  8  1  0
 10 11  2  0
 13 12  1  0
 14 13  1  0
 14 15  1  1
 16 17  1  6
 16 14  1  0
 17 10  1  0
 18 16  1  0
 19 18  2  0
 20 18  1  0
M  END
$$$$
