GVI.pdb
     RDKit          3D

 20 19  0  0  1  0  0  0  0  0999 V2000
   12.4517  -17.6486   19.8694 N   0  0  0  0  0  0  0  0  0  0  0  0
   11.2413  -17.8896   20.6015 C   0  0  0  0  0  0  0  0  0  0  0  0
   10.6347  -16.5835   21.0046 C   0  0  0  0  0  0  0  0  0  0  0  0
   11.3450  -15.5522   21.1309 O   0  0  0  0  0  0  0  0  0  0  0  0
    6.2603  -15.9069   21.3278 C   0  0  0  0  0  0  0  0  0  0  0  0
    7.3805  -15.0344   20.8329 C   0  0  1  0  0  0  0  0  0  0  0  0
    6.9346  -13.5847   21.0739 C   0  0  0  0  0  0  0  0  0  0  0  0
    8.6717  -15.2001   21.5935 C   0  0  2  0  0  0  0  0  0  0  0  0
    9.2551  -16.4853   21.2503 N   0  0  0  0  0  0  0  0  0  0  0  0
    8.5611  -15.1221   23.0499 C   0  0  0  0  0  0  0  0  0  0  0  0
    9.1691  -16.0285   23.7207 O   0  0  0  0  0  0  0  0  0  0  0  0
    6.7755  -11.5245   27.8739 C   0  0  0  0  0  0  0  0  0  0  0  0
    7.4603  -12.7391   27.3122 C   0  0  0  0  0  0  0  0  0  0  0  0
    7.2791  -12.9057   25.8307 C   0  0  2  0  0  0  0  0  0  0  0  0
    5.7877  -13.0580   25.5764 C   0  0  0  0  0  0  0  0  0  0  0  0
    8.0550  -14.0756   25.2624 C   0  0  2  0  0  0  0  0  0  0  0  0
    7.8705  -14.1739   23.8211 N   0  0  0  0  0  0  0  0  0  0  0  0
    7.7285  -15.3432   25.9390 C   0  0  0  0  0  0  0  0  0  0  0  0
    8.3127  -15.7362   26.9776 O   0  0  0  0  0  0  0  0  0  0  0  0
    6.7254  -16.2034   25.4530 O   0  0  0  0  0  0  0  0  0  0  0  0
  1  2  1  0
  3  4  2  0
  3  2  1  0
  6  5  1  1
  6  8  1  0
  7  6  1  0
  8  9  1  1
  9  3  1  0
 10  8  1  0
 10 11  2  0
 13 12  1  0
 14 13  1  0
 14 15  1  1
 16 17  1  6
 16 14  1  0
 17 10  1  0
 18 16  1  0
 19 18  2  0
 20 18  1  0
M  END
$$$$
