GVI.pdb
     RDKit          3D

 20 19  0  0  1  0  0  0  0  0999 V2000
   12.2612  -17.1527   19.8082 N   0  0  0  0  0  0  0  0  0  0  0  0
   11.0485  -17.5438   20.4682 C   0  0  0  0  0  0  0  0  0  0  0  0
   10.4198  -16.3459   21.1055 C   0  0  0  0  0  0  0  0  0  0  0  0
   11.0701  -15.2794   21.2598 O   0  0  0  0  0  0  0  0  0  0  0  0
    7.2087  -14.7942   19.9768 C   0  0  0  0  0  0  0  0  0  0  0  0
    7.1373  -14.9808   21.4672 C   0  0  1  0  0  0  0  0  0  0  0  0
    6.3320  -16.2673   21.7011 C   0  0  0  0  0  0  0  0  0  0  0  0
    8.4755  -15.2072   22.1239 C   0  0  2  0  0  0  0  0  0  0  0  0
    9.0863  -16.3911   21.5449 N   0  0  0  0  0  0  0  0  0  0  0  0
    8.4461  -15.3716   23.5770 C   0  0  0  0  0  0  0  0  0  0  0  0
    8.9116  -16.4719   24.0393 O   0  0  0  0  0  0  0  0  0  0  0  0
    5.7579  -11.9081   27.2661 C   0  0  0  0  0  0  0  0  0  0  0  0
    6.2137  -13.0533   26.4055 C   0  0  0  0  0  0  0  0  0  0  0  0
    7.5512  -13.6115   26.7989 C   0  0  2  0  0  0  0  0  0  0  0  0
    8.5597  -12.4791   26.6860 C   0  0  0  0  0  0  0  0  0  0  0  0
    7.9692  -14.8038   25.9637 C   0  0  2  0  0  0  0  0  0  0  0  0
    7.9715  -14.4729   24.5455 N   0  0  0  0  0  0  0  0  0  0  0  0
    7.1481  -15.9953   26.2417 C   0  0  0  0  0  0  0  0  0  0  0  0
    6.1605  -16.3259   25.5418 O   0  0  0  0  0  0  0  0  0  0  0  0
    7.4267  -16.8481   27.3268 O   0  0  0  0  0  0  0  0  0  0  0  0
  1  2  1  0
  3  4  2  0
  3  2  1  0
  6  5  1  6
  6  8  1  0
  7  6  1  0
  8  9  1  6
  9  3  1  0
 10  8  1  0
 10 11  2  0
 13 12  1  0
 14 13  1  0
 14 15  1  6
 16 17  1  6
 16 14  1  0
 17 10  1  0
 18 16  1  0
 19 18  2  0
 20 18  1  0
M  END
$$$$
