GVI.pdb
     RDKit          3D

 20 19  0  0  1  0  0  0  0  0999 V2000
   12.4074  -17.2452   19.9966 N   0  0  0  0  0  0  0  0  0  0  0  0
   11.1778  -17.5673   20.6628 C   0  0  0  0  0  0  0  0  0  0  0  0
   10.5342  -16.3105   21.1552 C   0  0  0  0  0  0  0  0  0  0  0  0
   11.1915  -15.2412   21.2489 O   0  0  0  0  0  0  0  0  0  0  0  0
    7.4609  -14.5704   19.9094 C   0  0  0  0  0  0  0  0  0  0  0  0
    7.3036  -14.7991   21.3873 C   0  0  1  0  0  0  0  0  0  0  0  0
    6.4321  -16.0546   21.5374 C   0  0  0  0  0  0  0  0  0  0  0  0
    8.5944  -15.1055   22.1034 C   0  0  2  0  0  0  0  0  0  0  0  0
    9.1786  -16.3022   21.5233 N   0  0  0  0  0  0  0  0  0  0  0  0
    8.4831  -15.3048   23.5482 C   0  0  0  0  0  0  0  0  0  0  0  0
    8.9657  -16.3956   24.0156 O   0  0  0  0  0  0  0  0  0  0  0  0
    5.9226  -11.7501   27.2860 C   0  0  0  0  0  0  0  0  0  0  0  0
    6.2604  -12.9549   26.4529 C   0  0  0  0  0  0  0  0  0  0  0  0
    7.6074  -13.5443   26.7586 C   0  0  2  0  0  0  0  0  0  0  0  0
    8.6363  -12.4459   26.5419 C   0  0  0  0  0  0  0  0  0  0  0  0
    7.9267  -14.7676   25.9248 C   0  0  2  0  0  0  0  0  0  0  0  0
    7.9123  -14.4492   24.5037 N   0  0  0  0  0  0  0  0  0  0  0  0
    7.0393  -15.9021   26.2358 C   0  0  0  0  0  0  0  0  0  0  0  0
    7.0986  -16.5438   27.3125 O   0  0  0  0  0  0  0  0  0  0  0  0
    6.0559  -16.3413   25.3290 O   0  0  0  0  0  0  0  0  0  0  0  0
  1  2  1  0
  3  4  2  0
  3  2  1  0
  6  5  1  6
  6  8  1  0
  7  6  1  0
  8  9  1  6
  9  3  1  0
 10  8  1  0
 10 11  2  0
 13 12  1  0
 14 13  1  0
 14 15  1  6
 16 17  1  6
 16 14  1  0
 17 10  1  0
 18 16  1  0
 19 18  2  0
 20 18  1  0
M  END
$$$$
