GVI.pdb
     RDKit          3D

 20 19  0  0  1  0  0  0  0  0999 V2000
    7.7224  -12.6209   18.2173 N   0  0  0  0  0  0  0  0  0  0  0  0
    8.7292  -13.0503   19.1452 C   0  0  0  0  0  0  0  0  0  0  0  0
    8.0787  -13.7380   20.3029 C   0  0  0  0  0  0  0  0  0  0  0  0
    7.0085  -13.2980   20.7982 O   0  0  0  0  0  0  0  0  0  0  0  0
    7.4518  -17.9451   22.7279 C   0  0  0  0  0  0  0  0  0  0  0  0
    8.1070  -17.0879   21.6805 C   0  0  1  0  0  0  0  0  0  0  0  0
    7.3681  -17.3764   20.3655 C   0  0  0  0  0  0  0  0  0  0  0  0
    7.9615  -15.6063   21.9184 C   0  0  2  0  0  0  0  0  0  0  0  0
    8.6539  -14.8923   20.8597 N   0  0  0  0  0  0  0  0  0  0  0  0
    8.4649  -15.1206   23.2030 C   0  0  0  0  0  0  0  0  0  0  0  0
    9.7302  -14.9416   23.2926 O   0  0  0  0  0  0  0  0  0  0  0  0
    5.6668  -12.0792   27.1097 C   0  0  0  0  0  0  0  0  0  0  0  0
    6.2915  -13.2824   26.4602 C   0  0  0  0  0  0  0  0  0  0  0  0
    7.7389  -13.0963   26.1057 C   0  0  2  0  0  0  0  0  0  0  0  0
    7.8084  -11.9743   25.0818 C   0  0  0  0  0  0  0  0  0  0  0  0
    8.3921  -14.3584   25.5821 C   0  0  2  0  0  0  0  0  0  0  0  0
    7.7376  -14.8188   24.3653 N   0  0  0  0  0  0  0  0  0  0  0  0
    8.4514  -15.4205   26.6016 C   0  0  0  0  0  0  0  0  0  0  0  0
    9.0846  -15.3026   27.6785 O   0  0  0  0  0  0  0  0  0  0  0  0
    7.7904  -16.6512   26.4261 O   0  0  0  0  0  0  0  0  0  0  0  0
  1  2  1  0
  3  4  2  0
  3  2  1  0
  6  5  1  1
  6  8  1  0
  7  6  1  0
  8  9  1  6
  9  3  1  0
 10  8  1  0
 10 11  2  0
 13 12  1  0
 14 13  1  0
 14 15  1  6
 16 17  1  6
 16 14  1  0
 17 10  1  0
 18 16  1  0
 19 18  2  0
 20 18  1  0
M  END
$$$$
