GVI.pdb
     RDKit          3D

 20 19  0  0  1  0  0  0  0  0999 V2000
    8.1090  -12.4313   18.2045 N   0  0  0  0  0  0  0  0  0  0  0  0
    8.9214  -13.3408   18.9609 C   0  0  0  0  0  0  0  0  0  0  0  0
    8.1103  -13.9265   20.0723 C   0  0  0  0  0  0  0  0  0  0  0  0
    6.9746  -13.4647   20.3570 O   0  0  0  0  0  0  0  0  0  0  0  0
    7.2423  -17.4613   20.1475 C   0  0  0  0  0  0  0  0  0  0  0  0
    7.7014  -17.1200   21.5381 C   0  0  1  0  0  0  0  0  0  0  0  0
    9.1464  -17.6279   21.6503 C   0  0  0  0  0  0  0  0  0  0  0  0
    7.7617  -15.6402   21.8204 C   0  0  2  0  0  0  0  0  0  0  0  0
    8.6048  -15.0073   20.8211 N   0  0  0  0  0  0  0  0  0  0  0  0
    8.2634  -15.2697   23.1435 C   0  0  0  0  0  0  0  0  0  0  0  0
    9.5229  -15.0562   23.2402 O   0  0  0  0  0  0  0  0  0  0  0  0
    5.7596  -11.7101   26.1245 C   0  0  0  0  0  0  0  0  0  0  0  0
    6.7962  -12.5697   25.4565 C   0  0  0  0  0  0  0  0  0  0  0  0
    7.2967  -13.6940   26.3172 C   0  0  2  0  0  0  0  0  0  0  0  0
    8.0387  -13.0665   27.4867 C   0  0  0  0  0  0  0  0  0  0  0  0
    8.1787  -14.6715   25.5686 C   0  0  2  0  0  0  0  0  0  0  0  0
    7.5402  -15.1131   24.3364 N   0  0  0  0  0  0  0  0  0  0  0  0
    8.5854  -15.8121   26.4081 C   0  0  0  0  0  0  0  0  0  0  0  0
    9.4446  -15.7217   27.3181 O   0  0  0  0  0  0  0  0  0  0  0  0
    8.0254  -17.0925   26.2369 O   0  0  0  0  0  0  0  0  0  0  0  0
  1  2  1  0
  3  4  2  0
  3  2  1  0
  6  5  1  6
  6  8  1  0
  7  6  1  0
  8  9  1  6
  9  3  1  0
 10  8  1  0
 10 11  2  0
 13 12  1  0
 14 13  1  0
 14 15  1  1
 16 17  1  6
 16 14  1  0
 17 10  1  0
 18 16  1  0
 19 18  2  0
 20 18  1  0
M  END
$$$$
