GVI.pdb
     RDKit          3D

 20 19  0  0  1  0  0  0  0  0999 V2000
    6.2570  -18.9040   20.1453 N   0  0  0  0  0  0  0  0  0  0  0  0
    5.9382  -17.6028   20.6596 C   0  0  0  0  0  0  0  0  0  0  0  0
    7.1945  -16.8063   20.8126 C   0  0  0  0  0  0  0  0  0  0  0  0
    8.3211  -17.3675   20.8043 O   0  0  0  0  0  0  0  0  0  0  0  0
    7.5324  -13.4952   19.0336 C   0  0  0  0  0  0  0  0  0  0  0  0
    8.2339  -13.3576   20.3566 C   0  0  1  0  0  0  0  0  0  0  0  0
    7.3473  -12.4489   21.2206 C   0  0  0  0  0  0  0  0  0  0  0  0
    8.3663  -14.6508   21.1203 C   0  0  2  0  0  0  0  0  0  0  0  0
    7.1382  -15.4114   20.9689 N   0  0  0  0  0  0  0  0  0  0  0  0
    8.6468  -14.5143   22.5493 C   0  0  0  0  0  0  0  0  0  0  0  0
    9.7961  -14.0454   22.8661 O   0  0  0  0  0  0  0  0  0  0  0  0
    6.7898  -11.4989   27.0316 C   0  0  0  0  0  0  0  0  0  0  0  0
    7.7664  -12.5250   26.5286 C   0  0  0  0  0  0  0  0  0  0  0  0
    7.1549  -13.5443   25.6107 C   0  0  2  0  0  0  0  0  0  0  0  0
    6.1125  -14.3038   26.4159 C   0  0  0  0  0  0  0  0  0  0  0  0
    8.1728  -14.4869   25.0031 C   0  0  2  0  0  0  0  0  0  0  0  0
    7.8140  -14.8310   23.6342 N   0  0  0  0  0  0  0  0  0  0  0  0
    8.3817  -15.6897   25.8280 C   0  0  0  0  0  0  0  0  0  0  0  0
    7.9303  -16.8193   25.5200 O   0  0  0  0  0  0  0  0  0  0  0  0
    9.1121  -15.6433   27.0308 O   0  0  0  0  0  0  0  0  0  0  0  0
  1  2  1  0
  3  4  2  0
  3  2  1  0
  6  5  1  6
  6  8  1  0
  7  6  1  0
  8  9  1  1
  9  3  1  0
 10  8  1  0
 10 11  2  0
 13 12  1  0
 14 13  1  0
 14 15  1  1
 16 17  1  6
 16 14  1  0
 17 10  1  0
 18 16  1  0
 19 18  2  0
 20 18  1  0
M  END
$$$$
