GVI.pdb
     RDKit          3D

 20 19  0  0  1  0  0  0  0  0999 V2000
   12.1510  -17.0172   19.5351 N   0  0  0  0  0  0  0  0  0  0  0  0
   11.0254  -17.4856   20.2920 C   0  0  0  0  0  0  0  0  0  0  0  0
   10.3966  -16.3359   21.0125 C   0  0  0  0  0  0  0  0  0  0  0  0
   11.0398  -15.2746   21.2224 O   0  0  0  0  0  0  0  0  0  0  0  0
    7.1484  -14.9565   19.8473 C   0  0  0  0  0  0  0  0  0  0  0  0
    7.0758  -15.0812   21.3440 C   0  0  1  0  0  0  0  0  0  0  0  0
    6.3030  -16.3770   21.6303 C   0  0  0  0  0  0  0  0  0  0  0  0
    8.4166  -15.2446   22.0138 C   0  0  2  0  0  0  0  0  0  0  0  0
    9.0710  -16.4216   21.4694 N   0  0  0  0  0  0  0  0  0  0  0  0
    8.3835  -15.3720   23.4705 C   0  0  0  0  0  0  0  0  0  0  0  0
    8.9238  -16.4222   23.9669 O   0  0  0  0  0  0  0  0  0  0  0  0
    5.7627  -11.7839   27.1052 C   0  0  0  0  0  0  0  0  0  0  0  0
    6.1661  -13.0048   26.3266 C   0  0  0  0  0  0  0  0  0  0  0  0
    7.5582  -13.4817   26.6264 C   0  0  2  0  0  0  0  0  0  0  0  0
    8.5006  -12.3249   26.3335 C   0  0  0  0  0  0  0  0  0  0  0  0
    7.9471  -14.7182   25.8429 C   0  0  2  0  0  0  0  0  0  0  0  0
    7.8333  -14.4855   24.4098 N   0  0  0  0  0  0  0  0  0  0  0  0
    7.1843  -15.9072   26.2619 C   0  0  0  0  0  0  0  0  0  0  0  0
    6.2220  -16.3714   25.6039 O   0  0  0  0  0  0  0  0  0  0  0  0
    7.4942  -16.6050   27.4448 O   0  0  0  0  0  0  0  0  0  0  0  0
  1  2  1  0
  3  4  2  0
  3  2  1  0
  6  5  1  6
  6  8  1  0
  7  6  1  0
  8  9  1  6
  9  3  1  0
 10  8  1  0
 10 11  2  0
 13 12  1  0
 14 13  1  0
 14 15  1  6
 16 17  1  6
 16 14  1  0
 17 10  1  0
 18 16  1  0
 19 18  2  0
 20 18  1  0
M  END
$$$$
