GVI.pdb
     RDKit          3D

 20 19  0  0  1  0  0  0  0  0999 V2000
   12.4550  -17.2434   19.8574 N   0  0  0  0  0  0  0  0  0  0  0  0
   11.3284  -17.6902   20.6257 C   0  0  0  0  0  0  0  0  0  0  0  0
   10.6886  -16.5184   21.2993 C   0  0  0  0  0  0  0  0  0  0  0  0
   11.3868  -15.6384   21.8672 O   0  0  0  0  0  0  0  0  0  0  0  0
    6.7226  -13.6238   21.5678 C   0  0  0  0  0  0  0  0  0  0  0  0
    7.4572  -14.8383   21.0712 C   0  0  1  0  0  0  0  0  0  0  0  0
    7.9572  -14.4913   19.6612 C   0  0  0  0  0  0  0  0  0  0  0  0
    8.6876  -15.1832   21.8714 C   0  0  2  0  0  0  0  0  0  0  0  0
    9.2908  -16.3792   21.3096 N   0  0  0  0  0  0  0  0  0  0  0  0
    8.4691  -15.4087   23.3000 C   0  0  0  0  0  0  0  0  0  0  0  0
    8.6468  -16.6038   23.7258 O   0  0  0  0  0  0  0  0  0  0  0  0
    5.8417  -11.8457   26.9025 C   0  0  0  0  0  0  0  0  0  0  0  0
    6.3021  -12.9772   26.0263 C   0  0  0  0  0  0  0  0  0  0  0  0
    7.5429  -13.6618   26.5232 C   0  0  2  0  0  0  0  0  0  0  0  0
    8.6464  -12.6163   26.5614 C   0  0  0  0  0  0  0  0  0  0  0  0
    7.9453  -14.8537   25.6799 C   0  0  2  0  0  0  0  0  0  0  0  0
    8.0873  -14.4786   24.2798 N   0  0  0  0  0  0  0  0  0  0  0  0
    7.0239  -15.9914   25.8461 C   0  0  0  0  0  0  0  0  0  0  0  0
    7.0593  -16.7637   26.8345 O   0  0  0  0  0  0  0  0  0  0  0  0
    6.0324  -16.2852   24.8906 O   0  0  0  0  0  0  0  0  0  0  0  0
  1  2  1  0
  3  4  2  0
  3  2  1  0
  6  5  1  1
  6  8  1  0
  7  6  1  0
  8  9  1  6
  9  3  1  0
 10  8  1  0
 10 11  2  0
 13 12  1  0
 14 13  1  0
 14 15  1  6
 16 17  1  6
 16 14  1  0
 17 10  1  0
 18 16  1  0
 19 18  2  0
 20 18  1  0
M  END
$$$$
