KGL.pdb
     RDKit          3D

 22 21  0  0  1  0  0  0  0  0999 V2000
    8.8033  -20.5941   21.4096 N   0  0  0  0  0  0  0  0  0  0  0  0
    7.6241  -19.7805   21.3379 C   0  0  1  0  0  0  0  0  0  0  0  0
    6.4796  -20.5181   20.7621 C   0  0  0  0  0  0  0  0  0  0  0  0
    6.7898  -21.1966   19.4802 C   0  0  0  0  0  0  0  0  0  0  0  0
    5.6539  -21.8692   18.7724 C   0  0  0  0  0  0  0  0  0  0  0  0
    6.1452  -22.5458   17.4890 C   0  0  0  0  0  0  0  0  0  0  0  0
    5.0398  -23.1591   16.7840 N   0  0  0  0  0  0  0  0  0  0  0  0
    7.3087  -19.1335   22.6416 C   0  0  0  0  0  0  0  0  0  0  0  0
    7.6151  -19.7459   23.6909 O   0  0  0  0  0  0  0  0  0  0  0  0
    6.6808  -17.8629   22.7411 N   0  0  0  0  0  0  0  0  0  0  0  0
    6.3835  -17.2191   23.9918 C   0  0  0  0  0  0  0  0  0  0  0  0
    7.5480  -16.4605   24.5341 C   0  0  0  0  0  0  0  0  0  0  0  0
    8.6885  -16.6462   24.0366 O   0  0  0  0  0  0  0  0  0  0  0  0
    5.8685  -11.9587   27.0981 C   0  0  0  0  0  0  0  0  0  0  0  0
    6.6243  -12.8647   26.1887 C   0  0  1  0  0  0  0  0  0  0  0  0
    7.0195  -12.0240   24.9646 C   0  0  0  0  0  0  0  0  0  0  0  0
    7.8636  -13.4644   26.7237 C   0  0  0  0  0  0  0  0  0  0  0  0
    8.3420  -14.7293   26.1069 C   0  0  2  0  0  0  0  0  0  0  0  0
    7.2946  -15.5619   25.5942 N   0  0  0  0  0  0  0  0  0  0  0  0
    9.2648  -15.5229   26.9608 C   0  0  0  0  0  0  0  0  0  0  0  0
    9.0445  -16.8508   27.2908 O   0  0  0  0  0  0  0  0  0  0  0  0
   10.3241  -15.0048   27.4393 O   0  0  0  0  0  0  0  0  0  0  0  0
  2  1  1  1
  2  3  1  0
  4  3  1  0
  5  4  1  0
  6  5  1  0
  7  6  1  0
  8  9  2  0
  8  2  1  0
 10  8  1  0
 11 12  1  0
 11 10  1  0
 12 19  1  0
 13 12  2  0
 15 14  1  1
 15 16  1  0
 17 15  1  0
 18 17  1  1
 18 20  1  0
 19 18  1  0
 20 22  2  0
 20 21  1  0
M  END
$$$$
