KGL.pdb
     RDKit          3D

 22 21  0  0  1  0  0  0  0  0999 V2000
    7.0498  -18.9689   21.3296 N   0  0  0  0  0  0  0  0  0  0  0  0
    6.6669  -17.7204   20.7361 C   0  0  1  0  0  0  0  0  0  0  0  0
    5.2417  -17.4100   20.9760 C   0  0  0  0  0  0  0  0  0  0  0  0
    4.4485  -18.5707   21.4488 C   0  0  0  0  0  0  0  0  0  0  0  0
    2.9736  -18.3673   21.6132 C   0  0  0  0  0  0  0  0  0  0  0  0
    2.3339  -19.5872   22.2833 C   0  0  0  0  0  0  0  0  0  0  0  0
    0.9089  -19.3895   22.4417 N   0  0  0  0  0  0  0  0  0  0  0  0
    7.5819  -16.6111   21.1233 C   0  0  0  0  0  0  0  0  0  0  0  0
    7.3675  -15.4760   20.6379 O   0  0  0  0  0  0  0  0  0  0  0  0
    8.6765  -16.7874   22.0116 N   0  0  0  0  0  0  0  0  0  0  0  0
    9.6033  -15.7411   22.3484 C   0  0  0  0  0  0  0  0  0  0  0  0
    9.5648  -15.3895   23.7978 C   0  0  0  0  0  0  0  0  0  0  0  0
   10.5072  -14.7193   24.2933 O   0  0  0  0  0  0  0  0  0  0  0  0
    5.6521  -12.8377   26.2108 C   0  0  0  0  0  0  0  0  0  0  0  0
    6.9417  -13.4998   25.8682 C   0  0  1  0  0  0  0  0  0  0  0  0
    8.0537  -12.6304   26.4758 C   0  0  0  0  0  0  0  0  0  0  0  0
    7.1399  -14.8745   26.3712 C   0  0  0  0  0  0  0  0  0  0  0  0
    8.3704  -15.5941   25.9501 C   0  0  2  0  0  0  0  0  0  0  0  0
    8.4506  -15.8392   24.5407 N   0  0  0  0  0  0  0  0  0  0  0  0
    8.6474  -16.8415   26.7103 C   0  0  0  0  0  0  0  0  0  0  0  0
    9.1202  -16.8503   28.0131 O   0  0  0  0  0  0  0  0  0  0  0  0
    8.4589  -17.9852   26.1850 O   0  0  0  0  0  0  0  0  0  0  0  0
  2  1  1  1
  2  3  1  0
  4  3  1  0
  5  4  1  0
  6  5  1  0
  7  6  1  0
  8  9  2  0
  8  2  1  0
 10  8  1  0
 11 12  1  0
 11 10  1  0
 12 19  1  0
 13 12  2  0
 15 14  1  1
 15 16  1  0
 17 15  1  0
 18 17  1  6
 18 20  1  0
 19 18  1  0
 20 22  2  0
 20 21  1  0
M  END
$$$$
