KGL.pdb
     RDKit          3D

 22 21  0  0  1  0  0  0  0  0999 V2000
   10.7075  -18.3929   20.4752 N   0  0  0  0  0  0  0  0  0  0  0  0
    9.5034  -17.7454   20.0411 C   0  0  1  0  0  0  0  0  0  0  0  0
    8.7091  -18.6059   19.1389 C   0  0  0  0  0  0  0  0  0  0  0  0
    9.2234  -19.9927   19.0295 C   0  0  0  0  0  0  0  0  0  0  0  0
    9.0071  -20.6994   17.7266 C   0  0  0  0  0  0  0  0  0  0  0  0
    9.5825  -22.1179   17.7822 C   0  0  0  0  0  0  0  0  0  0  0  0
    9.4929  -22.7526   16.4845 N   0  0  0  0  0  0  0  0  0  0  0  0
    8.7137  -17.2058   21.1826 C   0  0  0  0  0  0  0  0  0  0  0  0
    8.6164  -17.9096   22.2147 O   0  0  0  0  0  0  0  0  0  0  0  0
    8.0733  -15.9381   21.1476 N   0  0  0  0  0  0  0  0  0  0  0  0
    7.3229  -15.3961   22.2478 C   0  0  0  0  0  0  0  0  0  0  0  0
    8.1889  -15.0426   23.4100 C   0  0  0  0  0  0  0  0  0  0  0  0
    9.4372  -15.0054   23.2580 O   0  0  0  0  0  0  0  0  0  0  0  0
    5.7229  -11.6348   26.8570 C   0  0  0  0  0  0  0  0  0  0  0  0
    6.6602  -12.3852   25.9755 C   0  0  1  0  0  0  0  0  0  0  0  0
    7.5414  -11.3352   25.2809 C   0  0  0  0  0  0  0  0  0  0  0  0
    7.5668  -13.3486   26.6326 C   0  0  0  0  0  0  0  0  0  0  0  0
    8.2944  -14.3141   25.7678 C   0  0  2  0  0  0  0  0  0  0  0  0
    7.5422  -14.7657   24.6350 N   0  0  0  0  0  0  0  0  0  0  0  0
    8.8849  -15.4700   26.4929 C   0  0  0  0  0  0  0  0  0  0  0  0
    8.6498  -16.7899   26.1418 O   0  0  0  0  0  0  0  0  0  0  0  0
    9.6509  -15.2943   27.4938 O   0  0  0  0  0  0  0  0  0  0  0  0
  2  1  1  1
  2  3  1  0
  4  3  1  0
  5  4  1  0
  6  5  1  0
  7  6  1  0
  8  9  2  0
  8  2  1  0
 10  8  1  0
 11 12  1  0
 11 10  1  0
 12 19  1  0
 13 12  2  0
 15 14  1  1
 15 16  1  0
 17 15  1  0
 18 17  1  1
 18 20  1  0
 19 18  1  0
 20 22  2  0
 20 21  1  0
M  END
$$$$
