KGL.pdb
     RDKit          3D

 22 21  0  0  1  0  0  0  0  0999 V2000
    6.2623  -19.0240   23.2521 N   0  0  0  0  0  0  0  0  0  0  0  0
    6.5090  -18.8793   21.8464 C   0  0  1  0  0  0  0  0  0  0  0  0
    5.2528  -18.8249   21.0690 C   0  0  0  0  0  0  0  0  0  0  0  0
    4.7004  -20.1594   20.7318 C   0  0  0  0  0  0  0  0  0  0  0  0
    4.0067  -20.9074   21.8287 C   0  0  0  0  0  0  0  0  0  0  0  0
    3.4199  -22.2188   21.2977 C   0  0  0  0  0  0  0  0  0  0  0  0
    2.8498  -22.9937   22.3792 N   0  0  0  0  0  0  0  0  0  0  0  0
    7.4303  -17.7469   21.5521 C   0  0  0  0  0  0  0  0  0  0  0  0
    7.8588  -17.6273   20.3807 O   0  0  0  0  0  0  0  0  0  0  0  0
    7.8380  -16.8073   22.5365 N   0  0  0  0  0  0  0  0  0  0  0  0
    8.7008  -15.6907   22.2605 C   0  0  0  0  0  0  0  0  0  0  0  0
    9.0319  -14.9087   23.4871 C   0  0  0  0  0  0  0  0  0  0  0  0
    9.8256  -13.9363   23.4008 O   0  0  0  0  0  0  0  0  0  0  0  0
    5.7312  -12.4381   26.5808 C   0  0  0  0  0  0  0  0  0  0  0  0
    6.9242  -13.0145   25.9001 C   0  0  1  0  0  0  0  0  0  0  0  0
    7.8761  -11.8411   25.6196 C   0  0  0  0  0  0  0  0  0  0  0  0
    7.6932  -14.0298   26.6481 C   0  0  0  0  0  0  0  0  0  0  0  0
    8.8046  -14.7163   25.9391 C   0  0  2  0  0  0  0  0  0  0  0  0
    8.4224  -15.3152   24.6948 N   0  0  0  0  0  0  0  0  0  0  0  0
    9.5621  -15.6879   26.7716 C   0  0  0  0  0  0  0  0  0  0  0  0
   10.2730  -15.3276   27.9054 O   0  0  0  0  0  0  0  0  0  0  0  0
    9.5927  -16.9244   26.4720 O   0  0  0  0  0  0  0  0  0  0  0  0
  2  1  1  1
  2  3  1  0
  4  3  1  0
  5  4  1  0
  6  5  1  0
  7  6  1  0
  8  9  2  0
  8  2  1  0
 10  8  1  0
 11 12  1  0
 11 10  1  0
 12 19  1  0
 13 12  2  0
 15 14  1  1
 15 16  1  0
 17 15  1  0
 18 17  1  1
 18 20  1  0
 19 18  1  0
 20 22  2  0
 20 21  1  0
M  END
$$$$
