KGL.pdb
     RDKit          3D

 22 21  0  0  1  0  0  0  0  0999 V2000
    8.4567  -16.6296   19.4951 N   0  0  0  0  0  0  0  0  0  0  0  0
    8.4326  -15.3899   20.2162 C   0  0  1  0  0  0  0  0  0  0  0  0
    7.4213  -14.4570   19.6755 C   0  0  0  0  0  0  0  0  0  0  0  0
    7.2282  -14.5692   18.2092 C   0  0  0  0  0  0  0  0  0  0  0  0
    7.5821  -13.3721   17.3812 C   0  0  0  0  0  0  0  0  0  0  0  0
    7.2047  -13.6021   15.9145 C   0  0  0  0  0  0  0  0  0  0  0  0
    7.6009  -12.4692   15.1055 N   0  0  0  0  0  0  0  0  0  0  0  0
    8.3120  -15.5979   21.6859 C   0  0  0  0  0  0  0  0  0  0  0  0
    8.2565  -14.5842   22.4203 O   0  0  0  0  0  0  0  0  0  0  0  0
    8.2578  -16.8866   22.2814 N   0  0  0  0  0  0  0  0  0  0  0  0
    8.0097  -17.1059   23.6805 C   0  0  0  0  0  0  0  0  0  0  0  0
    8.9067  -16.2937   24.5532 C   0  0  0  0  0  0  0  0  0  0  0  0
   10.1525  -16.3699   24.3950 O   0  0  0  0  0  0  0  0  0  0  0  0
    6.2267  -13.2677   25.7912 C   0  0  0  0  0  0  0  0  0  0  0  0
    7.6121  -12.7491   25.9662 C   0  0  1  0  0  0  0  0  0  0  0  0
    7.4767  -11.3061   26.4770 C   0  0  0  0  0  0  0  0  0  0  0  0
    8.4784  -13.4697   26.9213 C   0  0  0  0  0  0  0  0  0  0  0  0
    9.0841  -14.7513   26.4743 C   0  0  2  0  0  0  0  0  0  0  0  0
    8.2909  -15.4722   25.5235 N   0  0  0  0  0  0  0  0  0  0  0  0
    9.5146  -15.6495   27.5782 C   0  0  0  0  0  0  0  0  0  0  0  0
    9.0556  -16.9489   27.7257 O   0  0  0  0  0  0  0  0  0  0  0  0
   10.3437  -15.2549   28.4593 O   0  0  0  0  0  0  0  0  0  0  0  0
  2  1  1  6
  2  3  1  0
  4  3  1  0
  5  4  1  0
  6  5  1  0
  7  6  1  0
  8  9  2  0
  8  2  1  0
 10  8  1  0
 11 12  1  0
 11 10  1  0
 12 19  1  0
 13 12  2  0
 15 14  1  1
 15 16  1  0
 17 15  1  0
 18 17  1  1
 18 20  1  0
 19 18  1  0
 20 22  2  0
 20 21  1  0
M  END
$$$$
