KGL.pdb
     RDKit          3D

 22 21  0  0  1  0  0  0  0  0999 V2000
    8.8193  -16.2221   17.8588 N   0  0  0  0  0  0  0  0  0  0  0  0
    8.7993  -15.2873   18.9467 C   0  0  1  0  0  0  0  0  0  0  0  0
    8.2029  -13.9937   18.5511 C   0  0  0  0  0  0  0  0  0  0  0  0
    7.4883  -14.0373   17.2522 C   0  0  0  0  0  0  0  0  0  0  0  0
    8.2941  -13.7576   16.0208 C   0  0  0  0  0  0  0  0  0  0  0  0
    7.3858  -13.6804   14.7898 C   0  0  0  0  0  0  0  0  0  0  0  0
    8.1751  -13.5268   13.5863 N   0  0  0  0  0  0  0  0  0  0  0  0
    8.1835  -15.8664   20.1728 C   0  0  0  0  0  0  0  0  0  0  0  0
    7.7061  -17.0226   20.1006 O   0  0  0  0  0  0  0  0  0  0  0  0
    8.1170  -15.1669   21.4075 N   0  0  0  0  0  0  0  0  0  0  0  0
    7.5899  -15.7380   22.6172 C   0  0  0  0  0  0  0  0  0  0  0  0
    8.3757  -15.3456   23.8231 C   0  0  0  0  0  0  0  0  0  0  0  0
    9.6103  -15.1314   23.7097 O   0  0  0  0  0  0  0  0  0  0  0  0
    5.6748  -11.9549   26.7185 C   0  0  0  0  0  0  0  0  0  0  0  0
    6.7437  -12.7344   26.0338 C   0  0  1  0  0  0  0  0  0  0  0  0
    7.6903  -11.7074   25.3929 C   0  0  0  0  0  0  0  0  0  0  0  0
    7.5699  -13.6193   26.8802 C   0  0  0  0  0  0  0  0  0  0  0  0
    8.3191  -14.7145   26.2105 C   0  0  2  0  0  0  0  0  0  0  0  0
    7.6723  -15.2362   25.0432 N   0  0  0  0  0  0  0  0  0  0  0  0
    8.7335  -15.8214   27.1126 C   0  0  0  0  0  0  0  0  0  0  0  0
    8.3923  -17.1473   26.8975 O   0  0  0  0  0  0  0  0  0  0  0  0
    9.4367  -15.5946   28.1487 O   0  0  0  0  0  0  0  0  0  0  0  0
  2  1  1  6
  2  3  1  0
  4  3  1  0
  5  4  1  0
  6  5  1  0
  7  6  1  0
  8  9  2  0
  8  2  1  0
 10  8  1  0
 11 12  1  0
 11 10  1  0
 12 19  1  0
 13 12  2  0
 15 14  1  1
 15 16  1  0
 17 15  1  0
 18 17  1  1
 18 20  1  0
 19 18  1  0
 20 22  2  0
 20 21  1  0
M  END
$$$$
