KGL.pdb
     RDKit          3D

 22 21  0  0  1  0  0  0  0  0999 V2000
    9.0780  -16.1888   18.8208 N   0  0  0  0  0  0  0  0  0  0  0  0
    8.7103  -14.8543   19.1970 C   0  0  1  0  0  0  0  0  0  0  0  0
    7.9724  -14.1612   18.1198 C   0  0  0  0  0  0  0  0  0  0  0  0
    8.5105  -14.4228   16.7627 C   0  0  0  0  0  0  0  0  0  0  0  0
    7.8304  -13.7398   15.6160 C   0  0  0  0  0  0  0  0  0  0  0  0
    8.5165  -14.0969   14.2939 C   0  0  0  0  0  0  0  0  0  0  0  0
    7.8298  -13.4745   13.1821 N   0  0  0  0  0  0  0  0  0  0  0  0
    8.0069  -14.8148   20.5090 C   0  0  0  0  0  0  0  0  0  0  0  0
    7.7395  -13.6930   20.9989 O   0  0  0  0  0  0  0  0  0  0  0  0
    7.6311  -15.9865   21.2192 N   0  0  0  0  0  0  0  0  0  0  0  0
    7.0726  -15.9682   22.5439 C   0  0  0  0  0  0  0  0  0  0  0  0
    8.0479  -15.4929   23.5679 C   0  0  0  0  0  0  0  0  0  0  0  0
    9.2700  -15.4378   23.2742 O   0  0  0  0  0  0  0  0  0  0  0  0
    5.7702  -12.1500   27.2743 C   0  0  0  0  0  0  0  0  0  0  0  0
    6.6525  -12.8112   26.2726 C   0  0  1  0  0  0  0  0  0  0  0  0
    7.3337  -11.6848   25.4799 C   0  0  0  0  0  0  0  0  0  0  0  0
    7.7230  -13.6823   26.7989 C   0  0  0  0  0  0  0  0  0  0  0  0
    8.3948  -14.6047   25.8464 C   0  0  2  0  0  0  0  0  0  0  0  0
    7.5301  -15.1264   24.8300 N   0  0  0  0  0  0  0  0  0  0  0  0
    9.1632  -15.7038   26.4884 C   0  0  0  0  0  0  0  0  0  0  0  0
   10.2634  -15.4888   27.3034 O   0  0  0  0  0  0  0  0  0  0  0  0
    8.8373  -16.9214   26.3129 O   0  0  0  0  0  0  0  0  0  0  0  0
  2  1  1  6
  2  3  1  0
  4  3  1  0
  5  4  1  0
  6  5  1  0
  7  6  1  0
  8  9  2  0
  8  2  1  0
 10  8  1  0
 11 12  1  0
 11 10  1  0
 12 19  1  0
 13 12  2  0
 15 14  1  1
 15 16  1  0
 17 15  1  0
 18 17  1  1
 18 20  1  0
 19 18  1  0
 20 22  2  0
 20 21  1  0
M  END
$$$$
