KGL.pdb
     RDKit          3D

 22 21  0  0  1  0  0  0  0  0999 V2000
    7.5699  -16.9857   20.6271 N   0  0  0  0  0  0  0  0  0  0  0  0
    8.8285  -17.6710   20.5643 C   0  0  1  0  0  0  0  0  0  0  0  0
    9.2486  -17.9258   19.1700 C   0  0  0  0  0  0  0  0  0  0  0  0
    8.1338  -17.8832   18.1927 C   0  0  0  0  0  0  0  0  0  0  0  0
    8.4843  -18.0784   16.7495 C   0  0  0  0  0  0  0  0  0  0  0  0
    7.2374  -17.9433   15.8702 C   0  0  0  0  0  0  0  0  0  0  0  0
    7.5659  -18.1929   14.4828 N   0  0  0  0  0  0  0  0  0  0  0  0
    9.8766  -16.9952   21.3783 C   0  0  0  0  0  0  0  0  0  0  0  0
   11.0153  -17.5165   21.4199 O   0  0  0  0  0  0  0  0  0  0  0  0
    9.6386  -15.7959   22.1016 N   0  0  0  0  0  0  0  0  0  0  0  0
   10.6432  -15.1256   22.8818 C   0  0  0  0  0  0  0  0  0  0  0  0
   10.2763  -15.0313   24.3248 C   0  0  0  0  0  0  0  0  0  0  0  0
   11.1554  -14.7027   25.1627 O   0  0  0  0  0  0  0  0  0  0  0  0
    5.6465  -12.5591   25.7092 C   0  0  0  0  0  0  0  0  0  0  0  0
    7.0117  -13.1526   25.6570 C   0  0  1  0  0  0  0  0  0  0  0  0
    7.9096  -12.2593   26.5272 C   0  0  0  0  0  0  0  0  0  0  0  0
    7.1575  -14.5350   26.1566 C   0  0  0  0  0  0  0  0  0  0  0  0
    8.4893  -15.1815   26.0234 C   0  0  2  0  0  0  0  0  0  0  0  0
    8.9377  -15.3223   24.6698 N   0  0  0  0  0  0  0  0  0  0  0  0
    8.6263  -16.4703   26.7521 C   0  0  0  0  0  0  0  0  0  0  0  0
    8.9074  -16.5531   28.1066 O   0  0  0  0  0  0  0  0  0  0  0  0
    8.4888  -17.5825   26.1490 O   0  0  0  0  0  0  0  0  0  0  0  0
  2  1  1  6
  2  3  1  0
  4  3  1  0
  5  4  1  0
  6  5  1  0
  7  6  1  0
  8  9  2  0
  8  2  1  0
 10  8  1  0
 11 12  1  0
 11 10  1  0
 12 19  1  0
 13 12  2  0
 15 14  1  1
 15 16  1  0
 17 15  1  0
 18 17  1  6
 18 20  1  0
 19 18  1  0
 20 22  2  0
 20 21  1  0
M  END
$$$$
