KGL.pdb
     RDKit          3D

 22 21  0  0  1  0  0  0  0  0999 V2000
    8.2672  -16.3252   19.6313 N   0  0  0  0  0  0  0  0  0  0  0  0
    7.9740  -15.1468   20.3949 C   0  0  1  0  0  0  0  0  0  0  0  0
    6.8358  -14.3922   19.8289 C   0  0  0  0  0  0  0  0  0  0  0  0
    6.9329  -14.1724   18.3654 C   0  0  0  0  0  0  0  0  0  0  0  0
    8.2978  -13.9183   17.8030 C   0  0  0  0  0  0  0  0  0  0  0  0
    8.2130  -13.6060   16.3058 C   0  0  0  0  0  0  0  0  0  0  0  0
    9.5365  -13.5598   15.7218 N   0  0  0  0  0  0  0  0  0  0  0  0
    7.8178  -15.4430   21.8460 C   0  0  0  0  0  0  0  0  0  0  0  0
    7.4384  -14.5150   22.5976 O   0  0  0  0  0  0  0  0  0  0  0  0
    8.0793  -16.7225   22.4054 N   0  0  0  0  0  0  0  0  0  0  0  0
    8.0313  -16.9982   23.8157 C   0  0  0  0  0  0  0  0  0  0  0  0
    8.7713  -15.9834   24.6209 C   0  0  0  0  0  0  0  0  0  0  0  0
   10.0101  -15.8465   24.4495 O   0  0  0  0  0  0  0  0  0  0  0  0
    7.0438  -12.4320   24.8784 C   0  0  0  0  0  0  0  0  0  0  0  0
    7.3755  -12.1841   26.3092 C   0  0  1  0  0  0  0  0  0  0  0  0
    6.1070  -11.6082   26.9579 C   0  0  0  0  0  0  0  0  0  0  0  0
    7.7819  -13.3554   27.1123 C   0  0  0  0  0  0  0  0  0  0  0  0
    8.6801  -14.3531   26.4743 C   0  0  2  0  0  0  0  0  0  0  0  0
    8.0214  -15.2226   25.5453 N   0  0  0  0  0  0  0  0  0  0  0  0
    9.5044  -15.1416   27.4281 C   0  0  0  0  0  0  0  0  0  0  0  0
    9.4649  -16.5247   27.5060 O   0  0  0  0  0  0  0  0  0  0  0  0
   10.3021  -14.5668   28.2362 O   0  0  0  0  0  0  0  0  0  0  0  0
  2  1  1  6
  2  3  1  0
  4  3  1  0
  5  4  1  0
  6  5  1  0
  7  6  1  0
  8  9  2  0
  8  2  1  0
 10  8  1  0
 11 12  1  0
 11 10  1  0
 12 19  1  0
 13 12  2  0
 15 14  1  6
 15 16  1  0
 17 15  1  0
 18 17  1  1
 18 20  1  0
 19 18  1  0
 20 22  2  0
 20 21  1  0
M  END
$$$$
