KGL.pdb
     RDKit          3D

 22 21  0  0  1  0  0  0  0  0999 V2000
    9.3077  -18.0995   19.8162 N   0  0  0  0  0  0  0  0  0  0  0  0
    8.3352  -17.0862   19.5245 C   0  0  1  0  0  0  0  0  0  0  0  0
    7.3616  -17.5334   18.5059 C   0  0  0  0  0  0  0  0  0  0  0  0
    7.0472  -18.9812   18.5745 C   0  0  0  0  0  0  0  0  0  0  0  0
    6.1455  -19.5343   17.5140 C   0  0  0  0  0  0  0  0  0  0  0  0
    5.8811  -21.0236   17.7559 C   0  0  0  0  0  0  0  0  0  0  0  0
    4.9072  -21.5257   16.8103 N   0  0  0  0  0  0  0  0  0  0  0  0
    7.6913  -16.5549   20.7578 C   0  0  0  0  0  0  0  0  0  0  0  0
    6.9195  -15.5746   20.6421 O   0  0  0  0  0  0  0  0  0  0  0  0
    7.9152  -17.1100   22.0462 N   0  0  0  0  0  0  0  0  0  0  0  0
    7.2807  -16.6250   23.2418 C   0  0  0  0  0  0  0  0  0  0  0  0
    8.1930  -15.7853   24.0715 C   0  0  0  0  0  0  0  0  0  0  0  0
    9.3954  -15.6561   23.7246 O   0  0  0  0  0  0  0  0  0  0  0  0
    5.6329  -11.7986   26.8989 C   0  0  0  0  0  0  0  0  0  0  0  0
    6.5425  -12.6456   26.0778 C   0  0  1  0  0  0  0  0  0  0  0  0
    7.1425  -11.7264   25.0024 C   0  0  0  0  0  0  0  0  0  0  0  0
    7.6716  -13.2877   26.7812 C   0  0  0  0  0  0  0  0  0  0  0  0
    8.4438  -14.3243   26.0473 C   0  0  2  0  0  0  0  0  0  0  0  0
    7.6407  -15.1740   25.2190 N   0  0  0  0  0  0  0  0  0  0  0  0
    9.3514  -15.1374   26.8992 C   0  0  0  0  0  0  0  0  0  0  0  0
    9.3431  -16.5232   26.9144 O   0  0  0  0  0  0  0  0  0  0  0  0
   10.1968  -14.5830   27.6722 O   0  0  0  0  0  0  0  0  0  0  0  0
  2  1  1  1
  2  3  1  0
  4  3  1  0
  5  4  1  0
  6  5  1  0
  7  6  1  0
  8  9  2  0
  8  2  1  0
 10  8  1  0
 11 12  1  0
 11 10  1  0
 12 19  1  0
 13 12  2  0
 15 14  1  1
 15 16  1  0
 17 15  1  0
 18 17  1  1
 18 20  1  0
 19 18  1  0
 20 22  2  0
 20 21  1  0
M  END
$$$$
