ANQ.pdb
     RDKit          3D

 23 22  0  0  1  0  0  0  0  0999 V2000
   15.1950  -11.0843  -15.0940 C   0  0  0  0  0  0  0  0  0  0  0  0
   16.6717  -10.7366  -15.2954 C   0  0  2  0  0  0  0  0  0  0  0  0
   17.3646  -11.9440  -15.7271 N   0  0  0  0  0  0  0  0  0  0  0  0
   17.2750  -10.2305  -14.0391 C   0  0  0  0  0  0  0  0  0  0  0  0
   17.4403  -11.0400  -13.0624 O   0  0  0  0  0  0  0  0  0  0  0  0
   18.2089   -6.8115  -14.7645 N   0  0  0  0  0  0  0  0  0  0  0  0
   19.3695   -6.8010  -13.9607 C   0  0  0  0  0  0  0  0  0  0  0  0
   20.3626   -6.0855  -14.2682 O   0  0  0  0  0  0  0  0  0  0  0  0
   19.4423   -7.6353  -12.7334 C   0  0  0  0  0  0  0  0  0  0  0  0
   18.1283   -8.3953  -12.5881 C   0  0  2  0  0  0  0  0  0  0  0  0
   17.6764   -8.8906  -13.8725 N   0  0  0  0  0  0  0  0  0  0  0  0
   17.1285   -7.5422  -11.9117 C   0  0  0  0  0  0  0  0  0  0  0  0
   16.4365   -6.7886  -12.6345 O   0  0  0  0  0  0  0  0  0  0  0  0
   13.0275   -9.1695   -7.9570 N   0  0  0  0  0  0  0  0  0  0  0  0
   12.9009   -7.7836   -7.7588 C   0  0  0  0  0  0  0  0  0  0  0  0
   12.0017   -7.3423   -7.0207 O   0  0  0  0  0  0  0  0  0  0  0  0
   13.8261   -6.8278   -8.4173 C   0  0  0  0  0  0  0  0  0  0  0  0
   14.9035   -7.5979   -9.1210 C   0  0  0  0  0  0  0  0  0  0  0  0
   15.8661   -6.7462   -9.8578 C   0  0  2  0  0  0  0  0  0  0  0  0
   16.9030   -7.5205  -10.5174 N   0  0  0  0  0  0  0  0  0  0  0  0
   16.5229   -5.7749   -8.9652 C   0  0  0  0  0  0  0  0  0  0  0  0
   17.6918   -6.0367   -8.5072 O   0  0  0  0  0  0  0  0  0  0  0  0
   16.0032   -4.5702   -8.5535 O   0  0  0  0  0  0  0  0  0  0  0  0
  2  1  1  1
  2  4  1  0
  3  2  1  0
  4  5  2  0
  6  7  1  0
  7  9  1  0
  8  7  2  0
 10  9  1  6
 10 12  1  0
 11 10  1  0
 11  4  1  0
 12 13  2  0
 12 20  1  0
 15 17  1  0
 15 14  1  0
 16 15  2  0
 19 18  1  1
 18 17  1  0
 19 21  1  0
 20 19  1  0
 21 22  2  0
 21 23  1  0
M  END
$$$$
