ANQ.pdb
     RDKit          3D

 23 22  0  0  1  0  0  0  0  0999 V2000
   24.5861  -24.3080  -15.8213 C   0  0  0  0  0  0  0  0  0  0  0  0
   24.8700  -22.8048  -15.7757 C   0  0  2  0  0  0  0  0  0  0  0  0
   26.2458  -22.6188  -15.3320 N   0  0  0  0  0  0  0  0  0  0  0  0
   23.9426  -22.1165  -14.8457 C   0  0  0  0  0  0  0  0  0  0  0  0
   24.1809  -22.1602  -13.5896 O   0  0  0  0  0  0  0  0  0  0  0  0
   20.6321  -19.2704  -12.5002 N   0  0  0  0  0  0  0  0  0  0  0  0
   21.0180  -18.5725  -13.6652 C   0  0  0  0  0  0  0  0  0  0  0  0
   20.7643  -17.3433  -13.7964 O   0  0  0  0  0  0  0  0  0  0  0  0
   21.7327  -19.2758  -14.7616 C   0  0  0  0  0  0  0  0  0  0  0  0
   21.9335  -20.7307  -14.3512 C   0  0  2  0  0  0  0  0  0  0  0  0
   22.8047  -21.4129  -15.2865 N   0  0  0  0  0  0  0  0  0  0  0  0
   20.6211  -21.3923  -14.1936 C   0  0  0  0  0  0  0  0  0  0  0  0
   19.9278  -21.5417  -15.2263 O   0  0  0  0  0  0  0  0  0  0  0  0
   18.6846  -24.6099   -9.1398 N   0  0  0  0  0  0  0  0  0  0  0  0
   19.2293  -25.3252  -10.2203 C   0  0  0  0  0  0  0  0  0  0  0  0
   19.5459  -26.5199  -10.0767 O   0  0  0  0  0  0  0  0  0  0  0  0
   19.4361  -24.6791  -11.5405 C   0  0  0  0  0  0  0  0  0  0  0  0
   18.7821  -23.3296  -11.5309 C   0  0  0  0  0  0  0  0  0  0  0  0
   18.8656  -22.6133  -12.8250 C   0  0  2  0  0  0  0  0  0  0  0  0
   20.1014  -21.8635  -12.9676 N   0  0  0  0  0  0  0  0  0  0  0  0
   17.7424  -21.6750  -12.9977 C   0  0  0  0  0  0  0  0  0  0  0  0
   17.7591  -20.5567  -12.3701 O   0  0  0  0  0  0  0  0  0  0  0  0
   16.6354  -21.8708  -13.7895 O   0  0  0  0  0  0  0  0  0  0  0  0
  2  1  1  1
  2  4  1  0
  3  2  1  0
  4  5  2  0
  6  7  1  0
  7  9  1  0
  8  7  2  0
 10  9  1  6
 10 12  1  0
 11 10  1  0
 11  4  1  0
 12 13  2  0
 12 20  1  0
 15 17  1  0
 15 14  1  0
 16 15  2  0
 19 18  1  1
 18 17  1  0
 19 21  1  0
 20 19  1  0
 21 22  2  0
 21 23  1  0
M  END
$$$$
