ANQ.pdb
     RDKit          3D

 23 22  0  0  1  0  0  0  0  0999 V2000
   18.9549  -14.9448  -17.2362 C   0  0  0  0  0  0  0  0  0  0  0  0
   18.6070  -14.1900  -15.9511 C   0  0  2  0  0  0  0  0  0  0  0  0
   17.6397  -14.9873  -15.2076 N   0  0  0  0  0  0  0  0  0  0  0  0
   18.0340  -12.8569  -16.2560 C   0  0  0  0  0  0  0  0  0  0  0  0
   17.9079  -12.5028  -17.4788 O   0  0  0  0  0  0  0  0  0  0  0  0
   14.5534  -11.7172  -16.1493 N   0  0  0  0  0  0  0  0  0  0  0  0
   14.6251  -10.9127  -14.9914 C   0  0  0  0  0  0  0  0  0  0  0  0
   13.5918  -10.6674  -14.3095 O   0  0  0  0  0  0  0  0  0  0  0  0
   15.9235  -10.3385  -14.5533 C   0  0  0  0  0  0  0  0  0  0  0  0
   16.9842  -10.6998  -15.5875 C   0  0  2  0  0  0  0  0  0  0  0  0
   17.6200  -11.9582  -15.2534 N   0  0  0  0  0  0  0  0  0  0  0  0
   17.9446   -9.5855  -15.7303 C   0  0  0  0  0  0  0  0  0  0  0  0
   18.8237   -9.4706  -14.8452 O   0  0  0  0  0  0  0  0  0  0  0  0
   18.8002   -5.9906  -20.8430 N   0  0  0  0  0  0  0  0  0  0  0  0
   19.7584   -5.4473  -19.9697 C   0  0  0  0  0  0  0  0  0  0  0  0
   20.4966   -4.5233  -20.3562 O   0  0  0  0  0  0  0  0  0  0  0  0
   19.9087   -5.9575  -18.5840 C   0  0  0  0  0  0  0  0  0  0  0  0
   18.9110   -7.0540  -18.3570 C   0  0  0  0  0  0  0  0  0  0  0  0
   18.9376   -7.6150  -16.9861 C   0  0  2  0  0  0  0  0  0  0  0  0
   17.9379   -8.6501  -16.7887 N   0  0  0  0  0  0  0  0  0  0  0  0
   18.7173   -6.5709  -15.9697 C   0  0  0  0  0  0  0  0  0  0  0  0
   19.7293   -5.9700  -15.4602 O   0  0  0  0  0  0  0  0  0  0  0  0
   17.4997   -6.1502  -15.4887 O   0  0  0  0  0  0  0  0  0  0  0  0
  2  1  1  6
  2  4  1  0
  3  2  1  0
  4  5  2  0
  6  7  1  0
  7  9  1  0
  8  7  2  0
 10  9  1  1
 10 12  1  0
 11 10  1  0
 11  4  1  0
 12 13  2  0
 12 20  1  0
 15 17  1  0
 15 14  1  0
 16 15  2  0
 19 18  1  6
 18 17  1  0
 19 21  1  0
 20 19  1  0
 21 22  2  0
 21 23  1  0
M  END
$$$$
