ANQ.pdb
     RDKit          3D

 23 22  0  0  1  0  0  0  0  0999 V2000
   20.4003  -12.8386  -19.8182 C   0  0  0  0  0  0  0  0  0  0  0  0
   21.3074  -12.2064  -18.7601 C   0  0  2  0  0  0  0  0  0  0  0  0
   21.7041  -13.2504  -17.8237 N   0  0  0  0  0  0  0  0  0  0  0  0
   20.6035  -11.1205  -18.0364 C   0  0  0  0  0  0  0  0  0  0  0  0
   20.4358   -9.9950  -18.6209 O   0  0  0  0  0  0  0  0  0  0  0  0
   16.3513   -9.6698  -14.4490 N   0  0  0  0  0  0  0  0  0  0  0  0
   17.1433  -10.5679  -15.1969 C   0  0  0  0  0  0  0  0  0  0  0  0
   16.6423  -11.2412  -16.1394 O   0  0  0  0  0  0  0  0  0  0  0  0
   18.5864  -10.7368  -14.8863 C   0  0  0  0  0  0  0  0  0  0  0  0
   19.3984  -10.2009  -16.0604 C   0  0  2  0  0  0  0  0  0  0  0  0
   20.1083  -11.2741  -16.7266 N   0  0  0  0  0  0  0  0  0  0  0  0
   20.2895   -9.1156  -15.5993 C   0  0  0  0  0  0  0  0  0  0  0  0
   21.3946   -9.4501  -15.1131 O   0  0  0  0  0  0  0  0  0  0  0  0
   23.2185   -5.6910  -18.7691 N   0  0  0  0  0  0  0  0  0  0  0  0
   23.3836   -4.8688  -17.6410 C   0  0  0  0  0  0  0  0  0  0  0  0
   24.1923   -3.9237  -17.6753 O   0  0  0  0  0  0  0  0  0  0  0  0
   22.6062   -5.1066  -16.3991 C   0  0  0  0  0  0  0  0  0  0  0  0
   21.6878   -6.2725  -16.6144 C   0  0  0  0  0  0  0  0  0  0  0  0
   20.9230   -6.6645  -15.4075 C   0  0  2  0  0  0  0  0  0  0  0  0
   19.9814   -7.7389  -15.6699 N   0  0  0  0  0  0  0  0  0  0  0  0
   20.1704   -5.5266  -14.8504 C   0  0  0  0  0  0  0  0  0  0  0  0
   18.9330   -5.3850  -15.1561 O   0  0  0  0  0  0  0  0  0  0  0  0
   20.6651   -4.5625  -14.0040 O   0  0  0  0  0  0  0  0  0  0  0  0
  2  1  1  6
  2  4  1  0
  3  2  1  0
  4  5  2  0
  6  7  1  0
  7  9  1  0
  8  7  2  0
 10  9  1  1
 10 12  1  0
 11 10  1  0
 11  4  1  0
 12 13  2  0
 12 20  1  0
 15 17  1  0
 15 14  1  0
 16 15  2  0
 19 18  1  6
 18 17  1  0
 19 21  1  0
 20 19  1  0
 21 22  2  0
 21 23  1  0
M  END
$$$$
