ANQ.pdb
     RDKit          3D

 23 22  0  0  1  0  0  0  0  0999 V2000
   19.0285  -13.5398  -16.1006 C   0  0  0  0  0  0  0  0  0  0  0  0
   18.7634  -12.2643  -16.9037 C   0  0  2  0  0  0  0  0  0  0  0  0
   19.5039  -12.3573  -18.1555 N   0  0  0  0  0  0  0  0  0  0  0  0
   19.1948  -11.0623  -16.1503 C   0  0  0  0  0  0  0  0  0  0  0  0
   18.6614  -10.8208  -15.0129 O   0  0  0  0  0  0  0  0  0  0  0  0
   22.3407   -9.5642  -13.5784 N   0  0  0  0  0  0  0  0  0  0  0  0
   22.5462   -9.6526  -14.9724 C   0  0  0  0  0  0  0  0  0  0  0  0
   23.2456  -10.5803  -15.4653 O   0  0  0  0  0  0  0  0  0  0  0  0
   21.9400   -8.6512  -15.8874 C   0  0  0  0  0  0  0  0  0  0  0  0
   20.4398   -8.9136  -15.9639 C   0  0  2  0  0  0  0  0  0  0  0  0
   20.1713  -10.1698  -16.6341 N   0  0  0  0  0  0  0  0  0  0  0  0
   19.7617   -7.7628  -16.5968 C   0  0  0  0  0  0  0  0  0  0  0  0
   19.9092   -7.6205  -17.8327 O   0  0  0  0  0  0  0  0  0  0  0  0
   14.5750   -7.4419  -17.2789 N   0  0  0  0  0  0  0  0  0  0  0  0
   14.7050   -6.7977  -16.0363 C   0  0  0  0  0  0  0  0  0  0  0  0
   13.7808   -6.8602  -15.2055 O   0  0  0  0  0  0  0  0  0  0  0  0
   15.9328   -6.0381  -15.6918 C   0  0  0  0  0  0  0  0  0  0  0  0
   16.8602   -6.0496  -16.8703 C   0  0  0  0  0  0  0  0  0  0  0  0
   18.2633   -5.7143  -16.5329 C   0  0  2  0  0  0  0  0  0  0  0  0
   18.9653   -6.8215  -15.9076 N   0  0  0  0  0  0  0  0  0  0  0  0
   18.3396   -4.5567  -15.6241 C   0  0  0  0  0  0  0  0  0  0  0  0
   18.7353   -4.7336  -14.4172 O   0  0  0  0  0  0  0  0  0  0  0  0
   18.0235   -3.2558  -15.9382 O   0  0  0  0  0  0  0  0  0  0  0  0
  2  1  1  1
  2  4  1  0
  3  2  1  0
  4  5  2  0
  6  7  1  0
  7  9  1  0
  8  7  2  0
 10  9  1  6
 10 12  1  0
 11 10  1  0
 11  4  1  0
 12 13  2  0
 12 20  1  0
 15 17  1  0
 15 14  1  0
 16 15  2  0
 19 18  1  1
 18 17  1  0
 19 21  1  0
 20 19  1  0
 21 22  2  0
 21 23  1  0
M  END
$$$$
