ANQ.pdb
     RDKit          3D

 23 22  0  0  1  0  0  0  0  0999 V2000
   24.7038  -20.5323   -9.3374 C   0  0  0  0  0  0  0  0  0  0  0  0
   25.7355  -20.9345  -10.3938 C   0  0  2  0  0  0  0  0  0  0  0  0
   27.0276  -20.3933   -9.9917 N   0  0  0  0  0  0  0  0  0  0  0  0
   25.3618  -20.4091  -11.7290 C   0  0  0  0  0  0  0  0  0  0  0  0
   25.4818  -19.1558  -11.9563 O   0  0  0  0  0  0  0  0  0  0  0  0
   27.6418  -22.2078  -14.8321 N   0  0  0  0  0  0  0  0  0  0  0  0
   26.6847  -21.2454  -15.2207 C   0  0  0  0  0  0  0  0  0  0  0  0
   27.0420  -20.1036  -15.6223 O   0  0  0  0  0  0  0  0  0  0  0  0
   25.2340  -21.5612  -15.1635 C   0  0  0  0  0  0  0  0  0  0  0  0
   24.5948  -20.6986  -14.0806 C   0  0  2  0  0  0  0  0  0  0  0  0
   24.8781  -21.2331  -12.7640 N   0  0  0  0  0  0  0  0  0  0  0  0
   23.1485  -20.5505  -14.3469 C   0  0  0  0  0  0  0  0  0  0  0  0
   22.3982  -21.4777  -13.9639 O   0  0  0  0  0  0  0  0  0  0  0  0
   18.6603  -16.2775  -18.0013 N   0  0  0  0  0  0  0  0  0  0  0  0
   19.1346  -16.4256  -16.6864 C   0  0  0  0  0  0  0  0  0  0  0  0
   19.3866  -15.4183  -16.0008 O   0  0  0  0  0  0  0  0  0  0  0  0
   19.3425  -17.7705  -16.0938 C   0  0  0  0  0  0  0  0  0  0  0  0
   20.8067  -17.9698  -15.8379 C   0  0  0  0  0  0  0  0  0  0  0  0
   21.1385  -19.2871  -15.2467 C   0  0  2  0  0  0  0  0  0  0  0  0
   22.5611  -19.4432  -14.9981 N   0  0  0  0  0  0  0  0  0  0  0  0
   20.7049  -20.3952  -16.1160 C   0  0  0  0  0  0  0  0  0  0  0  0
   21.4926  -20.8121  -17.0382 O   0  0  0  0  0  0  0  0  0  0  0  0
   19.5036  -21.0603  -16.0451 O   0  0  0  0  0  0  0  0  0  0  0  0
  2  1  1  1
  2  4  1  0
  3  2  1  0
  4  5  2  0
  6  7  1  0
  7  9  1  0
  8  7  2  0
 10  9  1  6
 10 12  1  0
 11 10  1  0
 11  4  1  0
 12 13  2  0
 12 20  1  0
 15 17  1  0
 15 14  1  0
 16 15  2  0
 19 18  1  6
 18 17  1  0
 19 21  1  0
 20 19  1  0
 21 22  2  0
 21 23  1  0
M  END
$$$$
