ANQ.pdb
     RDKit          3D

 23 22  0  0  1  0  0  0  0  0999 V2000
   17.1000  -11.9655  -19.4726 C   0  0  0  0  0  0  0  0  0  0  0  0
   17.9506  -11.8533  -18.2052 C   0  0  2  0  0  0  0  0  0  0  0  0
   17.3402  -12.6866  -17.1770 N   0  0  0  0  0  0  0  0  0  0  0  0
   18.0251  -10.4483  -17.7376 C   0  0  0  0  0  0  0  0  0  0  0  0
   18.5709   -9.5727  -18.4939 O   0  0  0  0  0  0  0  0  0  0  0  0
   15.2526   -8.0871  -17.0871 N   0  0  0  0  0  0  0  0  0  0  0  0
   15.3310   -8.0398  -15.6782 C   0  0  0  0  0  0  0  0  0  0  0  0
   14.3169   -7.7541  -14.9834 O   0  0  0  0  0  0  0  0  0  0  0  0
   16.6139   -8.3268  -14.9860 C   0  0  0  0  0  0  0  0  0  0  0  0
   17.6649   -8.6638  -16.0381 C   0  0  2  0  0  0  0  0  0  0  0  0
   17.5187  -10.0325  -16.4906 N   0  0  0  0  0  0  0  0  0  0  0  0
   19.0139   -8.3689  -15.5110 C   0  0  0  0  0  0  0  0  0  0  0  0
   19.5558   -9.2477  -14.8013 O   0  0  0  0  0  0  0  0  0  0  0  0
   23.4382   -8.8649  -18.5162 N   0  0  0  0  0  0  0  0  0  0  0  0
   24.1513   -8.2132  -17.4952 C   0  0  0  0  0  0  0  0  0  0  0  0
   25.3952   -8.2430  -17.4910 O   0  0  0  0  0  0  0  0  0  0  0  0
   23.4448   -7.4835  -16.4128 C   0  0  0  0  0  0  0  0  0  0  0  0
   21.9663   -7.6627  -16.5882 C   0  0  0  0  0  0  0  0  0  0  0  0
   21.1535   -7.0024  -15.5401 C   0  0  2  0  0  0  0  0  0  0  0  0
   19.7267   -7.1735  -15.7520 N   0  0  0  0  0  0  0  0  0  0  0  0
   21.4322   -5.5571  -15.4694 C   0  0  0  0  0  0  0  0  0  0  0  0
   22.4827   -5.1517  -14.8556 O   0  0  0  0  0  0  0  0  0  0  0  0
   20.6628   -4.5545  -16.0112 O   0  0  0  0  0  0  0  0  0  0  0  0
  2  1  1  6
  2  4  1  0
  3  2  1  0
  4  5  2  0
  6  7  1  0
  7  9  1  0
  8  7  2  0
 10  9  1  1
 10 12  1  0
 11 10  1  0
 11  4  1  0
 12 13  2  0
 12 20  1  0
 15 17  1  0
 15 14  1  0
 16 15  2  0
 19 18  1  6
 18 17  1  0
 19 21  1  0
 20 19  1  0
 21 22  2  0
 21 23  1  0
M  END
$$$$
