ANQ.pdb
     RDKit          3D

 23 22  0  0  1  0  0  0  0  0999 V2000
   13.9564  -12.4667  -14.8363 C   0  0  0  0  0  0  0  0  0  0  0  0
   15.4615  -12.4316  -15.1112 C   0  0  2  0  0  0  0  0  0  0  0  0
   15.9928  -13.7697  -14.8845 N   0  0  0  0  0  0  0  0  0  0  0  0
   16.1421  -11.4610  -14.2206 C   0  0  0  0  0  0  0  0  0  0  0  0
   16.2603  -11.7395  -12.9776 O   0  0  0  0  0  0  0  0  0  0  0  0
   20.8411   -8.9667  -13.6827 N   0  0  0  0  0  0  0  0  0  0  0  0
   19.6960   -9.4585  -14.3460 C   0  0  0  0  0  0  0  0  0  0  0  0
   19.6808  -10.6226  -14.8330 O   0  0  0  0  0  0  0  0  0  0  0  0
   18.4836   -8.6107  -14.4830 C   0  0  0  0  0  0  0  0  0  0  0  0
   17.3231   -9.3121  -13.7854 C   0  0  2  0  0  0  0  0  0  0  0  0
   16.6674  -10.2393  -14.6852 N   0  0  0  0  0  0  0  0  0  0  0  0
   16.4007   -8.3078  -13.2151 C   0  0  0  0  0  0  0  0  0  0  0  0
   15.6305   -7.7214  -14.0102 O   0  0  0  0  0  0  0  0  0  0  0  0
   15.1253   -7.2718   -7.1211 N   0  0  0  0  0  0  0  0  0  0  0  0
   14.4563   -6.1910   -7.7213 C   0  0  0  0  0  0  0  0  0  0  0  0
   13.8366   -5.3756   -7.0148 O   0  0  0  0  0  0  0  0  0  0  0  0
   14.4746   -6.0007   -9.1932 C   0  0  0  0  0  0  0  0  0  0  0  0
   15.3156   -7.0762   -9.8137 C   0  0  0  0  0  0  0  0  0  0  0  0
   15.4417   -6.9649  -11.2857 C   0  0  2  0  0  0  0  0  0  0  0  0
   16.3298   -7.9685  -11.8457 N   0  0  0  0  0  0  0  0  0  0  0  0
   15.9439   -5.6389  -11.6871 C   0  0  0  0  0  0  0  0  0  0  0  0
   15.1094   -4.6822  -11.8685 O   0  0  0  0  0  0  0  0  0  0  0  0
   17.2597   -5.2980  -11.8951 O   0  0  0  0  0  0  0  0  0  0  0  0
  2  1  1  1
  2  4  1  0
  3  2  1  0
  4  5  2  0
  6  7  1  0
  7  9  1  0
  8  7  2  0
 10  9  1  6
 10 12  1  0
 11 10  1  0
 11  4  1  0
 12 13  2  0
 12 20  1  0
 15 17  1  0
 15 14  1  0
 16 15  2  0
 19 18  1  1
 18 17  1  0
 19 21  1  0
 20 19  1  0
 21 22  2  0
 21 23  1  0
M  END
$$$$
