ANQ.pdb
     RDKit          3D

 23 22  0  0  1  0  0  0  0  0999 V2000
   26.6553  -18.0211  -15.8011 C   0  0  0  0  0  0  0  0  0  0  0  0
   27.1773  -19.2705  -15.0878 C   0  0  2  0  0  0  0  0  0  0  0  0
   27.8800  -20.0889  -16.0678 N   0  0  0  0  0  0  0  0  0  0  0  0
   26.0638  -20.0451  -14.4889 C   0  0  0  0  0  0  0  0  0  0  0  0
   25.4979  -20.9554  -15.1873 O   0  0  0  0  0  0  0  0  0  0  0  0
   26.2305  -22.3632  -10.8228 N   0  0  0  0  0  0  0  0  0  0  0  0
   25.8382  -21.0284  -10.5826 C   0  0  0  0  0  0  0  0  0  0  0  0
   26.5839  -20.2415   -9.9365 O   0  0  0  0  0  0  0  0  0  0  0  0
   24.5352  -20.5245  -11.0884 C   0  0  0  0  0  0  0  0  0  0  0  0
   24.5364  -20.6264  -12.6099 C   0  0  2  0  0  0  0  0  0  0  0  0
   25.5991  -19.8220  -13.1781 N   0  0  0  0  0  0  0  0  0  0  0  0
   23.2002  -20.2766  -13.1363 C   0  0  0  0  0  0  0  0  0  0  0  0
   22.8651  -19.0704  -13.0911 O   0  0  0  0  0  0  0  0  0  0  0  0
   20.1530  -23.2976  -17.5993 N   0  0  0  0  0  0  0  0  0  0  0  0
   19.2550  -22.2458  -17.3476 C   0  0  0  0  0  0  0  0  0  0  0  0
   18.2520  -22.1005  -18.0693 O   0  0  0  0  0  0  0  0  0  0  0  0
   19.4807  -21.2970  -16.2286 C   0  0  0  0  0  0  0  0  0  0  0  0
   20.7371  -21.6838  -15.5070 C   0  0  0  0  0  0  0  0  0  0  0  0
   21.0272  -20.8490  -14.3179 C   0  0  2  0  0  0  0  0  0  0  0  0
   22.2844  -21.2031  -13.6825 N   0  0  0  0  0  0  0  0  0  0  0  0
   19.9606  -20.9579  -13.3068 C   0  0  0  0  0  0  0  0  0  0  0  0
   18.9479  -20.1743  -13.3786 O   0  0  0  0  0  0  0  0  0  0  0  0
   19.9269  -21.8423  -12.2544 O   0  0  0  0  0  0  0  0  0  0  0  0
  2  1  1  6
  2  4  1  0
  3  2  1  0
  4  5  2  0
  6  7  1  0
  7  9  1  0
  8  7  2  0
 10  9  1  1
 10 12  1  0
 11 10  1  0
 11  4  1  0
 12 13  2  0
 12 20  1  0
 15 17  1  0
 15 14  1  0
 16 15  2  0
 19 18  1  6
 18 17  1  0
 19 21  1  0
 20 19  1  0
 21 22  2  0
 21 23  1  0
M  END
$$$$
