ANQ.pdb
     RDKit          3D

 23 22  0  0  1  0  0  0  0  0999 V2000
   27.1863  -36.3588   -6.6580 C   0  0  0  0  0  0  0  0  0  0  0  0
   27.6566  -35.2427   -5.7224 C   0  0  2  0  0  0  0  0  0  0  0  0
   27.9804  -34.0780   -6.5364 N   0  0  0  0  0  0  0  0  0  0  0  0
   28.8489  -35.6647   -4.9486 C   0  0  0  0  0  0  0  0  0  0  0  0
   28.7777  -36.7202   -4.2292 O   0  0  0  0  0  0  0  0  0  0  0  0
   34.4156  -36.1894   -4.2188 N   0  0  0  0  0  0  0  0  0  0  0  0
   33.5930  -35.1333   -3.7702 C   0  0  0  0  0  0  0  0  0  0  0  0
   33.7995  -34.5823   -2.6538 O   0  0  0  0  0  0  0  0  0  0  0  0
   32.4652  -34.6500   -4.6081 C   0  0  0  0  0  0  0  0  0  0  0  0
   31.1938  -35.3659   -4.1650 C   0  0  2  0  0  0  0  0  0  0  0  0
   30.0632  -34.9511   -4.9706 N   0  0  0  0  0  0  0  0  0  0  0  0
   30.9807  -35.1583   -2.7172 C   0  0  0  0  0  0  0  0  0  0  0  0
   30.3664  -34.1225   -2.3718 O   0  0  0  0  0  0  0  0  0  0  0  0
   29.1719  -39.6482    2.1770 N   0  0  0  0  0  0  0  0  0  0  0  0
   29.2846  -38.3318    1.6974 C   0  0  0  0  0  0  0  0  0  0  0  0
   28.6771  -37.4090    2.2697 O   0  0  0  0  0  0  0  0  0  0  0  0
   30.1211  -38.0171    0.5123 C   0  0  0  0  0  0  0  0  0  0  0  0
   29.9064  -36.5828    0.1306 C   0  0  0  0  0  0  0  0  0  0  0  0
   31.1426  -35.8822   -0.2891 C   0  0  2  0  0  0  0  0  0  0  0  0
   31.4190  -36.0419   -1.7061 N   0  0  0  0  0  0  0  0  0  0  0  0
   32.3175  -36.3620    0.4599 C   0  0  0  0  0  0  0  0  0  0  0  0
   33.2298  -37.0168   -0.1593 O   0  0  0  0  0  0  0  0  0  0  0  0
   32.5559  -36.1770    1.8015 O   0  0  0  0  0  0  0  0  0  0  0  0
  2  1  1  6
  2  4  1  0
  3  2  1  0
  4  5  2  0
  6  7  1  0
  7  9  1  0
  8  7  2  0
 10  9  1  6
 10 12  1  0
 11 10  1  0
 11  4  1  0
 12 13  2  0
 12 20  1  0
 15 17  1  0
 15 14  1  0
 16 15  2  0
 19 18  1  1
 18 17  1  0
 19 21  1  0
 20 19  1  0
 21 22  2  0
 21 23  1  0
M  END
$$$$
