ANQ.pdb
     RDKit          3D

 23 22  0  0  1  0  0  0  0  0999 V2000
   15.6318  -11.8340  -10.8203 C   0  0  0  0  0  0  0  0  0  0  0  0
   14.6221  -11.1082   -9.9281 C   0  0  2  0  0  0  0  0  0  0  0  0
   13.2842  -11.5219  -10.3318 N   0  0  0  0  0  0  0  0  0  0  0  0
   14.7568   -9.6375  -10.0600 C   0  0  0  0  0  0  0  0  0  0  0  0
   14.2614   -9.0608  -11.0888 O   0  0  0  0  0  0  0  0  0  0  0  0
   14.0093   -4.5396   -8.3564 N   0  0  0  0  0  0  0  0  0  0  0  0
   15.2006   -5.2522   -8.0993 C   0  0  0  0  0  0  0  0  0  0  0  0
   16.3107   -4.6550   -8.0374 O   0  0  0  0  0  0  0  0  0  0  0  0
   15.1683   -6.7236   -7.8962 C   0  0  0  0  0  0  0  0  0  0  0  0
   15.4705   -7.4012   -9.2285 C   0  0  2  0  0  0  0  0  0  0  0  0
   15.4095   -8.8429   -9.0973 N   0  0  0  0  0  0  0  0  0  0  0  0
   16.7670   -6.9215   -9.7517 C   0  0  0  0  0  0  0  0  0  0  0  0
   17.8042   -7.3886   -9.2268 O   0  0  0  0  0  0  0  0  0  0  0  0
   19.9692   -9.1968  -12.8770 N   0  0  0  0  0  0  0  0  0  0  0  0
   20.5425   -7.9897  -13.3129 C   0  0  0  0  0  0  0  0  0  0  0  0
   21.6088   -8.0054  -13.9540 O   0  0  0  0  0  0  0  0  0  0  0  0
   19.8963   -6.6855  -13.0220 C   0  0  0  0  0  0  0  0  0  0  0  0
   18.6476   -6.9264  -12.2271 C   0  0  0  0  0  0  0  0  0  0  0  0
   18.1492   -5.7269  -11.5147 C   0  0  2  0  0  0  0  0  0  0  0  0
   16.9134   -5.9804  -10.7949 N   0  0  0  0  0  0  0  0  0  0  0  0
   17.9133   -4.6058  -12.4417 C   0  0  0  0  0  0  0  0  0  0  0  0
   16.7110   -4.3182  -12.7828 O   0  0  0  0  0  0  0  0  0  0  0  0
   18.8760   -3.8000  -13.0027 O   0  0  0  0  0  0  0  0  0  0  0  0
  2  1  1  6
  2  4  1  0
  3  2  1  0
  4  5  2  0
  6  7  1  0
  7  9  1  0
  8  7  2  0
 10  9  1  1
 10 12  1  0
 11 10  1  0
 11  4  1  0
 12 13  2  0
 12 20  1  0
 15 17  1  0
 15 14  1  0
 16 15  2  0
 19 18  1  6
 18 17  1  0
 19 21  1  0
 20 19  1  0
 21 22  2  0
 21 23  1  0
M  END
$$$$
