ANQ.pdb
     RDKit          3D

 23 22  0  0  1  0  0  0  0  0999 V2000
   14.2215  -10.1178  -12.0551 C   0  0  0  0  0  0  0  0  0  0  0  0
   15.6332  -10.1093  -11.4643 C   0  0  2  0  0  0  0  0  0  0  0  0
   15.5728  -10.7201  -10.1425 N   0  0  0  0  0  0  0  0  0  0  0  0
   16.1566   -8.7261  -11.3575 C   0  0  0  0  0  0  0  0  0  0  0  0
   16.2240   -8.0070  -12.4133 O   0  0  0  0  0  0  0  0  0  0  0  0
   14.5369   -5.9594   -9.8787 N   0  0  0  0  0  0  0  0  0  0  0  0
   15.3158   -5.8277   -8.7086 C   0  0  0  0  0  0  0  0  0  0  0  0
   14.8020   -5.4134   -7.6330 O   0  0  0  0  0  0  0  0  0  0  0  0
   16.7601   -6.1761   -8.7230 C   0  0  0  0  0  0  0  0  0  0  0  0
   17.0901   -6.8094  -10.0704 C   0  0  2  0  0  0  0  0  0  0  0  0
   16.5850   -8.1657  -10.1382 N   0  0  0  0  0  0  0  0  0  0  0  0
   18.5435   -6.7191  -10.3237 C   0  0  0  0  0  0  0  0  0  0  0  0
   19.2966   -7.3910   -9.5815 O   0  0  0  0  0  0  0  0  0  0  0  0
   22.1285   -7.5832  -14.6805 N   0  0  0  0  0  0  0  0  0  0  0  0
   20.7725   -7.9483  -14.6186 C   0  0  0  0  0  0  0  0  0  0  0  0
   20.2048   -8.3992  -15.6298 O   0  0  0  0  0  0  0  0  0  0  0  0
   19.9974   -7.8062  -13.3608 C   0  0  0  0  0  0  0  0  0  0  0  0
   20.9115   -7.3170  -12.2772 C   0  0  0  0  0  0  0  0  0  0  0  0
   20.5334   -5.9954  -11.7246 C   0  0  2  0  0  0  0  0  0  0  0  0
   19.1347   -5.9333  -11.3377 N   0  0  0  0  0  0  0  0  0  0  0  0
   20.7859   -4.9122  -12.6914 C   0  0  0  0  0  0  0  0  0  0  0  0
   21.9960   -4.5964  -12.9755 O   0  0  0  0  0  0  0  0  0  0  0  0
   19.8316   -4.1741  -13.3511 O   0  0  0  0  0  0  0  0  0  0  0  0
  2  1  1  1
  2  4  1  0
  3  2  1  0
  4  5  2  0
  6  7  1  0
  7  9  1  0
  8  7  2  0
 10  9  1  1
 10 12  1  0
 11 10  1  0
 11  4  1  0
 12 13  2  0
 12 20  1  0
 15 17  1  0
 15 14  1  0
 16 15  2  0
 19 18  1  6
 18 17  1  0
 19 21  1  0
 20 19  1  0
 21 22  2  0
 21 23  1  0
M  END
$$$$
