ANQ.pdb
     RDKit          3D

 23 22  0  0  1  0  0  0  0  0999 V2000
   19.5202  -13.5015  -17.6767 C   0  0  0  0  0  0  0  0  0  0  0  0
   20.0973  -12.2068  -18.2538 C   0  0  2  0  0  0  0  0  0  0  0  0
   21.5357  -12.3835  -18.4082 N   0  0  0  0  0  0  0  0  0  0  0  0
   19.8235  -11.0571  -17.3584 C   0  0  0  0  0  0  0  0  0  0  0  0
   18.6093  -10.7175  -17.1415 O   0  0  0  0  0  0  0  0  0  0  0  0
   20.1907   -6.8658  -14.5331 N   0  0  0  0  0  0  0  0  0  0  0  0
   20.8308   -7.9309  -13.8630 C   0  0  0  0  0  0  0  0  0  0  0  0
   21.1195   -7.8435  -12.6376 O   0  0  0  0  0  0  0  0  0  0  0  0
   21.1772   -9.1785  -14.5917 C   0  0  0  0  0  0  0  0  0  0  0  0
   20.5531   -9.1145  -15.9816 C   0  0  2  0  0  0  0  0  0  0  0  0
   20.8466  -10.3183  -16.7326 N   0  0  0  0  0  0  0  0  0  0  0  0
   20.9891   -7.8814  -16.6700 C   0  0  0  0  0  0  0  0  0  0  0  0
   22.2214   -7.7177  -16.8251 O   0  0  0  0  0  0  0  0  0  0  0  0
   17.8068   -5.9241  -21.1931 N   0  0  0  0  0  0  0  0  0  0  0  0
   17.3420   -5.3295  -20.0072 C   0  0  0  0  0  0  0  0  0  0  0  0
   16.1600   -4.9497  -19.9256 O   0  0  0  0  0  0  0  0  0  0  0  0
   18.2401   -5.1442  -18.8400 C   0  0  0  0  0  0  0  0  0  0  0  0
   19.6109   -5.6373  -19.1962 C   0  0  0  0  0  0  0  0  0  0  0  0
   20.5140   -5.7920  -18.0320 C   0  0  2  0  0  0  0  0  0  0  0  0
   20.1171   -6.8844  -17.1608 N   0  0  0  0  0  0  0  0  0  0  0  0
   20.5688   -4.5620  -17.2222 C   0  0  0  0  0  0  0  0  0  0  0  0
   21.2048   -3.5438  -17.6731 O   0  0  0  0  0  0  0  0  0  0  0  0
   19.9895   -4.3754  -15.9892 O   0  0  0  0  0  0  0  0  0  0  0  0
  2  1  1  1
  2  4  1  0
  3  2  1  0
  4  5  2  0
  6  7  1  0
  7  9  1  0
  8  7  2  0
 10  9  1  1
 10 12  1  0
 11 10  1  0
 11  4  1  0
 12 13  2  0
 12 20  1  0
 15 17  1  0
 15 14  1  0
 16 15  2  0
 19 18  1  6
 18 17  1  0
 19 21  1  0
 20 19  1  0
 21 22  2  0
 21 23  1  0
M  END
$$$$
