ANQ.pdb
     RDKit          3D

 23 22  0  0  1  0  0  0  0  0999 V2000
   14.9773  -11.4184  -10.0338 C   0  0  0  0  0  0  0  0  0  0  0  0
   14.1380  -10.2569   -9.4964 C   0  0  2  0  0  0  0  0  0  0  0  0
   12.7382  -10.5388   -9.7884 N   0  0  0  0  0  0  0  0  0  0  0  0
   14.5370   -8.9760  -10.1275 C   0  0  0  0  0  0  0  0  0  0  0  0
   14.1863   -8.7463  -11.3362 O   0  0  0  0  0  0  0  0  0  0  0  0
   16.0170   -6.8788   -7.4386 N   0  0  0  0  0  0  0  0  0  0  0  0
   15.3603   -5.7263   -7.9222 C   0  0  0  0  0  0  0  0  0  0  0  0
   14.9706   -4.8241   -7.1305 O   0  0  0  0  0  0  0  0  0  0  0  0
   15.1157   -5.5547   -9.3776 C   0  0  0  0  0  0  0  0  0  0  0  0
   15.6848   -6.7660  -10.1085 C   0  0  2  0  0  0  0  0  0  0  0  0
   15.2891   -7.9953   -9.4516 N   0  0  0  0  0  0  0  0  0  0  0  0
   17.1501   -6.6267  -10.2431 C   0  0  0  0  0  0  0  0  0  0  0  0
   17.8536   -7.0316   -9.2889 O   0  0  0  0  0  0  0  0  0  0  0  0
   19.8339   -9.5633  -14.0152 N   0  0  0  0  0  0  0  0  0  0  0  0
   21.0041   -8.9585  -13.5244 C   0  0  0  0  0  0  0  0  0  0  0  0
   22.1174   -9.3559  -13.9128 O   0  0  0  0  0  0  0  0  0  0  0  0
   20.9383   -7.8459  -12.5443 C   0  0  0  0  0  0  0  0  0  0  0  0
   19.5100   -7.6387  -12.1366 C   0  0  0  0  0  0  0  0  0  0  0  0
   19.2097   -6.2610  -11.6820 C   0  0  2  0  0  0  0  0  0  0  0  0
   17.8045   -6.0731  -11.3659 N   0  0  0  0  0  0  0  0  0  0  0  0
   19.5842   -5.2620  -12.6986 C   0  0  0  0  0  0  0  0  0  0  0  0
   20.8189   -4.9455  -12.8398 O   0  0  0  0  0  0  0  0  0  0  0  0
   18.7243   -4.6065  -13.5481 O   0  0  0  0  0  0  0  0  0  0  0  0
  2  1  1  6
  2  4  1  0
  3  2  1  0
  4  5  2  0
  6  7  1  0
  7  9  1  0
  8  7  2  0
 10  9  1  1
 10 12  1  0
 11 10  1  0
 11  4  1  0
 12 13  2  0
 12 20  1  0
 15 17  1  0
 15 14  1  0
 16 15  2  0
 19 18  1  6
 18 17  1  0
 19 21  1  0
 20 19  1  0
 21 22  2  0
 21 23  1  0
M  END
$$$$
