ANQ.pdb
     RDKit          3D

 23 22  0  0  1  0  0  0  0  0999 V2000
   13.2672  -11.5882  -16.0314 C   0  0  0  0  0  0  0  0  0  0  0  0
   14.6463  -11.4745  -15.3777 C   0  0  2  0  0  0  0  0  0  0  0  0
   14.4570  -11.4041  -13.9344 N   0  0  0  0  0  0  0  0  0  0  0  0
   15.3616  -10.2655  -15.8523 C   0  0  0  0  0  0  0  0  0  0  0  0
   16.1463  -10.3658  -16.8577 O   0  0  0  0  0  0  0  0  0  0  0  0
   15.7199   -5.2654  -17.7886 N   0  0  0  0  0  0  0  0  0  0  0  0
   15.6862   -5.4856  -16.3945 C   0  0  0  0  0  0  0  0  0  0  0  0
   16.2826   -4.7052  -15.6020 O   0  0  0  0  0  0  0  0  0  0  0  0
   14.9450   -6.6446  -15.8335 C   0  0  0  0  0  0  0  0  0  0  0  0
   15.8954   -7.8348  -15.7592 C   0  0  2  0  0  0  0  0  0  0  0  0
   15.2146   -9.0045  -15.2419 N   0  0  0  0  0  0  0  0  0  0  0  0
   17.0952   -7.4696  -14.9770 C   0  0  0  0  0  0  0  0  0  0  0  0
   17.0924   -7.7562  -13.7574 O   0  0  0  0  0  0  0  0  0  0  0  0
   21.7101  -10.3153  -15.3836 N   0  0  0  0  0  0  0  0  0  0  0  0
   22.3716   -9.2672  -14.7206 C   0  0  0  0  0  0  0  0  0  0  0  0
   23.5339   -9.4303  -14.3074 O   0  0  0  0  0  0  0  0  0  0  0  0
   21.7066   -7.9584  -14.5017 C   0  0  0  0  0  0  0  0  0  0  0  0
   20.3255   -8.0096  -15.0841 C   0  0  0  0  0  0  0  0  0  0  0  0
   19.5349   -6.7764  -14.8625 C   0  0  2  0  0  0  0  0  0  0  0  0
   18.2346   -6.8253  -15.5079 N   0  0  0  0  0  0  0  0  0  0  0  0
   20.2434   -5.5829  -15.3578 C   0  0  0  0  0  0  0  0  0  0  0  0
   21.1355   -5.0330  -14.6187 O   0  0  0  0  0  0  0  0  0  0  0  0
   20.0491   -4.9696  -16.5731 O   0  0  0  0  0  0  0  0  0  0  0  0
  2  1  1  6
  2  4  1  0
  3  2  1  0
  4  5  2  0
  6  7  1  0
  7  9  1  0
  8  7  2  0
 10  9  1  1
 10 12  1  0
 11 10  1  0
 11  4  1  0
 12 13  2  0
 12 20  1  0
 15 17  1  0
 15 14  1  0
 16 15  2  0
 19 18  1  6
 18 17  1  0
 19 21  1  0
 20 19  1  0
 21 22  2  0
 21 23  1  0
M  END
$$$$
