CII.pdb
     RDKit          3D

 23 22  0  0  1  0  0  0  0  0999 V2000
   26.1714  -20.5259  -15.4012 N   0  0  0  0  0  0  0  0  0  0  0  0
   27.0469  -20.7343  -14.2868 C   0  0  1  0  0  0  0  0  0  0  0  0
   28.4057  -20.1124  -14.4690 C   0  0  0  0  0  0  0  0  0  0  0  0
   29.4956  -21.1045  -15.5092 S   0  0  0  0  0  0  0  0  0  0  0  0
   26.4869  -20.2481  -13.0099 C   0  0  0  0  0  0  0  0  0  0  0  0
   26.1991  -19.0261  -12.9264 O   0  0  0  0  0  0  0  0  0  0  0  0
   21.9639  -20.3227  -12.2151 C   0  0  0  0  0  0  0  0  0  0  0  0
   23.4567  -20.0512  -12.1566 C   0  0  0  0  0  0  0  0  0  0  0  0
   23.9971  -20.7811  -10.9618 C   0  0  2  0  0  0  0  0  0  0  0  0
   23.3121  -20.2772   -9.7204 C   0  0  0  0  0  0  0  0  0  0  0  0
   25.4846  -20.5763  -10.7771 C   0  0  2  0  0  0  0  0  0  0  0  0
   26.2534  -21.0612  -11.8788 N   0  0  0  0  0  0  0  0  0  0  0  0
   25.9629  -21.1383   -9.4889 C   0  0  0  0  0  0  0  0  0  0  0  0
   26.0164  -22.3802   -9.3247 O   0  0  0  0  0  0  0  0  0  0  0  0
   29.6894  -18.6800   -5.6211 C   0  0  0  0  0  0  0  0  0  0  0  0
   29.0056  -19.9204   -6.1751 C   0  0  0  0  0  0  0  0  0  0  0  0
   27.5833  -19.6799   -6.5091 C   0  0  2  0  0  0  0  0  0  0  0  0
   26.7555  -19.2243   -5.3241 C   0  0  0  0  0  0  0  0  0  0  0  0
   26.8390  -20.8181   -7.1458 C   0  0  2  0  0  0  0  0  0  0  0  0
   26.3654  -20.3000   -8.4271 N   0  0  0  0  0  0  0  0  0  0  0  0
   25.7463  -21.2925   -6.3066 C   0  0  0  0  0  0  0  0  0  0  0  0
   25.9796  -22.1277   -5.2458 O   0  0  0  0  0  0  0  0  0  0  0  0
   24.5377  -20.9673   -6.5080 O   0  0  0  0  0  0  0  0  0  0  0  0
  2  1  1  6
  3  2  1  0
  3  4  1  0
  5  6  2  0
  5  2  1  0
  8  7  1  0
  8  9  1  0
  9 11  1  0
  9 10  1  1
 11 13  1  0
 11 12  1  6
 12  5  1  0
 13 20  1  0
 14 13  2  0
 15 16  1  0
 17 19  1  0
 17 16  1  0
 17 18  1  1
 19 21  1  0
 19 20  1  6
 21 23  2  0
 21 22  1  0
M  END
$$$$
