CII.pdb
     RDKit          3D

 23 22  0  0  1  0  0  0  0  0999 V2000
   20.6469  -18.5004  -15.8467 N   0  0  0  0  0  0  0  0  0  0  0  0
   20.8835  -17.4564  -16.7985 C   0  0  1  0  0  0  0  0  0  0  0  0
   19.6541  -17.0630  -17.5731 C   0  0  0  0  0  0  0  0  0  0  0  0
   18.8999  -18.4527  -18.4417 S   0  0  0  0  0  0  0  0  0  0  0  0
   21.4541  -16.2367  -16.1923 C   0  0  0  0  0  0  0  0  0  0  0  0
   20.9973  -15.8698  -15.0788 O   0  0  0  0  0  0  0  0  0  0  0  0
   26.5089  -15.3256  -15.1903 C   0  0  0  0  0  0  0  0  0  0  0  0
   24.9975  -15.4604  -15.2474 C   0  0  0  0  0  0  0  0  0  0  0  0
   24.4704  -14.2680  -15.9909 C   0  0  2  0  0  0  0  0  0  0  0  0
   24.8472  -13.0141  -15.2493 C   0  0  0  0  0  0  0  0  0  0  0  0
   22.9635  -14.2837  -16.1245 C   0  0  2  0  0  0  0  0  0  0  0  0
   22.4757  -15.4564  -16.7775 N   0  0  0  0  0  0  0  0  0  0  0  0
   22.4544  -13.0478  -16.7707 C   0  0  0  0  0  0  0  0  0  0  0  0
   22.9019  -12.6901  -17.8860 O   0  0  0  0  0  0  0  0  0  0  0  0
   17.1777  -10.7601  -17.8305 C   0  0  0  0  0  0  0  0  0  0  0  0
   18.6237  -10.3291  -17.6396 C   0  0  0  0  0  0  0  0  0  0  0  0
   19.4521  -11.3890  -17.0208 C   0  0  2  0  0  0  0  0  0  0  0  0
   18.8987  -11.8929  -15.7029 C   0  0  0  0  0  0  0  0  0  0  0  0
   20.8990  -11.0627  -16.7869 C   0  0  2  0  0  0  0  0  0  0  0  0
   21.4649  -12.2520  -16.1545 N   0  0  0  0  0  0  0  0  0  0  0  0
   21.0634   -9.8714  -15.9640 C   0  0  0  0  0  0  0  0  0  0  0  0
   21.0858   -8.6214  -16.5245 O   0  0  0  0  0  0  0  0  0  0  0  0
   21.1952   -9.9225  -14.7042 O   0  0  0  0  0  0  0  0  0  0  0  0
  2  1  1  1
  3  2  1  0
  3  4  1  0
  5  6  2  0
  5  2  1  0
  8  7  1  0
  8  9  1  0
  9 11  1  0
  9 10  1  1
 11 13  1  0
 11 12  1  6
 12  5  1  0
 13 20  1  0
 14 13  2  0
 15 16  1  0
 17 19  1  0
 17 16  1  0
 17 18  1  1
 19 21  1  0
 19 20  1  1
 21 23  2  0
 21 22  1  0
M  END
$$$$
