CII.pdb
     RDKit          3D

 23 22  0  0  1  0  0  0  0  0999 V2000
   25.5892  -17.2058  -16.3203 N   0  0  0  0  0  0  0  0  0  0  0  0
   26.5663  -17.7577  -15.4301 C   0  0  1  0  0  0  0  0  0  0  0  0
   27.5419  -16.7379  -14.9061 C   0  0  0  0  0  0  0  0  0  0  0  0
   28.6411  -16.0988  -16.1858 S   0  0  0  0  0  0  0  0  0  0  0  0
   25.9695  -18.4580  -14.2752 C   0  0  0  0  0  0  0  0  0  0  0  0
   25.0344  -17.8809  -13.6622 O   0  0  0  0  0  0  0  0  0  0  0  0
   23.3130  -22.6496  -14.7118 C   0  0  0  0  0  0  0  0  0  0  0  0
   23.9093  -21.3235  -14.2744 C   0  0  0  0  0  0  0  0  0  0  0  0
   24.9355  -21.6211  -13.2204 C   0  0  2  0  0  0  0  0  0  0  0  0
   24.2546  -22.2193  -12.0193 C   0  0  0  0  0  0  0  0  0  0  0  0
   25.6721  -20.3833  -12.7579 C   0  0  2  0  0  0  0  0  0  0  0  0
   26.3771  -19.7291  -13.8137 N   0  0  0  0  0  0  0  0  0  0  0  0
   26.5611  -20.6696  -11.6038 C   0  0  0  0  0  0  0  0  0  0  0  0
   27.4905  -21.5037  -11.7165 O   0  0  0  0  0  0  0  0  0  0  0  0
   28.3351  -19.0279   -6.0474 C   0  0  0  0  0  0  0  0  0  0  0  0
   27.7097  -20.1420   -6.8724 C   0  0  0  0  0  0  0  0  0  0  0  0
   27.2648  -19.6763   -8.2056 C   0  0  2  0  0  0  0  0  0  0  0  0
   26.3508  -18.4686   -8.1472 C   0  0  0  0  0  0  0  0  0  0  0  0
   26.5877  -20.6903   -9.0821 C   0  0  2  0  0  0  0  0  0  0  0  0
   26.3863  -20.0185  -10.3638 N   0  0  0  0  0  0  0  0  0  0  0  0
   25.3350  -21.1605   -8.5049 C   0  0  0  0  0  0  0  0  0  0  0  0
   25.3098  -22.2181   -7.6343 O   0  0  0  0  0  0  0  0  0  0  0  0
   24.2158  -20.6286   -8.7724 O   0  0  0  0  0  0  0  0  0  0  0  0
  2  1  1  1
  3  2  1  0
  3  4  1  0
  5  6  2  0
  5  2  1  0
  8  7  1  0
  8  9  1  0
  9 11  1  0
  9 10  1  1
 11 13  1  0
 11 12  1  6
 12  5  1  0
 13 20  1  0
 14 13  2  0
 15 16  1  0
 17 19  1  0
 17 16  1  0
 17 18  1  1
 19 21  1  0
 19 20  1  6
 21 23  2  0
 21 22  1  0
M  END
$$$$
