CII.pdb
     RDKit          3D

 23 22  0  0  1  0  0  0  0  0999 V2000
   21.8017  -19.5728  -14.3434 N   0  0  0  0  0  0  0  0  0  0  0  0
   21.8915  -18.8264  -15.5628 C   0  0  1  0  0  0  0  0  0  0  0  0
   20.5830  -18.7260  -16.3005 C   0  0  0  0  0  0  0  0  0  0  0  0
   19.7490  -20.3170  -16.4659 S   0  0  0  0  0  0  0  0  0  0  0  0
   22.4156  -17.4595  -15.3694 C   0  0  0  0  0  0  0  0  0  0  0  0
   22.0323  -16.8259  -14.3521 O   0  0  0  0  0  0  0  0  0  0  0  0
   27.4874  -16.2478  -15.4169 C   0  0  0  0  0  0  0  0  0  0  0  0
   25.9984  -16.3645  -15.1435 C   0  0  0  0  0  0  0  0  0  0  0  0
   25.3004  -15.3915  -16.0482 C   0  0  2  0  0  0  0  0  0  0  0  0
   25.6753  -13.9889  -15.6527 C   0  0  0  0  0  0  0  0  0  0  0  0
   23.7935  -15.5004  -15.9698 C   0  0  2  0  0  0  0  0  0  0  0  0
   23.3163  -16.8175  -16.2478 N   0  0  0  0  0  0  0  0  0  0  0  0
   23.1224  -14.4861  -16.8213 C   0  0  0  0  0  0  0  0  0  0  0  0
   23.4316  -14.3754  -18.0313 O   0  0  0  0  0  0  0  0  0  0  0  0
   17.6323  -12.6020  -17.7573 C   0  0  0  0  0  0  0  0  0  0  0  0
   19.0656  -12.0943  -17.7889 C   0  0  0  0  0  0  0  0  0  0  0  0
   20.0015  -13.0003  -17.0851 C   0  0  2  0  0  0  0  0  0  0  0  0
   19.6318  -13.2392  -15.6347 C   0  0  0  0  0  0  0  0  0  0  0  0
   21.4532  -12.6169  -17.1047 C   0  0  2  0  0  0  0  0  0  0  0  0
   22.1302  -13.6294  -16.2979 N   0  0  0  0  0  0  0  0  0  0  0  0
   21.6687  -11.2703  -16.5913 C   0  0  0  0  0  0  0  0  0  0  0  0
   22.2184  -11.0642  -15.3534 O   0  0  0  0  0  0  0  0  0  0  0  0
   21.3631  -10.2301  -17.2484 O   0  0  0  0  0  0  0  0  0  0  0  0
  2  1  1  1
  3  2  1  0
  3  4  1  0
  5  6  2  0
  5  2  1  0
  8  7  1  0
  8  9  1  0
  9 11  1  0
  9 10  1  1
 11 13  1  0
 11 12  1  6
 12  5  1  0
 13 20  1  0
 14 13  2  0
 15 16  1  0
 17 19  1  0
 17 16  1  0
 17 18  1  1
 19 21  1  0
 19 20  1  1
 21 23  2  0
 21 22  1  0
M  END
$$$$
