CII.pdb
     RDKit          3D

 23 22  0  0  1  0  0  0  0  0999 V2000
   13.6630  -22.9812   -7.4779 N   0  0  0  0  0  0  0  0  0  0  0  0
   13.7111  -22.3173   -6.2095 C   0  0  1  0  0  0  0  0  0  0  0  0
   12.4880  -21.4883   -5.9214 C   0  0  0  0  0  0  0  0  0  0  0  0
   12.5382  -20.7087   -4.2954 S   0  0  0  0  0  0  0  0  0  0  0  0
   13.9156  -23.2429   -5.0773 C   0  0  0  0  0  0  0  0  0  0  0  0
   13.0317  -24.1135   -4.8682 O   0  0  0  0  0  0  0  0  0  0  0  0
   17.2199  -26.9402   -4.7912 C   0  0  0  0  0  0  0  0  0  0  0  0
   16.0454  -25.9876   -4.6536 C   0  0  0  0  0  0  0  0  0  0  0  0
   16.2732  -25.1738   -3.4134 C   0  0  2  0  0  0  0  0  0  0  0  0
   16.3334  -26.0908   -2.2218 C   0  0  0  0  0  0  0  0  0  0  0  0
   15.1679  -24.1717   -3.1625 C   0  0  2  0  0  0  0  0  0  0  0  0
   15.0344  -23.2163   -4.2156 N   0  0  0  0  0  0  0  0  0  0  0  0
   15.3126  -23.5105   -1.8411 C   0  0  0  0  0  0  0  0  0  0  0  0
   16.2603  -22.7159   -1.6350 O   0  0  0  0  0  0  0  0  0  0  0  0
   11.4586  -20.7931    0.5045 C   0  0  0  0  0  0  0  0  0  0  0  0
   12.8779  -21.2550    0.2125 C   0  0  0  0  0  0  0  0  0  0  0  0
   13.1858  -22.5627    0.8350 C   0  0  2  0  0  0  0  0  0  0  0  0
   13.0403  -22.5603    2.3436 C   0  0  0  0  0  0  0  0  0  0  0  0
   14.5323  -23.1535    0.5304 C   0  0  2  0  0  0  0  0  0  0  0  0
   14.3983  -23.7554   -0.7941 N   0  0  0  0  0  0  0  0  0  0  0  0
   14.9423  -24.1244    1.5367 C   0  0  0  0  0  0  0  0  0  0  0  0
   15.6482  -23.7391    2.6459 O   0  0  0  0  0  0  0  0  0  0  0  0
   14.6759  -25.3603    1.4439 O   0  0  0  0  0  0  0  0  0  0  0  0
  2  1  1  6
  3  2  1  0
  3  4  1  0
  5  6  2  0
  5  2  1  0
  8  7  1  0
  8  9  1  0
  9 11  1  0
  9 10  1  1
 11 13  1  0
 11 12  1  6
 12  5  1  0
 13 20  1  0
 14 13  2  0
 15 16  1  0
 17 19  1  0
 17 16  1  0
 17 18  1  1
 19 21  1  0
 19 20  1  6
 21 23  2  0
 21 22  1  0
M  END
$$$$
