CII.pdb
     RDKit          3D

 23 22  0  0  1  0  0  0  0  0999 V2000
   23.1175  -20.3777  -14.6275 N   0  0  0  0  0  0  0  0  0  0  0  0
   22.0547  -20.1186  -13.7028 C   0  0  1  0  0  0  0  0  0  0  0  0
   20.6870  -20.3826  -14.2738 C   0  0  0  0  0  0  0  0  0  0  0  0
   19.3564  -19.8627  -13.1722 S   0  0  0  0  0  0  0  0  0  0  0  0
   22.1817  -20.8804  -12.4442 C   0  0  0  0  0  0  0  0  0  0  0  0
   22.2712  -22.1328  -12.5266 O   0  0  0  0  0  0  0  0  0  0  0  0
   24.9636  -20.9730   -7.1835 C   0  0  0  0  0  0  0  0  0  0  0  0
   23.7262  -21.4814   -7.9017 C   0  0  0  0  0  0  0  0  0  0  0  0
   23.5408  -20.6340   -9.1264 C   0  0  2  0  0  0  0  0  0  0  0  0
   23.2408  -19.2193   -8.7106 C   0  0  0  0  0  0  0  0  0  0  0  0
   22.3957  -21.1069   -9.9947 C   0  0  2  0  0  0  0  0  0  0  0  0
   22.2093  -20.2988  -11.1574 N   0  0  0  0  0  0  0  0  0  0  0  0
   21.1370  -21.2459   -9.2196 C   0  0  0  0  0  0  0  0  0  0  0  0
   20.4362  -20.2366   -8.9703 O   0  0  0  0  0  0  0  0  0  0  0  0
   17.3270  -23.8768  -11.0242 C   0  0  0  0  0  0  0  0  0  0  0  0
   18.1827  -22.9326  -10.1939 C   0  0  0  0  0  0  0  0  0  0  0  0
   18.5849  -23.5263   -8.8985 C   0  0  2  0  0  0  0  0  0  0  0  0
   17.4112  -23.9840   -8.0559 C   0  0  0  0  0  0  0  0  0  0  0  0
   19.4524  -22.6813   -8.0105 C   0  0  2  0  0  0  0  0  0  0  0  0
   20.7007  -22.5028   -8.7484 N   0  0  0  0  0  0  0  0  0  0  0  0
   19.6667  -23.3000   -6.7087 C   0  0  0  0  0  0  0  0  0  0  0  0
   18.8766  -22.9825   -5.6354 O   0  0  0  0  0  0  0  0  0  0  0  0
   20.5823  -24.1510   -6.4977 O   0  0  0  0  0  0  0  0  0  0  0  0
  2  1  1  6
  3  2  1  0
  3  4  1  0
  5  6  2  0
  5  2  1  0
  8  7  1  0
  8  9  1  0
  9 11  1  0
  9 10  1  1
 11 13  1  0
 11 12  1  6
 12  5  1  0
 13 20  1  0
 14 13  2  0
 15 16  1  0
 17 19  1  0
 17 16  1  0
 17 18  1  1
 19 21  1  0
 19 20  1  6
 21 23  2  0
 21 22  1  0
M  END
$$$$
