CII.pdb
     RDKit          3D

 23 22  0  0  1  0  0  0  0  0999 V2000
   20.4706  -20.7330  -11.9271 N   0  0  0  0  0  0  0  0  0  0  0  0
   21.4247  -21.3501  -12.7994 C   0  0  1  0  0  0  0  0  0  0  0  0
   20.8764  -21.6509  -14.1688 C   0  0  0  0  0  0  0  0  0  0  0  0
   19.6952  -23.0144  -14.1657 S   0  0  0  0  0  0  0  0  0  0  0  0
   22.6594  -20.5570  -12.9632 C   0  0  0  0  0  0  0  0  0  0  0  0
   22.5410  -19.3096  -13.0776 O   0  0  0  0  0  0  0  0  0  0  0  0
   26.5182  -21.7720  -10.1454 C   0  0  0  0  0  0  0  0  0  0  0  0
   26.0444  -20.5110  -10.8461 C   0  0  0  0  0  0  0  0  0  0  0  0
   26.2807  -20.7011  -12.3160 C   0  0  2  0  0  0  0  0  0  0  0  0
   27.4711  -19.8828  -12.7375 C   0  0  0  0  0  0  0  0  0  0  0  0
   25.1031  -20.2606  -13.1575 C   0  0  2  0  0  0  0  0  0  0  0  0
   23.9612  -21.1038  -13.0001 N   0  0  0  0  0  0  0  0  0  0  0  0
   25.4740  -20.1058  -14.5867 C   0  0  0  0  0  0  0  0  0  0  0  0
   25.5771  -21.1150  -15.3235 O   0  0  0  0  0  0  0  0  0  0  0  0
   23.9585  -16.2660  -18.8528 C   0  0  0  0  0  0  0  0  0  0  0  0
   25.0623  -17.2375  -18.4642 C   0  0  0  0  0  0  0  0  0  0  0  0
   24.9901  -17.6340  -17.0394 C   0  0  2  0  0  0  0  0  0  0  0  0
   25.0581  -16.4597  -16.0837 C   0  0  0  0  0  0  0  0  0  0  0  0
   26.0033  -18.6365  -16.5670 C   0  0  2  0  0  0  0  0  0  0  0  0
   25.7175  -18.8338  -15.1478 N   0  0  0  0  0  0  0  0  0  0  0  0
   27.3686  -18.1811  -16.7949 C   0  0  0  0  0  0  0  0  0  0  0  0
   28.0160  -18.4464  -17.9728 O   0  0  0  0  0  0  0  0  0  0  0  0
   28.0252  -17.5266  -15.9303 O   0  0  0  0  0  0  0  0  0  0  0  0
  2  1  1  1
  3  2  1  0
  3  4  1  0
  5  6  2  0
  5  2  1  0
  8  7  1  0
  8  9  1  0
  9 11  1  0
  9 10  1  6
 11 13  1  0
 11 12  1  6
 12  5  1  0
 13 20  1  0
 14 13  2  0
 15 16  1  0
 17 19  1  0
 17 16  1  0
 17 18  1  1
 19 21  1  0
 19 20  1  1
 21 23  2  0
 21 22  1  0
M  END
$$$$
