CII.pdb
     RDKit          3D

 23 22  0  0  1  0  0  0  0  0999 V2000
   17.2601  -14.7881  -18.3651 N   0  0  0  0  0  0  0  0  0  0  0  0
   17.0854  -13.9275  -17.2334 C   0  0  1  0  0  0  0  0  0  0  0  0
   17.5310  -14.5475  -15.9359 C   0  0  0  0  0  0  0  0  0  0  0  0
   16.4137  -15.8407  -15.3582 S   0  0  0  0  0  0  0  0  0  0  0  0
   17.7715  -12.6283  -17.3808 C   0  0  0  0  0  0  0  0  0  0  0  0
   18.9229  -12.6305  -17.8881 O   0  0  0  0  0  0  0  0  0  0  0  0
   16.7450   -6.7702  -18.5035 C   0  0  0  0  0  0  0  0  0  0  0  0
   17.7690   -7.8014  -18.0633 C   0  0  0  0  0  0  0  0  0  0  0  0
   17.0317   -9.0844  -17.8126 C   0  0  2  0  0  0  0  0  0  0  0  0
   15.9286   -8.8372  -16.8195 C   0  0  0  0  0  0  0  0  0  0  0  0
   17.9226  -10.1674  -17.2449 C   0  0  2  0  0  0  0  0  0  0  0  0
   17.2229  -11.3863  -16.9914 N   0  0  0  0  0  0  0  0  0  0  0  0
   18.6596   -9.7015  -16.0433 C   0  0  0  0  0  0  0  0  0  0  0  0
   18.1214   -9.7599  -14.9124 O   0  0  0  0  0  0  0  0  0  0  0  0
   23.9529  -10.6808  -13.8348 C   0  0  0  0  0  0  0  0  0  0  0  0
   22.8365   -9.6491  -13.7864 C   0  0  0  0  0  0  0  0  0  0  0  0
   21.9008   -9.7753  -14.9269 C   0  0  2  0  0  0  0  0  0  0  0  0
   22.5855   -9.7080  -16.2774 C   0  0  0  0  0  0  0  0  0  0  0  0
   20.7579   -8.8023  -14.9715 C   0  0  2  0  0  0  0  0  0  0  0  0
   19.9701   -9.1865  -16.1404 N   0  0  0  0  0  0  0  0  0  0  0  0
   21.2192   -7.4222  -15.0486 C   0  0  0  0  0  0  0  0  0  0  0  0
   21.4508   -6.6888  -13.9147 O   0  0  0  0  0  0  0  0  0  0  0  0
   21.4267   -6.8304  -16.1503 O   0  0  0  0  0  0  0  0  0  0  0  0
  2  1  1  6
  3  2  1  0
  3  4  1  0
  5  6  2  0
  5  2  1  0
  8  7  1  0
  8  9  1  0
  9 11  1  0
  9 10  1  1
 11 13  1  0
 11 12  1  1
 12  5  1  0
 13 20  1  0
 14 13  2  0
 15 16  1  0
 17 19  1  0
 17 16  1  0
 17 18  1  6
 19 21  1  0
 19 20  1  6
 21 23  2  0
 21 22  1  0
M  END
$$$$
