CII.pdb
     RDKit          3D

 23 22  0  0  1  0  0  0  0  0999 V2000
   29.1699  -23.7182  -17.4911 N   0  0  0  0  0  0  0  0  0  0  0  0
   27.8561  -23.1592  -17.3759 C   0  0  1  0  0  0  0  0  0  0  0  0
   26.7744  -24.1971  -17.2375 C   0  0  0  0  0  0  0  0  0  0  0  0
   26.3892  -25.0185  -18.7967 S   0  0  0  0  0  0  0  0  0  0  0  0
   27.7262  -22.2082  -16.2538 C   0  0  0  0  0  0  0  0  0  0  0  0
   28.3136  -22.4914  -15.1777 O   0  0  0  0  0  0  0  0  0  0  0  0
   27.3275  -16.7297  -16.8205 C   0  0  0  0  0  0  0  0  0  0  0  0
   27.7569  -18.1284  -16.4148 C   0  0  0  0  0  0  0  0  0  0  0  0
   26.6705  -18.6957  -15.5485 C   0  0  2  0  0  0  0  0  0  0  0  0
   26.5882  -17.9027  -14.2723 C   0  0  0  0  0  0  0  0  0  0  0  0
   26.9186  -20.1400  -15.1731 C   0  0  2  0  0  0  0  0  0  0  0  0
   26.9885  -21.0050  -16.3074 N   0  0  0  0  0  0  0  0  0  0  0  0
   25.9332  -20.6275  -14.1753 C   0  0  0  0  0  0  0  0  0  0  0  0
   24.8362  -21.1024  -14.5537 O   0  0  0  0  0  0  0  0  0  0  0  0
   25.7578  -20.4586   -7.9770 C   0  0  0  0  0  0  0  0  0  0  0  0
   25.0914  -20.9728   -9.2438 C   0  0  0  0  0  0  0  0  0  0  0  0
   25.8798  -20.6697  -10.4598 C   0  0  2  0  0  0  0  0  0  0  0  0
   26.3662  -19.2355  -10.5199 C   0  0  0  0  0  0  0  0  0  0  0  0
   25.2228  -20.9601  -11.7785 C   0  0  2  0  0  0  0  0  0  0  0  0
   26.2014  -20.5702  -12.7908 N   0  0  0  0  0  0  0  0  0  0  0  0
   23.9618  -20.2455  -11.9287 C   0  0  0  0  0  0  0  0  0  0  0  0
   22.7696  -20.8373  -11.6036 O   0  0  0  0  0  0  0  0  0  0  0  0
   23.8964  -19.0565  -12.3635 O   0  0  0  0  0  0  0  0  0  0  0  0
  2  1  1  1
  3  2  1  0
  3  4  1  0
  5  6  2  0
  5  2  1  0
  8  7  1  0
  8  9  1  0
  9 11  1  0
  9 10  1  1
 11 13  1  0
 11 12  1  6
 12  5  1  0
 13 20  1  0
 14 13  2  0
 15 16  1  0
 17 19  1  0
 17 16  1  0
 17 18  1  6
 19 21  1  0
 19 20  1  6
 21 23  2  0
 21 22  1  0
M  END
$$$$
