CII.pdb
     RDKit          3D

 23 22  0  0  1  0  0  0  0  0999 V2000
   30.0279  -22.6884  -17.7642 N   0  0  0  0  0  0  0  0  0  0  0  0
   28.6825  -22.8893  -17.3153 C   0  0  1  0  0  0  0  0  0  0  0  0
   28.4162  -24.2896  -16.8308 C   0  0  0  0  0  0  0  0  0  0  0  0
   28.5740  -25.5239  -18.1368 S   0  0  0  0  0  0  0  0  0  0  0  0
   28.2799  -21.9502  -16.2492 C   0  0  0  0  0  0  0  0  0  0  0  0
   29.1359  -21.6588  -15.3743 O   0  0  0  0  0  0  0  0  0  0  0  0
   26.5546  -17.2087  -17.3119 C   0  0  0  0  0  0  0  0  0  0  0  0
   27.1892  -18.4762  -16.7675 C   0  0  0  0  0  0  0  0  0  0  0  0
   26.2333  -19.0614  -15.7694 C   0  0  2  0  0  0  0  0  0  0  0  0
   26.0308  -18.0839  -14.6435 C   0  0  0  0  0  0  0  0  0  0  0  0
   26.7387  -20.3536  -15.1664 C   0  0  2  0  0  0  0  0  0  0  0  0
   27.0014  -21.3588  -16.1463 N   0  0  0  0  0  0  0  0  0  0  0  0
   25.8356  -20.8545  -14.0997 C   0  0  0  0  0  0  0  0  0  0  0  0
   24.8222  -21.5297  -14.3982 O   0  0  0  0  0  0  0  0  0  0  0  0
   25.9729  -20.5014   -7.9004 C   0  0  0  0  0  0  0  0  0  0  0  0
   25.2924  -21.0998   -9.1220 C   0  0  0  0  0  0  0  0  0  0  0  0
   25.9142  -20.6546  -10.3898 C   0  0  2  0  0  0  0  0  0  0  0  0
   26.0795  -19.1509  -10.4837 C   0  0  0  0  0  0  0  0  0  0  0  0
   25.2460  -21.0972  -11.6597 C   0  0  2  0  0  0  0  0  0  0  0  0
   26.0905  -20.5875  -12.7374 N   0  0  0  0  0  0  0  0  0  0  0  0
   23.8770  -20.6071  -11.7552 C   0  0  0  0  0  0  0  0  0  0  0  0
   23.5812  -19.4641  -12.4503 O   0  0  0  0  0  0  0  0  0  0  0  0
   22.8985  -21.1987  -11.2080 O   0  0  0  0  0  0  0  0  0  0  0  0
  2  1  1  1
  3  2  1  0
  3  4  1  0
  5  6  2  0
  5  2  1  0
  8  7  1  0
  8  9  1  0
  9 11  1  0
  9 10  1  1
 11 13  1  0
 11 12  1  6
 12  5  1  0
 13 20  1  0
 14 13  2  0
 15 16  1  0
 17 19  1  0
 17 16  1  0
 17 18  1  1
 19 21  1  0
 19 20  1  6
 21 23  2  0
 21 22  1  0
M  END
$$$$
