CII.pdb
     RDKit          3D

 23 22  0  0  1  0  0  0  0  0999 V2000
   28.3570  -19.7475  -17.1008 N   0  0  0  0  0  0  0  0  0  0  0  0
   28.1936  -19.0212  -15.8770 C   0  0  1  0  0  0  0  0  0  0  0  0
   27.2975  -17.8189  -16.0100 C   0  0  0  0  0  0  0  0  0  0  0  0
   27.9956  -16.5398  -17.0734 S   0  0  0  0  0  0  0  0  0  0  0  0
   27.6821  -19.8551  -14.7709 C   0  0  0  0  0  0  0  0  0  0  0  0
   26.8291  -20.7366  -15.0509 O   0  0  0  0  0  0  0  0  0  0  0  0
   30.6926  -21.4865  -10.4997 C   0  0  0  0  0  0  0  0  0  0  0  0
   29.7806  -21.4264  -11.7123 C   0  0  0  0  0  0  0  0  0  0  0  0
   28.4816  -20.8224  -11.2648 C   0  0  2  0  0  0  0  0  0  0  0  0
   27.8008  -21.7625  -10.3071 C   0  0  0  0  0  0  0  0  0  0  0  0
   27.5289  -20.5720  -12.4130 C   0  0  2  0  0  0  0  0  0  0  0  0
   28.0854  -19.7296  -13.4231 N   0  0  0  0  0  0  0  0  0  0  0  0
   26.2170  -20.0628  -11.9399 C   0  0  0  0  0  0  0  0  0  0  0  0
   26.1410  -18.9449  -11.3772 O   0  0  0  0  0  0  0  0  0  0  0  0
   20.5763  -20.3419  -13.9299 C   0  0  0  0  0  0  0  0  0  0  0  0
   21.4145  -20.0833  -12.6874 C   0  0  0  0  0  0  0  0  0  0  0  0
   22.8122  -20.5468  -12.8422 C   0  0  2  0  0  0  0  0  0  0  0  0
   22.9224  -22.0083  -13.2283 C   0  0  0  0  0  0  0  0  0  0  0  0
   23.7249  -20.3387  -11.6681 C   0  0  2  0  0  0  0  0  0  0  0  0
   25.0342  -20.8142  -12.1088 N   0  0  0  0  0  0  0  0  0  0  0  0
   23.2556  -21.0415  -10.4811 C   0  0  0  0  0  0  0  0  0  0  0  0
   23.8826  -22.1752  -10.0354 O   0  0  0  0  0  0  0  0  0  0  0  0
   22.2560  -20.6523   -9.8056 O   0  0  0  0  0  0  0  0  0  0  0  0
  2  1  1  6
  3  2  1  0
  3  4  1  0
  5  6  2  0
  5  2  1  0
  8  7  1  0
  8  9  1  0
  9 11  1  0
  9 10  1  1
 11 13  1  0
 11 12  1  6
 12  5  1  0
 13 20  1  0
 14 13  2  0
 15 16  1  0
 17 19  1  0
 17 16  1  0
 17 18  1  1
 19 21  1  0
 19 20  1  6
 21 23  2  0
 21 22  1  0
M  END
$$$$
