CII.pdb
     RDKit          3D

 23 22  0  0  1  0  0  0  0  0999 V2000
   28.5592  -21.2198  -15.4713 N   0  0  0  0  0  0  0  0  0  0  0  0
   28.0711  -20.2419  -14.5454 C   0  0  1  0  0  0  0  0  0  0  0  0
   27.6455  -18.9560  -15.2024 C   0  0  0  0  0  0  0  0  0  0  0  0
   29.0381  -17.9964  -15.8300 S   0  0  0  0  0  0  0  0  0  0  0  0
   26.9466  -20.7314  -13.7230 C   0  0  0  0  0  0  0  0  0  0  0  0
   26.1640  -21.5681  -14.2433 O   0  0  0  0  0  0  0  0  0  0  0  0
   26.8346  -20.5854   -8.1423 C   0  0  0  0  0  0  0  0  0  0  0  0
   26.8085  -21.0686   -9.5816 C   0  0  0  0  0  0  0  0  0  0  0  0
   25.5737  -20.5030  -10.2203 C   0  0  2  0  0  0  0  0  0  0  0  0
   24.3587  -21.1405   -9.6026 C   0  0  0  0  0  0  0  0  0  0  0  0
   25.5172  -20.7617  -11.7098 C   0  0  2  0  0  0  0  0  0  0  0  0
   26.6916  -20.3244  -12.3948 N   0  0  0  0  0  0  0  0  0  0  0  0
   24.2873  -20.1978  -12.3211 C   0  0  0  0  0  0  0  0  0  0  0  0
   24.0783  -18.9619  -12.2900 O   0  0  0  0  0  0  0  0  0  0  0  0
   21.1248  -21.1641  -17.2476 C   0  0  0  0  0  0  0  0  0  0  0  0
   20.9901  -20.6273  -15.8310 C   0  0  0  0  0  0  0  0  0  0  0  0
   22.1678  -20.9457  -14.9918 C   0  0  2  0  0  0  0  0  0  0  0  0
   22.5214  -22.4196  -14.9854 C   0  0  0  0  0  0  0  0  0  0  0  0
   22.1107  -20.5074  -13.5567 C   0  0  2  0  0  0  0  0  0  0  0  0
   23.3319  -21.0275  -12.9462 N   0  0  0  0  0  0  0  0  0  0  0  0
   20.9112  -20.9915  -12.8858 C   0  0  0  0  0  0  0  0  0  0  0  0
   20.9156  -22.1737  -12.1934 O   0  0  0  0  0  0  0  0  0  0  0  0
   19.8130  -20.3585  -12.9059 O   0  0  0  0  0  0  0  0  0  0  0  0
  2  1  1  6
  3  2  1  0
  3  4  1  0
  5  6  2  0
  5  2  1  0
  8  7  1  0
  8  9  1  0
  9 11  1  0
  9 10  1  1
 11 13  1  0
 11 12  1  6
 12  5  1  0
 13 20  1  0
 14 13  2  0
 15 16  1  0
 17 19  1  0
 17 16  1  0
 17 18  1  1
 19 21  1  0
 19 20  1  1
 21 23  2  0
 21 22  1  0
M  END
$$$$
