CII.pdb
     RDKit          3D

 23 22  0  0  1  0  0  0  0  0999 V2000
   17.5542  -26.7997   -7.7929 N   0  0  0  0  0  0  0  0  0  0  0  0
   17.1836  -25.4278   -7.6131 C   0  0  1  0  0  0  0  0  0  0  0  0
   18.3506  -24.5284   -7.3039 C   0  0  0  0  0  0  0  0  0  0  0  0
   19.0933  -24.8732   -5.6965 S   0  0  0  0  0  0  0  0  0  0  0  0
   16.4641  -24.8641   -8.7728 C   0  0  0  0  0  0  0  0  0  0  0  0
   16.4431  -25.5422   -9.8325 O   0  0  0  0  0  0  0  0  0  0  0  0
   11.6128  -22.5414   -8.1307 C   0  0  0  0  0  0  0  0  0  0  0  0
   12.7556  -23.4104   -8.6251 C   0  0  0  0  0  0  0  0  0  0  0  0
   13.6947  -22.5221   -9.3877 C   0  0  2  0  0  0  0  0  0  0  0  0
   12.9957  -21.9950  -10.6117 C   0  0  0  0  0  0  0  0  0  0  0  0
   14.9384  -23.2488   -9.8500 C   0  0  2  0  0  0  0  0  0  0  0  0
   15.7995  -23.6178   -8.7720 N   0  0  0  0  0  0  0  0  0  0  0  0
   15.6676  -22.4850  -10.8936 C   0  0  0  0  0  0  0  0  0  0  0  0
   16.2896  -21.4396  -10.5898 O   0  0  0  0  0  0  0  0  0  0  0  0
   18.6230  -22.9782  -15.8442 C   0  0  0  0  0  0  0  0  0  0  0  0
   17.1800  -22.5414  -15.6439 C   0  0  0  0  0  0  0  0  0  0  0  0
   16.5890  -23.0950  -14.4043 C   0  0  2  0  0  0  0  0  0  0  0  0
   15.3333  -23.9083  -14.6473 C   0  0  0  0  0  0  0  0  0  0  0  0
   16.2653  -22.1131  -13.3153 C   0  0  2  0  0  0  0  0  0  0  0  0
   15.6801  -22.9098  -12.2395 N   0  0  0  0  0  0  0  0  0  0  0  0
   15.3640  -21.0649  -13.7762 C   0  0  0  0  0  0  0  0  0  0  0  0
   15.8246  -19.8028  -14.0446 O   0  0  0  0  0  0  0  0  0  0  0  0
   14.1230  -21.2568  -13.9499 O   0  0  0  0  0  0  0  0  0  0  0  0
  2  1  1  6
  3  2  1  0
  3  4  1  0
  5  6  2  0
  5  2  1  0
  8  7  1  0
  8  9  1  0
  9 11  1  0
  9 10  1  6
 11 13  1  0
 11 12  1  1
 12  5  1  0
 13 20  1  0
 14 13  2  0
 15 16  1  0
 17 19  1  0
 17 16  1  0
 17 18  1  6
 19 21  1  0
 19 20  1  1
 21 23  2  0
 21 22  1  0
M  END
$$$$
