CII.pdb
     RDKit          3D

 23 22  0  0  1  0  0  0  0  0999 V2000
   28.8916  -20.4208  -15.6960 N   0  0  0  0  0  0  0  0  0  0  0  0
   28.1717  -19.5733  -14.7930 C   0  0  1  0  0  0  0  0  0  0  0  0
   27.6869  -18.2973  -15.4279 C   0  0  0  0  0  0  0  0  0  0  0  0
   26.9745  -17.1481  -14.2337 S   0  0  0  0  0  0  0  0  0  0  0  0
   27.0143  -20.2429  -14.1664 C   0  0  0  0  0  0  0  0  0  0  0  0
   26.2767  -20.9459  -14.9046 O   0  0  0  0  0  0  0  0  0  0  0  0
   25.5436  -20.1823   -8.5139 C   0  0  0  0  0  0  0  0  0  0  0  0
   25.4520  -19.8321   -9.9886 C   0  0  0  0  0  0  0  0  0  0  0  0
   25.6931  -21.0947  -10.7633 C   0  0  2  0  0  0  0  0  0  0  0  0
   27.0805  -21.5989  -10.4718 C   0  0  0  0  0  0  0  0  0  0  0  0
   25.5866  -20.8904  -12.2586 C   0  0  2  0  0  0  0  0  0  0  0  0
   26.6808  -20.1473  -12.7972 N   0  0  0  0  0  0  0  0  0  0  0  0
   24.2817  -20.2954  -12.6423 C   0  0  0  0  0  0  0  0  0  0  0  0
   24.0801  -19.0674  -12.4891 O   0  0  0  0  0  0  0  0  0  0  0  0
   20.6405  -20.5155  -17.2210 C   0  0  0  0  0  0  0  0  0  0  0  0
   20.6139  -20.2917  -15.7169 C   0  0  0  0  0  0  0  0  0  0  0  0
   21.8542  -20.7559  -15.0546 C   0  0  2  0  0  0  0  0  0  0  0  0
   22.1544  -22.2213  -15.2984 C   0  0  0  0  0  0  0  0  0  0  0  0
   21.9498  -20.5347  -13.5725 C   0  0  2  0  0  0  0  0  0  0  0  0
   23.2454  -21.0863  -13.1833 N   0  0  0  0  0  0  0  0  0  0  0  0
   20.8472  -21.1617  -12.8551 C   0  0  0  0  0  0  0  0  0  0  0  0
   19.6099  -20.5754  -12.8065 O   0  0  0  0  0  0  0  0  0  0  0  0
   20.9683  -22.2655  -12.2435 O   0  0  0  0  0  0  0  0  0  0  0  0
  2  1  1  6
  3  2  1  0
  3  4  1  0
  5  6  2  0
  5  2  1  0
  8  7  1  0
  8  9  1  0
  9 11  1  0
  9 10  1  6
 11 13  1  0
 11 12  1  1
 12  5  1  0
 13 20  1  0
 14 13  2  0
 15 16  1  0
 17 19  1  0
 17 16  1  0
 17 18  1  1
 19 21  1  0
 19 20  1  1
 21 23  2  0
 21 22  1  0
M  END
$$$$
