CII.pdb
     RDKit          3D

 23 22  0  0  1  0  0  0  0  0999 V2000
   28.0697  -19.8507  -16.4936 N   0  0  0  0  0  0  0  0  0  0  0  0
   27.7729  -20.8872  -15.5505 C   0  0  1  0  0  0  0  0  0  0  0  0
   29.0000  -21.5522  -14.9865 C   0  0  0  0  0  0  0  0  0  0  0  0
   29.6601  -22.8360  -16.0684 S   0  0  0  0  0  0  0  0  0  0  0  0
   26.9416  -20.4240  -14.4214 C   0  0  0  0  0  0  0  0  0  0  0  0
   27.1311  -19.2541  -13.9985 O   0  0  0  0  0  0  0  0  0  0  0  0
   21.8122  -20.0500  -14.4990 C   0  0  0  0  0  0  0  0  0  0  0  0
   23.3003  -19.8687  -14.2575 C   0  0  0  0  0  0  0  0  0  0  0  0
   23.6634  -20.7001  -13.0619 C   0  0  2  0  0  0  0  0  0  0  0  0
   22.9249  -20.1851  -11.8562 C   0  0  0  0  0  0  0  0  0  0  0  0
   25.1421  -20.6524  -12.7460 C   0  0  2  0  0  0  0  0  0  0  0  0
   25.9507  -21.2043  -13.7858 N   0  0  0  0  0  0  0  0  0  0  0  0
   25.4455  -21.2727  -11.4317 C   0  0  0  0  0  0  0  0  0  0  0  0
   25.3271  -22.5113  -11.2776 O   0  0  0  0  0  0  0  0  0  0  0  0
   28.4343  -19.4279   -6.3719 C   0  0  0  0  0  0  0  0  0  0  0  0
   27.5606  -20.5007   -7.0034 C   0  0  0  0  0  0  0  0  0  0  0  0
   27.0257  -20.0901   -8.3216 C   0  0  2  0  0  0  0  0  0  0  0  0
   26.3092  -18.7549   -8.2909 C   0  0  0  0  0  0  0  0  0  0  0  0
   26.1065  -21.0595   -9.0073 C   0  0  2  0  0  0  0  0  0  0  0  0
   25.8702  -20.4943  -10.3336 N   0  0  0  0  0  0  0  0  0  0  0  0
   24.8682  -21.2557   -8.2645 C   0  0  0  0  0  0  0  0  0  0  0  0
   24.7880  -22.1758   -7.2525 O   0  0  0  0  0  0  0  0  0  0  0  0
   23.8118  -20.5993   -8.5095 O   0  0  0  0  0  0  0  0  0  0  0  0
  2  1  1  6
  3  2  1  0
  3  4  1  0
  5  6  2  0
  5  2  1  0
  8  7  1  0
  8  9  1  0
  9 11  1  0
  9 10  1  1
 11 13  1  0
 11 12  1  6
 12  5  1  0
 13 20  1  0
 14 13  2  0
 15 16  1  0
 17 19  1  0
 17 16  1  0
 17 18  1  1
 19 21  1  0
 19 20  1  6
 21 23  2  0
 21 22  1  0
M  END
$$$$
