CQF.pdb
     RDKit          3D

 27 27  0  0  1  0  0  0  0  0999 V2000
    7.1175  -16.1979   18.2556 N   0  0  0  0  0  0  0  0  0  0  0  0
    7.7907  -15.5034   19.3277 C   0  0  1  0  0  0  0  0  0  0  0  0
    7.4522  -14.0279   19.1657 C   0  0  0  0  0  0  0  0  0  0  0  0
    8.4945  -13.2880   17.9038 S   0  0  0  0  0  0  0  0  0  0  0  0
    7.3091  -15.9703   20.6637 C   0  0  0  0  0  0  0  0  0  0  0  0
    6.1530  -16.4495   20.7932 O   0  0  0  0  0  0  0  0  0  0  0  0
    6.3657  -20.5750   22.5507 N   0  0  0  0  0  0  0  0  0  0  0  0
    6.3662  -20.0543   23.8672 C   0  0  0  0  0  0  0  0  0  0  0  0
    5.9498  -20.7667   24.7987 O   0  0  0  0  0  0  0  0  0  0  0  0
    6.8608  -18.6743   24.1058 C   0  0  0  0  0  0  0  0  0  0  0  0
    7.2502  -17.9333   22.8602 C   0  0  0  0  0  0  0  0  0  0  0  0
    7.7004  -16.5293   23.0642 C   0  0  2  0  0  0  0  0  0  0  0  0
    8.1177  -15.8959   21.8244 N   0  0  0  0  0  0  0  0  0  0  0  0
    8.7819  -16.3907   24.1001 C   0  0  0  0  0  0  0  0  0  0  0  0
    9.9422  -16.8247   23.9084 O   0  0  0  0  0  0  0  0  0  0  0  0
    8.5147  -15.7535   25.3457 N   0  0  0  0  0  0  0  0  0  0  0  0
    9.6540  -15.4476   26.2182 C   0  0  1  0  0  0  0  0  0  0  0  0
    9.6801  -13.9430   26.3650 C   0  0  0  0  0  0  0  0  0  0  0  0
    8.3707  -13.3955   26.7732 C   0  0  0  0  0  0  0  0  0  0  0  0
    7.3446  -13.2506   25.8758 C   0  0  0  0  0  0  0  0  0  0  0  0
    6.1421  -12.7365   26.2995 C   0  0  0  0  0  0  0  0  0  0  0  0
    5.9277  -12.3578   27.6043 C   0  0  0  0  0  0  0  0  0  0  0  0
    6.9638  -12.5054   28.5045 C   0  0  0  0  0  0  0  0  0  0  0  0
    8.1658  -13.0188   28.0835 C   0  0  0  0  0  0  0  0  0  0  0  0
    9.5599  -16.1606   27.4944 C   0  0  0  0  0  0  0  0  0  0  0  0
   10.3450  -15.9469   28.4672 O   0  0  0  0  0  0  0  0  0  0  0  0
    8.5924  -17.1259   27.7212 O   0  0  0  0  0  0  0  0  0  0  0  0
  2  1  1  6
  3  2  1  0
  4  3  1  0
  5  2  1  0
  5  6  2  0
  8  7  1  0
  8 10  1  0
  9  8  2  0
 12 11  1  6
 11 10  1  0
 12 13  1  0
 13  5  1  0
 14 12  1  0
 15 14  2  0
 16 14  1  0
 17 16  1  0
 17 25  1  0
 17 18  1  1
 19 24  2  0
 19 18  1  0
 20 19  1  0
 21 22  1  0
 21 20  2  0
 22 23  2  0
 23 24  1  0
 25 27  1  0
 26 25  2  0
M  END
$$$$
