CQF.pdb
     RDKit          3D

 27 27  0  0  1  0  0  0  0  0999 V2000
    7.4370  -14.5148   18.5264 N   0  0  0  0  0  0  0  0  0  0  0  0
    8.2338  -14.1538   19.6752 C   0  0  1  0  0  0  0  0  0  0  0  0
    7.5095  -13.0018   20.3581 C   0  0  0  0  0  0  0  0  0  0  0  0
    8.4379  -12.4497   21.7931 S   0  0  0  0  0  0  0  0  0  0  0  0
    8.3503  -15.2939   20.6350 C   0  0  0  0  0  0  0  0  0  0  0  0
    7.3716  -16.0573   20.8404 O   0  0  0  0  0  0  0  0  0  0  0  0
   10.0558  -20.4033   19.6760 N   0  0  0  0  0  0  0  0  0  0  0  0
   11.0491  -19.5420   20.2014 C   0  0  0  0  0  0  0  0  0  0  0  0
   12.1577  -20.0159   20.5097 O   0  0  0  0  0  0  0  0  0  0  0  0
   10.7462  -18.0982   20.3732 C   0  0  0  0  0  0  0  0  0  0  0  0
   10.7780  -17.6252   21.7970 C   0  0  0  0  0  0  0  0  0  0  0  0
    9.6580  -16.7316   22.2005 C   0  0  2  0  0  0  0  0  0  0  0  0
    9.5466  -15.5623   21.3446 N   0  0  0  0  0  0  0  0  0  0  0  0
    9.7185  -16.3078   23.6424 C   0  0  0  0  0  0  0  0  0  0  0  0
   10.6811  -15.6471   24.0986 O   0  0  0  0  0  0  0  0  0  0  0  0
    8.6692  -16.6500   24.5427 N   0  0  0  0  0  0  0  0  0  0  0  0
    8.8080  -16.2418   25.9451 C   0  0  1  0  0  0  0  0  0  0  0  0
    7.4364  -15.7863   26.3891 C   0  0  0  0  0  0  0  0  0  0  0  0
    7.2739  -14.3213   26.2976 C   0  0  0  0  0  0  0  0  0  0  0  0
    8.3121  -13.4680   26.5682 C   0  0  0  0  0  0  0  0  0  0  0  0
    8.1162  -12.1109   26.4704 C   0  0  0  0  0  0  0  0  0  0  0  0
    6.9043  -11.5712   26.1071 C   0  0  0  0  0  0  0  0  0  0  0  0
    5.8616  -12.4343   25.8355 C   0  0  0  0  0  0  0  0  0  0  0  0
    6.0550  -13.7903   25.9326 C   0  0  0  0  0  0  0  0  0  0  0  0
    9.3628  -17.3207   26.7662 C   0  0  0  0  0  0  0  0  0  0  0  0
    9.7333  -17.1566   27.9680 O   0  0  0  0  0  0  0  0  0  0  0  0
    9.5184  -18.6062   26.2737 O   0  0  0  0  0  0  0  0  0  0  0  0
  2  1  1  6
  3  2  1  0
  4  3  1  0
  5  2  1  0
  5  6  2  0
  8  7  1  0
  8 10  1  0
  9  8  2  0
 12 11  1  6
 11 10  1  0
 12 13  1  0
 13  5  1  0
 14 12  1  0
 15 14  2  0
 16 14  1  0
 17 16  1  0
 17 25  1  0
 17 18  1  1
 19 24  2  0
 19 18  1  0
 20 19  1  0
 21 22  1  0
 21 20  2  0
 22 23  2  0
 23 24  1  0
 25 27  1  0
 26 25  2  0
M  END
$$$$
