CQF.pdb
     RDKit          3D

 27 27  0  0  1  0  0  0  0  0999 V2000
    5.2505  -12.7649   26.6171 N   0  0  0  0  0  0  0  0  0  0  0  0
    5.6764  -13.0748   25.2726 C   0  0  1  0  0  0  0  0  0  0  0  0
    6.5360  -11.9057   24.8119 C   0  0  0  0  0  0  0  0  0  0  0  0
    8.0322  -11.8091   25.8010 S   0  0  0  0  0  0  0  0  0  0  0  0
    6.4945  -14.3255   25.2369 C   0  0  0  0  0  0  0  0  0  0  0  0
    7.0688  -14.7418   26.2760 O   0  0  0  0  0  0  0  0  0  0  0  0
    5.8891  -19.2887   24.5346 N   0  0  0  0  0  0  0  0  0  0  0  0
    7.1029  -19.5802   23.8669 C   0  0  0  0  0  0  0  0  0  0  0  0
    7.6611  -20.6722   24.0778 O   0  0  0  0  0  0  0  0  0  0  0  0
    7.6812  -18.5794   22.9342 C   0  0  0  0  0  0  0  0  0  0  0  0
    6.9954  -17.2447   22.9571 C   0  0  0  0  0  0  0  0  0  0  0  0
    7.3950  -16.3380   24.0679 C   0  0  2  0  0  0  0  0  0  0  0  0
    6.6577  -15.0856   24.0528 N   0  0  0  0  0  0  0  0  0  0  0  0
    8.8728  -16.0625   24.1152 C   0  0  0  0  0  0  0  0  0  0  0  0
    9.4346  -15.3166   23.2788 O   0  0  0  0  0  0  0  0  0  0  0  0
    9.6872  -16.6494   25.1256 N   0  0  0  0  0  0  0  0  0  0  0  0
   11.1405  -16.4771   25.0215 C   0  0  1  0  0  0  0  0  0  0  0  0
   11.4536  -15.1433   25.6611 C   0  0  0  0  0  0  0  0  0  0  0  0
   10.9889  -15.0686   27.0608 C   0  0  0  0  0  0  0  0  0  0  0  0
   10.2554  -14.0033   27.5153 C   0  0  0  0  0  0  0  0  0  0  0  0
    9.8434  -13.9750   28.8264 C   0  0  0  0  0  0  0  0  0  0  0  0
   10.1428  -14.9865   29.7091 C   0  0  0  0  0  0  0  0  0  0  0  0
   10.8817  -16.0573   29.2472 C   0  0  0  0  0  0  0  0  0  0  0  0
   11.2942  -16.0877   27.9378 C   0  0  0  0  0  0  0  0  0  0  0  0
   11.8594  -17.6013   25.6259 C   0  0  0  0  0  0  0  0  0  0  0  0
   13.1250  -17.6723   25.6684 O   0  0  0  0  0  0  0  0  0  0  0  0
   11.1913  -18.6719   26.1978 O   0  0  0  0  0  0  0  0  0  0  0  0
  2  1  1  1
  3  2  1  0
  4  3  1  0
  5  2  1  0
  5  6  2  0
  8  7  1  0
  8 10  1  0
  9  8  2  0
 12 11  1  6
 11 10  1  0
 12 13  1  0
 13  5  1  0
 14 12  1  0
 15 14  2  0
 16 14  1  0
 17 16  1  0
 17 25  1  0
 17 18  1  1
 19 24  2  0
 19 18  1  0
 20 19  1  0
 21 22  1  0
 21 20  2  0
 22 23  2  0
 23 24  1  0
 25 27  1  0
 26 25  2  0
M  END
$$$$
