CQF.pdb
     RDKit          3D

 27 27  0  0  1  0  0  0  0  0999 V2000
    9.4153  -14.2796   19.0424 N   0  0  0  0  0  0  0  0  0  0  0  0
    8.5031  -13.6727   19.9830 C   0  0  1  0  0  0  0  0  0  0  0  0
    7.2674  -13.2723   19.1889 C   0  0  0  0  0  0  0  0  0  0  0  0
    7.7416  -12.3104   17.7480 S   0  0  0  0  0  0  0  0  0  0  0  0
    8.1038  -14.6382   21.0522 C   0  0  0  0  0  0  0  0  0  0  0  0
    6.9166  -14.6754   21.4671 O   0  0  0  0  0  0  0  0  0  0  0  0
   10.3476  -20.5239   21.7797 N   0  0  0  0  0  0  0  0  0  0  0  0
   10.3474  -19.4604   20.8451 C   0  0  0  0  0  0  0  0  0  0  0  0
   10.5474  -19.7127   19.6431 O   0  0  0  0  0  0  0  0  0  0  0  0
   10.1108  -18.0728   21.3189 C   0  0  0  0  0  0  0  0  0  0  0  0
    8.9018  -17.9164   22.1942 C   0  0  0  0  0  0  0  0  0  0  0  0
    8.5909  -16.5226   22.6142 C   0  0  2  0  0  0  0  0  0  0  0  0
    9.0272  -15.5394   21.6369 N   0  0  0  0  0  0  0  0  0  0  0  0
    9.1321  -16.1706   23.9726 C   0  0  0  0  0  0  0  0  0  0  0  0
   10.2412  -15.6047   24.1173 O   0  0  0  0  0  0  0  0  0  0  0  0
    8.3894  -16.4744   25.1494 N   0  0  0  0  0  0  0  0  0  0  0  0
    8.9871  -16.1332   26.4452 C   0  0  1  0  0  0  0  0  0  0  0  0
    7.8834  -15.5054   27.2660 C   0  0  0  0  0  0  0  0  0  0  0  0
    7.5495  -14.1414   26.8088 C   0  0  0  0  0  0  0  0  0  0  0  0
    8.3698  -13.0762   27.0767 C   0  0  0  0  0  0  0  0  0  0  0  0
    8.0199  -11.8236   26.6317 C   0  0  0  0  0  0  0  0  0  0  0  0
    6.8649  -11.5964   25.9201 C   0  0  0  0  0  0  0  0  0  0  0  0
    6.0419  -12.6720   25.6527 C   0  0  0  0  0  0  0  0  0  0  0  0
    6.3895  -13.9242   26.0961 C   0  0  0  0  0  0  0  0  0  0  0  0
    9.5978  -17.3037   27.0799 C   0  0  0  0  0  0  0  0  0  0  0  0
   10.2006  -17.2521   28.1946 O   0  0  0  0  0  0  0  0  0  0  0  0
    9.5531  -18.5581   26.4936 O   0  0  0  0  0  0  0  0  0  0  0  0
  2  1  1  6
  3  2  1  0
  4  3  1  0
  5  2  1  0
  5  6  2  0
  8  7  1  0
  8 10  1  0
  9  8  2  0
 12 11  1  6
 11 10  1  0
 12 13  1  0
 13  5  1  0
 14 12  1  0
 15 14  2  0
 16 14  1  0
 17 16  1  0
 17 25  1  0
 17 18  1  1
 19 24  2  0
 19 18  1  0
 20 19  1  0
 21 22  1  0
 21 20  2  0
 22 23  2  0
 23 24  1  0
 25 27  1  0
 26 25  2  0
M  END
$$$$
