CQF.pdb
     RDKit          3D

 27 27  0  0  1  0  0  0  0  0999 V2000
    7.8499  -15.4988   17.8081 N   0  0  0  0  0  0  0  0  0  0  0  0
    8.3755  -14.9223   19.0233 C   0  0  1  0  0  0  0  0  0  0  0  0
    8.2858  -13.4115   18.8582 C   0  0  0  0  0  0  0  0  0  0  0  0
    8.8506  -12.5903   20.3524 S   0  0  0  0  0  0  0  0  0  0  0  0
    7.5672  -15.3318   20.2123 C   0  0  0  0  0  0  0  0  0  0  0  0
    6.3982  -15.7738   20.0673 O   0  0  0  0  0  0  0  0  0  0  0  0
    6.7743  -20.0885   22.0999 N   0  0  0  0  0  0  0  0  0  0  0  0
    6.1709  -19.4879   23.2311 C   0  0  0  0  0  0  0  0  0  0  0  0
    5.4832  -20.1911   23.9934 O   0  0  0  0  0  0  0  0  0  0  0  0
    6.3706  -18.0375   23.4806 C   0  0  0  0  0  0  0  0  0  0  0  0
    7.1740  -17.3338   22.4264 C   0  0  0  0  0  0  0  0  0  0  0  0
    7.3735  -15.8744   22.6404 C   0  0  2  0  0  0  0  0  0  0  0  0
    8.0713  -15.2426   21.5330 N   0  0  0  0  0  0  0  0  0  0  0  0
    8.0645  -15.5471   23.9356 C   0  0  0  0  0  0  0  0  0  0  0  0
    8.2716  -14.3642   24.2953 O   0  0  0  0  0  0  0  0  0  0  0  0
    8.5092  -16.5862   24.8023 N   0  0  0  0  0  0  0  0  0  0  0  0
    8.8073  -16.2368   26.1958 C   0  0  1  0  0  0  0  0  0  0  0  0
    7.5046  -15.7623   26.7991 C   0  0  0  0  0  0  0  0  0  0  0  0
    7.2951  -14.3122   26.6142 C   0  0  0  0  0  0  0  0  0  0  0  0
    8.2377  -13.3974   27.0065 C   0  0  0  0  0  0  0  0  0  0  0  0
    8.0010  -12.0569   26.8151 C   0  0  0  0  0  0  0  0  0  0  0  0
    6.8411  -11.5940   26.2386 C   0  0  0  0  0  0  0  0  0  0  0  0
    5.8946  -12.5188   25.8453 C   0  0  0  0  0  0  0  0  0  0  0  0
    6.1290  -13.8584   26.0354 C   0  0  0  0  0  0  0  0  0  0  0  0
    9.4118  -17.3614   26.9140 C   0  0  0  0  0  0  0  0  0  0  0  0
    9.3236  -18.5635   26.5196 O   0  0  0  0  0  0  0  0  0  0  0  0
   10.1285  -17.1784   28.0854 O   0  0  0  0  0  0  0  0  0  0  0  0
  2  1  1  6
  3  2  1  0
  4  3  1  0
  5  2  1  0
  5  6  2  0
  8  7  1  0
  8 10  1  0
  9  8  2  0
 12 11  1  6
 11 10  1  0
 12 13  1  0
 13  5  1  0
 14 12  1  0
 15 14  2  0
 16 14  1  0
 17 16  1  0
 17 25  1  0
 17 18  1  1
 19 24  2  0
 19 18  1  0
 20 19  1  0
 21 22  1  0
 21 20  2  0
 22 23  2  0
 23 24  1  0
 25 27  1  0
 26 25  2  0
M  END
$$$$
