CQF.pdb
     RDKit          3D

 27 27  0  0  1  0  0  0  0  0999 V2000
    4.2757  -18.0276   23.1329 N   0  0  0  0  0  0  0  0  0  0  0  0
    4.8215  -18.4320   21.8587 C   0  0  1  0  0  0  0  0  0  0  0  0
    3.6959  -18.2922   20.8431 C   0  0  0  0  0  0  0  0  0  0  0  0
    2.1308  -18.7715   21.5827 S   0  0  0  0  0  0  0  0  0  0  0  0
    5.9583  -17.5510   21.4509 C   0  0  0  0  0  0  0  0  0  0  0  0
    6.6818  -17.8572   20.4681 O   0  0  0  0  0  0  0  0  0  0  0  0
    7.5395  -12.2325   18.7603 N   0  0  0  0  0  0  0  0  0  0  0  0
    8.4390  -13.1593   19.3402 C   0  0  0  0  0  0  0  0  0  0  0  0
    9.2920  -13.7061   18.6177 O   0  0  0  0  0  0  0  0  0  0  0  0
    8.3439  -13.4578   20.7920 C   0  0  0  0  0  0  0  0  0  0  0  0
    7.1544  -14.2886   21.1755 C   0  0  0  0  0  0  0  0  0  0  0  0
    7.4654  -15.5958   21.8159 C   0  0  2  0  0  0  0  0  0  0  0  0
    6.2677  -16.3526   22.1398 N   0  0  0  0  0  0  0  0  0  0  0  0
    8.3401  -15.4741   23.0335 C   0  0  0  0  0  0  0  0  0  0  0  0
    9.4813  -14.9582   22.9802 O   0  0  0  0  0  0  0  0  0  0  0  0
    7.8903  -15.9483   24.2990 N   0  0  0  0  0  0  0  0  0  0  0  0
    8.8096  -15.8424   25.4376 C   0  0  1  0  0  0  0  0  0  0  0  0
    7.9749  -15.3830   26.6116 C   0  0  0  0  0  0  0  0  0  0  0  0
    7.5002  -13.9935   26.4540 C   0  0  0  0  0  0  0  0  0  0  0  0
    6.1670  -13.6811   26.5199 C   0  0  0  0  0  0  0  0  0  0  0  0
    5.7696  -12.3740   26.3676 C   0  0  0  0  0  0  0  0  0  0  0  0
    6.6693  -11.3567   26.1492 C   0  0  0  0  0  0  0  0  0  0  0  0
    8.0108  -11.6759   26.0835 C   0  0  0  0  0  0  0  0  0  0  0  0
    8.4101  -12.9810   26.2354 C   0  0  0  0  0  0  0  0  0  0  0  0
    9.5157  -17.1034   25.6769 C   0  0  0  0  0  0  0  0  0  0  0  0
   10.2945  -17.2856   26.6611 O   0  0  0  0  0  0  0  0  0  0  0  0
    9.3737  -18.1911   24.8307 O   0  0  0  0  0  0  0  0  0  0  0  0
  2  1  1  1
  3  2  1  0
  4  3  1  0
  5  2  1  0
  5  6  2  0
  8  7  1  0
  8 10  1  0
  9  8  2  0
 12 11  1  1
 11 10  1  0
 12 13  1  0
 13  5  1  0
 14 12  1  0
 15 14  2  0
 16 14  1  0
 17 16  1  0
 17 25  1  0
 17 18  1  1
 19 24  2  0
 19 18  1  0
 20 19  1  0
 21 22  1  0
 21 20  2  0
 22 23  2  0
 23 24  1  0
 25 27  1  0
 26 25  2  0
M  END
$$$$
