CQF.pdb
     RDKit          3D

 27 27  0  0  1  0  0  0  0  0999 V2000
    5.8196  -19.6638   21.1355 N   0  0  0  0  0  0  0  0  0  0  0  0
    6.0246  -18.6654   22.1583 C   0  0  1  0  0  0  0  0  0  0  0  0
    6.2000  -19.4200   23.4690 C   0  0  0  0  0  0  0  0  0  0  0  0
    6.3585  -18.2630   24.8337 S   0  0  0  0  0  0  0  0  0  0  0  0
    7.2550  -17.8594   21.8914 C   0  0  0  0  0  0  0  0  0  0  0  0
    8.2998  -18.4135   21.4621 O   0  0  0  0  0  0  0  0  0  0  0  0
    8.2661  -12.0699   19.7730 N   0  0  0  0  0  0  0  0  0  0  0  0
    8.0104  -13.2731   19.0720 C   0  0  0  0  0  0  0  0  0  0  0  0
    7.7130  -13.2173   17.8650 O   0  0  0  0  0  0  0  0  0  0  0  0
    8.1012  -14.5697   19.7907 C   0  0  0  0  0  0  0  0  0  0  0  0
    8.3929  -14.4442   21.2575 C   0  0  0  0  0  0  0  0  0  0  0  0
    8.5514  -15.7294   21.9915 C   0  0  2  0  0  0  0  0  0  0  0  0
    7.3002  -16.4599   22.1056 N   0  0  0  0  0  0  0  0  0  0  0  0
    9.1786  -15.5712   23.3493 C   0  0  0  0  0  0  0  0  0  0  0  0
   10.3066  -15.0456   23.5006 O   0  0  0  0  0  0  0  0  0  0  0  0
    8.4993  -16.0202   24.5179 N   0  0  0  0  0  0  0  0  0  0  0  0
    9.1537  -15.8119   25.8145 C   0  0  1  0  0  0  0  0  0  0  0  0
    8.0724  -15.3425   26.7615 C   0  0  0  0  0  0  0  0  0  0  0  0
    7.6146  -13.9720   26.4566 C   0  0  0  0  0  0  0  0  0  0  0  0
    8.4540  -12.8945   26.5740 C   0  0  0  0  0  0  0  0  0  0  0  0
    7.9856  -11.6362   26.2796 C   0  0  0  0  0  0  0  0  0  0  0  0
    6.6921  -11.4151   25.8672 C   0  0  0  0  0  0  0  0  0  0  0  0
    5.8504  -12.5031   25.7504 C   0  0  0  0  0  0  0  0  0  0  0  0
    6.3162  -13.7611   26.0438 C   0  0  0  0  0  0  0  0  0  0  0  0
    9.8463  -17.0208   26.2671 C   0  0  0  0  0  0  0  0  0  0  0  0
    9.8507  -18.1046   25.6085 O   0  0  0  0  0  0  0  0  0  0  0  0
   10.5505  -17.0550   27.4597 O   0  0  0  0  0  0  0  0  0  0  0  0
  2  1  1  6
  3  2  1  0
  4  3  1  0
  5  2  1  0
  5  6  2  0
  8  7  1  0
  8 10  1  0
  9  8  2  0
 12 11  1  1
 11 10  1  0
 12 13  1  0
 13  5  1  0
 14 12  1  0
 15 14  2  0
 16 14  1  0
 17 16  1  0
 17 25  1  0
 17 18  1  1
 19 24  2  0
 19 18  1  0
 20 19  1  0
 21 22  1  0
 21 20  2  0
 22 23  2  0
 23 24  1  0
 25 27  1  0
 26 25  2  0
M  END
$$$$
