CQF.pdb
     RDKit          3D

 27 27  0  0  1  0  0  0  0  0999 V2000
    7.4406  -14.4508   17.8007 N   0  0  0  0  0  0  0  0  0  0  0  0
    8.2344  -14.0444   18.9364 C   0  0  1  0  0  0  0  0  0  0  0  0
    7.7329  -12.6654   19.3422 C   0  0  0  0  0  0  0  0  0  0  0  0
    8.5864  -12.1058   20.8202 S   0  0  0  0  0  0  0  0  0  0  0  0
    8.0594  -14.9845   20.0855 C   0  0  0  0  0  0  0  0  0  0  0  0
    6.9251  -15.4570   20.3559 O   0  0  0  0  0  0  0  0  0  0  0  0
   11.2646  -19.9605   20.8808 N   0  0  0  0  0  0  0  0  0  0  0  0
   10.4283  -20.0314   22.0210 C   0  0  0  0  0  0  0  0  0  0  0  0
   10.3737  -21.0950   22.6647 O   0  0  0  0  0  0  0  0  0  0  0  0
    9.6372  -18.8397   22.4207 C   0  0  0  0  0  0  0  0  0  0  0  0
    9.7634  -17.6722   21.4864 C   0  0  0  0  0  0  0  0  0  0  0  0
    8.9927  -16.4580   21.8703 C   0  0  2  0  0  0  0  0  0  0  0  0
    9.1431  -15.3794   20.9078 N   0  0  0  0  0  0  0  0  0  0  0  0
    9.3095  -15.9590   23.2533 C   0  0  0  0  0  0  0  0  0  0  0  0
   10.3316  -15.2736   23.4922 O   0  0  0  0  0  0  0  0  0  0  0  0
    8.4451  -16.2550   24.3460 N   0  0  0  0  0  0  0  0  0  0  0  0
    8.8833  -15.8685   25.6918 C   0  0  1  0  0  0  0  0  0  0  0  0
    7.6281  -15.5225   26.4605 C   0  0  0  0  0  0  0  0  0  0  0  0
    7.3055  -14.0831   26.3910 C   0  0  0  0  0  0  0  0  0  0  0  0
    8.2719  -13.1246   26.5540 C   0  0  0  0  0  0  0  0  0  0  0  0
    7.9268  -11.7959   26.4814 C   0  0  0  0  0  0  0  0  0  0  0  0
    6.6340  -11.3877   26.2489 C   0  0  0  0  0  0  0  0  0  0  0  0
    5.6641  -12.3564   26.0853 C   0  0  0  0  0  0  0  0  0  0  0  0
    6.0066  -13.6842   26.1574 C   0  0  0  0  0  0  0  0  0  0  0  0
    9.6844  -16.9222   26.3193 C   0  0  0  0  0  0  0  0  0  0  0  0
    9.6619  -18.1310   25.9361 O   0  0  0  0  0  0  0  0  0  0  0  0
   10.5294  -16.6594   27.3853 O   0  0  0  0  0  0  0  0  0  0  0  0
  2  1  1  6
  3  2  1  0
  4  3  1  0
  5  2  1  0
  5  6  2  0
  8  7  1  0
  8 10  1  0
  9  8  2  0
 12 11  1  6
 11 10  1  0
 12 13  1  0
 13  5  1  0
 14 12  1  0
 15 14  2  0
 16 14  1  0
 17 16  1  0
 17 25  1  0
 17 18  1  1
 19 24  2  0
 19 18  1  0
 20 19  1  0
 21 22  1  0
 21 20  2  0
 22 23  2  0
 23 24  1  0
 25 27  1  0
 26 25  2  0
M  END
$$$$
