CQF.pdb
     RDKit          3D

 27 27  0  0  1  0  0  0  0  0999 V2000
    7.5421  -14.2813   17.4454 N   0  0  0  0  0  0  0  0  0  0  0  0
    8.4573  -14.0615   18.5405 C   0  0  1  0  0  0  0  0  0  0  0  0
    8.3509  -12.5865   18.9024 C   0  0  0  0  0  0  0  0  0  0  0  0
    9.4996  -12.1885   20.2246 S   0  0  0  0  0  0  0  0  0  0  0  0
    8.0855  -14.8841   19.7321 C   0  0  0  0  0  0  0  0  0  0  0  0
    6.9057  -14.8769   20.1691 O   0  0  0  0  0  0  0  0  0  0  0  0
    8.7565  -20.6829   20.6511 N   0  0  0  0  0  0  0  0  0  0  0  0
    7.8828  -19.8766   19.8824 C   0  0  0  0  0  0  0  0  0  0  0  0
    7.1670  -20.4154   19.0186 O   0  0  0  0  0  0  0  0  0  0  0  0
    7.8413  -18.4115   20.1224 C   0  0  0  0  0  0  0  0  0  0  0  0
    8.6744  -17.9515   21.2828 C   0  0  0  0  0  0  0  0  0  0  0  0
    8.6325  -16.4901   21.5622 C   0  0  2  0  0  0  0  0  0  0  0  0
    9.0275  -15.6948   20.4117 N   0  0  0  0  0  0  0  0  0  0  0  0
    9.4387  -16.0862   22.7660 C   0  0  0  0  0  0  0  0  0  0  0  0
   10.6852  -15.9624   22.7171 O   0  0  0  0  0  0  0  0  0  0  0  0
    8.7999  -15.8295   24.0129 N   0  0  0  0  0  0  0  0  0  0  0  0
    9.6514  -15.5893   25.1834 C   0  0  1  0  0  0  0  0  0  0  0  0
    9.6352  -14.0955   25.4167 C   0  0  0  0  0  0  0  0  0  0  0  0
    8.2932  -13.5982   25.7807 C   0  0  0  0  0  0  0  0  0  0  0  0
    7.9790  -13.2674   27.0735 C   0  0  0  0  0  0  0  0  0  0  0  0
    6.7171  -12.8082   27.3673 C   0  0  0  0  0  0  0  0  0  0  0  0
    5.7472  -12.6668   26.4023 C   0  0  0  0  0  0  0  0  0  0  0  0
    6.0679  -13.0011   25.1018 C   0  0  0  0  0  0  0  0  0  0  0  0
    7.3279  -13.4599   24.8060 C   0  0  0  0  0  0  0  0  0  0  0  0
    9.2061  -16.3692   26.3407 C   0  0  0  0  0  0  0  0  0  0  0  0
    8.1531  -17.0761   26.3365 O   0  0  0  0  0  0  0  0  0  0  0  0
    9.9189  -16.3839   27.5286 O   0  0  0  0  0  0  0  0  0  0  0  0
  2  1  1  6
  3  2  1  0
  4  3  1  0
  5  2  1  0
  5  6  2  0
  8  7  1  0
  8 10  1  0
  9  8  2  0
 12 11  1  6
 11 10  1  0
 12 13  1  0
 13  5  1  0
 14 12  1  0
 15 14  2  0
 16 14  1  0
 17 16  1  0
 17 25  1  0
 17 18  1  1
 19 24  2  0
 19 18  1  0
 20 19  1  0
 21 22  1  0
 21 20  2  0
 22 23  2  0
 23 24  1  0
 25 27  1  0
 26 25  2  0
M  END
$$$$
