CQF.pdb
     RDKit          3D

 27 27  0  0  1  0  0  0  0  0999 V2000
    9.5398  -13.8904   18.9085 N   0  0  0  0  0  0  0  0  0  0  0  0
    8.4095  -13.6607   19.7772 C   0  0  1  0  0  0  0  0  0  0  0  0
    7.2118  -13.4123   18.8706 C   0  0  0  0  0  0  0  0  0  0  0  0
    7.7285  -12.5457   17.3847 S   0  0  0  0  0  0  0  0  0  0  0  0
    8.1327  -14.8534   20.6349 C   0  0  0  0  0  0  0  0  0  0  0  0
    7.1182  -14.8827   21.3785 O   0  0  0  0  0  0  0  0  0  0  0  0
    9.7528  -19.7802   18.5421 N   0  0  0  0  0  0  0  0  0  0  0  0
   10.8305  -19.2540   19.2944 C   0  0  0  0  0  0  0  0  0  0  0  0
   11.9899  -19.3843   18.8613 O   0  0  0  0  0  0  0  0  0  0  0  0
   10.5542  -18.5621   20.5793 C   0  0  0  0  0  0  0  0  0  0  0  0
    9.0958  -18.4143   20.9004 C   0  0  0  0  0  0  0  0  0  0  0  0
    8.7036  -17.1172   21.5165 C   0  0  2  0  0  0  0  0  0  0  0  0
    8.9846  -15.9850   20.6496 N   0  0  0  0  0  0  0  0  0  0  0  0
    9.3130  -16.8886   22.8724 C   0  0  0  0  0  0  0  0  0  0  0  0
   10.4196  -16.3166   23.0132 O   0  0  0  0  0  0  0  0  0  0  0  0
    8.6408  -17.3214   24.0512 N   0  0  0  0  0  0  0  0  0  0  0  0
    8.5055  -16.3639   25.1546 C   0  0  1  0  0  0  0  0  0  0  0  0
    7.8668  -15.1274   24.5636 C   0  0  0  0  0  0  0  0  0  0  0  0
    7.4731  -14.1494   25.5977 C   0  0  0  0  0  0  0  0  0  0  0  0
    6.1576  -13.8360   25.8221 C   0  0  0  0  0  0  0  0  0  0  0  0
    5.8364  -12.9198   26.7953 C   0  0  0  0  0  0  0  0  0  0  0  0
    6.7960  -12.2990   27.5607 C   0  0  0  0  0  0  0  0  0  0  0  0
    8.1195  -12.6177   27.3312 C   0  0  0  0  0  0  0  0  0  0  0  0
    8.4426  -13.5327   26.3596 C   0  0  0  0  0  0  0  0  0  0  0  0
    7.7524  -16.9363   26.2732 C   0  0  0  0  0  0  0  0  0  0  0  0
    8.0895  -16.7831   27.4862 O   0  0  0  0  0  0  0  0  0  0  0  0
    6.6080  -17.6908   26.0721 O   0  0  0  0  0  0  0  0  0  0  0  0
  2  1  1  6
  3  2  1  0
  4  3  1  0
  5  2  1  0
  5  6  2  0
  8  7  1  0
  8 10  1  0
  9  8  2  0
 12 11  1  6
 11 10  1  0
 12 13  1  0
 13  5  1  0
 14 12  1  0
 15 14  2  0
 16 14  1  0
 17 16  1  0
 17 25  1  0
 17 18  1  6
 19 24  2  0
 19 18  1  0
 20 19  1  0
 21 22  1  0
 21 20  2  0
 22 23  2  0
 23 24  1  0
 25 27  1  0
 26 25  2  0
M  END
$$$$
