CQF.pdb
     RDKit          3D

 27 27  0  0  1  0  0  0  0  0999 V2000
    6.1084  -18.4542   21.6182 N   0  0  0  0  0  0  0  0  0  0  0  0
    6.6533  -17.5204   22.5754 C   0  0  1  0  0  0  0  0  0  0  0  0
    5.8668  -17.7153   23.8644 C   0  0  0  0  0  0  0  0  0  0  0  0
    6.4683  -16.5948   25.1328 S   0  0  0  0  0  0  0  0  0  0  0  0
    8.0987  -17.7953   22.8399 C   0  0  0  0  0  0  0  0  0  0  0  0
    8.4918  -18.9661   23.0798 O   0  0  0  0  0  0  0  0  0  0  0  0
   13.0814  -16.0084   19.8318 N   0  0  0  0  0  0  0  0  0  0  0  0
   12.2424  -14.9912   20.3475 C   0  0  0  0  0  0  0  0  0  0  0  0
   12.3019  -13.8508   19.8531 O   0  0  0  0  0  0  0  0  0  0  0  0
   11.3147  -15.3068   21.4636 C   0  0  0  0  0  0  0  0  0  0  0  0
   11.3318  -16.7444   21.8939 C   0  0  0  0  0  0  0  0  0  0  0  0
   10.4765  -17.0724   23.0670 C   0  0  2  0  0  0  0  0  0  0  0  0
    9.0747  -16.7687   22.8325 N   0  0  0  0  0  0  0  0  0  0  0  0
   10.9352  -16.4234   24.3440 C   0  0  0  0  0  0  0  0  0  0  0  0
   12.1289  -16.4774   24.7226 O   0  0  0  0  0  0  0  0  0  0  0  0
   10.0134  -15.7192   25.1705 N   0  0  0  0  0  0  0  0  0  0  0  0
   10.4877  -15.2403   26.4738 C   0  0  1  0  0  0  0  0  0  0  0  0
   10.0877  -13.7847   26.5588 C   0  0  0  0  0  0  0  0  0  0  0  0
    8.6347  -13.5899   26.3807 C   0  0  0  0  0  0  0  0  0  0  0  0
    8.0815  -13.4293   25.1367 C   0  0  0  0  0  0  0  0  0  0  0  0
    6.7237  -13.2509   25.0175 C   0  0  0  0  0  0  0  0  0  0  0  0
    5.8903  -13.2272   26.1115 C   0  0  0  0  0  0  0  0  0  0  0  0
    6.4517  -13.3893   27.3622 C   0  0  0  0  0  0  0  0  0  0  0  0
    7.8078  -13.5677   27.4837 C   0  0  0  0  0  0  0  0  0  0  0  0
    9.9633  -16.0583   27.5700 C   0  0  0  0  0  0  0  0  0  0  0  0
    9.1530  -17.0177   27.3926 O   0  0  0  0  0  0  0  0  0  0  0  0
   10.3263  -15.8318   28.8877 O   0  0  0  0  0  0  0  0  0  0  0  0
  2  1  1  6
  3  2  1  0
  4  3  1  0
  5  2  1  0
  5  6  2  0
  8  7  1  0
  8 10  1  0
  9  8  2  0
 12 11  1  6
 11 10  1  0
 12 13  1  0
 13  5  1  0
 14 12  1  0
 15 14  2  0
 16 14  1  0
 17 16  1  0
 17 25  1  0
 17 18  1  1
 19 24  2  0
 19 18  1  0
 20 19  1  0
 21 22  1  0
 21 20  2  0
 22 23  2  0
 23 24  1  0
 25 27  1  0
 26 25  2  0
M  END
$$$$
