CQF.pdb
     RDKit          3D

 27 27  0  0  1  0  0  0  0  0999 V2000
    7.1853  -14.7651   18.0182 N   0  0  0  0  0  0  0  0  0  0  0  0
    8.2333  -14.3629   18.9266 C   0  0  1  0  0  0  0  0  0  0  0  0
    7.9285  -12.9264   19.3283 C   0  0  0  0  0  0  0  0  0  0  0  0
    9.0781  -12.3801   20.5957 S   0  0  0  0  0  0  0  0  0  0  0  0
    8.2479  -15.2193   20.1518 C   0  0  0  0  0  0  0  0  0  0  0  0
    7.1697  -15.5943   20.6808 O   0  0  0  0  0  0  0  0  0  0  0  0
   11.3098  -20.3366   20.8636 N   0  0  0  0  0  0  0  0  0  0  0  0
   10.7230  -20.2236   22.1470 C   0  0  0  0  0  0  0  0  0  0  0  0
   10.7322  -21.2110   22.9043 O   0  0  0  0  0  0  0  0  0  0  0  0
   10.1109  -18.9344   22.5584 C   0  0  0  0  0  0  0  0  0  0  0  0
   10.0746  -17.8945   21.4771 C   0  0  0  0  0  0  0  0  0  0  0  0
    9.4414  -16.6009   21.8531 C   0  0  2  0  0  0  0  0  0  0  0  0
    9.4547  -15.6402   20.7626 N   0  0  0  0  0  0  0  0  0  0  0  0
   10.0321  -15.9811   23.0897 C   0  0  0  0  0  0  0  0  0  0  0  0
   11.1527  -15.4194   23.0784 O   0  0  0  0  0  0  0  0  0  0  0  0
    9.3251  -16.0154   24.3257 N   0  0  0  0  0  0  0  0  0  0  0  0
   10.0107  -15.5148   25.5224 C   0  0  1  0  0  0  0  0  0  0  0  0
    9.9097  -14.0073   25.4663 C   0  0  0  0  0  0  0  0  0  0  0  0
    8.5390  -13.5258   25.7313 C   0  0  0  0  0  0  0  0  0  0  0  0
    7.5128  -13.7710   24.8561 C   0  0  0  0  0  0  0  0  0  0  0  0
    6.2521  -13.3040   25.1429 C   0  0  0  0  0  0  0  0  0  0  0  0
    5.9788  -12.5920   26.2876 C   0  0  0  0  0  0  0  0  0  0  0  0
    7.0152  -12.3473   27.1661 C   0  0  0  0  0  0  0  0  0  0  0  0
    8.2753  -12.8130   26.8816 C   0  0  0  0  0  0  0  0  0  0  0  0
    9.4506  -16.0958   26.7449 C   0  0  0  0  0  0  0  0  0  0  0  0
    8.4871  -16.9205   26.7421 O   0  0  0  0  0  0  0  0  0  0  0  0
    9.9467  -15.7762   27.9984 O   0  0  0  0  0  0  0  0  0  0  0  0
  2  1  1  6
  3  2  1  0
  4  3  1  0
  5  2  1  0
  5  6  2  0
  8  7  1  0
  8 10  1  0
  9  8  2  0
 12 11  1  6
 11 10  1  0
 12 13  1  0
 13  5  1  0
 14 12  1  0
 15 14  2  0
 16 14  1  0
 17 16  1  0
 17 25  1  0
 17 18  1  1
 19 24  2  0
 19 18  1  0
 20 19  1  0
 21 22  1  0
 21 20  2  0
 22 23  2  0
 23 24  1  0
 25 27  1  0
 26 25  2  0
M  END
$$$$
