CQF.pdb
     RDKit          3D

 27 27  0  0  1  0  0  0  0  0999 V2000
    7.9744  -14.5133   16.9388 N   0  0  0  0  0  0  0  0  0  0  0  0
    8.5179  -13.8424   18.0962 C   0  0  1  0  0  0  0  0  0  0  0  0
    7.3568  -13.1121   18.7567 C   0  0  0  0  0  0  0  0  0  0  0  0
    7.8472  -12.5028   20.3736 S   0  0  0  0  0  0  0  0  0  0  0  0
    9.0957  -14.8198   19.0687 C   0  0  0  0  0  0  0  0  0  0  0  0
    8.6306  -15.9857   19.1538 O   0  0  0  0  0  0  0  0  0  0  0  0
   14.7550  -16.4805   19.6330 N   0  0  0  0  0  0  0  0  0  0  0  0
   14.3815  -15.1169   19.5599 C   0  0  0  0  0  0  0  0  0  0  0  0
   15.2178  -14.2816   19.1705 O   0  0  0  0  0  0  0  0  0  0  0  0
   13.0056  -14.7154   19.9492 C   0  0  0  0  0  0  0  0  0  0  0  0
   12.1412  -15.8481   20.4202 C   0  0  0  0  0  0  0  0  0  0  0  0
   10.7549  -15.4754   20.8138 C   0  0  2  0  0  0  0  0  0  0  0  0
   10.1741  -14.4841   19.9237 N   0  0  0  0  0  0  0  0  0  0  0  0
   10.6400  -15.0136   22.2405 C   0  0  0  0  0  0  0  0  0  0  0  0
   11.0652  -13.8938   22.6104 O   0  0  0  0  0  0  0  0  0  0  0  0
   10.0366  -15.8469   23.2255 N   0  0  0  0  0  0  0  0  0  0  0  0
    9.5378  -15.2110   24.4500 C   0  0  1  0  0  0  0  0  0  0  0  0
    8.4505  -14.2545   24.0152 C   0  0  0  0  0  0  0  0  0  0  0  0
    7.8193  -13.5643   25.1581 C   0  0  0  0  0  0  0  0  0  0  0  0
    8.4928  -12.6137   25.8805 C   0  0  0  0  0  0  0  0  0  0  0  0
    7.8663  -11.9963   26.9369 C   0  0  0  0  0  0  0  0  0  0  0  0
    6.5748  -12.3000   27.3002 C   0  0  0  0  0  0  0  0  0  0  0  0
    5.9004  -13.2579   26.5699 C   0  0  0  0  0  0  0  0  0  0  0  0
    6.5243  -13.8759   25.5142 C   0  0  0  0  0  0  0  0  0  0  0  0
    9.0885  -16.2057   25.4272 C   0  0  0  0  0  0  0  0  0  0  0  0
    8.4141  -17.2322   25.1112 O   0  0  0  0  0  0  0  0  0  0  0  0
    9.3778  -16.0851   26.7767 O   0  0  0  0  0  0  0  0  0  0  0  0
  2  1  1  6
  3  2  1  0
  4  3  1  0
  5  2  1  0
  5  6  2  0
  8  7  1  0
  8 10  1  0
  9  8  2  0
 12 11  1  6
 11 10  1  0
 12 13  1  0
 13  5  1  0
 14 12  1  0
 15 14  2  0
 16 14  1  0
 17 16  1  0
 17 25  1  0
 17 18  1  6
 19 24  2  0
 19 18  1  0
 20 19  1  0
 21 22  1  0
 21 20  2  0
 22 23  2  0
 23 24  1  0
 25 27  1  0
 26 25  2  0
M  END
$$$$
