CQF.pdb
     RDKit          3D

 27 27  0  0  1  0  0  0  0  0999 V2000
    3.9228  -16.9135   22.4614 N   0  0  0  0  0  0  0  0  0  0  0  0
    4.6830  -18.0454   21.9860 C   0  0  1  0  0  0  0  0  0  0  0  0
    4.1137  -18.4048   20.6205 C   0  0  0  0  0  0  0  0  0  0  0  0
    2.3964  -17.8903   20.5101 S   0  0  0  0  0  0  0  0  0  0  0  0
    6.1304  -17.7029   21.8361 C   0  0  0  0  0  0  0  0  0  0  0  0
    6.9618  -18.5827   21.4932 O   0  0  0  0  0  0  0  0  0  0  0  0
    7.4681  -12.5292   18.8607 N   0  0  0  0  0  0  0  0  0  0  0  0
    7.6910  -13.9272   18.8819 C   0  0  0  0  0  0  0  0  0  0  0  0
    8.2345  -14.4670   17.9012 O   0  0  0  0  0  0  0  0  0  0  0  0
    7.2716  -14.7149   20.0691 C   0  0  0  0  0  0  0  0  0  0  0  0
    8.4015  -15.1331   20.9639 C   0  0  0  0  0  0  0  0  0  0  0  0
    8.0494  -16.1184   22.0226 C   0  0  2  0  0  0  0  0  0  0  0  0
    6.6234  -16.3955   22.0691 N   0  0  0  0  0  0  0  0  0  0  0  0
    8.5413  -15.7309   23.3901 C   0  0  0  0  0  0  0  0  0  0  0  0
    8.8273  -14.5453   23.6797 O   0  0  0  0  0  0  0  0  0  0  0  0
    8.6983  -16.7138   24.4090 N   0  0  0  0  0  0  0  0  0  0  0  0
    8.6179  -16.2727   25.8060 C   0  0  1  0  0  0  0  0  0  0  0  0
    7.1964  -15.8032   26.0184 C   0  0  0  0  0  0  0  0  0  0  0  0
    7.1119  -14.3435   26.2259 C   0  0  0  0  0  0  0  0  0  0  0  0
    8.2297  -13.5908   26.4778 C   0  0  0  0  0  0  0  0  0  0  0  0
    8.1046  -12.2347   26.6647 C   0  0  0  0  0  0  0  0  0  0  0  0
    6.8868  -11.5977   26.6079 C   0  0  0  0  0  0  0  0  0  0  0  0
    5.7639  -12.3597   26.3540 C   0  0  0  0  0  0  0  0  0  0  0  0
    5.8865  -13.7145   26.1669 C   0  0  0  0  0  0  0  0  0  0  0  0
    9.0300  -17.3333   26.7287 C   0  0  0  0  0  0  0  0  0  0  0  0
    9.5252  -17.1024   27.8732 O   0  0  0  0  0  0  0  0  0  0  0  0
    8.9015  -18.6739   26.4036 O   0  0  0  0  0  0  0  0  0  0  0  0
  2  1  1  6
  3  2  1  0
  4  3  1  0
  5  2  1  0
  5  6  2  0
  8  7  1  0
  8 10  1  0
  9  8  2  0
 12 11  1  6
 11 10  1  0
 12 13  1  0
 13  5  1  0
 14 12  1  0
 15 14  2  0
 16 14  1  0
 17 16  1  0
 17 25  1  0
 17 18  1  1
 19 24  2  0
 19 18  1  0
 20 19  1  0
 21 22  1  0
 21 20  2  0
 22 23  2  0
 23 24  1  0
 25 27  1  0
 26 25  2  0
M  END
$$$$
