RYF.pdb
     RDKit          3D

 35 36  0  0  1  0  0  0  0  0999 V2000
   19.2777  -20.1333  -15.2755 N   0  0  0  0  0  0  0  0  0  0  0  0
   19.0788  -18.9140  -14.5873 C   0  0  0  0  0  0  0  0  0  0  0  0
   17.9212  -18.5077  -14.2548 N   0  0  0  0  0  0  0  0  0  0  0  0
   20.2033  -18.0891  -14.2405 N   0  0  0  0  0  0  0  0  0  0  0  0
   21.5167  -18.6842  -14.1693 C   0  0  0  0  0  0  0  0  0  0  0  0
   21.3872  -20.0831  -13.6274 C   0  0  0  0  0  0  0  0  0  0  0  0
   22.5047  -20.4556  -12.7114 C   0  0  0  0  0  0  0  0  0  0  0  0
   23.7161  -20.8102  -13.5086 C   0  0  2  0  0  0  0  0  0  0  0  0
   23.3472  -21.8607  -14.4503 N   0  0  0  0  0  0  0  0  0  0  0  0
   24.8216  -21.3230  -12.6248 C   0  0  0  0  0  0  0  0  0  0  0  0
   24.6713  -22.3674  -11.9389 O   0  0  0  0  0  0  0  0  0  0  0  0
   17.7514  -17.6332  -13.7252 O   0  0  0  0  0  0  0  0  0  0  0  0
   33.0014  -22.4048   -9.2277 C   0  0  0  0  0  0  0  0  0  0  0  0
   31.8856  -22.0235   -9.9429 C   0  0  0  0  0  0  0  0  0  0  0  0
   31.0726  -22.8976  -10.5928 C   0  0  0  0  0  0  0  0  0  0  0  0
   29.9555  -22.4876  -11.3057 C   0  0  0  0  0  0  0  0  0  0  0  0
   29.6257  -21.1509  -11.3801 C   0  0  0  0  0  0  0  0  0  0  0  0
   28.4513  -20.7167  -12.1262 C   0  0  2  0  0  0  0  0  0  0  0  0
   27.1079  -21.1267  -11.6036 N   0  0  0  0  0  0  0  0  0  0  0  0
   26.0646  -20.6591  -12.5287 C   0  0  0  0  0  0  0  0  0  0  0  0
   26.8004  -20.7082  -10.2322 O   0  0  0  0  0  0  0  0  0  0  0  0
   26.1807  -19.5837  -10.0832 C   0  0  0  0  0  0  0  0  0  0  0  0
   30.4697  -20.2636  -10.7077 C   0  0  0  0  0  0  0  0  0  0  0  0
   31.5739  -20.6799  -10.0043 N   0  0  0  0  0  0  0  0  0  0  0  0
   27.0789  -21.3678   -9.0247 C   0  0  2  0  0  0  0  0  0  0  0  0
   27.0036  -20.7036   -7.7298 C   0  0  0  0  0  0  0  0  0  0  0  0
   28.1459  -21.2492   -6.9104 C   0  0  0  0  0  0  0  0  0  0  0  0
   28.3396  -20.5451   -5.6337 C   0  0  0  0  0  0  0  0  0  0  0  0
   27.5680  -20.9426   -4.5602 C   0  0  0  0  0  0  0  0  0  0  0  0
   27.7119  -20.3102   -3.3302 C   0  0  0  0  0  0  0  0  0  0  0  0
   28.6097  -19.2982   -3.1722 C   0  0  0  0  0  0  0  0  0  0  0  0
   29.3869  -18.8804   -4.2090 C   0  0  0  0  0  0  0  0  0  0  0  0
   29.2318  -19.5235   -5.4358 C   0  0  0  0  0  0  0  0  0  0  0  0
   27.2187  -19.2679   -7.8718 O   0  0  0  0  0  0  0  0  0  0  0  0
   28.1697  -18.8945   -8.6400 O   0  0  0  0  0  0  0  0  0  0  0  0
  2  3  2  0
  2  1  1  0
  4  2  1  0
  5  4  1  0
  6  7  1  0
  6  5  1  0
  7  8  1  0
  8 10  1  0
  8  9  1  6
 10 19  1  0
 10 11  2  0
 12 13  1  0
 13 14  2  0
 14 15  1  0
 16 17  1  0
 16 15  2  0
 18 17  1  6
 18 20  1  0
 19 18  1  0
 20 21  2  0
 22 16  1  0
 23 22  2  0
 23 13  1  0
 24 20  1  0
 24 25  1  0
 25 33  1  0
 25 26  1  1
 27 26  1  0
 27 32  1  0
 28 27  2  0
 29 28  1  0
 29 30  2  0
 30 31  1  0
 31 32  2  0
 33 35  1  0
 34 33  2  0
M  END
$$$$
