RYF.pdb
     RDKit          3D

 35 36  0  0  1  0  0  0  0  0999 V2000
   31.1024  -22.8520  -18.6493 N   0  0  0  0  0  0  0  0  0  0  0  0
   30.9134  -22.1345  -19.8532 C   0  0  0  0  0  0  0  0  0  0  0  0
   31.7562  -22.1769  -20.8037 N   0  0  0  0  0  0  0  0  0  0  0  0
   29.7403  -21.3244  -20.0341 N   0  0  0  0  0  0  0  0  0  0  0  0
   28.7668  -21.2491  -18.9707 C   0  0  0  0  0  0  0  0  0  0  0  0
   27.6517  -22.2175  -19.2638 C   0  0  0  0  0  0  0  0  0  0  0  0
   26.6054  -22.2360  -18.2001 C   0  0  0  0  0  0  0  0  0  0  0  0
   27.2243  -22.5843  -16.8869 C   0  0  2  0  0  0  0  0  0  0  0  0
   27.7751  -23.9308  -16.9886 N   0  0  0  0  0  0  0  0  0  0  0  0
   26.2051  -22.5639  -15.7793 C   0  0  0  0  0  0  0  0  0  0  0  0
   25.2866  -23.4227  -15.7279 O   0  0  0  0  0  0  0  0  0  0  0  0
   31.7203  -21.5517  -21.6294 O   0  0  0  0  0  0  0  0  0  0  0  0
   22.6509  -20.5821   -7.8167 C   0  0  0  0  0  0  0  0  0  0  0  0
   23.4327  -20.6405   -8.9512 C   0  0  0  0  0  0  0  0  0  0  0  0
   24.6604  -21.2226   -8.9909 C   0  0  0  0  0  0  0  0  0  0  0  0
   25.4270  -21.2679  -10.1460 C   0  0  0  0  0  0  0  0  0  0  0  0
   24.9588  -20.7120  -11.3177 C   0  0  0  0  0  0  0  0  0  0  0  0
   25.7606  -20.7599  -12.5340 C   0  0  2  0  0  0  0  0  0  0  0  0
   25.2491  -21.5947  -13.6685 N   0  0  0  0  0  0  0  0  0  0  0  0
   26.2361  -21.5879  -14.7588 C   0  0  0  0  0  0  0  0  0  0  0  0
   23.9216  -21.2364  -14.1782 O   0  0  0  0  0  0  0  0  0  0  0  0
   23.8316  -20.1563  -14.8825 C   0  0  0  0  0  0  0  0  0  0  0  0
   23.6960  -20.1172  -11.2629 C   0  0  0  0  0  0  0  0  0  0  0  0
   22.9445  -20.0775  -10.1135 N   0  0  0  0  0  0  0  0  0  0  0  0
   22.7023  -21.9135  -14.0180 C   0  0  1  0  0  0  0  0  0  0  0  0
   21.4111  -21.2607  -14.1912 C   0  0  0  0  0  0  0  0  0  0  0  0
   20.8320  -21.8073  -15.4717 C   0  0  0  0  0  0  0  0  0  0  0  0
   21.4709  -21.2670  -16.6813 C   0  0  0  0  0  0  0  0  0  0  0  0
   20.9771  -20.0832  -17.1914 C   0  0  0  0  0  0  0  0  0  0  0  0
   21.5453  -19.5289  -18.3331 C   0  0  0  0  0  0  0  0  0  0  0  0
   22.5885  -20.1440  -18.9564 C   0  0  0  0  0  0  0  0  0  0  0  0
   23.1008  -21.3123  -18.4810 C   0  0  0  0  0  0  0  0  0  0  0  0
   22.5212  -21.8561  -17.3360 C   0  0  0  0  0  0  0  0  0  0  0  0
   20.4990  -21.6244  -13.1127 O   0  0  0  0  0  0  0  0  0  0  0  0
   19.3440  -21.0767  -13.1169 O   0  0  0  0  0  0  0  0  0  0  0  0
  2  3  2  0
  2  1  1  0
  4  2  1  0
  5  4  1  0
  6  7  1  0
  6  5  1  0
  7  8  1  0
  8 10  1  0
  8  9  1  6
 10 19  1  0
 10 11  2  0
 12 13  1  0
 13 14  2  0
 14 15  1  0
 16 17  1  0
 16 15  2  0
 18 17  1  1
 18 20  1  0
 19 18  1  0
 20 21  2  0
 22 16  1  0
 23 22  2  0
 23 13  1  0
 24 20  1  0
 24 25  1  0
 25 33  1  0
 25 26  1  1
 27 26  1  0
 27 32  1  0
 28 27  2  0
 29 28  1  0
 29 30  2  0
 30 31  1  0
 31 32  2  0
 33 35  1  0
 34 33  2  0
M  END
$$$$
