RYF.pdb
     RDKit          3D

 35 36  0  0  1  0  0  0  0  0999 V2000
   31.1179  -19.3386  -19.5130 N   0  0  0  0  0  0  0  0  0  0  0  0
   30.6743  -20.6719  -19.6725 C   0  0  0  0  0  0  0  0  0  0  0  0
   31.4798  -21.6550  -19.6791 N   0  0  0  0  0  0  0  0  0  0  0  0
   29.2740  -20.9523  -19.8340 N   0  0  0  0  0  0  0  0  0  0  0  0
   28.3363  -19.8552  -19.8671 C   0  0  0  0  0  0  0  0  0  0  0  0
   26.9554  -20.4039  -20.1108 C   0  0  0  0  0  0  0  0  0  0  0  0
   26.1633  -20.5585  -18.8558 C   0  0  0  0  0  0  0  0  0  0  0  0
   26.8312  -21.5425  -17.9533 C   0  0  2  0  0  0  0  0  0  0  0  0
   26.7566  -22.8565  -18.5813 N   0  0  0  0  0  0  0  0  0  0  0  0
   26.1461  -21.6096  -16.6146 C   0  0  0  0  0  0  0  0  0  0  0  0
   25.0851  -22.2691  -16.4618 O   0  0  0  0  0  0  0  0  0  0  0  0
   31.1876  -22.6338  -19.8540 O   0  0  0  0  0  0  0  0  0  0  0  0
   24.9986  -20.5085   -7.7908 C   0  0  0  0  0  0  0  0  0  0  0  0
   25.4741  -20.5176   -9.0853 C   0  0  0  0  0  0  0  0  0  0  0  0
   25.7195  -19.3913   -9.8055 C   0  0  0  0  0  0  0  0  0  0  0  0
   26.1981  -19.4282  -11.1069 C   0  0  0  0  0  0  0  0  0  0  0  0
   26.4460  -20.6348  -11.7264 C   0  0  0  0  0  0  0  0  0  0  0  0
   26.9512  -20.6773  -13.0930 C   0  0  1  0  0  0  0  0  0  0  0  0
   25.9761  -21.0074  -14.1820 N   0  0  0  0  0  0  0  0  0  0  0  0
   26.6606  -20.9405  -15.4821 C   0  0  0  0  0  0  0  0  0  0  0  0
   24.7500  -20.2035  -14.2078 O   0  0  0  0  0  0  0  0  0  0  0  0
   24.7432  -19.1617  -14.9728 C   0  0  0  0  0  0  0  0  0  0  0  0
   26.1895  -21.7842  -10.9749 C   0  0  0  0  0  0  0  0  0  0  0  0
   25.7154  -21.7369   -9.6864 N   0  0  0  0  0  0  0  0  0  0  0  0
   23.5471  -20.4060  -13.5130 C   0  0  1  0  0  0  0  0  0  0  0  0
   22.2739  -19.8636  -13.9693 C   0  0  0  0  0  0  0  0  0  0  0  0
   22.3360  -19.8558  -15.4760 C   0  0  0  0  0  0  0  0  0  0  0  0
   21.1301  -19.3008  -16.1091 C   0  0  0  0  0  0  0  0  0  0  0  0
   20.1820  -20.1916  -16.5708 C   0  0  0  0  0  0  0  0  0  0  0  0
   19.0231  -19.7194  -17.1772 C   0  0  0  0  0  0  0  0  0  0  0  0
   18.8123  -18.3815  -17.3213 C   0  0  0  0  0  0  0  0  0  0  0  0
   19.7258  -17.4747  -16.8778 C   0  0  0  0  0  0  0  0  0  0  0  0
   20.8824  -17.9625  -16.2721 C   0  0  0  0  0  0  0  0  0  0  0  0
   21.1717  -20.7385  -13.5853 O   0  0  0  0  0  0  0  0  0  0  0  0
   21.4219  -21.9895  -13.5043 O   0  0  0  0  0  0  0  0  0  0  0  0
  2  3  2  0
  2  1  1  0
  4  2  1  0
  5  4  1  0
  6  7  1  0
  6  5  1  0
  7  8  1  0
  8 10  1  0
  8  9  1  6
 10 19  1  0
 10 11  2  0
 12 13  1  0
 13 14  2  0
 14 15  1  0
 16 17  1  0
 16 15  2  0
 18 17  1  1
 18 20  1  0
 19 18  1  0
 20 21  2  0
 22 16  1  0
 23 22  2  0
 23 13  1  0
 24 20  1  0
 24 25  1  0
 25 33  1  0
 25 26  1  1
 27 26  1  0
 27 32  1  0
 28 27  2  0
 29 28  1  0
 29 30  2  0
 30 31  1  0
 31 32  2  0
 33 35  1  0
 34 33  2  0
M  END
$$$$
