RYF.pdb
     RDKit          3D

 35 36  0  0  1  0  0  0  0  0999 V2000
   19.9780  -19.5453  -14.7388 N   0  0  0  0  0  0  0  0  0  0  0  0
   20.4906  -18.6204  -15.6778 C   0  0  0  0  0  0  0  0  0  0  0  0
   19.8016  -18.2060  -16.6622 N   0  0  0  0  0  0  0  0  0  0  0  0
   21.8294  -18.1171  -15.5383 N   0  0  0  0  0  0  0  0  0  0  0  0
   22.7207  -18.7425  -14.5904 C   0  0  0  0  0  0  0  0  0  0  0  0
   22.5042  -20.2321  -14.6302 C   0  0  0  0  0  0  0  0  0  0  0  0
   23.4138  -20.9749  -13.7096 C   0  0  0  0  0  0  0  0  0  0  0  0
   24.8354  -20.7179  -14.0858 C   0  0  2  0  0  0  0  0  0  0  0  0
   25.0971  -21.3898  -15.3533 N   0  0  0  0  0  0  0  0  0  0  0  0
   25.7823  -21.2608  -13.0492 C   0  0  0  0  0  0  0  0  0  0  0  0
   25.7784  -22.4818  -12.7439 O   0  0  0  0  0  0  0  0  0  0  0  0
   20.1503  -17.5212  -17.3575 O   0  0  0  0  0  0  0  0  0  0  0  0
   33.1417  -23.7281  -13.3050 C   0  0  0  0  0  0  0  0  0  0  0  0
   32.1361  -22.9074  -12.8390 C   0  0  0  0  0  0  0  0  0  0  0  0
   32.0510  -22.4762  -11.5528 C   0  0  0  0  0  0  0  0  0  0  0  0
   31.0285  -21.6504  -11.1095 C   0  0  0  0  0  0  0  0  0  0  0  0
   30.0431  -21.2305  -11.9778 C   0  0  0  0  0  0  0  0  0  0  0  0
   28.9685  -20.3608  -11.5160 C   0  0  2  0  0  0  0  0  0  0  0  0
   27.6087  -20.9683  -11.3499 N   0  0  0  0  0  0  0  0  0  0  0  0
   26.7080  -20.4297  -12.3804 C   0  0  0  0  0  0  0  0  0  0  0  0
   27.0050  -20.8308  -10.0206 O   0  0  0  0  0  0  0  0  0  0  0  0
   26.3765  -19.7297   -9.7687 C   0  0  0  0  0  0  0  0  0  0  0  0
   30.1427  -21.6810  -13.2964 C   0  0  0  0  0  0  0  0  0  0  0  0
   31.1596  -22.4989  -13.7256 N   0  0  0  0  0  0  0  0  0  0  0  0
   27.0007  -21.7441   -8.9544 C   0  0  1  0  0  0  0  0  0  0  0  0
   27.0351  -21.3249   -7.5592 C   0  0  0  0  0  0  0  0  0  0  0  0
   28.2553  -20.4513   -7.4126 C   0  0  0  0  0  0  0  0  0  0  0  0
   28.4402  -19.9270   -6.0509 C   0  0  0  0  0  0  0  0  0  0  0  0
   28.3135  -20.8142   -5.0009 C   0  0  0  0  0  0  0  0  0  0  0  0
   28.4790  -20.3704   -3.6935 C   0  0  0  0  0  0  0  0  0  0  0  0
   28.7660  -19.0640   -3.4364 C   0  0  0  0  0  0  0  0  0  0  0  0
   28.8981  -18.1617   -4.4473 C   0  0  0  0  0  0  0  0  0  0  0  0
   28.7295  -18.6208   -5.7524 C   0  0  0  0  0  0  0  0  0  0  0  0
   25.8729  -20.5044   -7.2370 O   0  0  0  0  0  0  0  0  0  0  0  0
   26.0964  -19.3388   -6.7620 O   0  0  0  0  0  0  0  0  0  0  0  0
  2  3  2  0
  2  1  1  0
  4  2  1  0
  5  4  1  0
  6  7  1  0
  6  5  1  0
  7  8  1  0
  8 10  1  0
  8  9  1  6
 10 19  1  0
 10 11  2  0
 12 13  1  0
 13 14  2  0
 14 15  1  0
 16 17  1  0
 16 15  2  0
 18 17  1  6
 18 20  1  0
 19 18  1  0
 20 21  2  0
 22 16  1  0
 23 22  2  0
 23 13  1  0
 24 20  1  0
 24 25  1  0
 25 33  1  0
 25 26  1  1
 27 26  1  0
 27 32  1  0
 28 27  2  0
 29 28  1  0
 29 30  2  0
 30 31  1  0
 31 32  2  0
 33 35  1  0
 34 33  2  0
M  END
$$$$
