RYF.pdb
     RDKit          3D

 35 36  0  0  1  0  0  0  0  0999 V2000
   31.3446  -25.8371  -15.4418 N   0  0  0  0  0  0  0  0  0  0  0  0
   30.3114  -25.8391  -16.4074 C   0  0  0  0  0  0  0  0  0  0  0  0
   29.6708  -26.8948  -16.7084 N   0  0  0  0  0  0  0  0  0  0  0  0
   29.9540  -24.6229  -17.0844 N   0  0  0  0  0  0  0  0  0  0  0  0
   30.5480  -23.3788  -16.6561 C   0  0  0  0  0  0  0  0  0  0  0  0
   29.8842  -22.9384  -15.3782 C   0  0  0  0  0  0  0  0  0  0  0  0
   29.1526  -21.6458  -15.5207 C   0  0  0  0  0  0  0  0  0  0  0  0
   27.7202  -21.9081  -15.8495 C   0  0  2  0  0  0  0  0  0  0  0  0
   27.4667  -21.4121  -17.1973 N   0  0  0  0  0  0  0  0  0  0  0  0
   26.8004  -21.1960  -14.8941 C   0  0  0  0  0  0  0  0  0  0  0  0
   26.7043  -19.9411  -14.9006 O   0  0  0  0  0  0  0  0  0  0  0  0
   28.9040  -26.9205  -17.4049 O   0  0  0  0  0  0  0  0  0  0  0  0
   19.8707  -19.0351   -9.9366 C   0  0  0  0  0  0  0  0  0  0  0  0
   20.8144  -19.6848  -10.7042 C   0  0  0  0  0  0  0  0  0  0  0  0
   21.2346  -20.9552  -10.4655 C   0  0  0  0  0  0  0  0  0  0  0  0
   22.1859  -21.5862  -11.2535 C   0  0  0  0  0  0  0  0  0  0  0  0
   22.7489  -20.9313  -12.3284 C   0  0  0  0  0  0  0  0  0  0  0  0
   23.7470  -21.5921  -13.1600 C   0  0  2  0  0  0  0  0  0  0  0  0
   25.1787  -21.1892  -12.9760 N   0  0  0  0  0  0  0  0  0  0  0  0
   26.0122  -21.9003  -13.9572 C   0  0  0  0  0  0  0  0  0  0  0  0
   25.7222  -21.3589  -11.6247 O   0  0  0  0  0  0  0  0  0  0  0  0
   26.0821  -22.5512  -11.2788 C   0  0  0  0  0  0  0  0  0  0  0  0
   22.3081  -19.6265  -12.5622 C   0  0  0  0  0  0  0  0  0  0  0  0
   21.3653  -19.0104  -11.7756 N   0  0  0  0  0  0  0  0  0  0  0  0
   25.9227  -20.3927  -10.6262 C   0  0  2  0  0  0  0  0  0  0  0  0
   26.3391  -20.7350   -9.2724 C   0  0  0  0  0  0  0  0  0  0  0  0
   27.3677  -19.7061   -8.8760 C   0  0  0  0  0  0  0  0  0  0  0  0
   27.8103  -19.8282   -7.4787 C   0  0  0  0  0  0  0  0  0  0  0  0
   28.7943  -20.7547   -7.1978 C   0  0  0  0  0  0  0  0  0  0  0  0
   29.2490  -20.9100   -5.8929 C   0  0  0  0  0  0  0  0  0  0  0  0
   28.7318  -20.1548   -4.8844 C   0  0  0  0  0  0  0  0  0  0  0  0
   27.7604  -19.2317   -5.1251 C   0  0  0  0  0  0  0  0  0  0  0  0
   27.3145  -19.0870   -6.4377 C   0  0  0  0  0  0  0  0  0  0  0  0
   25.2227  -20.6130   -8.3416 O   0  0  0  0  0  0  0  0  0  0  0  0
   24.3484  -19.7155   -8.5950 O   0  0  0  0  0  0  0  0  0  0  0  0
  2  3  2  0
  2  1  1  0
  4  2  1  0
  5  4  1  0
  6  7  1  0
  6  5  1  0
  7  8  1  0
  8 10  1  0
  8  9  1  6
 10 19  1  0
 10 11  2  0
 12 13  1  0
 13 14  2  0
 14 15  1  0
 16 17  1  0
 16 15  2  0
 18 17  1  6
 18 20  1  0
 19 18  1  0
 20 21  2  0
 22 16  1  0
 23 22  2  0
 23 13  1  0
 24 20  1  0
 24 25  1  0
 25 33  1  0
 25 26  1  6
 27 26  1  0
 27 32  1  0
 28 27  2  0
 29 28  1  0
 29 30  2  0
 30 31  1  0
 31 32  2  0
 33 35  1  0
 34 33  2  0
M  END
$$$$
