RYF.pdb
     RDKit          3D

 35 36  0  0  1  0  0  0  0  0999 V2000
   21.0325  -26.9233  -15.8995 N   0  0  0  0  0  0  0  0  0  0  0  0
   21.7484  -27.1691  -14.7049 C   0  0  0  0  0  0  0  0  0  0  0  0
   21.6333  -28.2589  -14.0610 N   0  0  0  0  0  0  0  0  0  0  0  0
   22.6411  -26.1724  -14.1803 N   0  0  0  0  0  0  0  0  0  0  0  0
   22.8127  -24.9331  -14.9004 C   0  0  0  0  0  0  0  0  0  0  0  0
   23.9806  -25.0753  -15.8402 C   0  0  0  0  0  0  0  0  0  0  0  0
   25.2206  -24.4232  -15.3266 C   0  0  0  0  0  0  0  0  0  0  0  0
   24.9953  -22.9552  -15.1749 C   0  0  2  0  0  0  0  0  0  0  0  0
   25.2501  -22.3223  -16.4637 N   0  0  0  0  0  0  0  0  0  0  0  0
   25.9289  -22.3612  -14.1544 C   0  0  0  0  0  0  0  0  0  0  0  0
   27.1520  -22.6576  -14.1446 O   0  0  0  0  0  0  0  0  0  0  0  0
   22.0701  -28.4268  -13.1364 O   0  0  0  0  0  0  0  0  0  0  0  0
   28.5903  -17.9175  -17.6524 C   0  0  0  0  0  0  0  0  0  0  0  0
   28.1064  -18.2707  -16.4102 C   0  0  0  0  0  0  0  0  0  0  0  0
   28.8873  -18.7491  -15.4058 C   0  0  0  0  0  0  0  0  0  0  0  0
   28.3751  -19.0972  -14.1646 C   0  0  0  0  0  0  0  0  0  0  0  0
   27.0277  -18.9664  -13.9030 C   0  0  0  0  0  0  0  0  0  0  0  0
   26.4864  -19.3289  -12.5991 C   0  0  2  0  0  0  0  0  0  0  0  0
   26.4165  -20.7868  -12.2590 N   0  0  0  0  0  0  0  0  0  0  0  0
   25.4756  -21.4529  -13.1722 C   0  0  0  0  0  0  0  0  0  0  0  0
   26.0875  -21.1032  -10.8655 O   0  0  0  0  0  0  0  0  0  0  0  0
   24.8350  -21.2105  -10.5645 C   0  0  0  0  0  0  0  0  0  0  0  0
   26.2368  -18.4737  -14.9438 C   0  0  0  0  0  0  0  0  0  0  0  0
   26.7539  -18.1318  -16.1698 N   0  0  0  0  0  0  0  0  0  0  0  0
   26.9529  -21.3207   -9.7817 C   0  0  2  0  0  0  0  0  0  0  0  0
   26.4725  -21.5642   -8.4278 C   0  0  0  0  0  0  0  0  0  0  0  0
   27.6988  -21.7992   -7.5824 C   0  0  0  0  0  0  0  0  0  0  0  0
   28.0745  -20.6392   -6.7599 C   0  0  0  0  0  0  0  0  0  0  0  0
   29.1611  -20.7755   -5.9195 C   0  0  0  0  0  0  0  0  0  0  0  0
   29.5586  -19.7091   -5.1206 C   0  0  0  0  0  0  0  0  0  0  0  0
   28.8846  -18.5261   -5.1583 C   0  0  0  0  0  0  0  0  0  0  0  0
   27.8086  -18.3564   -5.9750 C   0  0  0  0  0  0  0  0  0  0  0  0
   27.4217  -19.4339   -6.7700 C   0  0  0  0  0  0  0  0  0  0  0  0
   25.8000  -20.3835   -7.8975 O   0  0  0  0  0  0  0  0  0  0  0  0
   25.9854  -19.2803   -8.5162 O   0  0  0  0  0  0  0  0  0  0  0  0
  2  3  2  0
  2  1  1  0
  4  2  1  0
  5  4  1  0
  6  7  1  0
  6  5  1  0
  7  8  1  0
  8 10  1  0
  8  9  1  6
 10 19  1  0
 10 11  2  0
 12 13  1  0
 13 14  2  0
 14 15  1  0
 16 17  1  0
 16 15  2  0
 18 17  1  6
 18 20  1  0
 19 18  1  0
 20 21  2  0
 22 16  1  0
 23 22  2  0
 23 13  1  0
 24 20  1  0
 24 25  1  0
 25 33  1  0
 25 26  1  6
 27 26  1  0
 27 32  1  0
 28 27  2  0
 29 28  1  0
 29 30  2  0
 30 31  1  0
 31 32  2  0
 33 35  1  0
 34 33  2  0
M  END
$$$$
