RYF.pdb
     RDKit          3D

 35 36  0  0  1  0  0  0  0  0999 V2000
   20.3970  -16.3438  -20.2148 N   0  0  0  0  0  0  0  0  0  0  0  0
   21.7519  -15.9470  -20.2984 C   0  0  0  0  0  0  0  0  0  0  0  0
   22.0898  -14.7427  -20.5242 N   0  0  0  0  0  0  0  0  0  0  0  0
   22.7995  -16.9156  -20.1263 N   0  0  0  0  0  0  0  0  0  0  0  0
   22.4563  -18.3153  -20.0417 C   0  0  0  0  0  0  0  0  0  0  0  0
   22.1941  -18.6648  -18.6007 C   0  0  0  0  0  0  0  0  0  0  0  0
   23.4419  -18.9731  -17.8427 C   0  0  0  0  0  0  0  0  0  0  0  0
   23.5250  -20.4403  -17.5793 C   0  0  2  0  0  0  0  0  0  0  0  0
   23.4785  -21.1339  -18.8612 N   0  0  0  0  0  0  0  0  0  0  0  0
   22.3705  -20.9108  -16.7357 C   0  0  0  0  0  0  0  0  0  0  0  0
   21.3487  -21.4226  -17.2629 O   0  0  0  0  0  0  0  0  0  0  0  0
   23.0711  -14.4397  -20.6631 O   0  0  0  0  0  0  0  0  0  0  0  0
   18.4880  -24.4877   -9.5719 C   0  0  0  0  0  0  0  0  0  0  0  0
   19.2881  -23.7516  -10.4202 C   0  0  0  0  0  0  0  0  0  0  0  0
   19.4573  -22.4068  -10.3180 C   0  0  0  0  0  0  0  0  0  0  0  0
   20.2686  -21.6895  -11.1850 C   0  0  0  0  0  0  0  0  0  0  0  0
   20.9448  -22.3310  -12.2010 C   0  0  0  0  0  0  0  0  0  0  0  0
   21.8000  -21.5808  -13.1123 C   0  0  2  0  0  0  0  0  0  0  0  0
   21.3009  -21.3615  -14.5082 N   0  0  0  0  0  0  0  0  0  0  0  0
   22.3848  -20.7989  -15.3277 C   0  0  0  0  0  0  0  0  0  0  0  0
   20.0890  -20.5454  -14.6332 O   0  0  0  0  0  0  0  0  0  0  0  0
   20.2474  -19.2901  -14.8972 C   0  0  0  0  0  0  0  0  0  0  0  0
   20.7620  -23.7128  -12.2945 C   0  0  0  0  0  0  0  0  0  0  0  0
   19.9561  -24.4140  -11.4308 N   0  0  0  0  0  0  0  0  0  0  0  0
   18.7458  -20.9357  -14.5133 C   0  0  2  0  0  0  0  0  0  0  0  0
   17.7037  -20.4551  -15.4112 C   0  0  0  0  0  0  0  0  0  0  0  0
   18.2764  -20.5397  -16.8036 C   0  0  0  0  0  0  0  0  0  0  0  0
   18.3751  -19.2357  -17.4767 C   0  0  0  0  0  0  0  0  0  0  0  0
   19.4493  -18.4299  -17.1566 C   0  0  0  0  0  0  0  0  0  0  0  0
   19.5901  -17.1873  -17.7644 C   0  0  0  0  0  0  0  0  0  0  0  0
   18.6757  -16.7543  -18.6763 C   0  0  0  0  0  0  0  0  0  0  0  0
   17.6042  -17.5226  -19.0157 C   0  0  0  0  0  0  0  0  0  0  0  0
   17.4761  -18.7657  -18.3985 C   0  0  0  0  0  0  0  0  0  0  0  0
   16.5387  -21.3319  -15.3675 O   0  0  0  0  0  0  0  0  0  0  0  0
   16.7521  -22.5740  -15.1539 O   0  0  0  0  0  0  0  0  0  0  0  0
  2  3  2  0
  2  1  1  0
  4  2  1  0
  5  4  1  0
  6  7  1  0
  6  5  1  0
  7  8  1  0
  8 10  1  0
  8  9  1  6
 10 19  1  0
 10 11  2  0
 12 13  1  0
 13 14  2  0
 14 15  1  0
 16 17  1  0
 16 15  2  0
 18 17  1  6
 18 20  1  0
 19 18  1  0
 20 21  2  0
 22 16  1  0
 23 22  2  0
 23 13  1  0
 24 20  1  0
 24 25  1  0
 25 33  1  0
 25 26  1  6
 27 26  1  0
 27 32  1  0
 28 27  2  0
 29 28  1  0
 29 30  2  0
 30 31  1  0
 31 32  2  0
 33 35  1  0
 34 33  2  0
M  END
$$$$
