RYF.pdb
     RDKit          3D

 35 36  0  0  1  0  0  0  0  0999 V2000
   30.8978  -19.2100  -21.1837 N   0  0  0  0  0  0  0  0  0  0  0  0
   29.9539  -18.1710  -21.3555 C   0  0  0  0  0  0  0  0  0  0  0  0
   30.0543  -17.3158  -22.2904 N   0  0  0  0  0  0  0  0  0  0  0  0
   28.8364  -18.0555  -20.4593 N   0  0  0  0  0  0  0  0  0  0  0  0
   28.7371  -18.9605  -19.3389 C   0  0  0  0  0  0  0  0  0  0  0  0
   28.1304  -20.2547  -19.8124 C   0  0  0  0  0  0  0  0  0  0  0  0
   27.2485  -20.8898  -18.7899 C   0  0  0  0  0  0  0  0  0  0  0  0
   28.0820  -21.5508  -17.7425 C   0  0  2  0  0  0  0  0  0  0  0  0
   28.5113  -22.8465  -18.2560 N   0  0  0  0  0  0  0  0  0  0  0  0
   27.2969  -21.7712  -16.4772 C   0  0  0  0  0  0  0  0  0  0  0  0
   26.3765  -22.6280  -16.4264 O   0  0  0  0  0  0  0  0  0  0  0  0
   29.3906  -16.5309  -22.4223 O   0  0  0  0  0  0  0  0  0  0  0  0
   24.6525  -20.5130   -7.9960 C   0  0  0  0  0  0  0  0  0  0  0  0
   25.3325  -20.5106   -9.1957 C   0  0  0  0  0  0  0  0  0  0  0  0
   25.7976  -19.3830   -9.7956 C   0  0  0  0  0  0  0  0  0  0  0  0
   26.4791  -19.4080  -11.0034 C   0  0  0  0  0  0  0  0  0  0  0  0
   26.7125  -20.6036  -11.6495 C   0  0  0  0  0  0  0  0  0  0  0  0
   27.4304  -20.6339  -12.9176 C   0  0  1  0  0  0  0  0  0  0  0  0
   26.6994  -21.1606  -14.1152 N   0  0  0  0  0  0  0  0  0  0  0  0
   27.5578  -21.0316  -15.3024 C   0  0  0  0  0  0  0  0  0  0  0  0
   25.3815  -20.5705  -14.3704 O   0  0  0  0  0  0  0  0  0  0  0  0
   25.3532  -19.4288  -14.9757 C   0  0  0  0  0  0  0  0  0  0  0  0
   26.2291  -21.7544  -11.0222 C   0  0  0  0  0  0  0  0  0  0  0  0
   25.5551  -21.7189   -9.8256 N   0  0  0  0  0  0  0  0  0  0  0  0
   24.1112  -21.0775  -14.0542 C   0  0  2  0  0  0  0  0  0  0  0  0
   22.9610  -20.2184  -13.8043 C   0  0  0  0  0  0  0  0  0  0  0  0
   22.6703  -19.5157  -15.1064 C   0  0  0  0  0  0  0  0  0  0  0  0
   22.4791  -20.4352  -16.2384 C   0  0  0  0  0  0  0  0  0  0  0  0
   23.0409  -20.0846  -17.4496 C   0  0  0  0  0  0  0  0  0  0  0  0
   22.8904  -20.9188  -18.5518 C   0  0  0  0  0  0  0  0  0  0  0  0
   22.1913  -22.0833  -18.4491 C   0  0  0  0  0  0  0  0  0  0  0  0
   21.6239  -22.4603  -17.2704 C   0  0  0  0  0  0  0  0  0  0  0  0
   21.7832  -21.6143  -16.1742 C   0  0  0  0  0  0  0  0  0  0  0  0
   21.7850  -21.0134  -13.4686 O   0  0  0  0  0  0  0  0  0  0  0  0
   20.6943  -20.3805  -13.2593 O   0  0  0  0  0  0  0  0  0  0  0  0
  2  3  2  0
  2  1  1  0
  4  2  1  0
  5  4  1  0
  6  7  1  0
  6  5  1  0
  7  8  1  0
  8 10  1  0
  8  9  1  6
 10 19  1  0
 10 11  2  0
 12 13  1  0
 13 14  2  0
 14 15  1  0
 16 17  1  0
 16 15  2  0
 18 17  1  1
 18 20  1  0
 19 18  1  0
 20 21  2  0
 22 16  1  0
 23 22  2  0
 23 13  1  0
 24 20  1  0
 24 25  1  0
 25 33  1  0
 25 26  1  6
 27 26  1  0
 27 32  1  0
 28 27  2  0
 29 28  1  0
 29 30  2  0
 30 31  1  0
 31 32  2  0
 33 35  1  0
 34 33  2  0
M  END
$$$$
