RYF.pdb
     RDKit          3D

 35 36  0  0  1  0  0  0  0  0999 V2000
   27.4597  -26.9485  -16.1138 N   0  0  0  0  0  0  0  0  0  0  0  0
   28.7852  -26.8375  -16.5940 C   0  0  0  0  0  0  0  0  0  0  0  0
   29.5953  -27.8167  -16.5717 N   0  0  0  0  0  0  0  0  0  0  0  0
   29.2569  -25.5901  -17.1294 N   0  0  0  0  0  0  0  0  0  0  0  0
   28.3251  -24.5007  -17.3000 C   0  0  0  0  0  0  0  0  0  0  0  0
   29.0606  -23.3176  -17.8714 C   0  0  0  0  0  0  0  0  0  0  0  0
   29.1037  -22.1551  -16.9368 C   0  0  0  0  0  0  0  0  0  0  0  0
   27.7168  -21.6785  -16.6572 C   0  0  2  0  0  0  0  0  0  0  0  0
   27.3182  -20.7851  -17.7387 N   0  0  0  0  0  0  0  0  0  0  0  0
   27.6504  -20.9207  -15.3583 C   0  0  0  0  0  0  0  0  0  0  0  0
   28.5288  -20.0709  -15.0580 O   0  0  0  0  0  0  0  0  0  0  0  0
   30.5486  -27.7807  -16.9767 O   0  0  0  0  0  0  0  0  0  0  0  0
   20.1401  -21.0065  -13.9472 C   0  0  0  0  0  0  0  0  0  0  0  0
   21.4497  -20.5947  -13.8168 C   0  0  0  0  0  0  0  0  0  0  0  0
   22.2882  -20.4053  -14.8696 C   0  0  0  0  0  0  0  0  0  0  0  0
   23.6023  -19.9903  -14.7109 C   0  0  0  0  0  0  0  0  0  0  0  0
   24.1123  -19.7508  -13.4525 C   0  0  0  0  0  0  0  0  0  0  0  0
   25.4918  -19.3122  -13.2821 C   0  0  1  0  0  0  0  0  0  0  0  0
   26.5465  -20.3709  -13.1701 N   0  0  0  0  0  0  0  0  0  0  0  0
   26.6076  -21.1294  -14.4287 C   0  0  0  0  0  0  0  0  0  0  0  0
   26.4183  -21.2830  -12.0290 O   0  0  0  0  0  0  0  0  0  0  0  0
   25.8894  -22.4406  -12.2553 C   0  0  0  0  0  0  0  0  0  0  0  0
   23.2400  -19.9492  -12.3796 C   0  0  0  0  0  0  0  0  0  0  0  0
   21.9400  -20.3606  -12.5474 N   0  0  0  0  0  0  0  0  0  0  0  0
   26.8014  -21.0847  -10.6931 C   0  0  2  0  0  0  0  0  0  0  0  0
   26.0156  -21.5750   -9.5682 C   0  0  0  0  0  0  0  0  0  0  0  0
   27.0083  -22.0094   -8.5195 C   0  0  0  0  0  0  0  0  0  0  0  0
   27.7767  -20.8956   -7.9431 C   0  0  0  0  0  0  0  0  0  0  0  0
   29.1084  -20.7894   -8.2906 C   0  0  0  0  0  0  0  0  0  0  0  0
   29.8802  -19.7545   -7.7740 C   0  0  0  0  0  0  0  0  0  0  0  0
   29.3340  -18.8402   -6.9249 C   0  0  0  0  0  0  0  0  0  0  0  0
   28.0243  -18.9143   -6.5607 C   0  0  0  0  0  0  0  0  0  0  0  0
   27.2631  -19.9569   -7.0864 C   0  0  0  0  0  0  0  0  0  0  0  0
   25.2153  -20.5015   -8.9896 O   0  0  0  0  0  0  0  0  0  0  0  0
   24.3082  -20.8367   -8.1536 O   0  0  0  0  0  0  0  0  0  0  0  0
  2  3  2  0
  2  1  1  0
  4  2  1  0
  5  4  1  0
  6  7  1  0
  6  5  1  0
  7  8  1  0
  8 10  1  0
  8  9  1  6
 10 19  1  0
 10 11  2  0
 12 13  1  0
 13 14  2  0
 14 15  1  0
 16 17  1  0
 16 15  2  0
 18 17  1  6
 18 20  1  0
 19 18  1  0
 20 21  2  0
 22 16  1  0
 23 22  2  0
 23 13  1  0
 24 20  1  0
 24 25  1  0
 25 33  1  0
 25 26  1  6
 27 26  1  0
 27 32  1  0
 28 27  2  0
 29 28  1  0
 29 30  2  0
 30 31  1  0
 31 32  2  0
 33 35  1  0
 34 33  2  0
M  END
$$$$
