RYF.pdb
     RDKit          3D

 35 36  0  0  1  0  0  0  0  0999 V2000
   27.5880  -23.9584  -16.3231 N   0  0  0  0  0  0  0  0  0  0  0  0
   28.9659  -23.6480  -16.3952 C   0  0  0  0  0  0  0  0  0  0  0  0
   29.7485  -24.2354  -17.2064 N   0  0  0  0  0  0  0  0  0  0  0  0
   29.5248  -22.6408  -15.5359 N   0  0  0  0  0  0  0  0  0  0  0  0
   28.6390  -21.8254  -14.7392 C   0  0  0  0  0  0  0  0  0  0  0  0
   28.6645  -20.4173  -15.2721 C   0  0  0  0  0  0  0  0  0  0  0  0
   27.8051  -19.4844  -14.4862 C   0  0  0  0  0  0  0  0  0  0  0  0
   26.4181  -20.0290  -14.3949 C   0  0  2  0  0  0  0  0  0  0  0  0
   25.5982  -19.3493  -15.3911 N   0  0  0  0  0  0  0  0  0  0  0  0
   25.8229  -19.7843  -13.0341 C   0  0  0  0  0  0  0  0  0  0  0  0
   25.4723  -18.6292  -12.6782 O   0  0  0  0  0  0  0  0  0  0  0  0
   30.7618  -24.0294  -17.2753 O   0  0  0  0  0  0  0  0  0  0  0  0
   18.9873  -18.7890  -12.2135 C   0  0  0  0  0  0  0  0  0  0  0  0
   20.1515  -19.4023  -11.8009 C   0  0  0  0  0  0  0  0  0  0  0  0
   20.6255  -19.3403  -10.5285 C   0  0  0  0  0  0  0  0  0  0  0  0
   21.8002  -19.9669  -10.1392 C   0  0  0  0  0  0  0  0  0  0  0  0
   22.5419  -20.6892  -11.0499 C   0  0  0  0  0  0  0  0  0  0  0  0
   23.7755  -21.3509  -10.6438 C   0  0  2  0  0  0  0  0  0  0  0  0
   25.0528  -20.5789  -10.7792 N   0  0  0  0  0  0  0  0  0  0  0  0
   25.6340  -20.8324  -12.1062 C   0  0  0  0  0  0  0  0  0  0  0  0
   26.0524  -20.8075   -9.7310 O   0  0  0  0  0  0  0  0  0  0  0  0
   26.8173  -21.8415   -9.8603 C   0  0  0  0  0  0  0  0  0  0  0  0
   22.0434  -20.7447  -12.3537 C   0  0  0  0  0  0  0  0  0  0  0  0
   20.8787  -20.1204  -12.7293 N   0  0  0  0  0  0  0  0  0  0  0  0
   26.3152  -20.0467   -8.5809 C   0  0  2  0  0  0  0  0  0  0  0  0
   27.2364  -20.4856   -7.5406 C   0  0  0  0  0  0  0  0  0  0  0  0
   28.0127  -19.2622   -7.1230 C   0  0  0  0  0  0  0  0  0  0  0  0
   28.8433  -19.4751   -5.9280 C   0  0  0  0  0  0  0  0  0  0  0  0
   29.9228  -20.3278   -6.0426 C   0  0  0  0  0  0  0  0  0  0  0  0
   30.7407  -20.5637   -4.9430 C   0  0  0  0  0  0  0  0  0  0  0  0
   30.4872  -19.9599   -3.7487 C   0  0  0  0  0  0  0  0  0  0  0  0
   29.4314  -19.1133   -3.5997 C   0  0  0  0  0  0  0  0  0  0  0  0
   28.6205  -18.8864   -4.7104 C   0  0  0  0  0  0  0  0  0  0  0  0
   26.5067  -20.9570   -6.3689 O   0  0  0  0  0  0  0  0  0  0  0  0
   25.3179  -20.5158   -6.2065 O   0  0  0  0  0  0  0  0  0  0  0  0
  2  3  2  0
  2  1  1  0
  4  2  1  0
  5  4  1  0
  6  7  1  0
  6  5  1  0
  7  8  1  0
  8 10  1  0
  8  9  1  6
 10 19  1  0
 10 11  2  0
 12 13  1  0
 13 14  2  0
 14 15  1  0
 16 17  1  0
 16 15  2  0
 18 17  1  6
 18 20  1  0
 19 18  1  0
 20 21  2  0
 22 16  1  0
 23 22  2  0
 23 13  1  0
 24 20  1  0
 24 25  1  0
 25 33  1  0
 25 26  1  6
 27 26  1  0
 27 32  1  0
 28 27  2  0
 29 28  1  0
 29 30  2  0
 30 31  1  0
 31 32  2  0
 33 35  1  0
 34 33  2  0
M  END
$$$$
