RYF.pdb
     RDKit          3D

 35 36  0  0  1  0  0  0  0  0999 V2000
   31.6034  -30.8186  -18.3657 N   0  0  0  0  0  0  0  0  0  0  0  0
   32.7079  -31.1691  -17.5550 C   0  0  0  0  0  0  0  0  0  0  0  0
   32.6259  -32.0581  -16.6503 N   0  0  0  0  0  0  0  0  0  0  0  0
   33.9745  -30.5156  -17.7390 N   0  0  0  0  0  0  0  0  0  0  0  0
   34.1335  -29.5846  -18.8308 C   0  0  0  0  0  0  0  0  0  0  0  0
   33.4068  -28.3101  -18.4918 C   0  0  0  0  0  0  0  0  0  0  0  0
   33.4720  -27.2971  -19.5856 C   0  0  0  0  0  0  0  0  0  0  0  0
   32.9490  -27.8865  -20.8536 C   0  0  2  0  0  0  0  0  0  0  0  0
   34.0493  -27.9566  -21.8081 N   0  0  0  0  0  0  0  0  0  0  0  0
   31.8553  -27.0359  -21.4419 C   0  0  0  0  0  0  0  0  0  0  0  0
   32.1170  -26.1259  -22.2711 O   0  0  0  0  0  0  0  0  0  0  0  0
   33.3916  -32.2707  -15.9851 O   0  0  0  0  0  0  0  0  0  0  0  0
   23.6537  -25.0273  -24.3139 C   0  0  0  0  0  0  0  0  0  0  0  0
   24.7925  -25.5977  -23.7853 C   0  0  0  0  0  0  0  0  0  0  0  0
   25.8561  -25.9900  -24.5351 C   0  0  0  0  0  0  0  0  0  0  0  0
   26.9907  -26.5616  -23.9780 C   0  0  0  0  0  0  0  0  0  0  0  0
   27.0789  -26.7547  -22.6157 C   0  0  0  0  0  0  0  0  0  0  0  0
   28.2705  -27.3527  -22.0266 C   0  0  1  0  0  0  0  0  0  0  0  0
   29.4319  -26.4488  -21.7441 N   0  0  0  0  0  0  0  0  0  0  0  0
   30.4997  -27.2213  -21.0913 C   0  0  0  0  0  0  0  0  0  0  0  0
   29.1285  -25.2406  -20.9704 O   0  0  0  0  0  0  0  0  0  0  0  0
   29.0199  -25.3721  -19.6891 C   0  0  0  0  0  0  0  0  0  0  0  0
   25.9789  -26.3470  -21.8571 C   0  0  0  0  0  0  0  0  0  0  0  0
   24.8597  -25.7819  -22.4186 N   0  0  0  0  0  0  0  0  0  0  0  0
   28.9408  -23.9256  -21.4245 C   0  0  2  0  0  0  0  0  0  0  0  0
   28.6212  -22.8218  -20.5285 C   0  0  0  0  0  0  0  0  0  0  0  0
   29.3293  -21.6115  -21.0831 C   0  0  0  0  0  0  0  0  0  0  0  0
   28.8442  -21.2064  -22.4111 C   0  0  0  0  0  0  0  0  0  0  0  0
   27.8136  -20.2895  -22.4637 C   0  0  0  0  0  0  0  0  0  0  0  0
   27.3178  -19.8724  -23.6941 C   0  0  0  0  0  0  0  0  0  0  0  0
   27.8402  -20.3609  -24.8532 C   0  0  0  0  0  0  0  0  0  0  0  0
   28.8569  -21.2663  -24.8389 C   0  0  0  0  0  0  0  0  0  0  0  0
   29.3436  -21.6750  -23.5985 C   0  0  0  0  0  0  0  0  0  0  0  0
   27.1911  -22.5355  -20.5504 O   0  0  0  0  0  0  0  0  0  0  0  0
   26.4685  -23.2373  -21.3375 O   0  0  0  0  0  0  0  0  0  0  0  0
  2  3  2  0
  2  1  1  0
  4  2  1  0
  5  4  1  0
  6  7  1  0
  6  5  1  0
  7  8  1  0
  8 10  1  0
  8  9  1  6
 10 19  1  0
 10 11  2  0
 12 13  1  0
 13 14  2  0
 14 15  1  0
 16 17  1  0
 16 15  2  0
 18 17  1  6
 18 20  1  0
 19 18  1  0
 20 21  2  0
 22 16  1  0
 23 22  2  0
 23 13  1  0
 24 20  1  0
 24 25  1  0
 25 33  1  0
 25 26  1  6
 27 26  1  0
 27 32  1  0
 28 27  2  0
 29 28  1  0
 29 30  2  0
 30 31  1  0
 31 32  2  0
 33 35  1  0
 34 33  2  0
M  END
$$$$
