RYF.pdb
     RDKit          3D

 35 36  0  0  1  0  0  0  0  0999 V2000
   14.0406  -23.5123    3.2420 N   0  0  0  0  0  0  0  0  0  0  0  0
   12.7672  -23.1747    3.7562 C   0  0  0  0  0  0  0  0  0  0  0  0
   12.1460  -23.9288    4.5693 N   0  0  0  0  0  0  0  0  0  0  0  0
   12.1330  -21.9462    3.3640 N   0  0  0  0  0  0  0  0  0  0  0  0
   12.8953  -20.9642    2.6302 C   0  0  0  0  0  0  0  0  0  0  0  0
   12.9184  -19.6805    3.4169 C   0  0  0  0  0  0  0  0  0  0  0  0
   13.6628  -18.5889    2.7234 C   0  0  0  0  0  0  0  0  0  0  0  0
   13.5414  -17.3201    3.5006 C   0  0  2  0  0  0  0  0  0  0  0  0
   12.7338  -16.3879    2.7226 N   0  0  0  0  0  0  0  0  0  0  0  0
   14.8901  -16.6984    3.7469 C   0  0  0  0  0  0  0  0  0  0  0  0
   15.6887  -16.4854    2.7978 O   0  0  0  0  0  0  0  0  0  0  0  0
   11.2113  -23.7058    4.9572 O   0  0  0  0  0  0  0  0  0  0  0  0
   21.3464  -11.6158    6.9111 C   0  0  0  0  0  0  0  0  0  0  0  0
   20.1758  -12.2987    6.6558 C   0  0  0  0  0  0  0  0  0  0  0  0
   19.5122  -13.0312    7.5889 C   0  0  0  0  0  0  0  0  0  0  0  0
   18.3356  -13.7091    7.3059 C   0  0  0  0  0  0  0  0  0  0  0  0
   17.7882  -13.6610    6.0413 C   0  0  0  0  0  0  0  0  0  0  0  0
   16.5506  -14.3700    5.7411 C   0  0  1  0  0  0  0  0  0  0  0  0
   16.6610  -15.7916    5.2800 N   0  0  0  0  0  0  0  0  0  0  0  0
   15.3132  -16.3305    5.0433 C   0  0  0  0  0  0  0  0  0  0  0  0
   17.4247  -16.6893    6.1525 O   0  0  0  0  0  0  0  0  0  0  0  0
   16.7815  -17.2665    7.1137 C   0  0  0  0  0  0  0  0  0  0  0  0
   18.4802  -12.9047    5.0923 C   0  0  0  0  0  0  0  0  0  0  0  0
   19.6452  -12.2370    5.3827 N   0  0  0  0  0  0  0  0  0  0  0  0
   18.7851  -17.0310    6.0937 C   0  0  2  0  0  0  0  0  0  0  0  0
   19.4117  -17.9337    7.0507 C   0  0  0  0  0  0  0  0  0  0  0  0
   20.0954  -19.0022    6.2354 C   0  0  0  0  0  0  0  0  0  0  0  0
   20.7255  -20.0498    7.0532 C   0  0  0  0  0  0  0  0  0  0  0  0
   19.9691  -21.1626    7.3614 C   0  0  0  0  0  0  0  0  0  0  0  0
   20.5169  -22.1826    8.1315 C   0  0  0  0  0  0  0  0  0  0  0  0
   21.7975  -22.0953    8.5872 C   0  0  0  0  0  0  0  0  0  0  0  0
   22.5721  -21.0125    8.3026 C   0  0  0  0  0  0  0  0  0  0  0  0
   22.0097  -19.9980    7.5297 C   0  0  0  0  0  0  0  0  0  0  0  0
   20.4452  -17.2423    7.8133 O   0  0  0  0  0  0  0  0  0  0  0  0
   21.1220  -16.3481    7.1998 O   0  0  0  0  0  0  0  0  0  0  0  0
  2  3  2  0
  2  1  1  0
  4  2  1  0
  5  4  1  0
  6  7  1  0
  6  5  1  0
  7  8  1  0
  8 10  1  0
  8  9  1  6
 10 19  1  0
 10 11  2  0
 12 13  1  0
 13 14  2  0
 14 15  1  0
 16 17  1  0
 16 15  2  0
 18 17  1  6
 18 20  1  0
 19 18  1  0
 20 21  2  0
 22 16  1  0
 23 22  2  0
 23 13  1  0
 24 20  1  0
 24 25  1  0
 25 33  1  0
 25 26  1  6
 27 26  1  0
 27 32  1  0
 28 27  2  0
 29 28  1  0
 29 30  2  0
 30 31  1  0
 31 32  2  0
 33 35  1  0
 34 33  2  0
M  END
$$$$
