ETC.pdb
     RDKit          3D

 23 22  0  0  1  0  0  0  0  0999 V2000
    8.9416  -15.3776   15.2512 N   0  0  0  0  0  0  0  0  0  0  0  0
    9.1609  -16.2357   16.4073 C   0  0  1  0  0  0  0  0  0  0  0  0
   10.3745  -17.0703   16.1641 C   0  0  0  0  0  0  0  0  0  0  0  0
   10.2588  -17.6876   14.7859 C   0  0  0  0  0  0  0  0  0  0  0  0
   11.4011  -18.5768   14.4722 C   0  0  0  0  0  0  0  0  0  0  0  0
   11.3357  -19.8239   14.6158 O   0  0  0  0  0  0  0  0  0  0  0  0
    9.3354  -15.4013   17.6413 C   0  0  0  0  0  0  0  0  0  0  0  0
   10.0617  -14.3846   17.6605 O   0  0  0  0  0  0  0  0  0  0  0  0
   12.5785  -17.9978   14.0036 O   0  0  0  0  0  0  0  0  0  0  0  0
    7.4967  -13.1806   19.0414 C   0  0  0  0  0  0  0  0  0  0  0  0
    7.6285  -14.1228   20.2180 C   0  0  1  0  0  0  0  0  0  0  0  0
    6.4385  -14.8888   20.2567 O   0  0  0  0  0  0  0  0  0  0  0  0
    8.7962  -15.0377   20.0709 C   0  0  2  0  0  0  0  0  0  0  0  0
    8.6590  -15.7711   18.8281 N   0  0  0  0  0  0  0  0  0  0  0  0
    9.0244  -15.9188   21.2217 C   0  0  0  0  0  0  0  0  0  0  0  0
    9.2290  -17.1402   21.0347 O   0  0  0  0  0  0  0  0  0  0  0  0
    9.0231  -15.4454   22.5590 N   0  0  0  0  0  0  0  0  0  0  0  0
    9.4122  -16.3005   23.6631 C   0  0  1  0  0  0  0  0  0  0  0  0
   10.8375  -16.7340   23.4482 C   0  0  0  0  0  0  0  0  0  0  0  0
   11.4751  -17.7265   24.8013 S   0  0  0  0  0  0  0  0  0  0  0  0
    9.3555  -15.4617   24.9123 C   0  0  0  0  0  0  0  0  0  0  0  0
    9.0303  -16.0028   26.1489 O   0  0  0  0  0  0  0  0  0  0  0  0
    9.6037  -14.2270   24.8792 O   0  0  0  0  0  0  0  0  0  0  0  0
  2  1  1  6
  2  3  1  0
  4  3  1  0
  5  4  1  0
  6  5  2  0
  7  2  1  0
  7  8  2  0
  9  5  1  0
 11 10  1  6
 11 12  1  0
 11 13  1  0
 13 14  1  6
 14  7  1  0
 15 13  1  0
 16 15  2  0
 17 15  1  0
 18 17  1  0
 18 21  1  0
 19 20  1  0
 18 19  1  6
 21 22  1  0
 23 21  2  0
M  END
$$$$
