ETC.pdb
     RDKit          3D

 23 22  0  0  1  0  0  0  0  0999 V2000
   11.2318  -17.0692   18.9643 N   0  0  0  0  0  0  0  0  0  0  0  0
   11.1434  -17.3625   20.3881 C   0  0  1  0  0  0  0  0  0  0  0  0
   12.5078  -17.6896   20.8979 C   0  0  0  0  0  0  0  0  0  0  0  0
   13.4080  -17.9570   19.7096 C   0  0  0  0  0  0  0  0  0  0  0  0
   14.8075  -18.2231   20.1151 C   0  0  0  0  0  0  0  0  0  0  0  0
   15.2043  -19.3735   20.4301 O   0  0  0  0  0  0  0  0  0  0  0  0
   10.5768  -16.1835   21.1218 C   0  0  0  0  0  0  0  0  0  0  0  0
   11.0117  -15.0238   20.9553 O   0  0  0  0  0  0  0  0  0  0  0  0
   15.7009  -17.1543   20.1430 O   0  0  0  0  0  0  0  0  0  0  0  0
    7.1787  -15.0566   20.9310 C   0  0  0  0  0  0  0  0  0  0  0  0
    7.4191  -15.2948   22.4058 C   0  0  1  0  0  0  0  0  0  0  0  0
    6.8754  -16.5677   22.7029 O   0  0  0  0  0  0  0  0  0  0  0  0
    8.8716  -15.2913   22.7411 C   0  0  2  0  0  0  0  0  0  0  0  0
    9.5145  -16.3822   22.0356 N   0  0  0  0  0  0  0  0  0  0  0  0
    9.1615  -15.3034   24.1793 C   0  0  0  0  0  0  0  0  0  0  0  0
    9.9523  -16.1563   24.6438 O   0  0  0  0  0  0  0  0  0  0  0  0
    8.5780  -14.3800   25.0845 N   0  0  0  0  0  0  0  0  0  0  0  0
    8.8788  -14.4194   26.5022 C   0  0  1  0  0  0  0  0  0  0  0  0
    8.0890  -13.3354   27.1852 C   0  0  0  0  0  0  0  0  0  0  0  0
    8.3320  -11.7210   26.4385 S   0  0  0  0  0  0  0  0  0  0  0  0
    8.4003  -15.7507   27.0180 C   0  0  0  0  0  0  0  0  0  0  0  0
    8.7714  -16.2340   28.2655 O   0  0  0  0  0  0  0  0  0  0  0  0
    7.6386  -16.4802   26.3289 O   0  0  0  0  0  0  0  0  0  0  0  0
  2  1  1  6
  2  3  1  0
  4  3  1  0
  5  4  1  0
  6  5  2  0
  7  2  1  0
  7  8  2  0
  9  5  1  0
 11 10  1  6
 11 12  1  0
 11 13  1  0
 13 14  1  6
 14  7  1  0
 15 13  1  0
 16 15  2  0
 17 15  1  0
 18 17  1  0
 18 21  1  0
 19 20  1  0
 18 19  1  1
 21 22  1  0
 23 21  2  0
M  END
$$$$
