ETC.pdb
     RDKit          3D

 23 22  0  0  1  0  0  0  0  0999 V2000
   10.7843  -17.1615   17.1900 N   0  0  0  0  0  0  0  0  0  0  0  0
    9.6780  -17.4347   18.0968 C   0  0  1  0  0  0  0  0  0  0  0  0
    9.7563  -18.8592   18.5364 C   0  0  0  0  0  0  0  0  0  0  0  0
   10.8160  -19.5550   17.7079 C   0  0  0  0  0  0  0  0  0  0  0  0
   10.9690  -20.9814   18.0765 C   0  0  0  0  0  0  0  0  0  0  0  0
   11.9505  -21.6681   17.6956 O   0  0  0  0  0  0  0  0  0  0  0  0
    9.7439  -16.5152   19.2799 C   0  0  0  0  0  0  0  0  0  0  0  0
   10.8290  -16.1608   19.7883 O   0  0  0  0  0  0  0  0  0  0  0  0
    9.9855  -21.5664   18.8714 O   0  0  0  0  0  0  0  0  0  0  0  0
    7.2805  -13.4463   19.6615 C   0  0  0  0  0  0  0  0  0  0  0  0
    7.2972  -14.2917   20.9163 C   0  0  1  0  0  0  0  0  0  0  0  0
    6.1504  -15.1198   20.8603 O   0  0  0  0  0  0  0  0  0  0  0  0
    8.5160  -15.1463   20.9959 C   0  0  2  0  0  0  0  0  0  0  0  0
    8.5415  -16.0286   19.8460 N   0  0  0  0  0  0  0  0  0  0  0  0
    8.6670  -15.8700   22.2633 C   0  0  0  0  0  0  0  0  0  0  0  0
    8.5835  -17.1195   22.2760 O   0  0  0  0  0  0  0  0  0  0  0  0
    8.9060  -15.2103   23.4964 N   0  0  0  0  0  0  0  0  0  0  0  0
    8.9239  -15.9373   24.7506 C   0  0  1  0  0  0  0  0  0  0  0  0
    9.1882  -14.9582   25.8628 C   0  0  0  0  0  0  0  0  0  0  0  0
    9.1796  -15.7276   27.4846 S   0  0  0  0  0  0  0  0  0  0  0  0
    7.5471  -16.5152   24.9454 C   0  0  0  0  0  0  0  0  0  0  0  0
    7.3447  -17.7486   25.5500 O   0  0  0  0  0  0  0  0  0  0  0  0
    6.5202  -15.8937   24.5631 O   0  0  0  0  0  0  0  0  0  0  0  0
  2  1  1  6
  2  3  1  0
  4  3  1  0
  5  4  1  0
  6  5  2  0
  7  2  1  0
  7  8  2  0
  9  5  1  0
 11 10  1  6
 11 12  1  0
 11 13  1  0
 13 14  1  6
 14  7  1  0
 15 13  1  0
 16 15  2  0
 17 15  1  0
 18 17  1  0
 18 21  1  0
 19 20  1  0
 18 19  1  1
 21 22  1  0
 23 21  2  0
M  END
$$$$
