ETC.pdb
     RDKit          3D

 23 22  0  0  1  0  0  0  0  0999 V2000
   10.4319  -17.3898   19.3126 N   0  0  0  0  0  0  0  0  0  0  0  0
   10.9789  -16.9619   20.5928 C   0  0  1  0  0  0  0  0  0  0  0  0
   12.3962  -16.5376   20.3931 C   0  0  0  0  0  0  0  0  0  0  0  0
   13.2930  -17.5181   21.1197 C   0  0  0  0  0  0  0  0  0  0  0  0
   14.7278  -17.1814   20.9718 C   0  0  0  0  0  0  0  0  0  0  0  0
   15.3313  -16.4519   21.7987 O   0  0  0  0  0  0  0  0  0  0  0  0
   10.1649  -15.8310   21.1476 C   0  0  0  0  0  0  0  0  0  0  0  0
   10.0793  -14.7261   20.5702 O   0  0  0  0  0  0  0  0  0  0  0  0
   15.4170  -17.6974   19.8764 O   0  0  0  0  0  0  0  0  0  0  0  0
    6.9272  -15.3078   21.1646 C   0  0  0  0  0  0  0  0  0  0  0  0
    7.2044  -15.3012   22.6521 C   0  0  1  0  0  0  0  0  0  0  0  0
    6.9069  -16.6024   23.1239 O   0  0  0  0  0  0  0  0  0  0  0  0
    8.6300  -14.9848   22.9516 C   0  0  2  0  0  0  0  0  0  0  0  0
    9.4676  -16.0127   22.3657 N   0  0  0  0  0  0  0  0  0  0  0  0
    8.9169  -14.7689   24.3742 C   0  0  0  0  0  0  0  0  0  0  0  0
    9.8880  -15.3549   24.9054 O   0  0  0  0  0  0  0  0  0  0  0  0
    8.1326  -13.9143   25.1910 N   0  0  0  0  0  0  0  0  0  0  0  0
    8.4261  -13.7378   26.5997 C   0  0  1  0  0  0  0  0  0  0  0  0
    7.4318  -12.7642   27.1732 C   0  0  0  0  0  0  0  0  0  0  0  0
    7.3793  -11.2115   26.2737 S   0  0  0  0  0  0  0  0  0  0  0  0
    8.2190  -15.0730   27.2643 C   0  0  0  0  0  0  0  0  0  0  0  0
    8.6533  -15.3270   28.5584 O   0  0  0  0  0  0  0  0  0  0  0  0
    7.6385  -16.0160   26.6637 O   0  0  0  0  0  0  0  0  0  0  0  0
  2  1  1  6
  2  3  1  0
  4  3  1  0
  5  4  1  0
  6  5  2  0
  7  2  1  0
  7  8  2  0
  9  5  1  0
 11 10  1  6
 11 12  1  0
 11 13  1  0
 13 14  1  1
 14  7  1  0
 15 13  1  0
 16 15  2  0
 17 15  1  0
 18 17  1  0
 18 21  1  0
 19 20  1  0
 18 19  1  1
 21 22  1  0
 23 21  2  0
M  END
$$$$
