ETC.pdb
     RDKit          3D

 23 22  0  0  1  0  0  0  0  0999 V2000
    9.3345  -15.0992   14.6259 N   0  0  0  0  0  0  0  0  0  0  0  0
    8.5833  -15.6155   15.7618 C   0  0  1  0  0  0  0  0  0  0  0  0
    8.4963  -17.1013   15.6463 C   0  0  0  0  0  0  0  0  0  0  0  0
    9.9038  -17.6605   15.6348 C   0  0  0  0  0  0  0  0  0  0  0  0
    9.9187  -19.1397   15.5589 C   0  0  0  0  0  0  0  0  0  0  0  0
   10.9853  -19.8012   15.6280 O   0  0  0  0  0  0  0  0  0  0  0  0
    9.2576  -15.2265   17.0438 C   0  0  0  0  0  0  0  0  0  0  0  0
   10.4967  -15.0893   17.1295 O   0  0  0  0  0  0  0  0  0  0  0  0
    8.7039  -19.8047   15.4064 O   0  0  0  0  0  0  0  0  0  0  0  0
    7.4076  -12.7158   19.4288 C   0  0  0  0  0  0  0  0  0  0  0  0
    8.0038  -13.8477   20.2370 C   0  0  1  0  0  0  0  0  0  0  0  0
    6.9371  -14.7227   20.5540 O   0  0  0  0  0  0  0  0  0  0  0  0
    9.0398  -14.5952   19.4687 C   0  0  2  0  0  0  0  0  0  0  0  0
    8.4717  -15.0062   18.2000 N   0  0  0  0  0  0  0  0  0  0  0  0
    9.6487  -15.7117   20.2003 C   0  0  0  0  0  0  0  0  0  0  0  0
    9.7617  -16.8278   19.6436 O   0  0  0  0  0  0  0  0  0  0  0  0
   10.1226  -15.5854   21.5315 N   0  0  0  0  0  0  0  0  0  0  0  0
   10.7502  -16.6973   22.2183 C   0  0  1  0  0  0  0  0  0  0  0  0
   12.0335  -17.0314   21.5064 C   0  0  0  0  0  0  0  0  0  0  0  0
   12.9833  -18.3041   22.3435 S   0  0  0  0  0  0  0  0  0  0  0  0
   11.0883  -16.2239   23.6072 C   0  0  0  0  0  0  0  0  0  0  0  0
   11.2597  -17.1067   24.6650 O   0  0  0  0  0  0  0  0  0  0  0  0
   11.2293  -14.9980   23.8608 O   0  0  0  0  0  0  0  0  0  0  0  0
  2  1  1  6
  2  3  1  0
  4  3  1  0
  5  4  1  0
  6  5  2  0
  7  2  1  0
  7  8  2  0
  9  5  1  0
 11 10  1  6
 11 12  1  0
 11 13  1  0
 13 14  1  6
 14  7  1  0
 15 13  1  0
 16 15  2  0
 17 15  1  0
 18 17  1  0
 18 21  1  0
 19 20  1  0
 18 19  1  6
 21 22  1  0
 23 21  2  0
M  END
$$$$
