ETC.pdb
     RDKit          3D

 23 22  0  0  1  0  0  0  0  0999 V2000
   12.7769  -16.8245   19.8128 N   0  0  0  0  0  0  0  0  0  0  0  0
   12.6397  -17.3890   21.1482 C   0  0  1  0  0  0  0  0  0  0  0  0
   13.9930  -17.7666   21.6527 C   0  0  0  0  0  0  0  0  0  0  0  0
   14.9951  -16.7616   21.1238 C   0  0  0  0  0  0  0  0  0  0  0  0
   16.3813  -17.0821   21.5356 C   0  0  0  0  0  0  0  0  0  0  0  0
   16.8937  -16.6086   22.5812 O   0  0  0  0  0  0  0  0  0  0  0  0
   11.9966  -16.3911   22.0648 C   0  0  0  0  0  0  0  0  0  0  0  0
   12.1267  -15.1587   21.9040 O   0  0  0  0  0  0  0  0  0  0  0  0
   17.1283  -17.9374   20.7283 O   0  0  0  0  0  0  0  0  0  0  0  0
    8.4908  -16.2364   22.3408 C   0  0  0  0  0  0  0  0  0  0  0  0
    8.9552  -16.3869   23.7731 C   0  0  1  0  0  0  0  0  0  0  0  0
    8.8262  -17.7590   24.0970 O   0  0  0  0  0  0  0  0  0  0  0  0
   10.3774  -15.9741   23.9437 C   0  0  2  0  0  0  0  0  0  0  0  0
   11.2151  -16.8521   23.1509 N   0  0  0  0  0  0  0  0  0  0  0  0
   10.8192  -15.8851   25.3400 C   0  0  0  0  0  0  0  0  0  0  0  0
   11.7114  -16.6587   25.7571 O   0  0  0  0  0  0  0  0  0  0  0  0
   10.2737  -14.9493   26.2561 N   0  0  0  0  0  0  0  0  0  0  0  0
   10.7745  -14.8402   27.6123 C   0  0  1  0  0  0  0  0  0  0  0  0
   10.1152  -13.6566   28.2678 C   0  0  0  0  0  0  0  0  0  0  0  0
    8.3343  -13.6381   28.0423 S   0  0  0  0  0  0  0  0  0  0  0  0
   10.3463  -16.0855   28.3424 C   0  0  0  0  0  0  0  0  0  0  0  0
   10.8154  -16.3930   29.6125 O   0  0  0  0  0  0  0  0  0  0  0  0
    9.5389  -16.9004   27.8215 O   0  0  0  0  0  0  0  0  0  0  0  0
  2  1  1  6
  2  3  1  0
  4  3  1  0
  5  4  1  0
  6  5  2  0
  7  2  1  0
  7  8  2  0
  9  5  1  0
 11 10  1  6
 11 12  1  0
 11 13  1  0
 13 14  1  6
 14  7  1  0
 15 13  1  0
 16 15  2  0
 17 15  1  0
 18 17  1  0
 18 21  1  0
 19 20  1  0
 18 19  1  1
 21 22  1  0
 23 21  2  0
M  END
$$$$
