ETC.pdb
     RDKit          3D

 23 22  0  0  1  0  0  0  0  0999 V2000
   10.2071  -16.8227   17.4436 N   0  0  0  0  0  0  0  0  0  0  0  0
    9.9949  -17.2780   18.8105 C   0  0  1  0  0  0  0  0  0  0  0  0
   11.2115  -18.0124   19.2678 C   0  0  0  0  0  0  0  0  0  0  0  0
   12.0731  -18.3054   18.0572 C   0  0  0  0  0  0  0  0  0  0  0  0
   13.3420  -18.9770   18.4214 C   0  0  0  0  0  0  0  0  0  0  0  0
   14.4472  -18.3789   18.3901 O   0  0  0  0  0  0  0  0  0  0  0  0
    9.7205  -16.1066   19.7060 C   0  0  0  0  0  0  0  0  0  0  0  0
   10.2754  -14.9990   19.5424 O   0  0  0  0  0  0  0  0  0  0  0  0
   13.2929  -20.3143   18.8092 O   0  0  0  0  0  0  0  0  0  0  0  0
    7.0992  -14.0935   19.8928 C   0  0  0  0  0  0  0  0  0  0  0  0
    7.1242  -14.6374   21.3046 C   0  0  1  0  0  0  0  0  0  0  0  0
    6.1808  -15.6921   21.3474 O   0  0  0  0  0  0  0  0  0  0  0  0
    8.4682  -15.1660   21.6741 C   0  0  2  0  0  0  0  0  0  0  0  0
    8.8042  -16.2522   20.7748 N   0  0  0  0  0  0  0  0  0  0  0  0
    8.6043  -15.5422   23.0857 C   0  0  0  0  0  0  0  0  0  0  0  0
    9.0009  -16.6921   23.3840 O   0  0  0  0  0  0  0  0  0  0  0  0
    8.3017  -14.6507   24.1469 N   0  0  0  0  0  0  0  0  0  0  0  0
    8.3634  -15.0762   25.5315 C   0  0  1  0  0  0  0  0  0  0  0  0
    8.0312  -13.8968   26.4056 C   0  0  0  0  0  0  0  0  0  0  0  0
    9.4717  -12.9083   26.8185 S   0  0  0  0  0  0  0  0  0  0  0  0
    7.2959  -16.1213   25.7201 C   0  0  0  0  0  0  0  0  0  0  0  0
    7.4416  -17.1692   26.6192 O   0  0  0  0  0  0  0  0  0  0  0  0
    6.2222  -16.0812   25.0623 O   0  0  0  0  0  0  0  0  0  0  0  0
  2  1  1  6
  2  3  1  0
  4  3  1  0
  5  4  1  0
  6  5  2  0
  7  2  1  0
  7  8  2  0
  9  5  1  0
 11 10  1  6
 11 12  1  0
 11 13  1  0
 13 14  1  6
 14  7  1  0
 15 13  1  0
 16 15  2  0
 17 15  1  0
 18 17  1  0
 18 21  1  0
 19 20  1  0
 18 19  1  1
 21 22  1  0
 23 21  2  0
M  END
$$$$
