ETC.pdb
     RDKit          3D

 23 22  0  0  1  0  0  0  0  0999 V2000
    8.6801  -14.8162   15.2114 N   0  0  0  0  0  0  0  0  0  0  0  0
    8.6528  -15.7434   16.3341 C   0  0  1  0  0  0  0  0  0  0  0  0
    9.4397  -16.9596   15.9734 C   0  0  0  0  0  0  0  0  0  0  0  0
   10.8837  -16.5492   15.7722 C   0  0  0  0  0  0  0  0  0  0  0  0
   11.7367  -17.6861   15.3553 C   0  0  0  0  0  0  0  0  0  0  0  0
   12.2110  -17.7747   14.1946 O   0  0  0  0  0  0  0  0  0  0  0  0
    9.2268  -15.0891   17.5555 C   0  0  0  0  0  0  0  0  0  0  0  0
   10.2368  -14.3549   17.5053 O   0  0  0  0  0  0  0  0  0  0  0  0
   12.0137  -18.6808   16.2908 O   0  0  0  0  0  0  0  0  0  0  0  0
    7.3643  -12.9177   19.7575 C   0  0  0  0  0  0  0  0  0  0  0  0
    7.9563  -13.9635   20.6769 C   0  0  1  0  0  0  0  0  0  0  0  0
    6.9168  -14.8791   20.9689 O   0  0  0  0  0  0  0  0  0  0  0  0
    9.0869  -14.6932   20.0354 C   0  0  2  0  0  0  0  0  0  0  0  0
    8.6105  -15.3056   18.8110 N   0  0  0  0  0  0  0  0  0  0  0  0
    9.7673  -15.6503   20.9151 C   0  0  0  0  0  0  0  0  0  0  0  0
    9.6534  -16.8786   20.6986 O   0  0  0  0  0  0  0  0  0  0  0  0
   10.5606  -15.2438   22.0187 N   0  0  0  0  0  0  0  0  0  0  0  0
   11.1792  -16.2131   22.9017 C   0  0  1  0  0  0  0  0  0  0  0  0
   12.4491  -15.6162   23.4463 C   0  0  0  0  0  0  0  0  0  0  0  0
   13.2838  -16.6983   24.6103 S   0  0  0  0  0  0  0  0  0  0  0  0
   10.2295  -16.4340   24.0492 C   0  0  0  0  0  0  0  0  0  0  0  0
    9.1288  -15.6151   24.2626 O   0  0  0  0  0  0  0  0  0  0  0  0
   10.4017  -17.3792   24.8640 O   0  0  0  0  0  0  0  0  0  0  0  0
  2  1  1  6
  2  3  1  0
  4  3  1  0
  5  4  1  0
  6  5  2  0
  7  2  1  0
  7  8  2  0
  9  5  1  0
 11 10  1  6
 11 12  1  0
 11 13  1  0
 13 14  1  6
 14  7  1  0
 15 13  1  0
 16 15  2  0
 17 15  1  0
 18 17  1  0
 18 21  1  0
 19 20  1  0
 18 19  1  1
 21 22  1  0
 23 21  2  0
M  END
$$$$
