ETC.pdb
     RDKit          3D

 23 22  0  0  1  0  0  0  0  0999 V2000
   11.4999  -15.0214   18.0718 N   0  0  0  0  0  0  0  0  0  0  0  0
   11.7519  -15.6308   19.3703 C   0  0  1  0  0  0  0  0  0  0  0  0
   13.2190  -15.5917   19.6439 C   0  0  0  0  0  0  0  0  0  0  0  0
   13.8519  -14.5892   18.7015 C   0  0  0  0  0  0  0  0  0  0  0  0
   15.3257  -14.5412   18.8414 C   0  0  0  0  0  0  0  0  0  0  0  0
   15.9221  -15.0730   19.8117 O   0  0  0  0  0  0  0  0  0  0  0  0
   10.9983  -14.8954   20.4384 C   0  0  0  0  0  0  0  0  0  0  0  0
   10.8914  -13.6504   20.4409 O   0  0  0  0  0  0  0  0  0  0  0  0
   16.0605  -13.8822   17.8580 O   0  0  0  0  0  0  0  0  0  0  0  0
    7.6058  -15.1110   20.7879 C   0  0  0  0  0  0  0  0  0  0  0  0
    8.0954  -15.5272   22.1578 C   0  0  1  0  0  0  0  0  0  0  0  0
    8.1037  -16.9428   22.1705 O   0  0  0  0  0  0  0  0  0  0  0  0
    9.4720  -15.0260   22.4333 C   0  0  2  0  0  0  0  0  0  0  0  0
   10.3854  -15.6285   21.4824 N   0  0  0  0  0  0  0  0  0  0  0  0
    9.9126  -15.1973   23.8223 C   0  0  0  0  0  0  0  0  0  0  0  0
   10.8702  -15.9631   24.0776 O   0  0  0  0  0  0  0  0  0  0  0  0
    9.2944  -14.5262   24.9085 N   0  0  0  0  0  0  0  0  0  0  0  0
    9.7759  -14.6848   26.2668 C   0  0  1  0  0  0  0  0  0  0  0  0
    8.9866  -13.7663   27.1604 C   0  0  0  0  0  0  0  0  0  0  0  0
    9.7290  -13.5652   28.7824 S   0  0  0  0  0  0  0  0  0  0  0  0
    9.4874  -16.1054   26.6742 C   0  0  0  0  0  0  0  0  0  0  0  0
   10.3083  -16.8014   27.5515 O   0  0  0  0  0  0  0  0  0  0  0  0
    8.4809  -16.7186   26.2293 O   0  0  0  0  0  0  0  0  0  0  0  0
  2  1  1  6
  2  3  1  0
  4  3  1  0
  5  4  1  0
  6  5  2  0
  7  2  1  0
  7  8  2  0
  9  5  1  0
 11 10  1  6
 11 12  1  0
 11 13  1  0
 13 14  1  6
 14  7  1  0
 15 13  1  0
 16 15  2  0
 17 15  1  0
 18 17  1  0
 18 21  1  0
 19 20  1  0
 18 19  1  1
 21 22  1  0
 23 21  2  0
M  END
$$$$
