ETC.pdb
     RDKit          3D

 23 22  0  0  1  0  0  0  0  0999 V2000
   11.6857  -18.4783   18.9824 N   0  0  0  0  0  0  0  0  0  0  0  0
   12.0795  -18.1030   20.3334 C   0  0  1  0  0  0  0  0  0  0  0  0
   13.4928  -17.6229   20.3070 C   0  0  0  0  0  0  0  0  0  0  0  0
   14.2247  -18.2342   21.4837 C   0  0  0  0  0  0  0  0  0  0  0  0
   15.6577  -17.8601   21.5084 C   0  0  0  0  0  0  0  0  0  0  0  0
   16.5006  -18.3942   20.7440 O   0  0  0  0  0  0  0  0  0  0  0  0
   11.1698  -17.0307   20.8550 C   0  0  0  0  0  0  0  0  0  0  0  0
   11.1356  -15.8856   20.3559 O   0  0  0  0  0  0  0  0  0  0  0  0
   16.0690  -16.8834   22.4129 O   0  0  0  0  0  0  0  0  0  0  0  0
    7.6635  -16.8350   20.8679 C   0  0  0  0  0  0  0  0  0  0  0  0
    8.0268  -16.7620   22.3350 C   0  0  1  0  0  0  0  0  0  0  0  0
    7.8613  -18.0674   22.8571 O   0  0  0  0  0  0  0  0  0  0  0  0
    9.4382  -16.3276   22.5383 C   0  0  2  0  0  0  0  0  0  0  0  0
   10.3189  -17.3168   21.9491 N   0  0  0  0  0  0  0  0  0  0  0  0
    9.7845  -16.0252   23.9316 C   0  0  0  0  0  0  0  0  0  0  0  0
   10.6642  -16.7022   24.5114 O   0  0  0  0  0  0  0  0  0  0  0  0
    9.1587  -14.9854   24.6663 N   0  0  0  0  0  0  0  0  0  0  0  0
    9.4867  -14.7404   26.0571 C   0  0  1  0  0  0  0  0  0  0  0  0
    8.7035  -13.5435   26.5256 C   0  0  0  0  0  0  0  0  0  0  0  0
    9.2083  -12.9739   28.1514 S   0  0  0  0  0  0  0  0  0  0  0  0
    9.0263  -15.9430   26.8376 C   0  0  0  0  0  0  0  0  0  0  0  0
    9.7135  -16.4052   27.9520 O   0  0  0  0  0  0  0  0  0  0  0  0
    7.9908  -16.5782   26.5039 O   0  0  0  0  0  0  0  0  0  0  0  0
  2  1  1  6
  2  3  1  0
  4  3  1  0
  5  4  1  0
  6  5  2  0
  7  2  1  0
  7  8  2  0
  9  5  1  0
 11 10  1  6
 11 12  1  0
 11 13  1  0
 13 14  1  1
 14  7  1  0
 15 13  1  0
 16 15  2  0
 17 15  1  0
 18 17  1  0
 18 21  1  0
 19 20  1  0
 18 19  1  1
 21 22  1  0
 23 21  2  0
M  END
$$$$
