ETC.pdb
     RDKit          3D

 23 22  0  0  1  0  0  0  0  0999 V2000
   12.9127  -18.9893   16.9189 N   0  0  0  0  0  0  0  0  0  0  0  0
   12.9815  -19.3051   18.3390 C   0  0  1  0  0  0  0  0  0  0  0  0
   14.3530  -18.9889   18.8366 C   0  0  0  0  0  0  0  0  0  0  0  0
   15.3147  -19.0794   17.6701 C   0  0  0  0  0  0  0  0  0  0  0  0
   16.7031  -18.7419   18.0606 C   0  0  0  0  0  0  0  0  0  0  0  0
   17.2287  -17.6375   17.7707 O   0  0  0  0  0  0  0  0  0  0  0  0
   11.9538  -18.5139   19.0921 C   0  0  0  0  0  0  0  0  0  0  0  0
   11.5250  -17.4153   18.6790 O   0  0  0  0  0  0  0  0  0  0  0  0
   17.4370  -19.6889   18.7718 O   0  0  0  0  0  0  0  0  0  0  0  0
    8.7542  -19.6971   19.7099 C   0  0  0  0  0  0  0  0  0  0  0  0
    9.2057  -19.2883   21.0950 C   0  0  1  0  0  0  0  0  0  0  0  0
    9.5681  -20.4793   21.7691 O   0  0  0  0  0  0  0  0  0  0  0  0
   10.3814  -18.3729   21.0501 C   0  0  2  0  0  0  0  0  0  0  0  0
   11.4478  -19.0211   20.3127 N   0  0  0  0  0  0  0  0  0  0  0  0
   10.8206  -17.8859   22.3626 C   0  0  0  0  0  0  0  0  0  0  0  0
   11.9763  -18.1512   22.7658 O   0  0  0  0  0  0  0  0  0  0  0  0
    9.9840  -17.1166   23.2116 N   0  0  0  0  0  0  0  0  0  0  0  0
   10.4508  -16.6349   24.4969 C   0  0  1  0  0  0  0  0  0  0  0  0
    9.4153  -15.6969   25.0566 C   0  0  0  0  0  0  0  0  0  0  0  0
    9.2677  -14.1781   24.1109 S   0  0  0  0  0  0  0  0  0  0  0  0
   10.5485  -17.8304   25.4072 C   0  0  0  0  0  0  0  0  0  0  0  0
   10.1292  -19.0936   25.0119 O   0  0  0  0  0  0  0  0  0  0  0  0
   11.0190  -17.7256   26.5711 O   0  0  0  0  0  0  0  0  0  0  0  0
  2  1  1  6
  2  3  1  0
  4  3  1  0
  5  4  1  0
  6  5  2  0
  7  2  1  0
  7  8  2  0
  9  5  1  0
 11 10  1  6
 11 12  1  0
 11 13  1  0
 13 14  1  1
 14  7  1  0
 15 13  1  0
 16 15  2  0
 17 15  1  0
 18 17  1  0
 18 21  1  0
 19 20  1  0
 18 19  1  1
 21 22  1  0
 23 21  2  0
M  END
$$$$
