ETC.pdb
     RDKit          3D

 23 22  0  0  1  0  0  0  0  0999 V2000
    9.5269  -18.5294   20.1382 N   0  0  0  0  0  0  0  0  0  0  0  0
   10.6246  -17.8819   20.8430 C   0  0  1  0  0  0  0  0  0  0  0  0
   11.7599  -17.6895   19.8928 C   0  0  0  0  0  0  0  0  0  0  0  0
   11.3485  -18.2393   18.5429 C   0  0  0  0  0  0  0  0  0  0  0  0
   12.4181  -18.0938   17.5287 C   0  0  0  0  0  0  0  0  0  0  0  0
   12.3097  -18.5704   16.3706 O   0  0  0  0  0  0  0  0  0  0  0  0
   10.1734  -16.5631   21.3967 C   0  0  0  0  0  0  0  0  0  0  0  0
   10.9648  -15.7633   21.9404 O   0  0  0  0  0  0  0  0  0  0  0  0
   13.5751  -17.4038   17.8844 O   0  0  0  0  0  0  0  0  0  0  0  0
    8.2704  -13.8435   19.6376 C   0  0  0  0  0  0  0  0  0  0  0  0
    7.4445  -14.3030   20.8192 C   0  0  1  0  0  0  0  0  0  0  0  0
    6.4986  -15.2278   20.3151 O   0  0  0  0  0  0  0  0  0  0  0  0
    8.2802  -14.9723   21.8564 C   0  0  2  0  0  0  0  0  0  0  0  0
    8.8073  -16.2049   21.3050 N   0  0  0  0  0  0  0  0  0  0  0  0
    7.6029  -15.1756   23.1419 C   0  0  0  0  0  0  0  0  0  0  0  0
    6.4894  -15.7481   23.1707 O   0  0  0  0  0  0  0  0  0  0  0  0
    8.1581  -14.7464   24.3748 N   0  0  0  0  0  0  0  0  0  0  0  0
    7.5292  -15.0711   25.6401 C   0  0  1  0  0  0  0  0  0  0  0  0
    7.5076  -16.5688   25.7886 C   0  0  0  0  0  0  0  0  0  0  0  0
    6.0187  -17.3137   25.1172 S   0  0  0  0  0  0  0  0  0  0  0  0
    8.4018  -14.4999   26.7261 C   0  0  0  0  0  0  0  0  0  0  0  0
    7.9362  -14.3063   28.0198 O   0  0  0  0  0  0  0  0  0  0  0  0
    9.5971  -14.1745   26.4971 O   0  0  0  0  0  0  0  0  0  0  0  0
  2  1  1  6
  2  3  1  0
  4  3  1  0
  5  4  1  0
  6  5  2  0
  7  2  1  0
  7  8  2  0
  9  5  1  0
 11 10  1  6
 11 12  1  0
 11 13  1  0
 13 14  1  6
 14  7  1  0
 15 13  1  0
 16 15  2  0
 17 15  1  0
 18 17  1  0
 18 21  1  0
 19 20  1  0
 18 19  1  1
 21 22  1  0
 23 21  2  0
M  END
$$$$
