ETC.pdb
     RDKit          3D

 23 22  0  0  1  0  0  0  0  0999 V2000
   10.8080  -16.7141   18.1141 N   0  0  0  0  0  0  0  0  0  0  0  0
   10.6637  -17.1068   19.5091 C   0  0  1  0  0  0  0  0  0  0  0  0
   11.9622  -17.6656   19.9888 C   0  0  0  0  0  0  0  0  0  0  0  0
   12.8919  -17.7957   18.8003 C   0  0  0  0  0  0  0  0  0  0  0  0
   14.2743  -17.3711   19.1206 C   0  0  0  0  0  0  0  0  0  0  0  0
   14.5568  -16.1817   19.4128 O   0  0  0  0  0  0  0  0  0  0  0  0
   10.2629  -15.9226   20.3378 C   0  0  0  0  0  0  0  0  0  0  0  0
   10.8229  -14.8112   20.2257 O   0  0  0  0  0  0  0  0  0  0  0  0
   15.2826  -18.3322   19.0934 O   0  0  0  0  0  0  0  0  0  0  0  0
    6.9340  -14.4340   20.5225 C   0  0  0  0  0  0  0  0  0  0  0  0
    7.2962  -14.8027   21.9446 C   0  0  1  0  0  0  0  0  0  0  0  0
    6.6541  -16.0344   22.2181 O   0  0  0  0  0  0  0  0  0  0  0  0
    8.7674  -14.9668   22.1200 C   0  0  2  0  0  0  0  0  0  0  0  0
    9.2169  -16.0603   21.2811 N   0  0  0  0  0  0  0  0  0  0  0  0
    9.1988  -15.1140   23.5146 C   0  0  0  0  0  0  0  0  0  0  0  0
    9.7961  -16.1555   23.8708 O   0  0  0  0  0  0  0  0  0  0  0  0
    8.9664  -14.1161   24.4959 N   0  0  0  0  0  0  0  0  0  0  0  0
    9.3335  -14.3215   25.8833 C   0  0  1  0  0  0  0  0  0  0  0  0
    8.9377  -13.0976   26.6650 C   0  0  0  0  0  0  0  0  0  0  0  0
    9.4090  -13.1935   28.3945 S   0  0  0  0  0  0  0  0  0  0  0  0
    8.5237  -15.4871   26.3861 C   0  0  0  0  0  0  0  0  0  0  0  0
    9.0491  -16.4244   27.2654 O   0  0  0  0  0  0  0  0  0  0  0  0
    7.3289  -15.6545   26.0234 O   0  0  0  0  0  0  0  0  0  0  0  0
  2  1  1  6
  2  3  1  0
  4  3  1  0
  5  4  1  0
  6  5  2  0
  7  2  1  0
  7  8  2  0
  9  5  1  0
 11 10  1  6
 11 12  1  0
 11 13  1  0
 13 14  1  6
 14  7  1  0
 15 13  1  0
 16 15  2  0
 17 15  1  0
 18 17  1  0
 18 21  1  0
 19 20  1  0
 18 19  1  1
 21 22  1  0
 23 21  2  0
M  END
$$$$
