ETC.pdb
     RDKit          3D

 23 22  0  0  1  0  0  0  0  0999 V2000
   11.8507  -14.7195   18.1320 N   0  0  0  0  0  0  0  0  0  0  0  0
   11.8757  -15.0666   19.5462 C   0  0  1  0  0  0  0  0  0  0  0  0
   13.2152  -14.7162   20.1044 C   0  0  0  0  0  0  0  0  0  0  0  0
   14.2313  -15.6940   19.5518 C   0  0  0  0  0  0  0  0  0  0  0  0
   15.5994  -15.4224   20.0501 C   0  0  0  0  0  0  0  0  0  0  0  0
   15.8379  -14.5134   20.8849 O   0  0  0  0  0  0  0  0  0  0  0  0
   10.7929  -14.3288   20.2760 C   0  0  0  0  0  0  0  0  0  0  0  0
   10.5716  -13.1135   20.0876 O   0  0  0  0  0  0  0  0  0  0  0  0
   16.6447  -16.2079   19.5690 O   0  0  0  0  0  0  0  0  0  0  0  0
    7.3908  -14.3538   20.0794 C   0  0  0  0  0  0  0  0  0  0  0  0
    7.6297  -14.8005   21.5052 C   0  0  1  0  0  0  0  0  0  0  0  0
    7.5628  -16.2145   21.5016 O   0  0  0  0  0  0  0  0  0  0  0  0
    8.9675  -14.3739   22.0058 C   0  0  2  0  0  0  0  0  0  0  0  0
    9.9906  -15.0247   21.2115 N   0  0  0  0  0  0  0  0  0  0  0  0
    9.1656  -14.5683   23.4465 C   0  0  0  0  0  0  0  0  0  0  0  0
   10.0775  -15.3267   23.8488 O   0  0  0  0  0  0  0  0  0  0  0  0
    8.3590  -13.9281   24.4222 N   0  0  0  0  0  0  0  0  0  0  0  0
    8.5173  -14.2094   25.8356 C   0  0  1  0  0  0  0  0  0  0  0  0
    7.6416  -13.2608   26.6092 C   0  0  0  0  0  0  0  0  0  0  0  0
    7.9114  -11.5430   26.1631 S   0  0  0  0  0  0  0  0  0  0  0  0
    8.0166  -15.6108   26.0654 C   0  0  0  0  0  0  0  0  0  0  0  0
    7.5113  -16.3909   25.0341 O   0  0  0  0  0  0  0  0  0  0  0  0
    8.0391  -16.1300   27.2130 O   0  0  0  0  0  0  0  0  0  0  0  0
  2  1  1  6
  2  3  1  0
  4  3  1  0
  5  4  1  0
  6  5  2  0
  7  2  1  0
  7  8  2  0
  9  5  1  0
 11 10  1  6
 11 12  1  0
 11 13  1  0
 13 14  1  6
 14  7  1  0
 15 13  1  0
 16 15  2  0
 17 15  1  0
 18 17  1  0
 18 21  1  0
 19 20  1  0
 18 19  1  1
 21 22  1  0
 23 21  2  0
M  END
$$$$
