IWK.pdb
     RDKit          3D

 32 33  0  0  1  0  0  0  0  0999 V2000
    7.9585  -12.1795   18.8309 C   0  0  0  0  0  0  0  0  0  0  0  0
    8.0170  -13.5620   19.3965 C   0  0  0  0  0  0  0  0  0  0  0  0
    9.0661  -14.4197   18.7190 C   0  0  2  0  0  0  0  0  0  0  0  0
    8.7660  -14.4844   17.2606 C   0  0  0  0  0  0  0  0  0  0  0  0
    9.0921  -15.7834   19.3774 C   0  0  2  0  0  0  0  0  0  0  0  0
    7.8409  -16.4320   19.0458 N   0  0  0  0  0  0  0  0  0  0  0  0
    9.2245  -15.6764   20.8542 C   0  0  0  0  0  0  0  0  0  0  0  0
   10.3235  -15.3535   21.3902 O   0  0  0  0  0  0  0  0  0  0  0  0
    8.1451  -15.9253   21.7486 N   0  0  0  0  0  0  0  0  0  0  0  0
    8.2763  -15.7598   23.1784 C   0  0  1  0  0  0  0  0  0  0  0  0
    6.9419  -15.4588   23.8105 C   0  0  0  0  0  0  0  0  0  0  0  0
    6.9956  -15.0212   25.2138 C   0  0  0  0  0  0  0  0  0  0  0  0
    6.9008  -15.8531   26.3158 C   0  0  0  0  0  0  0  0  0  0  0  0
    6.9662  -15.1105   27.4407 N   0  0  0  0  0  0  0  0  0  0  0  0
    7.1018  -13.8127   27.1214 C   0  0  0  0  0  0  0  0  0  0  0  0
    7.2194  -12.6804   27.8891 C   0  0  0  0  0  0  0  0  0  0  0  0
    7.3627  -11.4347   27.2978 C   0  0  0  0  0  0  0  0  0  0  0  0
    7.3801  -11.3996   25.9115 C   0  0  0  0  0  0  0  0  0  0  0  0
    7.2629  -12.5246   25.1537 C   0  0  0  0  0  0  0  0  0  0  0  0
    7.1219  -13.7449   25.7287 C   0  0  0  0  0  0  0  0  0  0  0  0
    9.0255  -16.8450   23.8126 C   0  0  0  0  0  0  0  0  0  0  0  0
    8.6915  -18.0530   23.6108 O   0  0  0  0  0  0  0  0  0  0  0  0
   10.1410  -16.6316   24.6659 N   0  0  0  0  0  0  0  0  0  0  0  0
   10.9368  -17.7231   25.1938 C   0  0  1  0  0  0  0  0  0  0  0  0
   12.3708  -17.4875   24.9022 C   0  0  0  0  0  0  0  0  0  0  0  0
   13.2151  -18.6203   24.4818 C   0  0  0  0  0  0  0  0  0  0  0  0
   14.0308  -18.4557   23.2432 C   0  0  0  0  0  0  0  0  0  0  0  0
   14.7600  -19.7680   22.9096 C   0  0  0  0  0  0  0  0  0  0  0  0
   15.6922  -19.5809   21.8378 N   0  0  0  0  0  0  0  0  0  0  0  0
   10.6621  -17.8772   26.6250 C   0  0  0  0  0  0  0  0  0  0  0  0
   11.2261  -18.8842   27.4355 O   0  0  0  0  0  0  0  0  0  0  0  0
    9.8636  -17.0483   27.1828 O   0  0  0  0  0  0  0  0  0  0  0  0
  1  2  1  0
  2  3  1  0
  3  5  1  0
  3  4  1  6
  5  6  1  1
  7  5  1  0
  8  7  2  0
  9  7  1  0
 10  9  1  0
 11 12  1  0
 10 11  1  1
 12 20  1  0
 12 13  2  0
 13 14  1  0
 15 14  1  0
 15 16  2  0
 17 16  1  0
 18 17  2  0
 19 20  2  0
 19 18  1  0
 20 15  1  0
 21 22  2  0
 21 10  1  0
 23 21  1  0
 24 23  1  0
 24 25  1  1
 26 25  1  0
 27 26  1  0
 27 28  1  0
 29 28  1  0
 30 24  1  0
 31 30  1  0
 32 30  2  0
M  END
$$$$
