IWK.pdb
     RDKit          3D

 32 33  0  0  1  0  0  0  0  0999 V2000
    7.5968  -12.2396   18.7380 C   0  0  0  0  0  0  0  0  0  0  0  0
    7.6795  -13.6489   19.2299 C   0  0  0  0  0  0  0  0  0  0  0  0
    8.8408  -14.4067   18.6196 C   0  0  2  0  0  0  0  0  0  0  0  0
    8.5989  -14.5613   17.1572 C   0  0  0  0  0  0  0  0  0  0  0  0
    8.9983  -15.7322   19.3352 C   0  0  2  0  0  0  0  0  0  0  0  0
    7.8273  -16.5216   19.0164 N   0  0  0  0  0  0  0  0  0  0  0  0
    9.0948  -15.5519   20.8077 C   0  0  0  0  0  0  0  0  0  0  0  0
   10.1336  -15.0651   21.3398 O   0  0  0  0  0  0  0  0  0  0  0  0
    8.0457  -15.9080   21.7019 N   0  0  0  0  0  0  0  0  0  0  0  0
    8.2096  -15.8642   23.1372 C   0  0  1  0  0  0  0  0  0  0  0  0
    6.8924  -15.6058   23.8221 C   0  0  0  0  0  0  0  0  0  0  0  0
    6.9826  -15.2668   25.2506 C   0  0  0  0  0  0  0  0  0  0  0  0
    6.9358  -16.1756   26.2934 C   0  0  0  0  0  0  0  0  0  0  0  0
    7.0240  -15.5126   27.4655 N   0  0  0  0  0  0  0  0  0  0  0  0
    7.1285  -14.1933   27.2348 C   0  0  0  0  0  0  0  0  0  0  0  0
    7.2514  -13.1157   28.0768 C   0  0  0  0  0  0  0  0  0  0  0  0
    7.3559  -11.8291   27.5710 C   0  0  0  0  0  0  0  0  0  0  0  0
    7.3296  -11.6966   26.1908 C   0  0  0  0  0  0  0  0  0  0  0  0
    7.2072  -12.7676   25.3592 C   0  0  0  0  0  0  0  0  0  0  0  0
    7.1040  -14.0276   25.8505 C   0  0  0  0  0  0  0  0  0  0  0  0
    8.9608  -17.0052   23.6614 C   0  0  0  0  0  0  0  0  0  0  0  0
    8.8576  -18.1440   23.1100 O   0  0  0  0  0  0  0  0  0  0  0  0
    9.8298  -16.9219   24.7821 N   0  0  0  0  0  0  0  0  0  0  0  0
   10.8919  -17.8814   25.0161 C   0  0  1  0  0  0  0  0  0  0  0  0
   11.9770  -17.6823   24.0262 C   0  0  0  0  0  0  0  0  0  0  0  0
   13.1847  -18.5240   24.1035 C   0  0  0  0  0  0  0  0  0  0  0  0
   14.2410  -18.3188   23.0697 C   0  0  0  0  0  0  0  0  0  0  0  0
   15.4104  -19.2893   23.3057 C   0  0  0  0  0  0  0  0  0  0  0  0
   16.5097  -18.9920   22.4363 N   0  0  0  0  0  0  0  0  0  0  0  0
   11.3540  -17.7670   26.4020 C   0  0  0  0  0  0  0  0  0  0  0  0
   11.5066  -16.5437   27.0872 O   0  0  0  0  0  0  0  0  0  0  0  0
   11.6362  -18.8397   27.0386 O   0  0  0  0  0  0  0  0  0  0  0  0
  1  2  1  0
  2  3  1  0
  3  5  1  0
  3  4  1  6
  5  6  1  1
  7  5  1  0
  8  7  2  0
  9  7  1  0
 10  9  1  0
 11 12  1  0
 10 11  1  1
 12 20  1  0
 12 13  2  0
 13 14  1  0
 15 14  1  0
 15 16  2  0
 17 16  1  0
 18 17  2  0
 19 20  2  0
 19 18  1  0
 20 15  1  0
 21 22  2  0
 21 10  1  0
 23 21  1  0
 24 23  1  0
 24 25  1  6
 26 25  1  0
 27 26  1  0
 27 28  1  0
 29 28  1  0
 30 24  1  0
 31 30  1  0
 32 30  2  0
M  END
$$$$
