IWK.pdb
     RDKit          3D

 32 33  0  0  1  0  0  0  0  0999 V2000
    7.0820  -11.8605   18.8148 C   0  0  0  0  0  0  0  0  0  0  0  0
    7.2575  -13.3155   19.1097 C   0  0  0  0  0  0  0  0  0  0  0  0
    8.1890  -13.5598   20.2793 C   0  0  2  0  0  0  0  0  0  0  0  0
    9.4752  -12.8507   20.0260 C   0  0  0  0  0  0  0  0  0  0  0  0
    8.3651  -15.0521   20.4691 C   0  0  2  0  0  0  0  0  0  0  0  0
    7.0437  -15.6404   20.4086 N   0  0  0  0  0  0  0  0  0  0  0  0
    8.9940  -15.3674   21.7788 C   0  0  0  0  0  0  0  0  0  0  0  0
   10.2239  -15.1539   21.9814 O   0  0  0  0  0  0  0  0  0  0  0  0
    8.2696  -15.9204   22.8725 N   0  0  0  0  0  0  0  0  0  0  0  0
    8.8850  -16.1689   24.1565 C   0  0  1  0  0  0  0  0  0  0  0  0
    7.8633  -16.1156   25.2628 C   0  0  0  0  0  0  0  0  0  0  0  0
    8.4066  -16.2202   26.6258 C   0  0  0  0  0  0  0  0  0  0  0  0
    8.4870  -17.3855   27.3680 C   0  0  0  0  0  0  0  0  0  0  0  0
    9.0161  -17.1067   28.5778 N   0  0  0  0  0  0  0  0  0  0  0  0
    9.2902  -15.7944   28.6626 C   0  0  0  0  0  0  0  0  0  0  0  0
    9.8357  -15.0278   29.6626 C   0  0  0  0  0  0  0  0  0  0  0  0
   10.0274  -13.6660   29.4875 C   0  0  0  0  0  0  0  0  0  0  0  0
    9.6434  -13.1331   28.2661 C   0  0  0  0  0  0  0  0  0  0  0  0
    9.1025  -13.8965   27.2770 C   0  0  0  0  0  0  0  0  0  0  0  0
    8.9128  -15.2289   27.4450 C   0  0  0  0  0  0  0  0  0  0  0  0
    9.7343  -17.3604   24.1618 C   0  0  0  0  0  0  0  0  0  0  0  0
    9.2925  -18.4602   23.7072 O   0  0  0  0  0  0  0  0  0  0  0  0
   11.0662  -17.3700   24.6556 N   0  0  0  0  0  0  0  0  0  0  0  0
   11.8960  -18.5593   24.6328 C   0  0  1  0  0  0  0  0  0  0  0  0
   13.0810  -18.3298   23.7726 C   0  0  0  0  0  0  0  0  0  0  0  0
   14.0602  -19.4167   23.5918 C   0  0  0  0  0  0  0  0  0  0  0  0
   15.2390  -19.1503   22.7166 C   0  0  0  0  0  0  0  0  0  0  0  0
   16.1348  -20.3980   22.6383 C   0  0  0  0  0  0  0  0  0  0  0  0
   17.2221  -20.1950   21.7278 N   0  0  0  0  0  0  0  0  0  0  0  0
   12.2492  -18.9322   26.0052 C   0  0  0  0  0  0  0  0  0  0  0  0
   11.9650  -18.1421   27.1383 O   0  0  0  0  0  0  0  0  0  0  0  0
   12.8509  -20.0444   26.1966 O   0  0  0  0  0  0  0  0  0  0  0  0
  1  2  1  0
  2  3  1  0
  3  5  1  0
  3  4  1  6
  5  6  1  1
  7  5  1  0
  8  7  2  0
  9  7  1  0
 10  9  1  0
 11 12  1  0
 10 11  1  1
 12 20  1  0
 12 13  2  0
 13 14  1  0
 15 14  1  0
 15 16  2  0
 17 16  1  0
 18 17  2  0
 19 20  2  0
 19 18  1  0
 20 15  1  0
 21 22  2  0
 21 10  1  0
 23 21  1  0
 24 23  1  0
 24 25  1  6
 26 25  1  0
 27 26  1  0
 27 28  1  0
 29 28  1  0
 30 24  1  0
 31 30  1  0
 32 30  2  0
M  END
$$$$
