IWK.pdb
     RDKit          3D

 32 33  0  0  1  0  0  0  0  0999 V2000
    9.3217  -17.1206   18.3487 C   0  0  0  0  0  0  0  0  0  0  0  0
    8.6804  -16.2189   19.3540 C   0  0  0  0  0  0  0  0  0  0  0  0
    7.5257  -16.8849   20.0740 C   0  0  2  0  0  0  0  0  0  0  0  0
    6.5269  -17.3382   19.0650 C   0  0  0  0  0  0  0  0  0  0  0  0
    6.9465  -15.9161   21.0839 C   0  0  2  0  0  0  0  0  0  0  0  0
    6.5804  -14.7203   20.3543 N   0  0  0  0  0  0  0  0  0  0  0  0
    7.9322  -15.5742   22.1430 C   0  0  0  0  0  0  0  0  0  0  0  0
    8.6731  -14.5543   22.0416 O   0  0  0  0  0  0  0  0  0  0  0  0
    8.1064  -16.3556   23.3202 N   0  0  0  0  0  0  0  0  0  0  0  0
    9.1309  -16.0601   24.2958 C   0  0  1  0  0  0  0  0  0  0  0  0
    8.5612  -16.0558   25.6908 C   0  0  0  0  0  0  0  0  0  0  0  0
    7.5358  -15.0329   25.9479 C   0  0  0  0  0  0  0  0  0  0  0  0
    6.1683  -15.2380   25.8890 C   0  0  0  0  0  0  0  0  0  0  0  0
    5.5327  -14.0785   26.1589 N   0  0  0  0  0  0  0  0  0  0  0  0
    6.4336  -13.1106   26.3958 C   0  0  0  0  0  0  0  0  0  0  0  0
    6.2990  -11.7829   26.7189 C   0  0  0  0  0  0  0  0  0  0  0  0
    7.4151  -10.9873   26.9272 C   0  0  0  0  0  0  0  0  0  0  0  0
    8.6523  -11.5992   26.7928 C   0  0  0  0  0  0  0  0  0  0  0  0
    8.7816  -12.9160   26.4719 C   0  0  0  0  0  0  0  0  0  0  0  0
    7.6921  -13.6972   26.2667 C   0  0  0  0  0  0  0  0  0  0  0  0
   10.3336  -16.8761   24.1262 C   0  0  0  0  0  0  0  0  0  0  0  0
   10.2350  -18.1321   23.9705 O   0  0  0  0  0  0  0  0  0  0  0  0
   11.6490  -16.3398   24.1209 N   0  0  0  0  0  0  0  0  0  0  0  0
   12.8282  -17.1726   23.9815 C   0  0  1  0  0  0  0  0  0  0  0  0
   13.9179  -16.3989   23.3406 C   0  0  0  0  0  0  0  0  0  0  0  0
   14.4487  -16.8457   22.0399 C   0  0  0  0  0  0  0  0  0  0  0  0
   15.5397  -16.0374   21.4211 C   0  0  0  0  0  0  0  0  0  0  0  0
   15.9506  -16.6467   20.0700 C   0  0  0  0  0  0  0  0  0  0  0  0
   16.9112  -15.8192   19.4029 N   0  0  0  0  0  0  0  0  0  0  0  0
   13.2025  -17.7088   25.2929 C   0  0  0  0  0  0  0  0  0  0  0  0
   13.9915  -18.8626   25.4807 O   0  0  0  0  0  0  0  0  0  0  0  0
   12.7942  -17.0960   26.3386 O   0  0  0  0  0  0  0  0  0  0  0  0
  1  2  1  0
  2  3  1  0
  3  5  1  0
  3  4  1  6
  5  6  1  6
  7  5  1  0
  8  7  2  0
  9  7  1  0
 10  9  1  0
 11 12  1  0
 10 11  1  1
 12 20  1  0
 12 13  2  0
 13 14  1  0
 15 14  1  0
 15 16  2  0
 17 16  1  0
 18 17  2  0
 19 20  2  0
 19 18  1  0
 20 15  1  0
 21 22  2  0
 21 10  1  0
 23 21  1  0
 24 23  1  0
 24 25  1  1
 26 25  1  0
 27 26  1  0
 27 28  1  0
 29 28  1  0
 30 24  1  0
 31 30  1  0
 32 30  2  0
M  END
$$$$
