IWK.pdb
     RDKit          3D

 32 33  0  0  1  0  0  0  0  0999 V2000
    7.7933  -17.6798   17.6399 C   0  0  0  0  0  0  0  0  0  0  0  0
    7.1070  -17.1042   18.8368 C   0  0  0  0  0  0  0  0  0  0  0  0
    8.0359  -16.9685   20.0259 C   0  0  2  0  0  0  0  0  0  0  0  0
    8.6329  -18.3011   20.3244 C   0  0  0  0  0  0  0  0  0  0  0  0
    7.2639  -16.3924   21.1946 C   0  0  2  0  0  0  0  0  0  0  0  0
    6.6971  -15.1386   20.7443 N   0  0  0  0  0  0  0  0  0  0  0  0
    8.1446  -16.1510   22.3676 C   0  0  0  0  0  0  0  0  0  0  0  0
    8.9623  -15.1864   22.3834 O   0  0  0  0  0  0  0  0  0  0  0  0
    8.1285  -16.9726   23.5302 N   0  0  0  0  0  0  0  0  0  0  0  0
    8.9780  -16.7107   24.6698 C   0  0  1  0  0  0  0  0  0  0  0  0
    8.1561  -16.4556   25.9069 C   0  0  0  0  0  0  0  0  0  0  0  0
    7.3005  -15.2601   25.8576 C   0  0  0  0  0  0  0  0  0  0  0  0
    5.9859  -15.2341   25.4258 C   0  0  0  0  0  0  0  0  0  0  0  0
    5.5200  -13.9694   25.4949 N   0  0  0  0  0  0  0  0  0  0  0  0
    6.4823  -13.1551   25.9592 C   0  0  0  0  0  0  0  0  0  0  0  0
    6.5063  -11.8065   26.2156 C   0  0  0  0  0  0  0  0  0  0  0  0
    7.6489  -11.1998   26.7140 C   0  0  0  0  0  0  0  0  0  0  0  0
    8.7457  -12.0194   26.9345 C   0  0  0  0  0  0  0  0  0  0  0  0
    8.7181  -13.3563   26.6786 C   0  0  0  0  0  0  0  0  0  0  0  0
    7.6023  -13.9531   26.1902 C   0  0  0  0  0  0  0  0  0  0  0  0
   10.0392  -17.7050   24.8318 C   0  0  0  0  0  0  0  0  0  0  0  0
    9.7669  -18.8604   25.2818 O   0  0  0  0  0  0  0  0  0  0  0  0
   11.3996  -17.4579   24.5060 N   0  0  0  0  0  0  0  0  0  0  0  0
   12.4518  -18.4182   24.7787 C   0  0  1  0  0  0  0  0  0  0  0  0
   13.7400  -17.9194   24.2416 C   0  0  0  0  0  0  0  0  0  0  0  0
   14.5910  -18.8288   23.4529 C   0  0  0  0  0  0  0  0  0  0  0  0
   14.7591  -18.5357   21.9995 C   0  0  0  0  0  0  0  0  0  0  0  0
   15.7110  -19.5595   21.3583 C   0  0  0  0  0  0  0  0  0  0  0  0
   16.6859  -18.9099   20.5335 N   0  0  0  0  0  0  0  0  0  0  0  0
   12.4996  -18.6916   26.2176 C   0  0  0  0  0  0  0  0  0  0  0  0
   12.1943  -17.7418   27.2145 O   0  0  0  0  0  0  0  0  0  0  0  0
   12.8358  -19.8641   26.6022 O   0  0  0  0  0  0  0  0  0  0  0  0
  1  2  1  0
  2  3  1  0
  3  5  1  0
  3  4  1  1
  5  6  1  6
  7  5  1  0
  8  7  2  0
  9  7  1  0
 10  9  1  0
 11 12  1  0
 10 11  1  1
 12 20  1  0
 12 13  2  0
 13 14  1  0
 15 14  1  0
 15 16  2  0
 17 16  1  0
 18 17  2  0
 19 20  2  0
 19 18  1  0
 20 15  1  0
 21 22  2  0
 21 10  1  0
 23 21  1  0
 24 23  1  0
 24 25  1  1
 26 25  1  0
 27 26  1  0
 27 28  1  0
 29 28  1  0
 30 24  1  0
 31 30  1  0
 32 30  2  0
M  END
$$$$
