IWK.pdb
     RDKit          3D

 32 33  0  0  1  0  0  0  0  0999 V2000
   11.2866  -20.1825   17.4897 C   0  0  0  0  0  0  0  0  0  0  0  0
   10.4624  -18.9458   17.6506 C   0  0  0  0  0  0  0  0  0  0  0  0
   10.4162  -18.4648   19.0866 C   0  0  2  0  0  0  0  0  0  0  0  0
    9.9511  -19.5840   19.9539 C   0  0  0  0  0  0  0  0  0  0  0  0
    9.5257  -17.2428   19.1714 C   0  0  2  0  0  0  0  0  0  0  0  0
   10.0219  -16.2948   18.1961 N   0  0  0  0  0  0  0  0  0  0  0  0
    9.5611  -16.6319   20.5263 C   0  0  0  0  0  0  0  0  0  0  0  0
   10.6370  -16.1755   21.0095 O   0  0  0  0  0  0  0  0  0  0  0  0
    8.4096  -16.5212   21.3562 N   0  0  0  0  0  0  0  0  0  0  0  0
    8.4779  -15.9981   22.7018 C   0  0  1  0  0  0  0  0  0  0  0  0
    7.1295  -15.5014   23.1558 C   0  0  0  0  0  0  0  0  0  0  0  0
    7.0820  -14.9796   24.5302 C   0  0  0  0  0  0  0  0  0  0  0  0
    6.9159  -15.7447   25.6715 C   0  0  0  0  0  0  0  0  0  0  0  0
    6.8975  -14.9350   26.7510 N   0  0  0  0  0  0  0  0  0  0  0  0
    7.0467  -13.6574   26.3636 C   0  0  0  0  0  0  0  0  0  0  0  0
    7.1029  -12.4798   27.0674 C   0  0  0  0  0  0  0  0  0  0  0  0
    7.2790  -11.2704   26.4128 C   0  0  0  0  0  0  0  0  0  0  0  0
    7.3932  -11.3187   25.0315 C   0  0  0  0  0  0  0  0  0  0  0  0
    7.3366  -12.4885   24.3372 C   0  0  0  0  0  0  0  0  0  0  0  0
    7.1637  -13.6733   24.9741 C   0  0  0  0  0  0  0  0  0  0  0  0
    9.1435  -16.9075   23.6351 C   0  0  0  0  0  0  0  0  0  0  0  0
    8.8103  -18.1318   23.6791 O   0  0  0  0  0  0  0  0  0  0  0  0
   10.1741  -16.5005   24.5238 N   0  0  0  0  0  0  0  0  0  0  0  0
   10.9028  -17.4412   25.3533 C   0  0  1  0  0  0  0  0  0  0  0  0
   12.3261  -17.4778   24.9414 C   0  0  0  0  0  0  0  0  0  0  0  0
   13.0879  -18.7303   25.0963 C   0  0  0  0  0  0  0  0  0  0  0  0
   14.5164  -18.7315   24.6649 C   0  0  0  0  0  0  0  0  0  0  0  0
   15.1542  -20.1026   24.9450 C   0  0  0  0  0  0  0  0  0  0  0  0
   16.4722  -20.1806   24.3888 N   0  0  0  0  0  0  0  0  0  0  0  0
   10.7245  -17.0854   26.7636 C   0  0  0  0  0  0  0  0  0  0  0  0
    9.9058  -16.0301   27.2165 O   0  0  0  0  0  0  0  0  0  0  0  0
   11.3449  -17.7722   27.6463 O   0  0  0  0  0  0  0  0  0  0  0  0
  1  2  1  0
  2  3  1  0
  3  5  1  0
  3  4  1  1
  5  6  1  6
  7  5  1  0
  8  7  2  0
  9  7  1  0
 10  9  1  0
 11 12  1  0
 10 11  1  1
 12 20  1  0
 12 13  2  0
 13 14  1  0
 15 14  1  0
 15 16  2  0
 17 16  1  0
 18 17  2  0
 19 20  2  0
 19 18  1  0
 20 15  1  0
 21 22  2  0
 21 10  1  0
 23 21  1  0
 24 23  1  0
 24 25  1  6
 26 25  1  0
 27 26  1  0
 27 28  1  0
 29 28  1  0
 30 24  1  0
 31 30  1  0
 32 30  2  0
M  END
$$$$
