IWK.pdb
     RDKit          3D

 32 33  0  0  1  0  0  0  0  0999 V2000
    7.0034  -12.6502   18.2715 C   0  0  0  0  0  0  0  0  0  0  0  0
    6.9228  -13.9193   19.0573 C   0  0  0  0  0  0  0  0  0  0  0  0
    7.9997  -14.0111   20.1190 C   0  0  2  0  0  0  0  0  0  0  0  0
    9.3279  -13.8014   19.4762 C   0  0  0  0  0  0  0  0  0  0  0  0
    7.8890  -15.3475   20.8229 C   0  0  2  0  0  0  0  0  0  0  0  0
    6.4821  -15.5678   21.0837 N   0  0  0  0  0  0  0  0  0  0  0  0
    8.6430  -15.3562   22.1041 C   0  0  0  0  0  0  0  0  0  0  0  0
    9.3818  -14.3843   22.4342 O   0  0  0  0  0  0  0  0  0  0  0  0
    8.5864  -16.4373   23.0287 N   0  0  0  0  0  0  0  0  0  0  0  0
    9.4258  -16.4898   24.2040 C   0  0  1  0  0  0  0  0  0  0  0  0
    8.5966  -16.6547   25.4514 C   0  0  0  0  0  0  0  0  0  0  0  0
    7.5914  -15.6056   25.6811 C   0  0  0  0  0  0  0  0  0  0  0  0
    6.2285  -15.7463   25.4853 C   0  0  0  0  0  0  0  0  0  0  0  0
    5.6151  -14.5790   25.7720 N   0  0  0  0  0  0  0  0  0  0  0  0
    6.5263  -13.6680   26.1524 C   0  0  0  0  0  0  0  0  0  0  0  0
    6.4127  -12.3582   26.5483 C   0  0  0  0  0  0  0  0  0  0  0  0
    7.5340  -11.6267   26.9084 C   0  0  0  0  0  0  0  0  0  0  0  0
    8.7542  -12.2830   26.8467 C   0  0  0  0  0  0  0  0  0  0  0  0
    8.8627  -13.5818   26.4533 C   0  0  0  0  0  0  0  0  0  0  0  0
    7.7680  -14.3003   26.0995 C   0  0  0  0  0  0  0  0  0  0  0  0
   10.5332  -17.4374   24.0731 C   0  0  0  0  0  0  0  0  0  0  0  0
   10.3580  -18.5441   23.4763 O   0  0  0  0  0  0  0  0  0  0  0  0
   11.8363  -17.1937   24.5835 N   0  0  0  0  0  0  0  0  0  0  0  0
   12.9212  -18.1444   24.4327 C   0  0  1  0  0  0  0  0  0  0  0  0
   14.0324  -17.5235   23.6732 C   0  0  0  0  0  0  0  0  0  0  0  0
   15.2781  -18.2850   23.4693 C   0  0  0  0  0  0  0  0  0  0  0  0
   16.3931  -17.6096   22.7432 C   0  0  0  0  0  0  0  0  0  0  0  0
   17.5750  -18.5778   22.5670 C   0  0  0  0  0  0  0  0  0  0  0  0
   18.5451  -18.0457   21.6568 N   0  0  0  0  0  0  0  0  0  0  0  0
   13.3314  -18.6276   25.7539 C   0  0  0  0  0  0  0  0  0  0  0  0
   14.0639  -19.8132   25.9710 O   0  0  0  0  0  0  0  0  0  0  0  0
   13.0114  -17.9348   26.7802 O   0  0  0  0  0  0  0  0  0  0  0  0
  1  2  1  0
  2  3  1  0
  3  5  1  0
  3  4  1  6
  5  6  1  1
  7  5  1  0
  8  7  2  0
  9  7  1  0
 10  9  1  0
 11 12  1  0
 10 11  1  1
 12 20  1  0
 12 13  2  0
 13 14  1  0
 15 14  1  0
 15 16  2  0
 17 16  1  0
 18 17  2  0
 19 20  2  0
 19 18  1  0
 20 15  1  0
 21 22  2  0
 21 10  1  0
 23 21  1  0
 24 23  1  0
 24 25  1  1
 26 25  1  0
 27 26  1  0
 27 28  1  0
 29 28  1  0
 30 24  1  0
 31 30  1  0
 32 30  2  0
M  END
$$$$
