IWK.pdb
     RDKit          3D

 32 33  0  0  1  0  0  0  0  0999 V2000
   10.8754  -22.7023   21.0174 C   0  0  0  0  0  0  0  0  0  0  0  0
   10.0700  -21.5982   20.4114 C   0  0  0  0  0  0  0  0  0  0  0  0
   10.1062  -20.3326   21.2436 C   0  0  2  0  0  0  0  0  0  0  0  0
    9.6009  -20.6417   22.6112 C   0  0  0  0  0  0  0  0  0  0  0  0
    9.2999  -19.2573   20.5454 C   0  0  2  0  0  0  0  0  0  0  0  0
    9.7798  -19.1940   19.1810 N   0  0  0  0  0  0  0  0  0  0  0  0
    9.4716  -17.9328   21.1984 C   0  0  0  0  0  0  0  0  0  0  0  0
   10.5576  -17.2921   21.1013 O   0  0  0  0  0  0  0  0  0  0  0  0
    8.4460  -17.3075   21.9627 N   0  0  0  0  0  0  0  0  0  0  0  0
    8.6538  -16.0524   22.6486 C   0  0  1  0  0  0  0  0  0  0  0  0
    7.3566  -15.3011   22.8019 C   0  0  0  0  0  0  0  0  0  0  0  0
    7.4687  -13.9743   23.4271 C   0  0  0  0  0  0  0  0  0  0  0  0
    8.0216  -12.8536   22.8324 C   0  0  0  0  0  0  0  0  0  0  0  0
    7.9783  -11.8219   23.7014 N   0  0  0  0  0  0  0  0  0  0  0  0
    7.4142  -12.2212   24.8534 C   0  0  0  0  0  0  0  0  0  0  0  0
    7.1373  -11.5591   26.0239 C   0  0  0  0  0  0  0  0  0  0  0  0
    6.5252  -12.2144   27.0813 C   0  0  0  0  0  0  0  0  0  0  0  0
    6.2146  -13.5526   26.8912 C   0  0  0  0  0  0  0  0  0  0  0  0
    6.4911  -14.2057   25.7290 C   0  0  0  0  0  0  0  0  0  0  0  0
    7.0905  -13.5681   24.6928 C   0  0  0  0  0  0  0  0  0  0  0  0
    9.4293  -16.1966   23.8811 C   0  0  0  0  0  0  0  0  0  0  0  0
    9.8045  -15.1672   24.5222 O   0  0  0  0  0  0  0  0  0  0  0  0
    9.8013  -17.4532   24.4292 N   0  0  0  0  0  0  0  0  0  0  0  0
   10.6388  -17.5708   25.6075 C   0  0  1  0  0  0  0  0  0  0  0  0
   10.6933  -18.9853   26.0470 C   0  0  0  0  0  0  0  0  0  0  0  0
    9.4352  -19.7009   26.3265 C   0  0  0  0  0  0  0  0  0  0  0  0
    9.5160  -21.1656   26.5998 C   0  0  0  0  0  0  0  0  0  0  0  0
    8.1186  -21.7243   26.9164 C   0  0  0  0  0  0  0  0  0  0  0  0
    8.1819  -23.1198   27.2344 N   0  0  0  0  0  0  0  0  0  0  0  0
   11.9618  -17.0093   25.3218 C   0  0  0  0  0  0  0  0  0  0  0  0
   12.4723  -16.8071   24.0227 O   0  0  0  0  0  0  0  0  0  0  0  0
   12.7060  -16.6763   26.3072 O   0  0  0  0  0  0  0  0  0  0  0  0
  1  2  1  0
  2  3  1  0
  3  5  1  0
  3  4  1  1
  5  6  1  6
  7  5  1  0
  8  7  2  0
  9  7  1  0
 10  9  1  0
 11 12  1  0
 10 11  1  1
 12 20  1  0
 12 13  2  0
 13 14  1  0
 15 14  1  0
 15 16  2  0
 17 16  1  0
 18 17  2  0
 19 20  2  0
 19 18  1  0
 20 15  1  0
 21 22  2  0
 21 10  1  0
 23 21  1  0
 24 23  1  0
 24 25  1  6
 26 25  1  0
 27 26  1  0
 27 28  1  0
 29 28  1  0
 30 24  1  0
 31 30  1  0
 32 30  2  0
M  END
$$$$
