IWK.pdb
     RDKit          3D

 32 33  0  0  1  0  0  0  0  0999 V2000
   10.5835  -22.2362   19.3977 C   0  0  0  0  0  0  0  0  0  0  0  0
    9.7637  -21.0067   19.1714 C   0  0  0  0  0  0  0  0  0  0  0  0
    9.9178  -19.9957   20.2892 C   0  0  2  0  0  0  0  0  0  0  0  0
    9.5826  -20.6545   21.5833 C   0  0  0  0  0  0  0  0  0  0  0  0
    9.0439  -18.7943   19.9946 C   0  0  2  0  0  0  0  0  0  0  0  0
    9.3656  -18.3623   18.6508 N   0  0  0  0  0  0  0  0  0  0  0  0
    9.2969  -17.6848   20.9512 C   0  0  0  0  0  0  0  0  0  0  0  0
   10.4444  -17.1644   21.0598 O   0  0  0  0  0  0  0  0  0  0  0  0
    8.2853  -17.1431   21.7939 N   0  0  0  0  0  0  0  0  0  0  0  0
    8.5664  -16.1170   22.7722 C   0  0  1  0  0  0  0  0  0  0  0  0
    7.3523  -15.2585   23.0164 C   0  0  0  0  0  0  0  0  0  0  0  0
    7.5526  -14.1365   23.9464 C   0  0  0  0  0  0  0  0  0  0  0  0
    8.0147  -12.8797   23.5965 C   0  0  0  0  0  0  0  0  0  0  0  0
    8.0960  -12.1118   24.7033 N   0  0  0  0  0  0  0  0  0  0  0  0
    7.7024  -12.8176   25.7763 C   0  0  0  0  0  0  0  0  0  0  0  0
    7.5956  -12.4934   27.1062 C   0  0  0  0  0  0  0  0  0  0  0  0
    7.1410  -13.4235   28.0284 C   0  0  0  0  0  0  0  0  0  0  0  0
    6.8065  -14.6769   27.5383 C   0  0  0  0  0  0  0  0  0  0  0  0
    6.9141  -14.9947   26.2188 C   0  0  0  0  0  0  0  0  0  0  0  0
    7.3592  -14.0876   25.3140 C   0  0  0  0  0  0  0  0  0  0  0  0
    9.2020  -16.6400   23.9820 C   0  0  0  0  0  0  0  0  0  0  0  0
    8.7402  -17.6791   24.5465 O   0  0  0  0  0  0  0  0  0  0  0  0
   10.3415  -16.0455   24.5871 N   0  0  0  0  0  0  0  0  0  0  0  0
   11.1247  -16.7218   25.6033 C   0  0  1  0  0  0  0  0  0  0  0  0
   12.5345  -16.8345   25.1599 C   0  0  0  0  0  0  0  0  0  0  0  0
   13.5034  -17.5430   26.0157 C   0  0  0  0  0  0  0  0  0  0  0  0
   14.9123  -17.6419   25.5340 C   0  0  0  0  0  0  0  0  0  0  0  0
   15.7664  -18.4211   26.5482 C   0  0  0  0  0  0  0  0  0  0  0  0
   17.0938  -18.6295   26.0510 N   0  0  0  0  0  0  0  0  0  0  0  0
   10.9811  -16.0145   26.8786 C   0  0  0  0  0  0  0  0  0  0  0  0
   11.1708  -16.6129   28.1416 O   0  0  0  0  0  0  0  0  0  0  0  0
   10.6669  -14.7750   26.8536 O   0  0  0  0  0  0  0  0  0  0  0  0
  1  2  1  0
  2  3  1  0
  3  5  1  0
  3  4  1  1
  5  6  1  6
  7  5  1  0
  8  7  2  0
  9  7  1  0
 10  9  1  0
 11 12  1  0
 10 11  1  1
 12 20  1  0
 12 13  2  0
 13 14  1  0
 15 14  1  0
 15 16  2  0
 17 16  1  0
 18 17  2  0
 19 20  2  0
 19 18  1  0
 20 15  1  0
 21 22  2  0
 21 10  1  0
 23 21  1  0
 24 23  1  0
 24 25  1  6
 26 25  1  0
 27 26  1  0
 27 28  1  0
 29 28  1  0
 30 24  1  0
 31 30  1  0
 32 30  2  0
M  END
$$$$
