IWK.pdb
     RDKit          3D

 32 33  0  0  1  0  0  0  0  0999 V2000
    9.2428  -15.9708   15.1688 C   0  0  0  0  0  0  0  0  0  0  0  0
    8.4681  -15.0275   16.0318 C   0  0  0  0  0  0  0  0  0  0  0  0
    8.8197  -15.1651   17.4990 C   0  0  2  0  0  0  0  0  0  0  0  0
    8.7237  -16.6016   17.8839 C   0  0  0  0  0  0  0  0  0  0  0  0
    7.9057  -14.2734   18.3133 C   0  0  2  0  0  0  0  0  0  0  0  0
    8.0546  -12.9318   17.7897 N   0  0  0  0  0  0  0  0  0  0  0  0
    8.2658  -14.2907   19.7556 C   0  0  0  0  0  0  0  0  0  0  0  0
    9.3784  -13.8431   20.1568 O   0  0  0  0  0  0  0  0  0  0  0  0
    7.4003  -14.8021   20.7638 N   0  0  0  0  0  0  0  0  0  0  0  0
    7.7708  -14.8181   22.1607 C   0  0  1  0  0  0  0  0  0  0  0  0
    6.5561  -14.6791   23.0417 C   0  0  0  0  0  0  0  0  0  0  0  0
    6.8241  -14.6898   24.4880 C   0  0  0  0  0  0  0  0  0  0  0  0
    6.9653  -15.8247   25.2674 C   0  0  0  0  0  0  0  0  0  0  0  0
    7.1803  -15.4602   26.5489 N   0  0  0  0  0  0  0  0  0  0  0  0
    7.1871  -14.1204   26.6455 C   0  0  0  0  0  0  0  0  0  0  0  0
    7.3709  -13.2723   27.7096 C   0  0  0  0  0  0  0  0  0  0  0  0
    7.3416  -11.8974   27.5336 C   0  0  0  0  0  0  0  0  0  0  0  0
    7.1202  -11.4373   26.2442 C   0  0  0  0  0  0  0  0  0  0  0  0
    6.9381  -12.2815   25.1917 C   0  0  0  0  0  0  0  0  0  0  0  0
    6.9653  -13.6270   25.3602 C   0  0  0  0  0  0  0  0  0  0  0  0
    8.6545  -15.9325   22.5045 C   0  0  0  0  0  0  0  0  0  0  0  0
    8.3653  -17.1125   22.1361 O   0  0  0  0  0  0  0  0  0  0  0  0
    9.8566  -15.7783   23.2456 N   0  0  0  0  0  0  0  0  0  0  0  0
   10.7445  -16.8898   23.5279 C   0  0  1  0  0  0  0  0  0  0  0  0
   12.0484  -16.6754   22.8564 C   0  0  0  0  0  0  0  0  0  0  0  0
   13.1342  -17.6502   23.0656 C   0  0  0  0  0  0  0  0  0  0  0  0
   14.4350  -17.3979   22.3792 C   0  0  0  0  0  0  0  0  0  0  0  0
   15.4262  -18.5329   22.6866 C   0  0  0  0  0  0  0  0  0  0  0  0
   16.6977  -18.2859   22.0744 N   0  0  0  0  0  0  0  0  0  0  0  0
   10.8689  -17.0565   24.9785 C   0  0  0  0  0  0  0  0  0  0  0  0
   11.3724  -18.2171   25.6017 O   0  0  0  0  0  0  0  0  0  0  0  0
   10.5025  -16.0919   25.7342 O   0  0  0  0  0  0  0  0  0  0  0  0
  1  2  1  0
  2  3  1  0
  3  5  1  0
  3  4  1  1
  5  6  1  6
  7  5  1  0
  8  7  2  0
  9  7  1  0
 10  9  1  0
 11 12  1  0
 10 11  1  1
 12 20  1  0
 12 13  2  0
 13 14  1  0
 15 14  1  0
 15 16  2  0
 17 16  1  0
 18 17  2  0
 19 20  2  0
 19 18  1  0
 20 15  1  0
 21 22  2  0
 21 10  1  0
 23 21  1  0
 24 23  1  0
 24 25  1  1
 26 25  1  0
 27 26  1  0
 27 28  1  0
 29 28  1  0
 30 24  1  0
 31 30  1  0
 32 30  2  0
M  END
$$$$
