IWK.pdb
     RDKit          3D

 32 33  0  0  1  0  0  0  0  0999 V2000
    7.5458  -12.4128   20.8446 C   0  0  0  0  0  0  0  0  0  0  0  0
    7.6225  -13.8483   21.2547 C   0  0  0  0  0  0  0  0  0  0  0  0
    8.6166  -14.6342   20.4244 C   0  0  2  0  0  0  0  0  0  0  0  0
    8.1770  -14.6130   19.0005 C   0  0  0  0  0  0  0  0  0  0  0  0
    8.7322  -16.0362   20.9856 C   0  0  2  0  0  0  0  0  0  0  0  0
    7.4135  -16.6285   20.9069 N   0  0  0  0  0  0  0  0  0  0  0  0
    9.1921  -16.0243   22.3993 C   0  0  0  0  0  0  0  0  0  0  0  0
   10.2510  -15.4211   22.7370 O   0  0  0  0  0  0  0  0  0  0  0  0
    8.4863  -16.6781   23.4487 N   0  0  0  0  0  0  0  0  0  0  0  0
    8.9841  -16.7146   24.8051 C   0  0  1  0  0  0  0  0  0  0  0  0
    7.8631  -16.5321   25.7955 C   0  0  0  0  0  0  0  0  0  0  0  0
    7.1544  -15.2458   25.7125 C   0  0  0  0  0  0  0  0  0  0  0  0
    5.9058  -15.0550   25.1469 C   0  0  0  0  0  0  0  0  0  0  0  0
    5.5767  -13.7485   25.2256 N   0  0  0  0  0  0  0  0  0  0  0  0
    6.5660  -13.0659   25.8257 C   0  0  0  0  0  0  0  0  0  0  0  0
    6.7096  -11.7385   26.1458 C   0  0  0  0  0  0  0  0  0  0  0  0
    7.8505  -11.2838   26.7890 C   0  0  0  0  0  0  0  0  0  0  0  0
    8.8200  -12.2303   27.0848 C   0  0  0  0  0  0  0  0  0  0  0  0
    8.6740  -13.5457   26.7654 C   0  0  0  0  0  0  0  0  0  0  0  0
    7.5596  -13.9940   26.1355 C   0  0  0  0  0  0  0  0  0  0  0  0
    9.8515  -17.8642   25.0644 C   0  0  0  0  0  0  0  0  0  0  0  0
    9.4167  -19.0437   24.8870 O   0  0  0  0  0  0  0  0  0  0  0  0
   11.1939  -17.7463   25.5140 N   0  0  0  0  0  0  0  0  0  0  0  0
   12.0080  -18.9002   25.8443 C   0  0  1  0  0  0  0  0  0  0  0  0
   13.4372  -18.5953   25.5968 C   0  0  0  0  0  0  0  0  0  0  0  0
   14.1181  -19.2214   24.4489 C   0  0  0  0  0  0  0  0  0  0  0  0
   14.4404  -18.3559   23.2769 C   0  0  0  0  0  0  0  0  0  0  0  0
   15.1280  -19.1842   22.1786 C   0  0  0  0  0  0  0  0  0  0  0  0
   15.3363  -18.4009   20.9972 N   0  0  0  0  0  0  0  0  0  0  0  0
   11.7407  -19.3041   27.2274 C   0  0  0  0  0  0  0  0  0  0  0  0
   12.2907  -20.4503   27.8378 O   0  0  0  0  0  0  0  0  0  0  0  0
   10.9626  -18.5747   27.9334 O   0  0  0  0  0  0  0  0  0  0  0  0
  1  2  1  0
  2  3  1  0
  3  5  1  0
  3  4  1  6
  5  6  1  1
  7  5  1  0
  8  7  2  0
  9  7  1  0
 10  9  1  0
 11 12  1  0
 10 11  1  1
 12 20  1  0
 12 13  2  0
 13 14  1  0
 15 14  1  0
 15 16  2  0
 17 16  1  0
 18 17  2  0
 19 20  2  0
 19 18  1  0
 20 15  1  0
 21 22  2  0
 21 10  1  0
 23 21  1  0
 24 23  1  0
 24 25  1  1
 26 25  1  0
 27 26  1  0
 27 28  1  0
 29 28  1  0
 30 24  1  0
 31 30  1  0
 32 30  2  0
M  END
$$$$
