IWK.pdb
     RDKit          3D

 32 33  0  0  1  0  0  0  0  0999 V2000
    7.1470  -12.2338   18.6043 C   0  0  0  0  0  0  0  0  0  0  0  0
    7.5511  -13.5248   19.2406 C   0  0  0  0  0  0  0  0  0  0  0  0
    8.7544  -14.1502   18.5651 C   0  0  2  0  0  0  0  0  0  0  0  0
    8.4565  -14.3223   17.1150 C   0  0  0  0  0  0  0  0  0  0  0  0
    9.0891  -15.4547   19.2578 C   0  0  2  0  0  0  0  0  0  0  0  0
    8.0353  -16.3890   18.9224 N   0  0  0  0  0  0  0  0  0  0  0  0
    9.1602  -15.2890   20.7335 C   0  0  0  0  0  0  0  0  0  0  0  0
   10.0899  -14.6220   21.2722 O   0  0  0  0  0  0  0  0  0  0  0  0
    8.2061  -15.8584   21.6236 N   0  0  0  0  0  0  0  0  0  0  0  0
    8.3098  -15.7147   23.0580 C   0  0  1  0  0  0  0  0  0  0  0  0
    6.9504  -15.5255   23.6800 C   0  0  0  0  0  0  0  0  0  0  0  0
    6.9552  -15.2025   25.1151 C   0  0  0  0  0  0  0  0  0  0  0  0
    6.7275  -16.1051   26.1393 C   0  0  0  0  0  0  0  0  0  0  0  0
    6.7854  -15.4588   27.3227 N   0  0  0  0  0  0  0  0  0  0  0  0
    7.0448  -14.1568   27.1174 C   0  0  0  0  0  0  0  0  0  0  0  0
    7.2077  -13.1008   27.9796 C   0  0  0  0  0  0  0  0  0  0  0  0
    7.4867  -11.8303   27.4998 C   0  0  0  0  0  0  0  0  0  0  0  0
    7.5899  -11.6911   26.1238 C   0  0  0  0  0  0  0  0  0  0  0  0
    7.4274  -12.7407   25.2721 C   0  0  0  0  0  0  0  0  0  0  0  0
    7.1536  -13.9848   25.7379 C   0  0  0  0  0  0  0  0  0  0  0  0
    9.1295  -16.7559   23.6786 C   0  0  0  0  0  0  0  0  0  0  0  0
    8.9066  -17.9794   23.4234 O   0  0  0  0  0  0  0  0  0  0  0  0
   10.1961  -16.4814   24.5757 N   0  0  0  0  0  0  0  0  0  0  0  0
   10.9701  -17.5320   25.2089 C   0  0  1  0  0  0  0  0  0  0  0  0
   12.3658  -17.4984   24.7111 C   0  0  0  0  0  0  0  0  0  0  0  0
   12.6416  -17.8863   23.3159 C   0  0  0  0  0  0  0  0  0  0  0  0
   14.0650  -17.9015   22.8683 C   0  0  0  0  0  0  0  0  0  0  0  0
   14.1556  -18.3587   21.4027 C   0  0  0  0  0  0  0  0  0  0  0  0
   15.5046  -18.2910   20.9247 N   0  0  0  0  0  0  0  0  0  0  0  0
   10.8788  -17.3931   26.6648 C   0  0  0  0  0  0  0  0  0  0  0  0
   11.4290  -18.3107   27.5837 O   0  0  0  0  0  0  0  0  0  0  0  0
   10.2653  -16.3767   27.1406 O   0  0  0  0  0  0  0  0  0  0  0  0
  1  2  1  0
  2  3  1  0
  3  5  1  0
  3  4  1  6
  5  6  1  1
  7  5  1  0
  8  7  2  0
  9  7  1  0
 10  9  1  0
 11 12  1  0
 10 11  1  1
 12 20  1  0
 12 13  2  0
 13 14  1  0
 15 14  1  0
 15 16  2  0
 17 16  1  0
 18 17  2  0
 19 20  2  0
 19 18  1  0
 20 15  1  0
 21 22  2  0
 21 10  1  0
 23 21  1  0
 24 23  1  0
 24 25  1  6
 26 25  1  0
 27 26  1  0
 27 28  1  0
 29 28  1  0
 30 24  1  0
 31 30  1  0
 32 30  2  0
M  END
$$$$
