IWK.pdb
     RDKit          3D

 32 33  0  0  1  0  0  0  0  0999 V2000
    9.8650  -18.2602   16.3514 C   0  0  0  0  0  0  0  0  0  0  0  0
    8.9135  -18.2603   17.5045 C   0  0  0  0  0  0  0  0  0  0  0  0
    9.6091  -18.0142   18.8277 C   0  0  2  0  0  0  0  0  0  0  0  0
   10.7579  -18.9557   18.9496 C   0  0  0  0  0  0  0  0  0  0  0  0
    8.6038  -18.1609   19.9508 C   0  0  2  0  0  0  0  0  0  0  0  0
    7.3771  -17.5393   19.4982 N   0  0  0  0  0  0  0  0  0  0  0  0
    9.0719  -17.4967   21.1957 C   0  0  0  0  0  0  0  0  0  0  0  0
   10.1240  -17.8787   21.7843 O   0  0  0  0  0  0  0  0  0  0  0  0
    8.3819  -16.4071   21.7986 N   0  0  0  0  0  0  0  0  0  0  0  0
    8.8046  -15.8278   23.0534 C   0  0  1  0  0  0  0  0  0  0  0  0
    8.0103  -14.5866   23.3685 C   0  0  0  0  0  0  0  0  0  0  0  0
    8.2108  -14.0380   24.7186 C   0  0  0  0  0  0  0  0  0  0  0  0
    9.2056  -14.4241   25.5998 C   0  0  0  0  0  0  0  0  0  0  0  0
    9.0750  -13.7301   26.7498 N   0  0  0  0  0  0  0  0  0  0  0  0
    8.0263  -12.8954   26.6605 C   0  0  0  0  0  0  0  0  0  0  0  0
    7.4917  -11.9870   27.5405 C   0  0  0  0  0  0  0  0  0  0  0  0
    6.3880  -11.2249   27.1894 C   0  0  0  0  0  0  0  0  0  0  0  0
    5.8655  -11.4296   25.9212 C   0  0  0  0  0  0  0  0  0  0  0  0
    6.3982  -12.3316   25.0516 C   0  0  0  0  0  0  0  0  0  0  0  0
    7.4773  -13.0794   25.3919 C   0  0  0  0  0  0  0  0  0  0  0  0
    8.8725  -16.8057   24.1398 C   0  0  0  0  0  0  0  0  0  0  0  0
    7.8813  -17.5618   24.3798 O   0  0  0  0  0  0  0  0  0  0  0  0
   10.0121  -16.9744   24.9710 N   0  0  0  0  0  0  0  0  0  0  0  0
   10.2071  -18.1524   25.7943 C   0  0  1  0  0  0  0  0  0  0  0  0
   10.7853  -19.2465   24.9785 C   0  0  0  0  0  0  0  0  0  0  0  0
   11.1659  -20.5100   25.6356 C   0  0  0  0  0  0  0  0  0  0  0  0
   11.6906  -21.6096   24.7741 C   0  0  0  0  0  0  0  0  0  0  0  0
   12.0896  -22.8171   25.6391 C   0  0  0  0  0  0  0  0  0  0  0  0
   12.5453  -23.9049   24.8257 N   0  0  0  0  0  0  0  0  0  0  0  0
   11.0341  -17.8045   26.9528 C   0  0  0  0  0  0  0  0  0  0  0  0
   10.9986  -18.4892   28.1853 O   0  0  0  0  0  0  0  0  0  0  0  0
   11.8443  -16.8205   26.8470 O   0  0  0  0  0  0  0  0  0  0  0  0
  1  2  1  0
  2  3  1  0
  3  5  1  0
  3  4  1  1
  5  6  1  6
  7  5  1  0
  8  7  2  0
  9  7  1  0
 10  9  1  0
 11 12  1  0
 10 11  1  1
 12 20  1  0
 12 13  2  0
 13 14  1  0
 15 14  1  0
 15 16  2  0
 17 16  1  0
 18 17  2  0
 19 20  2  0
 19 18  1  0
 20 15  1  0
 21 22  2  0
 21 10  1  0
 23 21  1  0
 24 23  1  0
 24 25  1  6
 26 25  1  0
 27 26  1  0
 27 28  1  0
 29 28  1  0
 30 24  1  0
 31 30  1  0
 32 30  2  0
M  END
$$$$
