IWK.pdb
     RDKit          3D

 32 33  0  0  1  0  0  0  0  0999 V2000
    8.9976  -19.9440   17.3810 C   0  0  0  0  0  0  0  0  0  0  0  0
   10.1092  -18.9601   17.5569 C   0  0  0  0  0  0  0  0  0  0  0  0
   10.1497  -18.3777   18.9549 C   0  0  2  0  0  0  0  0  0  0  0  0
    9.9755  -19.4815   19.9410 C   0  0  0  0  0  0  0  0  0  0  0  0
    9.0874  -17.3050   19.0758 C   0  0  2  0  0  0  0  0  0  0  0  0
    9.2943  -16.3855   17.9768 N   0  0  0  0  0  0  0  0  0  0  0  0
    9.1909  -16.5742   20.3663 C   0  0  0  0  0  0  0  0  0  0  0  0
   10.2717  -16.0201   20.7187 O   0  0  0  0  0  0  0  0  0  0  0  0
    8.1025  -16.4506   21.2757 N   0  0  0  0  0  0  0  0  0  0  0  0
    8.2649  -15.8939   22.5995 C   0  0  1  0  0  0  0  0  0  0  0  0
    6.9364  -15.4751   23.1745 C   0  0  0  0  0  0  0  0  0  0  0  0
    6.9580  -15.0958   24.5955 C   0  0  0  0  0  0  0  0  0  0  0  0
    6.8724  -15.9760   25.6602 C   0  0  0  0  0  0  0  0  0  0  0  0
    6.9006  -15.2799   26.8161 N   0  0  0  0  0  0  0  0  0  0  0  0
    7.0029  -13.9664   26.5534 C   0  0  0  0  0  0  0  0  0  0  0  0
    7.0770  -12.8647   27.3695 C   0  0  0  0  0  0  0  0  0  0  0  0
    7.1921  -11.5915   26.8329 C   0  0  0  0  0  0  0  0  0  0  0  0
    7.2276  -11.4975   25.4498 C   0  0  0  0  0  0  0  0  0  0  0  0
    7.1535  -12.5924   24.6439 C   0  0  0  0  0  0  0  0  0  0  0  0
    7.0401  -13.8393   25.1652 C   0  0  0  0  0  0  0  0  0  0  0  0
    9.0760  -16.7371   23.4782 C   0  0  0  0  0  0  0  0  0  0  0  0
    8.9262  -17.9977   23.4682 O   0  0  0  0  0  0  0  0  0  0  0  0
   10.0551  -16.2239   24.3703 N   0  0  0  0  0  0  0  0  0  0  0  0
   11.1425  -17.0355   24.8827 C   0  0  1  0  0  0  0  0  0  0  0  0
   12.3771  -16.7707   24.1067 C   0  0  0  0  0  0  0  0  0  0  0  0
   13.6170  -17.4849   24.4614 C   0  0  0  0  0  0  0  0  0  0  0  0
   14.0810  -18.5669   23.5447 C   0  0  0  0  0  0  0  0  0  0  0  0
   15.4006  -19.1676   24.0576 C   0  0  0  0  0  0  0  0  0  0  0  0
   15.1838  -19.9597   25.2316 N   0  0  0  0  0  0  0  0  0  0  0  0
   11.3035  -16.7831   26.3172 C   0  0  0  0  0  0  0  0  0  0  0  0
   11.8960  -17.6910   27.2193 O   0  0  0  0  0  0  0  0  0  0  0  0
   10.8854  -15.6701   26.7886 O   0  0  0  0  0  0  0  0  0  0  0  0
  1  2  1  0
  2  3  1  0
  3  5  1  0
  3  4  1  1
  5  6  1  6
  7  5  1  0
  8  7  2  0
  9  7  1  0
 10  9  1  0
 11 12  1  0
 10 11  1  1
 12 20  1  0
 12 13  2  0
 13 14  1  0
 15 14  1  0
 15 16  2  0
 17 16  1  0
 18 17  2  0
 19 20  2  0
 19 18  1  0
 20 15  1  0
 21 22  2  0
 21 10  1  0
 23 21  1  0
 24 23  1  0
 24 25  1  6
 26 25  1  0
 27 26  1  0
 27 28  1  0
 29 28  1  0
 30 24  1  0
 31 30  1  0
 32 30  2  0
M  END
$$$$
