DPV.pdb
     RDKit          3D

 23 23  0  0  1  0  0  0  0  0999 V2000
   11.6217  -17.1561   20.0610 N   0  0  0  0  0  0  0  0  0  0  0  0
   10.2801  -17.2137   20.6973 C   0  0  1  0  0  0  0  0  0  0  0  0
   10.1754  -18.6527   21.1503 C   0  0  0  0  0  0  0  0  0  0  0  0
   10.1132  -19.6098   20.0476 C   0  0  0  0  0  0  0  0  0  0  0  0
    9.2608  -19.5734   19.1603 O   0  0  0  0  0  0  0  0  0  0  0  0
   10.2813  -16.3115   21.8790 C   0  0  0  0  0  0  0  0  0  0  0  0
   11.3858  -15.7431   22.1223 O   0  0  0  0  0  0  0  0  0  0  0  0
   11.0866  -20.6412   19.9904 O   0  0  0  0  0  0  0  0  0  0  0  0
    9.2012  -16.0396   22.7177 N   0  0  0  0  0  0  0  0  0  0  0  0
    7.8749  -16.5891   22.6593 C   0  0  0  0  0  0  0  0  0  0  0  0
    6.9985  -15.3854   22.9657 C   0  0  0  0  0  0  0  0  0  0  0  0
    7.9139  -14.3172   23.5161 C   0  0  0  0  0  0  0  0  0  0  0  0
    9.1811  -15.0988   23.8082 C   0  0  1  0  0  0  0  0  0  0  0  0
    9.1154  -15.7887   25.1293 C   0  0  0  0  0  0  0  0  0  0  0  0
    8.8415  -17.0080   25.2574 O   0  0  0  0  0  0  0  0  0  0  0  0
    9.0851  -14.1676   29.0275 C   0  0  0  0  0  0  0  0  0  0  0  0
   10.4127  -14.5981   28.4507 C   0  0  2  0  0  0  0  0  0  0  0  0
   11.1513  -13.3714   27.9553 C   0  0  0  0  0  0  0  0  0  0  0  0
   10.2293  -15.6040   27.3362 C   0  0  2  0  0  0  0  0  0  0  0  0
    9.3694  -15.0561   26.3049 N   0  0  0  0  0  0  0  0  0  0  0  0
    9.5489  -16.7895   27.8932 C   0  0  0  0  0  0  0  0  0  0  0  0
   10.1679  -17.6505   28.7734 O   0  0  0  0  0  0  0  0  0  0  0  0
    8.3685  -17.0254   27.5577 O   0  0  0  0  0  0  0  0  0  0  0  0
  2  1  1  1
  2  3  1  0
  3  4  1  0
  4  5  2  0
  4  8  1  0
  6  9  1  0
  6  2  1  0
  7  6  2  0
  9 13  1  0
 10  9  1  0
 10 11  1  0
 11 12  1  0
 12 13  1  0
 13 14  1  1
 14 15  2  0
 17 16  1  6
 17 18  1  0
 19 17  1  0
 19 21  1  0
 20 14  1  0
 19 20  1  6
 21 22  1  0
 23 21  2  0
M  END
$$$$
