DPV.pdb
     RDKit          3D

 23 23  0  0  1  0  0  0  0  0999 V2000
   11.6987  -17.3958   20.2853 N   0  0  0  0  0  0  0  0  0  0  0  0
   10.2228  -17.2249   20.3069 C   0  0  1  0  0  0  0  0  0  0  0  0
    9.7390  -18.4936   20.9729 C   0  0  0  0  0  0  0  0  0  0  0  0
   10.0623  -19.7067   20.2248 C   0  0  0  0  0  0  0  0  0  0  0  0
   10.7757  -20.6087   20.6637 O   0  0  0  0  0  0  0  0  0  0  0  0
    9.8980  -16.0516   21.1601 C   0  0  0  0  0  0  0  0  0  0  0  0
   10.8795  -15.5478   21.7805 O   0  0  0  0  0  0  0  0  0  0  0  0
    9.5275  -19.8598   18.9191 O   0  0  0  0  0  0  0  0  0  0  0  0
    8.6423  -15.4696   21.3291 N   0  0  0  0  0  0  0  0  0  0  0  0
    7.4120  -15.8121   20.6708 C   0  0  0  0  0  0  0  0  0  0  0  0
    6.7861  -14.4535   20.3999 C   0  0  0  0  0  0  0  0  0  0  0  0
    7.5502  -13.4546   21.2367 C   0  0  0  0  0  0  0  0  0  0  0  0
    8.3253  -14.3531   22.1822 C   0  0  1  0  0  0  0  0  0  0  0  0
    7.4994  -14.7712   23.3521 C   0  0  0  0  0  0  0  0  0  0  0  0
    7.2054  -15.9680   23.5959 O   0  0  0  0  0  0  0  0  0  0  0  0
    7.0270  -11.3738   25.8519 C   0  0  0  0  0  0  0  0  0  0  0  0
    6.6667  -12.7341   26.4000 C   0  0  2  0  0  0  0  0  0  0  0  0
    7.0180  -12.7763   27.8733 C   0  0  0  0  0  0  0  0  0  0  0  0
    7.3740  -13.8375   25.6450 C   0  0  2  0  0  0  0  0  0  0  0  0
    7.0143  -13.7923   24.2408 N   0  0  0  0  0  0  0  0  0  0  0  0
    6.9073  -15.1324   26.1780 C   0  0  0  0  0  0  0  0  0  0  0  0
    7.6232  -15.8466   27.1143 O   0  0  0  0  0  0  0  0  0  0  0  0
    5.8243  -15.6025   25.7685 O   0  0  0  0  0  0  0  0  0  0  0  0
  2  1  1  1
  2  3  1  0
  3  4  1  0
  4  5  2  0
  4  8  1  0
  6  9  1  0
  6  2  1  0
  7  6  2  0
  9 13  1  0
 10  9  1  0
 10 11  1  0
 11 12  1  0
 12 13  1  0
 13 14  1  1
 14 15  2  0
 17 16  1  6
 17 18  1  0
 19 17  1  0
 19 21  1  0
 20 14  1  0
 19 20  1  6
 21 22  1  0
 23 21  2  0
M  END
$$$$
