DPV.pdb
     RDKit          3D

 23 23  0  0  1  0  0  0  0  0999 V2000
   11.6427  -17.4703   20.2436 N   0  0  0  0  0  0  0  0  0  0  0  0
   10.1882  -17.5040   20.5461 C   0  0  1  0  0  0  0  0  0  0  0  0
   10.0553  -18.6972   21.4657 C   0  0  0  0  0  0  0  0  0  0  0  0
   10.3234  -19.9747   20.8084 C   0  0  0  0  0  0  0  0  0  0  0  0
   10.6270  -20.0797   19.6202 O   0  0  0  0  0  0  0  0  0  0  0  0
    9.8317  -16.2604   21.2785 C   0  0  0  0  0  0  0  0  0  0  0  0
   10.8129  -15.5460   21.6379 O   0  0  0  0  0  0  0  0  0  0  0  0
   10.2303  -21.1643   21.5769 O   0  0  0  0  0  0  0  0  0  0  0  0
    8.5463  -15.8204   21.5920 N   0  0  0  0  0  0  0  0  0  0  0  0
    7.2927  -16.4328   21.2484 C   0  0  0  0  0  0  0  0  0  0  0  0
    6.4227  -15.2390   20.8893 C   0  0  0  0  0  0  0  0  0  0  0  0
    7.1487  -14.0128   21.3906 C   0  0  0  0  0  0  0  0  0  0  0  0
    8.2046  -14.6133   22.2998 C   0  0  1  0  0  0  0  0  0  0  0  0
    7.6646  -14.9063   23.6592 C   0  0  0  0  0  0  0  0  0  0  0  0
    7.4462  -16.0704   24.0780 O   0  0  0  0  0  0  0  0  0  0  0  0
    7.6413  -12.7548   28.1361 C   0  0  0  0  0  0  0  0  0  0  0  0
    7.2712  -12.6946   26.6733 C   0  0  2  0  0  0  0  0  0  0  0  0
    5.7664  -12.5624   26.5548 C   0  0  0  0  0  0  0  0  0  0  0  0
    7.7658  -13.9148   25.9289 C   0  0  2  0  0  0  0  0  0  0  0  0
    7.3779  -13.8401   24.5335 N   0  0  0  0  0  0  0  0  0  0  0  0
    7.1086  -15.1039   26.5059 C   0  0  0  0  0  0  0  0  0  0  0  0
    7.6472  -15.8051   27.5629 O   0  0  0  0  0  0  0  0  0  0  0  0
    6.0242  -15.4928   26.0219 O   0  0  0  0  0  0  0  0  0  0  0  0
  2  1  1  1
  2  3  1  0
  3  4  1  0
  4  5  2  0
  4  8  1  0
  6  9  1  0
  6  2  1  0
  7  6  2  0
  9 13  1  0
 10  9  1  0
 10 11  1  0
 11 12  1  0
 12 13  1  0
 13 14  1  1
 14 15  2  0
 17 16  1  1
 17 18  1  0
 19 17  1  0
 19 21  1  0
 20 14  1  0
 19 20  1  6
 21 22  1  0
 23 21  2  0
M  END
$$$$
