DPV.pdb
     RDKit          3D

 23 23  0  0  1  0  0  0  0  0999 V2000
   11.6534  -17.4002   20.1220 N   0  0  0  0  0  0  0  0  0  0  0  0
   10.2633  -17.5714   20.6184 C   0  0  1  0  0  0  0  0  0  0  0  0
   10.3859  -18.7179   21.5969 C   0  0  0  0  0  0  0  0  0  0  0  0
   10.1952  -20.0315   20.9853 C   0  0  0  0  0  0  0  0  0  0  0  0
   10.0058  -20.2020   19.7811 O   0  0  0  0  0  0  0  0  0  0  0  0
    9.8658  -16.3333   21.3391 C   0  0  0  0  0  0  0  0  0  0  0  0
   10.8246  -15.6384   21.7865 O   0  0  0  0  0  0  0  0  0  0  0  0
   10.2290  -21.1786   21.8205 O   0  0  0  0  0  0  0  0  0  0  0  0
    8.5655  -15.8794   21.5559 N   0  0  0  0  0  0  0  0  0  0  0  0
    7.3340  -16.4850   21.1303 C   0  0  0  0  0  0  0  0  0  0  0  0
    6.5025  -15.2881   20.6980 C   0  0  0  0  0  0  0  0  0  0  0  0
    7.2021  -14.0625   21.2370 C   0  0  0  0  0  0  0  0  0  0  0  0
    8.1853  -14.6619   22.2251 C   0  0  1  0  0  0  0  0  0  0  0  0
    7.5475  -14.9356   23.5456 C   0  0  0  0  0  0  0  0  0  0  0  0
    7.2758  -16.0923   23.9534 O   0  0  0  0  0  0  0  0  0  0  0  0
    7.8081  -12.4734   27.8527 C   0  0  0  0  0  0  0  0  0  0  0  0
    7.3036  -12.5367   26.4308 C   0  0  2  0  0  0  0  0  0  0  0  0
    5.7903  -12.4624   26.4451 C   0  0  0  0  0  0  0  0  0  0  0  0
    7.7753  -13.7936   25.7341 C   0  0  2  0  0  0  0  0  0  0  0  0
    7.2250  -13.8586   24.3939 N   0  0  0  0  0  0  0  0  0  0  0  0
    7.2561  -14.9563   26.4805 C   0  0  0  0  0  0  0  0  0  0  0  0
    7.9732  -15.5686   27.4855 O   0  0  0  0  0  0  0  0  0  0  0  0
    6.1256  -15.4056   26.1945 O   0  0  0  0  0  0  0  0  0  0  0  0
  2  1  1  1
  2  3  1  0
  3  4  1  0
  4  5  2  0
  4  8  1  0
  6  9  1  0
  6  2  1  0
  7  6  2  0
  9 13  1  0
 10  9  1  0
 10 11  1  0
 11 12  1  0
 12 13  1  0
 13 14  1  1
 14 15  2  0
 17 16  1  1
 17 18  1  0
 19 17  1  0
 19 21  1  0
 20 14  1  0
 19 20  1  6
 21 22  1  0
 23 21  2  0
M  END
$$$$
