DPV.pdb
     RDKit          3D

 23 23  0  0  1  0  0  0  0  0999 V2000
   12.3375  -14.9475   19.9310 N   0  0  0  0  0  0  0  0  0  0  0  0
   11.1968  -15.8041   20.3472 C   0  0  1  0  0  0  0  0  0  0  0  0
   11.8717  -16.9514   21.0650 C   0  0  0  0  0  0  0  0  0  0  0  0
   12.6508  -17.8165   20.1816 C   0  0  0  0  0  0  0  0  0  0  0  0
   13.7346  -17.4950   19.6947 O   0  0  0  0  0  0  0  0  0  0  0  0
   10.3562  -15.0357   21.3027 C   0  0  0  0  0  0  0  0  0  0  0  0
   10.9523  -14.1020   21.9153 O   0  0  0  0  0  0  0  0  0  0  0  0
   12.1351  -19.1000   19.8634 O   0  0  0  0  0  0  0  0  0  0  0  0
    9.0043  -15.2436   21.5732 N   0  0  0  0  0  0  0  0  0  0  0  0
    8.1603  -16.3060   21.1006 C   0  0  0  0  0  0  0  0  0  0  0  0
    6.8560  -15.5879   20.7936 C   0  0  0  0  0  0  0  0  0  0  0  0
    6.9518  -14.2277   21.4437 C   0  0  0  0  0  0  0  0  0  0  0  0
    8.1492  -14.3931   22.3607 C   0  0  1  0  0  0  0  0  0  0  0  0
    7.7733  -15.0358   23.6535 C   0  0  0  0  0  0  0  0  0  0  0  0
    7.9719  -16.2509   23.9026 O   0  0  0  0  0  0  0  0  0  0  0  0
    5.7478  -12.8292   26.6501 C   0  0  0  0  0  0  0  0  0  0  0  0
    7.2283  -13.0925   26.7885 C   0  0  2  0  0  0  0  0  0  0  0  0
    7.9889  -11.8779   26.2966 C   0  0  0  0  0  0  0  0  0  0  0  0
    7.6411  -14.3323   26.0269 C   0  0  2  0  0  0  0  0  0  0  0  0
    7.1640  -14.2607   24.6592 N   0  0  0  0  0  0  0  0  0  0  0  0
    6.9932  -15.4982   26.6591 C   0  0  0  0  0  0  0  0  0  0  0  0
    7.4309  -16.0284   27.8535 O   0  0  0  0  0  0  0  0  0  0  0  0
    6.0118  -16.0272   26.0947 O   0  0  0  0  0  0  0  0  0  0  0  0
  2  1  1  1
  2  3  1  0
  3  4  1  0
  4  5  2  0
  4  8  1  0
  6  9  1  0
  6  2  1  0
  7  6  2  0
  9 13  1  0
 10  9  1  0
 10 11  1  0
 11 12  1  0
 12 13  1  0
 13 14  1  1
 14 15  2  0
 17 16  1  6
 17 18  1  0
 19 17  1  0
 19 21  1  0
 20 14  1  0
 19 20  1  6
 21 22  1  0
 23 21  2  0
M  END
$$$$
