DPV.pdb
     RDKit          3D

 23 23  0  0  1  0  0  0  0  0999 V2000
   11.7072  -16.7036   20.0961 N   0  0  0  0  0  0  0  0  0  0  0  0
   10.4297  -16.9979   20.7955 C   0  0  1  0  0  0  0  0  0  0  0  0
   10.5920  -18.4414   21.2163 C   0  0  0  0  0  0  0  0  0  0  0  0
   10.6926  -19.3703   20.0925 C   0  0  0  0  0  0  0  0  0  0  0  0
    9.8510  -19.4520   19.1980 O   0  0  0  0  0  0  0  0  0  0  0  0
   10.3412  -16.1286   21.9982 C   0  0  0  0  0  0  0  0  0  0  0  0
   11.3646  -15.4200   22.2279 O   0  0  0  0  0  0  0  0  0  0  0  0
   11.8207  -20.2288   20.0225 O   0  0  0  0  0  0  0  0  0  0  0  0
    9.2579  -16.0238   22.8697 N   0  0  0  0  0  0  0  0  0  0  0  0
    8.0113  -16.7368   22.8220 C   0  0  0  0  0  0  0  0  0  0  0  0
    6.9971  -15.6655   23.1892 C   0  0  0  0  0  0  0  0  0  0  0  0
    7.7833  -14.5066   23.7556 C   0  0  0  0  0  0  0  0  0  0  0  0
    9.1471  -15.1281   23.9922 C   0  0  1  0  0  0  0  0  0  0  0  0
    9.2048  -15.8617   25.2898 C   0  0  0  0  0  0  0  0  0  0  0  0
    8.9864  -17.0943   25.3951 O   0  0  0  0  0  0  0  0  0  0  0  0
    9.5870  -14.6162   29.4877 C   0  0  0  0  0  0  0  0  0  0  0  0
   10.7415  -14.7074   28.5186 C   0  0  2  0  0  0  0  0  0  0  0  0
   11.0041  -13.3318   27.9402 C   0  0  0  0  0  0  0  0  0  0  0  0
   10.4619  -15.7097   27.4210 C   0  0  2  0  0  0  0  0  0  0  0  0
    9.5179  -15.1575   26.4686 N   0  0  0  0  0  0  0  0  0  0  0  0
    9.8297  -16.8960   28.0308 C   0  0  0  0  0  0  0  0  0  0  0  0
    8.4946  -17.1913   27.8590 O   0  0  0  0  0  0  0  0  0  0  0  0
   10.5262  -17.6634   28.7290 O   0  0  0  0  0  0  0  0  0  0  0  0
  2  1  1  6
  2  3  1  0
  3  4  1  0
  4  5  2  0
  4  8  1  0
  6  9  1  0
  6  2  1  0
  7  6  2  0
  9 13  1  0
 10  9  1  0
 10 11  1  0
 11 12  1  0
 12 13  1  0
 13 14  1  1
 14 15  2  0
 17 16  1  1
 17 18  1  0
 19 17  1  0
 19 21  1  0
 20 14  1  0
 19 20  1  6
 21 22  1  0
 23 21  2  0
M  END
$$$$
