DPV.pdb
     RDKit          3D

 23 23  0  0  1  0  0  0  0  0999 V2000
    9.5809  -17.8449   17.8598 N   0  0  0  0  0  0  0  0  0  0  0  0
    8.4903  -17.1084   18.5499 C   0  0  1  0  0  0  0  0  0  0  0  0
    7.5560  -18.2120   18.9927 C   0  0  0  0  0  0  0  0  0  0  0  0
    6.8542  -18.8624   17.8880 C   0  0  0  0  0  0  0  0  0  0  0  0
    7.0339  -18.5775   16.7041 O   0  0  0  0  0  0  0  0  0  0  0  0
    9.0639  -16.4253   19.7393 C   0  0  0  0  0  0  0  0  0  0  0  0
   10.3209  -16.5154   19.8588 O   0  0  0  0  0  0  0  0  0  0  0  0
    5.9118  -19.8799   18.1899 O   0  0  0  0  0  0  0  0  0  0  0  0
    8.3594  -15.7093   20.7062 N   0  0  0  0  0  0  0  0  0  0  0  0
    6.9437  -15.4747   20.7774 C   0  0  0  0  0  0  0  0  0  0  0  0
    6.8654  -14.0258   21.2308 C   0  0  0  0  0  0  0  0  0  0  0  0
    8.2464  -13.6530   21.7161 C   0  0  0  0  0  0  0  0  0  0  0  0
    8.9238  -15.0059   21.8294 C   0  0  1  0  0  0  0  0  0  0  0  0
    8.6019  -15.6812   23.1201 C   0  0  0  0  0  0  0  0  0  0  0  0
    7.4705  -16.1589   23.3848 O   0  0  0  0  0  0  0  0  0  0  0  0
   12.1852  -16.2951   25.0726 C   0  0  0  0  0  0  0  0  0  0  0  0
   11.2966  -17.4469   24.6675 C   0  0  2  0  0  0  0  0  0  0  0  0
   11.6581  -17.8711   23.2586 C   0  0  0  0  0  0  0  0  0  0  0  0
    9.8338  -17.0736   24.7599 C   0  0  2  0  0  0  0  0  0  0  0  0
    9.6007  -15.8004   24.1057 N   0  0  0  0  0  0  0  0  0  0  0  0
    9.4905  -16.9057   26.1856 C   0  0  0  0  0  0  0  0  0  0  0  0
    9.1319  -15.6872   26.7201 O   0  0  0  0  0  0  0  0  0  0  0  0
    9.5249  -17.9017   26.9394 O   0  0  0  0  0  0  0  0  0  0  0  0
  2  1  1  1
  2  3  1  0
  3  4  1  0
  4  5  2  0
  4  8  1  0
  6  9  1  0
  6  2  1  0
  7  6  2  0
  9 13  1  0
 10  9  1  0
 10 11  1  0
 11 12  1  0
 12 13  1  0
 13 14  1  1
 14 15  2  0
 17 16  1  6
 17 18  1  0
 19 17  1  0
 19 21  1  0
 20 14  1  0
 19 20  1  6
 21 22  1  0
 23 21  2  0
M  END
$$$$
