DPV.pdb
     RDKit          3D

 23 23  0  0  1  0  0  0  0  0999 V2000
   10.5712  -17.1956   17.2496 N   0  0  0  0  0  0  0  0  0  0  0  0
    9.3333  -16.4498   17.5949 C   0  0  1  0  0  0  0  0  0  0  0  0
    8.2875  -17.5389   17.6802 C   0  0  0  0  0  0  0  0  0  0  0  0
    8.0420  -18.2147   16.4079 C   0  0  0  0  0  0  0  0  0  0  0  0
    8.0397  -17.6396   15.3196 O   0  0  0  0  0  0  0  0  0  0  0  0
    9.5191  -15.8230   18.9302 C   0  0  0  0  0  0  0  0  0  0  0  0
   10.6739  -15.9548   19.4317 O   0  0  0  0  0  0  0  0  0  0  0  0
    7.7917  -19.6117   16.4205 O   0  0  0  0  0  0  0  0  0  0  0  0
    8.5613  -15.1176   19.6574 N   0  0  0  0  0  0  0  0  0  0  0  0
    7.2072  -14.8189   19.2811 C   0  0  0  0  0  0  0  0  0  0  0  0
    7.0307  -13.3893   19.7671 C   0  0  0  0  0  0  0  0  0  0  0  0
    8.1901  -13.1048   20.6928 C   0  0  0  0  0  0  0  0  0  0  0  0
    8.7517  -14.4923   20.9409 C   0  0  1  0  0  0  0  0  0  0  0  0
    8.0072  -15.2077   22.0177 C   0  0  0  0  0  0  0  0  0  0  0  0
    6.8749  -15.7243   21.8467 O   0  0  0  0  0  0  0  0  0  0  0  0
    9.4975  -15.3774   25.9970 C   0  0  0  0  0  0  0  0  0  0  0  0
    9.4710  -16.6247   25.1462 C   0  0  2  0  0  0  0  0  0  0  0  0
   10.8428  -16.8299   24.5365 C   0  0  0  0  0  0  0  0  0  0  0  0
    8.4107  -16.5364   24.0712 C   0  0  2  0  0  0  0  0  0  0  0  0
    8.5834  -15.3219   23.2977 N   0  0  0  0  0  0  0  0  0  0  0  0
    7.0925  -16.4553   24.7303 C   0  0  0  0  0  0  0  0  0  0  0  0
    6.5014  -17.5434   25.3352 O   0  0  0  0  0  0  0  0  0  0  0  0
    6.4864  -15.3626   24.7429 O   0  0  0  0  0  0  0  0  0  0  0  0
  2  1  1  1
  2  3  1  0
  3  4  1  0
  4  5  2  0
  4  8  1  0
  6  9  1  0
  6  2  1  0
  7  6  2  0
  9 13  1  0
 10  9  1  0
 10 11  1  0
 11 12  1  0
 12 13  1  0
 13 14  1  1
 14 15  2  0
 17 16  1  6
 17 18  1  0
 19 17  1  0
 19 21  1  0
 20 14  1  0
 19 20  1  1
 21 22  1  0
 23 21  2  0
M  END
$$$$
