DPV.pdb
     RDKit          3D

 23 23  0  0  1  0  0  0  0  0999 V2000
   10.2075  -17.8486   19.6810 N   0  0  0  0  0  0  0  0  0  0  0  0
    8.9062  -17.2161   20.0194 C   0  0  1  0  0  0  0  0  0  0  0  0
    8.1474  -18.3329   20.7006 C   0  0  0  0  0  0  0  0  0  0  0  0
    7.6878  -19.3726   19.7821 C   0  0  0  0  0  0  0  0  0  0  0  0
    6.9579  -19.1543   18.8153 O   0  0  0  0  0  0  0  0  0  0  0  0
    9.1565  -16.1138   20.9852 C   0  0  0  0  0  0  0  0  0  0  0  0
   10.2989  -16.1235   21.5303 O   0  0  0  0  0  0  0  0  0  0  0  0
    8.1021  -20.7105   20.0119 O   0  0  0  0  0  0  0  0  0  0  0  0
    8.2698  -15.0948   21.3308 N   0  0  0  0  0  0  0  0  0  0  0  0
    6.9496  -14.8577   20.8156 C   0  0  0  0  0  0  0  0  0  0  0  0
    6.9090  -13.3442   20.6787 C   0  0  0  0  0  0  0  0  0  0  0  0
    8.0906  -12.8114   21.4545 C   0  0  0  0  0  0  0  0  0  0  0  0
    8.5191  -14.0234   22.2606 C   0  0  1  0  0  0  0  0  0  0  0  0
    7.7113  -14.1756   23.5054 C   0  0  0  0  0  0  0  0  0  0  0  0
    6.5826  -14.7265   23.5317 O   0  0  0  0  0  0  0  0  0  0  0  0
    9.6811  -14.6979   27.1043 C   0  0  0  0  0  0  0  0  0  0  0  0
    8.4985  -13.7594   27.1359 C   0  0  2  0  0  0  0  0  0  0  0  0
    7.7766  -13.9268   28.4575 C   0  0  0  0  0  0  0  0  0  0  0  0
    7.5630  -14.0121   25.9746 C   0  0  2  0  0  0  0  0  0  0  0  0
    8.2196  -13.6846   24.7236 N   0  0  0  0  0  0  0  0  0  0  0  0
    6.4031  -13.1098   26.1128 C   0  0  0  0  0  0  0  0  0  0  0  0
    5.3737  -13.3605   26.9941 O   0  0  0  0  0  0  0  0  0  0  0  0
    6.3479  -12.0798   25.4074 O   0  0  0  0  0  0  0  0  0  0  0  0
  2  1  1  1
  2  3  1  0
  3  4  1  0
  4  5  2  0
  4  8  1  0
  6  9  1  0
  6  2  1  0
  7  6  2  0
  9 13  1  0
 10  9  1  0
 10 11  1  0
 11 12  1  0
 12 13  1  0
 13 14  1  1
 14 15  2  0
 17 16  1  1
 17 18  1  0
 19 17  1  0
 19 21  1  0
 20 14  1  0
 19 20  1  6
 21 22  1  0
 23 21  2  0
M  END
$$$$
