DPV.pdb
     RDKit          3D

 23 23  0  0  1  0  0  0  0  0999 V2000
   11.6259  -16.8670   19.8546 N   0  0  0  0  0  0  0  0  0  0  0  0
   10.2761  -17.0262   20.4552 C   0  0  1  0  0  0  0  0  0  0  0  0
   10.2986  -18.4435   20.9821 C   0  0  0  0  0  0  0  0  0  0  0  0
   10.2984  -19.4584   19.9304 C   0  0  0  0  0  0  0  0  0  0  0  0
   11.2724  -20.1610   19.6606 O   0  0  0  0  0  0  0  0  0  0  0  0
   10.1490  -16.0695   21.5860 C   0  0  0  0  0  0  0  0  0  0  0  0
   11.2330  -15.5394   21.9683 O   0  0  0  0  0  0  0  0  0  0  0  0
    9.1126  -19.6497   19.1743 O   0  0  0  0  0  0  0  0  0  0  0  0
    8.9723  -15.7102   22.2420 N   0  0  0  0  0  0  0  0  0  0  0  0
    7.6351  -16.1610   21.9716 C   0  0  0  0  0  0  0  0  0  0  0  0
    6.8130  -14.8929   22.1364 C   0  0  0  0  0  0  0  0  0  0  0  0
    7.7059  -13.8897   22.8278 C   0  0  0  0  0  0  0  0  0  0  0  0
    8.8487  -14.7596   23.3170 C   0  0  1  0  0  0  0  0  0  0  0  0
    8.5222  -15.4293   24.6094 C   0  0  0  0  0  0  0  0  0  0  0  0
    8.0314  -16.5834   24.6830 O   0  0  0  0  0  0  0  0  0  0  0  0
    9.8344  -14.2921   28.9926 C   0  0  0  0  0  0  0  0  0  0  0  0
   10.2522  -13.9710   27.5774 C   0  0  2  0  0  0  0  0  0  0  0  0
    9.5713  -12.6880   27.1458 C   0  0  0  0  0  0  0  0  0  0  0  0
    9.9165  -15.1038   26.6331 C   0  0  2  0  0  0  0  0  0  0  0  0
    8.7681  -14.7529   25.8199 N   0  0  0  0  0  0  0  0  0  0  0  0
    9.5412  -16.2808   27.4409 C   0  0  0  0  0  0  0  0  0  0  0  0
   10.4539  -16.9698   28.2099 O   0  0  0  0  0  0  0  0  0  0  0  0
    8.3540  -16.6705   27.4305 O   0  0  0  0  0  0  0  0  0  0  0  0
  2  1  1  1
  2  3  1  0
  3  4  1  0
  4  5  2  0
  4  8  1  0
  6  9  1  0
  6  2  1  0
  7  6  2  0
  9 13  1  0
 10  9  1  0
 10 11  1  0
 11 12  1  0
 12 13  1  0
 13 14  1  1
 14 15  2  0
 17 16  1  1
 17 18  1  0
 19 17  1  0
 19 21  1  0
 20 14  1  0
 19 20  1  6
 21 22  1  0
 23 21  2  0
M  END
$$$$
