DPV.pdb
     RDKit          3D

 23 23  0  0  1  0  0  0  0  0999 V2000
    8.9923  -14.8802   20.1671 N   0  0  0  0  0  0  0  0  0  0  0  0
    8.2746  -15.5571   21.2783 C   0  0  1  0  0  0  0  0  0  0  0  0
    8.6742  -17.0064   21.1140 C   0  0  0  0  0  0  0  0  0  0  0  0
    8.0627  -17.8967   22.0985 C   0  0  0  0  0  0  0  0  0  0  0  0
    8.5742  -18.1654   23.1853 O   0  0  0  0  0  0  0  0  0  0  0  0
    8.7999  -15.0317   22.5660 C   0  0  0  0  0  0  0  0  0  0  0  0
   10.0249  -14.7128   22.5588 O   0  0  0  0  0  0  0  0  0  0  0  0
    6.8096  -18.4879   21.7907 O   0  0  0  0  0  0  0  0  0  0  0  0
    8.0809  -14.8592   23.7481 N   0  0  0  0  0  0  0  0  0  0  0  0
    6.7222  -15.2384   24.0210 C   0  0  0  0  0  0  0  0  0  0  0  0
    6.1994  -14.0597   24.8261 C   0  0  0  0  0  0  0  0  0  0  0  0
    7.4081  -13.2557   25.2439 C   0  0  0  0  0  0  0  0  0  0  0  0
    8.5485  -14.2113   24.9465 C   0  0  1  0  0  0  0  0  0  0  0  0
    8.7573  -15.1879   26.0547 C   0  0  0  0  0  0  0  0  0  0  0  0
    8.5422  -16.4200   25.9374 O   0  0  0  0  0  0  0  0  0  0  0  0
    9.5621  -14.5203   30.1600 C   0  0  0  0  0  0  0  0  0  0  0  0
   10.7272  -14.6192   29.2044 C   0  0  2  0  0  0  0  0  0  0  0  0
   11.2080  -13.2210   28.8733 C   0  0  0  0  0  0  0  0  0  0  0  0
   10.3472  -15.3706   27.9479 C   0  0  2  0  0  0  0  0  0  0  0  0
    9.2179  -14.7280   27.3036 N   0  0  0  0  0  0  0  0  0  0  0  0
    9.9191  -16.7290   28.3354 C   0  0  0  0  0  0  0  0  0  0  0  0
   10.7909  -17.6542   28.8675 O   0  0  0  0  0  0  0  0  0  0  0  0
    8.7236  -17.0568   28.1772 O   0  0  0  0  0  0  0  0  0  0  0  0
  2  1  1  6
  2  3  1  0
  3  4  1  0
  4  5  2  0
  4  8  1  0
  6  9  1  0
  6  2  1  0
  7  6  2  0
  9 13  1  0
 10  9  1  0
 10 11  1  0
 11 12  1  0
 12 13  1  0
 13 14  1  1
 14 15  2  0
 17 16  1  1
 17 18  1  0
 19 17  1  0
 19 21  1  0
 20 14  1  0
 19 20  1  1
 21 22  1  0
 23 21  2  0
M  END
$$$$
