DPV.pdb
     RDKit          3D

 23 23  0  0  1  0  0  0  0  0999 V2000
   12.1500  -17.0689   20.7286 N   0  0  0  0  0  0  0  0  0  0  0  0
   10.6904  -17.2370   20.9507 C   0  0  1  0  0  0  0  0  0  0  0  0
   10.6160  -18.4552   21.8437 C   0  0  0  0  0  0  0  0  0  0  0  0
   11.1408  -19.6691   21.2217 C   0  0  0  0  0  0  0  0  0  0  0  0
   10.8013  -20.0656   20.1069 O   0  0  0  0  0  0  0  0  0  0  0  0
   10.1857  -16.0445   21.6810 C   0  0  0  0  0  0  0  0  0  0  0  0
   11.0780  -15.3156   22.2053 O   0  0  0  0  0  0  0  0  0  0  0  0
   12.0951  -20.4384   21.9372 O   0  0  0  0  0  0  0  0  0  0  0  0
    8.8525  -15.6651   21.8314 N   0  0  0  0  0  0  0  0  0  0  0  0
    7.6871  -16.2808   21.2595 C   0  0  0  0  0  0  0  0  0  0  0  0
    6.8344  -15.0855   20.8655 C   0  0  0  0  0  0  0  0  0  0  0  0
    7.4319  -13.8847   21.5604 C   0  0  0  0  0  0  0  0  0  0  0  0
    8.3651  -14.5281   22.5691 C   0  0  1  0  0  0  0  0  0  0  0  0
    7.6430  -14.9431   23.8068 C   0  0  0  0  0  0  0  0  0  0  0  0
    7.2805  -16.1250   24.0298 O   0  0  0  0  0  0  0  0  0  0  0  0
    5.7228  -12.7088   26.7120 C   0  0  0  0  0  0  0  0  0  0  0  0
    7.1455  -13.0929   27.0416 C   0  0  2  0  0  0  0  0  0  0  0  0
    8.0355  -11.8814   26.8521 C   0  0  0  0  0  0  0  0  0  0  0  0
    7.6171  -14.2476   26.1860 C   0  0  2  0  0  0  0  0  0  0  0  0
    7.3421  -13.9785   24.7878 N   0  0  0  0  0  0  0  0  0  0  0  0
    6.8440  -15.4467   26.5643 C   0  0  0  0  0  0  0  0  0  0  0  0
    7.0769  -16.1367   27.7343 O   0  0  0  0  0  0  0  0  0  0  0  0
    5.9444  -15.8552   25.7991 O   0  0  0  0  0  0  0  0  0  0  0  0
  2  1  1  1
  2  3  1  0
  3  4  1  0
  4  5  2  0
  4  8  1  0
  6  9  1  0
  6  2  1  0
  7  6  2  0
  9 13  1  0
 10  9  1  0
 10 11  1  0
 11 12  1  0
 12 13  1  0
 13 14  1  1
 14 15  2  0
 17 16  1  6
 17 18  1  0
 19 17  1  0
 19 21  1  0
 20 14  1  0
 19 20  1  6
 21 22  1  0
 23 21  2  0
M  END
$$$$
