DPV.pdb
     RDKit          3D

 23 23  0  0  1  0  0  0  0  0999 V2000
   12.0844  -17.4962   21.1331 N   0  0  0  0  0  0  0  0  0  0  0  0
   10.6052  -17.5836   21.2445 C   0  0  1  0  0  0  0  0  0  0  0  0
   10.4002  -18.7084   22.2343 C   0  0  0  0  0  0  0  0  0  0  0  0
   10.7820  -20.0204   21.7159 C   0  0  0  0  0  0  0  0  0  0  0  0
   11.6661  -20.7186   22.2117 O   0  0  0  0  0  0  0  0  0  0  0  0
   10.1010  -16.3083   21.8185 C   0  0  0  0  0  0  0  0  0  0  0  0
   10.9899  -15.5406   22.2904 O   0  0  0  0  0  0  0  0  0  0  0  0
   10.0995  -20.5235   20.5776 O   0  0  0  0  0  0  0  0  0  0  0  0
    8.7716  -15.8918   21.8770 N   0  0  0  0  0  0  0  0  0  0  0  0
    7.6103  -16.5625   21.3613 C   0  0  0  0  0  0  0  0  0  0  0  0
    6.7912  -15.4199   20.7831 C   0  0  0  0  0  0  0  0  0  0  0  0
    7.3927  -14.1441   21.3241 C   0  0  0  0  0  0  0  0  0  0  0  0
    8.2864  -14.6569   22.4378 C   0  0  1  0  0  0  0  0  0  0  0  0
    7.5241  -14.8871   23.6993 C   0  0  0  0  0  0  0  0  0  0  0  0
    7.2160  -16.0301   24.1197 O   0  0  0  0  0  0  0  0  0  0  0  0
    6.7347  -11.3283   25.8612 C   0  0  0  0  0  0  0  0  0  0  0  0
    6.6113  -12.6579   26.5664 C   0  0  2  0  0  0  0  0  0  0  0  0
    7.0316  -12.4856   28.0119 C   0  0  0  0  0  0  0  0  0  0  0  0
    7.4434  -13.7220   25.8859 C   0  0  2  0  0  0  0  0  0  0  0  0
    7.1193  -13.7826   24.4736 N   0  0  0  0  0  0  0  0  0  0  0  0
    7.0913  -15.0287   26.4752 C   0  0  0  0  0  0  0  0  0  0  0  0
    7.8567  -15.6284   27.4518 O   0  0  0  0  0  0  0  0  0  0  0  0
    6.0628  -15.6165   26.0775 O   0  0  0  0  0  0  0  0  0  0  0  0
  2  1  1  1
  2  3  1  0
  3  4  1  0
  4  5  2  0
  4  8  1  0
  6  9  1  0
  6  2  1  0
  7  6  2  0
  9 13  1  0
 10  9  1  0
 10 11  1  0
 11 12  1  0
 12 13  1  0
 13 14  1  1
 14 15  2  0
 17 16  1  6
 17 18  1  0
 19 17  1  0
 19 21  1  0
 20 14  1  0
 19 20  1  6
 21 22  1  0
 23 21  2  0
M  END
$$$$
