DPV.pdb
     RDKit          3D

 23 23  0  0  1  0  0  0  0  0999 V2000
   11.1314  -16.5466   19.4870 N   0  0  0  0  0  0  0  0  0  0  0  0
   10.5815  -17.4873   20.4973 C   0  0  1  0  0  0  0  0  0  0  0  0
   11.8196  -18.0114   21.1897 C   0  0  0  0  0  0  0  0  0  0  0  0
   12.6753  -18.8206   20.3244 C   0  0  0  0  0  0  0  0  0  0  0  0
   13.8538  -18.5543   20.0891 O   0  0  0  0  0  0  0  0  0  0  0  0
    9.7547  -16.7127   21.4598 C   0  0  0  0  0  0  0  0  0  0  0  0
   10.0090  -15.4738   21.5141 O   0  0  0  0  0  0  0  0  0  0  0  0
   12.1232  -19.9792   19.7183 O   0  0  0  0  0  0  0  0  0  0  0  0
    8.7477  -17.2155   22.2826 N   0  0  0  0  0  0  0  0  0  0  0  0
    8.3123  -18.5782   22.4170 C   0  0  0  0  0  0  0  0  0  0  0  0
    6.8014  -18.4405   22.5125 C   0  0  0  0  0  0  0  0  0  0  0  0
    6.5193  -16.9795   22.7726 C   0  0  0  0  0  0  0  0  0  0  0  0
    7.8900  -16.4495   23.1499 C   0  0  1  0  0  0  0  0  0  0  0  0
    8.2023  -16.6930   24.5882 C   0  0  0  0  0  0  0  0  0  0  0  0
    8.8553  -17.6869   24.9931 O   0  0  0  0  0  0  0  0  0  0  0  0
    8.0891  -12.7889   25.9727 C   0  0  0  0  0  0  0  0  0  0  0  0
    8.1186  -13.8732   27.0234 C   0  0  2  0  0  0  0  0  0  0  0  0
    8.9264  -13.3839   28.2082 C   0  0  0  0  0  0  0  0  0  0  0  0
    8.6939  -15.1590   26.4725 C   0  0  2  0  0  0  0  0  0  0  0  0
    7.7525  -15.7761   25.5580 N   0  0  0  0  0  0  0  0  0  0  0  0
    8.8926  -16.0937   27.5974 C   0  0  0  0  0  0  0  0  0  0  0  0
    8.1385  -17.2372   27.7492 O   0  0  0  0  0  0  0  0  0  0  0  0
    9.7755  -15.8435   28.4456 O   0  0  0  0  0  0  0  0  0  0  0  0
  2  1  1  6
  2  3  1  0
  3  4  1  0
  4  5  2  0
  4  8  1  0
  6  9  1  0
  6  2  1  0
  7  6  2  0
  9 13  1  0
 10  9  1  0
 10 11  1  0
 11 12  1  0
 12 13  1  0
 13 14  1  1
 14 15  2  0
 17 16  1  6
 17 18  1  0
 19 17  1  0
 19 21  1  0
 20 14  1  0
 19 20  1  6
 21 22  1  0
 23 21  2  0
M  END
$$$$
