SGK.pdb
     RDKit          3D

 20 19  0  0  1  0  0  0  0  0999 V2000
    7.6451  -14.7614   19.4975 O   0  0  0  0  0  0  0  0  0  0  0  0
    7.3962  -13.4779   19.0168 C   0  0  0  0  0  0  0  0  0  0  0  0
    7.9207  -13.3016   17.6079 C   0  0  2  0  0  0  0  0  0  0  0  0
    7.3952  -14.2680   16.6972 N   0  0  0  0  0  0  0  0  0  0  0  0
    9.4117  -13.3063   17.6763 C   0  0  0  0  0  0  0  0  0  0  0  0
   10.0127  -12.7970   16.6914 O   0  0  0  0  0  0  0  0  0  0  0  0
   10.1370  -13.8419   18.7661 N   0  0  0  0  0  0  0  0  0  0  0  0
   11.5631  -13.9270   18.7848 C   0  0  0  0  0  0  0  0  0  0  0  0
   12.1065  -14.3070   20.1103 C   0  0  0  0  0  0  0  0  0  0  0  0
   13.3446  -14.2647   20.3137 O   0  0  0  0  0  0  0  0  0  0  0  0
   11.3013  -14.7274   21.1962 N   0  0  0  0  0  0  0  0  0  0  0  0
   11.7539  -15.7064   22.1990 C   0  0  1  0  0  0  0  0  0  0  0  0
   10.6109  -16.2245   22.9906 C   0  0  0  0  0  0  0  0  0  0  0  0
    9.7813  -15.1094   23.5517 C   0  0  0  0  0  0  0  0  0  0  0  0
    8.5960  -15.6399   24.3558 C   0  0  0  0  0  0  0  0  0  0  0  0
    7.8985  -14.4389   24.9689 C   0  0  0  0  0  0  0  0  0  0  0  0
    6.7617  -14.8317   25.7606 N   0  0  0  0  0  0  0  0  0  0  0  0
   12.4975  -16.7940   21.5618 C   0  0  0  0  0  0  0  0  0  0  0  0
   12.2220  -17.3038   20.4685 O   0  0  0  0  0  0  0  0  0  0  0  0
   13.6180  -17.3081   22.2398 O   0  0  0  0  0  0  0  0  0  0  0  0
  2  1  1  0
  3  2  1  0
  3  4  1  6
  5  6  2  0
  5  3  1  0
  7  5  1  0
  8  7  1  0
  9  8  1  0
 10  9  2  0
 11  9  1  0
 12 13  1  6
 12 11  1  0
 13 14  1  0
 14 15  1  0
 15 16  1  0
 16 17  1  0
 18 12  1  0
 19 18  2  0
 20 18  1  0
M  END
$$$$
