SGK.pdb
     RDKit          3D

 20 19  0  0  1  0  0  0  0  0999 V2000
    8.7520  -19.5191   17.8518 O   0  0  0  0  0  0  0  0  0  0  0  0
    9.5996  -18.4196   17.7377 C   0  0  0  0  0  0  0  0  0  0  0  0
   10.2735  -18.0996   19.0547 C   0  0  2  0  0  0  0  0  0  0  0  0
   10.8158  -19.2558   19.6939 N   0  0  0  0  0  0  0  0  0  0  0  0
    9.2868  -17.3666   19.9015 C   0  0  0  0  0  0  0  0  0  0  0  0
    8.9249  -16.2357   19.4767 O   0  0  0  0  0  0  0  0  0  0  0  0
    8.7696  -17.8820   21.1129 N   0  0  0  0  0  0  0  0  0  0  0  0
    7.6848  -17.2741   21.8165 C   0  0  0  0  0  0  0  0  0  0  0  0
    8.1273  -16.2779   22.8207 C   0  0  0  0  0  0  0  0  0  0  0  0
    9.3504  -16.1406   23.0679 O   0  0  0  0  0  0  0  0  0  0  0  0
    7.2389  -15.4449   23.5426 N   0  0  0  0  0  0  0  0  0  0  0  0
    7.6928  -14.4635   24.5425 C   0  0  1  0  0  0  0  0  0  0  0  0
    6.5459  -13.7117   25.1090 C   0  0  0  0  0  0  0  0  0  0  0  0
    6.9931  -12.7308   26.1503 C   0  0  0  0  0  0  0  0  0  0  0  0
    5.8192  -11.9279   26.7074 C   0  0  0  0  0  0  0  0  0  0  0  0
    6.4002  -10.8568   27.6130 C   0  0  0  0  0  0  0  0  0  0  0  0
    5.3670  -10.0830   28.2512 N   0  0  0  0  0  0  0  0  0  0  0  0
    8.4724  -15.1184   25.5937 C   0  0  0  0  0  0  0  0  0  0  0  0
    8.1953  -16.2045   26.1179 O   0  0  0  0  0  0  0  0  0  0  0  0
    9.6327  -14.4679   26.0521 O   0  0  0  0  0  0  0  0  0  0  0  0
  2  1  1  0
  3  2  1  0
  3  4  1  1
  5  6  2  0
  5  3  1  0
  7  5  1  0
  8  7  1  0
  9  8  1  0
 10  9  2  0
 11  9  1  0
 12 13  1  1
 12 11  1  0
 13 14  1  0
 14 15  1  0
 15 16  1  0
 16 17  1  0
 18 12  1  0
 19 18  2  0
 20 18  1  0
M  END
$$$$
