SGK.pdb
     RDKit          3D

 20 19  0  0  1  0  0  0  0  0999 V2000
    4.8539  -19.5721   22.5504 O   0  0  0  0  0  0  0  0  0  0  0  0
    6.0670  -18.8893   22.4998 C   0  0  0  0  0  0  0  0  0  0  0  0
    6.8833  -19.2972   21.2922 C   0  0  2  0  0  0  0  0  0  0  0  0
    7.1450  -20.7005   21.2498 N   0  0  0  0  0  0  0  0  0  0  0  0
    8.1232  -18.4663   21.2826 C   0  0  0  0  0  0  0  0  0  0  0  0
    9.0813  -18.8934   21.9827 O   0  0  0  0  0  0  0  0  0  0  0  0
    8.2480  -17.2669   20.5433 N   0  0  0  0  0  0  0  0  0  0  0  0
    9.4269  -16.4599   20.5632 C   0  0  0  0  0  0  0  0  0  0  0  0
    9.5531  -15.6435   21.7938 C   0  0  0  0  0  0  0  0  0  0  0  0
   10.5852  -14.9546   21.9837 O   0  0  0  0  0  0  0  0  0  0  0  0
    8.5597  -15.5851   22.8008 N   0  0  0  0  0  0  0  0  0  0  0  0
    8.7008  -14.7729   24.0211 C   0  0  1  0  0  0  0  0  0  0  0  0
    7.4347  -14.0685   24.3410 C   0  0  0  0  0  0  0  0  0  0  0  0
    7.5526  -13.2751   25.6071 C   0  0  0  0  0  0  0  0  0  0  0  0
    6.2406  -12.5756   25.9566 C   0  0  0  0  0  0  0  0  0  0  0  0
    6.5068  -11.7087   27.1742 C   0  0  0  0  0  0  0  0  0  0  0  0
    5.3162  -11.0272   27.6117 N   0  0  0  0  0  0  0  0  0  0  0  0
    9.1498  -15.5982   25.1432 C   0  0  0  0  0  0  0  0  0  0  0  0
    9.0419  -16.8289   25.2137 O   0  0  0  0  0  0  0  0  0  0  0  0
    9.7545  -14.9485   26.2350 O   0  0  0  0  0  0  0  0  0  0  0  0
  2  1  1  0
  3  2  1  0
  3  4  1  1
  5  6  2  0
  5  3  1  0
  7  5  1  0
  8  7  1  0
  9  8  1  0
 10  9  2  0
 11  9  1  0
 12 13  1  1
 12 11  1  0
 13 14  1  0
 14 15  1  0
 15 16  1  0
 16 17  1  0
 18 12  1  0
 19 18  2  0
 20 18  1  0
M  END
$$$$
