SGK.pdb
     RDKit          3D

 20 19  0  0  1  0  0  0  0  0999 V2000
   -1.5188  -25.9234   24.3880 O   0  0  0  0  0  0  0  0  0  0  0  0
   -1.7031  -24.8840   25.2968 C   0  0  0  0  0  0  0  0  0  0  0  0
   -2.6294  -25.2894   26.4232 C   0  0  2  0  0  0  0  0  0  0  0  0
   -3.9043  -25.7340   25.9580 N   0  0  0  0  0  0  0  0  0  0  0  0
   -2.7164  -24.1412   27.3729 C   0  0  0  0  0  0  0  0  0  0  0  0
   -1.6181  -23.6409   27.7388 O   0  0  0  0  0  0  0  0  0  0  0  0
   -3.9415  -23.6219   27.8525 N   0  0  0  0  0  0  0  0  0  0  0  0
   -4.0206  -22.4813   28.7095 C   0  0  0  0  0  0  0  0  0  0  0  0
   -5.4123  -22.1134   29.0623 C   0  0  0  0  0  0  0  0  0  0  0  0
   -5.6278  -21.1301   29.8123 O   0  0  0  0  0  0  0  0  0  0  0  0
   -6.5504  -22.8158   28.5977 N   0  0  0  0  0  0  0  0  0  0  0  0
   -7.9293  -22.4146   28.9239 C   0  0  1  0  0  0  0  0  0  0  0  0
   -8.8405  -22.6620   27.7793 C   0  0  0  0  0  0  0  0  0  0  0  0
   -8.4070  -21.9068   26.5594 C   0  0  0  0  0  0  0  0  0  0  0  0
   -9.2213  -22.3079   25.3309 C   0  0  0  0  0  0  0  0  0  0  0  0
   -8.6127  -21.5923   24.1383 C   0  0  0  0  0  0  0  0  0  0  0  0
   -9.4295  -21.7331   22.9608 N   0  0  0  0  0  0  0  0  0  0  0  0
   -8.3945  -23.0963   30.1325 C   0  0  0  0  0  0  0  0  0  0  0  0
   -9.4176  -22.8090   30.7665 O   0  0  0  0  0  0  0  0  0  0  0  0
   -7.6225  -24.1665   30.6207 O   0  0  0  0  0  0  0  0  0  0  0  0
  2  1  1  0
  3  2  1  0
  3  4  1  6
  5  6  2  0
  5  3  1  0
  7  5  1  0
  8  7  1  0
  9  8  1  0
 10  9  2  0
 11  9  1  0
 12 13  1  6
 12 11  1  0
 13 14  1  0
 14 15  1  0
 15 16  1  0
 16 17  1  0
 18 12  1  0
 19 18  2  0
 20 18  1  0
M  END
$$$$
