SGK.pdb
     RDKit          3D

 20 19  0  0  1  0  0  0  0  0999 V2000
    9.7641  -13.3628   18.1229 O   0  0  0  0  0  0  0  0  0  0  0  0
    8.6196  -13.8130   17.4688 C   0  0  0  0  0  0  0  0  0  0  0  0
    7.4395  -13.9012   18.4125 C   0  0  2  0  0  0  0  0  0  0  0  0
    7.2041  -12.6827   19.1192 N   0  0  0  0  0  0  0  0  0  0  0  0
    7.6665  -15.0699   19.3128 C   0  0  0  0  0  0  0  0  0  0  0  0
    7.9393  -16.1620   18.7441 O   0  0  0  0  0  0  0  0  0  0  0  0
    7.5878  -14.9903   20.7227 N   0  0  0  0  0  0  0  0  0  0  0  0
    7.9174  -16.0823   21.5831 C   0  0  0  0  0  0  0  0  0  0  0  0
    8.6393  -15.6618   22.8074 C   0  0  0  0  0  0  0  0  0  0  0  0
    9.8873  -15.5280   22.7822 O   0  0  0  0  0  0  0  0  0  0  0  0
    7.9992  -15.3922   24.0411 N   0  0  0  0  0  0  0  0  0  0  0  0
    8.7220  -14.9182   25.2334 C   0  0  1  0  0  0  0  0  0  0  0  0
    7.7877  -14.3235   26.2207 C   0  0  0  0  0  0  0  0  0  0  0  0
    7.2784  -12.9909   25.7610 C   0  0  0  0  0  0  0  0  0  0  0  0
    6.2757  -12.4004   26.7505 C   0  0  0  0  0  0  0  0  0  0  0  0
    5.7821  -11.0920   26.1593 C   0  0  0  0  0  0  0  0  0  0  0  0
    4.8688  -10.4194   27.0463 N   0  0  0  0  0  0  0  0  0  0  0  0
    9.5069  -16.0011   25.8275 C   0  0  0  0  0  0  0  0  0  0  0  0
   10.3414  -15.8667   26.7312 O   0  0  0  0  0  0  0  0  0  0  0  0
    9.3030  -17.3044   25.3379 O   0  0  0  0  0  0  0  0  0  0  0  0
  2  1  1  0
  3  2  1  0
  3  4  1  1
  5  6  2  0
  5  3  1  0
  7  5  1  0
  8  7  1  0
  9  8  1  0
 10  9  2  0
 11  9  1  0
 12 13  1  1
 12 11  1  0
 13 14  1  0
 14 15  1  0
 15 16  1  0
 16 17  1  0
 18 12  1  0
 19 18  2  0
 20 18  1  0
M  END
$$$$
