SGK.pdb
     RDKit          3D

 20 19  0  0  1  0  0  0  0  0999 V2000
   11.7303  -16.6898   19.5650 O   0  0  0  0  0  0  0  0  0  0  0  0
   12.4345  -17.5686   20.3848 C   0  0  0  0  0  0  0  0  0  0  0  0
   11.5822  -18.7513   20.7921 C   0  0  2  0  0  0  0  0  0  0  0  0
   11.1149  -19.5074   19.6743 N   0  0  0  0  0  0  0  0  0  0  0  0
   10.4802  -18.2379   21.6580 C   0  0  0  0  0  0  0  0  0  0  0  0
    9.3078  -18.4352   21.2372 O   0  0  0  0  0  0  0  0  0  0  0  0
   10.7040  -17.5663   22.8825 N   0  0  0  0  0  0  0  0  0  0  0  0
    9.6460  -17.1713   23.7578 C   0  0  0  0  0  0  0  0  0  0  0  0
   10.1233  -16.4389   24.9548 C   0  0  0  0  0  0  0  0  0  0  0  0
   11.3553  -16.3181   25.1635 O   0  0  0  0  0  0  0  0  0  0  0  0
    9.2594  -15.8481   25.9082 N   0  0  0  0  0  0  0  0  0  0  0  0
    9.7477  -15.0857   27.0697 C   0  0  1  0  0  0  0  0  0  0  0  0
    8.6781  -14.2214   27.6268 C   0  0  0  0  0  0  0  0  0  0  0  0
    8.2434  -13.1807   26.6397 C   0  0  0  0  0  0  0  0  0  0  0  0
    7.0727  -12.3559   27.1711 C   0  0  0  0  0  0  0  0  0  0  0  0
    6.6595  -11.4021   26.0646 C   0  0  0  0  0  0  0  0  0  0  0  0
    5.4547  -10.6887   26.4007 N   0  0  0  0  0  0  0  0  0  0  0  0
   10.2907  -15.9854   28.0883 C   0  0  0  0  0  0  0  0  0  0  0  0
   10.0077  -17.1841   28.2076 O   0  0  0  0  0  0  0  0  0  0  0  0
   11.2097  -15.4533   29.0113 O   0  0  0  0  0  0  0  0  0  0  0  0
  2  1  1  0
  3  2  1  0
  3  4  1  6
  5  6  2  0
  5  3  1  0
  7  5  1  0
  8  7  1  0
  9  8  1  0
 10  9  2  0
 11  9  1  0
 12 13  1  1
 12 11  1  0
 13 14  1  0
 14 15  1  0
 15 16  1  0
 16 17  1  0
 18 12  1  0
 19 18  2  0
 20 18  1  0
M  END
$$$$
