SGK.pdb
     RDKit          3D

 20 19  0  0  1  0  0  0  0  0999 V2000
   -0.5695  -20.2143   21.6434 O   0  0  0  0  0  0  0  0  0  0  0  0
   -1.3225  -20.1364   22.8126 C   0  0  0  0  0  0  0  0  0  0  0  0
   -2.3241  -21.2676   22.9040 C   0  0  2  0  0  0  0  0  0  0  0  0
   -3.1719  -21.3496   21.7577 N   0  0  0  0  0  0  0  0  0  0  0  0
   -3.0764  -21.1036   24.1826 C   0  0  0  0  0  0  0  0  0  0  0  0
   -2.3857  -21.1216   25.2376 O   0  0  0  0  0  0  0  0  0  0  0  0
   -4.4797  -20.9362   24.2414 N   0  0  0  0  0  0  0  0  0  0  0  0
   -5.1848  -20.7034   25.4622 C   0  0  0  0  0  0  0  0  0  0  0  0
   -5.4098  -21.9390   26.2493 C   0  0  0  0  0  0  0  0  0  0  0  0
   -5.4362  -23.0526   25.6705 O   0  0  0  0  0  0  0  0  0  0  0  0
   -5.6030  -21.9504   27.6518 N   0  0  0  0  0  0  0  0  0  0  0  0
   -5.7690  -23.1904   28.4288 C   0  0  1  0  0  0  0  0  0  0  0  0
   -4.4596  -23.8431   28.6756 C   0  0  0  0  0  0  0  0  0  0  0  0
   -4.6149  -25.0988   29.4791 C   0  0  0  0  0  0  0  0  0  0  0  0
   -3.2787  -25.8140   29.6684 C   0  0  0  0  0  0  0  0  0  0  0  0
   -3.5702  -27.1261   30.3743 C   0  0  0  0  0  0  0  0  0  0  0  0
   -2.3684  -27.8866   30.5997 N   0  0  0  0  0  0  0  0  0  0  0  0
   -6.4770  -22.9251   29.6819 C   0  0  0  0  0  0  0  0  0  0  0  0
   -6.9114  -23.7888   30.4543 O   0  0  0  0  0  0  0  0  0  0  0  0
   -6.6853  -21.5822   30.0464 O   0  0  0  0  0  0  0  0  0  0  0  0
  2  1  1  0
  3  2  1  0
  3  4  1  6
  5  6  2  0
  5  3  1  0
  7  5  1  0
  8  7  1  0
  9  8  1  0
 10  9  2  0
 11  9  1  0
 12 13  1  1
 12 11  1  0
 13 14  1  0
 14 15  1  0
 15 16  1  0
 16 17  1  0
 18 12  1  0
 19 18  2  0
 20 18  1  0
M  END
$$$$
