SGK.pdb
     RDKit          3D

 20 19  0  0  1  0  0  0  0  0999 V2000
    7.3816  -19.4234   17.5404 O   0  0  0  0  0  0  0  0  0  0  0  0
    8.4530  -18.6011   17.1992 C   0  0  0  0  0  0  0  0  0  0  0  0
    8.4792  -17.3450   18.0435 C   0  0  2  0  0  0  0  0  0  0  0  0
    9.5305  -16.4519   17.6736 N   0  0  0  0  0  0  0  0  0  0  0  0
    8.5379  -17.7632   19.4751 C   0  0  0  0  0  0  0  0  0  0  0  0
    9.5667  -18.4044   19.8228 O   0  0  0  0  0  0  0  0  0  0  0  0
    7.5175  -17.4734   20.4107 N   0  0  0  0  0  0  0  0  0  0  0  0
    7.5932  -17.8520   21.7864 C   0  0  0  0  0  0  0  0  0  0  0  0
    8.1951  -16.8053   22.6461 C   0  0  0  0  0  0  0  0  0  0  0  0
    9.3445  -16.3705   22.3895 O   0  0  0  0  0  0  0  0  0  0  0  0
    7.5436  -16.2449   23.7712 N   0  0  0  0  0  0  0  0  0  0  0  0
    8.1410  -15.1824   24.5976 C   0  0  1  0  0  0  0  0  0  0  0  0
    7.1403  -14.6077   25.5303 C   0  0  0  0  0  0  0  0  0  0  0  0
    7.2221  -13.1116   25.5696 C   0  0  0  0  0  0  0  0  0  0  0  0
    6.2229  -12.5197   26.5616 C   0  0  0  0  0  0  0  0  0  0  0  0
    6.4776  -11.0239   26.6138 C   0  0  0  0  0  0  0  0  0  0  0  0
    5.6131  -10.3706   27.5620 N   0  0  0  0  0  0  0  0  0  0  0  0
    9.3136  -15.6830   25.3161 C   0  0  0  0  0  0  0  0  0  0  0  0
   10.2357  -14.9840   25.7544 O   0  0  0  0  0  0  0  0  0  0  0  0
    9.4089  -17.0703   25.5306 O   0  0  0  0  0  0  0  0  0  0  0  0
  2  1  1  0
  3  2  1  0
  3  4  1  6
  5  6  2  0
  5  3  1  0
  7  5  1  0
  8  7  1  0
  9  8  1  0
 10  9  2  0
 11  9  1  0
 12 13  1  1
 12 11  1  0
 13 14  1  0
 14 15  1  0
 15 16  1  0
 16 17  1  0
 18 12  1  0
 19 18  2  0
 20 18  1  0
M  END
$$$$
