SGK.pdb
     RDKit          3D

 20 19  0  0  1  0  0  0  0  0999 V2000
    0.3009  -20.8502   19.5105 O   0  0  0  0  0  0  0  0  0  0  0  0
    1.5857  -20.8868   20.0473 C   0  0  0  0  0  0  0  0  0  0  0  0
    1.6925  -20.0295   21.2902 C   0  0  2  0  0  0  0  0  0  0  0  0
    0.7814  -18.9299   21.2835 N   0  0  0  0  0  0  0  0  0  0  0  0
    3.1186  -19.6121   21.4308 C   0  0  0  0  0  0  0  0  0  0  0  0
    3.9715  -20.5410   21.4145 O   0  0  0  0  0  0  0  0  0  0  0  0
    3.5221  -18.2642   21.5753 N   0  0  0  0  0  0  0  0  0  0  0  0
    4.8898  -17.8710   21.7027 C   0  0  0  0  0  0  0  0  0  0  0  0
    5.4126  -18.0202   23.0816 C   0  0  0  0  0  0  0  0  0  0  0  0
    4.7496  -17.5796   24.0523 O   0  0  0  0  0  0  0  0  0  0  0  0
    6.6456  -18.6442   23.3891 N   0  0  0  0  0  0  0  0  0  0  0  0
    7.2143  -18.6717   24.7472 C   0  0  1  0  0  0  0  0  0  0  0  0
    8.3098  -19.6676   24.8454 C   0  0  0  0  0  0  0  0  0  0  0  0
    8.8696  -19.7328   26.2341 C   0  0  0  0  0  0  0  0  0  0  0  0
   10.0481  -20.7007   26.3205 C   0  0  0  0  0  0  0  0  0  0  0  0
   10.4439  -20.7935   27.7832 C   0  0  0  0  0  0  0  0  0  0  0  0
   11.4792  -21.7721   27.9923 N   0  0  0  0  0  0  0  0  0  0  0  0
    7.6686  -17.3387   25.1452 C   0  0  0  0  0  0  0  0  0  0  0  0
    8.2208  -16.5194   24.4001 O   0  0  0  0  0  0  0  0  0  0  0  0
    7.4654  -16.9480   26.4815 O   0  0  0  0  0  0  0  0  0  0  0  0
  2  1  1  0
  3  2  1  0
  3  4  1  6
  5  6  2  0
  5  3  1  0
  7  5  1  0
  8  7  1  0
  9  8  1  0
 10  9  2  0
 11  9  1  0
 12 13  1  6
 12 11  1  0
 13 14  1  0
 14 15  1  0
 15 16  1  0
 16 17  1  0
 18 12  1  0
 19 18  2  0
 20 18  1  0
M  END
$$$$
