SGK.pdb
     RDKit          3D

 20 19  0  0  1  0  0  0  0  0999 V2000
   10.8256  -14.4880   16.2219 O   0  0  0  0  0  0  0  0  0  0  0  0
   10.1842  -14.4945   17.4584 C   0  0  0  0  0  0  0  0  0  0  0  0
    8.6853  -14.6396   17.3052 C   0  0  2  0  0  0  0  0  0  0  0  0
    8.0848  -13.5189   16.6548 N   0  0  0  0  0  0  0  0  0  0  0  0
    8.1162  -14.9098   18.6583 C   0  0  0  0  0  0  0  0  0  0  0  0
    7.5551  -13.9345   19.2278 O   0  0  0  0  0  0  0  0  0  0  0  0
    8.1856  -16.1728   19.2913 N   0  0  0  0  0  0  0  0  0  0  0  0
    7.4687  -16.4838   20.4875 C   0  0  0  0  0  0  0  0  0  0  0  0
    8.0342  -15.8307   21.6918 C   0  0  0  0  0  0  0  0  0  0  0  0
    9.2560  -15.5451   21.7324 O   0  0  0  0  0  0  0  0  0  0  0  0
    7.2684  -15.4964   22.8347 N   0  0  0  0  0  0  0  0  0  0  0  0
    7.7793  -14.6445   23.9219 C   0  0  1  0  0  0  0  0  0  0  0  0
    6.6650  -14.0541   24.7038 C   0  0  0  0  0  0  0  0  0  0  0  0
    7.1736  -13.2203   25.8407 C   0  0  0  0  0  0  0  0  0  0  0  0
    6.0327  -12.5325   26.5879 C   0  0  0  0  0  0  0  0  0  0  0  0
    6.6610  -11.6775   27.6737 C   0  0  0  0  0  0  0  0  0  0  0  0
    5.6653  -10.9647   28.4314 N   0  0  0  0  0  0  0  0  0  0  0  0
    8.6943  -15.3961   24.7820 C   0  0  0  0  0  0  0  0  0  0  0  0
    8.5366  -16.5699   25.1406 O   0  0  0  0  0  0  0  0  0  0  0  0
    9.8497  -14.7392   25.2435 O   0  0  0  0  0  0  0  0  0  0  0  0
  2  1  1  0
  3  2  1  0
  3  4  1  1
  5  6  2  0
  5  3  1  0
  7  5  1  0
  8  7  1  0
  9  8  1  0
 10  9  2  0
 11  9  1  0
 12 13  1  1
 12 11  1  0
 13 14  1  0
 14 15  1  0
 15 16  1  0
 16 17  1  0
 18 12  1  0
 19 18  2  0
 20 18  1  0
M  END
$$$$
