SGK.pdb
     RDKit          3D

 20 19  0  0  1  0  0  0  0  0999 V2000
    8.1824  -13.2924   14.9573 O   0  0  0  0  0  0  0  0  0  0  0  0
    7.6852  -13.7216   16.1857 C   0  0  0  0  0  0  0  0  0  0  0  0
    8.6580  -14.6463   16.8856 C   0  0  2  0  0  0  0  0  0  0  0  0
    9.1099  -15.7106   16.0474 N   0  0  0  0  0  0  0  0  0  0  0  0
    8.0066  -15.1217   18.1415 C   0  0  0  0  0  0  0  0  0  0  0  0
    7.6006  -16.3157   18.1370 O   0  0  0  0  0  0  0  0  0  0  0  0
    7.8393  -14.3068   19.2855 N   0  0  0  0  0  0  0  0  0  0  0  0
    7.1864  -14.7584   20.4735 C   0  0  0  0  0  0  0  0  0  0  0  0
    8.0793  -14.7803   21.6563 C   0  0  0  0  0  0  0  0  0  0  0  0
    9.2897  -14.4720   21.5313 O   0  0  0  0  0  0  0  0  0  0  0  0
    7.6483  -15.1357   22.9572 N   0  0  0  0  0  0  0  0  0  0  0  0
    8.4344  -14.8494   24.1691 C   0  0  1  0  0  0  0  0  0  0  0  0
    7.5483  -14.5214   25.3131 C   0  0  0  0  0  0  0  0  0  0  0  0
    7.3648  -13.0411   25.4586 C   0  0  0  0  0  0  0  0  0  0  0  0
    6.4555  -12.7003   26.6375 C   0  0  0  0  0  0  0  0  0  0  0  0
    6.2628  -11.1944   26.6326 C   0  0  0  0  0  0  0  0  0  0  0  0
    5.3924  -10.7668   27.6971 N   0  0  0  0  0  0  0  0  0  0  0  0
    9.3224  -15.9686   24.4864 C   0  0  0  0  0  0  0  0  0  0  0  0
    9.1884  -17.1271   24.0727 O   0  0  0  0  0  0  0  0  0  0  0  0
   10.4202  -15.7167   25.3296 O   0  0  0  0  0  0  0  0  0  0  0  0
  2  1  1  0
  3  2  1  0
  3  4  1  6
  5  6  2  0
  5  3  1  0
  7  5  1  0
  8  7  1  0
  9  8  1  0
 10  9  2  0
 11  9  1  0
 12 13  1  1
 12 11  1  0
 13 14  1  0
 14 15  1  0
 15 16  1  0
 16 17  1  0
 18 12  1  0
 19 18  2  0
 20 18  1  0
M  END
$$$$
