SGK.pdb
     RDKit          3D

 20 19  0  0  1  0  0  0  0  0999 V2000
    6.1870  -13.6043   18.9505 O   0  0  0  0  0  0  0  0  0  0  0  0
    6.7707  -12.8424   19.9600 C   0  0  0  0  0  0  0  0  0  0  0  0
    8.2738  -13.0183   19.9894 C   0  0  2  0  0  0  0  0  0  0  0  0
    8.8901  -12.7202   18.7360 N   0  0  0  0  0  0  0  0  0  0  0  0
    8.5581  -14.4021   20.4712 C   0  0  0  0  0  0  0  0  0  0  0  0
    8.9930  -15.2109   19.6068 O   0  0  0  0  0  0  0  0  0  0  0  0
    8.3621  -14.8132   21.8103 N   0  0  0  0  0  0  0  0  0  0  0  0
    8.3966  -16.1826   22.2166 C   0  0  0  0  0  0  0  0  0  0  0  0
    8.0717  -16.3731   23.6500 C   0  0  0  0  0  0  0  0  0  0  0  0
    7.6865  -15.3967   24.3387 O   0  0  0  0  0  0  0  0  0  0  0  0
    8.1685  -17.6182   24.3169 N   0  0  0  0  0  0  0  0  0  0  0  0
    8.0186  -17.7614   25.7749 C   0  0  1  0  0  0  0  0  0  0  0  0
    7.7532  -19.1731   26.1465 C   0  0  0  0  0  0  0  0  0  0  0  0
    6.6418  -19.7567   25.3276 C   0  0  0  0  0  0  0  0  0  0  0  0
    6.3310  -21.1931   25.7439 C   0  0  0  0  0  0  0  0  0  0  0  0
    5.3355  -21.7442   24.7389 C   0  0  0  0  0  0  0  0  0  0  0  0
    5.0659  -23.1399   24.9688 N   0  0  0  0  0  0  0  0  0  0  0  0
    9.1961  -17.2396   26.4700 C   0  0  0  0  0  0  0  0  0  0  0  0
   10.3152  -17.0865   25.9647 O   0  0  0  0  0  0  0  0  0  0  0  0
    9.0537  -16.8800   27.8228 O   0  0  0  0  0  0  0  0  0  0  0  0
  2  1  1  0
  3  2  1  0
  3  4  1  6
  5  6  2  0
  5  3  1  0
  7  5  1  0
  8  7  1  0
  9  8  1  0
 10  9  2  0
 11  9  1  0
 12 13  1  6
 12 11  1  0
 13 14  1  0
 14 15  1  0
 15 16  1  0
 16 17  1  0
 18 12  1  0
 19 18  2  0
 20 18  1  0
M  END
$$$$
