MHM.pdb
     RDKit          3D

 27 27  0  0  1  0  0  0  0  0999 V2000
   31.8327  -30.4043  -19.1365 C   0  0  0  0  0  0  0  0  0  0  0  0
   30.1838  -31.1801  -19.0405 S   0  0  0  0  0  0  0  0  0  0  0  0
   29.3436  -30.7000  -17.5232 C   0  0  0  0  0  0  0  0  0  0  0  0
   29.0928  -29.2338  -17.4213 C   0  0  0  0  0  0  0  0  0  0  0  0
   27.6370  -28.9391  -17.6335 C   0  0  2  0  0  0  0  0  0  0  0  0
   27.3006  -28.7099  -19.0027 N   0  0  0  0  0  0  0  0  0  0  0  0
   27.2742  -27.8150  -16.7492 C   0  0  0  0  0  0  0  0  0  0  0  0
   27.5815  -27.8788  -15.5259 O   0  0  0  0  0  0  0  0  0  0  0  0
   26.6006  -26.6912  -17.2353 N   0  0  0  0  0  0  0  0  0  0  0  0
   26.3306  -25.5634  -16.3435 C   0  0  1  0  0  0  0  0  0  0  0  0
   26.8918  -24.2959  -16.8779 C   0  0  0  0  0  0  0  0  0  0  0  0
   28.3625  -24.3417  -16.9551 C   0  0  0  0  0  0  0  0  0  0  0  0
   29.1212  -24.5648  -18.0937 C   0  0  0  0  0  0  0  0  0  0  0  0
   30.4094  -24.5680  -17.7693 N   0  0  0  0  0  0  0  0  0  0  0  0
   30.4640  -24.3514  -16.4482 C   0  0  0  0  0  0  0  0  0  0  0  0
   29.2512  -24.2133  -15.9405 N   0  0  0  0  0  0  0  0  0  0  0  0
   24.8573  -25.4518  -16.2238 C   0  0  0  0  0  0  0  0  0  0  0  0
   24.1039  -25.6644  -17.2235 O   0  0  0  0  0  0  0  0  0  0  0  0
   20.7362  -27.9196  -11.4511 C   0  0  0  0  0  0  0  0  0  0  0  0
   20.3358  -26.8031  -12.7871 S   0  0  0  0  0  0  0  0  0  0  0  0
   21.1863  -25.2828  -12.8294 C   0  0  0  0  0  0  0  0  0  0  0  0
   22.5063  -25.0490  -13.3948 C   0  0  0  0  0  0  0  0  0  0  0  0
   22.8419  -25.0209  -14.8119 C   0  0  2  0  0  0  0  0  0  0  0  0
   24.3134  -25.1013  -14.9642 N   0  0  0  0  0  0  0  0  0  0  0  0
   22.3748  -23.9241  -15.6550 C   0  0  0  0  0  0  0  0  0  0  0  0
   22.8876  -22.8142  -15.8054 O   0  0  0  0  0  0  0  0  0  0  0  0
   21.1843  -24.1494  -16.3996 O   0  0  0  0  0  0  0  0  0  0  0  0
  2  1  1  0
  3  2  1  0
  4  3  1  0
  4  5  1  0
  5  6  1  6
  7  5  1  0
  7  8  2  0
  9  7  1  0
 10  9  1  0
 10 11  1  6
 11 12  1  0
 12 13  2  0
 13 14  1  0
 15 14  1  0
 16 12  1  0
 16 15  2  0
 17 10  1  0
 18 17  2  0
 20 19  1  0
 21 20  1  0
 21 22  1  0
 23 22  1  1
 23 25  1  0
 23 24  1  0
 24 17  1  0
 25 27  1  0
 26 25  2  0
M  END
$$$$
