MHM.pdb
     RDKit          3D

 27 27  0  0  1  0  0  0  0  0999 V2000
   28.6924  -26.9221  -16.5981 C   0  0  0  0  0  0  0  0  0  0  0  0
   26.9121  -26.6093  -16.8486 S   0  0  0  0  0  0  0  0  0  0  0  0
   26.6098  -24.8594  -17.1400 C   0  0  0  0  0  0  0  0  0  0  0  0
   27.3047  -23.9665  -16.1689 C   0  0  0  0  0  0  0  0  0  0  0  0
   27.0716  -22.5280  -16.5260 C   0  0  2  0  0  0  0  0  0  0  0  0
   27.8142  -22.1021  -17.6695 N   0  0  0  0  0  0  0  0  0  0  0  0
   27.3415  -21.7184  -15.3223 C   0  0  0  0  0  0  0  0  0  0  0  0
   28.5405  -21.4788  -15.0057 O   0  0  0  0  0  0  0  0  0  0  0  0
   26.3041  -21.2176  -14.5312 N   0  0  0  0  0  0  0  0  0  0  0  0
   26.6078  -20.3160  -13.4199 C   0  0  1  0  0  0  0  0  0  0  0  0
   25.8554  -19.0396  -13.5287 C   0  0  0  0  0  0  0  0  0  0  0  0
   26.4587  -18.1355  -14.5237 C   0  0  0  0  0  0  0  0  0  0  0  0
   27.6355  -18.3493  -15.2244 C   0  0  0  0  0  0  0  0  0  0  0  0
   27.8773  -17.3028  -16.0062 N   0  0  0  0  0  0  0  0  0  0  0  0
   26.8709  -16.4420  -15.8024 C   0  0  0  0  0  0  0  0  0  0  0  0
   26.0108  -16.9196  -14.9194 N   0  0  0  0  0  0  0  0  0  0  0  0
   26.2243  -21.0228  -12.1745 C   0  0  0  0  0  0  0  0  0  0  0  0
   25.3762  -21.9675  -12.1956 O   0  0  0  0  0  0  0  0  0  0  0  0
   29.1917  -20.2546   -5.9709 C   0  0  0  0  0  0  0  0  0  0  0  0
   27.4673  -19.8022   -5.8546 S   0  0  0  0  0  0  0  0  0  0  0  0
   26.4430  -20.2379   -7.1953 C   0  0  0  0  0  0  0  0  0  0  0  0
   26.8023  -20.1936   -8.6045 C   0  0  0  0  0  0  0  0  0  0  0  0
   26.1640  -20.9426   -9.6783 C   0  0  2  0  0  0  0  0  0  0  0  0
   26.8295  -20.6152  -10.9609 N   0  0  0  0  0  0  0  0  0  0  0  0
   24.7239  -20.8340   -9.8933 C   0  0  0  0  0  0  0  0  0  0  0  0
   24.1215  -20.0056  -10.5778 O   0  0  0  0  0  0  0  0  0  0  0  0
   23.9036  -21.7945   -9.2401 O   0  0  0  0  0  0  0  0  0  0  0  0
  2  1  1  0
  3  2  1  0
  4  3  1  0
  4  5  1  0
  5  6  1  6
  7  5  1  0
  7  8  2  0
  9  7  1  0
 10  9  1  0
 10 11  1  6
 11 12  1  0
 12 13  2  0
 13 14  1  0
 15 14  1  0
 16 12  1  0
 16 15  2  0
 17 10  1  0
 18 17  2  0
 20 19  1  0
 21 20  1  0
 21 22  1  0
 23 22  1  1
 23 25  1  0
 23 24  1  0
 24 17  1  0
 25 27  1  0
 26 25  2  0
M  END
$$$$
