MHM.pdb
     RDKit          3D

 27 27  0  0  1  0  0  0  0  0999 V2000
   32.6067  -21.5857   -9.5268 C   0  0  0  0  0  0  0  0  0  0  0  0
   32.9568  -22.7607  -10.8783 S   0  0  0  0  0  0  0  0  0  0  0  0
   32.2014  -22.2051  -12.4143 C   0  0  0  0  0  0  0  0  0  0  0  0
   30.8840  -21.5344  -12.2200 C   0  0  0  0  0  0  0  0  0  0  0  0
   30.2962  -21.1486  -13.5455 C   0  0  2  0  0  0  0  0  0  0  0  0
   31.1228  -20.2539  -14.2913 N   0  0  0  0  0  0  0  0  0  0  0  0
   28.9414  -20.6191  -13.2974 C   0  0  0  0  0  0  0  0  0  0  0  0
   28.8133  -19.4103  -12.9547 O   0  0  0  0  0  0  0  0  0  0  0  0
   27.8068  -21.4239  -13.4314 N   0  0  0  0  0  0  0  0  0  0  0  0
   26.4873  -20.8788  -13.1121 C   0  0  1  0  0  0  0  0  0  0  0  0
   25.4495  -21.3682  -14.0558 C   0  0  0  0  0  0  0  0  0  0  0  0
   24.1211  -20.8154  -13.7382 C   0  0  0  0  0  0  0  0  0  0  0  0
   23.8213  -19.4861  -13.4839 C   0  0  0  0  0  0  0  0  0  0  0  0
   22.5274  -19.3734  -13.2046 N   0  0  0  0  0  0  0  0  0  0  0  0
   22.0183  -20.6105  -13.2804 C   0  0  0  0  0  0  0  0  0  0  0  0
   22.9538  -21.4888  -13.5982 N   0  0  0  0  0  0  0  0  0  0  0  0
   26.1623  -21.3166  -11.7336 C   0  0  0  0  0  0  0  0  0  0  0  0
   26.2953  -22.5307  -11.3867 O   0  0  0  0  0  0  0  0  0  0  0  0
   28.3911  -18.5005   -6.4456 C   0  0  0  0  0  0  0  0  0  0  0  0
   27.1780  -19.6698   -5.8514 S   0  0  0  0  0  0  0  0  0  0  0  0
   26.0963  -20.3564   -7.0325 C   0  0  0  0  0  0  0  0  0  0  0  0
   26.2061  -20.2308   -8.4778 C   0  0  0  0  0  0  0  0  0  0  0  0
   25.2786  -20.7739   -9.4609 C   0  0  2  0  0  0  0  0  0  0  0  0
   25.6992  -20.3437  -10.8148 N   0  0  0  0  0  0  0  0  0  0  0  0
   23.8473  -20.5098   -9.3436 C   0  0  0  0  0  0  0  0  0  0  0  0
   23.1737  -19.6961   -9.9775 O   0  0  0  0  0  0  0  0  0  0  0  0
   23.1297  -21.2776   -8.3856 O   0  0  0  0  0  0  0  0  0  0  0  0
  2  1  1  0
  3  2  1  0
  4  3  1  0
  4  5  1  0
  5  6  1  1
  7  5  1  0
  7  8  2  0
  9  7  1  0
 10  9  1  0
 10 11  1  6
 11 12  1  0
 12 13  2  0
 13 14  1  0
 15 14  1  0
 16 12  1  0
 16 15  2  0
 17 10  1  0
 18 17  2  0
 20 19  1  0
 21 20  1  0
 21 22  1  0
 23 22  1  1
 23 25  1  0
 23 24  1  0
 24 17  1  0
 25 27  1  0
 26 25  2  0
M  END
$$$$
