MHM.pdb
     RDKit          3D

 27 27  0  0  1  0  0  0  0  0999 V2000
   34.1203  -26.5842  -21.5471 C   0  0  0  0  0  0  0  0  0  0  0  0
   35.2941  -27.9736  -21.4000 S   0  0  0  0  0  0  0  0  0  0  0  0
   34.5233  -29.3707  -20.5679 C   0  0  0  0  0  0  0  0  0  0  0  0
   34.1976  -29.1044  -19.1375 C   0  0  0  0  0  0  0  0  0  0  0  0
   32.7618  -29.4400  -18.8597 C   0  0  2  0  0  0  0  0  0  0  0  0
   32.1925  -28.6597  -17.8074 N   0  0  0  0  0  0  0  0  0  0  0  0
   32.6807  -30.8931  -18.6161 C   0  0  0  0  0  0  0  0  0  0  0  0
   33.0185  -31.6853  -19.5398 O   0  0  0  0  0  0  0  0  0  0  0  0
   32.2388  -31.4050  -17.3932 N   0  0  0  0  0  0  0  0  0  0  0  0
   32.1754  -32.8526  -17.1916 C   0  0  1  0  0  0  0  0  0  0  0  0
   33.4238  -33.3756  -16.5792 C   0  0  0  0  0  0  0  0  0  0  0  0
   33.3919  -34.8428  -16.4470 C   0  0  0  0  0  0  0  0  0  0  0  0
   32.3396  -35.6780  -16.7887 C   0  0  0  0  0  0  0  0  0  0  0  0
   32.6630  -36.9332  -16.4978 N   0  0  0  0  0  0  0  0  0  0  0  0
   33.8982  -36.8919  -15.9804 C   0  0  0  0  0  0  0  0  0  0  0  0
   34.3536  -35.6515  -15.9404 N   0  0  0  0  0  0  0  0  0  0  0  0
   31.0255  -33.1125  -16.2928 C   0  0  0  0  0  0  0  0  0  0  0  0
   30.9484  -32.5549  -15.1547 O   0  0  0  0  0  0  0  0  0  0  0  0
   23.8211  -32.1516  -14.6792 C   0  0  0  0  0  0  0  0  0  0  0  0
   25.3501  -31.9533  -15.5817 S   0  0  0  0  0  0  0  0  0  0  0  0
   26.5433  -33.2105  -15.4024 C   0  0  0  0  0  0  0  0  0  0  0  0
   27.8501  -33.2559  -16.0403 C   0  0  0  0  0  0  0  0  0  0  0  0
   28.8639  -34.2844  -15.8512 C   0  0  2  0  0  0  0  0  0  0  0  0
   30.0159  -33.9999  -16.7383 N   0  0  0  0  0  0  0  0  0  0  0  0
   28.5201  -35.6934  -16.0201 C   0  0  0  0  0  0  0  0  0  0  0  0
   28.5958  -36.3730  -17.0449 O   0  0  0  0  0  0  0  0  0  0  0  0
   28.0381  -36.3784  -14.8709 O   0  0  0  0  0  0  0  0  0  0  0  0
  2  1  1  0
  3  2  1  0
  4  3  1  0
  4  5  1  0
  5  6  1  1
  7  5  1  0
  7  8  2  0
  9  7  1  0
 10  9  1  0
 10 11  1  1
 11 12  1  0
 12 13  2  0
 13 14  1  0
 15 14  1  0
 16 12  1  0
 16 15  2  0
 17 10  1  0
 18 17  2  0
 20 19  1  0
 21 20  1  0
 21 22  1  0
 23 22  1  6
 23 25  1  0
 23 24  1  0
 24 17  1  0
 25 27  1  0
 26 25  2  0
M  END
$$$$
