MHM.pdb
     RDKit          3D

 27 27  0  0  1  0  0  0  0  0999 V2000
   38.9499   -7.1000  -13.0140 C   0  0  0  0  0  0  0  0  0  0  0  0
   37.2495   -7.5685  -12.5457 S   0  0  0  0  0  0  0  0  0  0  0  0
   36.6076   -8.8264  -13.6611 C   0  0  0  0  0  0  0  0  0  0  0  0
   36.1265   -8.2780  -14.9614 C   0  0  0  0  0  0  0  0  0  0  0  0
   35.5025   -9.3654  -15.7857 C   0  0  2  0  0  0  0  0  0  0  0  0
   36.4603  -10.1960  -16.4437 N   0  0  0  0  0  0  0  0  0  0  0  0
   34.5468   -8.7312  -16.7140 C   0  0  0  0  0  0  0  0  0  0  0  0
   34.9018   -8.5287  -17.9090 O   0  0  0  0  0  0  0  0  0  0  0  0
   33.2676   -8.3518  -16.2988 N   0  0  0  0  0  0  0  0  0  0  0  0
   32.2972   -7.8706  -17.2821 C   0  0  1  0  0  0  0  0  0  0  0  0
   31.1332   -8.7867  -17.3966 C   0  0  0  0  0  0  0  0  0  0  0  0
   31.5122  -10.0751  -18.0029 C   0  0  0  0  0  0  0  0  0  0  0  0
   31.8011  -10.3033  -19.3393 C   0  0  0  0  0  0  0  0  0  0  0  0
   32.0682  -11.5925  -19.5168 N   0  0  0  0  0  0  0  0  0  0  0  0
   31.9493  -12.1693  -18.3132 C   0  0  0  0  0  0  0  0  0  0  0  0
   31.6173  -11.2803  -17.3929 N   0  0  0  0  0  0  0  0  0  0  0  0
   31.8450   -6.5354  -16.8235 C   0  0  0  0  0  0  0  0  0  0  0  0
   31.5061   -6.3412  -15.6153 O   0  0  0  0  0  0  0  0  0  0  0  0
   35.5921   -1.1863  -17.0713 C   0  0  0  0  0  0  0  0  0  0  0  0
   34.3751   -1.4464  -18.3530 S   0  0  0  0  0  0  0  0  0  0  0  0
   33.5172   -2.9630  -18.3333 C   0  0  0  0  0  0  0  0  0  0  0  0
   32.0822   -3.1395  -18.1706 C   0  0  0  0  0  0  0  0  0  0  0  0
   31.4281   -4.1223  -17.3175 C   0  0  2  0  0  0  0  0  0  0  0  0
   31.8010   -5.4829  -17.7698 N   0  0  0  0  0  0  0  0  0  0  0  0
   29.9777   -4.0997  -17.1506 C   0  0  0  0  0  0  0  0  0  0  0  0
   29.1444   -4.8414  -17.6732 O   0  0  0  0  0  0  0  0  0  0  0  0
   29.4473   -3.1065  -16.2820 O   0  0  0  0  0  0  0  0  0  0  0  0
  2  1  1  0
  3  2  1  0
  4  3  1  0
  4  5  1  0
  5  6  1  6
  7  5  1  0
  7  8  2  0
  9  7  1  0
 10  9  1  0
 10 11  1  1
 11 12  1  0
 12 13  2  0
 13 14  1  0
 15 14  1  0
 16 12  1  0
 16 15  2  0
 17 10  1  0
 18 17  2  0
 20 19  1  0
 21 20  1  0
 21 22  1  0
 23 22  1  6
 23 25  1  0
 23 24  1  0
 24 17  1  0
 25 27  1  0
 26 25  2  0
M  END
$$$$
