MHM.pdb
     RDKit          3D

 27 27  0  0  1  0  0  0  0  0999 V2000
   28.2420   -9.7814  -16.4355 C   0  0  0  0  0  0  0  0  0  0  0  0
   28.2325  -11.2634  -17.5002 S   0  0  0  0  0  0  0  0  0  0  0  0
   26.8287  -12.3185  -17.1071 C   0  0  0  0  0  0  0  0  0  0  0  0
   25.5099  -11.6813  -17.3857 C   0  0  0  0  0  0  0  0  0  0  0  0
   25.1629  -10.7068  -16.2989 C   0  0  2  0  0  0  0  0  0  0  0  0
   25.2224  -11.2754  -14.9899 N   0  0  0  0  0  0  0  0  0  0  0  0
   23.8453  -10.1263  -16.6218 C   0  0  0  0  0  0  0  0  0  0  0  0
   23.6402   -9.6939  -17.7906 O   0  0  0  0  0  0  0  0  0  0  0  0
   22.8290  -10.0449  -15.6661 N   0  0  0  0  0  0  0  0  0  0  0  0
   21.5107   -9.5390  -16.0484 C   0  0  1  0  0  0  0  0  0  0  0  0
   20.4368  -10.1071  -15.1933 C   0  0  0  0  0  0  0  0  0  0  0  0
   20.1374  -11.5044  -15.5524 C   0  0  0  0  0  0  0  0  0  0  0  0
   19.9432  -12.0029  -16.8312 C   0  0  0  0  0  0  0  0  0  0  0  0
   19.6618  -13.2993  -16.7592 N   0  0  0  0  0  0  0  0  0  0  0  0
   19.6772  -13.6145  -15.4569 C   0  0  0  0  0  0  0  0  0  0  0  0
   19.9594  -12.5561  -14.7169 N   0  0  0  0  0  0  0  0  0  0  0  0
   21.5529   -8.0653  -15.8926 C   0  0  0  0  0  0  0  0  0  0  0  0
   22.1885   -7.5291  -14.9330 O   0  0  0  0  0  0  0  0  0  0  0  0
   21.0960   -1.3873  -20.2093 C   0  0  0  0  0  0  0  0  0  0  0  0
   21.0745   -3.1681  -20.0682 S   0  0  0  0  0  0  0  0  0  0  0  0
   21.0639   -3.8340  -18.4580 C   0  0  0  0  0  0  0  0  0  0  0  0
   20.9846   -5.2442  -18.1090 C   0  0  0  0  0  0  0  0  0  0  0  0
   20.9698   -5.7969  -16.7615 C   0  0  2  0  0  0  0  0  0  0  0  0
   20.8647   -7.2725  -16.8428 N   0  0  0  0  0  0  0  0  0  0  0  0
   19.9771   -5.3411  -15.7924 C   0  0  0  0  0  0  0  0  0  0  0  0
   18.8579   -5.8095  -15.5786 O   0  0  0  0  0  0  0  0  0  0  0  0
   20.3309   -4.2216  -14.9900 O   0  0  0  0  0  0  0  0  0  0  0  0
  2  1  1  0
  3  2  1  0
  4  3  1  0
  4  5  1  0
  5  6  1  1
  7  5  1  0
  7  8  2  0
  9  7  1  0
 10  9  1  0
 10 11  1  1
 11 12  1  0
 12 13  2  0
 13 14  1  0
 15 14  1  0
 16 12  1  0
 16 15  2  0
 17 10  1  0
 18 17  2  0
 20 19  1  0
 21 20  1  0
 21 22  1  0
 23 22  1  6
 23 25  1  0
 23 24  1  0
 24 17  1  0
 25 27  1  0
 26 25  2  0
M  END
$$$$
