MHM.pdb
     RDKit          3D

 27 27  0  0  1  0  0  0  0  0999 V2000
   32.8302  -21.1872  -10.6774 C   0  0  0  0  0  0  0  0  0  0  0  0
   31.9873  -22.6802  -11.3025 S   0  0  0  0  0  0  0  0  0  0  0  0
   30.7713  -22.2450  -12.5556 C   0  0  0  0  0  0  0  0  0  0  0  0
   30.2348  -20.8617  -12.4080 C   0  0  0  0  0  0  0  0  0  0  0  0
   29.2320  -20.5748  -13.4866 C   0  0  2  0  0  0  0  0  0  0  0  0
   29.7109  -19.6617  -14.4751 N   0  0  0  0  0  0  0  0  0  0  0  0
   27.9879  -20.1250  -12.8330 C   0  0  0  0  0  0  0  0  0  0  0  0
   27.8449  -18.8968  -12.5757 O   0  0  0  0  0  0  0  0  0  0  0  0
   26.9740  -21.0251  -12.4944 N   0  0  0  0  0  0  0  0  0  0  0  0
   25.7673  -20.5419  -11.8234 C   0  0  1  0  0  0  0  0  0  0  0  0
   24.5374  -20.9317  -12.5601 C   0  0  0  0  0  0  0  0  0  0  0  0
   24.3983  -20.1830  -13.8215 C   0  0  0  0  0  0  0  0  0  0  0  0
   24.7928  -20.6091  -15.0802 C   0  0  0  0  0  0  0  0  0  0  0  0
   24.5373  -19.6538  -15.9673 N   0  0  0  0  0  0  0  0  0  0  0  0
   23.9913  -18.6409  -15.2807 C   0  0  0  0  0  0  0  0  0  0  0  0
   23.8987  -18.9357  -13.9954 N   0  0  0  0  0  0  0  0  0  0  0  0
   25.7565  -21.1448  -10.4692 C   0  0  0  0  0  0  0  0  0  0  0  0
   26.0760  -22.3612  -10.2944 O   0  0  0  0  0  0  0  0  0  0  0  0
   28.5646  -18.0622   -5.5603 C   0  0  0  0  0  0  0  0  0  0  0  0
   27.7188  -19.4343   -4.7898 S   0  0  0  0  0  0  0  0  0  0  0  0
   26.5375  -20.2776   -5.7540 C   0  0  0  0  0  0  0  0  0  0  0  0
   26.3009  -20.0987   -7.1783 C   0  0  0  0  0  0  0  0  0  0  0  0
   25.4073  -20.8952   -8.0082 C   0  0  2  0  0  0  0  0  0  0  0  0
   25.3797  -20.3271   -9.3762 N   0  0  0  0  0  0  0  0  0  0  0  0
   24.0230  -21.1121   -7.5973 C   0  0  0  0  0  0  0  0  0  0  0  0
   23.6150  -21.6854   -6.5861 O   0  0  0  0  0  0  0  0  0  0  0  0
   23.0114  -20.6054   -8.4587 O   0  0  0  0  0  0  0  0  0  0  0  0
  2  1  1  0
  3  2  1  0
  4  3  1  0
  4  5  1  0
  5  6  1  6
  7  5  1  0
  7  8  2  0
  9  7  1  0
 10  9  1  0
 10 11  1  6
 11 12  1  0
 12 13  2  0
 13 14  1  0
 15 14  1  0
 16 12  1  0
 16 15  2  0
 17 10  1  0
 18 17  2  0
 20 19  1  0
 21 20  1  0
 21 22  1  0
 23 22  1  1
 23 25  1  0
 23 24  1  0
 24 17  1  0
 25 27  1  0
 26 25  2  0
M  END
$$$$
