MHM.pdb
     RDKit          3D

 27 27  0  0  1  0  0  0  0  0999 V2000
   21.9483  -11.1611  -18.8946 C   0  0  0  0  0  0  0  0  0  0  0  0
   21.2582  -12.8275  -18.6172 S   0  0  0  0  0  0  0  0  0  0  0  0
   19.8171  -12.7470  -17.5423 C   0  0  0  0  0  0  0  0  0  0  0  0
   19.6338  -11.4176  -16.8927 C   0  0  0  0  0  0  0  0  0  0  0  0
   18.3791  -11.4090  -16.0701 C   0  0  2  0  0  0  0  0  0  0  0  0
   17.2029  -11.6895  -16.8305 N   0  0  0  0  0  0  0  0  0  0  0  0
   18.3183  -10.1173  -15.3595 C   0  0  0  0  0  0  0  0  0  0  0  0
   17.5133   -9.2344  -15.7688 O   0  0  0  0  0  0  0  0  0  0  0  0
   19.1293   -9.8538  -14.2524 N   0  0  0  0  0  0  0  0  0  0  0  0
   19.0408   -8.5585  -13.5784 C   0  0  1  0  0  0  0  0  0  0  0  0
   18.8398   -8.7151  -12.1148 C   0  0  0  0  0  0  0  0  0  0  0  0
   17.4477   -9.0745  -11.7921 C   0  0  0  0  0  0  0  0  0  0  0  0
   16.4300   -9.3246  -12.6995 C   0  0  0  0  0  0  0  0  0  0  0  0
   15.3069   -9.5844  -12.0390 N   0  0  0  0  0  0  0  0  0  0  0  0
   15.6096   -9.4991  -10.7365 C   0  0  0  0  0  0  0  0  0  0  0  0
   16.8847   -9.1951  -10.5657 N   0  0  0  0  0  0  0  0  0  0  0  0
   20.3160   -7.8489  -13.8393 C   0  0  0  0  0  0  0  0  0  0  0  0
   21.4315   -8.4375  -13.6925 O   0  0  0  0  0  0  0  0  0  0  0  0
   21.6457   -5.0832  -19.4007 C   0  0  0  0  0  0  0  0  0  0  0  0
   23.1017   -4.9893  -18.3698 S   0  0  0  0  0  0  0  0  0  0  0  0
   22.8594   -5.0916  -16.6472 C   0  0  0  0  0  0  0  0  0  0  0  0
   21.7247   -5.7016  -15.9711 C   0  0  0  0  0  0  0  0  0  0  0  0
   21.5177   -5.7709  -14.5310 C   0  0  2  0  0  0  0  0  0  0  0  0
   20.2558   -6.4970  -14.2561 N   0  0  0  0  0  0  0  0  0  0  0  0
   21.5010   -4.5485  -13.7325 C   0  0  0  0  0  0  0  0  0  0  0  0
   20.5247   -3.9753  -13.2470 O   0  0  0  0  0  0  0  0  0  0  0  0
   22.7570   -3.9333  -13.4751 O   0  0  0  0  0  0  0  0  0  0  0  0
  2  1  1  0
  3  2  1  0
  4  3  1  0
  4  5  1  0
  5  6  1  6
  7  5  1  0
  7  8  2  0
  9  7  1  0
 10  9  1  0
 10 11  1  1
 11 12  1  0
 12 13  2  0
 13 14  1  0
 15 14  1  0
 16 12  1  0
 16 15  2  0
 17 10  1  0
 18 17  2  0
 20 19  1  0
 21 20  1  0
 21 22  1  0
 23 22  1  6
 23 25  1  0
 23 24  1  0
 24 17  1  0
 25 27  1  0
 26 25  2  0
M  END
$$$$
