MHM.pdb
     RDKit          3D

 27 27  0  0  1  0  0  0  0  0999 V2000
   34.0428  -32.4677  -18.0877 C   0  0  0  0  0  0  0  0  0  0  0  0
   32.9325  -31.5282  -16.9857 S   0  0  0  0  0  0  0  0  0  0  0  0
   31.2126  -31.9464  -17.3108 C   0  0  0  0  0  0  0  0  0  0  0  0
   30.8955  -33.3839  -17.0737 C   0  0  0  0  0  0  0  0  0  0  0  0
   29.5171  -33.7019  -17.5738 C   0  0  2  0  0  0  0  0  0  0  0  0
   28.5043  -32.8691  -17.0072 N   0  0  0  0  0  0  0  0  0  0  0  0
   29.2802  -35.1409  -17.3491 C   0  0  0  0  0  0  0  0  0  0  0  0
   28.2864  -35.4933  -16.6540 O   0  0  0  0  0  0  0  0  0  0  0  0
   30.1290  -36.1133  -17.8849 N   0  0  0  0  0  0  0  0  0  0  0  0
   29.7887  -37.5296  -17.7493 C   0  0  1  0  0  0  0  0  0  0  0  0
   30.5738  -38.3737  -18.6864 C   0  0  0  0  0  0  0  0  0  0  0  0
   30.1527  -38.1718  -20.0839 C   0  0  0  0  0  0  0  0  0  0  0  0
   30.6568  -37.2310  -20.9685 C   0  0  0  0  0  0  0  0  0  0  0  0
   30.0110  -37.3260  -22.1256 N   0  0  0  0  0  0  0  0  0  0  0  0
   29.1136  -38.3095  -21.9745 C   0  0  0  0  0  0  0  0  0  0  0  0
   29.1807  -38.8294  -20.7610 N   0  0  0  0  0  0  0  0  0  0  0  0
   30.0917  -37.9135  -16.3499 C   0  0  0  0  0  0  0  0  0  0  0  0
   30.4032  -37.0366  -15.4861 O   0  0  0  0  0  0  0  0  0  0  0  0
   27.4104  -38.5530   -9.7915 C   0  0  0  0  0  0  0  0  0  0  0  0
   27.7020  -38.0679  -11.4860 S   0  0  0  0  0  0  0  0  0  0  0  0
   28.7850  -39.0644  -12.4189 C   0  0  0  0  0  0  0  0  0  0  0  0
   29.1487  -38.8701  -13.8142 C   0  0  0  0  0  0  0  0  0  0  0  0
   30.0977  -39.6714  -14.5749 C   0  0  2  0  0  0  0  0  0  0  0  0
   30.0246  -39.2848  -16.0033 N   0  0  0  0  0  0  0  0  0  0  0  0
   30.0420  -41.1293  -14.5136 C   0  0  0  0  0  0  0  0  0  0  0  0
   29.6344  -41.9077  -15.3770 O   0  0  0  0  0  0  0  0  0  0  0  0
   30.5124  -41.7394  -13.3184 O   0  0  0  0  0  0  0  0  0  0  0  0
  2  1  1  0
  3  2  1  0
  4  3  1  0
  4  5  1  0
  5  6  1  1
  7  5  1  0
  7  8  2  0
  9  7  1  0
 10  9  1  0
 10 11  1  6
 11 12  1  0
 12 13  2  0
 13 14  1  0
 15 14  1  0
 16 12  1  0
 16 15  2  0
 17 10  1  0
 18 17  2  0
 20 19  1  0
 21 20  1  0
 21 22  1  0
 23 22  1  1
 23 25  1  0
 23 24  1  0
 24 17  1  0
 25 27  1  0
 26 25  2  0
M  END
$$$$
