MHM.pdb
     RDKit          3D

 27 27  0  0  1  0  0  0  0  0999 V2000
   33.4763  -22.9278  -11.8426 C   0  0  0  0  0  0  0  0  0  0  0  0
   32.9714  -24.0744  -13.1694 S   0  0  0  0  0  0  0  0  0  0  0  0
   32.4149  -23.1634  -14.6182 C   0  0  0  0  0  0  0  0  0  0  0  0
   31.5196  -22.0168  -14.2914 C   0  0  0  0  0  0  0  0  0  0  0  0
   30.1507  -22.5124  -13.9288 C   0  0  2  0  0  0  0  0  0  0  0  0
   29.5007  -23.2073  -14.9942 N   0  0  0  0  0  0  0  0  0  0  0  0
   29.3760  -21.3612  -13.4269 C   0  0  0  0  0  0  0  0  0  0  0  0
   29.9640  -20.4904  -12.7264 O   0  0  0  0  0  0  0  0  0  0  0  0
   28.0146  -21.2185  -13.7082 N   0  0  0  0  0  0  0  0  0  0  0  0
   27.2481  -20.1500  -13.0673 C   0  0  1  0  0  0  0  0  0  0  0  0
   26.2945  -19.5162  -14.0139 C   0  0  0  0  0  0  0  0  0  0  0  0
   26.9869  -18.6565  -14.9899 C   0  0  0  0  0  0  0  0  0  0  0  0
   27.2529  -18.9635  -16.3153 C   0  0  0  0  0  0  0  0  0  0  0  0
   27.9213  -17.9598  -16.8728 N   0  0  0  0  0  0  0  0  0  0  0  0
   28.0756  -17.0347  -15.9159 C   0  0  0  0  0  0  0  0  0  0  0  0
   27.5246  -17.4305  -14.7814 N   0  0  0  0  0  0  0  0  0  0  0  0
   26.5064  -20.7672  -11.9418 C   0  0  0  0  0  0  0  0  0  0  0  0
   26.0231  -21.9370  -12.0430 O   0  0  0  0  0  0  0  0  0  0  0  0
   27.6532  -18.3441   -5.6008 C   0  0  0  0  0  0  0  0  0  0  0  0
   26.9986  -20.0061   -5.5695 S   0  0  0  0  0  0  0  0  0  0  0  0
   26.1523  -20.5500   -6.9923 C   0  0  0  0  0  0  0  0  0  0  0  0
   26.4902  -20.2308   -8.3709 C   0  0  0  0  0  0  0  0  0  0  0  0
   25.7686  -20.6712   -9.5570 C   0  0  2  0  0  0  0  0  0  0  0  0
   26.3516  -20.0163  -10.7513 N   0  0  0  0  0  0  0  0  0  0  0  0
   24.3192  -20.5120   -9.6355 C   0  0  0  0  0  0  0  0  0  0  0  0
   23.6826  -19.7013  -10.3100 O   0  0  0  0  0  0  0  0  0  0  0  0
   23.5333  -21.3930   -8.8427 O   0  0  0  0  0  0  0  0  0  0  0  0
  2  1  1  0
  3  2  1  0
  4  3  1  0
  4  5  1  0
  5  6  1  6
  7  5  1  0
  7  8  2  0
  9  7  1  0
 10  9  1  0
 10 11  1  6
 11 12  1  0
 12 13  2  0
 13 14  1  0
 15 14  1  0
 16 12  1  0
 16 15  2  0
 17 10  1  0
 18 17  2  0
 20 19  1  0
 21 20  1  0
 21 22  1  0
 23 22  1  1
 23 25  1  0
 23 24  1  0
 24 17  1  0
 25 27  1  0
 26 25  2  0
M  END
$$$$
