MHM.pdb
     RDKit          3D

 27 27  0  0  1  0  0  0  0  0999 V2000
   28.2744  -18.3822  -23.3150 C   0  0  0  0  0  0  0  0  0  0  0  0
   26.5831  -17.6972  -23.3069 S   0  0  0  0  0  0  0  0  0  0  0  0
   26.5260  -16.1577  -22.3767 C   0  0  0  0  0  0  0  0  0  0  0  0
   25.1667  -15.5478  -22.3198 C   0  0  0  0  0  0  0  0  0  0  0  0
   25.2105  -14.2482  -21.5712 C   0  0  2  0  0  0  0  0  0  0  0  0
   25.9700  -14.3170  -20.3635 N   0  0  0  0  0  0  0  0  0  0  0  0
   23.8186  -13.8066  -21.3590 C   0  0  0  0  0  0  0  0  0  0  0  0
   23.0830  -13.6064  -22.3659 O   0  0  0  0  0  0  0  0  0  0  0  0
   23.3039  -13.6054  -20.0755 N   0  0  0  0  0  0  0  0  0  0  0  0
   21.9008  -13.2275  -19.9062 C   0  0  1  0  0  0  0  0  0  0  0  0
   21.3411  -13.7546  -18.6349 C   0  0  0  0  0  0  0  0  0  0  0  0
   20.9486  -15.1695  -18.7584 C   0  0  0  0  0  0  0  0  0  0  0  0
   20.9658  -15.9311  -19.9166 C   0  0  0  0  0  0  0  0  0  0  0  0
   20.5130  -17.1506  -19.6469 N   0  0  0  0  0  0  0  0  0  0  0  0
   20.2140  -17.1592  -18.3408 C   0  0  0  0  0  0  0  0  0  0  0  0
   20.4666  -15.9846  -17.7895 N   0  0  0  0  0  0  0  0  0  0  0  0
   21.8509  -11.7459  -19.9032 C   0  0  0  0  0  0  0  0  0  0  0  0
   22.6737  -11.0672  -19.2144 O   0  0  0  0  0  0  0  0  0  0  0  0
   23.1088   -7.7332  -24.7167 C   0  0  0  0  0  0  0  0  0  0  0  0
   21.6222   -7.1014  -23.9535 S   0  0  0  0  0  0  0  0  0  0  0  0
   21.2210   -7.7170  -22.3736 C   0  0  0  0  0  0  0  0  0  0  0  0
   21.1499   -9.1178  -21.9868 C   0  0  0  0  0  0  0  0  0  0  0  0
   20.7716   -9.6299  -20.6768 C   0  0  2  0  0  0  0  0  0  0  0  0
   20.8603  -11.1087  -20.6893 N   0  0  0  0  0  0  0  0  0  0  0  0
   19.4804   -9.2746  -20.0949 C   0  0  0  0  0  0  0  0  0  0  0  0
   18.4110   -9.8767  -20.2019 O   0  0  0  0  0  0  0  0  0  0  0  0
   19.4359   -8.0925  -19.3057 O   0  0  0  0  0  0  0  0  0  0  0  0
  2  1  1  0
  3  2  1  0
  4  3  1  0
  4  5  1  0
  5  6  1  1
  7  5  1  0
  7  8  2  0
  9  7  1  0
 10  9  1  0
 10 11  1  1
 11 12  1  0
 12 13  2  0
 13 14  1  0
 15 14  1  0
 16 12  1  0
 16 15  2  0
 17 10  1  0
 18 17  2  0
 20 19  1  0
 21 20  1  0
 21 22  1  0
 23 22  1  6
 23 25  1  0
 23 24  1  0
 24 17  1  0
 25 27  1  0
 26 25  2  0
M  END
$$$$
