MHM.pdb
     RDKit          3D

 27 27  0  0  1  0  0  0  0  0999 V2000
   23.2093  -20.6308   -8.0021 C   0  0  0  0  0  0  0  0  0  0  0  0
   24.7908  -21.5255   -8.1705 S   0  0  0  0  0  0  0  0  0  0  0  0
   26.0833  -20.4239   -8.7657 C   0  0  0  0  0  0  0  0  0  0  0  0
   25.8774  -19.9710  -10.1713 C   0  0  0  0  0  0  0  0  0  0  0  0
   26.0137  -21.1286  -11.1161 C   0  0  2  0  0  0  0  0  0  0  0  0
   27.3442  -21.6425  -11.1920 N   0  0  0  0  0  0  0  0  0  0  0  0
   25.4782  -20.7044  -12.4240 C   0  0  0  0  0  0  0  0  0  0  0  0
   26.1212  -19.8513  -13.0976 O   0  0  0  0  0  0  0  0  0  0  0  0
   24.2818  -21.2232  -12.9264 N   0  0  0  0  0  0  0  0  0  0  0  0
   23.8176  -20.8238  -14.2550 C   0  0  1  0  0  0  0  0  0  0  0  0
   23.9700  -21.9237  -15.2421 C   0  0  0  0  0  0  0  0  0  0  0  0
   25.1538  -21.7272  -16.0973 C   0  0  0  0  0  0  0  0  0  0  0  0
   25.9506  -20.5943  -16.1534 C   0  0  0  0  0  0  0  0  0  0  0  0
   26.9031  -20.7719  -17.0624 N   0  0  0  0  0  0  0  0  0  0  0  0
   26.7109  -21.9959  -17.5725 C   0  0  0  0  0  0  0  0  0  0  0  0
   25.6699  -22.5853  -17.0098 N   0  0  0  0  0  0  0  0  0  0  0  0
   22.3865  -20.4615  -14.1206 C   0  0  0  0  0  0  0  0  0  0  0  0
   21.6199  -21.1103  -13.3436 O   0  0  0  0  0  0  0  0  0  0  0  0
   17.4366  -17.6636  -12.3184 C   0  0  0  0  0  0  0  0  0  0  0  0
   18.3943  -16.3292  -13.0212 S   0  0  0  0  0  0  0  0  0  0  0  0
   19.2534  -16.6652  -14.4995 C   0  0  0  0  0  0  0  0  0  0  0  0
   20.4493  -17.4827  -14.6347 C   0  0  0  0  0  0  0  0  0  0  0  0
   20.4937  -18.9371  -14.6990 C   0  0  2  0  0  0  0  0  0  0  0  0
   21.8979  -19.3726  -14.8825 N   0  0  0  0  0  0  0  0  0  0  0  0
   19.6827  -19.6534  -15.6795 C   0  0  0  0  0  0  0  0  0  0  0  0
   20.0273  -20.0713  -16.7859 O   0  0  0  0  0  0  0  0  0  0  0  0
   18.3281  -19.9072  -15.3288 O   0  0  0  0  0  0  0  0  0  0  0  0
  2  1  1  0
  3  2  1  0
  4  3  1  0
  4  5  1  0
  5  6  1  6
  7  5  1  0
  7  8  2  0
  9  7  1  0
 10  9  1  0
 10 11  1  6
 11 12  1  0
 12 13  2  0
 13 14  1  0
 15 14  1  0
 16 12  1  0
 16 15  2  0
 17 10  1  0
 18 17  2  0
 20 19  1  0
 21 20  1  0
 21 22  1  0
 23 22  1  6
 23 25  1  0
 23 24  1  0
 24 17  1  0
 25 27  1  0
 26 25  2  0
M  END
$$$$
