MHM.pdb
     RDKit          3D

 27 27  0  0  1  0  0  0  0  0999 V2000
   26.8091  -19.8512   -6.9249 C   0  0  0  0  0  0  0  0  0  0  0  0
   27.6860  -21.1926   -7.7976 S   0  0  0  0  0  0  0  0  0  0  0  0
   27.6844  -20.9020   -9.5736 C   0  0  0  0  0  0  0  0  0  0  0  0
   26.3907  -20.3676  -10.0871 C   0  0  0  0  0  0  0  0  0  0  0  0
   25.7595  -21.3499  -11.0294 C   0  0  2  0  0  0  0  0  0  0  0  0
   26.7116  -22.1015  -11.7835 N   0  0  0  0  0  0  0  0  0  0  0  0
   24.8027  -20.6089  -11.8738 C   0  0  0  0  0  0  0  0  0  0  0  0
   23.9382  -19.8766  -11.3159 O   0  0  0  0  0  0  0  0  0  0  0  0
   24.8336  -20.7031  -13.2678 N   0  0  0  0  0  0  0  0  0  0  0  0
   23.8485  -19.9749  -14.0674 C   0  0  1  0  0  0  0  0  0  0  0  0
   24.3715  -19.6519  -15.4199 C   0  0  0  0  0  0  0  0  0  0  0  0
   23.5606  -18.6161  -16.0839 C   0  0  0  0  0  0  0  0  0  0  0  0
   22.4415  -17.9860  -15.5622 C   0  0  0  0  0  0  0  0  0  0  0  0
   21.9574  -17.1358  -16.4610 N   0  0  0  0  0  0  0  0  0  0  0  0
   22.7566  -17.2276  -17.5326 C   0  0  0  0  0  0  0  0  0  0  0  0
   23.7222  -18.1072  -17.3291 N   0  0  0  0  0  0  0  0  0  0  0  0
   22.6565  -20.8487  -14.1830 C   0  0  0  0  0  0  0  0  0  0  0  0
   22.7648  -22.0500  -14.5797 O   0  0  0  0  0  0  0  0  0  0  0  0
   20.0805  -25.0335  -14.1753 C   0  0  0  0  0  0  0  0  0  0  0  0
   19.4569  -24.5058  -12.5865 S   0  0  0  0  0  0  0  0  0  0  0  0
   18.9676  -22.8396  -12.4424 C   0  0  0  0  0  0  0  0  0  0  0  0
   19.8009  -21.6724  -12.6872 C   0  0  0  0  0  0  0  0  0  0  0  0
   20.1837  -21.1475  -13.9908 C   0  0  2  0  0  0  0  0  0  0  0  0
   21.3943  -20.3067  -13.8394 N   0  0  0  0  0  0  0  0  0  0  0  0
   19.2229  -20.3902  -14.7879 C   0  0  0  0  0  0  0  0  0  0  0  0
   19.1827  -19.1722  -14.9682 O   0  0  0  0  0  0  0  0  0  0  0  0
   18.2035  -21.1353  -15.4420 O   0  0  0  0  0  0  0  0  0  0  0  0
  2  1  1  0
  3  2  1  0
  4  3  1  0
  4  5  1  0
  5  6  1  6
  7  5  1  0
  7  8  2  0
  9  7  1  0
 10  9  1  0
 10 11  1  6
 11 12  1  0
 12 13  2  0
 13 14  1  0
 15 14  1  0
 16 12  1  0
 16 15  2  0
 17 10  1  0
 18 17  2  0
 20 19  1  0
 21 20  1  0
 21 22  1  0
 23 22  1  1
 23 25  1  0
 23 24  1  0
 24 17  1  0
 25 27  1  0
 26 25  2  0
M  END
$$$$
