PRT.pdb
     RDKit          3D

 26 26  0  0  1  0  0  0  0  0999 V2000
    8.1573  -15.3364   19.8285 N   0  0  0  0  0  0  0  0  0  0  0  0
    8.0658  -14.8094   18.4581 C   0  0  0  0  0  0  0  0  0  0  0  0
    7.1950  -13.5657   18.5854 C   0  0  0  0  0  0  0  0  0  0  0  0
    7.1643  -13.2710   20.0709 C   0  0  0  0  0  0  0  0  0  0  0  0
    8.2995  -14.1166   20.5823 C   0  0  1  0  0  0  0  0  0  0  0  0
    8.2161  -14.3599   22.0518 C   0  0  0  0  0  0  0  0  0  0  0  0
    8.1549  -13.3867   22.8062 O   0  0  0  0  0  0  0  0  0  0  0  0
    4.9059  -21.1057   23.6804 N   0  0  0  0  0  0  0  0  0  0  0  0
    5.5465  -21.1187   22.4141 C   0  0  0  0  0  0  0  0  0  0  0  0
    4.8887  -21.4889   21.3698 N   0  0  0  0  0  0  0  0  0  0  0  0
    6.9014  -20.7299   22.2795 N   0  0  0  0  0  0  0  0  0  0  0  0
    7.5450  -19.9092   23.2855 C   0  0  0  0  0  0  0  0  0  0  0  0
    7.3860  -18.4311   22.9726 C   0  0  0  0  0  0  0  0  0  0  0  0
    8.0959  -17.6532   24.0480 C   0  0  0  0  0  0  0  0  0  0  0  0
    8.0331  -16.1611   23.8588 C   0  0  2  0  0  0  0  0  0  0  0  0
    8.2082  -15.6546   22.5526 N   0  0  0  0  0  0  0  0  0  0  0  0
    8.7081  -15.4547   24.9408 C   0  0  0  0  0  0  0  0  0  0  0  0
    9.9900  -15.3038   24.9017 O   0  0  0  0  0  0  0  0  0  0  0  0
    5.3605  -21.5632   20.4450 C   0  0  0  0  0  0  0  0  0  0  0  0
    7.8626  -11.9824   26.6237 C   0  0  2  0  0  0  0  0  0  0  0  0
    8.0189  -13.0781   27.6370 O   0  0  0  0  0  0  0  0  0  0  0  0
    6.7497  -13.5893   27.9574 C   0  0  2  0  0  0  0  0  0  0  0  0
    8.8592  -14.2084   27.0827 N   0  0  0  0  0  0  0  0  0  0  0  0
    8.0679  -14.9032   26.0601 C   0  0  0  0  0  0  0  0  0  0  0  0
    9.1777  -15.1967   28.1318 O   0  0  0  0  0  0  0  0  0  0  0  0
    9.9356  -14.7322   29.2102 O   0  0  0  0  0  0  0  0  0  0  0  0
  2  1  1  0
  3  2  1  0
  4  3  1  0
  4  5  1  0
  5  6  1  1
  5  1  1  0
  6  7  2  0
  9  8  1  0
 10  9  2  0
 11  9  1  0
 12 11  1  0
 13 12  1  0
 13 14  1  0
 15 14  1  6
 16 15  1  0
 16  6  1  0
 17 15  1  0
 18 17  2  0
 20 19  1  1
 20 22  1  0
 21 20  1  0
 22 24  1  0
 22 23  1  1
 23 17  1  0
 24 25  1  0
 26 24  2  0
M  END
$$$$
