PRT.pdb
     RDKit          3D

 26 26  0  0  1  0  0  0  0  0999 V2000
    8.6173  -15.0429   19.3928 N   0  0  0  0  0  0  0  0  0  0  0  0
    8.7638  -14.4783   18.0423 C   0  0  0  0  0  0  0  0  0  0  0  0
    7.7265  -13.3640   17.9806 C   0  0  0  0  0  0  0  0  0  0  0  0
    7.3252  -13.1350   19.4232 C   0  0  0  0  0  0  0  0  0  0  0  0
    8.4213  -13.8460   20.1706 C   0  0  1  0  0  0  0  0  0  0  0  0
    8.0455  -14.1562   21.5806 C   0  0  0  0  0  0  0  0  0  0  0  0
    7.6815  -13.2306   22.3091 O   0  0  0  0  0  0  0  0  0  0  0  0
    8.0910  -19.8957   25.1225 N   0  0  0  0  0  0  0  0  0  0  0  0
    6.7474  -20.2761   24.8693 C   0  0  0  0  0  0  0  0  0  0  0  0
    6.0295  -20.7578   25.8248 N   0  0  0  0  0  0  0  0  0  0  0  0
    6.1812  -20.1341   23.5793 N   0  0  0  0  0  0  0  0  0  0  0  0
    6.9671  -19.6289   22.4716 C   0  0  0  0  0  0  0  0  0  0  0  0
    6.8523  -18.1181   22.3605 C   0  0  0  0  0  0  0  0  0  0  0  0
    7.7193  -17.5098   23.4299 C   0  0  0  0  0  0  0  0  0  0  0  0
    7.8474  -16.0134   23.3284 C   0  0  2  0  0  0  0  0  0  0  0  0
    8.1064  -15.4591   22.0560 N   0  0  0  0  0  0  0  0  0  0  0  0
    8.5874  -15.4610   24.4564 C   0  0  0  0  0  0  0  0  0  0  0  0
    9.8766  -15.4053   24.4074 O   0  0  0  0  0  0  0  0  0  0  0  0
    5.0558  -21.0792   25.6460 C   0  0  0  0  0  0  0  0  0  0  0  0
    8.0520  -11.9796   26.1208 C   0  0  2  0  0  0  0  0  0  0  0  0
    8.0674  -13.0823   27.1385 O   0  0  0  0  0  0  0  0  0  0  0  0
    6.7463  -13.4877   27.3938 C   0  0  2  0  0  0  0  0  0  0  0  0
    8.8396  -14.2785   26.6248 N   0  0  0  0  0  0  0  0  0  0  0  0
    8.0048  -14.9654   25.6319 C   0  0  0  0  0  0  0  0  0  0  0  0
    9.1074  -15.2429   27.7096 O   0  0  0  0  0  0  0  0  0  0  0  0
    9.9425  -14.8003   28.7392 O   0  0  0  0  0  0  0  0  0  0  0  0
  2  1  1  0
  3  2  1  0
  4  3  1  0
  4  5  1  0
  5  6  1  1
  5  1  1  0
  6  7  2  0
  9  8  1  0
 10  9  2  0
 11  9  1  0
 12 11  1  0
 13 12  1  0
 13 14  1  0
 15 14  1  6
 16 15  1  0
 16  6  1  0
 17 15  1  0
 18 17  2  0
 20 19  1  1
 20 22  1  0
 21 20  1  0
 22 24  1  0
 22 23  1  1
 23 17  1  0
 24 25  1  0
 26 24  2  0
M  END
$$$$
