PRT.pdb
     RDKit          3D

 26 26  0  0  1  0  0  0  0  0999 V2000
    8.7864  -14.7741   19.3251 N   0  0  0  0  0  0  0  0  0  0  0  0
    8.8241  -14.1672   17.9855 C   0  0  0  0  0  0  0  0  0  0  0  0
    7.6804  -13.1605   17.9909 C   0  0  0  0  0  0  0  0  0  0  0  0
    7.3147  -13.0053   19.4528 C   0  0  0  0  0  0  0  0  0  0  0  0
    8.5036  -13.6205   20.1409 C   0  0  1  0  0  0  0  0  0  0  0  0
    8.2151  -13.9986   21.5548 C   0  0  0  0  0  0  0  0  0  0  0  0
    7.6988  -13.1579   22.2944 O   0  0  0  0  0  0  0  0  0  0  0  0
    5.8437  -20.5348   22.1290 N   0  0  0  0  0  0  0  0  0  0  0  0
    6.8045  -20.6966   21.0972 C   0  0  0  0  0  0  0  0  0  0  0  0
    6.4271  -21.0884   19.9292 N   0  0  0  0  0  0  0  0  0  0  0  0
    8.1759  -20.4333   21.3315 N   0  0  0  0  0  0  0  0  0  0  0  0
    8.5959  -19.5943   22.4358 C   0  0  0  0  0  0  0  0  0  0  0  0
    8.1240  -18.1624   22.2483 C   0  0  0  0  0  0  0  0  0  0  0  0
    8.6497  -17.3490   23.4005 C   0  0  0  0  0  0  0  0  0  0  0  0
    8.3590  -15.8765   23.2856 C   0  0  2  0  0  0  0  0  0  0  0  0
    8.5232  -15.2691   22.0218 N   0  0  0  0  0  0  0  0  0  0  0  0
    8.8505  -15.1411   24.4446 C   0  0  0  0  0  0  0  0  0  0  0  0
   10.1089  -14.8678   24.5395 O   0  0  0  0  0  0  0  0  0  0  0  0
    7.1228  -21.2368   19.1694 C   0  0  0  0  0  0  0  0  0  0  0  0
    7.6135  -11.7296   25.9688 C   0  0  2  0  0  0  0  0  0  0  0  0
    7.6639  -12.8270   26.9911 O   0  0  0  0  0  0  0  0  0  0  0  0
    6.3930  -13.4183   27.0906 C   0  0  2  0  0  0  0  0  0  0  0  0
    8.6542  -13.8970   26.5840 N   0  0  0  0  0  0  0  0  0  0  0  0
    8.0511  -14.6862   25.5032 C   0  0  0  0  0  0  0  0  0  0  0  0
    8.9232  -14.8236   27.7011 O   0  0  0  0  0  0  0  0  0  0  0  0
    9.5523  -14.2755   28.8222 O   0  0  0  0  0  0  0  0  0  0  0  0
  2  1  1  0
  3  2  1  0
  4  3  1  0
  4  5  1  0
  5  6  1  1
  5  1  1  0
  6  7  2  0
  9  8  1  0
 10  9  2  0
 11  9  1  0
 12 11  1  0
 13 12  1  0
 13 14  1  0
 15 14  1  6
 16 15  1  0
 16  6  1  0
 17 15  1  0
 18 17  2  0
 20 19  1  1
 20 22  1  0
 21 20  1  0
 22 24  1  0
 22 23  1  1
 23 17  1  0
 24 25  1  0
 26 24  2  0
M  END
$$$$
