PRT.pdb
     RDKit          3D

 26 26  0  0  1  0  0  0  0  0999 V2000
    8.9137  -14.5445   19.0361 N   0  0  0  0  0  0  0  0  0  0  0  0
    8.8614  -13.9761   17.6803 C   0  0  0  0  0  0  0  0  0  0  0  0
    7.5154  -13.2649   17.6170 C   0  0  0  0  0  0  0  0  0  0  0  0
    7.0668  -13.1665   19.0605 C   0  0  0  0  0  0  0  0  0  0  0  0
    8.3385  -13.4709   19.8059 C   0  0  1  0  0  0  0  0  0  0  0  0
    8.0910  -13.8737   21.2208 C   0  0  0  0  0  0  0  0  0  0  0  0
    7.4605  -13.1044   21.9493 O   0  0  0  0  0  0  0  0  0  0  0  0
   11.6335  -21.1363   25.0437 N   0  0  0  0  0  0  0  0  0  0  0  0
   11.1730  -20.2848   26.0815 C   0  0  0  0  0  0  0  0  0  0  0  0
   11.3803  -20.6080   27.3115 N   0  0  0  0  0  0  0  0  0  0  0  0
   10.4875  -19.0816   25.7860 N   0  0  0  0  0  0  0  0  0  0  0  0
    9.7117  -18.9451   24.5697 C   0  0  0  0  0  0  0  0  0  0  0  0
    8.9806  -17.6139   24.5310 C   0  0  0  0  0  0  0  0  0  0  0  0
    9.1685  -17.0244   23.1589 C   0  0  0  0  0  0  0  0  0  0  0  0
    8.5123  -15.6814   22.9809 C   0  0  2  0  0  0  0  0  0  0  0  0
    8.5624  -15.0881   21.7008 N   0  0  0  0  0  0  0  0  0  0  0  0
    8.7526  -14.8115   24.1258 C   0  0  0  0  0  0  0  0  0  0  0  0
    9.9359  -14.3355   24.3276 O   0  0  0  0  0  0  0  0  0  0  0  0
   11.0998  -19.9674   28.0824 C   0  0  0  0  0  0  0  0  0  0  0  0
    6.4374  -11.7462   25.4012 C   0  0  2  0  0  0  0  0  0  0  0  0
    6.8382  -12.7161   26.4739 O   0  0  0  0  0  0  0  0  0  0  0  0
    5.8181  -13.6694   26.6330 C   0  0  2  0  0  0  0  0  0  0  0  0
    8.1110  -13.4424   26.0949 N   0  0  0  0  0  0  0  0  0  0  0  0
    7.7795  -14.4299   25.0608 C   0  0  0  0  0  0  0  0  0  0  0  0
    8.6605  -14.1856   27.2457 O   0  0  0  0  0  0  0  0  0  0  0  0
    9.0406  -13.4209   28.3521 O   0  0  0  0  0  0  0  0  0  0  0  0
  2  1  1  0
  3  2  1  0
  4  3  1  0
  4  5  1  0
  5  6  1  1
  5  1  1  0
  6  7  2  0
  9  8  1  0
 10  9  2  0
 11  9  1  0
 12 11  1  0
 13 12  1  0
 13 14  1  0
 15 14  1  6
 16 15  1  0
 16  6  1  0
 17 15  1  0
 18 17  2  0
 20 19  1  1
 20 22  1  0
 21 20  1  0
 22 24  1  0
 22 23  1  1
 23 17  1  0
 24 25  1  0
 26 24  2  0
M  END
$$$$
