PRT.pdb
     RDKit          3D

 26 26  0  0  1  0  0  0  0  0999 V2000
    8.4989  -14.8299   19.3084 N   0  0  0  0  0  0  0  0  0  0  0  0
    8.5754  -14.2998   17.9382 C   0  0  0  0  0  0  0  0  0  0  0  0
    7.5502  -13.1729   17.9078 C   0  0  0  0  0  0  0  0  0  0  0  0
    7.2346  -12.9040   19.3648 C   0  0  0  0  0  0  0  0  0  0  0  0
    8.3624  -13.6121   20.0663 C   0  0  1  0  0  0  0  0  0  0  0  0
    8.0636  -13.8834   21.5025 C   0  0  0  0  0  0  0  0  0  0  0  0
    7.8124  -12.9286   22.2411 O   0  0  0  0  0  0  0  0  0  0  0  0
    9.2547  -19.9202   19.0427 N   0  0  0  0  0  0  0  0  0  0  0  0
    9.6730  -19.9059   20.3987 C   0  0  0  0  0  0  0  0  0  0  0  0
   10.8904  -19.5982   20.6880 N   0  0  0  0  0  0  0  0  0  0  0  0
    8.7710  -20.2251   21.4424 N   0  0  0  0  0  0  0  0  0  0  0  0
    8.6648  -19.3857   22.6188 C   0  0  0  0  0  0  0  0  0  0  0  0
    8.3846  -17.9414   22.2397 C   0  0  0  0  0  0  0  0  0  0  0  0
    8.1776  -17.1628   23.5110 C   0  0  0  0  0  0  0  0  0  0  0  0
    7.8712  -15.7061   23.2868 C   0  0  2  0  0  0  0  0  0  0  0  0
    8.0698  -15.1829   21.9906 N   0  0  0  0  0  0  0  0  0  0  0  0
    8.3134  -14.8865   24.4085 C   0  0  0  0  0  0  0  0  0  0  0  0
    9.5555  -14.5452   24.4981 O   0  0  0  0  0  0  0  0  0  0  0  0
   11.1914  -19.5016   21.6797 C   0  0  0  0  0  0  0  0  0  0  0  0
    6.6243  -11.5577   25.8483 C   0  0  2  0  0  0  0  0  0  0  0  0
    6.9133  -12.5872   26.9011 O   0  0  0  0  0  0  0  0  0  0  0  0
    5.7579  -13.3573   27.1173 C   0  0  2  0  0  0  0  0  0  0  0  0
    8.0246  -13.5141   26.4570 N   0  0  0  0  0  0  0  0  0  0  0  0
    7.4815  -14.4172   25.4353 C   0  0  0  0  0  0  0  0  0  0  0  0
    8.4931  -14.3550   27.5760 O   0  0  0  0  0  0  0  0  0  0  0  0
    8.3307  -15.7347   27.4238 O   0  0  0  0  0  0  0  0  0  0  0  0
  2  1  1  0
  3  2  1  0
  4  3  1  0
  4  5  1  0
  5  6  1  1
  5  1  1  0
  6  7  2  0
  9  8  1  0
 10  9  2  0
 11  9  1  0
 12 11  1  0
 13 12  1  0
 13 14  1  0
 15 14  1  6
 16 15  1  0
 16  6  1  0
 17 15  1  0
 18 17  2  0
 20 19  1  1
 20 22  1  0
 21 20  1  0
 22 24  1  0
 22 23  1  1
 23 17  1  0
 24 25  1  0
 26 24  2  0
M  END
$$$$
