PRT.pdb
     RDKit          3D

 26 26  0  0  1  0  0  0  0  0999 V2000
    8.5583  -14.9587   19.3113 N   0  0  0  0  0  0  0  0  0  0  0  0
    8.6933  -14.4292   17.9455 C   0  0  0  0  0  0  0  0  0  0  0  0
    7.5924  -13.3820   17.8322 C   0  0  0  0  0  0  0  0  0  0  0  0
    7.1541  -13.1321   19.2606 C   0  0  0  0  0  0  0  0  0  0  0  0
    8.2781  -13.7518   20.0468 C   0  0  1  0  0  0  0  0  0  0  0  0
    7.8981  -14.0394   21.4605 C   0  0  0  0  0  0  0  0  0  0  0  0
    7.4844  -13.1111   22.1584 O   0  0  0  0  0  0  0  0  0  0  0  0
    6.4269  -22.2285   23.2929 N   0  0  0  0  0  0  0  0  0  0  0  0
    6.0605  -21.2243   24.2264 C   0  0  0  0  0  0  0  0  0  0  0  0
    5.6480  -21.5631   25.3992 N   0  0  0  0  0  0  0  0  0  0  0  0
    6.1415  -19.8516   23.8887 N   0  0  0  0  0  0  0  0  0  0  0  0
    6.4981  -19.4336   22.5478 C   0  0  0  0  0  0  0  0  0  0  0  0
    6.4733  -17.9200   22.4194 C   0  0  0  0  0  0  0  0  0  0  0  0
    7.5282  -17.3621   23.3367 C   0  0  0  0  0  0  0  0  0  0  0  0
    7.6913  -15.8690   23.2360 C   0  0  2  0  0  0  0  0  0  0  0  0
    8.0099  -15.3247   21.9729 N   0  0  0  0  0  0  0  0  0  0  0  0
    8.3994  -15.3282   24.3899 C   0  0  0  0  0  0  0  0  0  0  0  0
    9.6902  -15.3539   24.4153 O   0  0  0  0  0  0  0  0  0  0  0  0
    5.4404  -20.8391   26.1176 C   0  0  0  0  0  0  0  0  0  0  0  0
    7.9832  -11.8038   26.1964 C   0  0  2  0  0  0  0  0  0  0  0  0
    7.8735  -12.9724   27.1314 O   0  0  0  0  0  0  0  0  0  0  0  0
    6.5185  -13.3139   27.2798 C   0  0  2  0  0  0  0  0  0  0  0  0
    8.6078  -14.1750   26.5785 N   0  0  0  0  0  0  0  0  0  0  0  0
    7.7833  -14.7607   25.5147 C   0  0  0  0  0  0  0  0  0  0  0  0
    8.7825  -15.2122   27.6142 O   0  0  0  0  0  0  0  0  0  0  0  0
    9.5524  -14.8549   28.7245 O   0  0  0  0  0  0  0  0  0  0  0  0
  2  1  1  0
  3  2  1  0
  4  3  1  0
  4  5  1  0
  5  6  1  1
  5  1  1  0
  6  7  2  0
  9  8  1  0
 10  9  2  0
 11  9  1  0
 12 11  1  0
 13 12  1  0
 13 14  1  0
 15 14  1  6
 16 15  1  0
 16  6  1  0
 17 15  1  0
 18 17  2  0
 20 19  1  1
 20 22  1  0
 21 20  1  0
 22 24  1  0
 22 23  1  1
 23 17  1  0
 24 25  1  0
 26 24  2  0
M  END
$$$$
