PRT.pdb
     RDKit          3D

 26 26  0  0  1  0  0  0  0  0999 V2000
    8.4375  -14.8150   19.2832 N   0  0  0  0  0  0  0  0  0  0  0  0
    8.5458  -14.2769   17.9183 C   0  0  0  0  0  0  0  0  0  0  0  0
    7.6108  -13.0738   17.9077 C   0  0  0  0  0  0  0  0  0  0  0  0
    7.3265  -12.7978   19.3698 C   0  0  0  0  0  0  0  0  0  0  0  0
    8.4007  -13.5989   20.0552 C   0  0  1  0  0  0  0  0  0  0  0  0
    8.0913  -13.8625   21.4905 C   0  0  0  0  0  0  0  0  0  0  0  0
    7.8747  -12.9009   22.2313 O   0  0  0  0  0  0  0  0  0  0  0  0
    9.0929  -22.2082   22.9160 N   0  0  0  0  0  0  0  0  0  0  0  0
    9.5700  -21.4980   21.7837 C   0  0  0  0  0  0  0  0  0  0  0  0
   10.1358  -22.1392   20.8199 N   0  0  0  0  0  0  0  0  0  0  0  0
    9.4334  -20.0914   21.6958 N   0  0  0  0  0  0  0  0  0  0  0  0
    8.6971  -19.3497   22.6996 C   0  0  0  0  0  0  0  0  0  0  0  0
    8.7038  -17.8608   22.3975 C   0  0  0  0  0  0  0  0  0  0  0  0
    7.8738  -17.1734   23.4482 C   0  0  0  0  0  0  0  0  0  0  0  0
    7.7641  -15.6844   23.2559 C   0  0  2  0  0  0  0  0  0  0  0  0
    8.0496  -15.1625   21.9756 N   0  0  0  0  0  0  0  0  0  0  0  0
    8.2921  -14.9555   24.4028 C   0  0  0  0  0  0  0  0  0  0  0  0
    9.5486  -14.6610   24.4477 O   0  0  0  0  0  0  0  0  0  0  0  0
   10.5705  -21.6263   20.0253 C   0  0  0  0  0  0  0  0  0  0  0  0
    7.0229  -11.5452   25.8350 C   0  0  2  0  0  0  0  0  0  0  0  0
    7.1207  -12.6030   26.8949 O   0  0  0  0  0  0  0  0  0  0  0  0
    5.8703  -13.2293   27.0329 C   0  0  2  0  0  0  0  0  0  0  0  0
    8.1388  -13.6559   26.5125 N   0  0  0  0  0  0  0  0  0  0  0  0
    7.5312  -14.5286   25.5008 C   0  0  0  0  0  0  0  0  0  0  0  0
    8.4834  -14.5055   27.6693 O   0  0  0  0  0  0  0  0  0  0  0  0
    9.0931  -13.8623   28.7500 O   0  0  0  0  0  0  0  0  0  0  0  0
  2  1  1  0
  3  2  1  0
  4  3  1  0
  4  5  1  0
  5  6  1  1
  5  1  1  0
  6  7  2  0
  9  8  1  0
 10  9  2  0
 11  9  1  0
 12 11  1  0
 13 12  1  0
 13 14  1  0
 15 14  1  6
 16 15  1  0
 16  6  1  0
 17 15  1  0
 18 17  2  0
 20 19  1  1
 20 22  1  0
 21 20  1  0
 22 24  1  0
 22 23  1  1
 23 17  1  0
 24 25  1  0
 26 24  2  0
M  END
$$$$
