PRT.pdb
     RDKit          3D

 26 26  0  0  1  0  0  0  0  0999 V2000
    8.5908  -14.6044   19.2625 N   0  0  0  0  0  0  0  0  0  0  0  0
    8.6306  -13.9838   17.9292 C   0  0  0  0  0  0  0  0  0  0  0  0
    7.5117  -12.9499   17.9566 C   0  0  0  0  0  0  0  0  0  0  0  0
    7.1638  -12.8020   19.4235 C   0  0  0  0  0  0  0  0  0  0  0  0
    8.3439  -13.4533   20.0934 C   0  0  1  0  0  0  0  0  0  0  0  0
    8.0597  -13.8397   21.5059 C   0  0  0  0  0  0  0  0  0  0  0  0
    7.6157  -12.9818   22.2720 O   0  0  0  0  0  0  0  0  0  0  0  0
    9.4157  -21.1263   20.2884 N   0  0  0  0  0  0  0  0  0  0  0  0
   10.3274  -20.4070   21.1041 C   0  0  0  0  0  0  0  0  0  0  0  0
   11.5935  -20.5049   20.8857 N   0  0  0  0  0  0  0  0  0  0  0  0
    9.8665  -19.5807   22.1575 N   0  0  0  0  0  0  0  0  0  0  0  0
    8.4544  -19.4885   22.4694 C   0  0  0  0  0  0  0  0  0  0  0  0
    7.9352  -18.0771   22.2540 C   0  0  0  0  0  0  0  0  0  0  0  0
    8.5185  -17.2019   23.3307 C   0  0  0  0  0  0  0  0  0  0  0  0
    8.1388  -15.7507   23.2044 C   0  0  2  0  0  0  0  0  0  0  0  0
    8.2921  -15.1369   21.9423 N   0  0  0  0  0  0  0  0  0  0  0  0
    8.5579  -14.9835   24.3711 C   0  0  0  0  0  0  0  0  0  0  0  0
    9.8041  -14.6800   24.5205 O   0  0  0  0  0  0  0  0  0  0  0  0
   12.2756  -19.9946   21.4839 C   0  0  0  0  0  0  0  0  0  0  0  0
    6.8324  -11.6909   25.9626 C   0  0  2  0  0  0  0  0  0  0  0  0
    7.1054  -12.7904   26.9467 O   0  0  0  0  0  0  0  0  0  0  0  0
    5.9483  -13.5751   27.0885 C   0  0  2  0  0  0  0  0  0  0  0  0
    8.2267  -13.6828   26.4597 N   0  0  0  0  0  0  0  0  0  0  0  0
    7.6989  -14.5276   25.3816 C   0  0  0  0  0  0  0  0  0  0  0  0
    8.6905  -14.5852   27.5318 O   0  0  0  0  0  0  0  0  0  0  0  0
    9.2543  -13.9736   28.6549 O   0  0  0  0  0  0  0  0  0  0  0  0
  2  1  1  0
  3  2  1  0
  4  3  1  0
  4  5  1  0
  5  6  1  1
  5  1  1  0
  6  7  2  0
  9  8  1  0
 10  9  2  0
 11  9  1  0
 12 11  1  0
 13 12  1  0
 13 14  1  0
 15 14  1  6
 16 15  1  0
 16  6  1  0
 17 15  1  0
 18 17  2  0
 20 19  1  1
 20 22  1  0
 21 20  1  0
 22 24  1  0
 22 23  1  1
 23 17  1  0
 24 25  1  0
 26 24  2  0
M  END
$$$$
