PRT.pdb
     RDKit          3D

 26 26  0  0  1  0  0  0  0  0999 V2000
    7.0600  -19.6091   20.6698 N   0  0  0  0  0  0  0  0  0  0  0  0
    6.8648  -20.2819   19.3762 C   0  0  0  0  0  0  0  0  0  0  0  0
    7.5545  -19.3732   18.3662 C   0  0  0  0  0  0  0  0  0  0  0  0
    8.4078  -18.4458   19.2067 C   0  0  0  0  0  0  0  0  0  0  0  0
    8.4191  -19.1492   20.5373 C   0  0  1  0  0  0  0  0  0  0  0  0
    8.8111  -18.2472   21.6590 C   0  0  0  0  0  0  0  0  0  0  0  0
    9.8183  -18.5263   22.3130 O   0  0  0  0  0  0  0  0  0  0  0  0
    7.4393  -13.8133   18.2075 N   0  0  0  0  0  0  0  0  0  0  0  0
    8.3581  -12.8314   18.6611 C   0  0  0  0  0  0  0  0  0  0  0  0
    9.3998  -12.5571   17.9541 N   0  0  0  0  0  0  0  0  0  0  0  0
    8.1475  -12.1459   19.8820 N   0  0  0  0  0  0  0  0  0  0  0  0
    7.5387  -12.8122   21.0157 C   0  0  0  0  0  0  0  0  0  0  0  0
    8.0649  -14.2293   21.1677 C   0  0  0  0  0  0  0  0  0  0  0  0
    7.6775  -14.7206   22.5366 C   0  0  0  0  0  0  0  0  0  0  0  0
    8.2468  -16.0713   22.8796 C   0  0  2  0  0  0  0  0  0  0  0  0
    8.0553  -17.1211   21.9552 N   0  0  0  0  0  0  0  0  0  0  0  0
    8.0633  -16.3876   24.2909 C   0  0  0  0  0  0  0  0  0  0  0  0
    6.9853  -16.0109   24.8938 O   0  0  0  0  0  0  0  0  0  0  0  0
   10.0971  -11.8594   18.2862 C   0  0  0  0  0  0  0  0  0  0  0  0
    7.2063  -19.3189   25.8756 C   0  0  2  0  0  0  0  0  0  0  0  0
    8.4542  -18.8944   26.5928 O   0  0  0  0  0  0  0  0  0  0  0  0
    9.5590  -19.5356   26.0073 C   0  0  2  0  0  0  0  0  0  0  0  0
    8.6585  -17.3989   26.4787 N   0  0  0  0  0  0  0  0  0  0  0  0
    8.9843  -17.0906   25.0811 C   0  0  0  0  0  0  0  0  0  0  0  0
    9.8021  -16.9555   27.2998 O   0  0  0  0  0  0  0  0  0  0  0  0
    9.6688  -17.1108   28.6823 O   0  0  0  0  0  0  0  0  0  0  0  0
  2  1  1  0
  3  2  1  0
  4  3  1  0
  4  5  1  0
  5  6  1  1
  5  1  1  0
  6  7  2  0
  9  8  1  0
 10  9  2  0
 11  9  1  0
 12 11  1  0
 13 12  1  0
 13 14  1  0
 15 14  1  6
 16 15  1  0
 16  6  1  0
 17 15  1  0
 18 17  2  0
 20 19  1  1
 20 22  1  0
 21 20  1  0
 22 24  1  0
 22 23  1  1
 23 17  1  0
 24 25  1  0
 26 24  2  0
M  END
$$$$
