PRT.pdb
     RDKit          3D

 26 26  0  0  1  0  0  0  0  0999 V2000
    8.2418  -15.0619   19.1390 N   0  0  0  0  0  0  0  0  0  0  0  0
    8.3441  -14.5089   17.7796 C   0  0  0  0  0  0  0  0  0  0  0  0
    7.5897  -13.1869   17.8483 C   0  0  0  0  0  0  0  0  0  0  0  0
    7.4345  -12.9119   19.3299 C   0  0  0  0  0  0  0  0  0  0  0  0
    8.4232  -13.8732   19.9329 C   0  0  1  0  0  0  0  0  0  0  0  0
    8.1653  -14.1282   21.3800 C   0  0  0  0  0  0  0  0  0  0  0  0
    8.2730  -13.1883   22.1707 O   0  0  0  0  0  0  0  0  0  0  0  0
    8.5813  -19.1177   27.0522 N   0  0  0  0  0  0  0  0  0  0  0  0
    7.2822  -19.6839   27.1293 C   0  0  0  0  0  0  0  0  0  0  0  0
    6.8281  -20.0871   28.2657 N   0  0  0  0  0  0  0  0  0  0  0  0
    6.4744  -19.8129   25.9735 N   0  0  0  0  0  0  0  0  0  0  0  0
    6.9299  -19.3250   24.6873 C   0  0  0  0  0  0  0  0  0  0  0  0
    6.9657  -17.8065   24.6571 C   0  0  0  0  0  0  0  0  0  0  0  0
    7.3797  -17.3825   23.2735 C   0  0  0  0  0  0  0  0  0  0  0  0
    7.4617  -15.8899   23.0958 C   0  0  2  0  0  0  0  0  0  0  0  0
    7.8124  -15.3965   21.8204 N   0  0  0  0  0  0  0  0  0  0  0  0
    8.0780  -15.2459   24.2494 C   0  0  0  0  0  0  0  0  0  0  0  0
    9.3617  -15.2753   24.3857 O   0  0  0  0  0  0  0  0  0  0  0  0
    5.8685  -20.4829   28.3428 C   0  0  0  0  0  0  0  0  0  0  0  0
    7.0649  -11.5913   25.8036 C   0  0  2  0  0  0  0  0  0  0  0  0
    7.1922  -12.7152   26.7896 O   0  0  0  0  0  0  0  0  0  0  0  0
    5.9250  -13.2852   26.9997 C   0  0  2  0  0  0  0  0  0  0  0  0
    8.1152  -13.7926   26.2619 N   0  0  0  0  0  0  0  0  0  0  0  0
    7.3776  -14.5717   25.2602 C   0  0  0  0  0  0  0  0  0  0  0  0
    8.5091  -14.7263   27.3352 O   0  0  0  0  0  0  0  0  0  0  0  0
    9.2247  -14.1764   28.4023 O   0  0  0  0  0  0  0  0  0  0  0  0
  2  1  1  0
  3  2  1  0
  4  3  1  0
  4  5  1  0
  5  6  1  1
  5  1  1  0
  6  7  2  0
  9  8  1  0
 10  9  2  0
 11  9  1  0
 12 11  1  0
 13 12  1  0
 13 14  1  0
 15 14  1  6
 16 15  1  0
 16  6  1  0
 17 15  1  0
 18 17  2  0
 20 19  1  1
 20 22  1  0
 21 20  1  0
 22 24  1  0
 22 23  1  1
 23 17  1  0
 24 25  1  0
 26 24  2  0
M  END
$$$$
