PRT.pdb
     RDKit          3D

 26 26  0  0  1  0  0  0  0  0999 V2000
    8.5796  -14.7765   19.2242 N   0  0  0  0  0  0  0  0  0  0  0  0
    8.6302  -14.1992   17.8720 C   0  0  0  0  0  0  0  0  0  0  0  0
    7.5618  -13.1129   17.8813 C   0  0  0  0  0  0  0  0  0  0  0  0
    7.2414  -12.9044   19.3471 C   0  0  0  0  0  0  0  0  0  0  0  0
    8.3985  -13.5905   20.0221 C   0  0  1  0  0  0  0  0  0  0  0  0
    8.1159  -13.9201   21.4493 C   0  0  0  0  0  0  0  0  0  0  0  0
    7.7928  -13.0059   22.2108 O   0  0  0  0  0  0  0  0  0  0  0  0
    7.8235  -19.3739   19.8438 N   0  0  0  0  0  0  0  0  0  0  0  0
    9.0777  -20.0156   20.0148 C   0  0  0  0  0  0  0  0  0  0  0  0
    9.6606  -20.5580   19.0017 N   0  0  0  0  0  0  0  0  0  0  0  0
    9.7010  -20.0692   21.2851 N   0  0  0  0  0  0  0  0  0  0  0  0
    9.1313  -19.3789   22.4247 C   0  0  0  0  0  0  0  0  0  0  0  0
    8.8354  -17.9257   22.0951 C   0  0  0  0  0  0  0  0  0  0  0  0
    8.2757  -17.2769   23.3326 C   0  0  0  0  0  0  0  0  0  0  0  0
    7.9982  -15.8060   23.1734 C   0  0  2  0  0  0  0  0  0  0  0  0
    8.2162  -15.2279   21.9040 N   0  0  0  0  0  0  0  0  0  0  0  0
    8.4472  -15.0472   24.3345 C   0  0  0  0  0  0  0  0  0  0  0  0
    9.6800  -14.6711   24.4126 O   0  0  0  0  0  0  0  0  0  0  0  0
   10.5883  -21.0179   19.1076 C   0  0  0  0  0  0  0  0  0  0  0  0
    6.9194  -11.7612   25.8279 C   0  0  2  0  0  0  0  0  0  0  0  0
    7.0867  -12.8293   26.8686 O   0  0  0  0  0  0  0  0  0  0  0  0
    5.8796  -13.5375   26.9954 C   0  0  2  0  0  0  0  0  0  0  0  0
    8.1702  -13.8071   26.4673 N   0  0  0  0  0  0  0  0  0  0  0  0
    7.6315  -14.6740   25.4125 C   0  0  0  0  0  0  0  0  0  0  0  0
    8.5435  -14.6789   27.5984 O   0  0  0  0  0  0  0  0  0  0  0  0
    9.1146  -14.0459   28.7058 O   0  0  0  0  0  0  0  0  0  0  0  0
  2  1  1  0
  3  2  1  0
  4  3  1  0
  4  5  1  0
  5  6  1  1
  5  1  1  0
  6  7  2  0
  9  8  1  0
 10  9  2  0
 11  9  1  0
 12 11  1  0
 13 12  1  0
 13 14  1  0
 15 14  1  6
 16 15  1  0
 16  6  1  0
 17 15  1  0
 18 17  2  0
 20 19  1  1
 20 22  1  0
 21 20  1  0
 22 24  1  0
 22 23  1  1
 23 17  1  0
 24 25  1  0
 26 24  2  0
M  END
$$$$
