EAR.pdb
     RDKit          3D

 26 25  0  0  1  0  0  0  0  0999 V2000
   10.3281  -20.1590   16.1161 N   0  0  0  0  0  0  0  0  0  0  0  0
   11.3885  -20.0639   17.1007 C   0  0  1  0  0  0  0  0  0  0  0  0
   12.4391  -19.0565   16.7611 C   0  0  0  0  0  0  0  0  0  0  0  0
   11.9443  -17.7340   16.2923 C   0  0  0  0  0  0  0  0  0  0  0  0
   12.9781  -16.8099   15.8075 C   0  0  0  0  0  0  0  0  0  0  0  0
   12.6576  -15.6727   15.3853 O   0  0  0  0  0  0  0  0  0  0  0  0
   10.8488  -19.7347   18.4471 C   0  0  0  0  0  0  0  0  0  0  0  0
    9.7888  -19.0675   18.5048 O   0  0  0  0  0  0  0  0  0  0  0  0
   14.3479  -17.1354   15.7884 O   0  0  0  0  0  0  0  0  0  0  0  0
   11.4022  -20.9270   21.9779 C   0  0  0  0  0  0  0  0  0  0  0  0
   10.9103  -19.9462   20.9681 C   0  0  2  0  0  0  0  0  0  0  0  0
   11.4528  -20.1251   19.6489 N   0  0  0  0  0  0  0  0  0  0  0  0
   11.2598  -18.5569   21.4238 C   0  0  0  0  0  0  0  0  0  0  0  0
   12.3378  -18.0067   21.0446 O   0  0  0  0  0  0  0  0  0  0  0  0
    8.1511  -14.2118   18.5099 N   0  0  0  0  0  0  0  0  0  0  0  0
    8.3304  -13.0657   19.3641 C   0  0  0  0  0  0  0  0  0  0  0  0
    8.5806  -11.9164   18.8497 N   0  0  0  0  0  0  0  0  0  0  0  0
    8.2384  -13.1644   20.7693 N   0  0  0  0  0  0  0  0  0  0  0  0
    7.8350  -14.4153   21.4125 C   0  0  0  0  0  0  0  0  0  0  0  0
    9.0152  -15.3431   21.3204 C   0  0  0  0  0  0  0  0  0  0  0  0
    9.6362  -15.5507   22.6345 C   0  0  0  0  0  0  0  0  0  0  0  0
   10.7629  -16.4899   22.7734 C   0  0  2  0  0  0  0  0  0  0  0  0
   10.4263  -17.8031   22.2803 N   0  0  0  0  0  0  0  0  0  0  0  0
   11.4618  -16.5243   24.0673 C   0  0  0  0  0  0  0  0  0  0  0  0
   12.2762  -15.4733   24.4626 O   0  0  0  0  0  0  0  0  0  0  0  0
   11.3730  -17.4850   24.8863 O   0  0  0  0  0  0  0  0  0  0  0  0
  2  1  1  6
  3  2  1  0
  4  3  1  0
  5  4  1  0
  5  6  2  0
  7  8  2  0
  7  2  1  0
  9  5  1  0
 11 10  1  1
 11 12  1  0
 12  7  1  0
 13 11  1  0
 14 13  2  0
 16 15  1  0
 16 18  1  0
 17 16  2  0
 19 18  1  0
 19 20  1  0
 20 21  1  0
 22 21  1  1
 22 23  1  0
 23 13  1  0
 24 22  1  0
 24 25  1  0
 26 24  2  0
M  END
$$$$
