EAR.pdb
     RDKit          3D

 26 25  0  0  1  0  0  0  0  0999 V2000
    8.8873  -14.1566   14.0395 N   0  0  0  0  0  0  0  0  0  0  0  0
    8.1658  -14.6955   15.1761 C   0  0  1  0  0  0  0  0  0  0  0  0
    7.9950  -16.1797   15.1343 C   0  0  0  0  0  0  0  0  0  0  0  0
    9.0873  -16.9413   14.4705 C   0  0  0  0  0  0  0  0  0  0  0  0
    8.8751  -18.3915   14.3724 C   0  0  0  0  0  0  0  0  0  0  0  0
    7.8308  -18.9075   14.8386 O   0  0  0  0  0  0  0  0  0  0  0  0
    8.8329  -14.3418   16.4577 C   0  0  0  0  0  0  0  0  0  0  0  0
   10.0700  -14.5267   16.5431 O   0  0  0  0  0  0  0  0  0  0  0  0
    9.8025  -19.2618   13.7682 O   0  0  0  0  0  0  0  0  0  0  0  0
    7.7996  -12.9273   19.8384 C   0  0  0  0  0  0  0  0  0  0  0  0
    8.7484  -13.5091   18.8459 C   0  0  2  0  0  0  0  0  0  0  0  0
    8.1626  -13.8162   17.5695 N   0  0  0  0  0  0  0  0  0  0  0  0
    9.3239  -14.7804   19.4049 C   0  0  0  0  0  0  0  0  0  0  0  0
    9.1309  -15.8877   18.8173 O   0  0  0  0  0  0  0  0  0  0  0  0
   17.0636  -15.3037   17.4176 N   0  0  0  0  0  0  0  0  0  0  0  0
   15.9985  -14.5063   17.9700 C   0  0  0  0  0  0  0  0  0  0  0  0
   15.8932  -13.2677   17.6493 N   0  0  0  0  0  0  0  0  0  0  0  0
   15.0515  -15.0488   18.8653 N   0  0  0  0  0  0  0  0  0  0  0  0
   14.2422  -16.2101   18.4945 C   0  0  0  0  0  0  0  0  0  0  0  0
   13.3532  -16.5048   19.6714 C   0  0  0  0  0  0  0  0  0  0  0  0
   12.1417  -15.6758   19.6475 C   0  0  0  0  0  0  0  0  0  0  0  0
   11.2140  -15.6992   20.7919 C   0  0  2  0  0  0  0  0  0  0  0  0
   10.0944  -14.8126   20.5888 N   0  0  0  0  0  0  0  0  0  0  0  0
   11.7953  -15.5906   22.1388 C   0  0  0  0  0  0  0  0  0  0  0  0
   12.5464  -16.6269   22.6736 O   0  0  0  0  0  0  0  0  0  0  0  0
   11.6561  -14.5761   22.8824 O   0  0  0  0  0  0  0  0  0  0  0  0
  2  1  1  6
  3  2  1  0
  4  3  1  0
  5  4  1  0
  5  6  2  0
  7  8  2  0
  7  2  1  0
  9  5  1  0
 11 10  1  1
 11 12  1  0
 12  7  1  0
 13 11  1  0
 14 13  2  0
 16 15  1  0
 16 18  1  0
 17 16  2  0
 19 18  1  0
 19 20  1  0
 20 21  1  0
 22 21  1  6
 22 23  1  0
 23 13  1  0
 24 22  1  0
 24 25  1  0
 26 24  2  0
M  END
$$$$
