EAR.pdb
     RDKit          3D

 26 25  0  0  1  0  0  0  0  0999 V2000
    7.4326  -16.7539   16.4114 N   0  0  0  0  0  0  0  0  0  0  0  0
    8.6762  -17.1352   17.0527 C   0  0  1  0  0  0  0  0  0  0  0  0
    9.8373  -17.2208   16.1154 C   0  0  0  0  0  0  0  0  0  0  0  0
    9.7093  -16.4491   14.8498 C   0  0  0  0  0  0  0  0  0  0  0  0
   10.8627  -16.5286   13.9436 C   0  0  0  0  0  0  0  0  0  0  0  0
   10.9160  -17.4281   13.0705 O   0  0  0  0  0  0  0  0  0  0  0  0
    9.0323  -16.1924   18.1466 C   0  0  0  0  0  0  0  0  0  0  0  0
   10.1147  -16.3802   18.7509 O   0  0  0  0  0  0  0  0  0  0  0  0
   11.9437  -15.6281   13.9994 O   0  0  0  0  0  0  0  0  0  0  0  0
    7.5698  -13.0457   19.7064 C   0  0  0  0  0  0  0  0  0  0  0  0
    8.5027  -14.2060   19.6224 C   0  0  2  0  0  0  0  0  0  0  0  0
    8.2325  -15.1117   18.5392 N   0  0  0  0  0  0  0  0  0  0  0  0
    8.4287  -14.9880   20.9042 C   0  0  0  0  0  0  0  0  0  0  0  0
    7.5938  -15.9339   21.0342 O   0  0  0  0  0  0  0  0  0  0  0  0
   11.4426  -15.8976   28.4849 N   0  0  0  0  0  0  0  0  0  0  0  0
   11.5289  -17.2001   27.8753 C   0  0  0  0  0  0  0  0  0  0  0  0
   11.0056  -18.2165   28.4595 N   0  0  0  0  0  0  0  0  0  0  0  0
   12.1785  -17.4001   26.6382 N   0  0  0  0  0  0  0  0  0  0  0  0
   12.0960  -16.4004   25.5728 C   0  0  0  0  0  0  0  0  0  0  0  0
   10.6820  -16.4367   25.0614 C   0  0  0  0  0  0  0  0  0  0  0  0
   10.5078  -15.5467   23.9068 C   0  0  0  0  0  0  0  0  0  0  0  0
    9.1870  -15.4281   23.2646 C   0  0  2  0  0  0  0  0  0  0  0  0
    9.2656  -14.7197   22.0105 N   0  0  0  0  0  0  0  0  0  0  0  0
    8.0620  -14.9871   24.1035 C   0  0  0  0  0  0  0  0  0  0  0  0
    7.4827  -15.8480   25.0241 O   0  0  0  0  0  0  0  0  0  0  0  0
    7.5581  -13.8276   24.0469 O   0  0  0  0  0  0  0  0  0  0  0  0
  2  1  1  6
  3  2  1  0
  4  3  1  0
  5  4  1  0
  5  6  2  0
  7  8  2  0
  7  2  1  0
  9  5  1  0
 11 10  1  1
 11 12  1  0
 12  7  1  0
 13 11  1  0
 14 13  2  0
 16 15  1  0
 16 18  1  0
 17 16  2  0
 19 18  1  0
 19 20  1  0
 20 21  1  0
 22 21  1  1
 22 23  1  0
 23 13  1  0
 24 22  1  0
 24 25  1  0
 26 24  2  0
M  END
$$$$
