EAR.pdb
     RDKit          3D

 26 25  0  0  1  0  0  0  0  0999 V2000
    8.0145  -12.5002   17.7050 N   0  0  0  0  0  0  0  0  0  0  0  0
    7.9181  -13.8065   18.3274 C   0  0  1  0  0  0  0  0  0  0  0  0
    8.7790  -14.8461   17.6853 C   0  0  0  0  0  0  0  0  0  0  0  0
    8.7348  -16.1988   18.3032 C   0  0  0  0  0  0  0  0  0  0  0  0
    9.4778  -17.2438   17.5863 C   0  0  0  0  0  0  0  0  0  0  0  0
    9.4373  -18.4320   17.9871 O   0  0  0  0  0  0  0  0  0  0  0  0
    8.2660  -13.7446   19.7722 C   0  0  0  0  0  0  0  0  0  0  0  0
    9.4210  -13.3656   20.0796 O   0  0  0  0  0  0  0  0  0  0  0  0
   10.2557  -16.9820   16.4422 O   0  0  0  0  0  0  0  0  0  0  0  0
    6.5883  -13.4049   23.0362 C   0  0  0  0  0  0  0  0  0  0  0  0
    7.6639  -14.0295   22.2136 C   0  0  2  0  0  0  0  0  0  0  0  0
    7.3825  -14.0831   20.8048 N   0  0  0  0  0  0  0  0  0  0  0  0
    7.8907  -15.4370   22.6905 C   0  0  0  0  0  0  0  0  0  0  0  0
    7.2405  -16.4012   22.1843 O   0  0  0  0  0  0  0  0  0  0  0  0
   13.9786  -18.9109   28.3614 N   0  0  0  0  0  0  0  0  0  0  0  0
   13.0499  -19.9508   27.9983 C   0  0  0  0  0  0  0  0  0  0  0  0
   13.2535  -21.1564   28.3897 N   0  0  0  0  0  0  0  0  0  0  0  0
   11.9058  -19.6853   27.2153 N   0  0  0  0  0  0  0  0  0  0  0  0
   11.6708  -18.3563   26.6500 C   0  0  0  0  0  0  0  0  0  0  0  0
   10.4552  -18.4741   25.7723 C   0  0  0  0  0  0  0  0  0  0  0  0
   10.1630  -17.2072   25.0901 C   0  0  0  0  0  0  0  0  0  0  0  0
    8.9138  -17.0578   24.3235 C   0  0  2  0  0  0  0  0  0  0  0  0
    8.8195  -15.7576   23.7057 N   0  0  0  0  0  0  0  0  0  0  0  0
    7.6633  -17.4753   24.9760 C   0  0  0  0  0  0  0  0  0  0  0  0
    7.3357  -18.8185   25.0894 O   0  0  0  0  0  0  0  0  0  0  0  0
    6.8236  -16.6647   25.4651 O   0  0  0  0  0  0  0  0  0  0  0  0
  2  1  1  6
  3  2  1  0
  4  3  1  0
  5  4  1  0
  5  6  2  0
  7  8  2  0
  7  2  1  0
  9  5  1  0
 11 10  1  1
 11 12  1  0
 12  7  1  0
 13 11  1  0
 14 13  2  0
 16 15  1  0
 16 18  1  0
 17 16  2  0
 19 18  1  0
 19 20  1  0
 20 21  1  0
 22 21  1  1
 22 23  1  0
 23 13  1  0
 24 22  1  0
 24 25  1  0
 26 24  2  0
M  END
$$$$
