EAR.pdb
     RDKit          3D

 26 25  0  0  1  0  0  0  0  0999 V2000
   13.9132  -15.9559   18.0523 N   0  0  0  0  0  0  0  0  0  0  0  0
   12.4985  -16.1904   17.8365 C   0  0  1  0  0  0  0  0  0  0  0  0
   12.1567  -16.5695   16.4317 C   0  0  0  0  0  0  0  0  0  0  0  0
   13.1398  -17.4438   15.7369 C   0  0  0  0  0  0  0  0  0  0  0  0
   12.8006  -17.7972   14.3520 C   0  0  0  0  0  0  0  0  0  0  0  0
   11.6232  -17.6649   13.9393 O   0  0  0  0  0  0  0  0  0  0  0  0
   11.9816  -17.2516   18.7416 C   0  0  0  0  0  0  0  0  0  0  0  0
   10.8182  -17.6743   18.5422 O   0  0  0  0  0  0  0  0  0  0  0  0
   13.7474  -18.2902   13.4338 O   0  0  0  0  0  0  0  0  0  0  0  0
   13.3402  -19.8513   21.0185 C   0  0  0  0  0  0  0  0  0  0  0  0
   12.2815  -18.8600   20.6722 C   0  0  2  0  0  0  0  0  0  0  0  0
   12.7157  -17.8039   19.7988 N   0  0  0  0  0  0  0  0  0  0  0  0
   11.7688  -18.2288   21.9365 C   0  0  0  0  0  0  0  0  0  0  0  0
   11.2306  -18.9393   22.8389 O   0  0  0  0  0  0  0  0  0  0  0  0
    7.1159  -11.9804   20.2060 N   0  0  0  0  0  0  0  0  0  0  0  0
    7.7055  -13.0068   19.3848 C   0  0  0  0  0  0  0  0  0  0  0  0
    7.5130  -13.0008   18.1156 N   0  0  0  0  0  0  0  0  0  0  0  0
    8.5003  -14.0346   19.9365 N   0  0  0  0  0  0  0  0  0  0  0  0
    8.7392  -14.1118   21.3780 C   0  0  0  0  0  0  0  0  0  0  0  0
    9.7002  -15.2488   21.5917 C   0  0  0  0  0  0  0  0  0  0  0  0
   10.1923  -15.2806   22.9746 C   0  0  0  0  0  0  0  0  0  0  0  0
   11.2852  -16.1973   23.3436 C   0  0  2  0  0  0  0  0  0  0  0  0
   11.8555  -16.8406   22.1852 N   0  0  0  0  0  0  0  0  0  0  0  0
   11.0431  -17.1284   24.4564 C   0  0  0  0  0  0  0  0  0  0  0  0
   10.8498  -16.6576   25.7468 O   0  0  0  0  0  0  0  0  0  0  0  0
   10.9953  -18.3857   24.3203 O   0  0  0  0  0  0  0  0  0  0  0  0
  2  1  1  6
  3  2  1  0
  4  3  1  0
  5  4  1  0
  5  6  2  0
  7  8  2  0
  7  2  1  0
  9  5  1  0
 11 10  1  1
 11 12  1  0
 12  7  1  0
 13 11  1  0
 14 13  2  0
 16 15  1  0
 16 18  1  0
 17 16  2  0
 19 18  1  0
 19 20  1  0
 20 21  1  0
 22 21  1  6
 22 23  1  0
 23 13  1  0
 24 22  1  0
 24 25  1  0
 26 24  2  0
M  END
$$$$
