EAR.pdb
     RDKit          3D

 26 25  0  0  1  0  0  0  0  0999 V2000
   13.1715  -17.3177   17.9040 N   0  0  0  0  0  0  0  0  0  0  0  0
   13.0670  -17.9337   19.2127 C   0  0  1  0  0  0  0  0  0  0  0  0
   14.2744  -17.7357   20.0712 C   0  0  0  0  0  0  0  0  0  0  0  0
   15.5284  -18.3727   19.5862 C   0  0  0  0  0  0  0  0  0  0  0  0
   16.1882  -19.2731   20.5411 C   0  0  0  0  0  0  0  0  0  0  0  0
   15.6161  -19.5801   21.6147 O   0  0  0  0  0  0  0  0  0  0  0  0
   11.8820  -17.4279   19.9558 C   0  0  0  0  0  0  0  0  0  0  0  0
   11.6715  -16.1919   19.9487 O   0  0  0  0  0  0  0  0  0  0  0  0
   17.4624  -19.8280   20.3152 O   0  0  0  0  0  0  0  0  0  0  0  0
    8.7234  -18.8920   21.3749 C   0  0  0  0  0  0  0  0  0  0  0  0
    9.7661  -17.8299   21.2846 C   0  0  2  0  0  0  0  0  0  0  0  0
   10.9914  -18.2482   20.6597 N   0  0  0  0  0  0  0  0  0  0  0  0
   10.0978  -17.3496   22.6699 C   0  0  0  0  0  0  0  0  0  0  0  0
   11.1357  -17.7694   23.2659 O   0  0  0  0  0  0  0  0  0  0  0  0
    5.0834  -13.6778   26.7837 N   0  0  0  0  0  0  0  0  0  0  0  0
    5.8396  -12.5933   26.2114 C   0  0  0  0  0  0  0  0  0  0  0  0
    5.3777  -11.3964   26.2570 N   0  0  0  0  0  0  0  0  0  0  0  0
    7.0908  -12.8048   25.5931 N   0  0  0  0  0  0  0  0  0  0  0  0
    8.3345  -12.7194   26.3593 C   0  0  0  0  0  0  0  0  0  0  0  0
    8.9520  -14.0904   26.3261 C   0  0  0  0  0  0  0  0  0  0  0  0
    8.8799  -14.6772   24.9822 C   0  0  0  0  0  0  0  0  0  0  0  0
    9.6019  -15.9273   24.6877 C   0  0  2  0  0  0  0  0  0  0  0  0
    9.2908  -16.4250   23.3700 N   0  0  0  0  0  0  0  0  0  0  0  0
    9.5861  -16.9783   25.7168 C   0  0  0  0  0  0  0  0  0  0  0  0
   10.4507  -16.9242   26.8002 O   0  0  0  0  0  0  0  0  0  0  0  0
    8.8074  -17.9754   25.6881 O   0  0  0  0  0  0  0  0  0  0  0  0
  2  1  1  6
  3  2  1  0
  4  3  1  0
  5  4  1  0
  5  6  2  0
  7  8  2  0
  7  2  1  0
  9  5  1  0
 11 10  1  1
 11 12  1  0
 12  7  1  0
 13 11  1  0
 14 13  2  0
 16 15  1  0
 16 18  1  0
 17 16  2  0
 19 18  1  0
 19 20  1  0
 20 21  1  0
 22 21  1  1
 22 23  1  0
 23 13  1  0
 24 22  1  0
 24 25  1  0
 26 24  2  0
M  END
$$$$
