EAR.pdb
     RDKit          3D

 26 25  0  0  1  0  0  0  0  0999 V2000
    8.0184  -13.3573   14.3553 N   0  0  0  0  0  0  0  0  0  0  0  0
    7.7212  -14.3952   15.3235 C   0  0  1  0  0  0  0  0  0  0  0  0
    8.1374  -15.7634   14.8889 C   0  0  0  0  0  0  0  0  0  0  0  0
    9.5965  -16.0484   14.9476 C   0  0  0  0  0  0  0  0  0  0  0  0
    9.9840  -17.4247   14.6109 C   0  0  0  0  0  0  0  0  0  0  0  0
    9.1742  -18.1797   14.0206 O   0  0  0  0  0  0  0  0  0  0  0  0
    8.3620  -14.1109   16.6354 C   0  0  0  0  0  0  0  0  0  0  0  0
    9.6113  -14.0095   16.6660 O   0  0  0  0  0  0  0  0  0  0  0  0
   11.2480  -17.9619   14.9213 O   0  0  0  0  0  0  0  0  0  0  0  0
    7.2249  -13.4192   20.2004 C   0  0  0  0  0  0  0  0  0  0  0  0
    8.2242  -13.6878   19.1266 C   0  0  2  0  0  0  0  0  0  0  0  0
    7.6541  -13.9503   17.8333 N   0  0  0  0  0  0  0  0  0  0  0  0
    9.0516  -14.8814   19.5147 C   0  0  0  0  0  0  0  0  0  0  0  0
    9.2095  -15.8459   18.7062 O   0  0  0  0  0  0  0  0  0  0  0  0
   15.9693  -14.0001   16.5931 N   0  0  0  0  0  0  0  0  0  0  0  0
   16.3935  -14.4724   17.8863 C   0  0  0  0  0  0  0  0  0  0  0  0
   17.6451  -14.5934   18.1450 N   0  0  0  0  0  0  0  0  0  0  0  0
   15.4657  -14.8115   18.8947 N   0  0  0  0  0  0  0  0  0  0  0  0
   14.0741  -14.3656   18.8198 C   0  0  0  0  0  0  0  0  0  0  0  0
   13.4022  -14.8491   20.0755 C   0  0  0  0  0  0  0  0  0  0  0  0
   11.9504  -14.6374   20.0210 C   0  0  0  0  0  0  0  0  0  0  0  0
   11.0666  -15.3726   20.9425 C   0  0  2  0  0  0  0  0  0  0  0  0
    9.6852  -14.9936   20.7725 N   0  0  0  0  0  0  0  0  0  0  0  0
   11.4714  -15.4486   22.3547 C   0  0  0  0  0  0  0  0  0  0  0  0
   10.6043  -15.0567   23.3640 O   0  0  0  0  0  0  0  0  0  0  0  0
   12.6039  -15.8639   22.7376 O   0  0  0  0  0  0  0  0  0  0  0  0
  2  1  1  6
  3  2  1  0
  4  3  1  0
  5  4  1  0
  5  6  2  0
  7  8  2  0
  7  2  1  0
  9  5  1  0
 11 10  1  1
 11 12  1  0
 12  7  1  0
 13 11  1  0
 14 13  2  0
 16 15  1  0
 16 18  1  0
 17 16  2  0
 19 18  1  0
 19 20  1  0
 20 21  1  0
 22 21  1  6
 22 23  1  0
 23 13  1  0
 24 22  1  0
 24 25  1  0
 26 24  2  0
M  END
$$$$
