EAR.pdb
     RDKit          3D

 26 25  0  0  1  0  0  0  0  0999 V2000
    8.5793  -13.9879   14.2387 N   0  0  0  0  0  0  0  0  0  0  0  0
    7.9139  -14.6356   15.3526 C   0  0  1  0  0  0  0  0  0  0  0  0
    7.8375  -16.1231   15.2280 C   0  0  0  0  0  0  0  0  0  0  0  0
    8.8549  -16.7546   14.3449 C   0  0  0  0  0  0  0  0  0  0  0  0
    8.7326  -18.2094   14.1823 C   0  0  0  0  0  0  0  0  0  0  0  0
    8.7522  -18.7181   13.0356 O   0  0  0  0  0  0  0  0  0  0  0  0
    8.5798  -14.3124   16.6428 C   0  0  0  0  0  0  0  0  0  0  0  0
    9.8219  -14.4675   16.7145 O   0  0  0  0  0  0  0  0  0  0  0  0
    8.5905  -19.0921   15.2701 O   0  0  0  0  0  0  0  0  0  0  0  0
    7.5555  -12.8954   20.0231 C   0  0  0  0  0  0  0  0  0  0  0  0
    8.5018  -13.4859   19.0334 C   0  0  2  0  0  0  0  0  0  0  0  0
    7.9031  -13.8466   17.7772 N   0  0  0  0  0  0  0  0  0  0  0  0
    9.1160  -14.7253   19.6220 C   0  0  0  0  0  0  0  0  0  0  0  0
    8.6661  -15.8724   19.3212 O   0  0  0  0  0  0  0  0  0  0  0  0
   14.7238  -15.2135   15.8074 N   0  0  0  0  0  0  0  0  0  0  0  0
   15.4790  -15.9497   16.7889 C   0  0  0  0  0  0  0  0  0  0  0  0
   16.7526  -15.8037   16.8584 N   0  0  0  0  0  0  0  0  0  0  0  0
   14.8569  -16.8394   17.6911 N   0  0  0  0  0  0  0  0  0  0  0  0
   13.4032  -17.0059   17.7042 C   0  0  0  0  0  0  0  0  0  0  0  0
   12.9696  -16.8629   19.1373 C   0  0  0  0  0  0  0  0  0  0  0  0
   11.8446  -15.9282   19.2650 C   0  0  0  0  0  0  0  0  0  0  0  0
   11.2320  -15.6933   20.5843 C   0  0  2  0  0  0  0  0  0  0  0  0
   10.2040  -14.6833   20.5225 N   0  0  0  0  0  0  0  0  0  0  0  0
   12.1367  -15.5222   21.7315 C   0  0  0  0  0  0  0  0  0  0  0  0
   12.0558  -14.3964   22.5378 O   0  0  0  0  0  0  0  0  0  0  0  0
   13.0254  -16.3633   22.0546 O   0  0  0  0  0  0  0  0  0  0  0  0
  2  1  1  6
  3  2  1  0
  4  3  1  0
  5  4  1  0
  5  6  2  0
  7  8  2  0
  7  2  1  0
  9  5  1  0
 11 10  1  1
 11 12  1  0
 12  7  1  0
 13 11  1  0
 14 13  2  0
 16 15  1  0
 16 18  1  0
 17 16  2  0
 19 18  1  0
 19 20  1  0
 20 21  1  0
 22 21  1  6
 22 23  1  0
 23 13  1  0
 24 22  1  0
 24 25  1  0
 26 24  2  0
M  END
$$$$
