EAR.pdb
     RDKit          3D

 26 25  0  0  1  0  0  0  0  0999 V2000
    9.7686  -16.7222   17.4900 N   0  0  0  0  0  0  0  0  0  0  0  0
    8.6146  -16.7340   18.3683 C   0  0  1  0  0  0  0  0  0  0  0  0
    8.0210  -18.0912   18.5669 C   0  0  0  0  0  0  0  0  0  0  0  0
    8.7434  -19.2181   17.9175 C   0  0  0  0  0  0  0  0  0  0  0  0
    8.3703  -20.5594   18.3860 C   0  0  0  0  0  0  0  0  0  0  0  0
    7.1726  -20.8227   18.6511 O   0  0  0  0  0  0  0  0  0  0  0  0
    8.9464  -16.1731   19.7053 C   0  0  0  0  0  0  0  0  0  0  0  0
   10.0378  -16.5065   20.2246 O   0  0  0  0  0  0  0  0  0  0  0  0
    9.3058  -21.5973   18.5601 O   0  0  0  0  0  0  0  0  0  0  0  0
    7.3973  -13.7119   22.1585 C   0  0  0  0  0  0  0  0  0  0  0  0
    8.3785  -14.7433   21.7147 C   0  0  2  0  0  0  0  0  0  0  0  0
    8.1145  -15.2978   20.4149 N   0  0  0  0  0  0  0  0  0  0  0  0
    8.3818  -15.8747   22.7046 C   0  0  0  0  0  0  0  0  0  0  0  0
    7.8682  -16.9948   22.4042 O   0  0  0  0  0  0  0  0  0  0  0  0
   14.4071  -20.1075   20.9746 N   0  0  0  0  0  0  0  0  0  0  0  0
   14.4365  -20.3286   22.3979 C   0  0  0  0  0  0  0  0  0  0  0  0
   15.2566  -21.1811   22.8968 N   0  0  0  0  0  0  0  0  0  0  0  0
   13.5815  -19.6288   23.2765 N   0  0  0  0  0  0  0  0  0  0  0  0
   12.6232  -18.6449   22.7718 C   0  0  0  0  0  0  0  0  0  0  0  0
   11.9791  -18.0182   23.9778 C   0  0  0  0  0  0  0  0  0  0  0  0
   10.9284  -17.0687   23.5903 C   0  0  0  0  0  0  0  0  0  0  0  0
    9.8739  -16.7077   24.5539 C   0  0  2  0  0  0  0  0  0  0  0  0
    8.9441  -15.7567   23.9954 N   0  0  0  0  0  0  0  0  0  0  0  0
   10.2932  -16.3653   25.9217 C   0  0  0  0  0  0  0  0  0  0  0  0
   10.4514  -17.3520   26.8838 O   0  0  0  0  0  0  0  0  0  0  0  0
   10.5318  -15.1835   26.3062 O   0  0  0  0  0  0  0  0  0  0  0  0
  2  1  1  6
  3  2  1  0
  4  3  1  0
  5  4  1  0
  5  6  2  0
  7  8  2  0
  7  2  1  0
  9  5  1  0
 11 10  1  1
 11 12  1  0
 12  7  1  0
 13 11  1  0
 14 13  2  0
 16 15  1  0
 16 18  1  0
 17 16  2  0
 19 18  1  0
 19 20  1  0
 20 21  1  0
 22 21  1  6
 22 23  1  0
 23 13  1  0
 24 22  1  0
 24 25  1  0
 26 24  2  0
M  END
$$$$
