EAR.pdb
     RDKit          3D

 26 25  0  0  1  0  0  0  0  0999 V2000
    9.4102  -19.9066   16.7990 N   0  0  0  0  0  0  0  0  0  0  0  0
   10.5286  -19.5596   17.6545 C   0  0  1  0  0  0  0  0  0  0  0  0
   11.3149  -18.3834   17.1728 C   0  0  0  0  0  0  0  0  0  0  0  0
   10.5876  -17.4332   16.2886 C   0  0  0  0  0  0  0  0  0  0  0  0
   11.4237  -16.4251   15.6233 C   0  0  0  0  0  0  0  0  0  0  0  0
   12.6325  -16.6660   15.3886 O   0  0  0  0  0  0  0  0  0  0  0  0
   10.0800  -19.2791   19.0446 C   0  0  0  0  0  0  0  0  0  0  0  0
    8.9631  -18.7306   19.1990 O   0  0  0  0  0  0  0  0  0  0  0  0
   10.9335  -15.1677   15.2220 O   0  0  0  0  0  0  0  0  0  0  0  0
   11.1132  -20.3358   22.5174 C   0  0  0  0  0  0  0  0  0  0  0  0
   10.3914  -19.4607   21.5495 C   0  0  2  0  0  0  0  0  0  0  0  0
   10.8290  -19.5910   20.1863 N   0  0  0  0  0  0  0  0  0  0  0  0
   10.5750  -18.0250   21.9556 C   0  0  0  0  0  0  0  0  0  0  0  0
   11.5747  -17.3620   21.5437 O   0  0  0  0  0  0  0  0  0  0  0  0
    8.3801  -12.8802   17.4668 N   0  0  0  0  0  0  0  0  0  0  0  0
    8.2771  -12.8918   18.9038 C   0  0  0  0  0  0  0  0  0  0  0  0
    8.9229  -12.0271   19.5991 N   0  0  0  0  0  0  0  0  0  0  0  0
    7.4776  -13.8355   19.5840 N   0  0  0  0  0  0  0  0  0  0  0  0
    7.5351  -13.9622   21.0406 C   0  0  0  0  0  0  0  0  0  0  0  0
    8.7138  -14.8448   21.3466 C   0  0  0  0  0  0  0  0  0  0  0  0
    8.8461  -15.0792   22.7899 C   0  0  0  0  0  0  0  0  0  0  0  0
    9.8734  -16.0090   23.2911 C   0  0  2  0  0  0  0  0  0  0  0  0
    9.6653  -17.3490   22.7993 N   0  0  0  0  0  0  0  0  0  0  0  0
   10.1834  -15.9667   24.7285 C   0  0  0  0  0  0  0  0  0  0  0  0
   10.8677  -14.8914   25.2759 O   0  0  0  0  0  0  0  0  0  0  0  0
    9.8583  -16.8794   25.5425 O   0  0  0  0  0  0  0  0  0  0  0  0
  2  1  1  6
  3  2  1  0
  4  3  1  0
  5  4  1  0
  5  6  2  0
  7  8  2  0
  7  2  1  0
  9  5  1  0
 11 10  1  1
 11 12  1  0
 12  7  1  0
 13 11  1  0
 14 13  2  0
 16 15  1  0
 16 18  1  0
 17 16  2  0
 19 18  1  0
 19 20  1  0
 20 21  1  0
 22 21  1  1
 22 23  1  0
 23 13  1  0
 24 22  1  0
 24 25  1  0
 26 24  2  0
M  END
$$$$
