EAR.pdb
     RDKit          3D

 26 25  0  0  1  0  0  0  0  0999 V2000
   11.9783  -20.4916   15.5628 N   0  0  0  0  0  0  0  0  0  0  0  0
   13.1040  -20.2087   16.4323 C   0  0  1  0  0  0  0  0  0  0  0  0
   13.7717  -18.9018   16.1496 C   0  0  0  0  0  0  0  0  0  0  0  0
   14.2902  -18.7223   14.7667 C   0  0  0  0  0  0  0  0  0  0  0  0
   15.0639  -17.4948   14.5379 C   0  0  0  0  0  0  0  0  0  0  0  0
   16.0488  -17.2267   15.2675 O   0  0  0  0  0  0  0  0  0  0  0  0
   12.6991  -20.2223   17.8635 C   0  0  0  0  0  0  0  0  0  0  0  0
   11.5084  -19.9404   18.1368 O   0  0  0  0  0  0  0  0  0  0  0  0
   14.7557  -16.5745   13.5178 O   0  0  0  0  0  0  0  0  0  0  0  0
   14.2289  -21.2529   21.1794 C   0  0  0  0  0  0  0  0  0  0  0  0
   13.2238  -20.5705   20.3145 C   0  0  2  0  0  0  0  0  0  0  0  0
   13.5666  -20.5306   18.9190 N   0  0  0  0  0  0  0  0  0  0  0  0
   13.0530  -19.1534   20.7862 C   0  0  0  0  0  0  0  0  0  0  0  0
   13.7829  -18.2269   20.3198 O   0  0  0  0  0  0  0  0  0  0  0  0
    7.6000  -13.5013   18.5787 N   0  0  0  0  0  0  0  0  0  0  0  0
    8.2927  -12.8740   19.6752 C   0  0  0  0  0  0  0  0  0  0  0  0
    8.2061  -11.6044   19.8450 N   0  0  0  0  0  0  0  0  0  0  0  0
    9.0750  -13.6190   20.5837 N   0  0  0  0  0  0  0  0  0  0  0  0
    9.4194  -15.0153   20.3136 C   0  0  0  0  0  0  0  0  0  0  0  0
   10.2842  -15.4710   21.4567 C   0  0  0  0  0  0  0  0  0  0  0  0
   10.6892  -16.8729   21.2953 C   0  0  0  0  0  0  0  0  0  0  0  0
   11.7954  -17.4148   22.1037 C   0  0  2  0  0  0  0  0  0  0  0  0
   12.0920  -18.7823   21.7531 N   0  0  0  0  0  0  0  0  0  0  0  0
   11.7456  -17.1926   23.5570 C   0  0  0  0  0  0  0  0  0  0  0  0
   12.1205  -15.9734   24.1022 O   0  0  0  0  0  0  0  0  0  0  0  0
   11.3693  -18.0702   24.3876 O   0  0  0  0  0  0  0  0  0  0  0  0
  2  1  1  6
  3  2  1  0
  4  3  1  0
  5  4  1  0
  5  6  2  0
  7  8  2  0
  7  2  1  0
  9  5  1  0
 11 10  1  1
 11 12  1  0
 12  7  1  0
 13 11  1  0
 14 13  2  0
 16 15  1  0
 16 18  1  0
 17 16  2  0
 19 18  1  0
 19 20  1  0
 20 21  1  0
 22 21  1  6
 22 23  1  0
 23 13  1  0
 24 22  1  0
 24 25  1  0
 26 24  2  0
M  END
$$$$
