NGP.pdb
     RDKit          3D

 20 20  0  0  1  0  0  0  0  0999 V2000
   17.9428   -4.8115  -15.8786 N   0  0  0  0  0  0  0  0  0  0  0  0
   17.8354   -6.0289  -15.1175 C   0  0  0  0  0  0  0  0  0  0  0  0
   16.7110   -6.3358  -14.6870 O   0  0  0  0  0  0  0  0  0  0  0  0
   19.0639   -6.8015  -14.9163 C   0  0  0  0  0  0  0  0  0  0  0  0
   20.2494   -6.2145  -15.6442 C   0  0  2  0  0  0  0  0  0  0  0  0
   20.1717   -6.6265  -17.0603 N   0  0  0  0  0  0  0  0  0  0  0  0
   21.4904   -6.8356  -15.1309 C   0  0  0  0  0  0  0  0  0  0  0  0
   21.8924   -6.5799  -13.9601 O   0  0  0  0  0  0  0  0  0  0  0  0
   22.2274   -7.7201  -15.9586 N   0  0  0  0  0  0  0  0  0  0  0  0
   23.4024   -8.3785  -15.4225 C   0  0  0  0  0  0  0  0  0  0  0  0
   23.9890   -9.2908  -16.4420 C   0  0  0  0  0  0  0  0  0  0  0  0
   23.3950   -9.4833  -17.5409 O   0  0  0  0  0  0  0  0  0  0  0  0
   25.2211   -9.9516  -16.1866 N   0  0  0  0  0  0  0  0  0  0  0  0
   26.0048   -9.7456  -14.9561 C   0  0  0  0  0  0  0  0  0  0  0  0
   27.4166  -10.1827  -15.3917 C   0  0  0  0  0  0  0  0  0  0  0  0
   27.0441  -11.3855  -16.2258 C   0  0  0  0  0  0  0  0  0  0  0  0
   25.8977  -10.8858  -17.0558 C   0  0  1  0  0  0  0  0  0  0  0  0
   25.0116  -11.9801  -17.5019 C   0  0  0  0  0  0  0  0  0  0  0  0
   25.1776  -12.4654  -18.6418 O   0  0  0  0  0  0  0  0  0  0  0  0
   24.0023  -12.4914  -16.7071 O   0  0  0  0  0  0  0  0  0  0  0  0
  2  1  1  0
  3  2  2  0
  4  5  1  0
  4  2  1  0
  5  6  1  6
  7  5  1  0
  7  8  2  0
  9  7  1  0
 10  9  1  0
 11 10  1  0
 12 11  2  0
 13 17  1  0
 13 11  1  0
 14 13  1  0
 15 14  1  0
 15 16  1  0
 16 17  1  0
 17 18  1  1
 18 19  2  0
 18 20  1  0
M  END
$$$$
