NGP.pdb
     RDKit          3D

 20 20  0  0  1  0  0  0  0  0999 V2000
   23.3706  -20.5912  -16.9686 N   0  0  0  0  0  0  0  0  0  0  0  0
   23.4747  -21.3140  -15.7277 C   0  0  0  0  0  0  0  0  0  0  0  0
   22.9587  -22.4433  -15.6797 O   0  0  0  0  0  0  0  0  0  0  0  0
   24.1814  -20.6535  -14.6273 C   0  0  0  0  0  0  0  0  0  0  0  0
   25.6801  -20.8147  -14.7147 C   0  0  2  0  0  0  0  0  0  0  0  0
   25.9901  -22.2586  -14.7111 N   0  0  0  0  0  0  0  0  0  0  0  0
   26.2982  -20.2859  -13.4788 C   0  0  0  0  0  0  0  0  0  0  0  0
   26.1443  -19.0725  -13.1596 O   0  0  0  0  0  0  0  0  0  0  0  0
   27.0643  -21.1469  -12.6528 N   0  0  0  0  0  0  0  0  0  0  0  0
   27.6480  -20.6243  -11.4331 C   0  0  0  0  0  0  0  0  0  0  0  0
   26.8416  -21.0482  -10.2560 C   0  0  0  0  0  0  0  0  0  0  0  0
   25.8891  -21.8669  -10.3984 O   0  0  0  0  0  0  0  0  0  0  0  0
   27.1370  -20.5352   -8.9639 N   0  0  0  0  0  0  0  0  0  0  0  0
   28.3026  -19.6782   -8.6855 C   0  0  0  0  0  0  0  0  0  0  0  0
   28.4947  -19.8714   -7.1690 C   0  0  0  0  0  0  0  0  0  0  0  0
   27.0451  -19.8649   -6.7451 C   0  0  0  0  0  0  0  0  0  0  0  0
   26.3896  -20.7669   -7.7499 C   0  0  1  0  0  0  0  0  0  0  0  0
   24.9513  -20.4721   -7.9115 C   0  0  0  0  0  0  0  0  0  0  0  0
   24.6049  -19.5683   -8.7023 O   0  0  0  0  0  0  0  0  0  0  0  0
   23.9690  -21.1579   -7.2211 O   0  0  0  0  0  0  0  0  0  0  0  0
  2  1  1  0
  3  2  2  0
  4  5  1  0
  4  2  1  0
  5  6  1  1
  7  5  1  0
  7  8  2  0
  9  7  1  0
 10  9  1  0
 11 10  1  0
 12 11  2  0
 13 17  1  0
 13 11  1  0
 14 13  1  0
 15 14  1  0
 15 16  1  0
 16 17  1  0
 17 18  1  6
 18 19  2  0
 18 20  1  0
M  END
$$$$
