NGP.pdb
     RDKit          3D

 20 20  0  0  1  0  0  0  0  0999 V2000
   22.6575  -19.2538  -13.3234 N   0  0  0  0  0  0  0  0  0  0  0  0
   22.9378  -20.3843  -12.4771 C   0  0  0  0  0  0  0  0  0  0  0  0
   21.9901  -21.1378  -12.1983 O   0  0  0  0  0  0  0  0  0  0  0  0
   24.3192  -20.5483  -12.0172 C   0  0  0  0  0  0  0  0  0  0  0  0
   24.4121  -20.8458  -10.5398 C   0  0  2  0  0  0  0  0  0  0  0  0
   23.4070  -20.0215   -9.8388 N   0  0  0  0  0  0  0  0  0  0  0  0
   25.7187  -20.3740  -10.0307 C   0  0  0  0  0  0  0  0  0  0  0  0
   26.5827  -19.9111  -10.8288 O   0  0  0  0  0  0  0  0  0  0  0  0
   25.9977  -20.4427   -8.6422 N   0  0  0  0  0  0  0  0  0  0  0  0
   27.3110  -20.0584   -8.1635 C   0  0  0  0  0  0  0  0  0  0  0  0
   27.3645  -20.1556   -6.6791 C   0  0  0  0  0  0  0  0  0  0  0  0
   26.3052  -20.3398   -6.0147 O   0  0  0  0  0  0  0  0  0  0  0  0
   28.6072  -20.0418   -5.9988 N   0  0  0  0  0  0  0  0  0  0  0  0
   29.9079  -20.0601   -6.6905 C   0  0  0  0  0  0  0  0  0  0  0  0
   30.8712  -20.4767   -5.5624 C   0  0  0  0  0  0  0  0  0  0  0  0
   30.2784  -19.6657   -4.4347 C   0  0  0  0  0  0  0  0  0  0  0  0
   28.8041  -19.9105   -4.5740 C   0  0  1  0  0  0  0  0  0  0  0  0
   27.9984  -18.8164   -3.9946 C   0  0  0  0  0  0  0  0  0  0  0  0
   27.6169  -18.9100   -2.8080 O   0  0  0  0  0  0  0  0  0  0  0  0
   27.6479  -17.6889   -4.7141 O   0  0  0  0  0  0  0  0  0  0  0  0
  2  1  1  0
  3  2  2  0
  4  5  1  0
  4  2  1  0
  5  6  1  1
  7  5  1  0
  7  8  2  0
  9  7  1  0
 10  9  1  0
 11 10  1  0
 12 11  2  0
 13 17  1  0
 13 11  1  0
 14 13  1  0
 15 14  1  0
 15 16  1  0
 16 17  1  0
 17 18  1  6
 18 19  2  0
 18 20  1  0
M  END
$$$$
