NGP.pdb
     RDKit          3D

 20 20  0  0  1  0  0  0  0  0999 V2000
   19.2036  -20.3478  -13.9421 N   0  0  0  0  0  0  0  0  0  0  0  0
   20.2062  -19.5111  -14.5485 C   0  0  0  0  0  0  0  0  0  0  0  0
   19.8333  -18.4238  -15.0204 O   0  0  0  0  0  0  0  0  0  0  0  0
   21.5817  -20.0156  -14.5566 C   0  0  0  0  0  0  0  0  0  0  0  0
   21.6999  -21.4003  -13.9664 C   0  0  2  0  0  0  0  0  0  0  0  0
   20.8321  -21.4693  -12.7733 N   0  0  0  0  0  0  0  0  0  0  0  0
   23.0743  -21.5937  -13.4535 C   0  0  0  0  0  0  0  0  0  0  0  0
   23.9298  -22.2154  -14.1458 O   0  0  0  0  0  0  0  0  0  0  0  0
   23.4281  -21.0777  -12.1811 N   0  0  0  0  0  0  0  0  0  0  0  0
   24.8056  -21.1672  -11.7383 C   0  0  0  0  0  0  0  0  0  0  0  0
   25.6795  -20.3352  -12.6101 C   0  0  0  0  0  0  0  0  0  0  0  0
   25.1710  -19.4873  -13.3976 O   0  0  0  0  0  0  0  0  0  0  0  0
   27.0917  -20.4888  -12.5630 N   0  0  0  0  0  0  0  0  0  0  0  0
   27.7720  -21.3900  -11.6167 C   0  0  0  0  0  0  0  0  0  0  0  0
   29.1925  -20.7954  -11.5640 C   0  0  0  0  0  0  0  0  0  0  0  0
   29.3641  -20.4650  -13.0277 C   0  0  0  0  0  0  0  0  0  0  0  0
   28.0634  -19.8073  -13.3860 C   0  0  1  0  0  0  0  0  0  0  0  0
   27.7574  -19.9211  -14.8265 C   0  0  0  0  0  0  0  0  0  0  0  0
   27.1305  -20.9228  -15.2337 O   0  0  0  0  0  0  0  0  0  0  0  0
   28.1376  -18.9611  -15.7461 O   0  0  0  0  0  0  0  0  0  0  0  0
  2  1  1  0
  3  2  2  0
  4  5  1  0
  4  2  1  0
  5  6  1  1
  7  5  1  0
  7  8  2  0
  9  7  1  0
 10  9  1  0
 11 10  1  0
 12 11  2  0
 13 17  1  0
 13 11  1  0
 14 13  1  0
 15 14  1  0
 15 16  1  0
 16 17  1  0
 17 18  1  6
 18 19  2  0
 18 20  1  0
M  END
$$$$
