NGP.pdb
     RDKit          3D

 20 20  0  0  1  0  0  0  0  0999 V2000
   21.4221  -19.4753  -18.9225 N   0  0  0  0  0  0  0  0  0  0  0  0
   22.7298  -18.8829  -18.8136 C   0  0  0  0  0  0  0  0  0  0  0  0
   23.2791  -18.5144  -19.8654 O   0  0  0  0  0  0  0  0  0  0  0  0
   23.3004  -18.7661  -17.4692 C   0  0  0  0  0  0  0  0  0  0  0  0
   24.7956  -18.9758  -17.4484 C   0  0  2  0  0  0  0  0  0  0  0  0
   25.0758  -20.3479  -17.9173 N   0  0  0  0  0  0  0  0  0  0  0  0
   25.2709  -18.9438  -16.0476 C   0  0  0  0  0  0  0  0  0  0  0  0
   25.0716  -17.9214  -15.3316 O   0  0  0  0  0  0  0  0  0  0  0  0
   25.9511  -20.0663  -15.5111 N   0  0  0  0  0  0  0  0  0  0  0  0
   26.2484  -20.1032  -14.0927 C   0  0  0  0  0  0  0  0  0  0  0  0
   25.0546  -20.5608  -13.3303 C   0  0  0  0  0  0  0  0  0  0  0  0
   24.0109  -20.9272  -13.9417 O   0  0  0  0  0  0  0  0  0  0  0  0
   25.0804  -20.5887  -11.9095 N   0  0  0  0  0  0  0  0  0  0  0  0
   26.2737  -20.2395  -11.1192 C   0  0  0  0  0  0  0  0  0  0  0  0
   25.9955  -20.9464   -9.7788 C   0  0  0  0  0  0  0  0  0  0  0  0
   24.5187  -20.6533   -9.6599 C   0  0  0  0  0  0  0  0  0  0  0  0
   23.9957  -20.9628  -11.0322 C   0  0  1  0  0  0  0  0  0  0  0  0
   22.7504  -20.2284  -11.3349 C   0  0  0  0  0  0  0  0  0  0  0  0
   22.8248  -19.1339  -11.9338 O   0  0  0  0  0  0  0  0  0  0  0  0
   21.5012  -20.7043  -10.9814 O   0  0  0  0  0  0  0  0  0  0  0  0
  2  1  1  0
  3  2  2  0
  4  5  1  0
  4  2  1  0
  5  6  1  1
  7  5  1  0
  7  8  2  0
  9  7  1  0
 10  9  1  0
 11 10  1  0
 12 11  2  0
 13 17  1  0
 13 11  1  0
 14 13  1  0
 15 14  1  0
 15 16  1  0
 16 17  1  0
 17 18  1  6
 18 19  2  0
 18 20  1  0
M  END
$$$$
