NGP.pdb
     RDKit          3D

 20 20  0  0  1  0  0  0  0  0999 V2000
   22.8479  -21.6633  -15.5437 N   0  0  0  0  0  0  0  0  0  0  0  0
   23.3916  -20.3764  -15.1955 C   0  0  0  0  0  0  0  0  0  0  0  0
   22.6972  -19.3767  -15.4450 O   0  0  0  0  0  0  0  0  0  0  0  0
   24.7192  -20.3575  -14.5760 C   0  0  0  0  0  0  0  0  0  0  0  0
   24.9317  -21.5017  -13.6141 C   0  0  2  0  0  0  0  0  0  0  0  0
   23.8370  -21.4810  -12.6230 N   0  0  0  0  0  0  0  0  0  0  0  0
   26.1632  -21.2557  -12.8315 C   0  0  0  0  0  0  0  0  0  0  0  0
   27.2567  -21.0252  -13.4222 O   0  0  0  0  0  0  0  0  0  0  0  0
   26.1113  -21.2792  -11.4147 N   0  0  0  0  0  0  0  0  0  0  0  0
   27.2910  -20.9122  -10.6564 C   0  0  0  0  0  0  0  0  0  0  0  0
   26.9729  -20.8675   -9.2029 C   0  0  0  0  0  0  0  0  0  0  0  0
   25.7845  -21.0338   -8.8060 O   0  0  0  0  0  0  0  0  0  0  0  0
   28.0035  -20.6371   -8.2516 N   0  0  0  0  0  0  0  0  0  0  0  0
   29.4317  -20.5836   -8.6093 C   0  0  0  0  0  0  0  0  0  0  0  0
   30.1167  -20.8866   -7.2629 C   0  0  0  0  0  0  0  0  0  0  0  0
   29.2175  -20.0817   -6.3547 C   0  0  0  0  0  0  0  0  0  0  0  0
   27.8398  -20.4403   -6.8301 C   0  0  1  0  0  0  0  0  0  0  0  0
   26.8498  -19.3891   -6.5195 C   0  0  0  0  0  0  0  0  0  0  0  0
   26.6435  -18.4863   -7.3590 O   0  0  0  0  0  0  0  0  0  0  0  0
   26.1393  -19.3630   -5.3336 O   0  0  0  0  0  0  0  0  0  0  0  0
  2  1  1  0
  3  2  2  0
  4  5  1  0
  4  2  1  0
  5  6  1  1
  7  5  1  0
  7  8  2  0
  9  7  1  0
 10  9  1  0
 11 10  1  0
 12 11  2  0
 13 17  1  0
 13 11  1  0
 14 13  1  0
 15 14  1  0
 15 16  1  0
 16 17  1  0
 17 18  1  6
 18 19  2  0
 18 20  1  0
M  END
$$$$
