NGP.pdb
     RDKit          3D

 20 20  0  0  1  0  0  0  0  0999 V2000
   24.7645  -21.0096   -8.4047 N   0  0  0  0  0  0  0  0  0  0  0  0
   25.5884  -20.3555   -9.3876 C   0  0  0  0  0  0  0  0  0  0  0  0
   25.7982  -19.1399   -9.2392 O   0  0  0  0  0  0  0  0  0  0  0  0
   26.1090  -21.1820  -10.4797 C   0  0  0  0  0  0  0  0  0  0  0  0
   25.7320  -20.6540  -11.8431 C   0  0  2  0  0  0  0  0  0  0  0  0
   24.2632  -20.7291  -11.9774 N   0  0  0  0  0  0  0  0  0  0  0  0
   26.2599  -21.5674  -12.8805 C   0  0  0  0  0  0  0  0  0  0  0  0
   26.0416  -22.8102  -12.8044 O   0  0  0  0  0  0  0  0  0  0  0  0
   27.0119  -21.0424  -13.9618 N   0  0  0  0  0  0  0  0  0  0  0  0
   27.3978  -19.6451  -13.9439 C   0  0  0  0  0  0  0  0  0  0  0  0
   26.6285  -18.8874  -14.9685 C   0  0  0  0  0  0  0  0  0  0  0  0
   25.3782  -18.7457  -14.8496 O   0  0  0  0  0  0  0  0  0  0  0  0
   27.2947  -18.3183  -16.0876 N   0  0  0  0  0  0  0  0  0  0  0  0
   28.7426  -18.4603  -16.3199 C   0  0  0  0  0  0  0  0  0  0  0  0
   29.0425  -17.2674  -17.2478 C   0  0  0  0  0  0  0  0  0  0  0  0
   27.8138  -17.3352  -18.1235 C   0  0  0  0  0  0  0  0  0  0  0  0
   26.6989  -17.5240  -17.1365 C   0  0  1  0  0  0  0  0  0  0  0  0
   25.5230  -18.1830  -17.7404 C   0  0  0  0  0  0  0  0  0  0  0  0
   25.4525  -19.4307  -17.7195 O   0  0  0  0  0  0  0  0  0  0  0  0
   24.4932  -17.4731  -18.3300 O   0  0  0  0  0  0  0  0  0  0  0  0
  2  1  1  0
  3  2  2  0
  4  5  1  0
  4  2  1  0
  5  6  1  1
  7  5  1  0
  7  8  2  0
  9  7  1  0
 10  9  1  0
 11 10  1  0
 12 11  2  0
 13 17  1  0
 13 11  1  0
 14 13  1  0
 15 14  1  0
 15 16  1  0
 16 17  1  0
 17 18  1  6
 18 19  2  0
 18 20  1  0
M  END
$$$$
