NGP.pdb
     RDKit          3D

 20 20  0  0  1  0  0  0  0  0999 V2000
   23.3810  -21.0568   -7.2933 N   0  0  0  0  0  0  0  0  0  0  0  0
   23.0789  -21.4408   -8.6477 C   0  0  0  0  0  0  0  0  0  0  0  0
   21.9103  -21.7809   -8.8976 O   0  0  0  0  0  0  0  0  0  0  0  0
   24.1780  -21.3969   -9.6155 C   0  0  0  0  0  0  0  0  0  0  0  0
   23.8391  -20.5949  -10.8490 C   0  0  2  0  0  0  0  0  0  0  0  0
   22.8809  -21.3750  -11.6580 N   0  0  0  0  0  0  0  0  0  0  0  0
   25.0465  -20.4726  -11.6955 C   0  0  0  0  0  0  0  0  0  0  0  0
   26.0228  -19.7670  -11.3127 O   0  0  0  0  0  0  0  0  0  0  0  0
   25.1039  -21.1515  -12.9390 N   0  0  0  0  0  0  0  0  0  0  0  0
   26.2245  -20.9107  -13.8266 C   0  0  0  0  0  0  0  0  0  0  0  0
   25.9531  -19.7254  -14.6852 C   0  0  0  0  0  0  0  0  0  0  0  0
   24.8224  -19.1616  -14.6530 O   0  0  0  0  0  0  0  0  0  0  0  0
   26.9638  -19.2197  -15.5472 N   0  0  0  0  0  0  0  0  0  0  0  0
   28.3544  -19.7059  -15.5289 C   0  0  0  0  0  0  0  0  0  0  0  0
   29.1193  -18.5301  -16.1663 C   0  0  0  0  0  0  0  0  0  0  0  0
   28.1338  -18.1689  -17.2523 C   0  0  0  0  0  0  0  0  0  0  0  0
   26.8150  -18.1772  -16.5356 C   0  0  1  0  0  0  0  0  0  0  0  0
   25.6830  -18.4286  -17.4505 C   0  0  0  0  0  0  0  0  0  0  0  0
   25.3120  -19.6065  -17.6432 O   0  0  0  0  0  0  0  0  0  0  0  0
   25.0146  -17.4103  -18.1048 O   0  0  0  0  0  0  0  0  0  0  0  0
  2  1  1  0
  3  2  2  0
  4  5  1  0
  4  2  1  0
  5  6  1  6
  7  5  1  0
  7  8  2  0
  9  7  1  0
 10  9  1  0
 11 10  1  0
 12 11  2  0
 13 17  1  0
 13 11  1  0
 14 13  1  0
 15 14  1  0
 15 16  1  0
 16 17  1  0
 17 18  1  6
 18 19  2  0
 18 20  1  0
M  END
$$$$
