NGP.pdb
     RDKit          3D

 20 20  0  0  1  0  0  0  0  0999 V2000
   16.9829  -14.6241  -15.4529 N   0  0  0  0  0  0  0  0  0  0  0  0
   17.9179  -14.3783  -16.5198 C   0  0  0  0  0  0  0  0  0  0  0  0
   18.1896  -15.3296  -17.2714 O   0  0  0  0  0  0  0  0  0  0  0  0
   18.4688  -13.0249  -16.6266 C   0  0  0  0  0  0  0  0  0  0  0  0
   19.9014  -13.0128  -17.1034 C   0  0  2  0  0  0  0  0  0  0  0  0
   20.7765  -13.2721  -15.9423 N   0  0  0  0  0  0  0  0  0  0  0  0
   20.2524  -11.6472  -17.5518 C   0  0  0  0  0  0  0  0  0  0  0  0
   20.1046  -11.3179  -18.7633 O   0  0  0  0  0  0  0  0  0  0  0  0
   20.7551  -10.7082  -16.6158 N   0  0  0  0  0  0  0  0  0  0  0  0
   21.0949   -9.3725  -17.0651 C   0  0  0  0  0  0  0  0  0  0  0  0
   21.6087   -8.5636  -15.9260 C   0  0  0  0  0  0  0  0  0  0  0  0
   21.5893   -9.0324  -14.7524 O   0  0  0  0  0  0  0  0  0  0  0  0
   22.1247   -7.2584  -16.1504 N   0  0  0  0  0  0  0  0  0  0  0  0
   22.2633   -6.6677  -17.4930 C   0  0  0  0  0  0  0  0  0  0  0  0
   23.3316   -5.5815  -17.2626 C   0  0  0  0  0  0  0  0  0  0  0  0
   22.8635   -5.0717  -15.9202 C   0  0  0  0  0  0  0  0  0  0  0  0
   22.5967   -6.3312  -15.1487 C   0  0  1  0  0  0  0  0  0  0  0  0
   21.6132   -6.1260  -14.0660 C   0  0  0  0  0  0  0  0  0  0  0  0
   20.3945   -6.1761  -14.3393 O   0  0  0  0  0  0  0  0  0  0  0  0
   21.9870   -5.8798  -12.7578 O   0  0  0  0  0  0  0  0  0  0  0  0
  2  1  1  0
  3  2  2  0
  4  5  1  0
  4  2  1  0
  5  6  1  1
  7  5  1  0
  7  8  2  0
  9  7  1  0
 10  9  1  0
 11 10  1  0
 12 11  2  0
 13 17  1  0
 13 11  1  0
 14 13  1  0
 15 14  1  0
 15 16  1  0
 16 17  1  0
 17 18  1  1
 18 19  2  0
 18 20  1  0
M  END
$$$$
