NGP.pdb
     RDKit          3D

 20 20  0  0  1  0  0  0  0  0999 V2000
   30.2640  -18.7732  -19.9346 N   0  0  0  0  0  0  0  0  0  0  0  0
   29.1250  -18.0654  -19.4106 C   0  0  0  0  0  0  0  0  0  0  0  0
   28.4197  -17.4398  -20.2199 O   0  0  0  0  0  0  0  0  0  0  0  0
   28.8962  -18.1445  -17.9656 C   0  0  0  0  0  0  0  0  0  0  0  0
   27.6742  -18.9572  -17.6109 C   0  0  2  0  0  0  0  0  0  0  0  0
   26.4790  -18.1258  -17.8587 N   0  0  0  0  0  0  0  0  0  0  0  0
   27.6681  -19.2141  -16.1538 C   0  0  0  0  0  0  0  0  0  0  0  0
   28.3952  -20.1257  -15.6657 O   0  0  0  0  0  0  0  0  0  0  0  0
   26.8430  -18.4322  -15.3062 N   0  0  0  0  0  0  0  0  0  0  0  0
   26.8362  -18.6991  -13.8814 C   0  0  0  0  0  0  0  0  0  0  0  0
   25.8297  -19.7481  -13.5610 C   0  0  0  0  0  0  0  0  0  0  0  0
   25.0564  -20.1842  -14.4606 O   0  0  0  0  0  0  0  0  0  0  0  0
   25.7314  -20.2661  -12.2411 N   0  0  0  0  0  0  0  0  0  0  0  0
   26.6863  -19.9290  -11.1710 C   0  0  0  0  0  0  0  0  0  0  0  0
   26.5110  -21.1075  -10.1942 C   0  0  0  0  0  0  0  0  0  0  0  0
   25.0100  -21.2563  -10.2714 C   0  0  0  0  0  0  0  0  0  0  0  0
   24.7332  -21.1845  -11.7448 C   0  0  1  0  0  0  0  0  0  0  0  0
   23.3583  -20.7289  -12.0340 C   0  0  0  0  0  0  0  0  0  0  0  0
   22.4363  -21.5723  -12.0652 O   0  0  0  0  0  0  0  0  0  0  0  0
   23.0485  -19.4026  -12.2725 O   0  0  0  0  0  0  0  0  0  0  0  0
  2  1  1  0
  3  2  2  0
  4  5  1  0
  4  2  1  0
  5  6  1  1
  7  5  1  0
  7  8  2  0
  9  7  1  0
 10  9  1  0
 11 10  1  0
 12 11  2  0
 13 17  1  0
 13 11  1  0
 14 13  1  0
 15 14  1  0
 15 16  1  0
 16 17  1  0
 17 18  1  1
 18 19  2  0
 18 20  1  0
M  END
$$$$
