NGP.pdb
     RDKit          3D

 20 20  0  0  1  0  0  0  0  0999 V2000
   26.2649  -19.1664  -17.9057 N   0  0  0  0  0  0  0  0  0  0  0  0
   25.0602  -18.5904  -17.3675 C   0  0  0  0  0  0  0  0  0  0  0  0
   24.3595  -17.9106  -18.1361 O   0  0  0  0  0  0  0  0  0  0  0  0
   24.7648  -18.8562  -15.9573 C   0  0  0  0  0  0  0  0  0  0  0  0
   25.8338  -19.6811  -15.2815 C   0  0  2  0  0  0  0  0  0  0  0  0
   25.2908  -21.0334  -15.0417 N   0  0  0  0  0  0  0  0  0  0  0  0
   26.0952  -19.1275  -13.9345 C   0  0  0  0  0  0  0  0  0  0  0  0
   26.5043  -17.9386  -13.8039 O   0  0  0  0  0  0  0  0  0  0  0  0
   25.8840  -19.9367  -12.7895 N   0  0  0  0  0  0  0  0  0  0  0  0
   26.1362  -19.3826  -11.4739 C   0  0  0  0  0  0  0  0  0  0  0  0
   25.8253  -20.3913  -10.4244 C   0  0  0  0  0  0  0  0  0  0  0  0
   25.2540  -21.4757  -10.7330 O   0  0  0  0  0  0  0  0  0  0  0  0
   26.1686  -20.1418   -9.0679 N   0  0  0  0  0  0  0  0  0  0  0  0
   26.9451  -18.9661   -8.6375 C   0  0  0  0  0  0  0  0  0  0  0  0
   27.5151  -19.4297   -7.2832 C   0  0  0  0  0  0  0  0  0  0  0  0
   26.3010  -20.1542   -6.7521 C   0  0  0  0  0  0  0  0  0  0  0  0
   25.8451  -20.9678   -7.9281 C   0  0  1  0  0  0  0  0  0  0  0  0
   24.4055  -21.2913   -7.8600 C   0  0  0  0  0  0  0  0  0  0  0  0
   23.5974  -20.5899   -8.5059 O   0  0  0  0  0  0  0  0  0  0  0  0
   23.9137  -22.3423   -7.1080 O   0  0  0  0  0  0  0  0  0  0  0  0
  2  1  1  0
  3  2  2  0
  4  5  1  0
  4  2  1  0
  5  6  1  1
  7  5  1  0
  7  8  2  0
  9  7  1  0
 10  9  1  0
 11 10  1  0
 12 11  2  0
 13 17  1  0
 13 11  1  0
 14 13  1  0
 15 14  1  0
 15 16  1  0
 16 17  1  0
 17 18  1  1
 18 19  2  0
 18 20  1  0
M  END
$$$$
