YHI.pdb
     RDKit          3D

 31 32  0  0  1  0  0  0  0  0999 V2000
   15.7651  -15.9350  -16.1138 O   0  0  0  0  0  0  0  0  0  0  0  0
   16.7563  -16.7791  -15.6232 C   0  0  0  0  0  0  0  0  0  0  0  0
   17.9920  -16.8628  -16.2337 C   0  0  0  0  0  0  0  0  0  0  0  0
   18.9655  -17.7032  -15.7374 C   0  0  0  0  0  0  0  0  0  0  0  0
   18.7561  -18.4901  -14.6229 C   0  0  0  0  0  0  0  0  0  0  0  0
   19.8198  -19.3918  -14.1015 C   0  0  0  0  0  0  0  0  0  0  0  0
   20.1501  -20.4286  -15.1541 C   0  0  2  0  0  0  0  0  0  0  0  0
   19.1970  -21.5200  -15.1388 N   0  0  0  0  0  0  0  0  0  0  0  0
   21.5438  -20.9218  -14.9642 C   0  0  0  0  0  0  0  0  0  0  0  0
   21.8665  -21.7367  -14.0889 O   0  0  0  0  0  0  0  0  0  0  0  0
   17.5214  -18.4071  -14.0120 C   0  0  0  0  0  0  0  0  0  0  0  0
   16.5363  -17.5579  -14.5127 C   0  0  0  0  0  0  0  0  0  0  0  0
   22.5511  -20.4299  -15.8340 N   0  0  0  0  0  0  0  0  0  0  0  0
   23.9252  -20.7513  -15.8431 C   0  0  1  0  0  0  0  0  0  0  0  0
   24.6340  -20.7067  -17.1821 C   0  0  0  0  0  0  0  0  0  0  0  0
   26.0698  -21.0588  -17.0740 C   0  0  0  0  0  0  0  0  0  0  0  0
   26.7776  -21.7793  -16.1604 C   0  0  0  0  0  0  0  0  0  0  0  0
   28.0968  -21.8476  -16.4918 N   0  0  0  0  0  0  0  0  0  0  0  0
   28.2210  -21.1603  -17.6309 C   0  0  0  0  0  0  0  0  0  0  0  0
   27.0247  -20.6832  -17.9933 N   0  0  0  0  0  0  0  0  0  0  0  0
   24.6804  -20.1633  -14.7325 C   0  0  0  0  0  0  0  0  0  0  0  0
   24.5223  -18.9054  -14.5659 O   0  0  0  0  0  0  0  0  0  0  0  0
   26.5166  -20.8070   -8.9805 C   0  0  0  0  0  0  0  0  0  0  0  0
   26.6097  -20.0730  -10.3080 C   0  0  0  0  0  0  0  0  0  0  0  0
   25.9486  -20.8489  -11.4170 C   0  0  2  0  0  0  0  0  0  0  0  0
   26.5378  -22.2738  -11.3389 C   0  0  0  0  0  0  0  0  0  0  0  0
   26.2942  -20.3235  -12.7985 C   0  0  2  0  0  0  0  0  0  0  0  0
   25.5291  -20.8562  -13.8751 N   0  0  0  0  0  0  0  0  0  0  0  0
   27.7332  -20.2561  -13.0667 C   0  0  0  0  0  0  0  0  0  0  0  0
   28.2283  -21.0747  -13.9169 O   0  0  0  0  0  0  0  0  0  0  0  0
   28.6366  -19.3875  -12.4919 O   0  0  0  0  0  0  0  0  0  0  0  0
  2  1  1  0
  3  2  2  0
  4  3  1  0
  5  4  2  0
  5 11  1  0
  6  5  1  0
  7  6  1  0
  7  8  1  1
  9 10  2  0
  9  7  1  0
 11 12  2  0
 12  2  1  0
 13  9  1  0
 14 13  1  0
 14 15  1  6
 16 15  1  0
 16 17  2  0
 18 17  1  0
 19 18  1  0
 20 19  2  0
 20 16  1  0
 21 14  1  0
 22 21  2  0
 23 24  1  0
 25 26  1  6
 25 24  1  0
 25 27  1  0
 27 28  1  6
 28 21  1  0
 29 27  1  0
 29 31  1  0
 30 29  2  0
M  END
$$$$
