YHI.pdb
     RDKit          3D

 31 32  0  0  1  0  0  0  0  0999 V2000
   15.7991  -29.0701    2.1852 O   0  0  0  0  0  0  0  0  0  0  0  0
   15.9190  -27.6869    2.2754 C   0  0  0  0  0  0  0  0  0  0  0  0
   16.5616  -26.9585    1.2940 C   0  0  0  0  0  0  0  0  0  0  0  0
   16.6735  -25.5884    1.3955 C   0  0  0  0  0  0  0  0  0  0  0  0
   16.1566  -24.8880    2.4668 C   0  0  0  0  0  0  0  0  0  0  0  0
   16.2873  -23.4078    2.5590 C   0  0  0  0  0  0  0  0  0  0  0  0
   14.9848  -22.7678    2.1282 C   0  0  2  0  0  0  0  0  0  0  0  0
   14.7084  -23.0216    0.7285 N   0  0  0  0  0  0  0  0  0  0  0  0
   15.0138  -21.3063    2.4199 C   0  0  0  0  0  0  0  0  0  0  0  0
   15.6142  -20.4816    1.7171 O   0  0  0  0  0  0  0  0  0  0  0  0
   15.5142  -25.6150    3.4481 C   0  0  0  0  0  0  0  0  0  0  0  0
   15.4004  -27.0003    3.3467 C   0  0  0  0  0  0  0  0  0  0  0  0
   14.3159  -20.8390    3.5633 N   0  0  0  0  0  0  0  0  0  0  0  0
   14.1497  -19.5062    3.9963 C   0  0  1  0  0  0  0  0  0  0  0  0
   13.0349  -19.2381    4.9877 C   0  0  0  0  0  0  0  0  0  0  0  0
   12.8125  -17.7896    5.2107 C   0  0  0  0  0  0  0  0  0  0  0  0
   13.3501  -16.6747    4.6426 C   0  0  0  0  0  0  0  0  0  0  0  0
   12.8163  -15.5383    5.1703 N   0  0  0  0  0  0  0  0  0  0  0  0
   11.9294  -15.9441    6.0836 C   0  0  0  0  0  0  0  0  0  0  0  0
   11.9130  -17.2814    6.1220 N   0  0  0  0  0  0  0  0  0  0  0  0
   15.4089  -18.8160    4.2919 C   0  0  0  0  0  0  0  0  0  0  0  0
   16.2849  -19.5124    4.9105 O   0  0  0  0  0  0  0  0  0  0  0  0
   18.6394  -16.0736    0.9252 C   0  0  0  0  0  0  0  0  0  0  0  0
   18.1097  -16.8805    2.0991 C   0  0  0  0  0  0  0  0  0  0  0  0
   17.5278  -15.9898    3.1654 C   0  0  2  0  0  0  0  0  0  0  0  0
   18.7279  -15.2434    3.7871 C   0  0  0  0  0  0  0  0  0  0  0  0
   16.8785  -16.7640    4.2981 C   0  0  2  0  0  0  0  0  0  0  0  0
   15.7074  -17.4990    3.9569 N   0  0  0  0  0  0  0  0  0  0  0  0
   16.7634  -16.0066    5.5473 C   0  0  0  0  0  0  0  0  0  0  0  0
   17.6948  -16.1295    6.4164 O   0  0  0  0  0  0  0  0  0  0  0  0
   15.7385  -15.1545    5.9002 O   0  0  0  0  0  0  0  0  0  0  0  0
  2  1  1  0
  3  2  2  0
  4  3  1  0
  5  4  2  0
  5 11  1  0
  6  5  1  0
  7  6  1  0
  7  8  1  6
  9 10  2  0
  9  7  1  0
 11 12  2  0
 12  2  1  0
 13  9  1  0
 14 13  1  0
 14 15  1  1
 16 15  1  0
 16 17  2  0
 18 17  1  0
 19 18  1  0
 20 19  2  0
 20 16  1  0
 21 14  1  0
 22 21  2  0
 23 24  1  0
 25 26  1  1
 25 24  1  0
 25 27  1  0
 27 28  1  6
 28 21  1  0
 29 27  1  0
 29 31  1  0
 30 29  2  0
M  END
$$$$
