YHI.pdb
     RDKit          3D

 31 32  0  0  1  0  0  0  0  0999 V2000
   21.9432  -11.9399  -25.2148 O   0  0  0  0  0  0  0  0  0  0  0  0
   21.1516  -11.3135  -24.2573 C   0  0  0  0  0  0  0  0  0  0  0  0
   21.6301  -11.0608  -22.9869 C   0  0  0  0  0  0  0  0  0  0  0  0
   20.8354  -10.4394  -22.0475 C   0  0  0  0  0  0  0  0  0  0  0  0
   19.5422  -10.0453  -22.3263 C   0  0  0  0  0  0  0  0  0  0  0  0
   18.6989   -9.3754  -21.2985 C   0  0  0  0  0  0  0  0  0  0  0  0
   18.3466  -10.3757  -20.2181 C   0  0  2  0  0  0  0  0  0  0  0  0
   17.5582  -11.4702  -20.7475 N   0  0  0  0  0  0  0  0  0  0  0  0
   17.6410   -9.6897  -19.0986 C   0  0  0  0  0  0  0  0  0  0  0  0
   16.5072   -9.2020  -19.2029 O   0  0  0  0  0  0  0  0  0  0  0  0
   19.0632  -10.2974  -23.5957 C   0  0  0  0  0  0  0  0  0  0  0  0
   19.8656  -10.9256  -24.5464 C   0  0  0  0  0  0  0  0  0  0  0  0
   18.3063   -9.5923  -17.8492 N   0  0  0  0  0  0  0  0  0  0  0  0
   17.8329   -9.0079  -16.6551 C   0  0  1  0  0  0  0  0  0  0  0  0
   17.9174   -9.8482  -15.3965 C   0  0  0  0  0  0  0  0  0  0  0  0
   17.1319  -11.1012  -15.4992 C   0  0  0  0  0  0  0  0  0  0  0  0
   16.4033  -11.6541  -16.5082 C   0  0  0  0  0  0  0  0  0  0  0  0
   15.8606  -12.8467  -16.1368 N   0  0  0  0  0  0  0  0  0  0  0  0
   16.2537  -13.0474  -14.8757 C   0  0  0  0  0  0  0  0  0  0  0  0
   17.0116  -12.0188  -14.4787 N   0  0  0  0  0  0  0  0  0  0  0  0
   18.2284   -7.6069  -16.4817 C   0  0  0  0  0  0  0  0  0  0  0  0
   19.4454   -7.3401  -16.7693 O   0  0  0  0  0  0  0  0  0  0  0  0
   18.6927   -2.5177  -18.6424 C   0  0  0  0  0  0  0  0  0  0  0  0
   18.3183   -3.0928  -17.2864 C   0  0  0  0  0  0  0  0  0  0  0  0
   18.0445   -4.5717  -17.3689 C   0  0  2  0  0  0  0  0  0  0  0  0
   16.7932   -4.7159  -18.2617 C   0  0  0  0  0  0  0  0  0  0  0  0
   17.6808   -5.1849  -16.0289 C   0  0  2  0  0  0  0  0  0  0  0  0
   17.3987   -6.5808  -16.0405 N   0  0  0  0  0  0  0  0  0  0  0  0
   16.7262   -4.3910  -15.2505 C   0  0  0  0  0  0  0  0  0  0  0  0
   15.5192   -4.8083  -15.1678 O   0  0  0  0  0  0  0  0  0  0  0  0
   16.9892   -3.2153  -14.5800 O   0  0  0  0  0  0  0  0  0  0  0  0
  2  1  1  0
  3  2  2  0
  4  3  1  0
  5  4  2  0
  5 11  1  0
  6  5  1  0
  7  6  1  0
  7  8  1  6
  9 10  2  0
  9  7  1  0
 11 12  2  0
 12  2  1  0
 13  9  1  0
 14 13  1  0
 14 15  1  1
 16 15  1  0
 16 17  2  0
 18 17  1  0
 19 18  1  0
 20 19  2  0
 20 16  1  0
 21 14  1  0
 22 21  2  0
 23 24  1  0
 25 26  1  6
 25 24  1  0
 25 27  1  0
 27 28  1  6
 28 21  1  0
 29 27  1  0
 29 31  1  0
 30 29  2  0
M  END
$$$$
