YHI.pdb
     RDKit          3D

 31 32  0  0  1  0  0  0  0  0999 V2000
   27.0565  -32.0946  -18.4674 O   0  0  0  0  0  0  0  0  0  0  0  0
   27.0285  -30.8446  -17.8572 C   0  0  0  0  0  0  0  0  0  0  0  0
   26.0839  -29.8993  -18.2048 C   0  0  0  0  0  0  0  0  0  0  0  0
   26.0671  -28.6645  -17.5923 C   0  0  0  0  0  0  0  0  0  0  0  0
   26.9796  -28.3176  -16.6165 C   0  0  0  0  0  0  0  0  0  0  0  0
   26.9458  -26.9788  -15.9663 C   0  0  0  0  0  0  0  0  0  0  0  0
   27.5098  -25.9494  -16.9224 C   0  0  2  0  0  0  0  0  0  0  0  0
   28.9316  -26.1407  -17.1270 N   0  0  0  0  0  0  0  0  0  0  0  0
   27.2124  -24.5756  -16.4262 C   0  0  0  0  0  0  0  0  0  0  0  0
   27.9949  -23.9181  -15.7265 O   0  0  0  0  0  0  0  0  0  0  0  0
   27.9241  -29.2617  -16.2685 C   0  0  0  0  0  0  0  0  0  0  0  0
   27.9422  -30.5105  -16.8868 C   0  0  0  0  0  0  0  0  0  0  0  0
   25.9665  -23.9939  -16.7760 N   0  0  0  0  0  0  0  0  0  0  0  0
   25.4978  -22.6969  -16.4769 C   0  0  1  0  0  0  0  0  0  0  0  0
   24.7460  -21.9667  -17.5719 C   0  0  0  0  0  0  0  0  0  0  0  0
   24.3723  -20.5873  -17.1785 C   0  0  0  0  0  0  0  0  0  0  0  0
   24.9997  -19.3862  -17.3148 C   0  0  0  0  0  0  0  0  0  0  0  0
   24.2500  -18.3704  -16.8040 N   0  0  0  0  0  0  0  0  0  0  0  0
   23.1343  -18.9405  -16.3397 C   0  0  0  0  0  0  0  0  0  0  0  0
   23.1888  -20.2601  -16.5538 N   0  0  0  0  0  0  0  0  0  0  0  0
   24.9051  -22.5724  -15.1417 C   0  0  0  0  0  0  0  0  0  0  0  0
   24.1343  -23.5307  -14.7915 O   0  0  0  0  0  0  0  0  0  0  0  0
   25.9823  -20.3988   -9.4727 C   0  0  0  0  0  0  0  0  0  0  0  0
   24.9697  -20.8804  -10.4986 C   0  0  0  0  0  0  0  0  0  0  0  0
   25.5997  -21.0632  -11.8545 C   0  0  2  0  0  0  0  0  0  0  0  0
   26.2155  -19.6946  -12.2171 C   0  0  0  0  0  0  0  0  0  0  0  0
   24.5886  -21.3737  -12.9432 C   0  0  2  0  0  0  0  0  0  0  0  0
   25.1163  -21.5187  -14.2580 N   0  0  0  0  0  0  0  0  0  0  0  0
   23.3726  -20.5587  -12.8761 C   0  0  0  0  0  0  0  0  0  0  0  0
   23.1853  -19.6772  -13.7848 O   0  0  0  0  0  0  0  0  0  0  0  0
   22.3824  -20.6372  -11.9199 O   0  0  0  0  0  0  0  0  0  0  0  0
  2  1  1  0
  3  2  2  0
  4  3  1  0
  5  4  2  0
  5 11  1  0
  6  5  1  0
  7  6  1  0
  7  8  1  1
  9 10  2  0
  9  7  1  0
 11 12  2  0
 12  2  1  0
 13  9  1  0
 14 13  1  0
 14 15  1  6
 16 15  1  0
 16 17  2  0
 18 17  1  0
 19 18  1  0
 20 19  2  0
 20 16  1  0
 21 14  1  0
 22 21  2  0
 23 24  1  0
 25 26  1  6
 25 24  1  0
 25 27  1  0
 27 28  1  6
 28 21  1  0
 29 27  1  0
 29 31  1  0
 30 29  2  0
M  END
$$$$
