YHI.pdb
     RDKit          3D

 31 32  0  0  1  0  0  0  0  0999 V2000
   18.1919  -17.8360  -14.4333 O   0  0  0  0  0  0  0  0  0  0  0  0
   19.1699  -18.5341  -13.7319 C   0  0  0  0  0  0  0  0  0  0  0  0
   20.2542  -17.8840  -13.1767 C   0  0  0  0  0  0  0  0  0  0  0  0
   21.2163  -18.5876  -12.4842 C   0  0  0  0  0  0  0  0  0  0  0  0
   21.1441  -19.9555  -12.3143 C   0  0  0  0  0  0  0  0  0  0  0  0
   22.1930  -20.6983  -11.5630 C   0  0  0  0  0  0  0  0  0  0  0  0
   23.3969  -20.8972  -12.4592 C   0  0  2  0  0  0  0  0  0  0  0  0
   23.0838  -21.7578  -13.5822 N   0  0  0  0  0  0  0  0  0  0  0  0
   24.5397  -21.4331  -11.6662 C   0  0  0  0  0  0  0  0  0  0  0  0
   24.6549  -22.6265  -11.3551 O   0  0  0  0  0  0  0  0  0  0  0  0
   20.0607  -20.6061  -12.8688 C   0  0  0  0  0  0  0  0  0  0  0  0
   19.0874  -19.8960  -13.5693 C   0  0  0  0  0  0  0  0  0  0  0  0
   25.5467  -20.5253  -11.2479 N   0  0  0  0  0  0  0  0  0  0  0  0
   26.7482  -20.8132  -10.5658 C   0  0  1  0  0  0  0  0  0  0  0  0
   28.0371  -20.6675  -11.3500 C   0  0  0  0  0  0  0  0  0  0  0  0
   29.2248  -21.0882  -10.5691 C   0  0  0  0  0  0  0  0  0  0  0  0
   29.6505  -22.3002  -10.1167 C   0  0  0  0  0  0  0  0  0  0  0  0
   30.8302  -22.1959   -9.4442 N   0  0  0  0  0  0  0  0  0  0  0  0
   31.1518  -20.8994   -9.4742 C   0  0  0  0  0  0  0  0  0  0  0  0
   30.2079  -20.2239  -10.1397 N   0  0  0  0  0  0  0  0  0  0  0  0
   26.7997  -20.2790   -9.2015 C   0  0  0  0  0  0  0  0  0  0  0  0
   26.1939  -19.1670   -9.0238 O   0  0  0  0  0  0  0  0  0  0  0  0
   30.4900  -22.5463   -5.3996 C   0  0  0  0  0  0  0  0  0  0  0  0
   29.1128  -22.1815   -5.9285 C   0  0  0  0  0  0  0  0  0  0  0  0
   28.9891  -20.7007   -6.1754 C   0  0  2  0  0  0  0  0  0  0  0  0
   28.9769  -20.0438   -4.7783 C   0  0  0  0  0  0  0  0  0  0  0  0
   27.6777  -20.3152   -6.8354 C   0  0  2  0  0  0  0  0  0  0  0  0
   27.4406  -20.8784   -8.1218 N   0  0  0  0  0  0  0  0  0  0  0  0
   27.3624  -18.8871   -6.7433 C   0  0  0  0  0  0  0  0  0  0  0  0
   27.7367  -18.1228   -7.6993 O   0  0  0  0  0  0  0  0  0  0  0  0
   26.6903  -18.2585   -5.7166 O   0  0  0  0  0  0  0  0  0  0  0  0
  2  1  1  0
  3  2  2  0
  4  3  1  0
  5  4  2  0
  5 11  1  0
  6  5  1  0
  7  6  1  0
  7  8  1  6
  9 10  2  0
  9  7  1  0
 11 12  2  0
 12  2  1  0
 13  9  1  0
 14 13  1  0
 14 15  1  6
 16 15  1  0
 16 17  2  0
 18 17  1  0
 19 18  1  0
 20 19  2  0
 20 16  1  0
 21 14  1  0
 22 21  2  0
 23 24  1  0
 25 26  1  1
 25 24  1  0
 25 27  1  0
 27 28  1  6
 28 21  1  0
 29 27  1  0
 29 31  1  0
 30 29  2  0
M  END
$$$$
