YHI.pdb
     RDKit          3D

 31 32  0  0  1  0  0  0  0  0999 V2000
   27.1350  -21.3560  -24.3008 O   0  0  0  0  0  0  0  0  0  0  0  0
   26.8194  -21.2229  -22.9523 C   0  0  0  0  0  0  0  0  0  0  0  0
   25.5935  -20.7316  -22.5492 C   0  0  0  0  0  0  0  0  0  0  0  0
   25.2934  -20.6047  -21.2098 C   0  0  0  0  0  0  0  0  0  0  0  0
   26.1897  -20.9571  -20.2210 C   0  0  0  0  0  0  0  0  0  0  0  0
   25.8476  -20.8128  -18.7793 C   0  0  0  0  0  0  0  0  0  0  0  0
   25.9014  -19.3478  -18.4017 C   0  0  2  0  0  0  0  0  0  0  0  0
   27.2670  -18.8661  -18.3449 N   0  0  0  0  0  0  0  0  0  0  0  0
   25.1938  -19.1283  -17.1082 C   0  0  0  0  0  0  0  0  0  0  0  0
   25.7446  -19.2273  -16.0032 O   0  0  0  0  0  0  0  0  0  0  0  0
   27.4151  -21.4482  -20.6230 C   0  0  0  0  0  0  0  0  0  0  0  0
   27.7199  -21.5770  -21.9768 C   0  0  0  0  0  0  0  0  0  0  0  0
   23.8170  -18.7880  -17.1492 N   0  0  0  0  0  0  0  0  0  0  0  0
   22.9752  -18.4383  -16.0718 C   0  0  1  0  0  0  0  0  0  0  0  0
   21.7073  -17.6785  -16.4070 C   0  0  0  0  0  0  0  0  0  0  0  0
   20.9337  -17.3078  -15.1981 C   0  0  0  0  0  0  0  0  0  0  0  0
   21.1728  -17.4604  -13.8661 C   0  0  0  0  0  0  0  0  0  0  0  0
   20.1629  -16.9407  -13.1146 N   0  0  0  0  0  0  0  0  0  0  0  0
   19.2753  -16.4535  -13.9865 C   0  0  0  0  0  0  0  0  0  0  0  0
   19.7169  -16.6627  -15.2321 N   0  0  0  0  0  0  0  0  0  0  0  0
   22.8038  -19.5053  -15.0810 C   0  0  0  0  0  0  0  0  0  0  0  0
   22.5283  -20.6591  -15.5584 O   0  0  0  0  0  0  0  0  0  0  0  0
   26.1825  -20.7253  -11.0260 C   0  0  0  0  0  0  0  0  0  0  0  0
   25.1395  -20.7664  -12.1305 C   0  0  0  0  0  0  0  0  0  0  0  0
   23.7701  -20.4131  -11.6120 C   0  0  2  0  0  0  0  0  0  0  0  0
   23.3603  -21.5784  -10.6859 C   0  0  0  0  0  0  0  0  0  0  0  0
   22.7181  -20.3512  -12.7045 C   0  0  2  0  0  0  0  0  0  0  0  0
   22.9167  -19.3547  -13.7025 N   0  0  0  0  0  0  0  0  0  0  0  0
   21.3411  -20.4326  -12.2100 C   0  0  0  0  0  0  0  0  0  0  0  0
   20.8121  -19.3757  -11.7189 O   0  0  0  0  0  0  0  0  0  0  0  0
   20.5307  -21.5480  -12.2150 O   0  0  0  0  0  0  0  0  0  0  0  0
  2  1  1  0
  3  2  2  0
  4  3  1  0
  5  4  2  0
  5 11  1  0
  6  5  1  0
  7  6  1  0
  7  8  1  1
  9 10  2  0
  9  7  1  0
 11 12  2  0
 12  2  1  0
 13  9  1  0
 14 13  1  0
 14 15  1  6
 16 15  1  0
 16 17  2  0
 18 17  1  0
 19 18  1  0
 20 19  2  0
 20 16  1  0
 21 14  1  0
 22 21  2  0
 23 24  1  0
 25 26  1  1
 25 24  1  0
 25 27  1  0
 27 28  1  1
 28 21  1  0
 29 27  1  0
 29 31  1  0
 30 29  2  0
M  END
$$$$
