YHI.pdb
     RDKit          3D

 31 32  0  0  1  0  0  0  0  0999 V2000
   23.2980  -21.0939   -7.4690 O   0  0  0  0  0  0  0  0  0  0  0  0
   23.7179  -20.8584   -8.7744 C   0  0  0  0  0  0  0  0  0  0  0  0
   22.8099  -20.6108   -9.7848 C   0  0  0  0  0  0  0  0  0  0  0  0
   23.2392  -20.3790  -11.0740 C   0  0  0  0  0  0  0  0  0  0  0  0
   24.5772  -20.3830  -11.4131 C   0  0  0  0  0  0  0  0  0  0  0  0
   25.0219  -20.1305  -12.8113 C   0  0  0  0  0  0  0  0  0  0  0  0
   24.6793  -21.3331  -13.6647 C   0  0  2  0  0  0  0  0  0  0  0  0
   25.4777  -22.4858  -13.2990 N   0  0  0  0  0  0  0  0  0  0  0  0
   24.8403  -20.9967  -15.1079 C   0  0  0  0  0  0  0  0  0  0  0  0
   25.8915  -21.1766  -15.7379 O   0  0  0  0  0  0  0  0  0  0  0  0
   25.4854  -20.6303  -10.4040 C   0  0  0  0  0  0  0  0  0  0  0  0
   25.0528  -20.8648   -9.1001 C   0  0  0  0  0  0  0  0  0  0  0  0
   23.7285  -20.4415  -15.7926 N   0  0  0  0  0  0  0  0  0  0  0  0
   23.6414  -20.0689  -17.1510 C   0  0  1  0  0  0  0  0  0  0  0  0
   22.2955  -20.2395  -17.8269 C   0  0  0  0  0  0  0  0  0  0  0  0
   22.3291  -19.8571  -19.2587 C   0  0  0  0  0  0  0  0  0  0  0  0
   21.9216  -18.7422  -19.9265 C   0  0  0  0  0  0  0  0  0  0  0  0
   22.1748  -18.8390  -21.2611 N   0  0  0  0  0  0  0  0  0  0  0  0
   22.7503  -20.0322  -21.4358 C   0  0  0  0  0  0  0  0  0  0  0  0
   22.8507  -20.6530  -20.2548 N   0  0  0  0  0  0  0  0  0  0  0  0
   24.3294  -18.8138  -17.4682 C   0  0  0  0  0  0  0  0  0  0  0  0
   24.1068  -17.8464  -16.6620 O   0  0  0  0  0  0  0  0  0  0  0  0
   29.2404  -17.9194  -16.9796 C   0  0  0  0  0  0  0  0  0  0  0  0
   27.7373  -17.8436  -17.1912 C   0  0  0  0  0  0  0  0  0  0  0  0
   27.3963  -17.4673  -18.6093 C   0  0  2  0  0  0  0  0  0  0  0  0
   27.9077  -16.0221  -18.7927 C   0  0  0  0  0  0  0  0  0  0  0  0
   25.9016  -17.4233  -18.8701 C   0  0  2  0  0  0  0  0  0  0  0  0
   25.1800  -18.6086  -18.5500 N   0  0  0  0  0  0  0  0  0  0  0  0
   25.5402  -16.8370  -20.1635 C   0  0  0  0  0  0  0  0  0  0  0  0
   25.6637  -17.5620  -21.2110 O   0  0  0  0  0  0  0  0  0  0  0  0
   25.0698  -15.5600  -20.3843 O   0  0  0  0  0  0  0  0  0  0  0  0
  2  1  1  0
  3  2  2  0
  4  3  1  0
  5  4  2  0
  5 11  1  0
  6  5  1  0
  7  6  1  0
  7  8  1  1
  9 10  2  0
  9  7  1  0
 11 12  2  0
 12  2  1  0
 13  9  1  0
 14 13  1  0
 14 15  1  1
 16 15  1  0
 16 17  2  0
 18 17  1  0
 19 18  1  0
 20 19  2  0
 20 16  1  0
 21 14  1  0
 22 21  2  0
 23 24  1  0
 25 26  1  1
 25 24  1  0
 25 27  1  0
 27 28  1  6
 28 21  1  0
 29 27  1  0
 29 31  1  0
 30 29  2  0
M  END
$$$$
