YHI.pdb
     RDKit          3D

 31 32  0  0  1  0  0  0  0  0999 V2000
   31.0746  -16.6945  -18.7566 O   0  0  0  0  0  0  0  0  0  0  0  0
   29.7987  -16.7568  -18.2053 C   0  0  0  0  0  0  0  0  0  0  0  0
   29.1551  -17.9650  -18.0249 C   0  0  0  0  0  0  0  0  0  0  0  0
   27.8908  -18.0128  -17.4775 C   0  0  0  0  0  0  0  0  0  0  0  0
   27.2166  -16.8728  -17.0889 C   0  0  0  0  0  0  0  0  0  0  0  0
   25.8513  -16.9443  -16.4995 C   0  0  0  0  0  0  0  0  0  0  0  0
   24.9203  -17.6156  -17.4866 C   0  0  2  0  0  0  0  0  0  0  0  0
   24.8169  -16.8563  -18.7165 N   0  0  0  0  0  0  0  0  0  0  0  0
   23.5824  -17.8257  -16.8638 C   0  0  0  0  0  0  0  0  0  0  0  0
   22.8954  -16.9075  -16.3956 O   0  0  0  0  0  0  0  0  0  0  0  0
   27.8591  -15.6648  -17.2689 C   0  0  0  0  0  0  0  0  0  0  0  0
   29.1372  -15.6150  -17.8221 C   0  0  0  0  0  0  0  0  0  0  0  0
   23.0724  -19.1484  -16.8063 N   0  0  0  0  0  0  0  0  0  0  0  0
   21.8227  -19.5778  -16.3108 C   0  0  1  0  0  0  0  0  0  0  0  0
   20.8002  -20.0406  -17.3294 C   0  0  0  0  0  0  0  0  0  0  0  0
   20.2040  -18.9131  -18.0848 C   0  0  0  0  0  0  0  0  0  0  0  0
   20.3414  -17.5616  -17.9879 C   0  0  0  0  0  0  0  0  0  0  0  0
   19.5924  -16.9151  -18.9238 N   0  0  0  0  0  0  0  0  0  0  0  0
   18.9748  -17.8739  -19.6201 C   0  0  0  0  0  0  0  0  0  0  0  0
   19.3266  -19.0703  -19.1352 N   0  0  0  0  0  0  0  0  0  0  0  0
   21.9154  -20.4183  -15.1131 C   0  0  0  0  0  0  0  0  0  0  0  0
   22.6507  -21.4582  -15.2274 O   0  0  0  0  0  0  0  0  0  0  0  0
   23.2274  -20.6022   -9.3252 C   0  0  0  0  0  0  0  0  0  0  0  0
   22.2990  -21.1992  -10.3699 C   0  0  0  0  0  0  0  0  0  0  0  0
   22.1831  -20.3102  -11.5803 C   0  0  2  0  0  0  0  0  0  0  0  0
   21.3865  -19.0723  -11.1147 C   0  0  0  0  0  0  0  0  0  0  0  0
   21.3750  -20.9356  -12.7026 C   0  0  2  0  0  0  0  0  0  0  0  0
   21.2799  -20.1712  -13.9004 N   0  0  0  0  0  0  0  0  0  0  0  0
   20.1037  -21.5198  -12.2664 C   0  0  0  0  0  0  0  0  0  0  0  0
   19.0334  -20.8421  -12.4487 O   0  0  0  0  0  0  0  0  0  0  0  0
   19.9267  -22.7487  -11.6671 O   0  0  0  0  0  0  0  0  0  0  0  0
  2  1  1  0
  3  2  2  0
  4  3  1  0
  5  4  2  0
  5 11  1  0
  6  5  1  0
  7  6  1  0
  7  8  1  6
  9 10  2  0
  9  7  1  0
 11 12  2  0
 12  2  1  0
 13  9  1  0
 14 13  1  0
 14 15  1  6
 16 15  1  0
 16 17  2  0
 18 17  1  0
 19 18  1  0
 20 19  2  0
 20 16  1  0
 21 14  1  0
 22 21  2  0
 23 24  1  0
 25 26  1  1
 25 24  1  0
 25 27  1  0
 27 28  1  6
 28 21  1  0
 29 27  1  0
 29 31  1  0
 30 29  2  0
M  END
$$$$
