YHI.pdb
     RDKit          3D

 31 32  0  0  1  0  0  0  0  0999 V2000
   31.5504  -15.8082  -19.5745 O   0  0  0  0  0  0  0  0  0  0  0  0
   30.5232  -15.9379  -18.6451 C   0  0  0  0  0  0  0  0  0  0  0  0
   30.3869  -17.0818  -17.8837 C   0  0  0  0  0  0  0  0  0  0  0  0
   29.3647  -17.1976  -16.9663 C   0  0  0  0  0  0  0  0  0  0  0  0
   28.4412  -16.1912  -16.7666 C   0  0  0  0  0  0  0  0  0  0  0  0
   27.3437  -16.3346  -15.7710 C   0  0  0  0  0  0  0  0  0  0  0  0
   26.3646  -17.3804  -16.2602 C   0  0  2  0  0  0  0  0  0  0  0  0
   25.6952  -16.9524  -17.4721 N   0  0  0  0  0  0  0  0  0  0  0  0
   25.3852  -17.7049  -15.1844 C   0  0  0  0  0  0  0  0  0  0  0  0
   24.4685  -16.9448  -14.8436 O   0  0  0  0  0  0  0  0  0  0  0  0
   28.5766  -15.0477  -17.5271 C   0  0  0  0  0  0  0  0  0  0  0  0
   29.6097  -14.9293  -18.4550 C   0  0  0  0  0  0  0  0  0  0  0  0
   25.5130  -18.9509  -14.5180 N   0  0  0  0  0  0  0  0  0  0  0  0
   24.6464  -19.5170  -13.5588 C   0  0  1  0  0  0  0  0  0  0  0  0
   23.4457  -20.2804  -14.0810 C   0  0  0  0  0  0  0  0  0  0  0  0
   22.5435  -20.7283  -12.9934 C   0  0  0  0  0  0  0  0  0  0  0  0
   21.5674  -20.0963  -12.2843 C   0  0  0  0  0  0  0  0  0  0  0  0
   20.9875  -20.9319  -11.3786 N   0  0  0  0  0  0  0  0  0  0  0  0
   21.6075  -22.1071  -11.5200 C   0  0  0  0  0  0  0  0  0  0  0  0
   22.5371  -22.0054  -12.4769 N   0  0  0  0  0  0  0  0  0  0  0  0
   25.3393  -20.1606  -12.4384 C   0  0  0  0  0  0  0  0  0  0  0  0
   26.3543  -20.8708  -12.7554 O   0  0  0  0  0  0  0  0  0  0  0  0
   26.9542  -17.8896   -7.7948 C   0  0  0  0  0  0  0  0  0  0  0  0
   26.7675  -18.7571   -9.0286 C   0  0  0  0  0  0  0  0  0  0  0  0
   25.8343  -19.9085   -8.7597 C   0  0  2  0  0  0  0  0  0  0  0  0
   26.5821  -20.8308   -7.7728 C   0  0  0  0  0  0  0  0  0  0  0  0
   25.5540  -20.7476   -9.9931 C   0  0  2  0  0  0  0  0  0  0  0  0
   24.9811  -20.0557  -11.0981 N   0  0  0  0  0  0  0  0  0  0  0  0
   24.9201  -22.0369   -9.7042 C   0  0  0  0  0  0  0  0  0  0  0  0
   23.6600  -22.0539   -9.4806 O   0  0  0  0  0  0  0  0  0  0  0  0
   25.5444  -23.2648   -9.6454 O   0  0  0  0  0  0  0  0  0  0  0  0
  2  1  1  0
  3  2  2  0
  4  3  1  0
  5  4  2  0
  5 11  1  0
  6  5  1  0
  7  6  1  0
  7  8  1  6
  9 10  2  0
  9  7  1  0
 11 12  2  0
 12  2  1  0
 13  9  1  0
 14 13  1  0
 14 15  1  6
 16 15  1  0
 16 17  2  0
 18 17  1  0
 19 18  1  0
 20 19  2  0
 20 16  1  0
 21 14  1  0
 22 21  2  0
 23 24  1  0
 25 26  1  1
 25 24  1  0
 25 27  1  0
 27 28  1  6
 28 21  1  0
 29 27  1  0
 29 31  1  0
 30 29  2  0
M  END
$$$$
