YHI.pdb
     RDKit          3D

 31 32  0  0  1  0  0  0  0  0999 V2000
   15.5161  -15.2800  -13.7680 O   0  0  0  0  0  0  0  0  0  0  0  0
   16.6905  -16.0208  -13.6798 C   0  0  0  0  0  0  0  0  0  0  0  0
   17.7937  -15.7079  -14.4490 C   0  0  0  0  0  0  0  0  0  0  0  0
   18.9513  -16.4500  -14.3519 C   0  0  0  0  0  0  0  0  0  0  0  0
   19.0628  -17.5258  -13.4943 C   0  0  0  0  0  0  0  0  0  0  0  0
   20.3215  -18.3156  -13.4033 C   0  0  0  0  0  0  0  0  0  0  0  0
   20.3900  -19.2747  -14.5726 C   0  0  2  0  0  0  0  0  0  0  0  0
   19.3744  -20.3035  -14.4729 N   0  0  0  0  0  0  0  0  0  0  0  0
   21.7549  -19.8662  -14.6676 C   0  0  0  0  0  0  0  0  0  0  0  0
   22.1486  -20.7940  -13.9476 O   0  0  0  0  0  0  0  0  0  0  0  0
   17.9607  -17.8392  -12.7251 C   0  0  0  0  0  0  0  0  0  0  0  0
   16.7897  -17.0898  -12.8222 C   0  0  0  0  0  0  0  0  0  0  0  0
   22.6471  -19.3359  -15.6350 N   0  0  0  0  0  0  0  0  0  0  0  0
   23.9906  -19.6985  -15.8701 C   0  0  1  0  0  0  0  0  0  0  0  0
   24.5919  -19.2885  -17.1997 C   0  0  0  0  0  0  0  0  0  0  0  0
   25.9776  -19.7863  -17.3713 C   0  0  0  0  0  0  0  0  0  0  0  0
   26.8052  -20.5095  -16.5670 C   0  0  0  0  0  0  0  0  0  0  0  0
   28.0043  -20.7461  -17.1678 N   0  0  0  0  0  0  0  0  0  0  0  0
   27.9301  -20.1634  -18.3679 C   0  0  0  0  0  0  0  0  0  0  0  0
   26.7309  -19.5868  -18.5074 N   0  0  0  0  0  0  0  0  0  0  0  0
   24.8707  -19.4998  -14.7146 C   0  0  0  0  0  0  0  0  0  0  0  0
   24.8262  -18.3374  -14.1837 O   0  0  0  0  0  0  0  0  0  0  0  0
   24.4697  -21.2980  -10.0168 C   0  0  0  0  0  0  0  0  0  0  0  0
   24.8737  -20.5329  -11.2662 C   0  0  0  0  0  0  0  0  0  0  0  0
   26.2117  -20.9893  -11.7863 C   0  0  2  0  0  0  0  0  0  0  0  0
   27.2435  -20.5553  -10.7230 C   0  0  0  0  0  0  0  0  0  0  0  0
   26.6163  -20.2975  -13.0753 C   0  0  2  0  0  0  0  0  0  0  0  0
   25.7229  -20.4569  -14.1729 N   0  0  0  0  0  0  0  0  0  0  0  0
   28.0282  -20.4720  -13.4266 C   0  0  0  0  0  0  0  0  0  0  0  0
   28.3711  -21.5439  -14.0362 O   0  0  0  0  0  0  0  0  0  0  0  0
   29.0547  -19.5887  -13.1679 O   0  0  0  0  0  0  0  0  0  0  0  0
  2  1  1  0
  3  2  2  0
  4  3  1  0
  5  4  2  0
  5 11  1  0
  6  5  1  0
  7  6  1  0
  7  8  1  1
  9 10  2  0
  9  7  1  0
 11 12  2  0
 12  2  1  0
 13  9  1  0
 14 13  1  0
 14 15  1  6
 16 15  1  0
 16 17  2  0
 18 17  1  0
 19 18  1  0
 20 19  2  0
 20 16  1  0
 21 14  1  0
 22 21  2  0
 23 24  1  0
 25 26  1  1
 25 24  1  0
 25 27  1  0
 27 28  1  6
 28 21  1  0
 29 27  1  0
 29 31  1  0
 30 29  2  0
M  END
$$$$
