WMT.pdb
     RDKit          3D

 30 31  0  0  1  0  0  0  0  0999 V2000
    6.1828  -18.5064   24.9251 N   0  0  0  0  0  0  0  0  0  0  0  0
    6.6535  -17.2060   24.5296 C   0  0  1  0  0  0  0  0  0  0  0  0
    7.3232  -16.4496   25.6499 C   0  0  0  0  0  0  0  0  0  0  0  0
    6.5612  -15.2505   26.0487 C   0  0  0  0  0  0  0  0  0  0  0  0
    5.2288  -15.2317   26.3731 C   0  0  0  0  0  0  0  0  0  0  0  0
    4.9220  -13.9622   26.6745 N   0  0  0  0  0  0  0  0  0  0  0  0
    6.0048  -13.1727   26.5550 C   0  0  0  0  0  0  0  0  0  0  0  0
    6.2411  -11.8219   26.7396 C   0  0  0  0  0  0  0  0  0  0  0  0
    7.4861  -11.2824   26.5359 C   0  0  0  0  0  0  0  0  0  0  0  0
    8.5504  -12.0647   26.1395 C   0  0  0  0  0  0  0  0  0  0  0  0
    8.3133  -13.4073   25.9565 C   0  0  0  0  0  0  0  0  0  0  0  0
    7.0748  -13.9818   26.1523 C   0  0  0  0  0  0  0  0  0  0  0  0
    7.6140  -17.2876   23.3974 C   0  0  0  0  0  0  0  0  0  0  0  0
    8.4266  -18.2751   23.3988 O   0  0  0  0  0  0  0  0  0  0  0  0
    8.1442  -11.2989   20.2648 C   0  0  0  0  0  0  0  0  0  0  0  0
    8.7226  -12.9477   19.7351 S   0  0  0  0  0  0  0  0  0  0  0  0
    7.7604  -14.2539   20.5458 C   0  0  0  0  0  0  0  0  0  0  0  0
    8.1515  -15.6163   20.1244 C   0  0  0  0  0  0  0  0  0  0  0  0
    8.5409  -16.5516   21.2304 C   0  0  2  0  0  0  0  0  0  0  0  0
    7.6274  -16.3243   22.3738 N   0  0  0  0  0  0  0  0  0  0  0  0
    9.9346  -16.4496   21.6872 C   0  0  0  0  0  0  0  0  0  0  0  0
   10.3134  -15.3999   22.3378 O   0  0  0  0  0  0  0  0  0  0  0  0
   12.4739  -18.5492   23.9291 C   0  0  0  0  0  0  0  0  0  0  0  0
   13.0104  -18.3536   22.5132 C   0  0  1  0  0  0  0  0  0  0  0  0
   12.6325  -19.5125   21.8223 O   0  0  0  0  0  0  0  0  0  0  0  0
   12.3385  -17.1546   21.9054 C   0  0  2  0  0  0  0  0  0  0  0  0
   10.9741  -17.3832   21.5128 N   0  0  0  0  0  0  0  0  0  0  0  0
   13.1342  -16.6606   20.7502 C   0  0  0  0  0  0  0  0  0  0  0  0
   12.6426  -16.5469   19.5931 O   0  0  0  0  0  0  0  0  0  0  0  0
   14.4673  -16.2987   20.8954 O   0  0  0  0  0  0  0  0  0  0  0  0
  2  1  1  1
  2  3  1  0
  2 13  1  0
  3  4  1  0
  4 12  1  0
  4  5  2  0
  5  6  1  0
  7  6  1  0
  7  8  2  0
  9  8  1  0
 10  9  2  0
 11 12  2  0
 11 10  1  0
 12  7  1  0
 13 14  2  0
 16 15  1  0
 16 17  1  0
 18 17  1  0
 19 18  1  6
 19 21  1  0
 20 13  1  0
 20 19  1  0
 21 22  2  0
 24 23  1  1
 24 26  1  0
 25 24  1  0
 26 28  1  0
 26 27  1  6
 27 21  1  0
 28 29  2  0
 28 30  1  0
M  END
$$$$
