WMT.pdb
     RDKit          3D

 30 31  0  0  1  0  0  0  0  0999 V2000
   10.5199  -15.4590   21.3027 N   0  0  0  0  0  0  0  0  0  0  0  0
    9.3230  -15.2656   22.0766 C   0  0  1  0  0  0  0  0  0  0  0  0
    8.1695  -16.1194   21.6115 C   0  0  0  0  0  0  0  0  0  0  0  0
    7.6576  -15.6977   20.2934 C   0  0  0  0  0  0  0  0  0  0  0  0
    6.9852  -16.5040   19.4110 C   0  0  0  0  0  0  0  0  0  0  0  0
    6.6952  -15.7498   18.3416 N   0  0  0  0  0  0  0  0  0  0  0  0
    7.1557  -14.4966   18.5076 C   0  0  0  0  0  0  0  0  0  0  0  0
    7.1308  -13.3477   17.7369 C   0  0  0  0  0  0  0  0  0  0  0  0
    7.6999  -12.1805   18.1799 C   0  0  0  0  0  0  0  0  0  0  0  0
    8.3188  -12.1064   19.4101 C   0  0  0  0  0  0  0  0  0  0  0  0
    8.3425  -13.2497   20.1747 C   0  0  0  0  0  0  0  0  0  0  0  0
    7.7805  -14.4389   19.7598 C   0  0  0  0  0  0  0  0  0  0  0  0
    9.5467  -15.5491   23.5191 C   0  0  0  0  0  0  0  0  0  0  0  0
   10.6746  -16.0592   23.8399 O   0  0  0  0  0  0  0  0  0  0  0  0
    6.2974  -10.5758   26.5548 C   0  0  0  0  0  0  0  0  0  0  0  0
    6.5172  -12.2684   27.2035 S   0  0  0  0  0  0  0  0  0  0  0  0
    7.7300  -13.1812   26.2109 C   0  0  0  0  0  0  0  0  0  0  0  0
    7.9931  -14.5453   26.7174 C   0  0  0  0  0  0  0  0  0  0  0  0
    8.9560  -15.3637   25.9094 C   0  0  2  0  0  0  0  0  0  0  0  0
    8.5639  -15.2689   24.4844 N   0  0  0  0  0  0  0  0  0  0  0  0
    9.0671  -16.7780   26.2954 C   0  0  0  0  0  0  0  0  0  0  0  0
    8.0300  -17.5429   26.2064 O   0  0  0  0  0  0  0  0  0  0  0  0
   10.6643  -19.6742   24.9105 C   0  0  0  0  0  0  0  0  0  0  0  0
   11.1156  -19.7169   26.3683 C   0  0  1  0  0  0  0  0  0  0  0  0
   12.4107  -19.1822   26.3596 O   0  0  0  0  0  0  0  0  0  0  0  0
   10.2056  -18.8384   27.1797 C   0  0  2  0  0  0  0  0  0  0  0  0
   10.2037  -17.4597   26.7707 N   0  0  0  0  0  0  0  0  0  0  0  0
   10.5488  -18.9503   28.6224 C   0  0  0  0  0  0  0  0  0  0  0  0
   10.8535  -17.9450   29.3223 O   0  0  0  0  0  0  0  0  0  0  0  0
   10.5489  -20.1791   29.2699 O   0  0  0  0  0  0  0  0  0  0  0  0
  2  1  1  6
  2  3  1  0
  2 13  1  0
  3  4  1  0
  4 12  1  0
  4  5  2  0
  5  6  1  0
  7  6  1  0
  7  8  2  0
  9  8  1  0
 10  9  2  0
 11 12  2  0
 11 10  1  0
 12  7  1  0
 13 14  2  0
 16 15  1  0
 16 17  1  0
 18 17  1  0
 19 18  1  1
 19 21  1  0
 20 13  1  0
 20 19  1  0
 21 22  2  0
 24 23  1  6
 24 26  1  0
 25 24  1  0
 26 28  1  0
 26 27  1  6
 27 21  1  0
 28 29  2  0
 28 30  1  0
M  END
$$$$
