WMT.pdb
     RDKit          3D

 30 31  0  0  1  0  0  0  0  0999 V2000
    8.0712  -19.6957   26.6742 N   0  0  0  0  0  0  0  0  0  0  0  0
    8.3704  -18.2974   26.5192 C   0  0  1  0  0  0  0  0  0  0  0  0
    9.8395  -17.9843   26.6592 C   0  0  0  0  0  0  0  0  0  0  0  0
   10.1548  -17.3484   27.9529 C   0  0  0  0  0  0  0  0  0  0  0  0
   10.5977  -18.0073   29.0712 C   0  0  0  0  0  0  0  0  0  0  0  0
   10.7653  -17.0807   30.0252 N   0  0  0  0  0  0  0  0  0  0  0  0
   10.4470  -15.8593   29.5594 C   0  0  0  0  0  0  0  0  0  0  0  0
   10.4381  -14.5884   30.1065 C   0  0  0  0  0  0  0  0  0  0  0  0
   10.0528  -13.4980   29.3683 C   0  0  0  0  0  0  0  0  0  0  0  0
    9.6594  -13.6256   28.0527 C   0  0  0  0  0  0  0  0  0  0  0  0
    9.6689  -14.8899   27.5107 C   0  0  0  0  0  0  0  0  0  0  0  0
   10.0502  -16.0068   28.2243 C   0  0  0  0  0  0  0  0  0  0  0  0
    7.9181  -17.7791   25.2009 C   0  0  0  0  0  0  0  0  0  0  0  0
    7.5632  -18.6456   24.3300 O   0  0  0  0  0  0  0  0  0  0  0  0
    6.3514  -12.3046   26.0962 C   0  0  0  0  0  0  0  0  0  0  0  0
    8.0119  -12.8503   25.5685 S   0  0  0  0  0  0  0  0  0  0  0  0
    7.9546  -13.5456   23.8944 C   0  0  0  0  0  0  0  0  0  0  0  0
    6.8919  -14.5585   23.7174 C   0  0  0  0  0  0  0  0  0  0  0  0
    7.3606  -15.9789   23.6055 C   0  0  2  0  0  0  0  0  0  0  0  0
    7.8822  -16.4010   24.9258 N   0  0  0  0  0  0  0  0  0  0  0  0
    8.3752  -16.2333   22.5723 C   0  0  0  0  0  0  0  0  0  0  0  0
    8.0017  -16.4255   21.3507 O   0  0  0  0  0  0  0  0  0  0  0  0
    9.5841  -15.0032   20.3120 C   0  0  0  0  0  0  0  0  0  0  0  0
   10.9121  -15.6880   20.6255 C   0  0  1  0  0  0  0  0  0  0  0  0
   11.7360  -14.6668   21.1171 O   0  0  0  0  0  0  0  0  0  0  0  0
   10.6816  -16.7179   21.6953 C   0  0  2  0  0  0  0  0  0  0  0  0
    9.7731  -16.2977   22.7278 N   0  0  0  0  0  0  0  0  0  0  0  0
   11.9816  -17.1327   22.2864 C   0  0  0  0  0  0  0  0  0  0  0  0
   12.2305  -17.0124   23.5180 O   0  0  0  0  0  0  0  0  0  0  0  0
   12.9896  -17.6768   21.5008 O   0  0  0  0  0  0  0  0  0  0  0  0
  2  1  1  6
  2  3  1  0
  2 13  1  0
  3  4  1  0
  4 12  1  0
  4  5  2  0
  5  6  1  0
  7  6  1  0
  7  8  2  0
  9  8  1  0
 10  9  2  0
 11 12  2  0
 11 10  1  0
 12  7  1  0
 13 14  2  0
 16 15  1  0
 16 17  1  0
 18 17  1  0
 19 18  1  1
 19 21  1  0
 20 13  1  0
 20 19  1  0
 21 22  2  0
 24 23  1  1
 24 26  1  0
 25 24  1  0
 26 28  1  0
 26 27  1  1
 27 21  1  0
 28 29  2  0
 28 30  1  0
M  END
$$$$
