WMT.pdb
     RDKit          3D

 30 31  0  0  1  0  0  0  0  0999 V2000
    6.1731  -17.6068   25.5203 N   0  0  0  0  0  0  0  0  0  0  0  0
    6.9317  -16.4811   25.0449 C   0  0  1  0  0  0  0  0  0  0  0  0
    8.2005  -16.2458   25.8264 C   0  0  0  0  0  0  0  0  0  0  0  0
    8.0697  -15.1289   26.7818 C   0  0  0  0  0  0  0  0  0  0  0  0
    8.2552  -15.2217   28.1374 C   0  0  0  0  0  0  0  0  0  0  0  0
    8.0453  -13.9975   28.6413 N   0  0  0  0  0  0  0  0  0  0  0  0
    7.7337  -13.1298   27.6615 C   0  0  0  0  0  0  0  0  0  0  0  0
    7.4299  -11.7803   27.6262 C   0  0  0  0  0  0  0  0  0  0  0  0
    7.1449  -11.1452   26.4439 C   0  0  0  0  0  0  0  0  0  0  0  0
    7.1501  -11.8264   25.2448 C   0  0  0  0  0  0  0  0  0  0  0  0
    7.4523  -13.1679   25.2821 C   0  0  0  0  0  0  0  0  0  0  0  0
    7.7433  -13.8369   26.4526 C   0  0  0  0  0  0  0  0  0  0  0  0
    7.3005  -16.6296   23.6119 C   0  0  0  0  0  0  0  0  0  0  0  0
    7.4409  -17.8220   23.1719 O   0  0  0  0  0  0  0  0  0  0  0  0
    6.4351  -12.0918   18.9914 C   0  0  0  0  0  0  0  0  0  0  0  0
    7.8346  -13.0221   18.2775 S   0  0  0  0  0  0  0  0  0  0  0  0
    8.0865  -14.5819   19.1681 C   0  0  0  0  0  0  0  0  0  0  0  0
    7.7663  -14.4915   20.6089 C   0  0  0  0  0  0  0  0  0  0  0  0
    7.9474  -15.7559   21.3950 C   0  0  2  0  0  0  0  0  0  0  0  0
    7.4856  -15.5111   22.7808 N   0  0  0  0  0  0  0  0  0  0  0  0
    9.3141  -16.2973   21.4210 C   0  0  0  0  0  0  0  0  0  0  0  0
   10.1659  -15.8279   22.2713 O   0  0  0  0  0  0  0  0  0  0  0  0
   10.8081  -19.6482   19.1310 C   0  0  0  0  0  0  0  0  0  0  0  0
   11.2501  -19.3501   20.5616 C   0  0  1  0  0  0  0  0  0  0  0  0
   12.5843  -19.7738   20.6214 O   0  0  0  0  0  0  0  0  0  0  0  0
   11.1746  -17.8666   20.7892 C   0  0  2  0  0  0  0  0  0  0  0  0
    9.8596  -17.3123   20.6119 N   0  0  0  0  0  0  0  0  0  0  0  0
   12.1530  -17.1700   19.9122 C   0  0  0  0  0  0  0  0  0  0  0  0
   11.7953  -16.3461   19.0253 O   0  0  0  0  0  0  0  0  0  0  0  0
   13.5179  -17.3977   20.0321 O   0  0  0  0  0  0  0  0  0  0  0  0
  2  1  1  1
  2  3  1  0
  2 13  1  0
  3  4  1  0
  4 12  1  0
  4  5  2  0
  5  6  1  0
  7  6  1  0
  7  8  2  0
  9  8  1  0
 10  9  2  0
 11 12  2  0
 11 10  1  0
 12  7  1  0
 13 14  2  0
 16 15  1  0
 16 17  1  0
 18 17  1  0
 19 18  1  6
 19 21  1  0
 20 13  1  0
 20 19  1  0
 21 22  2  0
 24 23  1  6
 24 26  1  0
 25 24  1  0
 26 28  1  0
 26 27  1  6
 27 21  1  0
 28 29  2  0
 28 30  1  0
M  END
$$$$
