WMT.pdb
     RDKit          3D

 30 31  0  0  1  0  0  0  0  0999 V2000
    6.1648  -18.9636   25.3960 N   0  0  0  0  0  0  0  0  0  0  0  0
    6.6345  -17.6121   25.2487 C   0  0  1  0  0  0  0  0  0  0  0  0
    7.2882  -17.0702   26.4956 C   0  0  0  0  0  0  0  0  0  0  0  0
    7.1788  -15.6017   26.5911 C   0  0  0  0  0  0  0  0  0  0  0  0
    6.1093  -14.8585   26.1614 C   0  0  0  0  0  0  0  0  0  0  0  0
    6.3981  -13.5765   26.4255 N   0  0  0  0  0  0  0  0  0  0  0  0
    7.6077  -13.4739   27.0056 C   0  0  0  0  0  0  0  0  0  0  0  0
    8.3704  -12.4169   27.4699 C   0  0  0  0  0  0  0  0  0  0  0  0
    9.6055  -12.6222   28.0309 C   0  0  0  0  0  0  0  0  0  0  0  0
   10.1352  -13.8896   28.1541 C   0  0  0  0  0  0  0  0  0  0  0  0
    9.3755  -14.9391   27.6919 C   0  0  0  0  0  0  0  0  0  0  0  0
    8.1308  -14.7678   27.1228 C   0  0  0  0  0  0  0  0  0  0  0  0
    7.6083  -17.4848   24.1320 C   0  0  0  0  0  0  0  0  0  0  0  0
    8.3022  -18.5211   23.8494 O   0  0  0  0  0  0  0  0  0  0  0  0
    7.7010  -12.5572   19.3370 C   0  0  0  0  0  0  0  0  0  0  0  0
    8.3921  -12.4447   21.0233 S   0  0  0  0  0  0  0  0  0  0  0  0
    7.9037  -13.8846   22.0120 C   0  0  0  0  0  0  0  0  0  0  0  0
    8.0771  -15.1692   21.3004 C   0  0  0  0  0  0  0  0  0  0  0  0
    8.5134  -16.3273   22.1478 C   0  0  2  0  0  0  0  0  0  0  0  0
    7.7582  -16.2816   23.4210 N   0  0  0  0  0  0  0  0  0  0  0  0
    9.9540  -16.3981   22.4333 C   0  0  0  0  0  0  0  0  0  0  0  0
   10.4404  -15.7123   23.4140 O   0  0  0  0  0  0  0  0  0  0  0  0
   12.2654  -19.0478   23.7249 C   0  0  0  0  0  0  0  0  0  0  0  0
   12.8574  -18.5541   22.4071 C   0  0  1  0  0  0  0  0  0  0  0  0
   12.3855  -19.4532   21.4417 O   0  0  0  0  0  0  0  0  0  0  0  0
   12.3251  -17.1772   22.1263 C   0  0  2  0  0  0  0  0  0  0  0  0
   10.9351  -17.1496   21.7586 N   0  0  0  0  0  0  0  0  0  0  0  0
   13.1512  -16.5194   21.0791 C   0  0  0  0  0  0  0  0  0  0  0  0
   12.6709  -16.1635   19.9673 O   0  0  0  0  0  0  0  0  0  0  0  0
   14.5016  -16.2651   21.2807 O   0  0  0  0  0  0  0  0  0  0  0  0
  2  1  1  1
  2  3  1  0
  2 13  1  0
  3  4  1  0
  4 12  1  0
  4  5  2  0
  5  6  1  0
  7  6  1  0
  7  8  2  0
  9  8  1  0
 10  9  2  0
 11 12  2  0
 11 10  1  0
 12  7  1  0
 13 14  2  0
 16 15  1  0
 16 17  1  0
 18 17  1  0
 19 18  1  6
 19 21  1  0
 20 13  1  0
 20 19  1  0
 21 22  2  0
 24 23  1  1
 24 26  1  0
 25 24  1  0
 26 28  1  0
 26 27  1  6
 27 21  1  0
 28 29  2  0
 28 30  1  0
M  END
$$$$
