WMT.pdb
     RDKit          3D

 30 31  0  0  1  0  0  0  0  0999 V2000
    7.2161  -19.8566   25.8924 N   0  0  0  0  0  0  0  0  0  0  0  0
    7.7557  -18.6052   26.3522 C   0  0  1  0  0  0  0  0  0  0  0  0
    9.2160  -18.6869   26.7219 C   0  0  0  0  0  0  0  0  0  0  0  0
    9.5015  -18.0423   28.0182 C   0  0  0  0  0  0  0  0  0  0  0  0
    9.5649  -18.6887   29.2261 C   0  0  0  0  0  0  0  0  0  0  0  0
    9.8445  -17.7576   30.1489 N   0  0  0  0  0  0  0  0  0  0  0  0
    9.9615  -16.5453   29.5773 C   0  0  0  0  0  0  0  0  0  0  0  0
   10.2334  -15.2747   30.0529 C   0  0  0  0  0  0  0  0  0  0  0  0
   10.2905  -14.1951   29.2081 C   0  0  0  0  0  0  0  0  0  0  0  0
   10.0793  -14.3338   27.8524 C   0  0  0  0  0  0  0  0  0  0  0  0
    9.8091  -15.5978   27.3815 C   0  0  0  0  0  0  0  0  0  0  0  0
    9.7443  -16.7039   28.2028 C   0  0  0  0  0  0  0  0  0  0  0  0
    7.6030  -17.5312   25.3350 C   0  0  0  0  0  0  0  0  0  0  0  0
    7.5227  -17.8997   24.1131 O   0  0  0  0  0  0  0  0  0  0  0  0
    5.7340  -11.5609   26.8165 C   0  0  0  0  0  0  0  0  0  0  0  0
    6.2102  -11.2315   25.0849 S   0  0  0  0  0  0  0  0  0  0  0  0
    6.8340  -12.7402   24.2951 C   0  0  0  0  0  0  0  0  0  0  0  0
    6.9836  -13.8732   25.2335 C   0  0  0  0  0  0  0  0  0  0  0  0
    7.3883  -15.1789   24.6161 C   0  0  2  0  0  0  0  0  0  0  0  0
    7.5493  -16.1749   25.7003 N   0  0  0  0  0  0  0  0  0  0  0  0
    8.6087  -15.1427   23.7970 C   0  0  0  0  0  0  0  0  0  0  0  0
    8.6853  -14.3133   22.8096 O   0  0  0  0  0  0  0  0  0  0  0  0
   12.6202  -15.5944   24.8175 C   0  0  0  0  0  0  0  0  0  0  0  0
   12.1647  -16.4443   23.6339 C   0  0  1  0  0  0  0  0  0  0  0  0
   11.8844  -17.7030   24.1818 O   0  0  0  0  0  0  0  0  0  0  0  0
   10.9100  -15.8440   23.0650 C   0  0  2  0  0  0  0  0  0  0  0  0
    9.7731  -15.9210   23.9422 N   0  0  0  0  0  0  0  0  0  0  0  0
   10.5970  -16.4739   21.7547 C   0  0  0  0  0  0  0  0  0  0  0  0
   11.4211  -16.4850   20.7986 O   0  0  0  0  0  0  0  0  0  0  0  0
    9.3710  -17.0844   21.5231 O   0  0  0  0  0  0  0  0  0  0  0  0
  2  1  1  6
  2  3  1  0
  2 13  1  0
  3  4  1  0
  4 12  1  0
  4  5  2  0
  5  6  1  0
  7  6  1  0
  7  8  2  0
  9  8  1  0
 10  9  2  0
 11 12  2  0
 11 10  1  0
 12  7  1  0
 13 14  2  0
 16 15  1  0
 16 17  1  0
 18 17  1  0
 19 18  1  1
 19 21  1  0
 20 13  1  0
 20 19  1  0
 21 22  2  0
 24 23  1  1
 24 26  1  0
 25 24  1  0
 26 28  1  0
 26 27  1  1
 27 21  1  0
 28 29  2  0
 28 30  1  0
M  END
$$$$
