WMT.pdb
     RDKit          3D

 30 31  0  0  1  0  0  0  0  0999 V2000
    6.3092  -18.4673   24.6327 N   0  0  0  0  0  0  0  0  0  0  0  0
    6.7983  -17.1390   24.3774 C   0  0  1  0  0  0  0  0  0  0  0  0
    7.4568  -16.5063   25.5782 C   0  0  0  0  0  0  0  0  0  0  0  0
    6.6782  -15.3709   26.1094 C   0  0  0  0  0  0  0  0  0  0  0  0
    5.3956  -15.4467   26.5889 C   0  0  0  0  0  0  0  0  0  0  0  0
    5.0523  -14.2091   26.9725 N   0  0  0  0  0  0  0  0  0  0  0  0
    6.0643  -13.3492   26.7566 C   0  0  0  0  0  0  0  0  0  0  0  0
    6.2405  -11.9924   26.9635 C   0  0  0  0  0  0  0  0  0  0  0  0
    7.4179  -11.3690   26.6354 C   0  0  0  0  0  0  0  0  0  0  0  0
    8.4715  -12.0697   26.0869 C   0  0  0  0  0  0  0  0  0  0  0  0
    8.2943  -13.4183   25.8820 C   0  0  0  0  0  0  0  0  0  0  0  0
    7.1244  -14.0759   26.2001 C   0  0  0  0  0  0  0  0  0  0  0  0
    7.7763  -17.1167   23.2574 C   0  0  0  0  0  0  0  0  0  0  0  0
    8.3808  -18.2129   22.9962 O   0  0  0  0  0  0  0  0  0  0  0  0
    8.8290  -11.6851   19.5157 C   0  0  0  0  0  0  0  0  0  0  0  0
    7.2806  -12.6382   19.6825 S   0  0  0  0  0  0  0  0  0  0  0  0
    7.5140  -14.0468   20.8008 C   0  0  0  0  0  0  0  0  0  0  0  0
    8.6871  -14.8788   20.4572 C   0  0  0  0  0  0  0  0  0  0  0  0
    8.9455  -16.0440   21.3657 C   0  0  2  0  0  0  0  0  0  0  0  0
    8.0239  -15.9454   22.5208 N   0  0  0  0  0  0  0  0  0  0  0  0
   10.3274  -16.1777   21.8497 C   0  0  0  0  0  0  0  0  0  0  0  0
   10.8803  -15.1888   22.4702 O   0  0  0  0  0  0  0  0  0  0  0  0
   12.4736  -18.7170   24.1345 C   0  0  0  0  0  0  0  0  0  0  0  0
   13.0320  -18.5923   22.7191 C   0  0  1  0  0  0  0  0  0  0  0  0
   12.4678  -19.6637   22.0143 O   0  0  0  0  0  0  0  0  0  0  0  0
   12.5646  -17.2910   22.1304 C   0  0  2  0  0  0  0  0  0  0  0  0
   11.1826  -17.2901   21.7327 N   0  0  0  0  0  0  0  0  0  0  0  0
   13.4338  -16.9133   20.9843 C   0  0  0  0  0  0  0  0  0  0  0  0
   12.9782  -16.7502   19.8185 O   0  0  0  0  0  0  0  0  0  0  0  0
   14.7995  -16.7211   21.1483 O   0  0  0  0  0  0  0  0  0  0  0  0
  2  1  1  1
  2  3  1  0
  2 13  1  0
  3  4  1  0
  4 12  1  0
  4  5  2  0
  5  6  1  0
  7  6  1  0
  7  8  2  0
  9  8  1  0
 10  9  2  0
 11 12  2  0
 11 10  1  0
 12  7  1  0
 13 14  2  0
 16 15  1  0
 16 17  1  0
 18 17  1  0
 19 18  1  6
 19 21  1  0
 20 13  1  0
 20 19  1  0
 21 22  2  0
 24 23  1  1
 24 26  1  0
 25 24  1  0
 26 28  1  0
 26 27  1  6
 27 21  1  0
 28 29  2  0
 28 30  1  0
M  END
$$$$
