WMT.pdb
     RDKit          3D

 30 31  0  0  1  0  0  0  0  0999 V2000
    7.6746  -17.6533   25.3344 N   0  0  0  0  0  0  0  0  0  0  0  0
    7.6934  -16.4453   24.5538 C   0  0  1  0  0  0  0  0  0  0  0  0
    8.8293  -15.5208   24.9155 C   0  0  0  0  0  0  0  0  0  0  0  0
    8.5491  -14.7423   26.1374 C   0  0  0  0  0  0  0  0  0  0  0  0
    9.0567  -15.0138   27.3822 C   0  0  0  0  0  0  0  0  0  0  0  0
    8.5658  -14.0823   28.2116 N   0  0  0  0  0  0  0  0  0  0  0  0
    7.7667  -13.2294   27.5453 C   0  0  0  0  0  0  0  0  0  0  0  0
    7.0258  -12.1176   27.9055 C   0  0  0  0  0  0  0  0  0  0  0  0
    6.2836  -11.4265   26.9814 C   0  0  0  0  0  0  0  0  0  0  0  0
    6.2469  -11.8123   25.6579 C   0  0  0  0  0  0  0  0  0  0  0  0
    6.9841  -12.9178   25.3019 C   0  0  0  0  0  0  0  0  0  0  0  0
    7.7405  -13.6351   26.2050 C   0  0  0  0  0  0  0  0  0  0  0  0
    7.7849  -16.7308   23.0973 C   0  0  0  0  0  0  0  0  0  0  0  0
    8.0506  -17.9354   22.7600 O   0  0  0  0  0  0  0  0  0  0  0  0
    9.8270  -12.2646   19.4520 C   0  0  0  0  0  0  0  0  0  0  0  0
    8.0700  -12.5927   19.0787 S   0  0  0  0  0  0  0  0  0  0  0  0
    7.3286  -13.6397   20.3606 C   0  0  0  0  0  0  0  0  0  0  0  0
    7.0321  -15.0120   19.8963 C   0  0  0  0  0  0  0  0  0  0  0  0
    7.6360  -16.1177   20.7102 C   0  0  2  0  0  0  0  0  0  0  0  0
    7.5883  -15.7233   22.1369 N   0  0  0  0  0  0  0  0  0  0  0  0
    9.0111  -16.4933   20.3499 C   0  0  0  0  0  0  0  0  0  0  0  0
    9.2188  -17.1926   19.2838 O   0  0  0  0  0  0  0  0  0  0  0  0
   12.0186  -14.4492   19.4922 C   0  0  0  0  0  0  0  0  0  0  0  0
   12.5072  -15.4648   20.5221 C   0  0  1  0  0  0  0  0  0  0  0  0
   12.5309  -14.7639   21.7351 O   0  0  0  0  0  0  0  0  0  0  0  0
   11.5115  -16.5877   20.6003 C   0  0  2  0  0  0  0  0  0  0  0  0
   10.2019  -16.1810   21.0334 N   0  0  0  0  0  0  0  0  0  0  0  0
   12.0353  -17.6678   21.4782 C   0  0  0  0  0  0  0  0  0  0  0  0
   11.4297  -18.0415   22.5207 O   0  0  0  0  0  0  0  0  0  0  0  0
   13.2265  -18.3197   21.1862 O   0  0  0  0  0  0  0  0  0  0  0  0
  2  1  1  1
  2  3  1  0
  2 13  1  0
  3  4  1  0
  4 12  1  0
  4  5  2  0
  5  6  1  0
  7  6  1  0
  7  8  2  0
  9  8  1  0
 10  9  2  0
 11 12  2  0
 11 10  1  0
 12  7  1  0
 13 14  2  0
 16 15  1  0
 16 17  1  0
 18 17  1  0
 19 18  1  6
 19 21  1  0
 20 13  1  0
 20 19  1  0
 21 22  2  0
 24 23  1  6
 24 26  1  0
 25 24  1  0
 26 28  1  0
 26 27  1  1
 27 21  1  0
 28 29  2  0
 28 30  1  0
M  END
$$$$
