WMT.pdb
     RDKit          3D

 30 31  0  0  1  0  0  0  0  0999 V2000
    6.3247  -18.6284   24.2058 N   0  0  0  0  0  0  0  0  0  0  0  0
    6.8355  -17.2984   24.0081 C   0  0  1  0  0  0  0  0  0  0  0  0
    7.5283  -16.7399   25.2263 C   0  0  0  0  0  0  0  0  0  0  0  0
    6.8107  -15.5834   25.7966 C   0  0  0  0  0  0  0  0  0  0  0  0
    5.6106  -15.6446   26.4575 C   0  0  0  0  0  0  0  0  0  0  0  0
    5.3011  -14.3901   26.8140 N   0  0  0  0  0  0  0  0  0  0  0  0
    6.2552  -13.5335   26.4068 C   0  0  0  0  0  0  0  0  0  0  0  0
    6.4324  -12.1649   26.5077 C   0  0  0  0  0  0  0  0  0  0  0  0
    7.5390  -11.5492   25.9797 C   0  0  0  0  0  0  0  0  0  0  0  0
    8.5178  -12.2697   25.3281 C   0  0  0  0  0  0  0  0  0  0  0  0
    8.3398  -13.6301   25.2287 C   0  0  0  0  0  0  0  0  0  0  0  0
    7.2398  -14.2804   25.7478 C   0  0  0  0  0  0  0  0  0  0  0  0
    7.7931  -17.2381   22.8720 C   0  0  0  0  0  0  0  0  0  0  0  0
    8.3819  -18.3279   22.5540 O   0  0  0  0  0  0  0  0  0  0  0  0
    8.4320  -11.6603   20.0825 C   0  0  0  0  0  0  0  0  0  0  0  0
    7.0336  -12.7375   20.5496 S   0  0  0  0  0  0  0  0  0  0  0  0
    7.3409  -14.4469   20.0274 C   0  0  0  0  0  0  0  0  0  0  0  0
    8.7495  -14.8651   20.1925 C   0  0  0  0  0  0  0  0  0  0  0  0
    8.9695  -16.0901   21.0296 C   0  0  2  0  0  0  0  0  0  0  0  0
    8.0389  -16.0392   22.1806 N   0  0  0  0  0  0  0  0  0  0  0  0
   10.3426  -16.2885   21.5164 C   0  0  0  0  0  0  0  0  0  0  0  0
   11.3314  -16.1587   20.6952 O   0  0  0  0  0  0  0  0  0  0  0  0
   11.9106  -15.4678   25.2605 C   0  0  0  0  0  0  0  0  0  0  0  0
   12.3593  -16.8111   24.6904 C   0  0  1  0  0  0  0  0  0  0  0  0
   11.5197  -17.7565   25.2941 O   0  0  0  0  0  0  0  0  0  0  0  0
   12.1339  -16.8027   23.2046 C   0  0  2  0  0  0  0  0  0  0  0  0
   10.7610  -16.6134   22.8209 N   0  0  0  0  0  0  0  0  0  0  0  0
   12.6720  -18.0524   22.6044 C   0  0  0  0  0  0  0  0  0  0  0  0
   11.9524  -18.8396   21.9292 O   0  0  0  0  0  0  0  0  0  0  0  0
   14.0043  -18.4119   22.7619 O   0  0  0  0  0  0  0  0  0  0  0  0
  2  1  1  1
  2  3  1  0
  2 13  1  0
  3  4  1  0
  4 12  1  0
  4  5  2  0
  5  6  1  0
  7  6  1  0
  7  8  2  0
  9  8  1  0
 10  9  2  0
 11 12  2  0
 11 10  1  0
 12  7  1  0
 13 14  2  0
 16 15  1  0
 16 17  1  0
 18 17  1  0
 19 18  1  1
 19 21  1  0
 20 13  1  0
 20 19  1  0
 21 22  2  0
 24 23  1  1
 24 26  1  0
 25 24  1  0
 26 28  1  0
 26 27  1  1
 27 21  1  0
 28 29  2  0
 28 30  1  0
M  END
$$$$
