WMT.pdb
     RDKit          3D

 30 31  0  0  1  0  0  0  0  0999 V2000
    6.3682  -18.6913   26.3043 N   0  0  0  0  0  0  0  0  0  0  0  0
    7.3924  -17.6860   26.2094 C   0  0  1  0  0  0  0  0  0  0  0  0
    8.6918  -18.0974   26.8560 C   0  0  0  0  0  0  0  0  0  0  0  0
    9.0436  -17.2362   28.0014 C   0  0  0  0  0  0  0  0  0  0  0  0
    9.2008  -17.6649   29.2946 C   0  0  0  0  0  0  0  0  0  0  0  0
    9.5155  -16.5855   30.0244 N   0  0  0  0  0  0  0  0  0  0  0  0
    9.5649  -15.4877   29.2482 C   0  0  0  0  0  0  0  0  0  0  0  0
    9.8346  -14.1507   29.4811 C   0  0  0  0  0  0  0  0  0  0  0  0
    9.8100  -13.2313   28.4630 C   0  0  0  0  0  0  0  0  0  0  0  0
    9.5157  -13.6034   27.1681 C   0  0  0  0  0  0  0  0  0  0  0  0
    9.2478  -14.9330   26.9386 C   0  0  0  0  0  0  0  0  0  0  0  0
    9.2639  -15.8828   27.9386 C   0  0  0  0  0  0  0  0  0  0  0  0
    7.6816  -17.3244   24.7962 C   0  0  0  0  0  0  0  0  0  0  0  0
    7.5691  -18.2555   23.9268 O   0  0  0  0  0  0  0  0  0  0  0  0
    6.3115  -12.0359   20.5469 C   0  0  0  0  0  0  0  0  0  0  0  0
    7.0918  -13.6742   20.3440 S   0  0  0  0  0  0  0  0  0  0  0  0
    8.5576  -13.8198   21.4020 C   0  0  0  0  0  0  0  0  0  0  0  0
    8.2463  -14.2747   22.7741 C   0  0  0  0  0  0  0  0  0  0  0  0
    8.3215  -15.7556   23.0002 C   0  0  2  0  0  0  0  0  0  0  0  0
    8.0606  -16.0202   24.4338 N   0  0  0  0  0  0  0  0  0  0  0  0
    9.5849  -16.3951   22.6045 C   0  0  0  0  0  0  0  0  0  0  0  0
   10.6573  -16.1539   23.2832 O   0  0  0  0  0  0  0  0  0  0  0  0
   10.3491  -20.2083   21.1604 C   0  0  0  0  0  0  0  0  0  0  0  0
   11.0097  -19.0898   20.3584 C   0  0  1  0  0  0  0  0  0  0  0  0
   10.1448  -18.8613   19.2800 O   0  0  0  0  0  0  0  0  0  0  0  0
   11.0874  -17.8610   21.2201 C   0  0  2  0  0  0  0  0  0  0  0  0
    9.8083  -17.2850   21.5366 N   0  0  0  0  0  0  0  0  0  0  0  0
   11.9673  -16.8482   20.5785 C   0  0  0  0  0  0  0  0  0  0  0  0
   13.1830  -17.0754   20.3258 O   0  0  0  0  0  0  0  0  0  0  0  0
   11.4847  -15.5947   20.2252 O   0  0  0  0  0  0  0  0  0  0  0  0
  2  1  1  6
  2  3  1  0
  2 13  1  0
  3  4  1  0
  4 12  1  0
  4  5  2  0
  5  6  1  0
  7  6  1  0
  7  8  2  0
  9  8  1  0
 10  9  2  0
 11 12  2  0
 11 10  1  0
 12  7  1  0
 13 14  2  0
 16 15  1  0
 16 17  1  0
 18 17  1  0
 19 18  1  1
 19 21  1  0
 20 13  1  0
 20 19  1  0
 21 22  2  0
 24 23  1  1
 24 26  1  0
 25 24  1  0
 26 28  1  0
 26 27  1  6
 27 21  1  0
 28 29  2  0
 28 30  1  0
M  END
$$$$
