WMT.pdb
     RDKit          3D

 30 31  0  0  1  0  0  0  0  0999 V2000
    5.8379  -17.3308   24.3286 N   0  0  0  0  0  0  0  0  0  0  0  0
    6.9848  -16.5769   23.8984 C   0  0  1  0  0  0  0  0  0  0  0  0
    7.7390  -15.9387   25.0384 C   0  0  0  0  0  0  0  0  0  0  0  0
    6.9391  -14.9109   25.7322 C   0  0  0  0  0  0  0  0  0  0  0  0
    5.6374  -15.0615   26.1369 C   0  0  0  0  0  0  0  0  0  0  0  0
    5.2786  -13.9101   26.7219 N   0  0  0  0  0  0  0  0  0  0  0  0
    6.2989  -13.0333   26.7057 C   0  0  0  0  0  0  0  0  0  0  0  0
    6.4666  -11.7370   27.1598 C   0  0  0  0  0  0  0  0  0  0  0  0
    7.6568  -11.0740   26.9978 C   0  0  0  0  0  0  0  0  0  0  0  0
    8.7324  -11.6731   26.3765 C   0  0  0  0  0  0  0  0  0  0  0  0
    8.5637  -12.9618   25.9257 C   0  0  0  0  0  0  0  0  0  0  0  0
    7.3813  -13.6567   26.0721 C   0  0  0  0  0  0  0  0  0  0  0  0
    7.9428  -17.4182   23.1330 C   0  0  0  0  0  0  0  0  0  0  0  0
    8.8107  -18.0682   23.8109 O   0  0  0  0  0  0  0  0  0  0  0  0
    6.6778  -12.9721   19.2625 C   0  0  0  0  0  0  0  0  0  0  0  0
    8.4351  -12.7770   19.7179 S   0  0  0  0  0  0  0  0  0  0  0  0
    9.2034  -14.3938   20.0098 C   0  0  0  0  0  0  0  0  0  0  0  0
    8.3398  -15.3237   20.7688 C   0  0  0  0  0  0  0  0  0  0  0  0
    8.8893  -16.7052   20.9669 C   0  0  2  0  0  0  0  0  0  0  0  0
    7.8958  -17.4949   21.7302 N   0  0  0  0  0  0  0  0  0  0  0  0
   10.1956  -16.7789   21.6375 C   0  0  0  0  0  0  0  0  0  0  0  0
   10.4088  -16.0623   22.6909 O   0  0  0  0  0  0  0  0  0  0  0  0
   12.6280  -18.7321   23.7960 C   0  0  0  0  0  0  0  0  0  0  0  0
   13.2678  -18.5376   22.4236 C   0  0  1  0  0  0  0  0  0  0  0  0
   12.9410  -19.6964   21.7070 O   0  0  0  0  0  0  0  0  0  0  0  0
   12.6438  -17.3382   21.7675 C   0  0  2  0  0  0  0  0  0  0  0  0
   11.3091  -17.5637   21.2817 N   0  0  0  0  0  0  0  0  0  0  0  0
   13.5194  -16.8499   20.6690 C   0  0  0  0  0  0  0  0  0  0  0  0
   13.1214  -16.7741   19.4735 O   0  0  0  0  0  0  0  0  0  0  0  0
   14.8274  -16.4515   20.9131 O   0  0  0  0  0  0  0  0  0  0  0  0
  2  1  1  1
  2  3  1  0
  2 13  1  0
  3  4  1  0
  4 12  1  0
  4  5  2  0
  5  6  1  0
  7  6  1  0
  7  8  2  0
  9  8  1  0
 10  9  2  0
 11 12  2  0
 11 10  1  0
 12  7  1  0
 13 14  2  0
 16 15  1  0
 16 17  1  0
 18 17  1  0
 19 18  1  1
 19 21  1  0
 20 13  1  0
 20 19  1  0
 21 22  2  0
 24 23  1  1
 24 26  1  0
 25 24  1  0
 26 28  1  0
 26 27  1  6
 27 21  1  0
 28 29  2  0
 28 30  1  0
M  END
$$$$
