WMT.pdb
     RDKit          3D

 30 31  0  0  1  0  0  0  0  0999 V2000
    6.4412  -18.6012   21.8105 N   0  0  0  0  0  0  0  0  0  0  0  0
    7.0278  -17.3292   21.4838 C   0  0  1  0  0  0  0  0  0  0  0  0
    6.1815  -16.5077   20.5432 C   0  0  0  0  0  0  0  0  0  0  0  0
    6.9618  -15.4562   19.8627 C   0  0  0  0  0  0  0  0  0  0  0  0
    7.6754  -15.6256   18.7039 C   0  0  0  0  0  0  0  0  0  0  0  0
    8.2362  -14.4421   18.4185 N   0  0  0  0  0  0  0  0  0  0  0  0
    7.9084  -13.5268   19.3485 C   0  0  0  0  0  0  0  0  0  0  0  0
    8.2065  -12.1884   19.5346 C   0  0  0  0  0  0  0  0  0  0  0  0
    7.7145  -11.4920   20.6095 C   0  0  0  0  0  0  0  0  0  0  0  0
    6.9039  -12.0980   21.5462 C   0  0  0  0  0  0  0  0  0  0  0  0
    6.6088  -13.4286   21.3594 C   0  0  0  0  0  0  0  0  0  0  0  0
    7.0865  -14.1579   20.2908 C   0  0  0  0  0  0  0  0  0  0  0  0
    7.2833  -16.5108   22.6989 C   0  0  0  0  0  0  0  0  0  0  0  0
    7.2643  -15.2403   22.5545 O   0  0  0  0  0  0  0  0  0  0  0  0
    9.1416  -12.0333   26.0189 C   0  0  0  0  0  0  0  0  0  0  0  0
    7.4580  -12.7006   26.2520 S   0  0  0  0  0  0  0  0  0  0  0  0
    7.5206  -14.4683   26.6527 C   0  0  0  0  0  0  0  0  0  0  0  0
    7.0981  -15.3374   25.5334 C   0  0  0  0  0  0  0  0  0  0  0  0
    8.1493  -16.2637   24.9979 C   0  0  2  0  0  0  0  0  0  0  0  0
    7.5336  -17.1066   23.9472 N   0  0  0  0  0  0  0  0  0  0  0  0
    8.8064  -17.1223   25.9942 C   0  0  0  0  0  0  0  0  0  0  0  0
    8.0860  -17.7531   26.8614 O   0  0  0  0  0  0  0  0  0  0  0  0
   11.9159  -19.5039   25.3327 C   0  0  0  0  0  0  0  0  0  0  0  0
   12.0575  -18.8752   26.7167 C   0  0  1  0  0  0  0  0  0  0  0  0
   13.0040  -17.8551   26.5531 O   0  0  0  0  0  0  0  0  0  0  0  0
   10.7341  -18.2850   27.1148 C   0  0  2  0  0  0  0  0  0  0  0  0
   10.1831  -17.3749   26.1472 N   0  0  0  0  0  0  0  0  0  0  0  0
   10.8544  -17.6215   28.4403 C   0  0  0  0  0  0  0  0  0  0  0  0
   10.5502  -16.4092   28.6168 O   0  0  0  0  0  0  0  0  0  0  0  0
   11.3115  -18.3142   29.5540 O   0  0  0  0  0  0  0  0  0  0  0  0
  2  1  1  1
  2  3  1  0
  2 13  1  0
  3  4  1  0
  4 12  1  0
  4  5  2  0
  5  6  1  0
  7  6  1  0
  7  8  2  0
  9  8  1  0
 10  9  2  0
 11 12  2  0
 11 10  1  0
 12  7  1  0
 13 14  2  0
 16 15  1  0
 16 17  1  0
 18 17  1  0
 19 18  1  1
 19 21  1  0
 20 13  1  0
 20 19  1  0
 21 22  2  0
 24 23  1  6
 24 26  1  0
 25 24  1  0
 26 28  1  0
 26 27  1  6
 27 21  1  0
 28 29  2  0
 28 30  1  0
M  END
$$$$
