WMT.pdb
     RDKit          3D

 30 31  0  0  1  0  0  0  0  0999 V2000
    6.4043  -18.5816   23.1792 N   0  0  0  0  0  0  0  0  0  0  0  0
    7.1099  -17.5332   22.4923 C   0  0  1  0  0  0  0  0  0  0  0  0
    6.2008  -16.4515   21.9636 C   0  0  0  0  0  0  0  0  0  0  0  0
    6.9076  -15.5155   21.0681 C   0  0  0  0  0  0  0  0  0  0  0  0
    7.3370  -15.8071   19.7987 C   0  0  0  0  0  0  0  0  0  0  0  0
    7.9271  -14.7002   19.3262 N   0  0  0  0  0  0  0  0  0  0  0  0
    7.8907  -13.7165   20.2433 C   0  0  0  0  0  0  0  0  0  0  0  0
    8.3406  -12.4084   20.2759 C   0  0  0  0  0  0  0  0  0  0  0  0
    8.1559  -11.6191   21.3829 C   0  0  0  0  0  0  0  0  0  0  0  0
    7.5148  -12.0982   22.5060 C   0  0  0  0  0  0  0  0  0  0  0  0
    7.0683  -13.3988   22.4716 C   0  0  0  0  0  0  0  0  0  0  0  0
    7.2375  -14.2190   21.3757 C   0  0  0  0  0  0  0  0  0  0  0  0
    8.1257  -16.8876   23.3655 C   0  0  0  0  0  0  0  0  0  0  0  0
    9.0890  -16.2822   22.7816 O   0  0  0  0  0  0  0  0  0  0  0  0
    7.5842  -12.1538   26.9372 C   0  0  0  0  0  0  0  0  0  0  0  0
    8.7369  -13.0300   28.0495 S   0  0  0  0  0  0  0  0  0  0  0  0
    9.4849  -14.4503   27.2053 C   0  0  0  0  0  0  0  0  0  0  0  0
    8.5706  -15.1108   26.2491 C   0  0  0  0  0  0  0  0  0  0  0  0
    9.1221  -16.3190   25.5519 C   0  0  2  0  0  0  0  0  0  0  0  0
    8.0308  -16.9405   24.7670 N   0  0  0  0  0  0  0  0  0  0  0  0
    9.7372  -17.3300   26.4243 C   0  0  0  0  0  0  0  0  0  0  0  0
    9.0257  -17.8900   27.3456 O   0  0  0  0  0  0  0  0  0  0  0  0
   11.9290  -20.4489   25.4753 C   0  0  0  0  0  0  0  0  0  0  0  0
   12.5858  -19.7307   26.6516 C   0  0  1  0  0  0  0  0  0  0  0  0
   13.6181  -18.9748   26.0805 O   0  0  0  0  0  0  0  0  0  0  0  0
   11.5735  -18.8175   27.2838 C   0  0  2  0  0  0  0  0  0  0  0  0
   11.0618  -17.8067   26.3981 N   0  0  0  0  0  0  0  0  0  0  0  0
   12.1485  -18.1935   28.5051 C   0  0  0  0  0  0  0  0  0  0  0  0
   12.2010  -16.9420   28.6611 O   0  0  0  0  0  0  0  0  0  0  0  0
   12.6582  -18.9686   29.5388 O   0  0  0  0  0  0  0  0  0  0  0  0
  2  1  1  1
  2  3  1  0
  2 13  1  0
  3  4  1  0
  4 12  1  0
  4  5  2  0
  5  6  1  0
  7  6  1  0
  7  8  2  0
  9  8  1  0
 10  9  2  0
 11 12  2  0
 11 10  1  0
 12  7  1  0
 13 14  2  0
 16 15  1  0
 16 17  1  0
 18 17  1  0
 19 18  1  1
 19 21  1  0
 20 13  1  0
 20 19  1  0
 21 22  2  0
 24 23  1  6
 24 26  1  0
 25 24  1  0
 26 28  1  0
 26 27  1  6
 27 21  1  0
 28 29  2  0
 28 30  1  0
M  END
$$$$
