WMT.pdb
     RDKit          3D

 30 31  0  0  1  0  0  0  0  0999 V2000
    8.0612  -18.8351   21.4673 N   0  0  0  0  0  0  0  0  0  0  0  0
    8.3479  -17.4339   21.3150 C   0  0  1  0  0  0  0  0  0  0  0  0
    7.1188  -16.6006   21.0487 C   0  0  0  0  0  0  0  0  0  0  0  0
    7.4552  -15.2293   20.6200 C   0  0  0  0  0  0  0  0  0  0  0  0
    7.7524  -14.8526   19.3353 C   0  0  0  0  0  0  0  0  0  0  0  0
    7.9983  -13.5353   19.3655 N   0  0  0  0  0  0  0  0  0  0  0  0
    7.8697  -13.0587   20.6170 C   0  0  0  0  0  0  0  0  0  0  0  0
    8.0074  -11.8086   21.1941 C   0  0  0  0  0  0  0  0  0  0  0  0
    7.8081  -11.6189   22.5382 C   0  0  0  0  0  0  0  0  0  0  0  0
    7.4629  -12.6660   23.3666 C   0  0  0  0  0  0  0  0  0  0  0  0
    7.3266  -13.9079   22.7910 C   0  0  0  0  0  0  0  0  0  0  0  0
    7.5196  -14.1334   21.4441 C   0  0  0  0  0  0  0  0  0  0  0  0
    9.0252  -16.8755   22.5153 C   0  0  0  0  0  0  0  0  0  0  0  0
   10.2019  -16.4036   22.3478 O   0  0  0  0  0  0  0  0  0  0  0  0
    8.5893  -12.7612   29.0940 C   0  0  0  0  0  0  0  0  0  0  0  0
    7.8121  -13.4465   27.5907 S   0  0  0  0  0  0  0  0  0  0  0  0
    8.8793  -14.7031   26.8349 C   0  0  0  0  0  0  0  0  0  0  0  0
    8.3073  -15.2948   25.6064 C   0  0  0  0  0  0  0  0  0  0  0  0
    9.1653  -16.3127   24.9154 C   0  0  2  0  0  0  0  0  0  0  0  0
    8.4005  -16.8670   23.7746 N   0  0  0  0  0  0  0  0  0  0  0  0
    9.6522  -17.4123   25.7611 C   0  0  0  0  0  0  0  0  0  0  0  0
    8.8205  -18.3099   26.1751 O   0  0  0  0  0  0  0  0  0  0  0  0
   11.8474  -20.1896   25.0265 C   0  0  0  0  0  0  0  0  0  0  0  0
   12.4112  -19.6421   26.3354 C   0  0  1  0  0  0  0  0  0  0  0  0
   13.5032  -18.8516   25.9538 O   0  0  0  0  0  0  0  0  0  0  0  0
   11.3640  -18.7852   26.9892 C   0  0  2  0  0  0  0  0  0  0  0  0
   10.9671  -17.6454   26.2074 N   0  0  0  0  0  0  0  0  0  0  0  0
   11.8306  -18.3542   28.3339 C   0  0  0  0  0  0  0  0  0  0  0  0
   11.8783  -17.1392   28.6728 O   0  0  0  0  0  0  0  0  0  0  0  0
   12.2385  -19.2795   29.2860 O   0  0  0  0  0  0  0  0  0  0  0  0
  2  1  1  1
  2  3  1  0
  2 13  1  0
  3  4  1  0
  4 12  1  0
  4  5  2  0
  5  6  1  0
  7  6  1  0
  7  8  2  0
  9  8  1  0
 10  9  2  0
 11 12  2  0
 11 10  1  0
 12  7  1  0
 13 14  2  0
 16 15  1  0
 16 17  1  0
 18 17  1  0
 19 18  1  1
 19 21  1  0
 20 13  1  0
 20 19  1  0
 21 22  2  0
 24 23  1  6
 24 26  1  0
 25 24  1  0
 26 28  1  0
 26 27  1  6
 27 21  1  0
 28 29  2  0
 28 30  1  0
M  END
$$$$
