WMT.pdb
     RDKit          3D

 30 31  0  0  1  0  0  0  0  0999 V2000
    7.3356  -17.8673   25.8491 N   0  0  0  0  0  0  0  0  0  0  0  0
    7.4727  -16.6701   25.0637 C   0  0  1  0  0  0  0  0  0  0  0  0
    8.7334  -15.8997   25.3684 C   0  0  0  0  0  0  0  0  0  0  0  0
    8.5316  -14.8944   26.4296 C   0  0  0  0  0  0  0  0  0  0  0  0
    9.0507  -14.9669   27.6970 C   0  0  0  0  0  0  0  0  0  0  0  0
    8.6389  -13.8693   28.3470 N   0  0  0  0  0  0  0  0  0  0  0  0
    7.8790  -13.1018   27.5449 C   0  0  0  0  0  0  0  0  0  0  0  0
    7.2177  -11.8967   27.7035 C   0  0  0  0  0  0  0  0  0  0  0  0
    6.4984  -11.3386   26.6770 C   0  0  0  0  0  0  0  0  0  0  0  0
    6.4061  -11.9564   25.4475 C   0  0  0  0  0  0  0  0  0  0  0  0
    7.0641  -13.1543   25.2919 C   0  0  0  0  0  0  0  0  0  0  0  0
    7.7955  -13.7428   26.3024 C   0  0  0  0  0  0  0  0  0  0  0  0
    7.4587  -16.9620   23.6056 C   0  0  0  0  0  0  0  0  0  0  0  0
    7.4511  -18.1940   23.2628 O   0  0  0  0  0  0  0  0  0  0  0  0
    8.4021  -11.2122   19.3183 C   0  0  0  0  0  0  0  0  0  0  0  0
    7.3521  -12.7017   19.2056 S   0  0  0  0  0  0  0  0  0  0  0  0
    7.9815  -14.0115   20.2907 C   0  0  0  0  0  0  0  0  0  0  0  0
    7.0776  -15.1778   20.3855 C   0  0  0  0  0  0  0  0  0  0  0  0
    7.5737  -16.3176   21.2249 C   0  0  2  0  0  0  0  0  0  0  0  0
    7.4539  -15.9314   22.6496 N   0  0  0  0  0  0  0  0  0  0  0  0
    8.9492  -16.7577   20.9491 C   0  0  0  0  0  0  0  0  0  0  0  0
    9.1875  -17.4745   19.9012 O   0  0  0  0  0  0  0  0  0  0  0  0
   11.8607  -15.2074   19.6679 C   0  0  0  0  0  0  0  0  0  0  0  0
   12.3739  -15.8602   20.9490 C   0  0  1  0  0  0  0  0  0  0  0  0
   12.3481  -14.8392   21.9081 O   0  0  0  0  0  0  0  0  0  0  0  0
   11.4246  -16.9562   21.3441 C   0  0  2  0  0  0  0  0  0  0  0  0
   10.1104  -16.4936   21.7003 N   0  0  0  0  0  0  0  0  0  0  0  0
   12.0099  -17.7571   22.4522 C   0  0  0  0  0  0  0  0  0  0  0  0
   11.4007  -17.9461   23.5414 O   0  0  0  0  0  0  0  0  0  0  0  0
   13.2659  -18.3385   22.3357 O   0  0  0  0  0  0  0  0  0  0  0  0
  2  1  1  1
  2  3  1  0
  2 13  1  0
  3  4  1  0
  4 12  1  0
  4  5  2  0
  5  6  1  0
  7  6  1  0
  7  8  2  0
  9  8  1  0
 10  9  2  0
 11 12  2  0
 11 10  1  0
 12  7  1  0
 13 14  2  0
 16 15  1  0
 16 17  1  0
 18 17  1  0
 19 18  1  6
 19 21  1  0
 20 13  1  0
 20 19  1  0
 21 22  2  0
 24 23  1  6
 24 26  1  0
 25 24  1  0
 26 28  1  0
 26 27  1  1
 27 21  1  0
 28 29  2  0
 28 30  1  0
M  END
$$$$
