WMT.pdb
     RDKit          3D

 30 31  0  0  1  0  0  0  0  0999 V2000
    6.5012  -17.2183   25.5862 N   0  0  0  0  0  0  0  0  0  0  0  0
    7.1248  -17.0298   24.3038 C   0  0  1  0  0  0  0  0  0  0  0  0
    6.4970  -15.9228   23.4938 C   0  0  0  0  0  0  0  0  0  0  0  0
    7.0599  -14.5995   23.8249 C   0  0  0  0  0  0  0  0  0  0  0  0
    8.1778  -14.0494   23.2518 C   0  0  0  0  0  0  0  0  0  0  0  0
    8.3539  -12.8491   23.8216 N   0  0  0  0  0  0  0  0  0  0  0  0
    7.3936  -12.6131   24.7339 C   0  0  0  0  0  0  0  0  0  0  0  0
    7.1084  -11.5617   25.5871 C   0  0  0  0  0  0  0  0  0  0  0  0
    6.0281  -11.6031   26.4319 C   0  0  0  0  0  0  0  0  0  0  0  0
    5.1844  -12.6935   26.4639 C   0  0  0  0  0  0  0  0  0  0  0  0
    5.4697  -13.7377   25.6150 C   0  0  0  0  0  0  0  0  0  0  0  0
    6.5469  -13.7286   24.7537 C   0  0  0  0  0  0  0  0  0  0  0  0
    8.5759  -16.7320   24.4343 C   0  0  0  0  0  0  0  0  0  0  0  0
    9.2317  -16.5661   23.3490 O   0  0  0  0  0  0  0  0  0  0  0  0
   10.7605  -13.4199   29.1904 C   0  0  0  0  0  0  0  0  0  0  0  0
   11.3258  -15.1087   29.5933 S   0  0  0  0  0  0  0  0  0  0  0  0
   11.0098  -16.2363   28.2084 C   0  0  0  0  0  0  0  0  0  0  0  0
   10.9934  -15.5589   26.8941 C   0  0  0  0  0  0  0  0  0  0  0  0
   10.6630  -16.4300   25.7186 C   0  0  2  0  0  0  0  0  0  0  0  0
    9.1967  -16.6371   25.6919 N   0  0  0  0  0  0  0  0  0  0  0  0
   11.3439  -17.7325   25.6820 C   0  0  0  0  0  0  0  0  0  0  0  0
   10.8133  -18.7426   26.2877 O   0  0  0  0  0  0  0  0  0  0  0  0
   12.2960  -19.6034   22.5454 C   0  0  0  0  0  0  0  0  0  0  0  0
   13.4945  -19.7241   23.4834 C   0  0  1  0  0  0  0  0  0  0  0  0
   14.3998  -18.7524   23.0371 O   0  0  0  0  0  0  0  0  0  0  0  0
   13.0462  -19.4010   24.8809 C   0  0  2  0  0  0  0  0  0  0  0  0
   12.5558  -18.0590   25.0439 N   0  0  0  0  0  0  0  0  0  0  0  0
   14.1498  -19.6695   25.8408 C   0  0  0  0  0  0  0  0  0  0  0  0
   14.5799  -18.7888   26.6362 O   0  0  0  0  0  0  0  0  0  0  0  0
   14.7621  -20.9146   25.9051 O   0  0  0  0  0  0  0  0  0  0  0  0
  2  1  1  1
  2  3  1  0
  2 13  1  0
  3  4  1  0
  4 12  1  0
  4  5  2  0
  5  6  1  0
  7  6  1  0
  7  8  2  0
  9  8  1  0
 10  9  2  0
 11 12  2  0
 11 10  1  0
 12  7  1  0
 13 14  2  0
 16 15  1  0
 16 17  1  0
 18 17  1  0
 19 18  1  1
 19 21  1  0
 20 13  1  0
 20 19  1  0
 21 22  2  0
 24 23  1  6
 24 26  1  0
 25 24  1  0
 26 28  1  0
 26 27  1  6
 27 21  1  0
 28 29  2  0
 28 30  1  0
M  END
$$$$
