WMT.pdb
     RDKit          3D

 30 31  0  0  1  0  0  0  0  0999 V2000
    8.2571  -18.3909   22.1584 N   0  0  0  0  0  0  0  0  0  0  0  0
    8.2765  -16.9538   22.2148 C   0  0  1  0  0  0  0  0  0  0  0  0
    6.9566  -16.3258   21.8418 C   0  0  0  0  0  0  0  0  0  0  0  0
    7.0329  -14.8531   21.7896 C   0  0  0  0  0  0  0  0  0  0  0  0
    6.7451  -14.0087   22.8312 C   0  0  0  0  0  0  0  0  0  0  0  0
    6.9351  -12.7605   22.3811 N   0  0  0  0  0  0  0  0  0  0  0  0
    7.3319  -12.7765   21.0957 C   0  0  0  0  0  0  0  0  0  0  0  0
    7.6568  -11.7986   20.1722 C   0  0  0  0  0  0  0  0  0  0  0  0
    8.0382  -12.1237   18.8950 C   0  0  0  0  0  0  0  0  0  0  0  0
    8.1128  -13.4372   18.4816 C   0  0  0  0  0  0  0  0  0  0  0  0
    7.7895  -14.4079   19.4011 C   0  0  0  0  0  0  0  0  0  0  0  0
    7.4023  -14.1159   20.6922 C   0  0  0  0  0  0  0  0  0  0  0  0
    8.6500  -16.4595   23.5667 C   0  0  0  0  0  0  0  0  0  0  0  0
    8.5327  -15.2033   23.7755 O   0  0  0  0  0  0  0  0  0  0  0  0
    9.2961  -14.1204   29.6152 C   0  0  0  0  0  0  0  0  0  0  0  0
   10.0980  -13.6577   28.0415 S   0  0  0  0  0  0  0  0  0  0  0  0
   10.7136  -15.1303   27.1802 C   0  0  0  0  0  0  0  0  0  0  0  0
    9.7898  -15.6280   26.1383 C   0  0  0  0  0  0  0  0  0  0  0  0
   10.2289  -16.8695   25.4202 C   0  0  2  0  0  0  0  0  0  0  0  0
    9.1101  -17.3328   24.5675 N   0  0  0  0  0  0  0  0  0  0  0  0
   10.6818  -17.9734   26.2792 C   0  0  0  0  0  0  0  0  0  0  0  0
    9.8064  -18.7290   26.8549 O   0  0  0  0  0  0  0  0  0  0  0  0
   12.4598  -21.0809   25.4585 C   0  0  0  0  0  0  0  0  0  0  0  0
   13.2424  -20.4850   26.6262 C   0  0  1  0  0  0  0  0  0  0  0  0
   14.3124  -19.8035   26.0314 O   0  0  0  0  0  0  0  0  0  0  0  0
   12.3569  -19.5117   27.3520 C   0  0  2  0  0  0  0  0  0  0  0  0
   12.0045  -18.3510   26.5796 N   0  0  0  0  0  0  0  0  0  0  0  0
   12.9938  -19.1073   28.6336 C   0  0  0  0  0  0  0  0  0  0  0  0
   13.2354  -17.9006   28.9144 O   0  0  0  0  0  0  0  0  0  0  0  0
   13.3543  -20.0497   29.5881 O   0  0  0  0  0  0  0  0  0  0  0  0
  2  1  1  1
  2  3  1  0
  2 13  1  0
  3  4  1  0
  4 12  1  0
  4  5  2  0
  5  6  1  0
  7  6  1  0
  7  8  2  0
  9  8  1  0
 10  9  2  0
 11 12  2  0
 11 10  1  0
 12  7  1  0
 13 14  2  0
 16 15  1  0
 16 17  1  0
 18 17  1  0
 19 18  1  1
 19 21  1  0
 20 13  1  0
 20 19  1  0
 21 22  2  0
 24 23  1  6
 24 26  1  0
 25 24  1  0
 26 28  1  0
 26 27  1  6
 27 21  1  0
 28 29  2  0
 28 30  1  0
M  END
$$$$
