QTY.pdb
     RDKit          3D

 29 29  0  0  1  0  0  0  0  0999 V2000
    6.8979  -14.3751   13.5534 N   0  0  0  0  0  0  0  0  0  0  0  0
    7.7894  -15.2682   14.1888 C   0  0  0  0  0  0  0  0  0  0  0  0
    8.6080  -15.9316   13.5261 O   0  0  0  0  0  0  0  0  0  0  0  0
    7.7192  -15.3910   15.6764 C   0  0  0  0  0  0  0  0  0  0  0  0
    7.9837  -14.0438   16.2609 C   0  0  0  0  0  0  0  0  0  0  0  0
    9.0828  -14.0783   17.2971 C   0  0  2  0  0  0  0  0  0  0  0  0
   10.2417  -14.7304   16.6603 N   0  0  0  0  0  0  0  0  0  0  0  0
    8.6952  -14.8170   18.5193 C   0  0  0  0  0  0  0  0  0  0  0  0
    7.6937  -14.5001   19.1495 O   0  0  0  0  0  0  0  0  0  0  0  0
    9.6620  -18.9303   18.9873 C   0  0  0  0  0  0  0  0  0  0  0  0
    9.8959  -18.0338   20.1551 C   0  0  1  0  0  0  0  0  0  0  0  0
   11.2761  -17.7380   20.1734 O   0  0  0  0  0  0  0  0  0  0  0  0
    9.1860  -16.7315   20.0910 C   0  0  2  0  0  0  0  0  0  0  0  0
    9.4816  -15.9025   18.9750 N   0  0  0  0  0  0  0  0  0  0  0  0
    9.3874  -15.9754   21.3559 C   0  0  0  0  0  0  0  0  0  0  0  0
   10.4160  -15.2738   21.5661 O   0  0  0  0  0  0  0  0  0  0  0  0
    6.9428  -11.2034   28.3632 O   0  0  0  0  0  0  0  0  0  0  0  0
    6.9926  -12.0091   27.2230 C   0  0  0  0  0  0  0  0  0  0  0  0
    6.6321  -13.3395   27.2564 C   0  0  0  0  0  0  0  0  0  0  0  0
    6.6996  -14.0917   26.1012 C   0  0  0  0  0  0  0  0  0  0  0  0
    7.1195  -13.5615   24.8918 C   0  0  0  0  0  0  0  0  0  0  0  0
    7.1863  -14.3956   23.6693 C   0  0  0  0  0  0  0  0  0  0  0  0
    8.4920  -15.1457   23.5282 C   0  0  2  0  0  0  0  0  0  0  0  0
    8.4045  -16.0266   22.3800 N   0  0  0  0  0  0  0  0  0  0  0  0
    8.8595  -15.8852   24.7367 C   0  0  0  0  0  0  0  0  0  0  0  0
    9.6599  -15.4584   25.6040 O   0  0  0  0  0  0  0  0  0  0  0  0
    7.4734  -12.2220   24.8981 C   0  0  0  0  0  0  0  0  0  0  0  0
    7.4152  -11.4451   26.0418 C   0  0  0  0  0  0  0  0  0  0  0  0
    8.3105  -17.1549   24.9877 O   0  0  0  0  0  0  0  0  0  0  0  0
  1  2  1  0
  2  3  2  0
  4  2  1  0
  4  5  1  0
  5  6  1  0
  6  7  1  6
  8  6  1  0
  9  8  2  0
 11 10  1  6
 11 12  1  0
 11 13  1  0
 13 15  1  0
 13 14  1  6
 14  8  1  0
 15 16  2  0
 18 17  1  0
 18 28  2  0
 19 18  1  0
 20 19  2  0
 20 21  1  0
 21 27  2  0
 22 21  1  0
 23 22  1  1
 24 23  1  0
 24 15  1  0
 25 29  1  0
 25 23  1  0
 26 25  2  0
 27 28  1  0
M  END
$$$$
