QTY.pdb
     RDKit          3D

 29 29  0  0  1  0  0  0  0  0999 V2000
    1.8507  -21.5844   20.7594 N   0  0  0  0  0  0  0  0  0  0  0  0
    1.1491  -20.3722   20.9444 C   0  0  0  0  0  0  0  0  0  0  0  0
   -0.0576  -20.2828   20.6524 O   0  0  0  0  0  0  0  0  0  0  0  0
    1.8983  -19.2046   21.4996 C   0  0  0  0  0  0  0  0  0  0  0  0
    3.3318  -19.5987   21.6284 C   0  0  0  0  0  0  0  0  0  0  0  0
    4.0473  -18.8038   22.6956 C   0  0  2  0  0  0  0  0  0  0  0  0
    3.2340  -17.5984   22.9395 N   0  0  0  0  0  0  0  0  0  0  0  0
    5.4193  -18.4165   22.2988 C   0  0  0  0  0  0  0  0  0  0  0  0
    6.2537  -19.2696   22.0220 O   0  0  0  0  0  0  0  0  0  0  0  0
    6.5636  -16.3021   19.4178 C   0  0  0  0  0  0  0  0  0  0  0  0
    7.1029  -15.6775   20.6592 C   0  0  1  0  0  0  0  0  0  0  0  0
    6.2879  -14.5599   20.9418 O   0  0  0  0  0  0  0  0  0  0  0  0
    7.0591  -16.5466   21.8620 C   0  0  2  0  0  0  0  0  0  0  0  0
    5.7831  -17.0499   22.2346 N   0  0  0  0  0  0  0  0  0  0  0  0
    7.6922  -15.8555   23.0169 C   0  0  0  0  0  0  0  0  0  0  0  0
    7.1035  -14.9443   23.6632 O   0  0  0  0  0  0  0  0  0  0  0  0
   10.7609  -13.9700   30.7195 O   0  0  0  0  0  0  0  0  0  0  0  0
   10.2342  -14.3849   29.4938 C   0  0  0  0  0  0  0  0  0  0  0  0
    9.7851  -13.4830   28.5526 C   0  0  0  0  0  0  0  0  0  0  0  0
    9.2735  -13.9454   27.3572 C   0  0  0  0  0  0  0  0  0  0  0  0
    9.1901  -15.2955   27.0564 C   0  0  0  0  0  0  0  0  0  0  0  0
    8.6311  -15.7619   25.7662 C   0  0  0  0  0  0  0  0  0  0  0  0
    9.5935  -15.6123   24.6090 C   0  0  2  0  0  0  0  0  0  0  0  0
    9.0038  -16.2129   23.4286 N   0  0  0  0  0  0  0  0  0  0  0  0
   10.9144  -16.1776   24.8877 C   0  0  0  0  0  0  0  0  0  0  0  0
   11.9101  -15.4965   25.2339 O   0  0  0  0  0  0  0  0  0  0  0  0
    9.6509  -16.1706   28.0266 C   0  0  0  0  0  0  0  0  0  0  0  0
   10.1685  -15.7338   29.2335 C   0  0  0  0  0  0  0  0  0  0  0  0
   11.1334  -17.5618   24.7753 O   0  0  0  0  0  0  0  0  0  0  0  0
  1  2  1  0
  2  3  2  0
  4  2  1  0
  4  5  1  0
  5  6  1  0
  6  7  1  6
  8  6  1  0
  9  8  2  0
 11 10  1  6
 11 12  1  0
 11 13  1  0
 13 15  1  0
 13 14  1  1
 14  8  1  0
 15 16  2  0
 18 17  1  0
 18 28  2  0
 19 18  1  0
 20 19  2  0
 20 21  1  0
 21 27  2  0
 22 21  1  0
 23 22  1  1
 24 23  1  0
 24 15  1  0
 25 29  1  0
 25 23  1  0
 26 25  2  0
 27 28  1  0
M  END
$$$$
