QTY.pdb
     RDKit          3D

 29 29  0  0  1  0  0  0  0  0999 V2000
    6.9831  -12.2974   17.6164 N   0  0  0  0  0  0  0  0  0  0  0  0
    7.7246  -13.4080   17.1551 C   0  0  0  0  0  0  0  0  0  0  0  0
    7.8034  -13.6617   15.9391 O   0  0  0  0  0  0  0  0  0  0  0  0
    8.4092  -14.2657   18.1694 C   0  0  0  0  0  0  0  0  0  0  0  0
    7.9858  -13.8020   19.5230 C   0  0  0  0  0  0  0  0  0  0  0  0
    9.0084  -14.1343   20.5845 C   0  0  2  0  0  0  0  0  0  0  0  0
   10.1832  -14.6812   19.8812 N   0  0  0  0  0  0  0  0  0  0  0  0
    8.5096  -15.1150   21.5740 C   0  0  0  0  0  0  0  0  0  0  0  0
    7.4394  -14.9385   22.1435 O   0  0  0  0  0  0  0  0  0  0  0  0
    8.8980  -19.6769   23.5107 C   0  0  0  0  0  0  0  0  0  0  0  0
    9.3772  -18.6489   22.5434 C   0  0  1  0  0  0  0  0  0  0  0  0
    8.8411  -18.9919   21.2833 O   0  0  0  0  0  0  0  0  0  0  0  0
    8.9242  -17.2648   22.8321 C   0  0  2  0  0  0  0  0  0  0  0  0
    9.2674  -16.2726   21.8740 N   0  0  0  0  0  0  0  0  0  0  0  0
    9.3810  -16.8478   24.1846 C   0  0  0  0  0  0  0  0  0  0  0  0
   10.4935  -16.2819   24.3763 O   0  0  0  0  0  0  0  0  0  0  0  0
    6.6692  -10.7968   25.4823 O   0  0  0  0  0  0  0  0  0  0  0  0
    6.9334  -12.0922   25.9340 C   0  0  0  0  0  0  0  0  0  0  0  0
    6.0380  -13.1240   25.7479 C   0  0  0  0  0  0  0  0  0  0  0  0
    6.3478  -14.3857   26.2137 C   0  0  0  0  0  0  0  0  0  0  0  0
    7.5360  -14.6656   26.8694 C   0  0  0  0  0  0  0  0  0  0  0  0
    7.8383  -16.0293   27.3627 C   0  0  0  0  0  0  0  0  0  0  0  0
    8.9957  -16.6829   26.6409 C   0  0  2  0  0  0  0  0  0  0  0  0
    8.5574  -17.0821   25.3179 N   0  0  0  0  0  0  0  0  0  0  0  0
    9.5612  -17.8152   27.3759 C   0  0  0  0  0  0  0  0  0  0  0  0
    9.3721  -19.0168   27.0672 O   0  0  0  0  0  0  0  0  0  0  0  0
    8.4097  -13.6036   27.0375 C   0  0  0  0  0  0  0  0  0  0  0  0
    8.1241  -12.3290   26.5804 C   0  0  0  0  0  0  0  0  0  0  0  0
   10.3723  -17.5971   28.5035 O   0  0  0  0  0  0  0  0  0  0  0  0
  1  2  1  0
  2  3  2  0
  4  2  1  0
  4  5  1  0
  5  6  1  0
  6  7  1  6
  8  6  1  0
  9  8  2  0
 11 10  1  1
 11 12  1  0
 11 13  1  0
 13 15  1  0
 13 14  1  6
 14  8  1  0
 15 16  2  0
 18 17  1  0
 18 28  2  0
 19 18  1  0
 20 19  2  0
 20 21  1  0
 21 27  2  0
 22 21  1  0
 23 22  1  1
 24 23  1  0
 24 15  1  0
 25 29  1  0
 25 23  1  0
 26 25  2  0
 27 28  1  0
M  END
$$$$
