QTY.pdb
     RDKit          3D

 29 29  0  0  1  0  0  0  0  0999 V2000
   13.3832  -15.5013   17.8421 N   0  0  0  0  0  0  0  0  0  0  0  0
   12.7637  -14.2934   18.2337 C   0  0  0  0  0  0  0  0  0  0  0  0
   13.3831  -13.4470   18.9040 O   0  0  0  0  0  0  0  0  0  0  0  0
   11.3463  -14.0645   17.8195 C   0  0  0  0  0  0  0  0  0  0  0  0
   10.5085  -15.1309   18.4421 C   0  0  0  0  0  0  0  0  0  0  0  0
    9.0747  -14.6924   18.6288 C   0  0  2  0  0  0  0  0  0  0  0  0
    9.0120  -13.2750   18.2276 N   0  0  0  0  0  0  0  0  0  0  0  0
    8.6060  -14.8443   20.0242 C   0  0  0  0  0  0  0  0  0  0  0  0
    8.6710  -13.9072   20.8104 O   0  0  0  0  0  0  0  0  0  0  0  0
    5.9530  -17.6817   23.1720 C   0  0  0  0  0  0  0  0  0  0  0  0
    6.6698  -17.5487   21.8718 C   0  0  1  0  0  0  0  0  0  0  0  0
    5.6817  -17.4619   20.8672 O   0  0  0  0  0  0  0  0  0  0  0  0
    7.5079  -16.3298   21.7457 C   0  0  2  0  0  0  0  0  0  0  0  0
    8.0753  -16.0799   20.4668 N   0  0  0  0  0  0  0  0  0  0  0  0
    8.5718  -16.3298   22.7850 C   0  0  0  0  0  0  0  0  0  0  0  0
    9.7654  -16.6528   22.5286 O   0  0  0  0  0  0  0  0  0  0  0  0
    4.8210  -12.1037   27.7745 O   0  0  0  0  0  0  0  0  0  0  0  0
    5.9630  -12.6586   27.1914 C   0  0  0  0  0  0  0  0  0  0  0  0
    6.2620  -12.4732   25.8583 C   0  0  0  0  0  0  0  0  0  0  0  0
    7.4032  -13.0434   25.3316 C   0  0  0  0  0  0  0  0  0  0  0  0
    8.2744  -13.8048   26.0941 C   0  0  0  0  0  0  0  0  0  0  0  0
    9.4893  -14.4085   25.4991 C   0  0  0  0  0  0  0  0  0  0  0  0
    9.3098  -15.8612   25.1184 C   0  0  2  0  0  0  0  0  0  0  0  0
    8.2625  -15.9579   24.1205 N   0  0  0  0  0  0  0  0  0  0  0  0
    9.0278  -16.7224   26.2678 C   0  0  0  0  0  0  0  0  0  0  0  0
    9.7988  -16.8579   27.2487 O   0  0  0  0  0  0  0  0  0  0  0  0
    7.9401  -13.9686   27.4286 C   0  0  0  0  0  0  0  0  0  0  0  0
    6.8024  -13.4081   27.9822 C   0  0  0  0  0  0  0  0  0  0  0  0
    7.8346  -17.4637   26.3248 O   0  0  0  0  0  0  0  0  0  0  0  0
  1  2  1  0
  2  3  2  0
  4  2  1  0
  4  5  1  0
  5  6  1  0
  6  7  1  1
  8  6  1  0
  9  8  2  0
 11 10  1  1
 11 12  1  0
 11 13  1  0
 13 15  1  0
 13 14  1  6
 14  8  1  0
 15 16  2  0
 18 17  1  0
 18 28  2  0
 19 18  1  0
 20 19  2  0
 20 21  1  0
 21 27  2  0
 22 21  1  0
 23 22  1  1
 24 23  1  0
 24 15  1  0
 25 29  1  0
 25 23  1  0
 26 25  2  0
 27 28  1  0
M  END
$$$$
