QTY.pdb
     RDKit          3D

 29 29  0  0  1  0  0  0  0  0999 V2000
    4.4681  -18.9662   17.6209 N   0  0  0  0  0  0  0  0  0  0  0  0
    5.5290  -18.9028   16.6900 C   0  0  0  0  0  0  0  0  0  0  0  0
    5.3418  -19.1758   15.4901 O   0  0  0  0  0  0  0  0  0  0  0  0
    6.8783  -18.4990   17.1893 C   0  0  0  0  0  0  0  0  0  0  0  0
    6.7659  -18.2369   18.6540 C   0  0  0  0  0  0  0  0  0  0  0  0
    7.8011  -17.2479   19.1367 C   0  0  2  0  0  0  0  0  0  0  0  0
    8.5587  -16.8169   17.9475 N   0  0  0  0  0  0  0  0  0  0  0  0
    8.7217  -17.8259   20.1408 C   0  0  0  0  0  0  0  0  0  0  0  0
    8.4827  -18.9116   20.6553 O   0  0  0  0  0  0  0  0  0  0  0  0
   12.3444  -18.6373   19.6000 C   0  0  0  0  0  0  0  0  0  0  0  0
   12.2675  -17.7533   20.7978 C   0  0  1  0  0  0  0  0  0  0  0  0
   12.6561  -16.4624   20.3786 O   0  0  0  0  0  0  0  0  0  0  0  0
   10.9101  -17.6161   21.3831 C   0  0  2  0  0  0  0  0  0  0  0  0
    9.8933  -17.1269   20.5187 N   0  0  0  0  0  0  0  0  0  0  0  0
   10.9666  -16.7938   22.6211 C   0  0  0  0  0  0  0  0  0  0  0  0
   10.4718  -15.6337   22.6838 O   0  0  0  0  0  0  0  0  0  0  0  0
    9.8776  -14.1267   30.7197 O   0  0  0  0  0  0  0  0  0  0  0  0
    9.9518  -14.6379   29.4216 C   0  0  0  0  0  0  0  0  0  0  0  0
    9.6919  -13.8560   28.3162 C   0  0  0  0  0  0  0  0  0  0  0  0
    9.7794  -14.4102   27.0553 C   0  0  0  0  0  0  0  0  0  0  0  0
   10.1217  -15.7368   26.8479 C   0  0  0  0  0  0  0  0  0  0  0  0
   10.2024  -16.3049   25.4821 C   0  0  0  0  0  0  0  0  0  0  0  0
   11.6221  -16.5271   25.0103 C   0  0  2  0  0  0  0  0  0  0  0  0
   11.5931  -17.3066   23.7883 N   0  0  0  0  0  0  0  0  0  0  0  0
   12.4682  -17.1604   26.0229 C   0  0  0  0  0  0  0  0  0  0  0  0
   12.4980  -18.3963   26.2389 O   0  0  0  0  0  0  0  0  0  0  0  0
   10.3752  -16.4903   27.9826 C   0  0  0  0  0  0  0  0  0  0  0  0
   10.2948  -15.9598   29.2582 C   0  0  0  0  0  0  0  0  0  0  0  0
   13.3169  -16.3812   26.8286 O   0  0  0  0  0  0  0  0  0  0  0  0
  1  2  1  0
  2  3  2  0
  4  2  1  0
  4  5  1  0
  5  6  1  0
  6  7  1  6
  8  6  1  0
  9  8  2  0
 11 10  1  6
 11 12  1  0
 11 13  1  0
 13 15  1  0
 13 14  1  6
 14  8  1  0
 15 16  2  0
 18 17  1  0
 18 28  2  0
 19 18  1  0
 20 19  2  0
 20 21  1  0
 21 27  2  0
 22 21  1  0
 23 22  1  1
 24 23  1  0
 24 15  1  0
 25 29  1  0
 25 23  1  0
 26 25  2  0
 27 28  1  0
M  END
$$$$
