QTY.pdb
     RDKit          3D

 29 29  0  0  1  0  0  0  0  0999 V2000
   15.4153  -17.7856   18.2370 N   0  0  0  0  0  0  0  0  0  0  0  0
   14.9972  -16.8864   19.2433 C   0  0  0  0  0  0  0  0  0  0  0  0
   15.2984  -17.0787   20.4356 O   0  0  0  0  0  0  0  0  0  0  0  0
   14.1847  -15.7013   18.8329 C   0  0  0  0  0  0  0  0  0  0  0  0
   12.8022  -16.1751   18.5315 C   0  0  0  0  0  0  0  0  0  0  0  0
   11.8730  -15.0359   18.1826 C   0  0  2  0  0  0  0  0  0  0  0  0
   12.6569  -14.0862   17.3718 N   0  0  0  0  0  0  0  0  0  0  0  0
   11.3300  -14.3527   19.3777 C   0  0  0  0  0  0  0  0  0  0  0  0
   12.0364  -13.6078   20.0461 O   0  0  0  0  0  0  0  0  0  0  0  0
    7.5024  -12.7391   19.6186 C   0  0  0  0  0  0  0  0  0  0  0  0
    7.8713  -13.6860   20.7092 C   0  0  1  0  0  0  0  0  0  0  0  0
    7.2905  -14.9309   20.3834 O   0  0  0  0  0  0  0  0  0  0  0  0
    9.3288  -13.9263   20.8573 C   0  0  2  0  0  0  0  0  0  0  0  0
    9.9825  -14.5538   19.7624 N   0  0  0  0  0  0  0  0  0  0  0  0
    9.5993  -14.6778   22.1120 C   0  0  0  0  0  0  0  0  0  0  0  0
    9.9720  -15.8843   22.1088 O   0  0  0  0  0  0  0  0  0  0  0  0
   11.1523  -16.1433   30.7175 O   0  0  0  0  0  0  0  0  0  0  0  0
   10.8372  -15.5635   29.4860 C   0  0  0  0  0  0  0  0  0  0  0  0
   11.7900  -15.3694   28.5086 C   0  0  0  0  0  0  0  0  0  0  0  0
   11.4260  -14.7921   27.3090 C   0  0  0  0  0  0  0  0  0  0  0  0
   10.1266  -14.3931   27.0394 C   0  0  0  0  0  0  0  0  0  0  0  0
    9.7672  -13.7713   25.7438 C   0  0  0  0  0  0  0  0  0  0  0  0
    9.7200  -14.7592   24.5995 C   0  0  2  0  0  0  0  0  0  0  0  0
    9.4408  -14.0408   23.3716 N   0  0  0  0  0  0  0  0  0  0  0  0
    8.7533  -15.8369   24.8146 C   0  0  0  0  0  0  0  0  0  0  0  0
    9.0342  -16.9333   25.3567 O   0  0  0  0  0  0  0  0  0  0  0  0
    9.1980  -14.6043   28.0457 C   0  0  0  0  0  0  0  0  0  0  0  0
    9.5359  -15.1810   29.2574 C   0  0  0  0  0  0  0  0  0  0  0  0
    7.4163  -15.6843   24.4074 O   0  0  0  0  0  0  0  0  0  0  0  0
  1  2  1  0
  2  3  2  0
  4  2  1  0
  4  5  1  0
  5  6  1  0
  6  7  1  6
  8  6  1  0
  9  8  2  0
 11 10  1  6
 11 12  1  0
 11 13  1  0
 13 15  1  0
 13 14  1  6
 14  8  1  0
 15 16  2  0
 18 17  1  0
 18 28  2  0
 19 18  1  0
 20 19  2  0
 20 21  1  0
 21 27  2  0
 22 21  1  0
 23 22  1  1
 24 23  1  0
 24 15  1  0
 25 29  1  0
 25 23  1  0
 26 25  2  0
 27 28  1  0
M  END
$$$$
