QTY.pdb
     RDKit          3D

 29 29  0  0  1  0  0  0  0  0999 V2000
   16.1997  -15.5918   20.1217 N   0  0  0  0  0  0  0  0  0  0  0  0
   15.7043  -15.0908   18.8971 C   0  0  0  0  0  0  0  0  0  0  0  0
   16.3974  -15.1319   17.8640 O   0  0  0  0  0  0  0  0  0  0  0  0
   14.3268  -14.5118   18.8808 C   0  0  0  0  0  0  0  0  0  0  0  0
   13.3869  -15.5496   19.3969 C   0  0  0  0  0  0  0  0  0  0  0  0
   11.9868  -15.3682   18.8587 C   0  0  2  0  0  0  0  0  0  0  0  0
   12.0886  -14.4265   17.7288 N   0  0  0  0  0  0  0  0  0  0  0  0
   11.0466  -14.8417   19.8728 C   0  0  0  0  0  0  0  0  0  0  0  0
   11.0777  -13.6617   20.2003 O   0  0  0  0  0  0  0  0  0  0  0  0
    6.7520  -15.2132   22.1959 C   0  0  0  0  0  0  0  0  0  0  0  0
    7.7530  -15.7907   21.2543 C   0  0  1  0  0  0  0  0  0  0  0  0
    7.3816  -15.3748   19.9573 O   0  0  0  0  0  0  0  0  0  0  0  0
    9.1463  -15.3232   21.4645 C   0  0  2  0  0  0  0  0  0  0  0  0
   10.0973  -15.7003   20.4777 N   0  0  0  0  0  0  0  0  0  0  0  0
    9.6239  -15.7264   22.8140 C   0  0  0  0  0  0  0  0  0  0  0  0
   10.4467  -16.6690   22.9848 O   0  0  0  0  0  0  0  0  0  0  0  0
    4.5869  -11.7933   26.8873 O   0  0  0  0  0  0  0  0  0  0  0  0
    5.8418  -12.3684   26.6722 C   0  0  0  0  0  0  0  0  0  0  0  0
    6.1826  -12.9397   25.4645 C   0  0  0  0  0  0  0  0  0  0  0  0
    7.4361  -13.4944   25.3042 C   0  0  0  0  0  0  0  0  0  0  0  0
    8.3811  -13.5028   26.3176 C   0  0  0  0  0  0  0  0  0  0  0  0
    9.7171  -14.1105   26.1171 C   0  0  0  0  0  0  0  0  0  0  0  0
    9.6815  -15.3692   25.2794 C   0  0  2  0  0  0  0  0  0  0  0  0
    9.1546  -15.0447   23.9684 N   0  0  0  0  0  0  0  0  0  0  0  0
    8.9180  -16.4502   25.9047 C   0  0  0  0  0  0  0  0  0  0  0  0
    7.8341  -16.8948   25.4547 O   0  0  0  0  0  0  0  0  0  0  0  0
    8.0018  -12.9198   27.5159 C   0  0  0  0  0  0  0  0  0  0  0  0
    6.7518  -12.3566   27.7035 C   0  0  0  0  0  0  0  0  0  0  0  0
    9.3842  -17.0609   27.0822 O   0  0  0  0  0  0  0  0  0  0  0  0
  1  2  1  0
  2  3  2  0
  4  2  1  0
  4  5  1  0
  5  6  1  0
  6  7  1  6
  8  6  1  0
  9  8  2  0
 11 10  1  1
 11 12  1  0
 11 13  1  0
 13 15  1  0
 13 14  1  6
 14  8  1  0
 15 16  2  0
 18 17  1  0
 18 28  2  0
 19 18  1  0
 20 19  2  0
 20 21  1  0
 21 27  2  0
 22 21  1  0
 23 22  1  1
 24 23  1  0
 24 15  1  0
 25 29  1  0
 25 23  1  0
 26 25  2  0
 27 28  1  0
M  END
$$$$
