QTY.pdb
     RDKit          3D

 29 29  0  0  1  0  0  0  0  0999 V2000
   13.2169  -15.5527   19.7197 N   0  0  0  0  0  0  0  0  0  0  0  0
   12.7746  -14.2129   19.6453 C   0  0  0  0  0  0  0  0  0  0  0  0
   13.5798  -13.2857   19.4421 O   0  0  0  0  0  0  0  0  0  0  0  0
   11.3147  -13.9446   19.8177 C   0  0  0  0  0  0  0  0  0  0  0  0
   10.6038  -14.4924   18.6256 C   0  0  0  0  0  0  0  0  0  0  0  0
    9.1164  -14.2324   18.6801 C   0  0  2  0  0  0  0  0  0  0  0  0
    8.9310  -12.7921   18.4244 N   0  0  0  0  0  0  0  0  0  0  0  0
    8.5184  -14.5957   19.9840 C   0  0  0  0  0  0  0  0  0  0  0  0
    8.0848  -13.7305   20.7350 O   0  0  0  0  0  0  0  0  0  0  0  0
    6.1282  -18.2843   22.2823 C   0  0  0  0  0  0  0  0  0  0  0  0
    7.0544  -17.8221   21.2097 C   0  0  1  0  0  0  0  0  0  0  0  0
    6.2994  -17.7546   20.0187 O   0  0  0  0  0  0  0  0  0  0  0  0
    7.6273  -16.4693   21.4234 C   0  0  2  0  0  0  0  0  0  0  0  0
    8.4411  -15.9530   20.3787 N   0  0  0  0  0  0  0  0  0  0  0  0
    8.3640  -16.4229   22.7146 C   0  0  0  0  0  0  0  0  0  0  0  0
    9.6255  -16.4300   22.7723 O   0  0  0  0  0  0  0  0  0  0  0  0
    6.4257  -10.0855   25.7288 O   0  0  0  0  0  0  0  0  0  0  0  0
    6.6378  -11.4599   25.8624 C   0  0  0  0  0  0  0  0  0  0  0  0
    5.6931  -12.2900   26.4276 C   0  0  0  0  0  0  0  0  0  0  0  0
    5.9525  -13.6412   26.5359 C   0  0  0  0  0  0  0  0  0  0  0  0
    7.1373  -14.2089   26.0954 C   0  0  0  0  0  0  0  0  0  0  0  0
    7.3892  -15.6625   26.2299 C   0  0  0  0  0  0  0  0  0  0  0  0
    8.3538  -16.2000   25.1964 C   0  0  2  0  0  0  0  0  0  0  0  0
    7.6490  -16.3683   23.9406 N   0  0  0  0  0  0  0  0  0  0  0  0
    9.0010  -17.4453   25.6119 C   0  0  0  0  0  0  0  0  0  0  0  0
    8.6145  -18.5871   25.2628 O   0  0  0  0  0  0  0  0  0  0  0  0
    8.0616  -13.3431   25.5336 C   0  0  0  0  0  0  0  0  0  0  0  0
    7.8271  -11.9846   25.4128 C   0  0  0  0  0  0  0  0  0  0  0  0
   10.1273  -17.4148   26.4528 O   0  0  0  0  0  0  0  0  0  0  0  0
  1  2  1  0
  2  3  2  0
  4  2  1  0
  4  5  1  0
  5  6  1  0
  6  7  1  1
  8  6  1  0
  9  8  2  0
 11 10  1  1
 11 12  1  0
 11 13  1  0
 13 15  1  0
 13 14  1  6
 14  8  1  0
 15 16  2  0
 18 17  1  0
 18 28  2  0
 19 18  1  0
 20 19  2  0
 20 21  1  0
 21 27  2  0
 22 21  1  0
 23 22  1  1
 24 23  1  0
 24 15  1  0
 25 29  1  0
 25 23  1  0
 26 25  2  0
 27 28  1  0
M  END
$$$$
