QTY.pdb
     RDKit          3D

 29 29  0  0  1  0  0  0  0  0999 V2000
    9.0329  -13.7174   14.7398 N   0  0  0  0  0  0  0  0  0  0  0  0
    8.2747  -14.8966   14.9150 C   0  0  0  0  0  0  0  0  0  0  0  0
    7.6620  -15.4087   13.9602 O   0  0  0  0  0  0  0  0  0  0  0  0
    8.2315  -15.5079   16.2779 C   0  0  0  0  0  0  0  0  0  0  0  0
    9.5967  -16.0204   16.5943 C   0  0  0  0  0  0  0  0  0  0  0  0
    9.6589  -16.6729   17.9556 C   0  0  2  0  0  0  0  0  0  0  0  0
    8.5242  -17.6119   18.0248 N   0  0  0  0  0  0  0  0  0  0  0  0
    9.5752  -15.6959   19.0639 C   0  0  0  0  0  0  0  0  0  0  0  0
   10.4891  -14.9070   19.2713 O   0  0  0  0  0  0  0  0  0  0  0  0
    6.4559  -13.3089   20.0014 C   0  0  0  0  0  0  0  0  0  0  0  0
    6.8698  -14.1943   21.1270 C   0  0  1  0  0  0  0  0  0  0  0  0
    5.9675  -15.2799   21.1462 O   0  0  0  0  0  0  0  0  0  0  0  0
    8.2285  -14.7772   20.9922 C   0  0  2  0  0  0  0  0  0  0  0  0
    8.4329  -15.6628   19.8995 N   0  0  0  0  0  0  0  0  0  0  0  0
    8.6328  -15.4338   22.2640 C   0  0  0  0  0  0  0  0  0  0  0  0
    8.7902  -16.6833   22.3578 O   0  0  0  0  0  0  0  0  0  0  0  0
   11.1646  -16.3765   30.7073 O   0  0  0  0  0  0  0  0  0  0  0  0
   10.7996  -15.8373   29.4712 C   0  0  0  0  0  0  0  0  0  0  0  0
    9.8328  -14.8606   29.3609 C   0  0  0  0  0  0  0  0  0  0  0  0
    9.5093  -14.3613   28.1156 C   0  0  0  0  0  0  0  0  0  0  0  0
   10.1219  -14.8045   26.9544 C   0  0  0  0  0  0  0  0  0  0  0  0
    9.7497  -14.2530   25.6308 C   0  0  0  0  0  0  0  0  0  0  0  0
    9.1736  -15.2894   24.6921 C   0  0  2  0  0  0  0  0  0  0  0  0
    8.8563  -14.6525   23.4289 N   0  0  0  0  0  0  0  0  0  0  0  0
    8.0066  -15.9769   25.2469 C   0  0  0  0  0  0  0  0  0  0  0  0
    6.8256  -15.5745   25.1119 O   0  0  0  0  0  0  0  0  0  0  0  0
   11.0877  -15.7863   27.1057 C   0  0  0  0  0  0  0  0  0  0  0  0
   11.4313  -16.3041   28.3421 C   0  0  0  0  0  0  0  0  0  0  0  0
    8.1645  -17.1639   25.9835 O   0  0  0  0  0  0  0  0  0  0  0  0
  1  2  1  0
  2  3  2  0
  4  2  1  0
  4  5  1  0
  5  6  1  0
  6  7  1  1
  8  6  1  0
  9  8  2  0
 11 10  1  6
 11 12  1  0
 11 13  1  0
 13 15  1  0
 13 14  1  6
 14  8  1  0
 15 16  2  0
 18 17  1  0
 18 28  2  0
 19 18  1  0
 20 19  2  0
 20 21  1  0
 21 27  2  0
 22 21  1  0
 23 22  1  1
 24 23  1  0
 24 15  1  0
 25 29  1  0
 25 23  1  0
 26 25  2  0
 27 28  1  0
M  END
$$$$
