QTY.pdb
     RDKit          3D

 29 29  0  0  1  0  0  0  0  0999 V2000
   12.8561  -20.0988   18.8078 N   0  0  0  0  0  0  0  0  0  0  0  0
   13.0948  -19.0858   17.8523 C   0  0  0  0  0  0  0  0  0  0  0  0
   14.1966  -18.9953   17.2804 O   0  0  0  0  0  0  0  0  0  0  0  0
   11.9868  -18.1295   17.5508 C   0  0  0  0  0  0  0  0  0  0  0  0
   10.7884  -18.5552   18.3313 C   0  0  0  0  0  0  0  0  0  0  0  0
    9.6124  -17.6306   18.1189 C   0  0  2  0  0  0  0  0  0  0  0  0
    9.7884  -17.0247   16.7862 N   0  0  0  0  0  0  0  0  0  0  0  0
    9.5229  -16.5713   19.1482 C   0  0  0  0  0  0  0  0  0  0  0  0
   10.1252  -15.5136   19.0100 O   0  0  0  0  0  0  0  0  0  0  0  0
    6.4036  -14.8043   20.2250 C   0  0  0  0  0  0  0  0  0  0  0  0
    7.0200  -15.4021   21.4435 C   0  0  1  0  0  0  0  0  0  0  0  0
    6.3099  -16.5906   21.7198 O   0  0  0  0  0  0  0  0  0  0  0  0
    8.4458  -15.7877   21.2935 C   0  0  2  0  0  0  0  0  0  0  0  0
    8.7367  -16.7703   20.3086 N   0  0  0  0  0  0  0  0  0  0  0  0
    9.0058  -16.2011   22.6079 C   0  0  0  0  0  0  0  0  0  0  0  0
    9.4550  -17.3631   22.8145 O   0  0  0  0  0  0  0  0  0  0  0  0
    5.2271  -11.2147   26.5273 O   0  0  0  0  0  0  0  0  0  0  0  0
    6.3576  -12.0196   26.3660 C   0  0  0  0  0  0  0  0  0  0  0  0
    6.6118  -13.0909   27.1959 C   0  0  0  0  0  0  0  0  0  0  0  0
    7.7435  -13.8546   26.9934 C   0  0  0  0  0  0  0  0  0  0  0  0
    8.6486  -13.5886   25.9785 C   0  0  0  0  0  0  0  0  0  0  0  0
    9.8576  -14.4235   25.7891 C   0  0  0  0  0  0  0  0  0  0  0  0
    9.6020  -15.6675   24.9677 C   0  0  2  0  0  0  0  0  0  0  0  0
    9.0491  -15.2770   23.6857 N   0  0  0  0  0  0  0  0  0  0  0  0
    8.7360  -16.6326   25.6467 C   0  0  0  0  0  0  0  0  0  0  0  0
    7.5615  -16.8934   25.2898 O   0  0  0  0  0  0  0  0  0  0  0  0
    8.3591  -12.5045   25.1658 C   0  0  0  0  0  0  0  0  0  0  0  0
    7.2318  -11.7224   25.3466 C   0  0  0  0  0  0  0  0  0  0  0  0
    9.2007  -17.3363   26.7716 O   0  0  0  0  0  0  0  0  0  0  0  0
  1  2  1  0
  2  3  2  0
  4  2  1  0
  4  5  1  0
  5  6  1  0
  6  7  1  6
  8  6  1  0
  9  8  2  0
 11 10  1  6
 11 12  1  0
 11 13  1  0
 13 15  1  0
 13 14  1  6
 14  8  1  0
 15 16  2  0
 18 17  1  0
 18 28  2  0
 19 18  1  0
 20 19  2  0
 20 21  1  0
 21 27  2  0
 22 21  1  0
 23 22  1  1
 24 23  1  0
 24 15  1  0
 25 29  1  0
 25 23  1  0
 26 25  2  0
 27 28  1  0
M  END
$$$$
