QTY.pdb
     RDKit          3D

 29 29  0  0  1  0  0  0  0  0999 V2000
    7.5712  -15.0432   17.0189 N   0  0  0  0  0  0  0  0  0  0  0  0
    7.8978  -13.6770   16.8678 C   0  0  0  0  0  0  0  0  0  0  0  0
    8.2696  -13.2279   15.7680 O   0  0  0  0  0  0  0  0  0  0  0  0
    7.7833  -12.7907   18.0655 C   0  0  0  0  0  0  0  0  0  0  0  0
    7.3651  -13.6350   19.2226 C   0  0  0  0  0  0  0  0  0  0  0  0
    8.4297  -13.7027   20.2925 C   0  0  2  0  0  0  0  0  0  0  0  0
    9.6910  -14.0462   19.6106 N   0  0  0  0  0  0  0  0  0  0  0  0
    8.1296  -14.7071   21.3370 C   0  0  0  0  0  0  0  0  0  0  0  0
    7.1145  -14.6171   22.0167 O   0  0  0  0  0  0  0  0  0  0  0  0
    8.8869  -18.7473   20.8633 C   0  0  0  0  0  0  0  0  0  0  0  0
    9.4041  -18.1604   22.1322 C   0  0  1  0  0  0  0  0  0  0  0  0
   10.7879  -17.9485   21.9504 O   0  0  0  0  0  0  0  0  0  0  0  0
    8.8193  -16.8441   22.4920 C   0  0  2  0  0  0  0  0  0  0  0  0
    9.0167  -15.7872   21.5624 N   0  0  0  0  0  0  0  0  0  0  0  0
    9.2836  -16.4291   23.8427 C   0  0  0  0  0  0  0  0  0  0  0  0
   10.2603  -15.6462   24.0093 O   0  0  0  0  0  0  0  0  0  0  0  0
    6.5514  -10.6159   25.8764 O   0  0  0  0  0  0  0  0  0  0  0  0
    6.8563  -11.9479   26.1673 C   0  0  0  0  0  0  0  0  0  0  0  0
    5.9880  -12.9753   25.8653 C   0  0  0  0  0  0  0  0  0  0  0  0
    6.3377  -14.2743   26.1738 C   0  0  0  0  0  0  0  0  0  0  0  0
    7.5402  -14.5964   26.7825 C   0  0  0  0  0  0  0  0  0  0  0  0
    7.8856  -16.0001   27.1061 C   0  0  0  0  0  0  0  0  0  0  0  0
    9.0712  -16.5194   26.3237 C   0  0  2  0  0  0  0  0  0  0  0  0
    8.6238  -16.9152   25.0027 N   0  0  0  0  0  0  0  0  0  0  0  0
    9.7651  -17.6169   26.9992 C   0  0  0  0  0  0  0  0  0  0  0  0
   10.3009  -17.5178   28.1297 O   0  0  0  0  0  0  0  0  0  0  0  0
    8.3859  -13.5374   27.0703 C   0  0  0  0  0  0  0  0  0  0  0  0
    8.0601  -12.2260   26.7718 C   0  0  0  0  0  0  0  0  0  0  0  0
    9.8651  -18.8786   26.3869 O   0  0  0  0  0  0  0  0  0  0  0  0
  1  2  1  0
  2  3  2  0
  4  2  1  0
  4  5  1  0
  5  6  1  0
  6  7  1  6
  8  6  1  0
  9  8  2  0
 11 10  1  6
 11 12  1  0
 11 13  1  0
 13 15  1  0
 13 14  1  6
 14  8  1  0
 15 16  2  0
 18 17  1  0
 18 28  2  0
 19 18  1  0
 20 19  2  0
 20 21  1  0
 21 27  2  0
 22 21  1  0
 23 22  1  1
 24 23  1  0
 24 15  1  0
 25 29  1  0
 25 23  1  0
 26 25  2  0
 27 28  1  0
M  END
$$$$
