QTY.pdb
     RDKit          3D

 29 29  0  0  1  0  0  0  0  0999 V2000
    8.2663  -12.6127   15.1543 N   0  0  0  0  0  0  0  0  0  0  0  0
    8.1176  -13.9968   14.9129 C   0  0  0  0  0  0  0  0  0  0  0  0
    7.5136  -14.4071   13.9047 O   0  0  0  0  0  0  0  0  0  0  0  0
    8.7060  -14.9496   15.9022 C   0  0  0  0  0  0  0  0  0  0  0  0
    9.3578  -14.1483   16.9791 C   0  0  0  0  0  0  0  0  0  0  0  0
    9.9799  -15.0228   18.0426 C   0  0  2  0  0  0  0  0  0  0  0  0
    9.4345  -16.3784   17.8454 N   0  0  0  0  0  0  0  0  0  0  0  0
    9.6853  -14.5539   19.4149 C   0  0  0  0  0  0  0  0  0  0  0  0
    9.9954  -13.4227   19.7684 O   0  0  0  0  0  0  0  0  0  0  0  0
    6.2356  -14.8600   21.4250 C   0  0  0  0  0  0  0  0  0  0  0  0
    7.3688  -15.4945   22.1567 C   0  0  1  0  0  0  0  0  0  0  0  0
    7.2671  -16.8859   21.9405 O   0  0  0  0  0  0  0  0  0  0  0  0
    8.7172  -15.0915   21.6843 C   0  0  2  0  0  0  0  0  0  0  0  0
    9.0391  -15.4116   20.3374 N   0  0  0  0  0  0  0  0  0  0  0  0
    9.7614  -15.6251   22.5992 C   0  0  0  0  0  0  0  0  0  0  0  0
   10.9446  -15.1839   22.6031 O   0  0  0  0  0  0  0  0  0  0  0  0
   10.8214  -14.8185   30.9906 O   0  0  0  0  0  0  0  0  0  0  0  0
   10.4834  -14.9671   29.6432 C   0  0  0  0  0  0  0  0  0  0  0  0
   10.5297  -16.1923   29.0127 C   0  0  0  0  0  0  0  0  0  0  0  0
   10.1854  -16.2845   27.6793 C   0  0  0  0  0  0  0  0  0  0  0  0
    9.7895  -15.1845   26.9355 C   0  0  0  0  0  0  0  0  0  0  0  0
    9.4307  -15.3140   25.5040 C   0  0  0  0  0  0  0  0  0  0  0  0
    9.9049  -16.6093   24.8839 C   0  0  2  0  0  0  0  0  0  0  0  0
    9.4442  -16.6675   23.5105 N   0  0  0  0  0  0  0  0  0  0  0  0
    9.4811  -17.7915   25.6356 C   0  0  0  0  0  0  0  0  0  0  0  0
   10.2734  -18.6313   26.1275 O   0  0  0  0  0  0  0  0  0  0  0  0
    9.7556  -13.9712   27.6036 C   0  0  0  0  0  0  0  0  0  0  0  0
   10.0955  -13.8507   28.9396 C   0  0  0  0  0  0  0  0  0  0  0  0
    8.1149  -18.0472   25.8473 O   0  0  0  0  0  0  0  0  0  0  0  0
  1  2  1  0
  2  3  2  0
  4  2  1  0
  4  5  1  0
  5  6  1  0
  6  7  1  1
  8  6  1  0
  9  8  2  0
 11 10  1  6
 11 12  1  0
 11 13  1  0
 13 15  1  0
 13 14  1  6
 14  8  1  0
 15 16  2  0
 18 17  1  0
 18 28  2  0
 19 18  1  0
 20 19  2  0
 20 21  1  0
 21 27  2  0
 22 21  1  0
 23 22  1  1
 24 23  1  0
 24 15  1  0
 25 29  1  0
 25 23  1  0
 26 25  2  0
 27 28  1  0
M  END
$$$$
