QTY.pdb
     RDKit          3D

 29 29  0  0  1  0  0  0  0  0999 V2000
   13.3559  -17.1532   15.2139 N   0  0  0  0  0  0  0  0  0  0  0  0
   12.0647  -17.6947   15.4031 C   0  0  0  0  0  0  0  0  0  0  0  0
   11.7466  -18.7812   14.8856 O   0  0  0  0  0  0  0  0  0  0  0  0
   11.0961  -16.9250   16.2411 C   0  0  0  0  0  0  0  0  0  0  0  0
   11.7268  -16.6911   17.5731 C   0  0  0  0  0  0  0  0  0  0  0  0
   10.8896  -17.2411   18.7042 C   0  0  2  0  0  0  0  0  0  0  0  0
    9.6613  -17.7828   18.0943 N   0  0  0  0  0  0  0  0  0  0  0  0
   10.5435  -16.2150   19.7127 C   0  0  0  0  0  0  0  0  0  0  0  0
   11.4052  -15.4759   20.1728 O   0  0  0  0  0  0  0  0  0  0  0  0
    7.0115  -13.9462   19.7972 C   0  0  0  0  0  0  0  0  0  0  0  0
    7.3339  -14.7202   21.0297 C   0  0  1  0  0  0  0  0  0  0  0  0
    6.5550  -15.8969   20.9890 O   0  0  0  0  0  0  0  0  0  0  0  0
    8.7493  -15.1547   21.1385 C   0  0  2  0  0  0  0  0  0  0  0  0
    9.2068  -16.0764   20.1580 N   0  0  0  0  0  0  0  0  0  0  0  0
    9.0195  -15.6840   22.5020 C   0  0  0  0  0  0  0  0  0  0  0  0
    9.2544  -16.9059   22.7171 O   0  0  0  0  0  0  0  0  0  0  0  0
   11.1354  -15.6884   31.1041 O   0  0  0  0  0  0  0  0  0  0  0  0
   10.7650  -15.3299   29.8056 C   0  0  0  0  0  0  0  0  0  0  0  0
   11.0481  -16.1324   28.7209 C   0  0  0  0  0  0  0  0  0  0  0  0
   10.6599  -15.7316   27.4586 C   0  0  0  0  0  0  0  0  0  0  0  0
    9.9886  -14.5412   27.2296 C   0  0  0  0  0  0  0  0  0  0  0  0
    9.5892  -14.1353   25.8621 C   0  0  0  0  0  0  0  0  0  0  0  0
    9.3116  -15.3078   24.9478 C   0  0  2  0  0  0  0  0  0  0  0  0
    9.0193  -14.8068   23.6191 N   0  0  0  0  0  0  0  0  0  0  0  0
    8.2361  -16.1716   25.4370 C   0  0  0  0  0  0  0  0  0  0  0  0
    7.0150  -15.9326   25.2732 O   0  0  0  0  0  0  0  0  0  0  0  0
    9.7224  -13.7621   28.3439 C   0  0  0  0  0  0  0  0  0  0  0  0
   10.1002  -14.1402   29.6204 C   0  0  0  0  0  0  0  0  0  0  0  0
    8.5363  -17.3523   26.1388 O   0  0  0  0  0  0  0  0  0  0  0  0
  1  2  1  0
  2  3  2  0
  4  2  1  0
  4  5  1  0
  5  6  1  0
  6  7  1  6
  8  6  1  0
  9  8  2  0
 11 10  1  6
 11 12  1  0
 11 13  1  0
 13 15  1  0
 13 14  1  6
 14  8  1  0
 15 16  2  0
 18 17  1  0
 18 28  2  0
 19 18  1  0
 20 19  2  0
 20 21  1  0
 21 27  2  0
 22 21  1  0
 23 22  1  1
 24 23  1  0
 24 15  1  0
 25 29  1  0
 25 23  1  0
 26 25  2  0
 27 28  1  0
M  END
$$$$
