QTY.pdb
     RDKit          3D

 29 29  0  0  1  0  0  0  0  0999 V2000
    9.6466  -12.1404   18.7850 N   0  0  0  0  0  0  0  0  0  0  0  0
    8.4480  -12.7933   18.4201 C   0  0  0  0  0  0  0  0  0  0  0  0
    7.5157  -12.1641   17.8870 O   0  0  0  0  0  0  0  0  0  0  0  0
    8.3349  -14.2581   18.6932 C   0  0  0  0  0  0  0  0  0  0  0  0
    9.5377  -14.6737   19.4725 C   0  0  0  0  0  0  0  0  0  0  0  0
    9.5478  -16.1576   19.7563 C   0  0  2  0  0  0  0  0  0  0  0  0
    8.9881  -16.8185   18.5630 N   0  0  0  0  0  0  0  0  0  0  0  0
    8.7548  -16.5178   20.9527 C   0  0  0  0  0  0  0  0  0  0  0  0
    7.5824  -16.8565   20.8461 O   0  0  0  0  0  0  0  0  0  0  0  0
    7.9753  -19.1486   22.2736 C   0  0  0  0  0  0  0  0  0  0  0  0
    8.7480  -18.5675   23.4083 C   0  0  1  0  0  0  0  0  0  0  0  0
   10.0728  -19.0391   23.2847 O   0  0  0  0  0  0  0  0  0  0  0  0
    8.8265  -17.0850   23.4122 C   0  0  2  0  0  0  0  0  0  0  0  0
    9.3457  -16.4743   22.2384 N   0  0  0  0  0  0  0  0  0  0  0  0
    9.5775  -16.6148   24.6069 C   0  0  0  0  0  0  0  0  0  0  0  0
   10.8059  -16.3257   24.5610 O   0  0  0  0  0  0  0  0  0  0  0  0
    5.9112  -10.9677   25.2260 O   0  0  0  0  0  0  0  0  0  0  0  0
    6.5964  -11.9957   25.8785 C   0  0  0  0  0  0  0  0  0  0  0  0
    7.9438  -11.9087   26.1576 C   0  0  0  0  0  0  0  0  0  0  0  0
    8.5732  -12.9528   26.8046 C   0  0  0  0  0  0  0  0  0  0  0  0
    7.9013  -14.1012   27.1917 C   0  0  0  0  0  0  0  0  0  0  0  0
    8.6054  -15.2078   27.8803 C   0  0  0  0  0  0  0  0  0  0  0  0
    9.6087  -15.9179   26.9990 C   0  0  2  0  0  0  0  0  0  0  0  0
    8.9147  -16.4772   25.8556 N   0  0  0  0  0  0  0  0  0  0  0  0
   10.3693  -16.9452   27.7121 C   0  0  0  0  0  0  0  0  0  0  0  0
   11.1441  -16.7062   28.6699 O   0  0  0  0  0  0  0  0  0  0  0  0
    6.5492  -14.1517   26.8938 C   0  0  0  0  0  0  0  0  0  0  0  0
    5.8936  -13.1193   26.2463 C   0  0  0  0  0  0  0  0  0  0  0  0
   10.2604  -18.2967   27.3402 O   0  0  0  0  0  0  0  0  0  0  0  0
  1  2  1  0
  2  3  2  0
  4  2  1  0
  4  5  1  0
  5  6  1  0
  6  7  1  6
  8  6  1  0
  9  8  2  0
 11 10  1  6
 11 12  1  0
 11 13  1  0
 13 15  1  0
 13 14  1  6
 14  8  1  0
 15 16  2  0
 18 17  1  0
 18 28  2  0
 19 18  1  0
 20 19  2  0
 20 21  1  0
 21 27  2  0
 22 21  1  0
 23 22  1  1
 24 23  1  0
 24 15  1  0
 25 29  1  0
 25 23  1  0
 26 25  2  0
 27 28  1  0
M  END
$$$$
