FLT.pdb
     RDKit          3D

 27 27  0  0  1  0  0  0  0  0999 V2000
   28.0817  -21.9846  -15.4370 N   0  0  0  0  0  0  0  0  0  0  0  0
   27.3761  -20.8175  -15.0045 C   0  0  1  0  0  0  0  0  0  0  0  0
   27.1154  -19.9091  -16.1902 C   0  0  0  0  0  0  0  0  0  0  0  0
   26.6973  -18.5968  -15.6610 C   0  0  0  0  0  0  0  0  0  0  0  0
   27.6334  -17.6350  -15.3495 C   0  0  0  0  0  0  0  0  0  0  0  0
   27.2348  -16.4136  -14.8564 C   0  0  0  0  0  0  0  0  0  0  0  0
   25.8930  -16.1420  -14.6699 C   0  0  0  0  0  0  0  0  0  0  0  0
   24.9448  -17.0932  -14.9766 C   0  0  0  0  0  0  0  0  0  0  0  0
   25.3638  -18.3294  -15.4766 C   0  0  0  0  0  0  0  0  0  0  0  0
   26.1171  -21.1507  -14.2834 C   0  0  0  0  0  0  0  0  0  0  0  0
   25.4289  -22.1125  -14.7579 O   0  0  0  0  0  0  0  0  0  0  0  0
   26.7829  -21.8710  -10.6127 C   0  0  0  0  0  0  0  0  0  0  0  0
   26.3062  -20.4120  -10.5609 C   0  0  2  0  0  0  0  0  0  0  0  0
   26.5751  -19.9038   -9.1765 C   0  0  0  0  0  0  0  0  0  0  0  0
   24.8674  -20.4225  -10.9309 C   0  0  0  0  0  0  0  0  0  0  0  0
   24.5771  -20.8319  -12.3487 C   0  0  2  0  0  0  0  0  0  0  0  0
   25.7152  -20.4351  -13.1373 N   0  0  0  0  0  0  0  0  0  0  0  0
   23.3605  -20.1838  -12.9032 C   0  0  0  0  0  0  0  0  0  0  0  0
   22.8457  -19.2186  -12.2856 O   0  0  0  0  0  0  0  0  0  0  0  0
   22.4445  -18.9077  -16.6490 C   0  0  0  0  0  0  0  0  0  0  0  0
   21.4428  -19.8509  -16.0602 C   0  0  1  0  0  0  0  0  0  0  0  0
   21.6995  -21.1238  -16.6028 O   0  0  0  0  0  0  0  0  0  0  0  0
   21.5381  -19.9870  -14.5740 C   0  0  2  0  0  0  0  0  0  0  0  0
   22.7337  -20.5873  -14.0983 N   0  0  0  0  0  0  0  0  0  0  0  0
   20.3321  -20.7440  -14.1164 C   0  0  0  0  0  0  0  0  0  0  0  0
   20.4405  -21.8057  -13.4514 O   0  0  0  0  0  0  0  0  0  0  0  0
   19.0598  -20.2921  -14.4153 O   0  0  0  0  0  0  0  0  0  0  0  0
  2  1  1  6
  2  3  1  0
  3  4  1  0
  4  9  2  0
  5  4  1  0
  5  6  2  0
  6  7  1  0
  7  8  2  0
  9  8  1  0
 10 17  1  0
 10  2  1  0
 11 10  2  0
 13 12  1  1
 13 15  1  0
 14 13  1  0
 16 15  1  1
 16 17  1  0
 18 16  1  0
 19 18  2  0
 21 20  1  6
 21 23  1  0
 21 22  1  0
 23 25  1  0
 23 24  1  6
 24 18  1  0
 25 27  1  0
 26 25  2  0
M  END
$$$$
