FLT.pdb
     RDKit          3D

 27 27  0  0  1  0  0  0  0  0999 V2000
   26.1538  -21.5505   -8.9367 N   0  0  0  0  0  0  0  0  0  0  0  0
   26.2708  -20.1357   -9.1144 C   0  0  1  0  0  0  0  0  0  0  0  0
   27.6198  -19.6664   -8.6058 C   0  0  0  0  0  0  0  0  0  0  0  0
   27.6213  -19.8250   -7.1390 C   0  0  0  0  0  0  0  0  0  0  0  0
   28.7625  -19.5780   -6.4074 C   0  0  0  0  0  0  0  0  0  0  0  0
   28.7553  -19.7284   -5.0396 C   0  0  0  0  0  0  0  0  0  0  0  0
   27.6039  -20.1282   -4.3888 C   0  0  0  0  0  0  0  0  0  0  0  0
   26.4547  -20.3790   -5.1060 C   0  0  0  0  0  0  0  0  0  0  0  0
   26.4763  -20.2222   -6.4948 C   0  0  0  0  0  0  0  0  0  0  0  0
   26.0437  -19.7209  -10.5259 C   0  0  0  0  0  0  0  0  0  0  0  0
   26.0357  -18.4674  -10.7548 O   0  0  0  0  0  0  0  0  0  0  0  0
   28.2811  -19.3040  -14.0684 C   0  0  0  0  0  0  0  0  0  0  0  0
   28.1664  -20.7349  -13.5227 C   0  0  2  0  0  0  0  0  0  0  0  0
   29.1325  -21.5846  -14.2921 C   0  0  0  0  0  0  0  0  0  0  0  0
   26.7458  -21.1383  -13.6852 C   0  0  0  0  0  0  0  0  0  0  0  0
   25.7535  -20.2927  -12.9354 C   0  0  2  0  0  0  0  0  0  0  0  0
   25.8488  -20.6711  -11.5489 N   0  0  0  0  0  0  0  0  0  0  0  0
   24.3544  -20.4957  -13.3924 C   0  0  0  0  0  0  0  0  0  0  0  0
   24.0623  -20.2623  -14.5917 O   0  0  0  0  0  0  0  0  0  0  0  0
   22.4314  -23.4294  -13.9540 C   0  0  0  0  0  0  0  0  0  0  0  0
   21.5516  -22.5705  -13.1007 C   0  0  1  0  0  0  0  0  0  0  0  0
   21.6094  -23.0851  -11.7920 O   0  0  0  0  0  0  0  0  0  0  0  0
   21.9886  -21.1424  -13.0235 C   0  0  2  0  0  0  0  0  0  0  0  0
   23.3135  -20.9411  -12.5544 N   0  0  0  0  0  0  0  0  0  0  0  0
   20.9958  -20.4168  -12.1720 C   0  0  0  0  0  0  0  0  0  0  0  0
   21.3506  -19.8041  -11.1328 O   0  0  0  0  0  0  0  0  0  0  0  0
   19.6548  -20.4017  -12.5089 O   0  0  0  0  0  0  0  0  0  0  0  0
  2  1  1  6
  2  3  1  0
  3  4  1  0
  4  9  2  0
  5  4  1  0
  5  6  2  0
  6  7  1  0
  7  8  2  0
  9  8  1  0
 10 17  1  0
 10  2  1  0
 11 10  2  0
 13 12  1  6
 13 15  1  0
 14 13  1  0
 16 15  1  6
 16 17  1  0
 18 16  1  0
 19 18  2  0
 21 20  1  6
 21 23  1  0
 21 22  1  0
 23 25  1  0
 23 24  1  1
 24 18  1  0
 25 27  1  0
 26 25  2  0
M  END
$$$$
