FLT.pdb
     RDKit          3D

 27 27  0  0  1  0  0  0  0  0999 V2000
   20.8143  -20.2712  -14.0032 N   0  0  0  0  0  0  0  0  0  0  0  0
   21.8220  -21.2686  -13.8117 C   0  0  1  0  0  0  0  0  0  0  0  0
   21.5587  -22.4446  -14.7318 C   0  0  0  0  0  0  0  0  0  0  0  0
   20.2561  -23.0235  -14.3515 C   0  0  0  0  0  0  0  0  0  0  0  0
   19.1028  -22.6457  -15.0039 C   0  0  0  0  0  0  0  0  0  0  0  0
   17.8918  -23.1906  -14.6429 C   0  0  0  0  0  0  0  0  0  0  0  0
   17.8227  -24.1207  -13.6235 C   0  0  0  0  0  0  0  0  0  0  0  0
   18.9667  -24.5089  -12.9616 C   0  0  0  0  0  0  0  0  0  0  0  0
   20.1899  -23.9473  -13.3386 C   0  0  0  0  0  0  0  0  0  0  0  0
   23.1968  -20.7280  -13.9943 C   0  0  0  0  0  0  0  0  0  0  0  0
   23.3100  -19.7084  -14.7502 O   0  0  0  0  0  0  0  0  0  0  0  0
   28.6027  -21.6207  -11.3005 C   0  0  0  0  0  0  0  0  0  0  0  0
   27.9498  -21.0992  -12.5890 C   0  0  2  0  0  0  0  0  0  0  0  0
   28.3293  -19.6557  -12.7288 C   0  0  0  0  0  0  0  0  0  0  0  0
   26.4888  -21.3279  -12.4468 C   0  0  0  0  0  0  0  0  0  0  0  0
   25.6567  -20.8796  -13.6167 C   0  0  2  0  0  0  0  0  0  0  0  0
   24.3091  -21.3189  -13.3609 N   0  0  0  0  0  0  0  0  0  0  0  0
   26.1116  -21.4562  -14.9083 C   0  0  0  0  0  0  0  0  0  0  0  0
   26.3358  -22.6900  -14.9826 O   0  0  0  0  0  0  0  0  0  0  0  0
   24.5377  -21.9083  -18.3692 C   0  0  0  0  0  0  0  0  0  0  0  0
   25.7798  -21.0775  -18.4503 C   0  0  1  0  0  0  0  0  0  0  0  0
   25.3816  -19.7280  -18.4158 O   0  0  0  0  0  0  0  0  0  0  0  0
   26.7210  -21.2801  -17.3060 C   0  0  2  0  0  0  0  0  0  0  0  0
   26.3122  -20.6970  -16.0776 N   0  0  0  0  0  0  0  0  0  0  0  0
   28.0592  -20.7653  -17.7317 C   0  0  0  0  0  0  0  0  0  0  0  0
   29.0406  -21.5380  -17.8766 O   0  0  0  0  0  0  0  0  0  0  0  0
   28.2515  -19.4182  -17.9779 O   0  0  0  0  0  0  0  0  0  0  0  0
  2  1  1  6
  2  3  1  0
  3  4  1  0
  4  9  2  0
  5  4  1  0
  5  6  2  0
  6  7  1  0
  7  8  2  0
  9  8  1  0
 10 17  1  0
 10  2  1  0
 11 10  2  0
 13 12  1  1
 13 15  1  0
 14 13  1  0
 16 15  1  1
 16 17  1  0
 18 16  1  0
 19 18  2  0
 21 20  1  1
 21 23  1  0
 21 22  1  0
 23 25  1  0
 23 24  1  1
 24 18  1  0
 25 27  1  0
 26 25  2  0
M  END
$$$$
