FLT.pdb
     RDKit          3D

 27 27  0  0  1  0  0  0  0  0999 V2000
   26.4501  -21.7010   -9.2179 N   0  0  0  0  0  0  0  0  0  0  0  0
   26.1269  -20.3072   -9.2130 C   0  0  1  0  0  0  0  0  0  0  0  0
   27.2597  -19.5221   -8.5811 C   0  0  0  0  0  0  0  0  0  0  0  0
   27.3222  -19.9009   -7.1565 C   0  0  0  0  0  0  0  0  0  0  0  0
   26.2016  -20.3671   -6.5043 C   0  0  0  0  0  0  0  0  0  0  0  0
   26.2687  -20.7183   -5.1755 C   0  0  0  0  0  0  0  0  0  0  0  0
   27.4600  -20.6061   -4.4846 C   0  0  0  0  0  0  0  0  0  0  0  0
   28.5893  -20.1417   -5.1224 C   0  0  0  0  0  0  0  0  0  0  0  0
   28.5068  -19.7886   -6.4724 C   0  0  0  0  0  0  0  0  0  0  0  0
   25.7989  -19.7965  -10.5722 C   0  0  0  0  0  0  0  0  0  0  0  0
   25.2152  -18.6651  -10.6278 O   0  0  0  0  0  0  0  0  0  0  0  0
   28.9191  -19.4979  -12.9698 C   0  0  0  0  0  0  0  0  0  0  0  0
   28.2778  -20.8649  -13.2503 C   0  0  2  0  0  0  0  0  0  0  0  0
   29.2487  -21.6516  -14.0784 C   0  0  0  0  0  0  0  0  0  0  0  0
   26.9847  -20.5953  -13.9301 C   0  0  0  0  0  0  0  0  0  0  0  0
   25.9160  -20.0012  -13.0544 C   0  0  2  0  0  0  0  0  0  0  0  0
   26.1204  -20.5321  -11.7311 N   0  0  0  0  0  0  0  0  0  0  0  0
   24.5412  -20.3443  -13.5012 C   0  0  0  0  0  0  0  0  0  0  0  0
   24.1675  -20.0007  -14.6503 O   0  0  0  0  0  0  0  0  0  0  0  0
   22.8496  -23.3497  -14.5038 C   0  0  0  0  0  0  0  0  0  0  0  0
   21.9983  -22.7580  -13.4245 C   0  0  1  0  0  0  0  0  0  0  0  0
   22.2742  -23.4668  -12.2404 O   0  0  0  0  0  0  0  0  0  0  0  0
   22.2883  -21.3180  -13.1440 C   0  0  2  0  0  0  0  0  0  0  0  0
   23.6109  -21.0426  -12.7070 N   0  0  0  0  0  0  0  0  0  0  0  0
   21.2784  -20.8447  -12.1475 C   0  0  0  0  0  0  0  0  0  0  0  0
   20.0456  -20.9036  -12.3882 O   0  0  0  0  0  0  0  0  0  0  0  0
   21.6780  -20.3274  -10.9289 O   0  0  0  0  0  0  0  0  0  0  0  0
  2  1  1  6
  2  3  1  0
  3  4  1  0
  4  9  2  0
  5  4  1  0
  5  6  2  0
  6  7  1  0
  7  8  2  0
  9  8  1  0
 10 17  1  0
 10  2  1  0
 11 10  2  0
 13 12  1  6
 13 15  1  0
 14 13  1  0
 16 15  1  6
 16 17  1  0
 18 16  1  0
 19 18  2  0
 21 20  1  6
 21 23  1  0
 21 22  1  0
 23 25  1  0
 23 24  1  1
 24 18  1  0
 25 27  1  0
 26 25  2  0
M  END
$$$$
