FLT.pdb
     RDKit          3D

 27 27  0  0  1  0  0  0  0  0999 V2000
   22.7809  -10.6111  -16.2873 N   0  0  0  0  0  0  0  0  0  0  0  0
   21.7509   -9.6507  -16.5394 C   0  0  1  0  0  0  0  0  0  0  0  0
   20.3960  -10.2656  -16.2478 C   0  0  0  0  0  0  0  0  0  0  0  0
   20.1475  -11.2989  -17.2712 C   0  0  0  0  0  0  0  0  0  0  0  0
   19.7960  -10.9445  -18.5555 C   0  0  0  0  0  0  0  0  0  0  0  0
   19.5660  -11.9146  -19.5040 C   0  0  0  0  0  0  0  0  0  0  0  0
   19.6856  -13.2515  -19.1763 C   0  0  0  0  0  0  0  0  0  0  0  0
   20.0363  -13.6221  -17.8966 C   0  0  0  0  0  0  0  0  0  0  0  0
   20.2670  -12.6263  -16.9433 C   0  0  0  0  0  0  0  0  0  0  0  0
   21.9541   -8.3881  -15.7774 C   0  0  0  0  0  0  0  0  0  0  0  0
   22.5799   -8.4870  -14.6718 O   0  0  0  0  0  0  0  0  0  0  0  0
   25.2251   -5.4316  -16.8320 C   0  0  0  0  0  0  0  0  0  0  0  0
   23.7226   -5.7116  -16.9820 C   0  0  2  0  0  0  0  0  0  0  0  0
   23.1818   -4.7255  -17.9731 C   0  0  0  0  0  0  0  0  0  0  0  0
   23.1308   -5.5894  -15.6248 C   0  0  0  0  0  0  0  0  0  0  0  0
   21.6670   -5.9232  -15.5355 C   0  0  2  0  0  0  0  0  0  0  0  0
   21.4762   -7.1530  -16.2607 N   0  0  0  0  0  0  0  0  0  0  0  0
   20.7951   -4.8768  -16.1290 C   0  0  0  0  0  0  0  0  0  0  0  0
   20.7174   -4.7815  -17.3791 O   0  0  0  0  0  0  0  0  0  0  0  0
   17.3284   -4.7526  -16.4316 C   0  0  0  0  0  0  0  0  0  0  0  0
   17.6754   -3.4317  -15.8197 C   0  0  1  0  0  0  0  0  0  0  0  0
   17.4111   -3.5287  -14.4408 O   0  0  0  0  0  0  0  0  0  0  0  0
   19.1169   -3.0585  -15.9586 C   0  0  2  0  0  0  0  0  0  0  0  0
   20.0350   -3.9668  -15.3686 N   0  0  0  0  0  0  0  0  0  0  0  0
   19.2784   -1.6822  -15.3960 C   0  0  0  0  0  0  0  0  0  0  0  0
   20.0339   -1.4617  -14.4153 O   0  0  0  0  0  0  0  0  0  0  0  0
   18.5963   -0.6113  -15.9439 O   0  0  0  0  0  0  0  0  0  0  0  0
  2  1  1  1
  2  3  1  0
  3  4  1  0
  4  9  2  0
  5  4  1  0
  5  6  2  0
  6  7  1  0
  7  8  2  0
  9  8  1  0
 10 17  1  0
 10  2  1  0
 11 10  2  0
 13 12  1  1
 13 15  1  0
 14 13  1  0
 16 15  1  6
 16 17  1  0
 18 16  1  0
 19 18  2  0
 21 20  1  6
 21 23  1  0
 21 22  1  0
 23 25  1  0
 23 24  1  1
 24 18  1  0
 25 27  1  0
 26 25  2  0
M  END
$$$$
