FLT.pdb
     RDKit          3D

 27 27  0  0  1  0  0  0  0  0999 V2000
   28.4391  -22.0349  -15.5793 N   0  0  0  0  0  0  0  0  0  0  0  0
   27.6477  -20.8907  -15.2453 C   0  0  1  0  0  0  0  0  0  0  0  0
   27.2788  -20.1377  -16.5085 C   0  0  0  0  0  0  0  0  0  0  0  0
   26.6283  -18.8778  -16.1009 C   0  0  0  0  0  0  0  0  0  0  0  0
   27.3830  -17.7767  -15.7594 C   0  0  0  0  0  0  0  0  0  0  0  0
   26.7682  -16.6053  -15.3803 C   0  0  0  0  0  0  0  0  0  0  0  0
   25.3896  -16.5240  -15.3390 C   0  0  0  0  0  0  0  0  0  0  0  0
   24.6210  -17.6160  -15.6775 C   0  0  0  0  0  0  0  0  0  0  0  0
   25.2586  -18.7993  -16.0606 C   0  0  0  0  0  0  0  0  0  0  0  0
   26.4415  -21.2483  -14.4495 C   0  0  0  0  0  0  0  0  0  0  0  0
   25.7552  -22.2354  -14.8718 O   0  0  0  0  0  0  0  0  0  0  0  0
   25.9056  -22.6110  -10.2747 C   0  0  0  0  0  0  0  0  0  0  0  0
   26.3481  -21.1466  -10.4103 C   0  0  2  0  0  0  0  0  0  0  0  0
   26.6483  -20.6418   -9.0311 C   0  0  0  0  0  0  0  0  0  0  0  0
   25.2374  -20.4288  -11.0872 C   0  0  0  0  0  0  0  0  0  0  0  0
   24.9436  -20.8866  -12.4894 C   0  0  2  0  0  0  0  0  0  0  0  0
   26.0849  -20.5278  -13.2914 N   0  0  0  0  0  0  0  0  0  0  0  0
   23.7324  -20.2491  -13.0671 C   0  0  0  0  0  0  0  0  0  0  0  0
   23.6598  -18.9955  -13.1056 O   0  0  0  0  0  0  0  0  0  0  0  0
   22.3638  -20.3339  -16.5251 C   0  0  0  0  0  0  0  0  0  0  0  0
   21.2466  -20.6888  -15.5948 C   0  0  1  0  0  0  0  0  0  0  0  0
   21.0906  -22.0866  -15.6447 O   0  0  0  0  0  0  0  0  0  0  0  0
   21.5106  -20.3339  -14.1662 C   0  0  2  0  0  0  0  0  0  0  0  0
   22.6388  -20.9703  -13.5847 N   0  0  0  0  0  0  0  0  0  0  0  0
   20.2638  -20.6294  -13.3946 C   0  0  0  0  0  0  0  0  0  0  0  0
   20.2400  -21.5206  -12.5079 O   0  0  0  0  0  0  0  0  0  0  0  0
   19.0991  -19.9253  -13.6390 O   0  0  0  0  0  0  0  0  0  0  0  0
  2  1  1  6
  2  3  1  0
  3  4  1  0
  4  9  2  0
  5  4  1  0
  5  6  2  0
  6  7  1  0
  7  8  2  0
  9  8  1  0
 10 17  1  0
 10  2  1  0
 11 10  2  0
 13 12  1  1
 13 15  1  0
 14 13  1  0
 16 15  1  1
 16 17  1  0
 18 16  1  0
 19 18  2  0
 21 20  1  6
 21 23  1  0
 21 22  1  0
 23 25  1  0
 23 24  1  1
 24 18  1  0
 25 27  1  0
 26 25  2  0
M  END
$$$$
