FLT.pdb
     RDKit          3D

 27 27  0  0  1  0  0  0  0  0999 V2000
   26.2964  -18.6788   -7.9842 N   0  0  0  0  0  0  0  0  0  0  0  0
   26.7934  -19.7865   -8.7412 C   0  0  1  0  0  0  0  0  0  0  0  0
   26.8506  -21.0212   -7.8631 C   0  0  0  0  0  0  0  0  0  0  0  0
   27.7567  -20.7241   -6.7372 C   0  0  0  0  0  0  0  0  0  0  0  0
   29.1187  -20.6519   -6.9326 C   0  0  0  0  0  0  0  0  0  0  0  0
   29.9568  -20.3743   -5.8770 C   0  0  0  0  0  0  0  0  0  0  0  0
   29.4393  -20.1657   -4.6130 C   0  0  0  0  0  0  0  0  0  0  0  0
   28.0798  -20.2344   -4.4013 C   0  0  0  0  0  0  0  0  0  0  0  0
   27.2403  -20.5173   -5.4825 C   0  0  0  0  0  0  0  0  0  0  0  0
   26.0000  -20.0303   -9.9769 C   0  0  0  0  0  0  0  0  0  0  0  0
   24.7476  -19.8077   -9.9004 O   0  0  0  0  0  0  0  0  0  0  0  0
   27.1385  -17.9456  -14.1241 C   0  0  0  0  0  0  0  0  0  0  0  0
   28.0332  -19.0444  -13.5317 C   0  0  2  0  0  0  0  0  0  0  0  0
   29.2245  -19.1827  -14.4310 C   0  0  0  0  0  0  0  0  0  0  0  0
   27.1980  -20.2699  -13.4438 C   0  0  0  0  0  0  0  0  0  0  0  0
   26.0593  -20.1960  -12.4640 C   0  0  2  0  0  0  0  0  0  0  0  0
   26.6098  -20.4834  -11.1644 N   0  0  0  0  0  0  0  0  0  0  0  0
   24.9790  -21.1741  -12.7537 C   0  0  0  0  0  0  0  0  0  0  0  0
   25.2265  -22.4027  -12.6675 O   0  0  0  0  0  0  0  0  0  0  0  0
   21.5676  -21.7073  -11.0575 C   0  0  0  0  0  0  0  0  0  0  0  0
   21.3924  -21.5269  -12.5328 C   0  0  1  0  0  0  0  0  0  0  0  0
   21.0214  -20.1865  -12.7478 O   0  0  0  0  0  0  0  0  0  0  0  0
   22.6385  -21.7632  -13.3252 C   0  0  2  0  0  0  0  0  0  0  0  0
   23.6706  -20.8087  -13.1258 N   0  0  0  0  0  0  0  0  0  0  0  0
   22.2439  -21.8422  -14.7656 C   0  0  0  0  0  0  0  0  0  0  0  0
   22.6796  -21.0173  -15.6087 O   0  0  0  0  0  0  0  0  0  0  0  0
   21.3845  -22.8308  -15.2087 O   0  0  0  0  0  0  0  0  0  0  0  0
  2  1  1  1
  2  3  1  0
  3  4  1  0
  4  9  2  0
  5  4  1  0
  5  6  2  0
  6  7  1  0
  7  8  2  0
  9  8  1  0
 10 17  1  0
 10  2  1  0
 11 10  2  0
 13 12  1  6
 13 15  1  0
 14 13  1  0
 16 15  1  6
 16 17  1  0
 18 16  1  0
 19 18  2  0
 21 20  1  1
 21 23  1  0
 21 22  1  0
 23 25  1  0
 23 24  1  6
 24 18  1  0
 25 27  1  0
 26 25  2  0
M  END
$$$$
