FLT.pdb
     RDKit          3D

 27 27  0  0  1  0  0  0  0  0999 V2000
   28.0145  -19.8919  -16.2303 N   0  0  0  0  0  0  0  0  0  0  0  0
   27.2802  -19.1768  -15.2320 C   0  0  1  0  0  0  0  0  0  0  0  0
   26.3812  -18.1515  -15.8950 C   0  0  0  0  0  0  0  0  0  0  0  0
   27.2440  -17.0717  -16.4111 C   0  0  0  0  0  0  0  0  0  0  0  0
   27.7342  -17.1194  -17.6979 C   0  0  0  0  0  0  0  0  0  0  0  0
   28.5383  -16.1080  -18.1714 C   0  0  0  0  0  0  0  0  0  0  0  0
   28.8606  -15.0368  -17.3604 C   0  0  0  0  0  0  0  0  0  0  0  0
   28.3785  -14.9745  -16.0714 C   0  0  0  0  0  0  0  0  0  0  0  0
   27.5628  -16.0086  -15.6036 C   0  0  0  0  0  0  0  0  0  0  0  0
   26.5094  -20.0830  -14.3372 C   0  0  0  0  0  0  0  0  0  0  0  0
   26.0291  -21.1351  -14.8722 O   0  0  0  0  0  0  0  0  0  0  0  0
   25.5076  -20.3458   -8.3083 C   0  0  0  0  0  0  0  0  0  0  0  0
   25.0665  -20.9376   -9.6550 C   0  0  2  0  0  0  0  0  0  0  0  0
   25.2739  -22.4204   -9.5800 C   0  0  0  0  0  0  0  0  0  0  0  0
   25.8811  -20.2665  -10.7005 C   0  0  0  0  0  0  0  0  0  0  0  0
   25.4992  -20.5985  -12.1168 C   0  0  2  0  0  0  0  0  0  0  0  0
   26.3255  -19.7854  -12.9716 N   0  0  0  0  0  0  0  0  0  0  0  0
   24.0724  -20.3120  -12.4162 C   0  0  0  0  0  0  0  0  0  0  0  0
   23.6518  -19.1322  -12.3204 O   0  0  0  0  0  0  0  0  0  0  0  0
   22.2207  -20.1443  -15.4378 C   0  0  0  0  0  0  0  0  0  0  0  0
   21.4323  -21.0689  -14.5642 C   0  0  1  0  0  0  0  0  0  0  0  0
   21.7201  -22.3822  -14.9803 O   0  0  0  0  0  0  0  0  0  0  0  0
   21.7900  -20.9864  -13.1145 C   0  0  2  0  0  0  0  0  0  0  0  0
   23.1418  -21.2942  -12.8079 N   0  0  0  0  0  0  0  0  0  0  0  0
   20.8485  -21.8790  -12.3704 C   0  0  0  0  0  0  0  0  0  0  0  0
   21.2640  -22.8781  -11.7299 O   0  0  0  0  0  0  0  0  0  0  0  0
   19.4890  -21.6259  -12.3685 O   0  0  0  0  0  0  0  0  0  0  0  0
  2  1  1  6
  2  3  1  0
  3  4  1  0
  4  9  2  0
  5  4  1  0
  5  6  2  0
  6  7  1  0
  7  8  2  0
  9  8  1  0
 10 17  1  0
 10  2  1  0
 11 10  2  0
 13 12  1  1
 13 15  1  0
 14 13  1  0
 16 15  1  1
 16 17  1  0
 18 16  1  0
 19 18  2  0
 21 20  1  6
 21 23  1  0
 21 22  1  0
 23 25  1  0
 23 24  1  6
 24 18  1  0
 25 27  1  0
 26 25  2  0
M  END
$$$$
