FLT.pdb
     RDKit          3D

 27 27  0  0  1  0  0  0  0  0999 V2000
   18.0753  -12.5256  -16.6821 N   0  0  0  0  0  0  0  0  0  0  0  0
   18.7476  -11.4649  -17.3676 C   0  0  1  0  0  0  0  0  0  0  0  0
   17.8220  -10.8583  -18.4040 C   0  0  0  0  0  0  0  0  0  0  0  0
   17.8301  -11.7473  -19.5815 C   0  0  0  0  0  0  0  0  0  0  0  0
   18.9950  -11.9745  -20.2814 C   0  0  0  0  0  0  0  0  0  0  0  0
   18.9938  -12.8051  -21.3786 C   0  0  0  0  0  0  0  0  0  0  0  0
   17.8247  -13.4178  -21.7871 C   0  0  0  0  0  0  0  0  0  0  0  0
   16.6517  -13.2008  -21.0980 C   0  0  0  0  0  0  0  0  0  0  0  0
   16.6675  -12.3548  -19.9854 C   0  0  0  0  0  0  0  0  0  0  0  0
   19.2760  -10.4321  -16.4348 C   0  0  0  0  0  0  0  0  0  0  0  0
   18.5937  -10.2177  -15.3801 O   0  0  0  0  0  0  0  0  0  0  0  0
   22.1502  -10.0924  -13.3957 C   0  0  0  0  0  0  0  0  0  0  0  0
   22.6978  -10.3629  -14.8048 C   0  0  2  0  0  0  0  0  0  0  0  0
   24.1449  -10.7261  -14.6589 C   0  0  0  0  0  0  0  0  0  0  0  0
   22.4625   -9.1275  -15.5957 C   0  0  0  0  0  0  0  0  0  0  0  0
   21.0167   -8.7650  -15.7964 C   0  0  2  0  0  0  0  0  0  0  0  0
   20.4686   -9.7332  -16.7113 N   0  0  0  0  0  0  0  0  0  0  0  0
   20.8322   -7.4066  -16.3691 C   0  0  0  0  0  0  0  0  0  0  0  0
   21.3800   -7.1242  -17.4637 O   0  0  0  0  0  0  0  0  0  0  0  0
   17.5592   -5.5958  -17.3735 C   0  0  0  0  0  0  0  0  0  0  0  0
   18.3761   -4.7486  -16.4490 C   0  0  1  0  0  0  0  0  0  0  0  0
   17.8448   -4.9112  -15.1559 O   0  0  0  0  0  0  0  0  0  0  0  0
   19.8166   -5.1438  -16.3775 C   0  0  2  0  0  0  0  0  0  0  0  0
   20.0692   -6.3945  -15.7546 N   0  0  0  0  0  0  0  0  0  0  0  0
   20.5499   -4.0371  -15.6888 C   0  0  0  0  0  0  0  0  0  0  0  0
   20.5514   -2.8676  -16.1508 O   0  0  0  0  0  0  0  0  0  0  0  0
   21.2488   -4.2742  -14.5194 O   0  0  0  0  0  0  0  0  0  0  0  0
  2  1  1  1
  2  3  1  0
  3  4  1  0
  4  9  2  0
  5  4  1  0
  5  6  2  0
  6  7  1  0
  7  8  2  0
  9  8  1  0
 10 17  1  0
 10  2  1  0
 11 10  2  0
 13 12  1  1
 13 15  1  0
 14 13  1  0
 16 15  1  6
 16 17  1  0
 18 16  1  0
 19 18  2  0
 21 20  1  6
 21 23  1  0
 21 22  1  0
 23 25  1  0
 23 24  1  1
 24 18  1  0
 25 27  1  0
 26 25  2  0
M  END
$$$$
