FLT.pdb
     RDKit          3D

 27 27  0  0  1  0  0  0  0  0999 V2000
   28.0931  -20.0878  -16.0963 N   0  0  0  0  0  0  0  0  0  0  0  0
   27.3678  -19.3597  -15.1010 C   0  0  1  0  0  0  0  0  0  0  0  0
   26.4047  -18.3991  -15.7707 C   0  0  0  0  0  0  0  0  0  0  0  0
   27.2081  -17.3501  -16.4272 C   0  0  0  0  0  0  0  0  0  0  0  0
   27.8091  -16.3579  -15.6837 C   0  0  0  0  0  0  0  0  0  0  0  0
   28.5568  -15.3832  -16.3040 C   0  0  0  0  0  0  0  0  0  0  0  0
   28.7107  -15.3917  -17.6771 C   0  0  0  0  0  0  0  0  0  0  0  0
   28.1161  -16.3769  -18.4345 C   0  0  0  0  0  0  0  0  0  0  0  0
   27.3596  -17.3606  -17.7913 C   0  0  0  0  0  0  0  0  0  0  0  0
   26.6673  -20.2559  -14.1407 C   0  0  0  0  0  0  0  0  0  0  0  0
   26.2028  -21.3436  -14.6149 O   0  0  0  0  0  0  0  0  0  0  0  0
   25.7142  -20.1891   -8.0920 C   0  0  0  0  0  0  0  0  0  0  0  0
   25.2537  -20.8434   -9.4029 C   0  0  2  0  0  0  0  0  0  0  0  0
   25.4168  -22.3250   -9.2432 C   0  0  0  0  0  0  0  0  0  0  0  0
   26.0865  -20.2577  -10.4847 C   0  0  0  0  0  0  0  0  0  0  0  0
   25.7060  -20.6751  -11.8787 C   0  0  2  0  0  0  0  0  0  0  0  0
   26.5298  -19.9117  -12.7805 N   0  0  0  0  0  0  0  0  0  0  0  0
   24.2783  -20.4119  -12.1947 C   0  0  0  0  0  0  0  0  0  0  0  0
   23.8495  -19.2319  -12.1523 O   0  0  0  0  0  0  0  0  0  0  0  0
   22.4026  -21.0660  -15.4244 C   0  0  0  0  0  0  0  0  0  0  0  0
   21.6326  -21.6588  -14.2863 C   0  0  1  0  0  0  0  0  0  0  0  0
   21.9070  -23.0391  -14.2714 O   0  0  0  0  0  0  0  0  0  0  0  0
   22.0247  -21.1254  -12.9453 C   0  0  2  0  0  0  0  0  0  0  0  0
   23.3556  -21.4166  -12.5456 N   0  0  0  0  0  0  0  0  0  0  0  0
   21.0344  -21.6435  -11.9514 C   0  0  0  0  0  0  0  0  0  0  0  0
   21.3959  -22.3506  -10.9766 O   0  0  0  0  0  0  0  0  0  0  0  0
   19.6880  -21.3557  -12.0809 O   0  0  0  0  0  0  0  0  0  0  0  0
  2  1  1  6
  2  3  1  0
  3  4  1  0
  4  9  2  0
  5  4  1  0
  5  6  2  0
  6  7  1  0
  7  8  2  0
  9  8  1  0
 10 17  1  0
 10  2  1  0
 11 10  2  0
 13 12  1  1
 13 15  1  0
 14 13  1  0
 16 15  1  1
 16 17  1  0
 18 16  1  0
 19 18  2  0
 21 20  1  6
 21 23  1  0
 21 22  1  0
 23 25  1  0
 23 24  1  1
 24 18  1  0
 25 27  1  0
 26 25  2  0
M  END
$$$$
