FLT.pdb
     RDKit          3D

 27 27  0  0  1  0  0  0  0  0999 V2000
   27.3715  -20.7883  -16.2494 N   0  0  0  0  0  0  0  0  0  0  0  0
   27.0409  -20.1655  -15.0044 C   0  0  1  0  0  0  0  0  0  0  0  0
   26.5530  -18.7518  -15.2537 C   0  0  0  0  0  0  0  0  0  0  0  0
   27.6132  -18.0396  -15.9923 C   0  0  0  0  0  0  0  0  0  0  0  0
   27.3162  -17.3273  -17.1337 C   0  0  0  0  0  0  0  0  0  0  0  0
   28.3111  -16.6659  -17.8166 C   0  0  0  0  0  0  0  0  0  0  0  0
   29.6156  -16.7107  -17.3633 C   0  0  0  0  0  0  0  0  0  0  0  0
   29.9287  -17.4185  -16.2237 C   0  0  0  0  0  0  0  0  0  0  0  0
   28.9083  -18.0856  -15.5400 C   0  0  0  0  0  0  0  0  0  0  0  0
   26.0523  -20.9553  -14.2203 C   0  0  0  0  0  0  0  0  0  0  0  0
   25.3349  -21.7788  -14.8768 O   0  0  0  0  0  0  0  0  0  0  0  0
   27.7239  -20.9055  -10.0903 C   0  0  0  0  0  0  0  0  0  0  0  0
   26.2369  -20.5248  -10.1381 C   0  0  2  0  0  0  0  0  0  0  0  0
   25.8275  -20.1494   -8.7458 C   0  0  0  0  0  0  0  0  0  0  0  0
   25.5146  -21.7034  -10.6825 C   0  0  0  0  0  0  0  0  0  0  0  0
   24.9411  -21.5187  -12.0605 C   0  0  2  0  0  0  0  0  0  0  0  0
   25.9231  -20.7943  -12.8257 N   0  0  0  0  0  0  0  0  0  0  0  0
   23.6697  -20.7500  -12.0626 C   0  0  0  0  0  0  0  0  0  0  0  0
   23.6759  -19.5556  -11.6735 O   0  0  0  0  0  0  0  0  0  0  0  0
   22.0960  -19.4773  -14.9255 C   0  0  0  0  0  0  0  0  0  0  0  0
   21.0263  -20.2422  -14.2110 C   0  0  1  0  0  0  0  0  0  0  0  0
   20.9516  -21.5133  -14.8105 O   0  0  0  0  0  0  0  0  0  0  0  0
   21.3063  -20.4647  -12.7589 C   0  0  2  0  0  0  0  0  0  0  0  0
   22.4338  -21.2815  -12.4799 N   0  0  0  0  0  0  0  0  0  0  0  0
   20.0639  -21.0275  -12.1454 C   0  0  0  0  0  0  0  0  0  0  0  0
   20.0675  -22.1465  -11.5719 O   0  0  0  0  0  0  0  0  0  0  0  0
   18.8728  -20.3266  -12.1940 O   0  0  0  0  0  0  0  0  0  0  0  0
  2  1  1  6
  2  3  1  0
  3  4  1  0
  4  9  2  0
  5  4  1  0
  5  6  2  0
  6  7  1  0
  7  8  2  0
  9  8  1  0
 10 17  1  0
 10  2  1  0
 11 10  2  0
 13 12  1  1
 13 15  1  0
 14 13  1  0
 16 15  1  1
 16 17  1  0
 18 16  1  0
 19 18  2  0
 21 20  1  6
 21 23  1  0
 21 22  1  0
 23 25  1  0
 23 24  1  6
 24 18  1  0
 25 27  1  0
 26 25  2  0
M  END
$$$$
