FLT.pdb
     RDKit          3D

 27 27  0  0  1  0  0  0  0  0999 V2000
   23.4399  -14.0648  -18.1489 N   0  0  0  0  0  0  0  0  0  0  0  0
   23.2917  -13.3965  -16.8925 C   0  0  1  0  0  0  0  0  0  0  0  0
   24.6026  -12.7409  -16.5045 C   0  0  0  0  0  0  0  0  0  0  0  0
   25.5843  -13.8164  -16.2675 C   0  0  0  0  0  0  0  0  0  0  0  0
   25.5530  -14.5511  -15.1023 C   0  0  0  0  0  0  0  0  0  0  0  0
   26.4724  -15.5526  -14.8892 C   0  0  0  0  0  0  0  0  0  0  0  0
   27.4341  -15.8295  -15.8418 C   0  0  0  0  0  0  0  0  0  0  0  0
   27.4787  -15.1040  -17.0121 C   0  0  0  0  0  0  0  0  0  0  0  0
   26.5387  -14.0897  -17.2153 C   0  0  0  0  0  0  0  0  0  0  0  0
   22.1712  -12.4166  -16.9002 C   0  0  0  0  0  0  0  0  0  0  0  0
   21.9669  -11.7966  -17.9946 O   0  0  0  0  0  0  0  0  0  0  0  0
   17.6895  -12.4131  -16.8724 C   0  0  0  0  0  0  0  0  0  0  0  0
   18.4424  -13.0844  -15.7144 C   0  0  2  0  0  0  0  0  0  0  0  0
   17.4274  -13.8102  -14.8836 C   0  0  0  0  0  0  0  0  0  0  0  0
   19.1547  -12.0021  -14.9875 C   0  0  0  0  0  0  0  0  0  0  0  0
   20.2401  -11.3159  -15.7705 C   0  0  2  0  0  0  0  0  0  0  0  0
   21.3828  -12.1926  -15.7532 N   0  0  0  0  0  0  0  0  0  0  0  0
   20.6333  -10.0048  -15.1927 C   0  0  0  0  0  0  0  0  0  0  0  0
   21.0418   -9.9568  -14.0058 O   0  0  0  0  0  0  0  0  0  0  0  0
   23.2815   -7.4765  -16.4393 C   0  0  0  0  0  0  0  0  0  0  0  0
   21.9755   -6.7854  -16.2021 C   0  0  1  0  0  0  0  0  0  0  0  0
   21.3556   -6.6242  -17.4553 O   0  0  0  0  0  0  0  0  0  0  0  0
   21.0254   -7.5606  -15.3461 C   0  0  2  0  0  0  0  0  0  0  0  0
   20.5774   -8.7884  -15.9008 N   0  0  0  0  0  0  0  0  0  0  0  0
   19.8759   -6.6592  -15.0250 C   0  0  0  0  0  0  0  0  0  0  0  0
   18.7126   -6.9151  -15.4278 O   0  0  0  0  0  0  0  0  0  0  0  0
   20.0654   -5.5147  -14.2724 O   0  0  0  0  0  0  0  0  0  0  0  0
  2  1  1  6
  2  3  1  0
  3  4  1  0
  4  9  2  0
  5  4  1  0
  5  6  2  0
  6  7  1  0
  7  8  2  0
  9  8  1  0
 10 17  1  0
 10  2  1  0
 11 10  2  0
 13 12  1  6
 13 15  1  0
 14 13  1  0
 16 15  1  1
 16 17  1  0
 18 16  1  0
 19 18  2  0
 21 20  1  6
 21 23  1  0
 21 22  1  0
 23 25  1  0
 23 24  1  6
 24 18  1  0
 25 27  1  0
 26 25  2  0
M  END
$$$$
