DMP.pdb
     RDKit          3D

 24 24  0  0  1  0  0  0  0  0999 V2000
   28.8354  -19.1207  -16.4280 N   0  0  0  0  0  0  0  0  0  0  0  0
   28.1100  -18.4960  -15.2996 C   0  0  1  0  0  0  0  0  0  0  0  0
   27.2097  -17.4586  -15.9098 C   0  0  0  0  0  0  0  0  0  0  0  0
   26.7783  -17.7219  -17.2767 C   0  0  0  0  0  0  0  0  0  0  0  0
   27.2855  -18.6387  -17.9550 O   0  0  0  0  0  0  0  0  0  0  0  0
   27.3035  -19.5821  -14.7069 C   0  0  0  0  0  0  0  0  0  0  0  0
   26.8497  -20.5163  -15.3990 O   0  0  0  0  0  0  0  0  0  0  0  0
   25.7874  -16.9554  -17.8608 O   0  0  0  0  0  0  0  0  0  0  0  0
   27.4006  -20.2213   -8.2910 C   0  0  0  0  0  0  0  0  0  0  0  0
   25.6201  -20.3680   -8.6432 S   0  0  0  0  0  0  0  0  0  0  0  0
   25.3664  -21.0461  -10.3279 C   0  0  0  0  0  0  0  0  0  0  0  0
   26.2166  -20.2872  -11.2466 C   0  0  0  0  0  0  0  0  0  0  0  0
   26.2011  -20.6900  -12.7087 C   0  0  2  0  0  0  0  0  0  0  0  0
   27.0191  -19.5957  -13.3227 N   0  0  0  0  0  0  0  0  0  0  0  0
   24.8854  -20.6615  -13.3379 C   0  0  0  0  0  0  0  0  0  0  0  0
   24.3077  -19.5129  -13.4058 O   0  0  0  0  0  0  0  0  0  0  0  0
   24.1605  -21.7468  -13.8916 N   0  0  0  0  0  0  0  0  0  0  0  0
   24.7352  -23.1103  -13.8796 C   0  0  0  0  0  0  0  0  0  0  0  0
   23.6003  -24.0413  -14.1619 C   0  0  0  0  0  0  0  0  0  0  0  0
   22.7596  -23.2045  -15.0883 C   0  0  0  0  0  0  0  0  0  0  0  0
   22.8557  -21.8194  -14.4737 C   0  0  1  0  0  0  0  0  0  0  0  0
   21.7857  -21.8088  -13.4085 C   0  0  0  0  0  0  0  0  0  0  0  0
   22.0886  -22.0090  -12.2063 O   0  0  0  0  0  0  0  0  0  0  0  0
   20.4502  -21.5829  -13.7006 O   0  0  0  0  0  0  0  0  0  0  0  0
  2  1  1  6
  2  3  1  0
  3  4  1  0
  4  8  1  0
  5  4  2  0
  6  2  1  0
  7  6  2  0
  9 10  1  0
 10 11  1  0
 11 12  1  0
 13 12  1  1
 13 15  1  0
 13 14  1  0
 14  6  1  0
 15 17  1  0
 16 15  2  0
 17 18  1  0
 17 21  1  0
 19 18  1  0
 20 19  1  0
 20 21  1  0
 21 22  1  1
 22 23  2  0
 22 24  1  0
M  END
$$$$
