DMP.pdb
     RDKit          3D

 24 24  0  0  1  0  0  0  0  0999 V2000
   20.6831  -21.7346  -13.5266 N   0  0  0  0  0  0  0  0  0  0  0  0
   20.7709  -20.4666  -14.2844 C   0  0  1  0  0  0  0  0  0  0  0  0
   19.6901  -19.5793  -13.7332 C   0  0  0  0  0  0  0  0  0  0  0  0
   18.3340  -20.1051  -13.8237 C   0  0  0  0  0  0  0  0  0  0  0  0
   17.7921  -20.3242  -14.9265 O   0  0  0  0  0  0  0  0  0  0  0  0
   22.0994  -19.9099  -13.9583 C   0  0  0  0  0  0  0  0  0  0  0  0
   22.3315  -18.6851  -14.0190 O   0  0  0  0  0  0  0  0  0  0  0  0
   17.6077  -20.3764  -12.6794 O   0  0  0  0  0  0  0  0  0  0  0  0
   26.5026  -20.7176   -9.0659 C   0  0  0  0  0  0  0  0  0  0  0  0
   24.7343  -21.1104   -9.2520 S   0  0  0  0  0  0  0  0  0  0  0  0
   24.0664  -20.3046  -10.7576 C   0  0  0  0  0  0  0  0  0  0  0  0
   24.7993  -20.8340  -11.9089 C   0  0  0  0  0  0  0  0  0  0  0  0
   24.5205  -20.2103  -13.2630 C   0  0  2  0  0  0  0  0  0  0  0  0
   23.1588  -20.7574  -13.5629 N   0  0  0  0  0  0  0  0  0  0  0  0
   25.4136  -20.6429  -14.3320 C   0  0  0  0  0  0  0  0  0  0  0  0
   25.2251  -21.8312  -14.7903 O   0  0  0  0  0  0  0  0  0  0  0  0
   26.4672  -19.9120  -14.9367 N   0  0  0  0  0  0  0  0  0  0  0  0
   26.9076  -18.6230  -14.3587 C   0  0  0  0  0  0  0  0  0  0  0  0
   28.2383  -18.3266  -14.9716 C   0  0  0  0  0  0  0  0  0  0  0  0
   28.0670  -18.9215  -16.3434 C   0  0  0  0  0  0  0  0  0  0  0  0
   27.2998  -20.2015  -16.0634 C   0  0  1  0  0  0  0  0  0  0  0  0
   28.3682  -21.2060  -15.7041 C   0  0  0  0  0  0  0  0  0  0  0  0
   28.6096  -21.4686  -14.5000 O   0  0  0  0  0  0  0  0  0  0  0  0
   29.1154  -21.8698  -16.6638 O   0  0  0  0  0  0  0  0  0  0  0  0
  2  1  1  1
  2  3  1  0
  3  4  1  0
  4  8  1  0
  5  4  2  0
  6  2  1  0
  7  6  2  0
  9 10  1  0
 10 11  1  0
 11 12  1  0
 13 12  1  1
 13 15  1  0
 13 14  1  0
 14  6  1  0
 15 17  1  0
 16 15  2  0
 17 18  1  0
 17 21  1  0
 19 18  1  0
 20 19  1  0
 20 21  1  0
 21 22  1  1
 22 23  2  0
 22 24  1  0
M  END
$$$$
