DMP.pdb
     RDKit          3D

 24 24  0  0  1  0  0  0  0  0999 V2000
   20.3546  -20.0012  -14.1618 N   0  0  0  0  0  0  0  0  0  0  0  0
   21.2546  -21.1231  -13.8140 C   0  0  1  0  0  0  0  0  0  0  0  0
   21.3493  -21.9757  -15.0482 C   0  0  0  0  0  0  0  0  0  0  0  0
   20.3496  -23.0296  -15.1660 C   0  0  0  0  0  0  0  0  0  0  0  0
   19.4195  -23.1408  -14.3411 O   0  0  0  0  0  0  0  0  0  0  0  0
   22.5619  -20.4984  -13.5277 C   0  0  0  0  0  0  0  0  0  0  0  0
   22.9937  -19.5402  -14.2008 O   0  0  0  0  0  0  0  0  0  0  0  0
   20.4078  -23.9405  -16.2040 O   0  0  0  0  0  0  0  0  0  0  0  0
   27.7186  -20.2611   -7.6035 C   0  0  0  0  0  0  0  0  0  0  0  0
   26.1729  -20.7825   -8.4126 S   0  0  0  0  0  0  0  0  0  0  0  0
   26.3115  -20.5706  -10.2287 C   0  0  0  0  0  0  0  0  0  0  0  0
   25.0112  -20.8976  -10.8162 C   0  0  0  0  0  0  0  0  0  0  0  0
   24.7371  -20.4086  -12.2255 C   0  0  2  0  0  0  0  0  0  0  0  0
   23.3712  -20.9724  -12.4708 N   0  0  0  0  0  0  0  0  0  0  0  0
   25.6268  -20.9515  -13.2459 C   0  0  0  0  0  0  0  0  0  0  0  0
   25.5643  -22.2222  -13.4433 O   0  0  0  0  0  0  0  0  0  0  0  0
   26.5546  -20.2496  -14.0562 N   0  0  0  0  0  0  0  0  0  0  0  0
   26.9151  -18.8507  -13.7356 C   0  0  0  0  0  0  0  0  0  0  0  0
   28.1585  -18.5547  -14.5107 C   0  0  0  0  0  0  0  0  0  0  0  0
   27.9357  -19.3828  -15.7475 C   0  0  0  0  0  0  0  0  0  0  0  0
   27.3184  -20.6555  -15.1956 C   0  0  1  0  0  0  0  0  0  0  0  0
   28.5027  -21.4961  -14.7828 C   0  0  0  0  0  0  0  0  0  0  0  0
   28.8598  -21.5374  -13.5795 O   0  0  0  0  0  0  0  0  0  0  0  0
   29.2343  -22.2442  -15.6911 O   0  0  0  0  0  0  0  0  0  0  0  0
  2  1  1  6
  2  3  1  0
  3  4  1  0
  4  8  1  0
  5  4  2  0
  6  2  1  0
  7  6  2  0
  9 10  1  0
 10 11  1  0
 11 12  1  0
 13 12  1  1
 13 15  1  0
 13 14  1  0
 14  6  1  0
 15 17  1  0
 16 15  2  0
 17 18  1  0
 17 21  1  0
 19 18  1  0
 20 19  1  0
 20 21  1  0
 21 22  1  1
 22 23  2  0
 22 24  1  0
M  END
$$$$
