DMP.pdb
     RDKit          3D

 24 24  0  0  1  0  0  0  0  0999 V2000
   18.1349  -13.6182  -17.7306 N   0  0  0  0  0  0  0  0  0  0  0  0
   18.3969  -12.1858  -17.9937 C   0  0  1  0  0  0  0  0  0  0  0  0
   17.0534  -11.5117  -17.9897 C   0  0  0  0  0  0  0  0  0  0  0  0
   16.2448  -11.7078  -19.1861 C   0  0  0  0  0  0  0  0  0  0  0  0
   16.7146  -12.2466  -20.2092 O   0  0  0  0  0  0  0  0  0  0  0  0
   19.2012  -11.7204  -16.8458 C   0  0  0  0  0  0  0  0  0  0  0  0
   18.9553  -12.0884  -15.6789 O   0  0  0  0  0  0  0  0  0  0  0  0
   14.9251  -11.2980  -19.2173 O   0  0  0  0  0  0  0  0  0  0  0  0
   26.5525  -10.9875  -15.0521 C   0  0  0  0  0  0  0  0  0  0  0  0
   25.1034  -11.3708  -16.0860 S   0  0  0  0  0  0  0  0  0  0  0  0
   23.6019  -10.5930  -15.3769 C   0  0  0  0  0  0  0  0  0  0  0  0
   22.4666  -10.9606  -16.2248 C   0  0  0  0  0  0  0  0  0  0  0  0
   21.1155  -10.3622  -15.8834 C   0  0  2  0  0  0  0  0  0  0  0  0
   20.2857  -10.8350  -17.0374 N   0  0  0  0  0  0  0  0  0  0  0  0
   21.0747   -8.9042  -15.8805 C   0  0  0  0  0  0  0  0  0  0  0  0
   21.3169   -8.3220  -17.0030 O   0  0  0  0  0  0  0  0  0  0  0  0
   20.7952   -8.0424  -14.7900 N   0  0  0  0  0  0  0  0  0  0  0  0
   20.5088   -8.6035  -13.4510 C   0  0  0  0  0  0  0  0  0  0  0  0
   20.6479   -7.4692  -12.4875 C   0  0  0  0  0  0  0  0  0  0  0  0
   20.1723   -6.3136  -13.3263 C   0  0  0  0  0  0  0  0  0  0  0  0
   20.7709   -6.6156  -14.6886 C   0  0  1  0  0  0  0  0  0  0  0  0
   22.1703   -6.0536  -14.6143 C   0  0  0  0  0  0  0  0  0  0  0  0
   23.1509   -6.8196  -14.4451 O   0  0  0  0  0  0  0  0  0  0  0  0
   22.4322   -4.6976  -14.7266 O   0  0  0  0  0  0  0  0  0  0  0  0
  2  1  1  1
  2  3  1  0
  3  4  1  0
  4  8  1  0
  5  4  2  0
  6  2  1  0
  7  6  2  0
  9 10  1  0
 10 11  1  0
 11 12  1  0
 13 12  1  6
 13 15  1  0
 13 14  1  0
 14  6  1  0
 15 17  1  0
 16 15  2  0
 17 18  1  0
 17 21  1  0
 19 18  1  0
 20 19  1  0
 20 21  1  0
 21 22  1  1
 22 23  2  0
 22 24  1  0
M  END
$$$$
