DMP.pdb
     RDKit          3D

 24 24  0  0  1  0  0  0  0  0999 V2000
   27.9291  -20.5005  -13.6748 N   0  0  0  0  0  0  0  0  0  0  0  0
   26.4781  -20.7701  -13.7822 C   0  0  1  0  0  0  0  0  0  0  0  0
   26.3366  -21.8819  -14.7837 C   0  0  0  0  0  0  0  0  0  0  0  0
   26.6202  -21.5250  -16.1679 C   0  0  0  0  0  0  0  0  0  0  0  0
   25.8779  -21.8934  -17.1012 O   0  0  0  0  0  0  0  0  0  0  0  0
   26.0697  -21.2393  -12.4426 C   0  0  0  0  0  0  0  0  0  0  0  0
   25.6873  -22.4108  -12.2451 O   0  0  0  0  0  0  0  0  0  0  0  0
   27.7288  -20.7624  -16.4839 O   0  0  0  0  0  0  0  0  0  0  0  0
   27.1728  -19.0885   -4.9681 C   0  0  0  0  0  0  0  0  0  0  0  0
   27.3777  -18.9412   -6.7714 S   0  0  0  0  0  0  0  0  0  0  0  0
   26.1682  -20.0180   -7.6316 C   0  0  0  0  0  0  0  0  0  0  0  0
   26.4519  -19.9500   -9.0661 C   0  0  0  0  0  0  0  0  0  0  0  0
   25.5986  -20.7984   -9.9892 C   0  0  2  0  0  0  0  0  0  0  0  0
   26.1007  -20.3655  -11.3325 N   0  0  0  0  0  0  0  0  0  0  0  0
   24.1697  -20.5097   -9.9398 C   0  0  0  0  0  0  0  0  0  0  0  0
   23.7809  -19.4372  -10.5367 O   0  0  0  0  0  0  0  0  0  0  0  0
   23.1481  -21.2699   -9.3166 N   0  0  0  0  0  0  0  0  0  0  0  0
   23.4955  -22.3282   -8.3425 C   0  0  0  0  0  0  0  0  0  0  0  0
   22.2333  -22.6464   -7.6078 C   0  0  0  0  0  0  0  0  0  0  0  0
   21.2056  -22.4311   -8.6861 C   0  0  0  0  0  0  0  0  0  0  0  0
   21.7221  -21.1968   -9.4038 C   0  0  1  0  0  0  0  0  0  0  0  0
   21.1877  -20.0418   -8.5913 C   0  0  0  0  0  0  0  0  0  0  0  0
   21.9317  -19.4473   -7.7726 O   0  0  0  0  0  0  0  0  0  0  0  0
   19.8817  -19.5939   -8.7081 O   0  0  0  0  0  0  0  0  0  0  0  0
  2  1  1  1
  2  3  1  0
  3  4  1  0
  4  8  1  0
  5  4  2  0
  6  2  1  0
  7  6  2  0
  9 10  1  0
 10 11  1  0
 11 12  1  0
 13 12  1  1
 13 15  1  0
 13 14  1  0
 14  6  1  0
 15 17  1  0
 16 15  2  0
 17 18  1  0
 17 21  1  0
 19 18  1  0
 20 19  1  0
 20 21  1  0
 21 22  1  1
 22 23  2  0
 22 24  1  0
M  END
$$$$
