DMP.pdb
     RDKit          3D

 24 24  0  0  1  0  0  0  0  0999 V2000
   28.9795  -21.1318  -16.2750 N   0  0  0  0  0  0  0  0  0  0  0  0
   28.2462  -20.1026  -15.5051 C   0  0  1  0  0  0  0  0  0  0  0  0
   27.5353  -19.2536  -16.5216 C   0  0  0  0  0  0  0  0  0  0  0  0
   28.3624  -18.2764  -17.2178 C   0  0  0  0  0  0  0  0  0  0  0  0
   29.0822  -18.6021  -18.1840 O   0  0  0  0  0  0  0  0  0  0  0  0
   27.2647  -20.8501  -14.6932 C   0  0  0  0  0  0  0  0  0  0  0  0
   26.7139  -21.8864  -15.1181 O   0  0  0  0  0  0  0  0  0  0  0  0
   28.3701  -16.9523  -16.8212 O   0  0  0  0  0  0  0  0  0  0  0  0
   27.2084  -20.6154   -8.2988 C   0  0  0  0  0  0  0  0  0  0  0  0
   25.6816  -21.4680   -8.8063 S   0  0  0  0  0  0  0  0  0  0  0  0
   24.9496  -20.6316  -10.2648 C   0  0  0  0  0  0  0  0  0  0  0  0
   26.0168  -20.4324  -11.2467 C   0  0  0  0  0  0  0  0  0  0  0  0
   25.8619  -21.1084  -12.5955 C   0  0  2  0  0  0  0  0  0  0  0  0
   26.9170  -20.4093  -13.3965 N   0  0  0  0  0  0  0  0  0  0  0  0
   24.5819  -20.8742  -13.2545 C   0  0  0  0  0  0  0  0  0  0  0  0
   24.2675  -19.6453  -13.4750 O   0  0  0  0  0  0  0  0  0  0  0  0
   23.6366  -21.8370  -13.6896 N   0  0  0  0  0  0  0  0  0  0  0  0
   23.9014  -23.2804  -13.4992 C   0  0  0  0  0  0  0  0  0  0  0  0
   22.5904  -23.9717  -13.6931 C   0  0  0  0  0  0  0  0  0  0  0  0
   21.9483  -23.0937  -14.7333 C   0  0  0  0  0  0  0  0  0  0  0  0
   22.3452  -21.6972  -14.2888 C   0  0  1  0  0  0  0  0  0  0  0  0
   21.3068  -21.3246  -13.2580 C   0  0  0  0  0  0  0  0  0  0  0  0
   20.1909  -20.8752  -13.6186 O   0  0  0  0  0  0  0  0  0  0  0  0
   21.5310  -21.4578  -11.8972 O   0  0  0  0  0  0  0  0  0  0  0  0
  2  1  1  6
  2  3  1  0
  3  4  1  0
  4  8  1  0
  5  4  2  0
  6  2  1  0
  7  6  2  0
  9 10  1  0
 10 11  1  0
 11 12  1  0
 13 12  1  1
 13 15  1  0
 13 14  1  0
 14  6  1  0
 15 17  1  0
 16 15  2  0
 17 18  1  0
 17 21  1  0
 19 18  1  0
 20 19  1  0
 20 21  1  0
 21 22  1  1
 22 23  2  0
 22 24  1  0
M  END
$$$$
