DMP.pdb
     RDKit          3D

 24 24  0  0  1  0  0  0  0  0999 V2000
   20.7836  -17.4213  -15.9160 N   0  0  0  0  0  0  0  0  0  0  0  0
   20.8461  -18.8430  -15.5105 C   0  0  1  0  0  0  0  0  0  0  0  0
   20.5529  -19.6404  -16.7504 C   0  0  0  0  0  0  0  0  0  0  0  0
   19.1556  -19.6765  -17.1625 C   0  0  0  0  0  0  0  0  0  0  0  0
   18.2751  -20.1835  -16.4375 O   0  0  0  0  0  0  0  0  0  0  0  0
   22.2425  -19.0645  -15.0834 C   0  0  0  0  0  0  0  0  0  0  0  0
   23.2092  -18.6762  -15.7707 O   0  0  0  0  0  0  0  0  0  0  0  0
   18.7675  -19.1450  -18.3780 O   0  0  0  0  0  0  0  0  0  0  0  0
   25.8413  -20.9033   -8.3126 C   0  0  0  0  0  0  0  0  0  0  0  0
   24.3911  -20.6618   -9.3870 S   0  0  0  0  0  0  0  0  0  0  0  0
   24.9231  -20.5017  -11.1345 C   0  0  0  0  0  0  0  0  0  0  0  0
   23.7502  -20.1240  -11.9248 C   0  0  0  0  0  0  0  0  0  0  0  0
   23.9394  -19.9523  -13.4198 C   0  0  2  0  0  0  0  0  0  0  0  0
   22.5281  -19.7299  -13.8699 N   0  0  0  0  0  0  0  0  0  0  0  0
   24.4414  -21.1333  -14.1132 C   0  0  0  0  0  0  0  0  0  0  0  0
   23.6292  -22.1272  -14.2133 O   0  0  0  0  0  0  0  0  0  0  0  0
   25.7185  -21.3231  -14.6986 N   0  0  0  0  0  0  0  0  0  0  0  0
   26.7983  -20.3380  -14.4671 C   0  0  0  0  0  0  0  0  0  0  0  0
   28.0687  -21.0116  -14.8750 C   0  0  0  0  0  0  0  0  0  0  0  0
   27.5887  -21.8795  -16.0071 C   0  0  0  0  0  0  0  0  0  0  0  0
   26.2472  -22.3813  -15.5030 C   0  0  1  0  0  0  0  0  0  0  0  0
   26.5922  -23.5840  -14.6580 C   0  0  0  0  0  0  0  0  0  0  0  0
   26.6817  -23.4751  -13.4101 O   0  0  0  0  0  0  0  0  0  0  0  0
   26.8211  -24.8355  -15.2070 O   0  0  0  0  0  0  0  0  0  0  0  0
  2  1  1  6
  2  3  1  0
  3  4  1  0
  4  8  1  0
  5  4  2  0
  6  2  1  0
  7  6  2  0
  9 10  1  0
 10 11  1  0
 11 12  1  0
 13 12  1  1
 13 15  1  0
 13 14  1  0
 14  6  1  0
 15 17  1  0
 16 15  2  0
 17 18  1  0
 17 21  1  0
 19 18  1  0
 20 19  1  0
 20 21  1  0
 21 22  1  1
 22 23  2  0
 22 24  1  0
M  END
$$$$
