DMP.pdb
     RDKit          3D

 24 24  0  0  1  0  0  0  0  0999 V2000
   19.9569  -15.4341  -16.9417 N   0  0  0  0  0  0  0  0  0  0  0  0
   19.4461  -14.0516  -17.0731 C   0  0  1  0  0  0  0  0  0  0  0  0
   18.1738  -14.0026  -16.2743 C   0  0  0  0  0  0  0  0  0  0  0  0
   17.0416  -14.7210  -16.8452 C   0  0  0  0  0  0  0  0  0  0  0  0
   16.9256  -14.8809  -18.0776 O   0  0  0  0  0  0  0  0  0  0  0  0
   20.4729  -13.1963  -16.4442 C   0  0  0  0  0  0  0  0  0  0  0  0
   21.0175  -13.5087  -15.3656 O   0  0  0  0  0  0  0  0  0  0  0  0
   16.0592  -15.2477  -16.0279 O   0  0  0  0  0  0  0  0  0  0  0  0
   26.7904  -10.8705  -15.3768 C   0  0  0  0  0  0  0  0  0  0  0  0
   25.2062  -11.6952  -15.7314 S   0  0  0  0  0  0  0  0  0  0  0  0
   24.4495  -10.9804  -17.2410 C   0  0  0  0  0  0  0  0  0  0  0  0
   23.1441  -11.6156  -17.4290 C   0  0  0  0  0  0  0  0  0  0  0  0
   22.0174  -11.1850  -16.5096 C   0  0  2  0  0  0  0  0  0  0  0  0
   20.8739  -11.9856  -17.0527 N   0  0  0  0  0  0  0  0  0  0  0  0
   21.6529   -9.7759  -16.6060 C   0  0  0  0  0  0  0  0  0  0  0  0
   21.4075   -9.3273  -17.7876 O   0  0  0  0  0  0  0  0  0  0  0  0
   21.5297   -8.8336  -15.5540 N   0  0  0  0  0  0  0  0  0  0  0  0
   21.7919   -9.2395  -14.1553 C   0  0  0  0  0  0  0  0  0  0  0  0
   21.9581   -7.9725  -13.3799 C   0  0  0  0  0  0  0  0  0  0  0  0
   21.0073   -7.0591  -14.1058 C   0  0  0  0  0  0  0  0  0  0  0  0
   21.2199   -7.4370  -15.5609 C   0  0  1  0  0  0  0  0  0  0  0  0
   22.4147   -6.6188  -15.9882 C   0  0  0  0  0  0  0  0  0  0  0  0
   22.2811   -5.4006  -16.2627 O   0  0  0  0  0  0  0  0  0  0  0  0
   23.6853   -7.1609  -16.0952 O   0  0  0  0  0  0  0  0  0  0  0  0
  2  1  1  1
  2  3  1  0
  3  4  1  0
  4  8  1  0
  5  4  2  0
  6  2  1  0
  7  6  2  0
  9 10  1  0
 10 11  1  0
 11 12  1  0
 13 12  1  6
 13 15  1  0
 13 14  1  0
 14  6  1  0
 15 17  1  0
 16 15  2  0
 17 18  1  0
 17 21  1  0
 19 18  1  0
 20 19  1  0
 20 21  1  0
 21 22  1  1
 22 23  2  0
 22 24  1  0
M  END
$$$$
