DMP.pdb
     RDKit          3D

 24 24  0  0  1  0  0  0  0  0999 V2000
   28.1205  -20.9577  -14.3432 N   0  0  0  0  0  0  0  0  0  0  0  0
   27.6845  -19.8767  -13.4316 C   0  0  1  0  0  0  0  0  0  0  0  0
   26.7136  -19.0397  -14.2165 C   0  0  0  0  0  0  0  0  0  0  0  0
   27.2989  -18.1975  -15.2519 C   0  0  0  0  0  0  0  0  0  0  0  0
   27.0330  -18.3693  -16.4592 O   0  0  0  0  0  0  0  0  0  0  0  0
   26.9855  -20.5600  -12.3245 C   0  0  0  0  0  0  0  0  0  0  0  0
   26.1255  -21.4399  -12.5341 O   0  0  0  0  0  0  0  0  0  0  0  0
   28.1712  -17.1783  -14.9189 O   0  0  0  0  0  0  0  0  0  0  0  0
   27.4173  -18.2352   -5.6892 C   0  0  0  0  0  0  0  0  0  0  0  0
   27.9417  -19.9310   -6.0951 S   0  0  0  0  0  0  0  0  0  0  0  0
   26.7958  -20.6665   -7.3232 C   0  0  0  0  0  0  0  0  0  0  0  0
   27.3389  -20.3987   -8.6559 C   0  0  0  0  0  0  0  0  0  0  0  0
   26.5376  -20.8840   -9.8487 C   0  0  2  0  0  0  0  0  0  0  0  0
   27.2736  -20.2343  -10.9800 N   0  0  0  0  0  0  0  0  0  0  0  0
   25.1581  -20.4121   -9.8927 C   0  0  0  0  0  0  0  0  0  0  0  0
   24.9906  -19.1371   -9.9543 O   0  0  0  0  0  0  0  0  0  0  0  0
   23.9711  -21.1872   -9.8807 N   0  0  0  0  0  0  0  0  0  0  0  0
   24.0461  -22.6649   -9.8589 C   0  0  0  0  0  0  0  0  0  0  0  0
   22.6867  -23.1434   -9.4623 C   0  0  0  0  0  0  0  0  0  0  0  0
   21.8123  -22.0903  -10.0882 C   0  0  0  0  0  0  0  0  0  0  0  0
   22.5915  -20.8114   -9.8380 C   0  0  1  0  0  0  0  0  0  0  0  0
   22.1862  -20.3941   -8.4447 C   0  0  0  0  0  0  0  0  0  0  0  0
   22.9414  -20.6300   -7.4694 O   0  0  0  0  0  0  0  0  0  0  0  0
   20.9898  -19.7463   -8.1826 O   0  0  0  0  0  0  0  0  0  0  0  0
  2  1  1  6
  2  3  1  0
  3  4  1  0
  4  8  1  0
  5  4  2  0
  6  2  1  0
  7  6  2  0
  9 10  1  0
 10 11  1  0
 11 12  1  0
 13 12  1  1
 13 15  1  0
 13 14  1  0
 14  6  1  0
 15 17  1  0
 16 15  2  0
 17 18  1  0
 17 21  1  0
 19 18  1  0
 20 19  1  0
 20 21  1  0
 21 22  1  1
 22 23  2  0
 22 24  1  0
M  END
$$$$
