DMP.pdb
     RDKit          3D

 24 24  0  0  1  0  0  0  0  0999 V2000
   19.7237  -11.7552  -18.6881 N   0  0  0  0  0  0  0  0  0  0  0  0
   20.7009  -11.2874  -17.6802 C   0  0  1  0  0  0  0  0  0  0  0  0
   21.9639  -10.9854  -18.4372 C   0  0  0  0  0  0  0  0  0  0  0  0
   22.8112  -12.1329  -18.7356 C   0  0  0  0  0  0  0  0  0  0  0  0
   22.5840  -13.2566  -18.2422 O   0  0  0  0  0  0  0  0  0  0  0  0
   20.1280  -10.0414  -17.1321 C   0  0  0  0  0  0  0  0  0  0  0  0
   19.7268   -9.1210  -17.8734 O   0  0  0  0  0  0  0  0  0  0  0  0
   23.8975  -12.0036  -19.5804 O   0  0  0  0  0  0  0  0  0  0  0  0
   18.4773   -9.6669  -10.5877 C   0  0  0  0  0  0  0  0  0  0  0  0
   17.1732   -9.1600  -11.7530 S   0  0  0  0  0  0  0  0  0  0  0  0
   17.9059   -8.2187  -13.1457 C   0  0  0  0  0  0  0  0  0  0  0  0
   18.6130   -9.1705  -14.0040 C   0  0  0  0  0  0  0  0  0  0  0  0
   19.4073   -8.6079  -15.1671 C   0  0  2  0  0  0  0  0  0  0  0  0
   20.0154   -9.8530  -15.7361 N   0  0  0  0  0  0  0  0  0  0  0  0
   20.4995   -7.7180  -14.7893 C   0  0  0  0  0  0  0  0  0  0  0  0
   21.4672   -8.2483  -14.1261 O   0  0  0  0  0  0  0  0  0  0  0  0
   20.6317   -6.3340  -15.0669 N   0  0  0  0  0  0  0  0  0  0  0  0
   19.5642   -5.6151  -15.7971 C   0  0  0  0  0  0  0  0  0  0  0  0
   19.8216   -4.1587  -15.5801 C   0  0  0  0  0  0  0  0  0  0  0  0
   21.3251   -4.1345  -15.5146 C   0  0  0  0  0  0  0  0  0  0  0  0
   21.6493   -5.3891  -14.7234 C   0  0  1  0  0  0  0  0  0  0  0  0
   21.5275   -4.9621  -13.2803 C   0  0  0  0  0  0  0  0  0  0  0  0
   20.4628   -5.1693  -12.6475 O   0  0  0  0  0  0  0  0  0  0  0  0
   22.5608   -4.3359  -12.6020 O   0  0  0  0  0  0  0  0  0  0  0  0
  2  1  1  6
  2  3  1  0
  3  4  1  0
  4  8  1  0
  5  4  2  0
  6  2  1  0
  7  6  2  0
  9 10  1  0
 10 11  1  0
 11 12  1  0
 13 12  1  1
 13 15  1  0
 13 14  1  0
 14  6  1  0
 15 17  1  0
 16 15  2  0
 17 18  1  0
 17 21  1  0
 19 18  1  0
 20 19  1  0
 20 21  1  0
 21 22  1  1
 22 23  2  0
 22 24  1  0
M  END
$$$$
