DMP.pdb
     RDKit          3D

 24 24  0  0  1  0  0  0  0  0999 V2000
   20.5657  -15.8909  -16.9797 N   0  0  0  0  0  0  0  0  0  0  0  0
   20.6656  -14.6054  -17.7056 C   0  0  1  0  0  0  0  0  0  0  0  0
   19.2552  -14.2092  -18.0420 C   0  0  0  0  0  0  0  0  0  0  0  0
   18.6204  -14.9764  -19.1061 C   0  0  0  0  0  0  0  0  0  0  0  0
   17.4415  -15.3745  -19.0083 O   0  0  0  0  0  0  0  0  0  0  0  0
   21.2415  -13.6539  -16.7339 C   0  0  0  0  0  0  0  0  0  0  0  0
   20.6318  -13.3252  -15.6958 O   0  0  0  0  0  0  0  0  0  0  0  0
   19.3151  -15.2849  -20.2605 O   0  0  0  0  0  0  0  0  0  0  0  0
   27.7893  -13.4536  -15.5251 C   0  0  0  0  0  0  0  0  0  0  0  0
   26.5721  -12.5900  -14.4818 S   0  0  0  0  0  0  0  0  0  0  0  0
   25.5420  -11.4744  -15.5097 C   0  0  0  0  0  0  0  0  0  0  0  0
   24.6012  -12.3048  -16.2634 C   0  0  0  0  0  0  0  0  0  0  0  0
   23.1242  -12.1393  -15.9613 C   0  0  2  0  0  0  0  0  0  0  0  0
   22.5148  -13.0816  -16.9534 N   0  0  0  0  0  0  0  0  0  0  0  0
   22.5891  -10.8095  -16.2316 C   0  0  0  0  0  0  0  0  0  0  0  0
   22.5606  -10.4435  -17.4656 O   0  0  0  0  0  0  0  0  0  0  0  0
   22.0890   -9.8654  -15.2998 N   0  0  0  0  0  0  0  0  0  0  0  0
   22.0694  -10.1830  -13.8546 C   0  0  0  0  0  0  0  0  0  0  0  0
   21.8664   -8.8823  -13.1467 C   0  0  0  0  0  0  0  0  0  0  0  0
   20.9935   -8.1484  -14.1289 C   0  0  0  0  0  0  0  0  0  0  0  0
   21.5942   -8.5338  -15.4690 C   0  0  1  0  0  0  0  0  0  0  0  0
   22.7273   -7.5554  -15.6652 C   0  0  0  0  0  0  0  0  0  0  0  0
   23.9160   -7.9219  -15.4924 O   0  0  0  0  0  0  0  0  0  0  0  0
   22.5138   -6.2377  -16.0365 O   0  0  0  0  0  0  0  0  0  0  0  0
  2  1  1  1
  2  3  1  0
  3  4  1  0
  4  8  1  0
  5  4  2  0
  6  2  1  0
  7  6  2  0
  9 10  1  0
 10 11  1  0
 11 12  1  0
 13 12  1  6
 13 15  1  0
 13 14  1  0
 14  6  1  0
 15 17  1  0
 16 15  2  0
 17 18  1  0
 17 21  1  0
 19 18  1  0
 20 19  1  0
 20 21  1  0
 21 22  1  1
 22 23  2  0
 22 24  1  0
M  END
$$$$
