DMP.pdb
     RDKit          3D

 24 24  0  0  1  0  0  0  0  0999 V2000
   27.4596  -21.3879  -12.4894 N   0  0  0  0  0  0  0  0  0  0  0  0
   26.4687  -20.4386  -11.9355 C   0  0  1  0  0  0  0  0  0  0  0  0
   25.2259  -20.6072  -12.7641 C   0  0  0  0  0  0  0  0  0  0  0  0
   25.2591  -19.9921  -14.0848 C   0  0  0  0  0  0  0  0  0  0  0  0
   24.3170  -19.2857  -14.4986 O   0  0  0  0  0  0  0  0  0  0  0  0
   26.2224  -20.8962  -10.5531 C   0  0  0  0  0  0  0  0  0  0  0  0
   25.9474  -22.0857  -10.2938 O   0  0  0  0  0  0  0  0  0  0  0  0
   26.3452  -20.1778  -14.9194 O   0  0  0  0  0  0  0  0  0  0  0  0
   27.9303  -19.5539   -4.2145 C   0  0  0  0  0  0  0  0  0  0  0  0
   28.6980  -18.6902   -5.6218 S   0  0  0  0  0  0  0  0  0  0  0  0
   28.1606  -19.4565   -7.1986 C   0  0  0  0  0  0  0  0  0  0  0  0
   26.7006  -19.3704   -7.2613 C   0  0  0  0  0  0  0  0  0  0  0  0
   25.9717  -20.4238   -8.0733 C   0  0  2  0  0  0  0  0  0  0  0  0
   26.2923  -19.9903   -9.4708 N   0  0  0  0  0  0  0  0  0  0  0  0
   24.5201  -20.4108   -7.9308 C   0  0  0  0  0  0  0  0  0  0  0  0
   23.9023  -19.4088   -8.4522 O   0  0  0  0  0  0  0  0  0  0  0  0
   23.6987  -21.3722   -7.2898 N   0  0  0  0  0  0  0  0  0  0  0  0
   24.3039  -22.5600   -6.6474 C   0  0  0  0  0  0  0  0  0  0  0  0
   23.2477  -23.1347   -5.7595 C   0  0  0  0  0  0  0  0  0  0  0  0
   22.0026  -22.8159   -6.5427 C   0  0  0  0  0  0  0  0  0  0  0  0
   22.2853  -21.4222   -7.0746 C   0  0  1  0  0  0  0  0  0  0  0  0
   21.8756  -20.5030   -5.9491 C   0  0  0  0  0  0  0  0  0  0  0  0
   22.7444  -20.0065   -5.1903 O   0  0  0  0  0  0  0  0  0  0  0  0
   20.5523  -20.1717   -5.7060 O   0  0  0  0  0  0  0  0  0  0  0  0
  2  1  1  6
  2  3  1  0
  3  4  1  0
  4  8  1  0
  5  4  2  0
  6  2  1  0
  7  6  2  0
  9 10  1  0
 10 11  1  0
 11 12  1  0
 13 12  1  1
 13 15  1  0
 13 14  1  0
 14  6  1  0
 15 17  1  0
 16 15  2  0
 17 18  1  0
 17 21  1  0
 19 18  1  0
 20 19  1  0
 20 21  1  0
 21 22  1  1
 22 23  2  0
 22 24  1  0
M  END
$$$$
