DMP.pdb
     RDKit          3D

 24 24  0  0  1  0  0  0  0  0999 V2000
   26.0242   -5.0132  -19.8587 N   0  0  0  0  0  0  0  0  0  0  0  0
   24.9559   -5.0051  -18.8349 C   0  0  1  0  0  0  0  0  0  0  0  0
   23.8025   -4.2598  -19.4461 C   0  0  0  0  0  0  0  0  0  0  0  0
   23.9307   -2.8083  -19.4714 C   0  0  0  0  0  0  0  0  0  0  0  0
   24.2625   -2.1655  -18.4543 O   0  0  0  0  0  0  0  0  0  0  0  0
   24.5955   -6.4237  -18.6377 C   0  0  0  0  0  0  0  0  0  0  0  0
   24.4946   -7.2155  -19.5971 O   0  0  0  0  0  0  0  0  0  0  0  0
   23.6856   -2.1014  -20.6337 O   0  0  0  0  0  0  0  0  0  0  0  0
   27.4709  -11.9898  -15.9747 C   0  0  0  0  0  0  0  0  0  0  0  0
   26.7146  -10.6227  -15.0395 S   0  0  0  0  0  0  0  0  0  0  0  0
   25.0746  -10.2085  -15.7475 C   0  0  0  0  0  0  0  0  0  0  0  0
   25.1604   -8.8608  -16.3126 C   0  0  0  0  0  0  0  0  0  0  0  0
   23.9806   -8.3673  -17.1279 C   0  0  2  0  0  0  0  0  0  0  0  0
   24.3522   -6.9321  -17.3418 N   0  0  0  0  0  0  0  0  0  0  0  0
   22.7006   -8.3908  -16.4289 C   0  0  0  0  0  0  0  0  0  0  0  0
   22.6096   -7.6561  -15.3755 O   0  0  0  0  0  0  0  0  0  0  0  0
   21.5350   -9.1226  -16.7692 N   0  0  0  0  0  0  0  0  0  0  0  0
   21.5510  -10.0588  -17.9150 C   0  0  0  0  0  0  0  0  0  0  0  0
   20.3428  -10.9251  -17.7597 C   0  0  0  0  0  0  0  0  0  0  0  0
   19.3710   -9.9614  -17.1335 C   0  0  0  0  0  0  0  0  0  0  0  0
   20.2422   -9.1873  -16.1602 C   0  0  1  0  0  0  0  0  0  0  0  0
   20.2700  -10.0469  -14.9193 C   0  0  0  0  0  0  0  0  0  0  0  0
   21.2430  -10.8103  -14.7008 O   0  0  0  0  0  0  0  0  0  0  0  0
   19.2471  -10.0343  -13.9848 O   0  0  0  0  0  0  0  0  0  0  0  0
  2  1  1  6
  2  3  1  0
  3  4  1  0
  4  8  1  0
  5  4  2  0
  6  2  1  0
  7  6  2  0
  9 10  1  0
 10 11  1  0
 11 12  1  0
 13 12  1  1
 13 15  1  0
 13 14  1  0
 14  6  1  0
 15 17  1  0
 16 15  2  0
 17 18  1  0
 17 21  1  0
 19 18  1  0
 20 19  1  0
 20 21  1  0
 21 22  1  1
 22 23  2  0
 22 24  1  0
M  END
$$$$
