DMP.pdb
     RDKit          3D

 24 24  0  0  1  0  0  0  0  0999 V2000
   24.9756  -29.9773  -20.8725 N   0  0  0  0  0  0  0  0  0  0  0  0
   25.0468  -29.5425  -19.4599 C   0  0  1  0  0  0  0  0  0  0  0  0
   23.6769  -29.0288  -19.1153 C   0  0  0  0  0  0  0  0  0  0  0  0
   23.3676  -27.6865  -19.5909 C   0  0  0  0  0  0  0  0  0  0  0  0
   22.2936  -27.4329  -20.1739 O   0  0  0  0  0  0  0  0  0  0  0  0
   25.3370  -30.7689  -18.6898 C   0  0  0  0  0  0  0  0  0  0  0  0
   24.8791  -31.8800  -19.0265 O   0  0  0  0  0  0  0  0  0  0  0  0
   24.2650  -26.6515  -19.4063 O   0  0  0  0  0  0  0  0  0  0  0  0
   30.7518  -31.5397  -16.8950 C   0  0  0  0  0  0  0  0  0  0  0  0
   30.1940  -32.8568  -15.7682 S   0  0  0  0  0  0  0  0  0  0  0  0
   28.4504  -32.5690  -15.2790 C   0  0  0  0  0  0  0  0  0  0  0  0
   27.8609  -31.6469  -16.2513 C   0  0  0  0  0  0  0  0  0  0  0  0
   26.4636  -31.9575  -16.7524 C   0  0  2  0  0  0  0  0  0  0  0  0
   26.1516  -30.7197  -17.5361 N   0  0  0  0  0  0  0  0  0  0  0  0
   25.4527  -32.0837  -15.7085 C   0  0  0  0  0  0  0  0  0  0  0  0
   25.2240  -31.0317  -15.0023 O   0  0  0  0  0  0  0  0  0  0  0  0
   24.6820  -33.2260  -15.3751 N   0  0  0  0  0  0  0  0  0  0  0  0
   24.8087  -34.4682  -16.1693 C   0  0  0  0  0  0  0  0  0  0  0  0
   24.1890  -35.5514  -15.3467 C   0  0  0  0  0  0  0  0  0  0  0  0
   23.0930  -34.7950  -14.6455 C   0  0  0  0  0  0  0  0  0  0  0  0
   23.7560  -33.4703  -14.3125 C   0  0  1  0  0  0  0  0  0  0  0  0
   24.4788  -33.7312  -13.0128 C   0  0  0  0  0  0  0  0  0  0  0  0
   23.8386  -33.7894  -11.9340 O   0  0  0  0  0  0  0  0  0  0  0  0
   25.8509  -33.9145  -12.9507 O   0  0  0  0  0  0  0  0  0  0  0  0
  2  1  1  6
  2  3  1  0
  3  4  1  0
  4  8  1  0
  5  4  2  0
  6  2  1  0
  7  6  2  0
  9 10  1  0
 10 11  1  0
 11 12  1  0
 13 12  1  1
 13 15  1  0
 13 14  1  0
 14  6  1  0
 15 17  1  0
 16 15  2  0
 17 18  1  0
 17 21  1  0
 19 18  1  0
 20 19  1  0
 20 21  1  0
 21 22  1  1
 22 23  2  0
 22 24  1  0
M  END
$$$$
