PMH.pdb
     RDKit          3D

 26 27  0  0  1  0  0  0  0  0999 V2000
   26.2839  -11.5989  -17.3456 N   0  0  0  0  0  0  0  0  0  0  0  0
   27.2159  -12.7255  -17.2953 C   0  0  0  0  0  0  0  0  0  0  0  0
   28.5322  -12.0656  -17.0353 C   0  0  0  0  0  0  0  0  0  0  0  0
   28.2475  -10.7203  -16.4048 C   0  0  0  0  0  0  0  0  0  0  0  0
   26.7417  -10.7387  -16.2767 C   0  0  1  0  0  0  0  0  0  0  0  0
   26.1673   -9.3698  -16.4845 C   0  0  0  0  0  0  0  0  0  0  0  0
   26.4763   -8.4883  -15.6649 O   0  0  0  0  0  0  0  0  0  0  0  0
   27.5476   -6.7432  -22.4849 C   0  0  0  0  0  0  0  0  0  0  0  0
   25.9236   -6.9240  -21.7102 S   0  0  0  0  0  0  0  0  0  0  0  0
   26.1268   -7.2988  -19.9250 C   0  0  0  0  0  0  0  0  0  0  0  0
   24.7513   -7.4790  -19.3715 C   0  0  0  0  0  0  0  0  0  0  0  0
   24.7263   -7.8019  -17.8822 C   0  0  2  0  0  0  0  0  0  0  0  0
   25.3067   -9.0813  -17.5668 N   0  0  0  0  0  0  0  0  0  0  0  0
   23.3214   -7.7291  -17.4491 C   0  0  0  0  0  0  0  0  0  0  0  0
   22.4803   -8.5707  -17.8845 O   0  0  0  0  0  0  0  0  0  0  0  0
   22.8753   -6.7341  -16.5490 N   0  0  0  0  0  0  0  0  0  0  0  0
   21.6955   -6.9609  -15.7134 C   0  0  1  0  0  0  0  0  0  0  0  0
   21.8573   -8.1884  -14.8726 C   0  0  0  0  0  0  0  0  0  0  0  0
   20.6735   -8.3791  -14.0121 C   0  0  0  0  0  0  0  0  0  0  0  0
   19.4953   -7.6590  -13.9271 C   0  0  0  0  0  0  0  0  0  0  0  0
   18.7009   -8.1656  -12.9963 N   0  0  0  0  0  0  0  0  0  0  0  0
   19.3376   -9.2174  -12.4585 C   0  0  0  0  0  0  0  0  0  0  0  0
   20.5289   -9.3566  -13.0629 N   0  0  0  0  0  0  0  0  0  0  0  0
   21.3764   -5.7656  -14.9183 C   0  0  0  0  0  0  0  0  0  0  0  0
   20.3663   -5.6410  -14.1884 O   0  0  0  0  0  0  0  0  0  0  0  0
   22.2661   -4.6712  -14.9733 O   0  0  0  0  0  0  0  0  0  0  0  0
  1  2  1  0
  3  2  1  0
  4  5  1  0
  4  3  1  0
  5  1  1  0
  5  6  1  6
  6  7  2  0
  9  8  1  0
 10  9  1  0
 12 11  1  6
 11 10  1  0
 12 14  1  0
 13  6  1  0
 13 12  1  0
 14 15  2  0
 16 17  1  0
 16 14  1  0
 17 24  1  0
 17 18  1  1
 19 18  1  0
 20 19  2  0
 21 20  1  0
 22 21  1  0
 22 23  2  0
 23 19  1  0
 24 25  2  0
 24 26  1  0
M  END
$$$$
