PMH.pdb
     RDKit          3D

 26 27  0  0  1  0  0  0  0  0999 V2000
   26.2670  -20.2887  -15.7586 N   0  0  0  0  0  0  0  0  0  0  0  0
   27.3906  -19.8503  -16.5867 C   0  0  0  0  0  0  0  0  0  0  0  0
   28.5798  -20.1515  -15.7318 C   0  0  0  0  0  0  0  0  0  0  0  0
   28.1682  -21.2207  -14.7440 C   0  0  0  0  0  0  0  0  0  0  0  0
   26.7478  -21.5177  -15.1667 C   0  0  1  0  0  0  0  0  0  0  0  0
   25.8910  -21.8453  -13.9811 C   0  0  0  0  0  0  0  0  0  0  0  0
   26.0983  -22.9271  -13.4057 O   0  0  0  0  0  0  0  0  0  0  0  0
   26.3045  -20.1336   -8.0359 C   0  0  0  0  0  0  0  0  0  0  0  0
   24.8142  -19.3209   -8.6593 S   0  0  0  0  0  0  0  0  0  0  0  0
   23.9743  -20.4126   -9.8723 C   0  0  0  0  0  0  0  0  0  0  0  0
   24.6730  -20.2115  -11.1770 C   0  0  0  0  0  0  0  0  0  0  0  0
   24.1318  -21.0832  -12.3040 C   0  0  2  0  0  0  0  0  0  0  0  0
   24.8836  -20.9657  -13.5263 N   0  0  0  0  0  0  0  0  0  0  0  0
   22.7231  -20.7051  -12.5025 C   0  0  0  0  0  0  0  0  0  0  0  0
   22.4187  -19.8267  -13.3633 O   0  0  0  0  0  0  0  0  0  0  0  0
   21.6842  -21.3010  -11.7509 N   0  0  0  0  0  0  0  0  0  0  0  0
   20.2875  -20.9363  -11.9917 C   0  0  1  0  0  0  0  0  0  0  0  0
   19.4319  -21.2655  -10.8088 C   0  0  0  0  0  0  0  0  0  0  0  0
   19.3761  -22.7266  -10.6083 C   0  0  0  0  0  0  0  0  0  0  0  0
   19.8750  -23.7620  -11.3783 C   0  0  0  0  0  0  0  0  0  0  0  0
   19.5798  -24.9344  -10.8376 N   0  0  0  0  0  0  0  0  0  0  0  0
   18.8882  -24.6919   -9.7135 C   0  0  0  0  0  0  0  0  0  0  0  0
   18.7585  -23.3634   -9.5640 N   0  0  0  0  0  0  0  0  0  0  0  0
   20.1747  -19.5280  -12.4002 C   0  0  0  0  0  0  0  0  0  0  0  0
   20.5948  -18.5543  -11.7338 O   0  0  0  0  0  0  0  0  0  0  0  0
   19.5489  -19.2391  -13.6319 O   0  0  0  0  0  0  0  0  0  0  0  0
  1  2  1  0
  3  2  1  0
  4  5  1  0
  4  3  1  0
  5  1  1  0
  5  6  1  1
  6  7  2  0
  9  8  1  0
 10  9  1  0
 12 11  1  1
 11 10  1  0
 12 14  1  0
 13  6  1  0
 13 12  1  0
 14 15  2  0
 16 17  1  0
 16 14  1  0
 17 24  1  0
 17 18  1  1
 19 18  1  0
 20 19  2  0
 21 20  1  0
 22 21  1  0
 22 23  2  0
 23 19  1  0
 24 25  2  0
 24 26  1  0
M  END
$$$$
