PMH.pdb
     RDKit          3D

 26 27  0  0  1  0  0  0  0  0999 V2000
   27.6423  -19.8135  -15.9071 N   0  0  0  0  0  0  0  0  0  0  0  0
   28.8500  -19.6249  -16.7110 C   0  0  0  0  0  0  0  0  0  0  0  0
   29.7447  -20.7278  -16.2429 C   0  0  0  0  0  0  0  0  0  0  0  0
   28.8641  -21.8008  -15.6416 C   0  0  0  0  0  0  0  0  0  0  0  0
   27.4776  -21.2503  -15.8838 C   0  0  1  0  0  0  0  0  0  0  0  0
   26.5528  -21.6079  -14.7595 C   0  0  0  0  0  0  0  0  0  0  0  0
   26.0269  -22.7335  -14.7860 O   0  0  0  0  0  0  0  0  0  0  0  0
   26.1680  -21.0891   -7.4244 C   0  0  0  0  0  0  0  0  0  0  0  0
   25.8548  -19.8085   -8.6622 S   0  0  0  0  0  0  0  0  0  0  0  0
   25.0158  -20.5463  -10.1184 C   0  0  0  0  0  0  0  0  0  0  0  0
   25.9492  -20.3813  -11.2727 C   0  0  0  0  0  0  0  0  0  0  0  0
   25.4088  -20.9398  -12.5839 C   0  0  2  0  0  0  0  0  0  0  0  0
   26.2821  -20.7079  -13.7049 N   0  0  0  0  0  0  0  0  0  0  0  0
   24.0864  -20.3302  -12.7993 C   0  0  0  0  0  0  0  0  0  0  0  0
   23.9890  -19.0823  -12.9955 O   0  0  0  0  0  0  0  0  0  0  0  0
   22.9044  -21.1061  -12.7938 N   0  0  0  0  0  0  0  0  0  0  0  0
   21.6470  -20.5509  -13.2965 C   0  0  1  0  0  0  0  0  0  0  0  0
   21.3123  -21.1066  -14.6452 C   0  0  0  0  0  0  0  0  0  0  0  0
   20.0551  -20.5166  -15.1443 C   0  0  0  0  0  0  0  0  0  0  0  0
   19.1522  -19.6665  -14.5309 C   0  0  0  0  0  0  0  0  0  0  0  0
   18.1376  -19.3965  -15.3382 N   0  0  0  0  0  0  0  0  0  0  0  0
   18.3542  -20.0585  -16.4853 C   0  0  0  0  0  0  0  0  0  0  0  0
   19.5080  -20.7382  -16.3808 N   0  0  0  0  0  0  0  0  0  0  0  0
   20.5627  -20.7364  -12.3204 C   0  0  0  0  0  0  0  0  0  0  0  0
   20.5483  -21.6128  -11.4258 O   0  0  0  0  0  0  0  0  0  0  0  0
   19.4509  -19.8694  -12.3861 O   0  0  0  0  0  0  0  0  0  0  0  0
  1  2  1  0
  3  2  1  0
  4  5  1  0
  4  3  1  0
  5  1  1  0
  5  6  1  1
  6  7  2  0
  9  8  1  0
 10  9  1  0
 12 11  1  1
 11 10  1  0
 12 14  1  0
 13  6  1  0
 13 12  1  0
 14 15  2  0
 16 17  1  0
 16 14  1  0
 17 24  1  0
 17 18  1  6
 19 18  1  0
 20 19  2  0
 21 20  1  0
 22 21  1  0
 22 23  2  0
 23 19  1  0
 24 25  2  0
 24 26  1  0
M  END
$$$$
