PMH.pdb
     RDKit          3D

 26 27  0  0  1  0  0  0  0  0999 V2000
   27.4073  -19.0518  -15.4813 N   0  0  0  0  0  0  0  0  0  0  0  0
   28.5700  -18.5659  -16.2245 C   0  0  0  0  0  0  0  0  0  0  0  0
   29.5976  -19.6234  -15.9763 C   0  0  0  0  0  0  0  0  0  0  0  0
   28.8614  -20.8912  -15.6034 C   0  0  0  0  0  0  0  0  0  0  0  0
   27.4152  -20.4746  -15.7418 C   0  0  1  0  0  0  0  0  0  0  0  0
   26.5590  -21.1539  -14.7158 C   0  0  0  0  0  0  0  0  0  0  0  0
   26.1816  -22.3123  -14.9605 O   0  0  0  0  0  0  0  0  0  0  0  0
   26.1416  -19.1923   -8.2953 C   0  0  0  0  0  0  0  0  0  0  0  0
   25.8470  -20.9729   -8.4087 S   0  0  0  0  0  0  0  0  0  0  0  0
   25.0104  -21.3628   -9.9951 C   0  0  0  0  0  0  0  0  0  0  0  0
   25.8361  -20.7402  -11.0728 C   0  0  0  0  0  0  0  0  0  0  0  0
   25.3413  -21.0489  -12.4810 C   0  0  2  0  0  0  0  0  0  0  0  0
   26.1892  -20.5116  -13.5133 N   0  0  0  0  0  0  0  0  0  0  0  0
   23.9718  -20.5189  -12.5823 C   0  0  0  0  0  0  0  0  0  0  0  0
   23.7615  -19.2773  -12.4433 O   0  0  0  0  0  0  0  0  0  0  0  0
   22.8676  -21.3657  -12.8336 N   0  0  0  0  0  0  0  0  0  0  0  0
   21.5213  -20.8104  -12.9781 C   0  0  1  0  0  0  0  0  0  0  0  0
   20.9364  -21.1529  -14.3124 C   0  0  0  0  0  0  0  0  0  0  0  0
   21.5723  -20.3465  -15.3722 C   0  0  0  0  0  0  0  0  0  0  0  0
   22.4358  -19.2689  -15.2896 C   0  0  0  0  0  0  0  0  0  0  0  0
   22.7510  -18.8252  -16.4970 N   0  0  0  0  0  0  0  0  0  0  0  0
   22.1057  -19.5965  -17.3857 C   0  0  0  0  0  0  0  0  0  0  0  0
   21.3911  -20.5181  -16.7195 N   0  0  0  0  0  0  0  0  0  0  0  0
   20.6605  -21.2201  -11.8583 C   0  0  0  0  0  0  0  0  0  0  0  0
   21.0046  -21.9986  -10.9395 O   0  0  0  0  0  0  0  0  0  0  0  0
   19.3475  -20.7049  -11.8034 O   0  0  0  0  0  0  0  0  0  0  0  0
  1  2  1  0
  3  2  1  0
  4  5  1  0
  4  3  1  0
  5  1  1  0
  5  6  1  1
  6  7  2  0
  9  8  1  0
 10  9  1  0
 12 11  1  1
 11 10  1  0
 12 14  1  0
 13  6  1  0
 13 12  1  0
 14 15  2  0
 16 17  1  0
 16 14  1  0
 17 24  1  0
 17 18  1  6
 19 18  1  0
 20 19  2  0
 21 20  1  0
 22 21  1  0
 22 23  2  0
 23 19  1  0
 24 25  2  0
 24 26  1  0
M  END
$$$$
