PMH.pdb
     RDKit          3D

 26 27  0  0  1  0  0  0  0  0999 V2000
   27.5580  -19.4548  -15.1369 N   0  0  0  0  0  0  0  0  0  0  0  0
   28.7303  -19.1411  -15.9539 C   0  0  0  0  0  0  0  0  0  0  0  0
   29.6926  -20.2291  -15.5985 C   0  0  0  0  0  0  0  0  0  0  0  0
   28.8849  -21.3903  -15.0623 C   0  0  0  0  0  0  0  0  0  0  0  0
   27.4660  -20.8956  -15.2240 C   0  0  1  0  0  0  0  0  0  0  0  0
   26.5942  -21.3880  -14.1085 C   0  0  0  0  0  0  0  0  0  0  0  0
   25.9849  -22.4564  -14.2862 O   0  0  0  0  0  0  0  0  0  0  0  0
   27.8455  -20.5837   -7.9059 C   0  0  0  0  0  0  0  0  0  0  0  0
   26.0747  -20.2352   -7.7904 S   0  0  0  0  0  0  0  0  0  0  0  0
   25.2244  -20.8402   -9.3003 C   0  0  0  0  0  0  0  0  0  0  0  0
   26.1174  -20.5079  -10.4505 C   0  0  0  0  0  0  0  0  0  0  0  0
   25.6005  -21.0092  -11.7938 C   0  0  2  0  0  0  0  0  0  0  0  0
   26.4624  -20.6733  -12.8972 N   0  0  0  0  0  0  0  0  0  0  0  0
   24.2532  -20.4447  -11.9748 C   0  0  0  0  0  0  0  0  0  0  0  0
   24.0599  -19.2032  -11.8121 O   0  0  0  0  0  0  0  0  0  0  0  0
   23.1521  -21.2576  -12.3298 N   0  0  0  0  0  0  0  0  0  0  0  0
   21.8129  -20.6819  -12.4599 C   0  0  1  0  0  0  0  0  0  0  0  0
   21.7863  -19.6068  -13.5007 C   0  0  0  0  0  0  0  0  0  0  0  0
   22.1284  -20.1659  -14.8230 C   0  0  0  0  0  0  0  0  0  0  0  0
   22.4968  -21.4472  -15.1922 C   0  0  0  0  0  0  0  0  0  0  0  0
   22.7387  -21.5105  -16.4927 N   0  0  0  0  0  0  0  0  0  0  0  0
   22.5355  -20.2832  -16.9959 C   0  0  0  0  0  0  0  0  0  0  0  0
   22.1668  -19.4628  -15.9984 N   0  0  0  0  0  0  0  0  0  0  0  0
   20.8106  -21.7308  -12.7007 C   0  0  0  0  0  0  0  0  0  0  0  0
   19.5742  -21.5391  -12.7557 O   0  0  0  0  0  0  0  0  0  0  0  0
   21.2625  -23.0552  -12.8850 O   0  0  0  0  0  0  0  0  0  0  0  0
  1  2  1  0
  3  2  1  0
  4  5  1  0
  4  3  1  0
  5  1  1  0
  5  6  1  1
  6  7  2  0
  9  8  1  0
 10  9  1  0
 12 11  1  1
 11 10  1  0
 12 14  1  0
 13  6  1  0
 13 12  1  0
 14 15  2  0
 16 17  1  0
 16 14  1  0
 17 24  1  0
 17 18  1  6
 19 18  1  0
 20 19  2  0
 21 20  1  0
 22 21  1  0
 22 23  2  0
 23 19  1  0
 24 25  2  0
 24 26  1  0
M  END
$$$$
