PMH.pdb
     RDKit          3D

 26 27  0  0  1  0  0  0  0  0999 V2000
   26.3286  -18.7108  -14.4707 N   0  0  0  0  0  0  0  0  0  0  0  0
   27.0604  -18.0468  -15.5495 C   0  0  0  0  0  0  0  0  0  0  0  0
   28.4375  -18.6163  -15.4260 C   0  0  0  0  0  0  0  0  0  0  0  0
   28.3173  -19.9376  -14.6993 C   0  0  0  0  0  0  0  0  0  0  0  0
   26.8226  -20.0693  -14.5188 C   0  0  1  0  0  0  0  0  0  0  0  0
   26.4947  -20.7441  -13.2210 C   0  0  0  0  0  0  0  0  0  0  0  0
   26.8803  -21.9160  -13.0711 O   0  0  0  0  0  0  0  0  0  0  0  0
   27.0654  -18.8659   -6.3869 C   0  0  0  0  0  0  0  0  0  0  0  0
   26.7978  -20.3854   -7.3301 S   0  0  0  0  0  0  0  0  0  0  0  0
   27.3171  -20.1329   -9.0723 C   0  0  0  0  0  0  0  0  0  0  0  0
   26.1238  -19.6014   -9.7964 C   0  0  0  0  0  0  0  0  0  0  0  0
   25.5739  -20.5514  -10.8539 C   0  0  2  0  0  0  0  0  0  0  0  0
   25.7757  -20.0832  -12.2005 N   0  0  0  0  0  0  0  0  0  0  0  0
   24.1440  -20.7411  -10.5608 C   0  0  0  0  0  0  0  0  0  0  0  0
   23.3590  -19.7466  -10.5675 O   0  0  0  0  0  0  0  0  0  0  0  0
   23.6119  -22.0179  -10.2678 N   0  0  0  0  0  0  0  0  0  0  0  0
   22.1979  -22.1744   -9.9244 C   0  0  1  0  0  0  0  0  0  0  0  0
   21.9953  -22.1400   -8.4420 C   0  0  0  0  0  0  0  0  0  0  0  0
   20.5741  -22.3652   -8.1143 C   0  0  0  0  0  0  0  0  0  0  0  0
   19.4839  -22.5890   -8.9360 C   0  0  0  0  0  0  0  0  0  0  0  0
   18.3760  -22.7199   -8.2221 N   0  0  0  0  0  0  0  0  0  0  0  0
   18.7161  -22.5853   -6.9309 C   0  0  0  0  0  0  0  0  0  0  0  0
   20.0397  -22.3709   -6.8526 N   0  0  0  0  0  0  0  0  0  0  0  0
   21.3719  -21.1859  -10.6339 C   0  0  0  0  0  0  0  0  0  0  0  0
   21.4068  -19.9499  -10.4345 O   0  0  0  0  0  0  0  0  0  0  0  0
   20.4694  -21.6515  -11.6141 O   0  0  0  0  0  0  0  0  0  0  0  0
  1  2  1  0
  3  2  1  0
  4  5  1  0
  4  3  1  0
  5  1  1  0
  5  6  1  1
  6  7  2  0
  9  8  1  0
 10  9  1  0
 12 11  1  1
 11 10  1  0
 12 14  1  0
 13  6  1  0
 13 12  1  0
 14 15  2  0
 16 17  1  0
 16 14  1  0
 17 24  1  0
 17 18  1  1
 19 18  1  0
 20 19  2  0
 21 20  1  0
 22 21  1  0
 22 23  2  0
 23 19  1  0
 24 25  2  0
 24 26  1  0
M  END
$$$$
