PMH.pdb
     RDKit          3D

 26 27  0  0  1  0  0  0  0  0999 V2000
   28.1676  -19.2419  -13.5070 N   0  0  0  0  0  0  0  0  0  0  0  0
   29.0146  -18.9664  -14.6676 C   0  0  0  0  0  0  0  0  0  0  0  0
   29.6143  -20.3014  -14.9745 C   0  0  0  0  0  0  0  0  0  0  0  0
   28.7034  -21.3538  -14.3819 C   0  0  0  0  0  0  0  0  0  0  0  0
   27.5720  -20.5212  -13.8243 C   0  0  1  0  0  0  0  0  0  0  0  0
   27.0317  -21.1239  -12.5626 C   0  0  0  0  0  0  0  0  0  0  0  0
   26.4062  -22.1932  -12.6604 O   0  0  0  0  0  0  0  0  0  0  0  0
   27.5322  -19.7662   -4.7380 C   0  0  0  0  0  0  0  0  0  0  0  0
   28.2826  -20.1621   -6.3350 S   0  0  0  0  0  0  0  0  0  0  0  0
   26.9742  -20.3198   -7.6124 C   0  0  0  0  0  0  0  0  0  0  0  0
   27.6634  -20.7146   -8.8773 C   0  0  0  0  0  0  0  0  0  0  0  0
   26.7123  -20.9724  -10.0400 C   0  0  2  0  0  0  0  0  0  0  0  0
   27.2201  -20.5087  -11.3050 N   0  0  0  0  0  0  0  0  0  0  0  0
   25.4351  -20.3222   -9.7042 C   0  0  0  0  0  0  0  0  0  0  0  0
   25.4232  -19.1221   -9.2984 O   0  0  0  0  0  0  0  0  0  0  0  0
   24.2032  -21.0062   -9.8223 N   0  0  0  0  0  0  0  0  0  0  0  0
   23.0589  -20.3711  -10.4773 C   0  0  1  0  0  0  0  0  0  0  0  0
   22.9237  -20.8322  -11.8946 C   0  0  0  0  0  0  0  0  0  0  0  0
   21.7542  -20.1953  -12.5308 C   0  0  0  0  0  0  0  0  0  0  0  0
   20.7941  -19.3474  -12.0083 C   0  0  0  0  0  0  0  0  0  0  0  0
   19.8999  -19.0246  -12.9304 N   0  0  0  0  0  0  0  0  0  0  0  0
   20.2538  -19.6492  -14.0642 C   0  0  0  0  0  0  0  0  0  0  0  0
   21.3711  -20.3588  -13.8361 N   0  0  0  0  0  0  0  0  0  0  0  0
   21.8290  -20.5691   -9.6956 C   0  0  0  0  0  0  0  0  0  0  0  0
   21.6858  -21.4250   -8.7925 O   0  0  0  0  0  0  0  0  0  0  0  0
   20.7213  -19.7398   -9.9739 O   0  0  0  0  0  0  0  0  0  0  0  0
  1  2  1  0
  3  2  1  0
  4  5  1  0
  4  3  1  0
  5  1  1  0
  5  6  1  1
  6  7  2  0
  9  8  1  0
 10  9  1  0
 12 11  1  1
 11 10  1  0
 12 14  1  0
 13  6  1  0
 13 12  1  0
 14 15  2  0
 16 17  1  0
 16 14  1  0
 17 24  1  0
 17 18  1  6
 19 18  1  0
 20 19  2  0
 21 20  1  0
 22 21  1  0
 22 23  2  0
 23 19  1  0
 24 25  2  0
 24 26  1  0
M  END
$$$$
