PMH.pdb
     RDKit          3D

 26 27  0  0  1  0  0  0  0  0999 V2000
   26.2453  -17.5210  -16.1428 N   0  0  0  0  0  0  0  0  0  0  0  0
   27.4351  -16.9429  -16.7677 C   0  0  0  0  0  0  0  0  0  0  0  0
   28.3409  -18.1218  -16.9280 C   0  0  0  0  0  0  0  0  0  0  0  0
   27.4746  -19.3619  -16.9254 C   0  0  0  0  0  0  0  0  0  0  0  0
   26.0826  -18.7802  -16.8355 C   0  0  1  0  0  0  0  0  0  0  0  0
   25.1828  -19.6612  -16.0223 C   0  0  0  0  0  0  0  0  0  0  0  0
   24.6264  -20.6068  -16.6059 O   0  0  0  0  0  0  0  0  0  0  0  0
   26.0060  -20.5932   -9.6908 C   0  0  0  0  0  0  0  0  0  0  0  0
   24.1978  -20.6065   -9.6999 S   0  0  0  0  0  0  0  0  0  0  0  0
   23.5888  -20.8888  -11.4082 C   0  0  0  0  0  0  0  0  0  0  0  0
   24.4430  -20.0541  -12.3050 C   0  0  0  0  0  0  0  0  0  0  0  0
   24.0865  -20.1774  -13.7817 C   0  0  2  0  0  0  0  0  0  0  0  0
   24.9681  -19.4348  -14.6446 N   0  0  0  0  0  0  0  0  0  0  0  0
   22.6918  -19.7300  -13.9271 C   0  0  0  0  0  0  0  0  0  0  0  0
   22.4134  -18.4955  -13.8670 O   0  0  0  0  0  0  0  0  0  0  0  0
   21.6378  -20.6494  -14.1347 N   0  0  0  0  0  0  0  0  0  0  0  0
   20.2900  -20.1771  -14.4547 C   0  0  1  0  0  0  0  0  0  0  0  0
   20.1176  -19.9958  -15.9302 C   0  0  0  0  0  0  0  0  0  0  0  0
   18.7855  -19.4329  -16.2245 C   0  0  0  0  0  0  0  0  0  0  0  0
   17.5202  -19.9388  -15.9858 C   0  0  0  0  0  0  0  0  0  0  0  0
   16.5900  -19.1094  -16.4339 N   0  0  0  0  0  0  0  0  0  0  0  0
   17.2222  -18.0540  -16.9701 C   0  0  0  0  0  0  0  0  0  0  0  0
   18.5474  -18.2373  -16.8500 N   0  0  0  0  0  0  0  0  0  0  0  0
   19.2704  -21.0594  -13.8677 C   0  0  0  0  0  0  0  0  0  0  0  0
   19.1601  -22.2836  -14.1080 O   0  0  0  0  0  0  0  0  0  0  0  0
   18.3417  -20.4973  -12.9654 O   0  0  0  0  0  0  0  0  0  0  0  0
  1  2  1  0
  3  2  1  0
  4  5  1  0
  4  3  1  0
  5  1  1  0
  5  6  1  1
  6  7  2  0
  9  8  1  0
 10  9  1  0
 12 11  1  1
 11 10  1  0
 12 14  1  0
 13  6  1  0
 13 12  1  0
 14 15  2  0
 16 17  1  0
 16 14  1  0
 17 24  1  0
 17 18  1  6
 19 18  1  0
 20 19  2  0
 21 20  1  0
 22 21  1  0
 22 23  2  0
 23 19  1  0
 24 25  2  0
 24 26  1  0
M  END
$$$$
