PMH.pdb
     RDKit          3D

 26 27  0  0  1  0  0  0  0  0999 V2000
   29.0437  -19.7909  -12.1606 N   0  0  0  0  0  0  0  0  0  0  0  0
   30.4181  -19.7056  -12.6546 C   0  0  0  0  0  0  0  0  0  0  0  0
   30.9411  -21.0904  -12.4433 C   0  0  0  0  0  0  0  0  0  0  0  0
   29.7491  -22.0196  -12.3792 C   0  0  0  0  0  0  0  0  0  0  0  0
   28.5953  -21.0793  -12.6413 C   0  0  1  0  0  0  0  0  0  0  0  0
   27.3819  -21.4857  -11.8606 C   0  0  0  0  0  0  0  0  0  0  0  0
   26.7306  -22.4579  -12.2788 O   0  0  0  0  0  0  0  0  0  0  0  0
   28.1073  -18.6561   -5.5053 C   0  0  0  0  0  0  0  0  0  0  0  0
   27.1018  -20.0255   -6.1249 S   0  0  0  0  0  0  0  0  0  0  0  0
   27.0268  -19.9595   -7.9576 C   0  0  0  0  0  0  0  0  0  0  0  0
   26.1313  -21.0759   -8.3847 C   0  0  0  0  0  0  0  0  0  0  0  0
   25.8320  -21.0854   -9.8792 C   0  0  2  0  0  0  0  0  0  0  0  0
   26.9845  -20.7974  -10.6928 N   0  0  0  0  0  0  0  0  0  0  0  0
   24.7556  -20.1082  -10.1092 C   0  0  0  0  0  0  0  0  0  0  0  0
   24.9997  -18.8674  -10.0313 O   0  0  0  0  0  0  0  0  0  0  0  0
   23.4382  -20.5179  -10.4190 N   0  0  0  0  0  0  0  0  0  0  0  0
   22.7848  -20.0591  -11.6454 C   0  0  1  0  0  0  0  0  0  0  0  0
   23.6475  -20.3084  -12.8426 C   0  0  0  0  0  0  0  0  0  0  0  0
   23.0144  -19.7527  -14.0544 C   0  0  0  0  0  0  0  0  0  0  0  0
   21.8328  -19.0509  -14.2133 C   0  0  0  0  0  0  0  0  0  0  0  0
   21.6285  -18.7569  -15.4884 N   0  0  0  0  0  0  0  0  0  0  0  0
   22.6627  -19.2559  -16.1829 C   0  0  0  0  0  0  0  0  0  0  0  0
   23.5058  -19.8592  -15.3290 N   0  0  0  0  0  0  0  0  0  0  0  0
   21.4438  -20.6481  -11.7789 C   0  0  0  0  0  0  0  0  0  0  0  0
   20.3731  -19.9985  -11.7663 O   0  0  0  0  0  0  0  0  0  0  0  0
   21.3425  -22.0474  -11.9331 O   0  0  0  0  0  0  0  0  0  0  0  0
  1  2  1  0
  3  2  1  0
  4  5  1  0
  4  3  1  0
  5  1  1  0
  5  6  1  1
  6  7  2  0
  9  8  1  0
 10  9  1  0
 12 11  1  1
 11 10  1  0
 12 14  1  0
 13  6  1  0
 13 12  1  0
 14 15  2  0
 16 17  1  0
 16 14  1  0
 17 24  1  0
 17 18  1  6
 19 18  1  0
 20 19  2  0
 21 20  1  0
 22 21  1  0
 22 23  2  0
 23 19  1  0
 24 25  2  0
 24 26  1  0
M  END
$$$$
