PMH.pdb
     RDKit          3D

 26 27  0  0  1  0  0  0  0  0999 V2000
   21.8683  -19.0137  -16.4734 N   0  0  0  0  0  0  0  0  0  0  0  0
   21.5221  -20.4351  -16.4685 C   0  0  0  0  0  0  0  0  0  0  0  0
   21.4036  -20.7505  -15.0116 C   0  0  0  0  0  0  0  0  0  0  0  0
   21.1297  -19.4506  -14.2879 C   0  0  0  0  0  0  0  0  0  0  0  0
   21.0339  -18.4631  -15.4280 C   0  0  1  0  0  0  0  0  0  0  0  0
   21.5845  -17.1269  -15.0300 C   0  0  0  0  0  0  0  0  0  0  0  0
   21.0689  -16.5636  -14.0497 O   0  0  0  0  0  0  0  0  0  0  0  0
   28.0539  -12.5618  -15.4729 C   0  0  0  0  0  0  0  0  0  0  0  0
   27.1275  -14.0149  -16.0212 S   0  0  0  0  0  0  0  0  0  0  0  0
   25.3874  -13.8921  -15.4506 C   0  0  0  0  0  0  0  0  0  0  0  0
   24.7375  -15.1927  -15.7923 C   0  0  0  0  0  0  0  0  0  0  0  0
   23.2550  -15.2488  -15.4428 C   0  0  2  0  0  0  0  0  0  0  0  0
   22.6485  -16.5215  -15.7349 N   0  0  0  0  0  0  0  0  0  0  0  0
   22.5968  -14.1590  -16.1817 C   0  0  0  0  0  0  0  0  0  0  0  0
   22.4205  -14.2584  -17.4323 O   0  0  0  0  0  0  0  0  0  0  0  0
   22.1487  -12.9877  -15.5286 N   0  0  0  0  0  0  0  0  0  0  0  0
   21.5122  -11.9098  -16.2868 C   0  0  1  0  0  0  0  0  0  0  0  0
   20.2839  -11.4126  -15.5912 C   0  0  0  0  0  0  0  0  0  0  0  0
   19.2070  -12.4185  -15.6726 C   0  0  0  0  0  0  0  0  0  0  0  0
   19.1685  -13.6490  -16.3036 C   0  0  0  0  0  0  0  0  0  0  0  0
   17.9863  -14.2236  -16.1418 N   0  0  0  0  0  0  0  0  0  0  0  0
   17.2344  -13.3881  -15.4085 C   0  0  0  0  0  0  0  0  0  0  0  0
   17.9597  -12.2953  -15.1191 N   0  0  0  0  0  0  0  0  0  0  0  0
   22.4726  -10.8356  -16.5810 C   0  0  0  0  0  0  0  0  0  0  0  0
   23.6645  -10.8172  -16.1968 O   0  0  0  0  0  0  0  0  0  0  0  0
   22.0310   -9.7391  -17.3523 O   0  0  0  0  0  0  0  0  0  0  0  0
  1  2  1  0
  3  2  1  0
  4  5  1  0
  4  3  1  0
  5  1  1  0
  5  6  1  1
  6  7  2  0
  9  8  1  0
 10  9  1  0
 12 11  1  6
 11 10  1  0
 12 14  1  0
 13  6  1  0
 13 12  1  0
 14 15  2  0
 16 17  1  0
 16 14  1  0
 17 24  1  0
 17 18  1  1
 19 18  1  0
 20 19  2  0
 21 20  1  0
 22 21  1  0
 22 23  2  0
 23 19  1  0
 24 25  2  0
 24 26  1  0
M  END
$$$$
