PMH.pdb
     RDKit          3D

 26 27  0  0  1  0  0  0  0  0999 V2000
   27.1325  -19.3076  -14.7844 N   0  0  0  0  0  0  0  0  0  0  0  0
   28.4323  -18.9154  -15.3294 C   0  0  0  0  0  0  0  0  0  0  0  0
   29.3443  -19.9956  -14.8424 C   0  0  0  0  0  0  0  0  0  0  0  0
   28.4904  -21.2075  -14.5415 C   0  0  0  0  0  0  0  0  0  0  0  0
   27.1152  -20.7429  -14.9622 C   0  0  1  0  0  0  0  0  0  0  0  0
   26.0562  -21.3226  -14.0735 C   0  0  0  0  0  0  0  0  0  0  0  0
   25.7271  -22.5047  -14.2701 O   0  0  0  0  0  0  0  0  0  0  0  0
   27.4451  -20.5368   -7.5981 C   0  0  0  0  0  0  0  0  0  0  0  0
   25.8512  -20.2273   -8.3941 S   0  0  0  0  0  0  0  0  0  0  0  0
   25.8607  -20.9244  -10.0919 C   0  0  0  0  0  0  0  0  0  0  0  0
   24.5792  -20.4995  -10.7307 C   0  0  0  0  0  0  0  0  0  0  0  0
   24.4073  -21.0057  -12.1581 C   0  0  2  0  0  0  0  0  0  0  0  0
   25.4487  -20.5637  -13.0486 N   0  0  0  0  0  0  0  0  0  0  0  0
   23.0828  -20.5573  -12.6176 C   0  0  0  0  0  0  0  0  0  0  0  0
   22.8993  -19.3438  -12.9322 O   0  0  0  0  0  0  0  0  0  0  0  0
   21.9931  -21.4525  -12.7201 N   0  0  0  0  0  0  0  0  0  0  0  0
   20.6850  -20.9836  -13.1793 C   0  0  1  0  0  0  0  0  0  0  0  0
   20.7873  -20.3255  -14.5195 C   0  0  0  0  0  0  0  0  0  0  0  0
   21.3609  -21.2607  -15.5066 C   0  0  0  0  0  0  0  0  0  0  0  0
   20.9300  -22.5074  -15.9237 C   0  0  0  0  0  0  0  0  0  0  0  0
   21.7614  -23.0165  -16.8201 N   0  0  0  0  0  0  0  0  0  0  0  0
   22.7440  -22.1215  -17.0056 C   0  0  0  0  0  0  0  0  0  0  0  0
   22.5138  -21.0577  -16.2186 N   0  0  0  0  0  0  0  0  0  0  0  0
   19.6976  -22.0733  -13.1553 C   0  0  0  0  0  0  0  0  0  0  0  0
   19.9571  -23.2674  -12.8807 O   0  0  0  0  0  0  0  0  0  0  0  0
   18.3552  -21.7636  -13.4625 O   0  0  0  0  0  0  0  0  0  0  0  0
  1  2  1  0
  3  2  1  0
  4  5  1  0
  4  3  1  0
  5  1  1  0
  5  6  1  1
  6  7  2  0
  9  8  1  0
 10  9  1  0
 12 11  1  1
 11 10  1  0
 12 14  1  0
 13  6  1  0
 13 12  1  0
 14 15  2  0
 16 17  1  0
 16 14  1  0
 17 24  1  0
 17 18  1  6
 19 18  1  0
 20 19  2  0
 21 20  1  0
 22 21  1  0
 22 23  2  0
 23 19  1  0
 24 25  2  0
 24 26  1  0
M  END
$$$$
