PMH.pdb
     RDKit          3D

 26 27  0  0  1  0  0  0  0  0999 V2000
   29.0338  -19.9215  -12.6157 N   0  0  0  0  0  0  0  0  0  0  0  0
   30.4507  -19.8741  -12.9769 C   0  0  0  0  0  0  0  0  0  0  0  0
   30.8358  -21.3179  -13.0300 C   0  0  0  0  0  0  0  0  0  0  0  0
   29.5705  -22.1159  -13.2552 C   0  0  0  0  0  0  0  0  0  0  0  0
   28.5277  -21.0308  -13.3937 C   0  0  1  0  0  0  0  0  0  0  0  0
   27.2173  -21.4662  -12.8103 C   0  0  0  0  0  0  0  0  0  0  0  0
   26.5096  -22.2252  -13.4940 O   0  0  0  0  0  0  0  0  0  0  0  0
   27.0726  -18.9646   -6.2140 C   0  0  0  0  0  0  0  0  0  0  0  0
   26.1667  -20.3244   -6.9888 S   0  0  0  0  0  0  0  0  0  0  0  0
   26.5251  -20.3618   -8.7885 C   0  0  0  0  0  0  0  0  0  0  0  0
   25.6386  -21.4113   -9.3746 C   0  0  0  0  0  0  0  0  0  0  0  0
   25.5422  -21.3547  -10.8946 C   0  0  2  0  0  0  0  0  0  0  0  0
   26.7928  -21.0367  -11.5333 N   0  0  0  0  0  0  0  0  0  0  0  0
   24.5048  -20.3637  -11.2239 C   0  0  0  0  0  0  0  0  0  0  0  0
   24.8122  -19.1401  -11.3397 O   0  0  0  0  0  0  0  0  0  0  0  0
   23.1560  -20.7413  -11.4178 N   0  0  0  0  0  0  0  0  0  0  0  0
   22.4301  -20.3205  -12.6169 C   0  0  1  0  0  0  0  0  0  0  0  0
   23.2168  -20.6152  -13.8555 C   0  0  0  0  0  0  0  0  0  0  0  0
   22.5141  -20.0943  -15.0442 C   0  0  0  0  0  0  0  0  0  0  0  0
   21.6949  -18.9898  -15.1952 C   0  0  0  0  0  0  0  0  0  0  0  0
   21.2513  -18.9001  -16.4399 N   0  0  0  0  0  0  0  0  0  0  0  0
   21.7666  -19.9347  -17.1218 C   0  0  0  0  0  0  0  0  0  0  0  0
   22.5303  -20.6627  -16.2908 N   0  0  0  0  0  0  0  0  0  0  0  0
   21.0813  -20.9059  -12.6476 C   0  0  0  0  0  0  0  0  0  0  0  0
   20.0272  -20.2625  -12.8559 O   0  0  0  0  0  0  0  0  0  0  0  0
   20.9518  -22.2941  -12.4278 O   0  0  0  0  0  0  0  0  0  0  0  0
  1  2  1  0
  3  2  1  0
  4  5  1  0
  4  3  1  0
  5  1  1  0
  5  6  1  1
  6  7  2  0
  9  8  1  0
 10  9  1  0
 12 11  1  1
 11 10  1  0
 12 14  1  0
 13  6  1  0
 13 12  1  0
 14 15  2  0
 16 17  1  0
 16 14  1  0
 17 24  1  0
 17 18  1  6
 19 18  1  0
 20 19  2  0
 21 20  1  0
 22 21  1  0
 22 23  2  0
 23 19  1  0
 24 25  2  0
 24 26  1  0
M  END
$$$$
