YCT.pdb
     RDKit          3D

 26 26  0  0  1  0  0  0  0  0999 V2000
    7.8404  -14.7494   14.5962 O   0  0  0  0  0  0  0  0  0  0  0  0
    8.1019  -14.4857   15.9367 C   0  0  0  0  0  0  0  0  0  0  0  0
    7.8171  -13.2584   16.4964 C   0  0  0  0  0  0  0  0  0  0  0  0
    8.0690  -12.9792   17.8211 C   0  0  0  0  0  0  0  0  0  0  0  0
    8.6307  -13.9397   18.6636 C   0  0  0  0  0  0  0  0  0  0  0  0
    8.8907  -13.6086   20.0848 C   0  0  0  0  0  0  0  0  0  0  0  0
    7.8845  -14.3717   20.9110 C   0  0  2  0  0  0  0  0  0  0  0  0
    6.5636  -13.7819   20.8057 N   0  0  0  0  0  0  0  0  0  0  0  0
    8.2884  -14.3121   22.3396 C   0  0  0  0  0  0  0  0  0  0  0  0
    8.6150  -13.2337   22.8982 O   0  0  0  0  0  0  0  0  0  0  0  0
    8.9152  -15.1649   18.1063 C   0  0  0  0  0  0  0  0  0  0  0  0
    8.6582  -15.4439   16.7627 C   0  0  0  0  0  0  0  0  0  0  0  0
    8.3229  -15.4991   23.1537 N   0  0  0  0  0  0  0  0  0  0  0  0
    8.8588  -15.4746   24.5022 C   0  0  1  0  0  0  0  0  0  0  0  0
    7.8084  -14.8586   25.4159 C   0  0  0  0  0  0  0  0  0  0  0  0
    6.2453  -15.7064   25.0684 S   0  0  0  0  0  0  0  0  0  0  0  0
    9.1125  -16.8816   24.9544 C   0  0  0  0  0  0  0  0  0  0  0  0
    8.2498  -17.7706   24.7208 O   0  0  0  0  0  0  0  0  0  0  0  0
   11.6418  -19.0765   23.8018 C   0  0  0  0  0  0  0  0  0  0  0  0
   11.7467  -19.1135   25.2981 C   0  0  1  0  0  0  0  0  0  0  0  0
   12.8041  -18.3448   25.7770 O   0  0  0  0  0  0  0  0  0  0  0  0
   10.4971  -18.6297   25.9965 C   0  0  2  0  0  0  0  0  0  0  0  0
   10.2793  -17.2660   25.6354 N   0  0  0  0  0  0  0  0  0  0  0  0
   10.5101  -18.8753   27.4366 C   0  0  0  0  0  0  0  0  0  0  0  0
   10.4341  -17.8189   28.3222 O   0  0  0  0  0  0  0  0  0  0  0  0
   10.5900  -20.0450   27.8814 O   0  0  0  0  0  0  0  0  0  0  0  0
  2  3  2  0
  2  1  1  0
  4  3  1  0
  5  4  2  0
  6  5  1  0
  7  6  1  0
  7  9  1  0
  7  8  1  1
  9 10  2  0
 11  5  1  0
 11 12  2  0
 12  2  1  0
 13  9  1  0
 13 14  1  0
 14 15  1  1
 15 16  1  0
 17 14  1  0
 17 23  1  0
 18 17  2  0
 20 19  1  6
 21 20  1  0
 22 24  1  0
 22 23  1  1
 22 20  1  0
 24 25  1  0
 26 24  2  0
M  END
$$$$
