YCT.pdb
     RDKit          3D

 26 26  0  0  1  0  0  0  0  0999 V2000
    7.1633  -14.7419   15.4568 O   0  0  0  0  0  0  0  0  0  0  0  0
    7.3807  -14.4734   16.8042 C   0  0  0  0  0  0  0  0  0  0  0  0
    7.4311  -13.1804   17.2801 C   0  0  0  0  0  0  0  0  0  0  0  0
    7.6452  -12.8954   18.6102 C   0  0  0  0  0  0  0  0  0  0  0  0
    7.8228  -13.9169   19.5444 C   0  0  0  0  0  0  0  0  0  0  0  0
    8.0522  -13.5781   20.9690 C   0  0  0  0  0  0  0  0  0  0  0  0
    8.3686  -14.8667   21.6878 C   0  0  2  0  0  0  0  0  0  0  0  0
    7.1776  -15.6756   21.8636 N   0  0  0  0  0  0  0  0  0  0  0  0
    8.8967  -14.5483   23.0396 C   0  0  0  0  0  0  0  0  0  0  0  0
   10.0181  -14.0050   23.2091 O   0  0  0  0  0  0  0  0  0  0  0  0
    7.7726  -15.2076   19.0707 C   0  0  0  0  0  0  0  0  0  0  0  0
    7.5552  -15.4923   17.7214 C   0  0  0  0  0  0  0  0  0  0  0  0
    8.1384  -14.8513   24.2254 N   0  0  0  0  0  0  0  0  0  0  0  0
    8.6727  -14.5930   25.5498 C   0  0  1  0  0  0  0  0  0  0  0  0
    7.6739  -13.7225   26.2996 C   0  0  0  0  0  0  0  0  0  0  0  0
    8.4161  -13.3328   27.9058 S   0  0  0  0  0  0  0  0  0  0  0  0
    8.8117  -15.8930   26.2843 C   0  0  0  0  0  0  0  0  0  0  0  0
    7.7751  -16.5246   26.6239 O   0  0  0  0  0  0  0  0  0  0  0  0
   10.2273  -18.9248   25.0811 C   0  0  0  0  0  0  0  0  0  0  0  0
   10.8990  -18.6701   26.3984 C   0  0  1  0  0  0  0  0  0  0  0  0
   12.1825  -18.1515   26.2503 O   0  0  0  0  0  0  0  0  0  0  0  0
   10.1350  -17.7125   27.2830 C   0  0  2  0  0  0  0  0  0  0  0  0
   10.0564  -16.4516   26.6185 N   0  0  0  0  0  0  0  0  0  0  0  0
   10.6597  -17.6425   28.6446 C   0  0  0  0  0  0  0  0  0  0  0  0
   10.6397  -18.7599   29.4552 O   0  0  0  0  0  0  0  0  0  0  0  0
   11.1322  -16.5695   29.0896 O   0  0  0  0  0  0  0  0  0  0  0  0
  2  3  2  0
  2  1  1  0
  4  3  1  0
  5  4  2  0
  6  5  1  0
  7  6  1  0
  7  9  1  0
  7  8  1  1
  9 10  2  0
 11  5  1  0
 11 12  2  0
 12  2  1  0
 13  9  1  0
 13 14  1  0
 14 15  1  1
 15 16  1  0
 17 14  1  0
 17 23  1  0
 18 17  2  0
 20 19  1  6
 21 20  1  0
 22 24  1  0
 22 23  1  6
 22 20  1  0
 24 25  1  0
 26 24  2  0
M  END
$$$$
