YCT.pdb
     RDKit          3D

 26 26  0  0  1  0  0  0  0  0999 V2000
   10.1214  -13.9766   31.0126 O   0  0  0  0  0  0  0  0  0  0  0  0
    9.9790  -14.4898   29.7276 C   0  0  0  0  0  0  0  0  0  0  0  0
   10.3791  -15.7723   29.4177 C   0  0  0  0  0  0  0  0  0  0  0  0
   10.2460  -16.2973   28.1516 C   0  0  0  0  0  0  0  0  0  0  0  0
    9.6934  -15.5430   27.1155 C   0  0  0  0  0  0  0  0  0  0  0  0
    9.5642  -16.1359   25.7632 C   0  0  0  0  0  0  0  0  0  0  0  0
    8.0944  -16.1490   25.4213 C   0  0  2  0  0  0  0  0  0  0  0  0
    7.3892  -17.1674   26.1758 N   0  0  0  0  0  0  0  0  0  0  0  0
    7.9370  -16.4712   23.9795 C   0  0  0  0  0  0  0  0  0  0  0  0
    7.6627  -17.6315   23.5791 O   0  0  0  0  0  0  0  0  0  0  0  0
    9.2936  -14.2632   27.4235 C   0  0  0  0  0  0  0  0  0  0  0  0
    9.4302  -13.7347   28.7085 C   0  0  0  0  0  0  0  0  0  0  0  0
    8.0930  -15.4578   22.9687 N   0  0  0  0  0  0  0  0  0  0  0  0
    8.1851  -15.8023   21.5620 C   0  0  1  0  0  0  0  0  0  0  0  0
    7.8428  -14.5614   20.7493 C   0  0  0  0  0  0  0  0  0  0  0  0
    6.0942  -14.1977   21.0540 S   0  0  0  0  0  0  0  0  0  0  0  0
    9.5961  -16.2000   21.2462 C   0  0  0  0  0  0  0  0  0  0  0  0
   10.5349  -15.3967   21.4957 O   0  0  0  0  0  0  0  0  0  0  0  0
   11.2024  -19.7876   22.0779 C   0  0  0  0  0  0  0  0  0  0  0  0
   11.3934  -19.3218   20.6644 C   0  0  1  0  0  0  0  0  0  0  0  0
   10.4660  -19.8808   19.7894 O   0  0  0  0  0  0  0  0  0  0  0  0
   11.2961  -17.8216   20.5118 C   0  0  2  0  0  0  0  0  0  0  0  0
    9.9306  -17.4402   20.6779 N   0  0  0  0  0  0  0  0  0  0  0  0
   11.9133  -17.3261   19.2839 C   0  0  0  0  0  0  0  0  0  0  0  0
   11.1254  -16.9045   18.2314 O   0  0  0  0  0  0  0  0  0  0  0  0
   13.1615  -17.2787   19.1739 O   0  0  0  0  0  0  0  0  0  0  0  0
  2  3  2  0
  2  1  1  0
  4  3  1  0
  5  4  2  0
  6  5  1  0
  7  6  1  0
  7  9  1  0
  7  8  1  1
  9 10  2  0
 11  5  1  0
 11 12  2  0
 12  2  1  0
 13  9  1  0
 13 14  1  0
 14 15  1  6
 15 16  1  0
 17 14  1  0
 17 23  1  0
 18 17  2  0
 20 19  1  1
 21 20  1  0
 22 24  1  0
 22 23  1  6
 22 20  1  0
 24 25  1  0
 26 24  2  0
M  END
$$$$
