YCT.pdb
     RDKit          3D

 26 26  0  0  1  0  0  0  0  0999 V2000
   10.8029  -19.0835   30.6633 O   0  0  0  0  0  0  0  0  0  0  0  0
   10.1532  -19.0881   29.4334 C   0  0  0  0  0  0  0  0  0  0  0  0
   10.8431  -18.8942   28.2556 C   0  0  0  0  0  0  0  0  0  0  0  0
   10.2170  -18.8956   27.0290 C   0  0  0  0  0  0  0  0  0  0  0  0
    8.8397  -19.0956   26.9257 C   0  0  0  0  0  0  0  0  0  0  0  0
    8.1947  -19.0907   25.5912 C   0  0  0  0  0  0  0  0  0  0  0  0
    6.7922  -18.5653   25.7764 C   0  0  2  0  0  0  0  0  0  0  0  0
    5.8068  -19.5311   25.3294 N   0  0  0  0  0  0  0  0  0  0  0  0
    6.6230  -17.3400   24.9533 C   0  0  0  0  0  0  0  0  0  0  0  0
    6.2411  -17.3857   23.7559 O   0  0  0  0  0  0  0  0  0  0  0  0
    8.1501  -19.2893   28.1003 C   0  0  0  0  0  0  0  0  0  0  0  0
    8.7886  -19.2873   29.3417 C   0  0  0  0  0  0  0  0  0  0  0  0
    6.8916  -16.0344   25.4976 N   0  0  0  0  0  0  0  0  0  0  0  0
    6.9893  -14.8655   24.6431 C   0  0  1  0  0  0  0  0  0  0  0  0
    7.0369  -13.6325   25.5345 C   0  0  0  0  0  0  0  0  0  0  0  0
    5.4779  -13.5882   26.4566 S   0  0  0  0  0  0  0  0  0  0  0  0
    8.2678  -14.9345   23.8625 C   0  0  0  0  0  0  0  0  0  0  0  0
    9.3219  -15.3202   24.4364 O   0  0  0  0  0  0  0  0  0  0  0  0
    9.6760  -15.6038   19.1570 C   0  0  0  0  0  0  0  0  0  0  0  0
    8.8873  -14.8662   20.1988 C   0  0  1  0  0  0  0  0  0  0  0  0
    7.5137  -14.9607   19.9929 O   0  0  0  0  0  0  0  0  0  0  0  0
    9.1574  -15.3487   21.6051 C   0  0  2  0  0  0  0  0  0  0  0  0
    8.3529  -14.5861   22.5045 N   0  0  0  0  0  0  0  0  0  0  0  0
   10.5784  -15.3730   21.9430 C   0  0  0  0  0  0  0  0  0  0  0  0
   11.2216  -14.2127   22.3254 O   0  0  0  0  0  0  0  0  0  0  0  0
   11.2265  -16.4452   21.8893 O   0  0  0  0  0  0  0  0  0  0  0  0
  2  3  2  0
  2  1  1  0
  4  3  1  0
  5  4  2  0
  6  5  1  0
  7  6  1  0
  7  9  1  0
  7  8  1  6
  9 10  2  0
 11  5  1  0
 11 12  2  0
 12  2  1  0
 13  9  1  0
 13 14  1  0
 14 15  1  1
 15 16  1  0
 17 14  1  0
 17 23  1  0
 18 17  2  0
 20 19  1  6
 21 20  1  0
 22 24  1  0
 22 23  1  1
 22 20  1  0
 24 25  1  0
 26 24  2  0
M  END
$$$$
