YCT.pdb
     RDKit          3D

 26 26  0  0  1  0  0  0  0  0999 V2000
    5.1668  -10.5870   28.1188 O   0  0  0  0  0  0  0  0  0  0  0  0
    5.8879  -11.5701   27.4491 C   0  0  0  0  0  0  0  0  0  0  0  0
    7.0099  -12.1443   28.0078 C   0  0  0  0  0  0  0  0  0  0  0  0
    7.7361  -13.1186   27.3599 C   0  0  0  0  0  0  0  0  0  0  0  0
    7.3619  -13.5712   26.0939 C   0  0  0  0  0  0  0  0  0  0  0  0
    8.1645  -14.6205   25.4218 C   0  0  0  0  0  0  0  0  0  0  0  0
    7.1962  -15.5388   24.7171 C   0  0  2  0  0  0  0  0  0  0  0  0
    6.6708  -16.5423   25.6230 N   0  0  0  0  0  0  0  0  0  0  0  0
    7.9124  -16.2510   23.6274 C   0  0  0  0  0  0  0  0  0  0  0  0
    8.2648  -17.4536   23.7327 O   0  0  0  0  0  0  0  0  0  0  0  0
    6.2423  -12.9990   25.5353 C   0  0  0  0  0  0  0  0  0  0  0  0
    5.5088  -12.0116   26.1956 C   0  0  0  0  0  0  0  0  0  0  0  0
    8.2363  -15.5875   22.3914 N   0  0  0  0  0  0  0  0  0  0  0  0
    8.8282  -16.3086   21.2798 C   0  0  1  0  0  0  0  0  0  0  0  0
    8.7456  -15.4220   20.0451 C   0  0  0  0  0  0  0  0  0  0  0  0
    6.9941  -15.0343   19.7909 S   0  0  0  0  0  0  0  0  0  0  0  0
   10.2744  -16.5690   21.5790 C   0  0  0  0  0  0  0  0  0  0  0  0
   11.0376  -15.5980   21.8316 O   0  0  0  0  0  0  0  0  0  0  0  0
   11.9126  -18.9658   24.2171 C   0  0  0  0  0  0  0  0  0  0  0  0
   12.3376  -19.2501   22.8064 C   0  0  1  0  0  0  0  0  0  0  0  0
   11.6051  -20.2826   22.2272 O   0  0  0  0  0  0  0  0  0  0  0  0
   12.2129  -18.0532   21.8925 C   0  0  2  0  0  0  0  0  0  0  0  0
   10.8310  -17.8586   21.5925 N   0  0  0  0  0  0  0  0  0  0  0  0
   13.0775  -18.1327   20.7176 C   0  0  0  0  0  0  0  0  0  0  0  0
   14.4455  -18.0029   20.8516 O   0  0  0  0  0  0  0  0  0  0  0  0
   12.5871  -18.3193   19.5787 O   0  0  0  0  0  0  0  0  0  0  0  0
  2  3  2  0
  2  1  1  0
  4  3  1  0
  5  4  2  0
  6  5  1  0
  7  6  1  0
  7  9  1  0
  7  8  1  1
  9 10  2  0
 11  5  1  0
 11 12  2  0
 12  2  1  0
 13  9  1  0
 13 14  1  0
 14 15  1  6
 15 16  1  0
 17 14  1  0
 17 23  1  0
 18 17  2  0
 20 19  1  1
 21 20  1  0
 22 24  1  0
 22 23  1  6
 22 20  1  0
 24 25  1  0
 26 24  2  0
M  END
$$$$
