YCT.pdb
     RDKit          3D

 26 26  0  0  1  0  0  0  0  0999 V2000
    5.5564  -10.6000   28.2265 O   0  0  0  0  0  0  0  0  0  0  0  0
    6.1407  -11.5895   27.4427 C   0  0  0  0  0  0  0  0  0  0  0  0
    7.3782  -12.1133   27.7512 C   0  0  0  0  0  0  0  0  0  0  0  0
    7.9721  -13.0930   26.9872 C   0  0  0  0  0  0  0  0  0  0  0  0
    7.3380  -13.6031   25.8534 C   0  0  0  0  0  0  0  0  0  0  0  0
    8.0034  -14.6567   25.0509 C   0  0  0  0  0  0  0  0  0  0  0  0
    6.9193  -15.5589   24.5141 C   0  0  2  0  0  0  0  0  0  0  0  0
    6.5223  -16.5460   25.4998 N   0  0  0  0  0  0  0  0  0  0  0  0
    7.4426  -16.2921   23.3325 C   0  0  0  0  0  0  0  0  0  0  0  0
    7.6827  -17.5262   23.3631 O   0  0  0  0  0  0  0  0  0  0  0  0
    6.1031  -13.0813   25.5444 C   0  0  0  0  0  0  0  0  0  0  0  0
    5.5043  -12.0882   26.3218 C   0  0  0  0  0  0  0  0  0  0  0  0
    7.6994  -15.6135   22.0889 N   0  0  0  0  0  0  0  0  0  0  0  0
    8.1249  -16.3393   20.9064 C   0  0  1  0  0  0  0  0  0  0  0  0
    7.9025  -15.4421   19.6969 C   0  0  0  0  0  0  0  0  0  0  0  0
    8.4996  -13.7920   20.1480 S   0  0  0  0  0  0  0  0  0  0  0  0
    9.5914  -16.6339   21.0135 C   0  0  0  0  0  0  0  0  0  0  0  0
   10.3632  -15.7612   21.4950 O   0  0  0  0  0  0  0  0  0  0  0  0
   11.0099  -20.1539   22.3623 C   0  0  0  0  0  0  0  0  0  0  0  0
   11.6282  -19.6614   21.0869 C   0  0  1  0  0  0  0  0  0  0  0  0
   11.0630  -20.2502   19.9590 O   0  0  0  0  0  0  0  0  0  0  0  0
   11.5156  -18.1653   20.9075 C   0  0  2  0  0  0  0  0  0  0  0  0
   10.1580  -17.8503   20.5985 N   0  0  0  0  0  0  0  0  0  0  0  0
   12.4884  -17.6235   19.9619 C   0  0  0  0  0  0  0  0  0  0  0  0
   13.8106  -17.4779   20.3320 O   0  0  0  0  0  0  0  0  0  0  0  0
   12.1333  -17.2862   18.8075 O   0  0  0  0  0  0  0  0  0  0  0  0
  2  3  2  0
  2  1  1  0
  4  3  1  0
  5  4  2  0
  6  5  1  0
  7  6  1  0
  7  9  1  0
  7  8  1  1
  9 10  2  0
 11  5  1  0
 11 12  2  0
 12  2  1  0
 13  9  1  0
 13 14  1  0
 14 15  1  6
 15 16  1  0
 17 14  1  0
 17 23  1  0
 18 17  2  0
 20 19  1  1
 21 20  1  0
 22 24  1  0
 22 23  1  6
 22 20  1  0
 24 25  1  0
 26 24  2  0
M  END
$$$$
