YCT.pdb
     RDKit          3D

 26 26  0  0  1  0  0  0  0  0999 V2000
    8.9192  -12.5343   17.4805 O   0  0  0  0  0  0  0  0  0  0  0  0
    8.3787  -13.0231   18.6653 C   0  0  0  0  0  0  0  0  0  0  0  0
    9.1796  -13.3554   19.7372 C   0  0  0  0  0  0  0  0  0  0  0  0
    8.6625  -13.8404   20.9177 C   0  0  0  0  0  0  0  0  0  0  0  0
    7.2878  -14.0186   21.0805 C   0  0  0  0  0  0  0  0  0  0  0  0
    6.7617  -14.5434   22.3629 C   0  0  0  0  0  0  0  0  0  0  0  0
    6.7591  -16.0490   22.2602 C   0  0  2  0  0  0  0  0  0  0  0  0
    5.5593  -16.5279   21.6007 N   0  0  0  0  0  0  0  0  0  0  0  0
    6.7776  -16.6262   23.6291 C   0  0  0  0  0  0  0  0  0  0  0  0
    5.7500  -16.6650   24.3531 O   0  0  0  0  0  0  0  0  0  0  0  0
    6.4875  -13.6873   20.0116 C   0  0  0  0  0  0  0  0  0  0  0  0
    7.0158  -13.1956   18.8165 C   0  0  0  0  0  0  0  0  0  0  0  0
    7.9859  -17.1719   24.1908 N   0  0  0  0  0  0  0  0  0  0  0  0
    8.0420  -17.6209   25.5697 C   0  0  1  0  0  0  0  0  0  0  0  0
    8.2336  -19.1311   25.5664 C   0  0  0  0  0  0  0  0  0  0  0  0
    8.4896  -19.6336   27.2882 S   0  0  0  0  0  0  0  0  0  0  0  0
    9.2279  -16.9952   26.2410 C   0  0  0  0  0  0  0  0  0  0  0  0
   10.3432  -16.9983   25.6535 O   0  0  0  0  0  0  0  0  0  0  0  0
    9.6738  -13.4803   27.3626 C   0  0  0  0  0  0  0  0  0  0  0  0
    9.9600  -14.3919   28.5195 C   0  0  1  0  0  0  0  0  0  0  0  0
    8.8854  -14.4894   29.3993 O   0  0  0  0  0  0  0  0  0  0  0  0
   10.3146  -15.7989   28.0976 C   0  0  2  0  0  0  0  0  0  0  0  0
    9.1593  -16.3968   27.5099 N   0  0  0  0  0  0  0  0  0  0  0  0
   10.9197  -16.5865   29.1689 C   0  0  0  0  0  0  0  0  0  0  0  0
   12.1285  -16.2036   29.7151 O   0  0  0  0  0  0  0  0  0  0  0  0
   10.3486  -17.6154   29.6021 O   0  0  0  0  0  0  0  0  0  0  0  0
  2  3  2  0
  2  1  1  0
  4  3  1  0
  5  4  2  0
  6  5  1  0
  7  6  1  0
  7  9  1  0
  7  8  1  1
  9 10  2  0
 11  5  1  0
 11 12  2  0
 12  2  1  0
 13  9  1  0
 13 14  1  0
 14 15  1  6
 15 16  1  0
 17 14  1  0
 17 23  1  0
 18 17  2  0
 20 19  1  6
 21 20  1  0
 22 24  1  0
 22 23  1  1
 22 20  1  0
 24 25  1  0
 26 24  2  0
M  END
$$$$
