YCT.pdb
     RDKit          3D

 26 26  0  0  1  0  0  0  0  0999 V2000
    0.1435  -25.0579   26.9804 O   0  0  0  0  0  0  0  0  0  0  0  0
    1.4332  -24.6231   26.6932 C   0  0  0  0  0  0  0  0  0  0  0  0
    2.5329  -25.4113   26.9582 C   0  0  0  0  0  0  0  0  0  0  0  0
    3.8168  -24.9977   26.6808 C   0  0  0  0  0  0  0  0  0  0  0  0
    4.0617  -23.7467   26.1125 C   0  0  0  0  0  0  0  0  0  0  0  0
    5.4549  -23.3298   25.8264 C   0  0  0  0  0  0  0  0  0  0  0  0
    5.5650  -23.1391   24.3335 C   0  0  2  0  0  0  0  0  0  0  0  0
    5.4090  -24.3983   23.6308 N   0  0  0  0  0  0  0  0  0  0  0  0
    6.9166  -22.6123   24.0125 C   0  0  0  0  0  0  0  0  0  0  0  0
    7.8923  -23.3706   23.7788 O   0  0  0  0  0  0  0  0  0  0  0  0
    2.9651  -22.9593   25.8476 C   0  0  0  0  0  0  0  0  0  0  0  0
    1.6651  -23.3824   26.1303 C   0  0  0  0  0  0  0  0  0  0  0  0
    7.1692  -21.1960   23.9542 N   0  0  0  0  0  0  0  0  0  0  0  0
    8.4625  -20.6756   23.5510 C   0  0  1  0  0  0  0  0  0  0  0  0
    8.2772  -19.2233   23.1340 C   0  0  0  0  0  0  0  0  0  0  0  0
    7.1845  -19.2254   21.6887 S   0  0  0  0  0  0  0  0  0  0  0  0
    9.3944  -20.7152   24.7252 C   0  0  0  0  0  0  0  0  0  0  0  0
    8.9925  -20.3041   25.8471 O   0  0  0  0  0  0  0  0  0  0  0  0
   10.5730  -23.5660   26.3882 C   0  0  0  0  0  0  0  0  0  0  0  0
   11.8026  -22.7767   26.0472 C   0  0  1  0  0  0  0  0  0  0  0  0
   12.4479  -23.2599   24.9121 O   0  0  0  0  0  0  0  0  0  0  0  0
   11.5238  -21.3112   25.8065 C   0  0  2  0  0  0  0  0  0  0  0  0
   10.7121  -21.1937   24.6382 N   0  0  0  0  0  0  0  0  0  0  0  0
   12.7325  -20.4909   25.7835 C   0  0  0  0  0  0  0  0  0  0  0  0
   13.0927  -19.8165   24.6339 O   0  0  0  0  0  0  0  0  0  0  0  0
   13.4529  -20.3913   26.8050 O   0  0  0  0  0  0  0  0  0  0  0  0
  2  3  2  0
  2  1  1  0
  4  3  1  0
  5  4  2  0
  6  5  1  0
  7  6  1  0
  7  9  1  0
  7  8  1  6
  9 10  2  0
 11  5  1  0
 11 12  2  0
 12  2  1  0
 13  9  1  0
 13 14  1  0
 14 15  1  1
 15 16  1  0
 17 14  1  0
 17 23  1  0
 18 17  2  0
 20 19  1  6
 21 20  1  0
 22 24  1  0
 22 23  1  6
 22 20  1  0
 24 25  1  0
 26 24  2  0
M  END
$$$$
