YCT.pdb
     RDKit          3D

 26 26  0  0  1  0  0  0  0  0999 V2000
    9.4286  -18.7595   29.9383 O   0  0  0  0  0  0  0  0  0  0  0  0
    8.7984  -19.2467   28.7980 C   0  0  0  0  0  0  0  0  0  0  0  0
    7.4802  -19.6497   28.8222 C   0  0  0  0  0  0  0  0  0  0  0  0
    6.8398  -20.1345   27.7036 C   0  0  0  0  0  0  0  0  0  0  0  0
    7.5074  -20.2397   26.4826 C   0  0  0  0  0  0  0  0  0  0  0  0
    6.7911  -20.7662   25.2966 C   0  0  0  0  0  0  0  0  0  0  0  0
    5.8340  -19.6920   24.8413 C   0  0  2  0  0  0  0  0  0  0  0  0
    4.9677  -20.1752   23.7831 N   0  0  0  0  0  0  0  0  0  0  0  0
    6.6132  -18.5508   24.2953 C   0  0  0  0  0  0  0  0  0  0  0  0
    7.2242  -18.6216   23.1984 O   0  0  0  0  0  0  0  0  0  0  0  0
    8.8229  -19.8377   26.4570 C   0  0  0  0  0  0  0  0  0  0  0  0
    9.4684  -19.3467   27.5934 C   0  0  0  0  0  0  0  0  0  0  0  0
    6.7023  -17.3021   25.0065 N   0  0  0  0  0  0  0  0  0  0  0  0
    7.3714  -16.1507   24.4296 C   0  0  1  0  0  0  0  0  0  0  0  0
    7.1014  -14.9504   25.3261 C   0  0  0  0  0  0  0  0  0  0  0  0
    7.9371  -13.5307   24.5719 S   0  0  0  0  0  0  0  0  0  0  0  0
    8.8495  -16.4024   24.4086 C   0  0  0  0  0  0  0  0  0  0  0  0
    9.4590  -16.5942   25.4953 O   0  0  0  0  0  0  0  0  0  0  0  0
   10.5500  -18.9344   22.0074 C   0  0  0  0  0  0  0  0  0  0  0  0
   11.2829  -17.6251   22.0234 C   0  0  1  0  0  0  0  0  0  0  0  0
   10.9931  -16.8389   20.9116 O   0  0  0  0  0  0  0  0  0  0  0  0
   10.9844  -16.7886   23.2459 C   0  0  2  0  0  0  0  0  0  0  0  0
    9.6015  -16.4358   23.2227 N   0  0  0  0  0  0  0  0  0  0  0  0
   11.8915  -15.6544   23.4035 C   0  0  0  0  0  0  0  0  0  0  0  0
   13.2234  -15.8657   23.6992 O   0  0  0  0  0  0  0  0  0  0  0  0
   11.4705  -14.4805   23.2720 O   0  0  0  0  0  0  0  0  0  0  0  0
  2  3  2  0
  2  1  1  0
  4  3  1  0
  5  4  2  0
  6  5  1  0
  7  6  1  0
  7  9  1  0
  7  8  1  6
  9 10  2  0
 11  5  1  0
 11 12  2  0
 12  2  1  0
 13  9  1  0
 13 14  1  0
 14 15  1  1
 15 16  1  0
 17 14  1  0
 17 23  1  0
 18 17  2  0
 20 19  1  1
 21 20  1  0
 22 24  1  0
 22 23  1  6
 22 20  1  0
 24 25  1  0
 26 24  2  0
M  END
$$$$
