YCT.pdb
     RDKit          3D

 26 26  0  0  1  0  0  0  0  0999 V2000
   11.2168  -14.8515   32.0388 O   0  0  0  0  0  0  0  0  0  0  0  0
   10.8927  -15.3145   30.7677 C   0  0  0  0  0  0  0  0  0  0  0  0
   10.9904  -16.6508   30.4432 C   0  0  0  0  0  0  0  0  0  0  0  0
   10.6739  -17.1274   29.1905 C   0  0  0  0  0  0  0  0  0  0  0  0
   10.2357  -16.2659   28.1837 C   0  0  0  0  0  0  0  0  0  0  0  0
    9.9035  -16.8090   26.8452 C   0  0  0  0  0  0  0  0  0  0  0  0
    8.4069  -16.9964   26.7996 C   0  0  2  0  0  0  0  0  0  0  0  0
    8.0467  -18.3895   26.9826 N   0  0  0  0  0  0  0  0  0  0  0  0
    7.9083  -16.5773   25.4642 C   0  0  0  0  0  0  0  0  0  0  0  0
    7.5462  -17.4094   24.5936 O   0  0  0  0  0  0  0  0  0  0  0  0
   10.1378  -14.9321   28.5063 C   0  0  0  0  0  0  0  0  0  0  0  0
   10.4594  -14.4531   29.7776 C   0  0  0  0  0  0  0  0  0  0  0  0
    7.8173  -15.1855   25.1066 N   0  0  0  0  0  0  0  0  0  0  0  0
    7.3687  -14.7720   23.7899 C   0  0  1  0  0  0  0  0  0  0  0  0
    7.2390  -13.2552   23.7908 C   0  0  0  0  0  0  0  0  0  0  0  0
    5.9931  -12.8335   25.0368 S   0  0  0  0  0  0  0  0  0  0  0  0
    8.4040  -15.1575   22.7759 C   0  0  0  0  0  0  0  0  0  0  0  0
    9.6249  -15.0107   23.0530 O   0  0  0  0  0  0  0  0  0  0  0  0
    9.3361  -18.1467   18.9975 C   0  0  0  0  0  0  0  0  0  0  0  0
    8.3953  -17.4144   19.9085 C   0  0  1  0  0  0  0  0  0  0  0  0
    7.7627  -18.2620   20.8138 O   0  0  0  0  0  0  0  0  0  0  0  0
    9.0692  -16.3294   20.7160 C   0  0  2  0  0  0  0  0  0  0  0  0
    8.0786  -15.6817   21.5140 N   0  0  0  0  0  0  0  0  0  0  0  0
    9.8736  -15.4210   19.9024 C   0  0  0  0  0  0  0  0  0  0  0  0
    9.2653  -14.4230   19.1675 O   0  0  0  0  0  0  0  0  0  0  0  0
   11.1215  -15.5383   19.8635 O   0  0  0  0  0  0  0  0  0  0  0  0
  2  3  2  0
  2  1  1  0
  4  3  1  0
  5  4  2  0
  6  5  1  0
  7  6  1  0
  7  9  1  0
  7  8  1  6
  9 10  2  0
 11  5  1  0
 11 12  2  0
 12  2  1  0
 13  9  1  0
 13 14  1  0
 14 15  1  1
 15 16  1  0
 17 14  1  0
 17 23  1  0
 18 17  2  0
 20 19  1  1
 21 20  1  0
 22 24  1  0
 22 23  1  6
 22 20  1  0
 24 25  1  0
 26 24  2  0
M  END
$$$$
