YCT.pdb
     RDKit          3D

 26 26  0  0  1  0  0  0  0  0999 V2000
    7.7860  -13.1637   24.3552 O   0  0  0  0  0  0  0  0  0  0  0  0
    7.6452  -13.1549   22.9714 C   0  0  0  0  0  0  0  0  0  0  0  0
    8.0374  -12.0702   22.2161 C   0  0  0  0  0  0  0  0  0  0  0  0
    7.9058  -12.0435   20.8456 C   0  0  0  0  0  0  0  0  0  0  0  0
    7.3626  -13.1277   20.1547 C   0  0  0  0  0  0  0  0  0  0  0  0
    7.2332  -13.0686   18.6794 C   0  0  0  0  0  0  0  0  0  0  0  0
    8.5854  -13.4047   18.1000 C   0  0  2  0  0  0  0  0  0  0  0  0
    8.5050  -13.6144   16.6671 N   0  0  0  0  0  0  0  0  0  0  0  0
    9.0713  -14.6692   18.7104 C   0  0  0  0  0  0  0  0  0  0  0  0
    8.6914  -15.7974   18.3048 O   0  0  0  0  0  0  0  0  0  0  0  0
    6.9709  -14.2108   20.9073 C   0  0  0  0  0  0  0  0  0  0  0  0
    7.1062  -14.2339   22.2966 C   0  0  0  0  0  0  0  0  0  0  0  0
   10.0082  -14.6564   19.8036 N   0  0  0  0  0  0  0  0  0  0  0  0
   10.5944  -15.8835   20.3102 C   0  0  1  0  0  0  0  0  0  0  0  0
   12.0028  -16.0017   19.7447 C   0  0  0  0  0  0  0  0  0  0  0  0
   12.8628  -14.4581   20.1453 S   0  0  0  0  0  0  0  0  0  0  0  0
   10.6902  -15.8005   21.8044 C   0  0  0  0  0  0  0  0  0  0  0  0
   11.2639  -14.8101   22.3326 O   0  0  0  0  0  0  0  0  0  0  0  0
    8.2235  -18.0151   24.3538 C   0  0  0  0  0  0  0  0  0  0  0  0
    8.9877  -16.7801   24.7305 C   0  0  1  0  0  0  0  0  0  0  0  0
    9.1944  -16.6797   26.1036 O   0  0  0  0  0  0  0  0  0  0  0  0
   10.3450  -16.6937   24.0720 C   0  0  2  0  0  0  0  0  0  0  0  0
   10.1659  -16.7845   22.6588 N   0  0  0  0  0  0  0  0  0  0  0  0
   11.3116  -17.6436   24.6175 C   0  0  0  0  0  0  0  0  0  0  0  0
   11.9492  -18.5415   23.7847 O   0  0  0  0  0  0  0  0  0  0  0  0
   11.5713  -17.6528   25.8442 O   0  0  0  0  0  0  0  0  0  0  0  0
  2  3  2  0
  2  1  1  0
  4  3  1  0
  5  4  2  0
  6  5  1  0
  7  6  1  0
  7  9  1  0
  7  8  1  6
  9 10  2  0
 11  5  1  0
 11 12  2  0
 12  2  1  0
 13  9  1  0
 13 14  1  0
 14 15  1  6
 15 16  1  0
 17 14  1  0
 17 23  1  0
 18 17  2  0
 20 19  1  1
 21 20  1  0
 22 24  1  0
 22 23  1  6
 22 20  1  0
 24 25  1  0
 26 24  2  0
M  END
$$$$
