YCT.pdb
     RDKit          3D

 26 26  0  0  1  0  0  0  0  0999 V2000
    8.1914  -14.5357   15.5549 O   0  0  0  0  0  0  0  0  0  0  0  0
    8.2461  -14.1997   16.9036 C   0  0  0  0  0  0  0  0  0  0  0  0
    8.7859  -15.0591   17.8369 C   0  0  0  0  0  0  0  0  0  0  0  0
    8.8485  -14.7437   19.1759 C   0  0  0  0  0  0  0  0  0  0  0  0
    8.3614  -13.5250   19.6505 C   0  0  0  0  0  0  0  0  0  0  0  0
    8.4423  -13.2149   21.0976 C   0  0  0  0  0  0  0  0  0  0  0  0
    7.6902  -14.3002   21.8282 C   0  0  2  0  0  0  0  0  0  0  0  0
    6.2719  -14.2484   21.5291 N   0  0  0  0  0  0  0  0  0  0  0  0
    7.8464  -14.0947   23.2914 C   0  0  0  0  0  0  0  0  0  0  0  0
    7.6841  -12.9701   23.8303 O   0  0  0  0  0  0  0  0  0  0  0  0
    7.8226  -12.6665   18.7202 C   0  0  0  0  0  0  0  0  0  0  0  0
    7.7611  -12.9901   17.3635 C   0  0  0  0  0  0  0  0  0  0  0  0
    8.1937  -15.1863   24.1637 N   0  0  0  0  0  0  0  0  0  0  0  0
    8.8740  -14.9579   25.4251 C   0  0  1  0  0  0  0  0  0  0  0  0
    7.9210  -14.2086   26.3459 C   0  0  0  0  0  0  0  0  0  0  0  0
    8.7562  -14.0406   27.9449 S   0  0  0  0  0  0  0  0  0  0  0  0
    9.1973  -16.2802   26.0540 C   0  0  0  0  0  0  0  0  0  0  0  0
    8.2598  -17.0690   26.3506 O   0  0  0  0  0  0  0  0  0  0  0  0
   11.5008  -18.6731   24.4821 C   0  0  0  0  0  0  0  0  0  0  0  0
   11.8640  -18.6127   25.9367 C   0  0  1  0  0  0  0  0  0  0  0  0
   13.0201  -17.8718   26.1665 O   0  0  0  0  0  0  0  0  0  0  0  0
   10.7771  -18.0145   26.7993 C   0  0  2  0  0  0  0  0  0  0  0  0
   10.5109  -16.6915   26.3341 N   0  0  0  0  0  0  0  0  0  0  0  0
   11.0624  -18.1026   28.2293 C   0  0  0  0  0  0  0  0  0  0  0  0
   11.2306  -16.9538   28.9764 O   0  0  0  0  0  0  0  0  0  0  0  0
   11.1572  -19.2197   28.7911 O   0  0  0  0  0  0  0  0  0  0  0  0
  2  3  2  0
  2  1  1  0
  4  3  1  0
  5  4  2  0
  6  5  1  0
  7  6  1  0
  7  9  1  0
  7  8  1  1
  9 10  2  0
 11  5  1  0
 11 12  2  0
 12  2  1  0
 13  9  1  0
 13 14  1  0
 14 15  1  1
 15 16  1  0
 17 14  1  0
 17 23  1  0
 18 17  2  0
 20 19  1  6
 21 20  1  0
 22 24  1  0
 22 23  1  6
 22 20  1  0
 24 25  1  0
 26 24  2  0
M  END
$$$$
