YCT.pdb
     RDKit          3D

 26 26  0  0  1  0  0  0  0  0999 V2000
    7.5746  -14.7863   16.0138 O   0  0  0  0  0  0  0  0  0  0  0  0
    7.8503  -14.4770   17.3417 C   0  0  0  0  0  0  0  0  0  0  0  0
    7.6212  -13.2152   17.8480 C   0  0  0  0  0  0  0  0  0  0  0  0
    7.8878  -12.8907   19.1594 C   0  0  0  0  0  0  0  0  0  0  0  0
    8.4084  -13.8379   20.0424 C   0  0  0  0  0  0  0  0  0  0  0  0
    8.6857  -13.4578   21.4479 C   0  0  0  0  0  0  0  0  0  0  0  0
    7.8087  -14.3189   22.3235 C   0  0  2  0  0  0  0  0  0  0  0  0
    6.4161  -13.9270   22.2184 N   0  0  0  0  0  0  0  0  0  0  0  0
    8.2178  -14.1407   23.7406 C   0  0  0  0  0  0  0  0  0  0  0  0
    8.2708  -13.0080   24.2845 O   0  0  0  0  0  0  0  0  0  0  0  0
    8.6374  -15.0974   19.5384 C   0  0  0  0  0  0  0  0  0  0  0  0
    8.3655  -15.4223   18.2082 C   0  0  0  0  0  0  0  0  0  0  0  0
    8.5743  -15.2695   24.5603 N   0  0  0  0  0  0  0  0  0  0  0  0
    9.2767  -15.0972   25.8185 C   0  0  1  0  0  0  0  0  0  0  0  0
    8.3906  -14.2757   26.7445 C   0  0  0  0  0  0  0  0  0  0  0  0
    9.2166  -14.2250   28.3562 S   0  0  0  0  0  0  0  0  0  0  0  0
    9.4972  -16.4418   26.4448 C   0  0  0  0  0  0  0  0  0  0  0  0
    8.5020  -17.1233   26.8111 O   0  0  0  0  0  0  0  0  0  0  0  0
   11.6339  -19.2047   24.9722 C   0  0  0  0  0  0  0  0  0  0  0  0
   11.9878  -19.0280   26.4196 C   0  0  1  0  0  0  0  0  0  0  0  0
   13.1813  -18.3330   26.5950 O   0  0  0  0  0  0  0  0  0  0  0  0
   10.9287  -18.2930   27.2079 C   0  0  2  0  0  0  0  0  0  0  0  0
   10.7747  -16.9893   26.6475 N   0  0  0  0  0  0  0  0  0  0  0  0
   11.1718  -18.3030   28.6484 C   0  0  0  0  0  0  0  0  0  0  0  0
   11.1545  -19.4933   29.3477 O   0  0  0  0  0  0  0  0  0  0  0  0
   11.3982  -17.2334   29.2625 O   0  0  0  0  0  0  0  0  0  0  0  0
  2  3  2  0
  2  1  1  0
  4  3  1  0
  5  4  2  0
  6  5  1  0
  7  6  1  0
  7  9  1  0
  7  8  1  1
  9 10  2  0
 11  5  1  0
 11 12  2  0
 12  2  1  0
 13  9  1  0
 13 14  1  0
 14 15  1  1
 15 16  1  0
 17 14  1  0
 17 23  1  0
 18 17  2  0
 20 19  1  6
 21 20  1  0
 22 24  1  0
 22 23  1  6
 22 20  1  0
 24 25  1  0
 26 24  2  0
M  END
$$$$
