YCT.pdb
     RDKit          3D

 26 26  0  0  1  0  0  0  0  0999 V2000
    6.4261  -22.7183   29.3685 O   0  0  0  0  0  0  0  0  0  0  0  0
    6.6768  -21.8550   28.3070 C   0  0  0  0  0  0  0  0  0  0  0  0
    6.8013  -22.3214   27.0155 C   0  0  0  0  0  0  0  0  0  0  0  0
    7.0493  -21.4820   25.9524 C   0  0  0  0  0  0  0  0  0  0  0  0
    7.1870  -20.1060   26.1403 C   0  0  0  0  0  0  0  0  0  0  0  0
    7.4546  -19.2286   24.9761 C   0  0  0  0  0  0  0  0  0  0  0  0
    6.1372  -18.6155   24.5686 C   0  0  2  0  0  0  0  0  0  0  0  0
    5.4026  -19.4940   23.6784 N   0  0  0  0  0  0  0  0  0  0  0  0
    6.4000  -17.3516   23.8330 C   0  0  0  0  0  0  0  0  0  0  0  0
    6.3946  -17.2949   22.5767 O   0  0  0  0  0  0  0  0  0  0  0  0
    7.0630  -19.6393   27.4286 C   0  0  0  0  0  0  0  0  0  0  0  0
    6.8114  -20.4937   28.5037 C   0  0  0  0  0  0  0  0  0  0  0  0
    6.6745  -16.1248   24.5351 N   0  0  0  0  0  0  0  0  0  0  0  0
    7.5669  -15.1223   23.9831 C   0  0  1  0  0  0  0  0  0  0  0  0
    7.5148  -13.8969   24.8848 C   0  0  0  0  0  0  0  0  0  0  0  0
    6.6563  -14.3943   26.4008 S   0  0  0  0  0  0  0  0  0  0  0  0
    8.9682  -15.6560   23.9909 C   0  0  0  0  0  0  0  0  0  0  0  0
    9.4318  -16.1591   25.0497 O   0  0  0  0  0  0  0  0  0  0  0  0
   10.1903  -17.3994   20.6617 C   0  0  0  0  0  0  0  0  0  0  0  0
   11.3163  -16.7118   21.3763 C   0  0  1  0  0  0  0  0  0  0  0  0
   11.6805  -15.5137   20.7680 O   0  0  0  0  0  0  0  0  0  0  0  0
   11.0031  -16.3966   22.8206 C   0  0  2  0  0  0  0  0  0  0  0  0
    9.8038  -15.6237   22.8623 N   0  0  0  0  0  0  0  0  0  0  0  0
   12.1277  -15.8000   23.5372 C   0  0  0  0  0  0  0  0  0  0  0  0
   12.0350  -14.5126   24.0273 O   0  0  0  0  0  0  0  0  0  0  0  0
   13.1856  -16.4496   23.7140 O   0  0  0  0  0  0  0  0  0  0  0  0
  2  3  2  0
  2  1  1  0
  4  3  1  0
  5  4  2  0
  6  5  1  0
  7  6  1  0
  7  9  1  0
  7  8  1  6
  9 10  2  0
 11  5  1  0
 11 12  2  0
 12  2  1  0
 13  9  1  0
 13 14  1  0
 14 15  1  1
 15 16  1  0
 17 14  1  0
 17 23  1  0
 18 17  2  0
 20 19  1  6
 21 20  1  0
 22 24  1  0
 22 23  1  6
 22 20  1  0
 24 25  1  0
 26 24  2  0
M  END
$$$$
