KFA.pdb
     RDKit          3D

 26 26  0  0  1  0  0  0  0  0999 V2000
   10.2678  -16.4272   19.3702 N   0  0  0  0  0  0  0  0  0  0  0  0
    9.6614  -17.1105   20.5248 C   0  0  1  0  0  0  0  0  0  0  0  0
   10.3516  -18.4279   20.7423 C   0  0  0  0  0  0  0  0  0  0  0  0
   10.5325  -19.2309   19.4974 C   0  0  0  0  0  0  0  0  0  0  0  0
   11.0917  -20.6127   19.7838 C   0  0  0  0  0  0  0  0  0  0  0  0
   11.1547  -21.4574   18.5361 C   0  0  0  0  0  0  0  0  0  0  0  0
   11.7773  -22.7417   18.7557 N   0  0  0  0  0  0  0  0  0  0  0  0
    9.6968  -16.1935   21.6707 C   0  0  0  0  0  0  0  0  0  0  0  0
   10.7691  -15.7139   22.0571 O   0  0  0  0  0  0  0  0  0  0  0  0
    8.5356  -15.8073   22.3908 N   0  0  0  0  0  0  0  0  0  0  0  0
    8.5232  -14.9675   23.5371 C   0  0  1  0  0  0  0  0  0  0  0  0
    7.2519  -14.2250   23.7756 C   0  0  0  0  0  0  0  0  0  0  0  0
    7.2248  -13.3942   24.9716 C   0  0  0  0  0  0  0  0  0  0  0  0
    7.9943  -12.2902   25.1819 C   0  0  0  0  0  0  0  0  0  0  0  0
    7.9091  -11.5635   26.3332 C   0  0  0  0  0  0  0  0  0  0  0  0
    7.0384  -11.9075   27.3478 C   0  0  0  0  0  0  0  0  0  0  0  0
    6.2507  -13.0236   27.1518 C   0  0  0  0  0  0  0  0  0  0  0  0
    6.3399  -13.7521   25.9910 C   0  0  0  0  0  0  0  0  0  0  0  0
    8.7731  -15.8192   24.7300 C   0  0  0  0  0  0  0  0  0  0  0  0
    7.9865  -16.7517   25.0109 O   0  0  0  0  0  0  0  0  0  0  0  0
   11.5245  -17.1785   26.4708 C   0  0  0  0  0  0  0  0  0  0  0  0
   10.1481  -16.5722   26.6558 C   0  0  2  0  0  0  0  0  0  0  0  0
    9.8819  -15.6301   25.5910 N   0  0  0  0  0  0  0  0  0  0  0  0
   10.0659  -15.9226   27.9881 C   0  0  0  0  0  0  0  0  0  0  0  0
    9.8675  -14.6847   28.0191 O   0  0  0  0  0  0  0  0  0  0  0  0
   10.1934  -16.5910   29.1947 O   0  0  0  0  0  0  0  0  0  0  0  0
  2  3  1  0
  2  1  1  6
  4  5  1  0
  4  3  1  0
  6  7  1  0
  6  5  1  0
  8  2  1  0
  9  8  2  0
 10  8  1  0
 11 10  1  0
 11 12  1  1
 12 13  1  0
 13 18  2  0
 14 13  1  0
 14 15  2  0
 15 16  1  0
 16 17  2  0
 18 17  1  0
 19 11  1  0
 19 20  2  0
 22 21  1  6
 22 23  1  0
 23 19  1  0
 24 22  1  0
 25 24  2  0
 26 24  1  0
M  END
$$$$
