KFA.pdb
     RDKit          3D

 26 26  0  0  1  0  0  0  0  0999 V2000
    9.4571  -17.1106   17.6916 N   0  0  0  0  0  0  0  0  0  0  0  0
    9.6849  -17.8757   18.9287 C   0  0  1  0  0  0  0  0  0  0  0  0
   10.6373  -19.0041   18.6478 C   0  0  0  0  0  0  0  0  0  0  0  0
    9.9715  -20.2634   18.2027 C   0  0  0  0  0  0  0  0  0  0  0  0
   10.9630  -21.3956   18.0037 C   0  0  0  0  0  0  0  0  0  0  0  0
   10.2789  -22.6622   17.5545 C   0  0  0  0  0  0  0  0  0  0  0  0
   11.2051  -23.7336   17.2727 N   0  0  0  0  0  0  0  0  0  0  0  0
   10.1202  -16.9402   19.9729 C   0  0  0  0  0  0  0  0  0  0  0  0
   11.0143  -16.1170   19.7442 O   0  0  0  0  0  0  0  0  0  0  0  0
    9.5598  -16.9187   21.2773 N   0  0  0  0  0  0  0  0  0  0  0  0
    9.8739  -15.9717   22.2891 C   0  0  1  0  0  0  0  0  0  0  0  0
    8.7214  -15.1796   22.8076 C   0  0  0  0  0  0  0  0  0  0  0  0
    8.0535  -14.3299   21.8313 C   0  0  0  0  0  0  0  0  0  0  0  0
    6.8807  -14.6221   21.2034 C   0  0  0  0  0  0  0  0  0  0  0  0
    6.3183  -13.7705   20.2983 C   0  0  0  0  0  0  0  0  0  0  0  0
    6.9072  -12.5659   19.9695 C   0  0  0  0  0  0  0  0  0  0  0  0
    8.0964  -12.2532   20.5962 C   0  0  0  0  0  0  0  0  0  0  0  0
    8.6588  -13.1138   21.5068 C   0  0  0  0  0  0  0  0  0  0  0  0
   10.4615  -16.7093   23.4387 C   0  0  0  0  0  0  0  0  0  0  0  0
   10.8006  -16.0913   24.4732 O   0  0  0  0  0  0  0  0  0  0  0  0
   10.7985  -20.1831   24.6781 C   0  0  0  0  0  0  0  0  0  0  0  0
   11.3093  -18.7623   24.5490 C   0  0  2  0  0  0  0  0  0  0  0  0
   10.6651  -18.1111   23.4296 N   0  0  0  0  0  0  0  0  0  0  0  0
   12.7854  -18.7770   24.3921 C   0  0  0  0  0  0  0  0  0  0  0  0
   13.4645  -19.2519   25.3334 O   0  0  0  0  0  0  0  0  0  0  0  0
   13.4596  -18.3025   23.2790 O   0  0  0  0  0  0  0  0  0  0  0  0
  2  3  1  0
  2  1  1  6
  4  5  1  0
  4  3  1  0
  6  7  1  0
  6  5  1  0
  8  2  1  0
  9  8  2  0
 10  8  1  0
 11 10  1  0
 11 12  1  1
 12 13  1  0
 13 18  2  0
 14 13  1  0
 14 15  2  0
 15 16  1  0
 16 17  2  0
 18 17  1  0
 19 11  1  0
 19 20  2  0
 22 21  1  6
 22 23  1  0
 23 19  1  0
 24 22  1  0
 25 24  2  0
 26 24  1  0
M  END
$$$$
