KFA.pdb
     RDKit          3D

 26 26  0  0  1  0  0  0  0  0999 V2000
    8.5963  -18.0310   20.5103 N   0  0  0  0  0  0  0  0  0  0  0  0
    9.9868  -17.6446   20.8018 C   0  0  1  0  0  0  0  0  0  0  0  0
   10.6685  -17.2383   19.5254 C   0  0  0  0  0  0  0  0  0  0  0  0
   10.1629  -17.9493   18.3145 C   0  0  0  0  0  0  0  0  0  0  0  0
   10.8594  -17.4879   17.0472 C   0  0  0  0  0  0  0  0  0  0  0  0
   10.2542  -18.1184   15.8182 C   0  0  0  0  0  0  0  0  0  0  0  0
   10.8742  -17.6727   14.5926 N   0  0  0  0  0  0  0  0  0  0  0  0
    9.9670  -16.6172   21.8503 C   0  0  0  0  0  0  0  0  0  0  0  0
   10.9572  -15.9030   22.0472 O   0  0  0  0  0  0  0  0  0  0  0  0
    8.8421  -16.3820   22.6841 N   0  0  0  0  0  0  0  0  0  0  0  0
    8.8045  -15.4681   23.7716 C   0  0  1  0  0  0  0  0  0  0  0  0
    7.4891  -14.8062   24.0091 C   0  0  0  0  0  0  0  0  0  0  0  0
    7.4740  -13.7985   25.0606 C   0  0  0  0  0  0  0  0  0  0  0  0
    8.2664  -12.6916   25.1029 C   0  0  0  0  0  0  0  0  0  0  0  0
    8.1912  -11.7924   26.1260 C   0  0  0  0  0  0  0  0  0  0  0  0
    7.3077  -11.9556   27.1743 C   0  0  0  0  0  0  0  0  0  0  0  0
    6.4966  -13.0719   27.1479 C   0  0  0  0  0  0  0  0  0  0  0  0
    6.5760  -13.9743   26.1157 C   0  0  0  0  0  0  0  0  0  0  0  0
    9.1581  -16.2145   25.0080 C   0  0  0  0  0  0  0  0  0  0  0  0
    8.4597  -17.1864   25.3754 O   0  0  0  0  0  0  0  0  0  0  0  0
   12.1476  -16.8706   26.9859 C   0  0  0  0  0  0  0  0  0  0  0  0
   10.6408  -16.7185   26.9352 C   0  0  2  0  0  0  0  0  0  0  0  0
   10.2716  -15.8789   25.8167 N   0  0  0  0  0  0  0  0  0  0  0  0
   10.1543  -16.1557   28.2199 C   0  0  0  0  0  0  0  0  0  0  0  0
   10.3497  -16.8291   29.2597 O   0  0  0  0  0  0  0  0  0  0  0  0
    9.5013  -14.9406   28.3454 O   0  0  0  0  0  0  0  0  0  0  0  0
  2  3  1  0
  2  1  1  6
  4  5  1  0
  4  3  1  0
  6  7  1  0
  6  5  1  0
  8  2  1  0
  9  8  2  0
 10  8  1  0
 11 10  1  0
 11 12  1  1
 12 13  1  0
 13 18  2  0
 14 13  1  0
 14 15  2  0
 15 16  1  0
 16 17  2  0
 18 17  1  0
 19 11  1  0
 19 20  2  0
 22 21  1  1
 22 23  1  0
 23 19  1  0
 24 22  1  0
 25 24  2  0
 26 24  1  0
M  END
$$$$
