KFA.pdb
     RDKit          3D

 26 26  0  0  1  0  0  0  0  0999 V2000
    7.7677  -16.1873   19.7299 N   0  0  0  0  0  0  0  0  0  0  0  0
    8.8970  -15.2455   19.8055 C   0  0  1  0  0  0  0  0  0  0  0  0
    8.6919  -14.1414   18.8065 C   0  0  0  0  0  0  0  0  0  0  0  0
    8.0907  -14.5935   17.5174 C   0  0  0  0  0  0  0  0  0  0  0  0
    8.6630  -13.8468   16.3261 C   0  0  0  0  0  0  0  0  0  0  0  0
    7.9958  -14.2588   15.0379 C   0  0  0  0  0  0  0  0  0  0  0  0
    8.5234  -13.5692   13.8841 N   0  0  0  0  0  0  0  0  0  0  0  0
    9.0344  -14.8053   21.1992 C   0  0  0  0  0  0  0  0  0  0  0  0
   10.0288  -14.1643   21.5592 O   0  0  0  0  0  0  0  0  0  0  0  0
    8.0627  -15.0782   22.1978 N   0  0  0  0  0  0  0  0  0  0  0  0
    8.1085  -14.6057   23.5372 C   0  0  1  0  0  0  0  0  0  0  0  0
    6.8101  -14.1283   24.0947 C   0  0  0  0  0  0  0  0  0  0  0  0
    6.9030  -13.3383   25.3148 C   0  0  0  0  0  0  0  0  0  0  0  0
    5.8729  -13.0817   26.1680 C   0  0  0  0  0  0  0  0  0  0  0  0
    6.0422  -12.3302   27.2937 C   0  0  0  0  0  0  0  0  0  0  0  0
    7.2670  -11.7888   27.6295 C   0  0  0  0  0  0  0  0  0  0  0  0
    8.3225  -12.0386   26.7762 C   0  0  0  0  0  0  0  0  0  0  0  0
    8.1471  -12.7958   25.6439 C   0  0  0  0  0  0  0  0  0  0  0  0
    8.5811  -15.7211   24.3993 C   0  0  0  0  0  0  0  0  0  0  0  0
    8.0924  -15.8823   25.5405 O   0  0  0  0  0  0  0  0  0  0  0  0
   10.0458  -19.0119   24.1225 C   0  0  0  0  0  0  0  0  0  0  0  0
   10.0041  -17.6991   24.8782 C   0  0  2  0  0  0  0  0  0  0  0  0
    9.5811  -16.6377   23.9912 N   0  0  0  0  0  0  0  0  0  0  0  0
   11.3400  -17.4185   25.4615 C   0  0  0  0  0  0  0  0  0  0  0  0
   11.8000  -18.2465   26.2836 O   0  0  0  0  0  0  0  0  0  0  0  0
   12.1091  -16.3069   25.1589 O   0  0  0  0  0  0  0  0  0  0  0  0
  2  3  1  0
  2  1  1  1
  4  5  1  0
  4  3  1  0
  6  7  1  0
  6  5  1  0
  8  2  1  0
  9  8  2  0
 10  8  1  0
 11 10  1  0
 11 12  1  1
 12 13  1  0
 13 18  2  0
 14 13  1  0
 14 15  2  0
 15 16  1  0
 16 17  2  0
 18 17  1  0
 19 11  1  0
 19 20  2  0
 22 21  1  6
 22 23  1  0
 23 19  1  0
 24 22  1  0
 25 24  2  0
 26 24  1  0
M  END
$$$$
