KFA.pdb
     RDKit          3D

 26 26  0  0  1  0  0  0  0  0999 V2000
   10.5701  -16.5628   19.6701 N   0  0  0  0  0  0  0  0  0  0  0  0
    9.3078  -16.7620   20.4012 C   0  0  1  0  0  0  0  0  0  0  0  0
    9.0406  -18.2345   20.5408 C   0  0  0  0  0  0  0  0  0  0  0  0
   10.2729  -19.0762   20.5537 C   0  0  0  0  0  0  0  0  0  0  0  0
    9.9576  -20.5501   20.7341 C   0  0  0  0  0  0  0  0  0  0  0  0
   11.2128  -21.3806   20.8282 C   0  0  0  0  0  0  0  0  0  0  0  0
   11.0877  -22.4896   21.7444 N   0  0  0  0  0  0  0  0  0  0  0  0
    9.3892  -16.0222   21.6666 C   0  0  0  0  0  0  0  0  0  0  0  0
   10.4780  -15.8629   22.2309 O   0  0  0  0  0  0  0  0  0  0  0  0
    8.2560  -15.4566   22.3084 N   0  0  0  0  0  0  0  0  0  0  0  0
    8.2816  -14.7366   23.5332 C   0  0  1  0  0  0  0  0  0  0  0  0
    7.0309  -13.9972   23.8700 C   0  0  0  0  0  0  0  0  0  0  0  0
    7.0382  -13.3006   25.1491 C   0  0  0  0  0  0  0  0  0  0  0  0
    6.1706  -13.5262   26.1744 C   0  0  0  0  0  0  0  0  0  0  0  0
    6.2440  -12.8291   27.3446 C   0  0  0  0  0  0  0  0  0  0  0  0
    7.2018  -11.8570   27.5534 C   0  0  0  0  0  0  0  0  0  0  0  0
    8.0897  -11.6150   26.5249 C   0  0  0  0  0  0  0  0  0  0  0  0
    8.0118  -12.3194   25.3485 C   0  0  0  0  0  0  0  0  0  0  0  0
    8.5341  -15.7088   24.6294 C   0  0  0  0  0  0  0  0  0  0  0  0
    7.6549  -16.5431   24.9428 O   0  0  0  0  0  0  0  0  0  0  0  0
   11.3029  -17.4609   26.0728 C   0  0  0  0  0  0  0  0  0  0  0  0
    9.9756  -16.7818   26.3434 C   0  0  2  0  0  0  0  0  0  0  0  0
    9.7472  -15.7459   25.3600 N   0  0  0  0  0  0  0  0  0  0  0  0
    9.9705  -16.2316   27.7222 C   0  0  0  0  0  0  0  0  0  0  0  0
    9.8628  -14.9887   27.8508 O   0  0  0  0  0  0  0  0  0  0  0  0
   10.0765  -16.9974   28.8715 O   0  0  0  0  0  0  0  0  0  0  0  0
  2  3  1  0
  2  1  1  1
  4  5  1  0
  4  3  1  0
  6  7  1  0
  6  5  1  0
  8  2  1  0
  9  8  2  0
 10  8  1  0
 11 10  1  0
 11 12  1  1
 12 13  1  0
 13 18  2  0
 14 13  1  0
 14 15  2  0
 15 16  1  0
 16 17  2  0
 18 17  1  0
 19 11  1  0
 19 20  2  0
 22 21  1  6
 22 23  1  0
 23 19  1  0
 24 22  1  0
 25 24  2  0
 26 24  1  0
M  END
$$$$
