KFA.pdb
     RDKit          3D

 26 26  0  0  1  0  0  0  0  0999 V2000
    9.5447  -16.8535   19.2166 N   0  0  0  0  0  0  0  0  0  0  0  0
    8.6374  -17.1905   20.3262 C   0  0  1  0  0  0  0  0  0  0  0  0
    8.7894  -18.6461   20.6687 C   0  0  0  0  0  0  0  0  0  0  0  0
    8.2837  -19.5735   19.6144 C   0  0  0  0  0  0  0  0  0  0  0  0
    8.4649  -21.0307   19.9991 C   0  0  0  0  0  0  0  0  0  0  0  0
    8.0629  -21.9565   18.8786 C   0  0  0  0  0  0  0  0  0  0  0  0
    8.3562  -23.3422   19.1596 N   0  0  0  0  0  0  0  0  0  0  0  0
    8.9001  -16.2610   21.4317 C   0  0  0  0  0  0  0  0  0  0  0  0
   10.0336  -15.7980   21.6058 O   0  0  0  0  0  0  0  0  0  0  0  0
    7.8992  -15.8436   22.3481 N   0  0  0  0  0  0  0  0  0  0  0  0
    8.1212  -15.0237   23.4874 C   0  0  1  0  0  0  0  0  0  0  0  0
    6.9430  -14.2349   23.9504 C   0  0  0  0  0  0  0  0  0  0  0  0
    7.1563  -13.4308   25.1459 C   0  0  0  0  0  0  0  0  0  0  0  0
    6.7327  -13.7542   26.3993 C   0  0  0  0  0  0  0  0  0  0  0  0
    6.9732  -12.9446   27.4705 C   0  0  0  0  0  0  0  0  0  0  0  0
    7.6591  -11.7533   27.3425 C   0  0  0  0  0  0  0  0  0  0  0  0
    8.0959  -11.4095   26.0793 C   0  0  0  0  0  0  0  0  0  0  0  0
    7.8514  -12.2278   25.0038 C   0  0  0  0  0  0  0  0  0  0  0  0
    8.5374  -15.9049   24.6103 C   0  0  0  0  0  0  0  0  0  0  0  0
    7.7457  -16.7641   25.0601 O   0  0  0  0  0  0  0  0  0  0  0  0
   11.6970  -17.1748   25.9289 C   0  0  0  0  0  0  0  0  0  0  0  0
   10.2384  -16.8360   26.1614 C   0  0  2  0  0  0  0  0  0  0  0  0
    9.8148  -15.8254   25.2173 N   0  0  0  0  0  0  0  0  0  0  0  0
   10.0506  -16.3824   27.5624 C   0  0  0  0  0  0  0  0  0  0  0  0
    9.9272  -15.1505   27.7621 O   0  0  0  0  0  0  0  0  0  0  0  0
   10.0029  -17.2268   28.6594 O   0  0  0  0  0  0  0  0  0  0  0  0
  2  3  1  0
  2  1  1  6
  4  5  1  0
  4  3  1  0
  6  7  1  0
  6  5  1  0
  8  2  1  0
  9  8  2  0
 10  8  1  0
 11 10  1  0
 11 12  1  1
 12 13  1  0
 13 18  2  0
 14 13  1  0
 14 15  2  0
 15 16  1  0
 16 17  2  0
 18 17  1  0
 19 11  1  0
 19 20  2  0
 22 21  1  6
 22 23  1  0
 23 19  1  0
 24 22  1  0
 25 24  2  0
 26 24  1  0
M  END
$$$$
