KFA.pdb
     RDKit          3D

 26 26  0  0  1  0  0  0  0  0999 V2000
    6.2933  -15.7127   21.3206 N   0  0  0  0  0  0  0  0  0  0  0  0
    7.7338  -15.4295   21.2089 C   0  0  1  0  0  0  0  0  0  0  0  0
    7.9667  -14.4761   20.0704 C   0  0  0  0  0  0  0  0  0  0  0  0
    7.4527  -14.9630   18.7566 C   0  0  0  0  0  0  0  0  0  0  0  0
    8.2478  -14.4067   17.5892 C   0  0  0  0  0  0  0  0  0  0  0  0
    7.9344  -12.9519   17.3450 C   0  0  0  0  0  0  0  0  0  0  0  0
    8.6217  -12.4125   16.1954 N   0  0  0  0  0  0  0  0  0  0  0  0
    8.2125  -14.9649   22.5166 C   0  0  0  0  0  0  0  0  0  0  0  0
    8.4199  -13.7624   22.7174 O   0  0  0  0  0  0  0  0  0  0  0  0
    8.4621  -15.8400   23.6064 N   0  0  0  0  0  0  0  0  0  0  0  0
    8.8755  -15.4357   24.9045 C   0  0  1  0  0  0  0  0  0  0  0  0
    7.7821  -15.2767   25.9064 C   0  0  0  0  0  0  0  0  0  0  0  0
    7.2833  -13.9196   26.0816 C   0  0  0  0  0  0  0  0  0  0  0  0
    5.9699  -13.5635   26.1363 C   0  0  0  0  0  0  0  0  0  0  0  0
    5.5832  -12.2660   26.3031 C   0  0  0  0  0  0  0  0  0  0  0  0
    6.5023  -11.2432   26.4256 C   0  0  0  0  0  0  0  0  0  0  0  0
    7.8382  -11.5856   26.3725 C   0  0  0  0  0  0  0  0  0  0  0  0
    8.2226  -12.8934   26.2044 C   0  0  0  0  0  0  0  0  0  0  0  0
    9.8129  -16.4650   25.4266 C   0  0  0  0  0  0  0  0  0  0  0  0
   10.3300  -16.3262   26.5583 O   0  0  0  0  0  0  0  0  0  0  0  0
   12.4319  -18.4785   24.6700 C   0  0  0  0  0  0  0  0  0  0  0  0
   11.0491  -18.6133   25.2748 C   0  0  2  0  0  0  0  0  0  0  0  0
   10.1641  -17.6265   24.6958 N   0  0  0  0  0  0  0  0  0  0  0  0
   11.1350  -18.4663   26.7496 C   0  0  0  0  0  0  0  0  0  0  0  0
   11.6964  -19.3849   27.3927 O   0  0  0  0  0  0  0  0  0  0  0  0
   10.6377  -17.3856   27.4593 O   0  0  0  0  0  0  0  0  0  0  0  0
  2  3  1  0
  2  1  1  1
  4  5  1  0
  4  3  1  0
  6  7  1  0
  6  5  1  0
  8  2  1  0
  9  8  2  0
 10  8  1  0
 11 10  1  0
 11 12  1  1
 12 13  1  0
 13 18  2  0
 14 13  1  0
 14 15  2  0
 15 16  1  0
 16 17  2  0
 18 17  1  0
 19 11  1  0
 19 20  2  0
 22 21  1  6
 22 23  1  0
 23 19  1  0
 24 22  1  0
 25 24  2  0
 26 24  1  0
M  END
$$$$
