KFA.pdb
     RDKit          3D

 26 26  0  0  1  0  0  0  0  0999 V2000
   10.2383  -16.4156   19.2840 N   0  0  0  0  0  0  0  0  0  0  0  0
    8.9724  -16.5782   20.0180 C   0  0  1  0  0  0  0  0  0  0  0  0
    8.5887  -18.0314   20.0325 C   0  0  0  0  0  0  0  0  0  0  0  0
    9.6656  -18.9481   19.5556 C   0  0  0  0  0  0  0  0  0  0  0  0
    9.1069  -20.2373   18.9811 C   0  0  0  0  0  0  0  0  0  0  0  0
   10.2052  -21.1860   18.5710 C   0  0  0  0  0  0  0  0  0  0  0  0
    9.7049  -22.4414   18.0622 N   0  0  0  0  0  0  0  0  0  0  0  0
    9.1277  -15.9630   21.3419 C   0  0  0  0  0  0  0  0  0  0  0  0
   10.1923  -16.0697   21.9619 O   0  0  0  0  0  0  0  0  0  0  0  0
    8.0956  -15.2259   21.9801 N   0  0  0  0  0  0  0  0  0  0  0  0
    8.1871  -14.6346   23.2691 C   0  0  1  0  0  0  0  0  0  0  0  0
    7.0780  -13.7047   23.6294 C   0  0  0  0  0  0  0  0  0  0  0  0
    7.1185  -13.1746   24.9854 C   0  0  0  0  0  0  0  0  0  0  0  0
    6.1877  -13.4093   25.9515 C   0  0  0  0  0  0  0  0  0  0  0  0
    6.2982  -12.8740   27.2013 C   0  0  0  0  0  0  0  0  0  0  0  0
    7.3597  -12.0651   27.5549 C   0  0  0  0  0  0  0  0  0  0  0  0
    8.3127  -11.8164   26.5882 C   0  0  0  0  0  0  0  0  0  0  0  0
    8.1971  -12.3576   25.3313 C   0  0  0  0  0  0  0  0  0  0  0  0
    8.1953  -15.7300   24.2745 C   0  0  0  0  0  0  0  0  0  0  0  0
    7.1814  -16.4480   24.4282 O   0  0  0  0  0  0  0  0  0  0  0  0
   10.1376  -18.2752   25.3900 C   0  0  0  0  0  0  0  0  0  0  0  0
    9.3015  -17.1572   25.9792 C   0  0  2  0  0  0  0  0  0  0  0  0
    9.3168  -16.0154   25.0914 N   0  0  0  0  0  0  0  0  0  0  0  0
    9.8197  -16.8051   27.3250 C   0  0  0  0  0  0  0  0  0  0  0  0
    9.4942  -17.5447   28.2841 O   0  0  0  0  0  0  0  0  0  0  0  0
   10.6358  -15.7178   27.5903 O   0  0  0  0  0  0  0  0  0  0  0  0
  2  3  1  0
  2  1  1  1
  4  5  1  0
  4  3  1  0
  6  7  1  0
  6  5  1  0
  8  2  1  0
  9  8  2  0
 10  8  1  0
 11 10  1  0
 11 12  1  1
 12 13  1  0
 13 18  2  0
 14 13  1  0
 14 15  2  0
 15 16  1  0
 16 17  2  0
 18 17  1  0
 19 11  1  0
 19 20  2  0
 22 21  1  6
 22 23  1  0
 23 19  1  0
 24 22  1  0
 25 24  2  0
 26 24  1  0
M  END
$$$$
