KFA.pdb
     RDKit          3D

 26 26  0  0  1  0  0  0  0  0999 V2000
    9.7399  -16.2859   18.9756 N   0  0  0  0  0  0  0  0  0  0  0  0
    9.1941  -16.9796   20.1540 C   0  0  1  0  0  0  0  0  0  0  0  0
    9.8507  -18.3250   20.2880 C   0  0  0  0  0  0  0  0  0  0  0  0
    9.7263  -19.1844   19.0742 C   0  0  0  0  0  0  0  0  0  0  0  0
   10.3710  -20.5449   19.2677 C   0  0  0  0  0  0  0  0  0  0  0  0
   10.1799  -21.4284   18.0605 C   0  0  0  0  0  0  0  0  0  0  0  0
   10.7606  -22.7402   18.2244 N   0  0  0  0  0  0  0  0  0  0  0  0
    9.3444  -16.0959   21.3166 C   0  0  0  0  0  0  0  0  0  0  0  0
   10.4152  -15.5146   21.5281 O   0  0  0  0  0  0  0  0  0  0  0  0
    8.3005  -15.8567   22.2488 N   0  0  0  0  0  0  0  0  0  0  0  0
    8.4005  -15.0243   23.3961 C   0  0  1  0  0  0  0  0  0  0  0  0
    7.1773  -14.2380   23.7278 C   0  0  0  0  0  0  0  0  0  0  0  0
    7.2733  -13.3976   24.9135 C   0  0  0  0  0  0  0  0  0  0  0  0
    8.0444  -12.2807   25.0276 C   0  0  0  0  0  0  0  0  0  0  0  0
    8.0793  -11.5457   26.1762 C   0  0  0  0  0  0  0  0  0  0  0  0
    7.3349  -11.8939   27.2855 C   0  0  0  0  0  0  0  0  0  0  0  0
    6.5474  -13.0230   27.1878 C   0  0  0  0  0  0  0  0  0  0  0  0
    6.5156  -13.7599   26.0293 C   0  0  0  0  0  0  0  0  0  0  0  0
    8.7038  -15.8918   24.5649 C   0  0  0  0  0  0  0  0  0  0  0  0
    7.9128  -16.8063   24.8893 O   0  0  0  0  0  0  0  0  0  0  0  0
   11.7048  -16.9721   26.3443 C   0  0  0  0  0  0  0  0  0  0  0  0
   10.2096  -16.7264   26.3545 C   0  0  2  0  0  0  0  0  0  0  0  0
    9.8698  -15.7381   25.3545 N   0  0  0  0  0  0  0  0  0  0  0  0
    9.7858  -16.2945   27.7101 C   0  0  0  0  0  0  0  0  0  0  0  0
    9.3004  -15.1441   27.8274 O   0  0  0  0  0  0  0  0  0  0  0  0
    9.8909  -17.0752   28.8495 O   0  0  0  0  0  0  0  0  0  0  0  0
  2  3  1  0
  2  1  1  6
  4  5  1  0
  4  3  1  0
  6  7  1  0
  6  5  1  0
  8  2  1  0
  9  8  2  0
 10  8  1  0
 11 10  1  0
 11 12  1  1
 12 13  1  0
 13 18  2  0
 14 13  1  0
 14 15  2  0
 15 16  1  0
 16 17  2  0
 18 17  1  0
 19 11  1  0
 19 20  2  0
 22 21  1  1
 22 23  1  0
 23 19  1  0
 24 22  1  0
 25 24  2  0
 26 24  1  0
M  END
$$$$
