KFA.pdb
     RDKit          3D

 26 26  0  0  1  0  0  0  0  0999 V2000
   10.6771  -16.7236   19.6504 N   0  0  0  0  0  0  0  0  0  0  0  0
    9.6051  -17.1440   20.5680 C   0  0  1  0  0  0  0  0  0  0  0  0
    9.6926  -18.6282   20.7888 C   0  0  0  0  0  0  0  0  0  0  0  0
    9.7222  -19.4283   19.5293 C   0  0  0  0  0  0  0  0  0  0  0  0
    9.7987  -20.9199   19.8004 C   0  0  0  0  0  0  0  0  0  0  0  0
    9.9290  -21.7119   18.5237 C   0  0  0  0  0  0  0  0  0  0  0  0
   10.0738  -23.1303   18.7525 N   0  0  0  0  0  0  0  0  0  0  0  0
    9.6969  -16.3280   21.7848 C   0  0  0  0  0  0  0  0  0  0  0  0
   10.7877  -16.1495   22.3394 O   0  0  0  0  0  0  0  0  0  0  0  0
    8.5718  -15.7071   22.3886 N   0  0  0  0  0  0  0  0  0  0  0  0
    8.5984  -14.9581   23.5960 C   0  0  1  0  0  0  0  0  0  0  0  0
    7.4220  -14.0709   23.8275 C   0  0  0  0  0  0  0  0  0  0  0  0
    7.4563  -13.2905   25.0568 C   0  0  0  0  0  0  0  0  0  0  0  0
    8.5322  -12.5950   25.5191 C   0  0  0  0  0  0  0  0  0  0  0  0
    8.4836  -11.8864   26.6837 C   0  0  0  0  0  0  0  0  0  0  0  0
    7.3411  -11.8356   27.4571 C   0  0  0  0  0  0  0  0  0  0  0  0
    6.2409  -12.5346   27.0038 C   0  0  0  0  0  0  0  0  0  0  0  0
    6.2946  -13.2466   25.8307 C   0  0  0  0  0  0  0  0  0  0  0  0
    8.6620  -15.9193   24.7286 C   0  0  0  0  0  0  0  0  0  0  0  0
    7.6951  -16.6797   24.9611 O   0  0  0  0  0  0  0  0  0  0  0  0
   10.8108  -18.1186   26.2500 C   0  0  0  0  0  0  0  0  0  0  0  0
    9.8203  -17.0336   26.6215 C   0  0  2  0  0  0  0  0  0  0  0  0
    9.7863  -16.0267   25.5836 N   0  0  0  0  0  0  0  0  0  0  0  0
   10.1934  -16.4479   27.9336 C   0  0  0  0  0  0  0  0  0  0  0  0
   10.2801  -17.2262   28.9131 O   0  0  0  0  0  0  0  0  0  0  0  0
   10.4510  -15.1036   28.1466 O   0  0  0  0  0  0  0  0  0  0  0  0
  2  3  1  0
  2  1  1  6
  4  5  1  0
  4  3  1  0
  6  7  1  0
  6  5  1  0
  8  2  1  0
  9  8  2  0
 10  8  1  0
 11 10  1  0
 11 12  1  1
 12 13  1  0
 13 18  2  0
 14 13  1  0
 14 15  2  0
 15 16  1  0
 16 17  2  0
 18 17  1  0
 19 11  1  0
 19 20  2  0
 22 21  1  6
 22 23  1  0
 23 19  1  0
 24 22  1  0
 25 24  2  0
 26 24  1  0
M  END
$$$$
