KFA.pdb
     RDKit          3D

 26 26  0  0  1  0  0  0  0  0999 V2000
   11.0001  -16.5963   20.0135 N   0  0  0  0  0  0  0  0  0  0  0  0
   10.7688  -17.1969   21.3377 C   0  0  1  0  0  0  0  0  0  0  0  0
   11.9634  -18.0228   21.7251 C   0  0  0  0  0  0  0  0  0  0  0  0
   12.5618  -18.7918   20.5947 C   0  0  0  0  0  0  0  0  0  0  0  0
   12.8602  -20.2305   20.9756 C   0  0  0  0  0  0  0  0  0  0  0  0
   13.4112  -21.0124   19.8098 C   0  0  0  0  0  0  0  0  0  0  0  0
   13.7139  -22.3843   20.1436 N   0  0  0  0  0  0  0  0  0  0  0  0
   10.4264  -16.1208   22.2757 C   0  0  0  0  0  0  0  0  0  0  0  0
   11.1443  -15.1182   22.3690 O   0  0  0  0  0  0  0  0  0  0  0  0
    9.2812  -16.1584   23.1142 N   0  0  0  0  0  0  0  0  0  0  0  0
    8.9147  -15.1512   24.0473 C   0  0  1  0  0  0  0  0  0  0  0  0
    7.4493  -14.9190   24.1993 C   0  0  0  0  0  0  0  0  0  0  0  0
    7.0720  -13.9068   25.1764 C   0  0  0  0  0  0  0  0  0  0  0  0
    6.3380  -14.1322   26.3013 C   0  0  0  0  0  0  0  0  0  0  0  0
    6.0257  -13.1271   27.1691 C   0  0  0  0  0  0  0  0  0  0  0  0
    6.4366  -11.8267   26.9543 C   0  0  0  0  0  0  0  0  0  0  0  0
    7.1815  -11.5798   25.8190 C   0  0  0  0  0  0  0  0  0  0  0  0
    7.4934  -12.5950   24.9482 C   0  0  0  0  0  0  0  0  0  0  0  0
    9.4441  -15.5478   25.3789 C   0  0  0  0  0  0  0  0  0  0  0  0
    9.5268  -16.7587   25.6858 O   0  0  0  0  0  0  0  0  0  0  0  0
   10.8207  -13.8638   28.4493 C   0  0  0  0  0  0  0  0  0  0  0  0
   10.5449  -15.0507   27.5486 C   0  0  2  0  0  0  0  0  0  0  0  0
    9.8724  -14.6070   26.3474 N   0  0  0  0  0  0  0  0  0  0  0  0
    9.7361  -16.0553   28.2837 C   0  0  0  0  0  0  0  0  0  0  0  0
   10.2564  -16.5973   29.2878 O   0  0  0  0  0  0  0  0  0  0  0  0
    8.4495  -16.4321   27.9350 O   0  0  0  0  0  0  0  0  0  0  0  0
  2  3  1  0
  2  1  1  6
  4  5  1  0
  4  3  1  0
  6  7  1  0
  6  5  1  0
  8  2  1  0
  9  8  2  0
 10  8  1  0
 11 10  1  0
 11 12  1  1
 12 13  1  0
 13 18  2  0
 14 13  1  0
 14 15  2  0
 15 16  1  0
 16 17  2  0
 18 17  1  0
 19 11  1  0
 19 20  2  0
 22 21  1  1
 22 23  1  0
 23 19  1  0
 24 22  1  0
 25 24  2  0
 26 24  1  0
M  END
$$$$
