KFA.pdb
     RDKit          3D

 26 26  0  0  1  0  0  0  0  0999 V2000
   10.4436  -16.9130   20.1726 N   0  0  0  0  0  0  0  0  0  0  0  0
    9.3542  -17.1930   21.1226 C   0  0  1  0  0  0  0  0  0  0  0  0
    9.4570  -18.6172   21.5919 C   0  0  0  0  0  0  0  0  0  0  0  0
    9.3237  -19.6267   20.5008 C   0  0  0  0  0  0  0  0  0  0  0  0
    9.4402  -21.0486   21.0193 C   0  0  0  0  0  0  0  0  0  0  0  0
    9.3411  -22.0581   19.9033 C   0  0  0  0  0  0  0  0  0  0  0  0
    9.3898  -23.4230   20.3718 N   0  0  0  0  0  0  0  0  0  0  0  0
    9.4028  -16.1828   22.1866 C   0  0  0  0  0  0  0  0  0  0  0  0
   10.4864  -15.7232   22.5660 O   0  0  0  0  0  0  0  0  0  0  0  0
    8.2423  -15.6805   22.8324 N   0  0  0  0  0  0  0  0  0  0  0  0
    8.2408  -14.7858   23.9365 C   0  0  1  0  0  0  0  0  0  0  0  0
    7.0058  -13.9650   24.0963 C   0  0  0  0  0  0  0  0  0  0  0  0
    6.9857  -13.0793   25.2523 C   0  0  0  0  0  0  0  0  0  0  0  0
    7.8604  -12.0605   25.4801 C   0  0  0  0  0  0  0  0  0  0  0  0
    7.7740  -11.2738   26.5911 C   0  0  0  0  0  0  0  0  0  0  0  0
    6.7951  -11.4674   27.5452 C   0  0  0  0  0  0  0  0  0  0  0  0
    5.8998  -12.4955   27.3308 C   0  0  0  0  0  0  0  0  0  0  0  0
    5.9908  -13.2850   26.2107 C   0  0  0  0  0  0  0  0  0  0  0  0
    8.4056  -15.5899   25.1762 C   0  0  0  0  0  0  0  0  0  0  0  0
    8.4925  -15.0193   26.2871 O   0  0  0  0  0  0  0  0  0  0  0  0
    8.3119  -19.1797   26.2275 C   0  0  0  0  0  0  0  0  0  0  0  0
    8.7108  -17.7282   26.4014 C   0  0  2  0  0  0  0  0  0  0  0  0
    8.4717  -17.0049   25.1718 N   0  0  0  0  0  0  0  0  0  0  0  0
   10.1363  -17.6498   26.8085 C   0  0  0  0  0  0  0  0  0  0  0  0
   10.4454  -18.1133   27.9320 O   0  0  0  0  0  0  0  0  0  0  0  0
   11.1435  -17.1004   26.0323 O   0  0  0  0  0  0  0  0  0  0  0  0
  2  3  1  0
  2  1  1  6
  4  5  1  0
  4  3  1  0
  6  7  1  0
  6  5  1  0
  8  2  1  0
  9  8  2  0
 10  8  1  0
 11 10  1  0
 11 12  1  1
 12 13  1  0
 13 18  2  0
 14 13  1  0
 14 15  2  0
 15 16  1  0
 16 17  2  0
 18 17  1  0
 19 11  1  0
 19 20  2  0
 22 21  1  6
 22 23  1  0
 23 19  1  0
 24 22  1  0
 25 24  2  0
 26 24  1  0
M  END
$$$$
