KFA.pdb
     RDKit          3D

 26 26  0  0  1  0  0  0  0  0999 V2000
    9.2227  -17.2870   19.9460 N   0  0  0  0  0  0  0  0  0  0  0  0
    9.7307  -17.5848   21.2955 C   0  0  1  0  0  0  0  0  0  0  0  0
   11.1205  -18.1475   21.1912 C   0  0  0  0  0  0  0  0  0  0  0  0
   11.2707  -19.2037   20.1476 C   0  0  0  0  0  0  0  0  0  0  0  0
   12.6450  -19.8476   20.1786 C   0  0  0  0  0  0  0  0  0  0  0  0
   12.8196  -20.8416   19.0580 C   0  0  0  0  0  0  0  0  0  0  0  0
   14.1453  -21.4121   19.0119 N   0  0  0  0  0  0  0  0  0  0  0  0
    9.6118  -16.3685   22.1089 C   0  0  0  0  0  0  0  0  0  0  0  0
   10.2296  -15.3433   21.7980 O   0  0  0  0  0  0  0  0  0  0  0  0
    8.8029  -16.2904   23.2732 N   0  0  0  0  0  0  0  0  0  0  0  0
    8.6201  -15.1266   24.0679 C   0  0  1  0  0  0  0  0  0  0  0  0
    7.2814  -14.9924   24.7118 C   0  0  0  0  0  0  0  0  0  0  0  0
    7.0809  -13.7824   25.4973 C   0  0  0  0  0  0  0  0  0  0  0  0
    7.2803  -12.5110   25.0514 C   0  0  0  0  0  0  0  0  0  0  0  0
    7.0694  -11.4270   25.8522 C   0  0  0  0  0  0  0  0  0  0  0  0
    6.6423  -11.5597   27.1583 C   0  0  0  0  0  0  0  0  0  0  0  0
    6.4351  -12.8410   27.6273 C   0  0  0  0  0  0  0  0  0  0  0  0
    6.6488  -13.9293   26.8173 C   0  0  0  0  0  0  0  0  0  0  0  0
    9.6366  -15.1498   25.1527 C   0  0  0  0  0  0  0  0  0  0  0  0
   10.6538  -14.4242   25.0747 O   0  0  0  0  0  0  0  0  0  0  0  0
   10.3190  -14.4786   28.0346 C   0  0  0  0  0  0  0  0  0  0  0  0
   10.4601  -15.8429   27.3905 C   0  0  2  0  0  0  0  0  0  0  0  0
    9.5163  -15.9694   26.3018 N   0  0  0  0  0  0  0  0  0  0  0  0
   10.2536  -16.8992   28.4130 C   0  0  0  0  0  0  0  0  0  0  0  0
    9.3208  -17.7159   28.2237 O   0  0  0  0  0  0  0  0  0  0  0  0
   11.0201  -17.0417   29.5580 O   0  0  0  0  0  0  0  0  0  0  0  0
  2  3  1  0
  2  1  1  6
  4  5  1  0
  4  3  1  0
  6  7  1  0
  6  5  1  0
  8  2  1  0
  9  8  2  0
 10  8  1  0
 11 10  1  0
 11 12  1  1
 12 13  1  0
 13 18  2  0
 14 13  1  0
 14 15  2  0
 15 16  1  0
 16 17  2  0
 18 17  1  0
 19 11  1  0
 19 20  2  0
 22 21  1  1
 22 23  1  0
 23 19  1  0
 24 22  1  0
 25 24  2  0
 26 24  1  0
M  END
$$$$
