PRG.pdb
     RDKit          3D

 23 23  0  0  1  0  0  0  0  0999 V2000
   27.4710  -20.1179  -17.4009 N   0  0  0  0  0  0  0  0  0  0  0  0
   28.0495  -19.5946  -18.6062 C   0  0  0  0  0  0  0  0  0  0  0  0
   28.0495  -18.0879  -18.5156 C   0  0  0  0  0  0  0  0  0  0  0  0
   27.0679  -17.8610  -17.3579 C   0  0  0  0  0  0  0  0  0  0  0  0
   27.4769  -19.0412  -16.4643 C   0  0  1  0  0  0  0  0  0  0  0  0
   26.5436  -19.2155  -15.3454 C   0  0  0  0  0  0  0  0  0  0  0  0
   26.4901  -18.3273  -14.4574 O   0  0  0  0  0  0  0  0  0  0  0  0
   19.5683  -23.1693  -13.6511 N   0  0  0  0  0  0  0  0  0  0  0  0
   19.4456  -22.0593  -12.7428 C   0  0  0  0  0  0  0  0  0  0  0  0
   18.6256  -22.1082  -11.7499 N   0  0  0  0  0  0  0  0  0  0  0  0
   20.2322  -20.8870  -12.9324 N   0  0  0  0  0  0  0  0  0  0  0  0
   21.1989  -20.7444  -13.9990 C   0  0  0  0  0  0  0  0  0  0  0  0
   22.4622  -21.5137  -13.6707 C   0  0  0  0  0  0  0  0  0  0  0  0
   23.4784  -21.1889  -14.7302 C   0  0  0  0  0  0  0  0  0  0  0  0
   24.7203  -20.5343  -14.1949 C   0  0  2  0  0  0  0  0  0  0  0  0
   25.7173  -20.3359  -15.2404 N   0  0  0  0  0  0  0  0  0  0  0  0
   25.2898  -21.2258  -13.0233 C   0  0  0  0  0  0  0  0  0  0  0  0
   26.0833  -22.1948  -13.1216 O   0  0  0  0  0  0  0  0  0  0  0  0
   18.5992  -21.3853  -11.0080 N   0  0  0  0  0  0  0  0  0  0  0  0
   24.9554  -20.8126  -11.6990 C   0  0  0  0  0  0  0  0  0  0  0  0
   25.5932  -21.3199  -10.5273 C   0  0  0  0  0  0  0  0  0  0  0  0
   25.1110  -20.6485   -9.2829 O   0  0  0  0  0  0  0  0  0  0  0  0
   25.6575  -21.0700   -8.0862 O   0  0  0  0  0  0  0  0  0  0  0  0
  2  1  1  0
  2  3  1  0
  4  3  1  0
  5  4  1  0
  5  6  1  1
  5  1  1  0
  6  7  2  0
  8  9  1  0
  9 11  1  0
 10  9  2  0
 11 12  1  0
 12 13  1  0
 14 13  1  0
 15 14  1  6
 15 17  1  0
 16  6  1  0
 16 15  1  0
 17 19  1  0
 17 18  2  0
 19 20  1  0
 21 22  1  0
 21 20  1  0
 23 21  2  0
M  END
$$$$
