PRG.pdb
     RDKit          3D

 23 23  0  0  1  0  0  0  0  0999 V2000
   27.6761  -20.4904  -16.5859 N   0  0  0  0  0  0  0  0  0  0  0  0
   29.0562  -20.7117  -16.9141 C   0  0  0  0  0  0  0  0  0  0  0  0
   29.3959  -22.1459  -16.5888 C   0  0  0  0  0  0  0  0  0  0  0  0
   28.2084  -22.5366  -15.6984 C   0  0  0  0  0  0  0  0  0  0  0  0
   27.0950  -21.7860  -16.4437 C   0  0  1  0  0  0  0  0  0  0  0  0
   25.8387  -21.7991  -15.6854 C   0  0  0  0  0  0  0  0  0  0  0  0
   25.2520  -22.8960  -15.5043 O   0  0  0  0  0  0  0  0  0  0  0  0
   23.6701  -21.2259   -7.7549 N   0  0  0  0  0  0  0  0  0  0  0  0
   22.3920  -21.1040   -8.4059 C   0  0  0  0  0  0  0  0  0  0  0  0
   21.2978  -21.2548   -7.7422 N   0  0  0  0  0  0  0  0  0  0  0  0
   22.3213  -20.8148   -9.7988 N   0  0  0  0  0  0  0  0  0  0  0  0
   23.4858  -20.7403  -10.6536 C   0  0  0  0  0  0  0  0  0  0  0  0
   23.0767  -20.3987  -12.0719 C   0  0  0  0  0  0  0  0  0  0  0  0
   24.3188  -20.4195  -12.9189 C   0  0  0  0  0  0  0  0  0  0  0  0
   24.0452  -20.5801  -14.3875 C   0  0  2  0  0  0  0  0  0  0  0  0
   25.2796  -20.6318  -15.1622 N   0  0  0  0  0  0  0  0  0  0  0  0
   23.1076  -19.5756  -14.9231 C   0  0  0  0  0  0  0  0  0  0  0  0
   23.3906  -18.3545  -15.0082 O   0  0  0  0  0  0  0  0  0  0  0  0
   20.3631  -21.2324   -8.1889 N   0  0  0  0  0  0  0  0  0  0  0  0
   21.8103  -19.9584  -15.3778 C   0  0  0  0  0  0  0  0  0  0  0  0
   20.8370  -19.0336  -15.8621 C   0  0  0  0  0  0  0  0  0  0  0  0
   19.7822  -18.7363  -14.8470 O   0  0  0  0  0  0  0  0  0  0  0  0
   18.7678  -17.8775  -15.2239 O   0  0  0  0  0  0  0  0  0  0  0  0
  2  1  1  0
  2  3  1  0
  4  3  1  0
  5  4  1  0
  5  6  1  1
  5  1  1  0
  6  7  2  0
  8  9  1  0
  9 11  1  0
 10  9  2  0
 11 12  1  0
 12 13  1  0
 14 13  1  0
 15 14  1  1
 15 17  1  0
 16  6  1  0
 16 15  1  0
 17 19  1  0
 17 18  2  0
 19 20  1  0
 21 22  1  0
 21 20  1  0
 23 21  2  0
M  END
$$$$
