PRG.pdb
     RDKit          3D

 23 23  0  0  1  0  0  0  0  0999 V2000
   13.6532  -19.4795    1.7202 N   0  0  0  0  0  0  0  0  0  0  0  0
   13.8328  -18.5652    2.8125 C   0  0  0  0  0  0  0  0  0  0  0  0
   14.8080  -19.1788    3.7876 C   0  0  0  0  0  0  0  0  0  0  0  0
   14.8106  -20.6414    3.3228 C   0  0  0  0  0  0  0  0  0  0  0  0
   14.7321  -20.4094    1.8066 C   0  0  1  0  0  0  0  0  0  0  0  0
   14.5002  -21.6650    1.0832 C   0  0  0  0  0  0  0  0  0  0  0  0
   13.3654  -22.2016    1.1497 O   0  0  0  0  0  0  0  0  0  0  0  0
   17.7861  -26.4312   -4.7183 N   0  0  0  0  0  0  0  0  0  0  0  0
   16.3703  -26.6861   -4.7724 C   0  0  0  0  0  0  0  0  0  0  0  0
   15.9201  -27.8920   -4.8337 N   0  0  0  0  0  0  0  0  0  0  0  0
   15.4456  -25.6028   -4.7600 N   0  0  0  0  0  0  0  0  0  0  0  0
   15.6288  -24.4126   -3.9586 C   0  0  0  0  0  0  0  0  0  0  0  0
   15.8613  -24.7852   -2.5086 C   0  0  0  0  0  0  0  0  0  0  0  0
   16.0074  -23.5069   -1.7304 C   0  0  0  0  0  0  0  0  0  0  0  0
   15.3467  -23.5425   -0.3815 C   0  0  2  0  0  0  0  0  0  0  0  0
   15.5012  -22.2772    0.3268 N   0  0  0  0  0  0  0  0  0  0  0  0
   15.7683  -24.6864    0.4484 C   0  0  0  0  0  0  0  0  0  0  0  0
   16.8629  -24.7164    1.0642 O   0  0  0  0  0  0  0  0  0  0  0  0
   14.9100  -28.1105   -4.9092 N   0  0  0  0  0  0  0  0  0  0  0  0
   14.9302  -25.8327    0.5898 C   0  0  0  0  0  0  0  0  0  0  0  0
   15.2622  -26.9603    1.3994 C   0  0  0  0  0  0  0  0  0  0  0  0
   16.1071  -27.9533    0.6702 O   0  0  0  0  0  0  0  0  0  0  0  0
   16.4544  -29.1054    1.3489 O   0  0  0  0  0  0  0  0  0  0  0  0
  2  1  1  0
  2  3  1  0
  4  3  1  0
  5  4  1  0
  5  6  1  6
  5  1  1  0
  6  7  2  0
  8  9  1  0
  9 11  1  0
 10  9  2  0
 11 12  1  0
 12 13  1  0
 14 13  1  0
 15 14  1  6
 15 17  1  0
 16  6  1  0
 16 15  1  0
 17 19  1  0
 17 18  2  0
 19 20  1  0
 21 22  1  0
 21 20  1  0
 23 21  2  0
M  END
$$$$
