PRG.pdb
     RDKit          3D

 23 23  0  0  1  0  0  0  0  0999 V2000
   25.8982  -10.7267  -19.4174 N   0  0  0  0  0  0  0  0  0  0  0  0
   26.3886  -11.2739  -20.6508 C   0  0  0  0  0  0  0  0  0  0  0  0
   25.3473  -11.0420  -21.7185 C   0  0  0  0  0  0  0  0  0  0  0  0
   24.1199  -10.6960  -20.8647 C   0  0  0  0  0  0  0  0  0  0  0  0
   24.8148   -9.8688  -19.7731 C   0  0  1  0  0  0  0  0  0  0  0  0
   23.9009   -9.5670  -18.6653 C   0  0  0  0  0  0  0  0  0  0  0  0
   22.8351   -8.9474  -18.9110 O   0  0  0  0  0  0  0  0  0  0  0  0
   21.7060  -15.7733  -13.7320 N   0  0  0  0  0  0  0  0  0  0  0  0
   21.7123  -15.6862  -15.1689 C   0  0  0  0  0  0  0  0  0  0  0  0
   21.5807  -16.7437  -15.8934 N   0  0  0  0  0  0  0  0  0  0  0  0
   21.8660  -14.4236  -15.8102 N   0  0  0  0  0  0  0  0  0  0  0  0
   22.3838  -13.2512  -15.1398 C   0  0  0  0  0  0  0  0  0  0  0  0
   22.5342  -12.1069  -16.1214 C   0  0  0  0  0  0  0  0  0  0  0  0
   23.1336  -10.9468  -15.3761 C   0  0  0  0  0  0  0  0  0  0  0  0
   23.2994   -9.7113  -16.2149 C   0  0  2  0  0  0  0  0  0  0  0  0
   24.1817   -9.9472  -17.3517 N   0  0  0  0  0  0  0  0  0  0  0  0
   23.7142   -8.5271  -15.4399 C   0  0  0  0  0  0  0  0  0  0  0  0
   24.9061   -8.3135  -15.1051 O   0  0  0  0  0  0  0  0  0  0  0  0
   21.4644  -16.7078  -16.9225 N   0  0  0  0  0  0  0  0  0  0  0  0
   22.7564   -7.5522  -15.0293 C   0  0  0  0  0  0  0  0  0  0  0  0
   23.0815   -6.4058  -14.2438 C   0  0  0  0  0  0  0  0  0  0  0  0
   21.8837   -5.5646  -13.9448 O   0  0  0  0  0  0  0  0  0  0  0  0
   20.6889   -5.9373  -14.5297 O   0  0  0  0  0  0  0  0  0  0  0  0
  2  1  1  0
  2  3  1  0
  4  3  1  0
  5  4  1  0
  5  6  1  1
  5  1  1  0
  6  7  2  0
  8  9  1  0
  9 11  1  0
 10  9  2  0
 11 12  1  0
 12 13  1  0
 14 13  1  0
 15 14  1  1
 15 17  1  0
 16  6  1  0
 16 15  1  0
 17 19  1  0
 17 18  2  0
 19 20  1  0
 21 22  1  0
 21 20  1  0
 23 21  2  0
M  END
$$$$
