PRG.pdb
     RDKit          3D

 23 23  0  0  1  0  0  0  0  0999 V2000
   27.6920  -19.8978  -16.6697 N   0  0  0  0  0  0  0  0  0  0  0  0
   28.8449  -19.6402  -17.4856 C   0  0  0  0  0  0  0  0  0  0  0  0
   29.6200  -20.9273  -17.6292 C   0  0  0  0  0  0  0  0  0  0  0  0
   29.0048  -21.7704  -16.5040 C   0  0  0  0  0  0  0  0  0  0  0  0
   27.5438  -21.3167  -16.6383 C   0  0  1  0  0  0  0  0  0  0  0  0
   26.7247  -21.8090  -15.5246 C   0  0  0  0  0  0  0  0  0  0  0  0
   26.5082  -23.0437  -15.4315 O   0  0  0  0  0  0  0  0  0  0  0  0
   22.5379  -19.9872   -9.4860 N   0  0  0  0  0  0  0  0  0  0  0  0
   23.2149  -20.7565   -8.4750 C   0  0  0  0  0  0  0  0  0  0  0  0
   22.5861  -21.1648   -7.4269 N   0  0  0  0  0  0  0  0  0  0  0  0
   24.5952  -21.0761   -8.6214 N   0  0  0  0  0  0  0  0  0  0  0  0
   25.3860  -20.6735   -9.7637 C   0  0  0  0  0  0  0  0  0  0  0  0
   24.8523  -21.3180  -11.0267 C   0  0  0  0  0  0  0  0  0  0  0  0
   25.7600  -20.9189  -12.1570 C   0  0  0  0  0  0  0  0  0  0  0  0
   25.2698  -21.3568  -13.5081 C   0  0  2  0  0  0  0  0  0  0  0  0
   26.1816  -20.9471  -14.5699 N   0  0  0  0  0  0  0  0  0  0  0  0
   23.8828  -20.9434  -13.7915 C   0  0  0  0  0  0  0  0  0  0  0  0
   23.5297  -19.7397  -13.8604 O   0  0  0  0  0  0  0  0  0  0  0  0
   23.0466  -21.7031   -6.6706 N   0  0  0  0  0  0  0  0  0  0  0  0
   22.8611  -21.9166  -14.0046 C   0  0  0  0  0  0  0  0  0  0  0  0
   21.5278  -21.5909  -14.3965 C   0  0  0  0  0  0  0  0  0  0  0  0
   20.6108  -21.4495  -13.2257 O   0  0  0  0  0  0  0  0  0  0  0  0
   19.2692  -21.2589  -13.4945 O   0  0  0  0  0  0  0  0  0  0  0  0
  2  1  1  0
  2  3  1  0
  4  3  1  0
  5  4  1  0
  5  6  1  1
  5  1  1  0
  6  7  2  0
  8  9  1  0
  9 11  1  0
 10  9  2  0
 11 12  1  0
 12 13  1  0
 14 13  1  0
 15 14  1  1
 15 17  1  0
 16  6  1  0
 16 15  1  0
 17 19  1  0
 17 18  2  0
 19 20  1  0
 21 22  1  0
 21 20  1  0
 23 21  2  0
M  END
$$$$
