PRG.pdb
     RDKit          3D

 23 23  0  0  1  0  0  0  0  0999 V2000
   25.6016  -23.8668  -15.8244 N   0  0  0  0  0  0  0  0  0  0  0  0
   26.9162  -24.0238  -16.3797 C   0  0  0  0  0  0  0  0  0  0  0  0
   26.8093  -24.8900  -17.6111 C   0  0  0  0  0  0  0  0  0  0  0  0
   25.4122  -25.4974  -17.4254 C   0  0  0  0  0  0  0  0  0  0  0  0
   24.6933  -24.2688  -16.8489 C   0  0  1  0  0  0  0  0  0  0  0  0
   23.3528  -24.6119  -16.3602 C   0  0  0  0  0  0  0  0  0  0  0  0
   22.4062  -24.6780  -17.1846 O   0  0  0  0  0  0  0  0  0  0  0  0
   18.7605  -29.3162  -12.2069 N   0  0  0  0  0  0  0  0  0  0  0  0
   20.1580  -29.6547  -12.1381 C   0  0  0  0  0  0  0  0  0  0  0  0
   20.5574  -30.8556  -12.3804 N   0  0  0  0  0  0  0  0  0  0  0  0
   21.1206  -28.6613  -11.7984 N   0  0  0  0  0  0  0  0  0  0  0  0
   20.7717  -27.2932  -11.4842 C   0  0  0  0  0  0  0  0  0  0  0  0
   20.5182  -26.5093  -12.7558 C   0  0  0  0  0  0  0  0  0  0  0  0
   21.8558  -26.1693  -13.3524 C   0  0  0  0  0  0  0  0  0  0  0  0
   21.7839  -25.1491  -14.4531 C   0  0  2  0  0  0  0  0  0  0  0  0
   23.1012  -24.8656  -15.0106 N   0  0  0  0  0  0  0  0  0  0  0  0
   21.0801  -23.9133  -14.0628 C   0  0  0  0  0  0  0  0  0  0  0  0
   21.5225  -23.1210  -13.1940 O   0  0  0  0  0  0  0  0  0  0  0  0
   21.5510  -31.1413  -12.3101 N   0  0  0  0  0  0  0  0  0  0  0  0
   19.8387  -23.5583  -14.6706 C   0  0  0  0  0  0  0  0  0  0  0  0
   19.0936  -22.3913  -14.3243 C   0  0  0  0  0  0  0  0  0  0  0  0
   17.8375  -22.2624  -15.1225 O   0  0  0  0  0  0  0  0  0  0  0  0
   16.9720  -21.2426  -14.7770 O   0  0  0  0  0  0  0  0  0  0  0  0
  2  1  1  0
  2  3  1  0
  4  3  1  0
  5  4  1  0
  5  6  1  1
  5  1  1  0
  6  7  2  0
  8  9  1  0
  9 11  1  0
 10  9  2  0
 11 12  1  0
 12 13  1  0
 14 13  1  0
 15 14  1  1
 15 17  1  0
 16  6  1  0
 16 15  1  0
 17 19  1  0
 17 18  2  0
 19 20  1  0
 21 22  1  0
 21 20  1  0
 23 21  2  0
M  END
$$$$
