PRG.pdb
     RDKit          3D

 23 23  0  0  1  0  0  0  0  0999 V2000
   28.3293  -17.7902  -18.3516 N   0  0  0  0  0  0  0  0  0  0  0  0
   28.3559  -16.5177  -19.0157 C   0  0  0  0  0  0  0  0  0  0  0  0
   27.4905  -15.5585  -18.2354 C   0  0  0  0  0  0  0  0  0  0  0  0
   26.6975  -16.5289  -17.3494 C   0  0  0  0  0  0  0  0  0  0  0  0
   27.8136  -17.5391  -17.0450 C   0  0  1  0  0  0  0  0  0  0  0  0
   27.2883  -18.7310  -16.3689 C   0  0  0  0  0  0  0  0  0  0  0  0
   26.9832  -19.7349  -17.0612 O   0  0  0  0  0  0  0  0  0  0  0  0
   25.8812  -20.4934   -7.8768 N   0  0  0  0  0  0  0  0  0  0  0  0
   24.9140  -20.8640   -8.8766 C   0  0  0  0  0  0  0  0  0  0  0  0
   23.6706  -21.0057   -8.5695 N   0  0  0  0  0  0  0  0  0  0  0  0
   25.3224  -21.0807  -10.2239 N   0  0  0  0  0  0  0  0  0  0  0  0
   26.6860  -20.9125  -10.6763 C   0  0  0  0  0  0  0  0  0  0  0  0
   26.8041  -21.2823  -12.1407 C   0  0  0  0  0  0  0  0  0  0  0  0
   27.2166  -20.0449  -12.8885 C   0  0  0  0  0  0  0  0  0  0  0  0
   26.6000  -19.9309  -14.2538 C   0  0  2  0  0  0  0  0  0  0  0  0
   27.1187  -18.7801  -14.9841 N   0  0  0  0  0  0  0  0  0  0  0  0
   25.1254  -19.9443  -14.2347 C   0  0  0  0  0  0  0  0  0  0  0  0
   24.4572  -20.9050  -13.7775 O   0  0  0  0  0  0  0  0  0  0  0  0
   22.9480  -21.2703   -9.2635 N   0  0  0  0  0  0  0  0  0  0  0  0
   24.3794  -18.8406  -14.7463 C   0  0  0  0  0  0  0  0  0  0  0  0
   22.9618  -18.7224  -14.6308 C   0  0  0  0  0  0  0  0  0  0  0  0
   22.2398  -19.5089  -15.6758 O   0  0  0  0  0  0  0  0  0  0  0  0
   21.2326  -18.8642  -16.3673 O   0  0  0  0  0  0  0  0  0  0  0  0
  2  1  1  0
  2  3  1  0
  4  3  1  0
  5  4  1  0
  5  6  1  6
  5  1  1  0
  6  7  2  0
  8  9  1  0
  9 11  1  0
 10  9  2  0
 11 12  1  0
 12 13  1  0
 14 13  1  0
 15 14  1  1
 15 17  1  0
 16  6  1  0
 16 15  1  0
 17 19  1  0
 17 18  2  0
 19 20  1  0
 21 22  1  0
 21 20  1  0
 23 21  2  0
M  END
$$$$
