PRG.pdb
     RDKit          3D

 23 23  0  0  1  0  0  0  0  0999 V2000
   28.2982  -16.8418  -20.1068 N   0  0  0  0  0  0  0  0  0  0  0  0
   28.5555  -15.8316  -21.0939 C   0  0  0  0  0  0  0  0  0  0  0  0
   27.5607  -14.7136  -20.8973 C   0  0  0  0  0  0  0  0  0  0  0  0
   26.5203  -15.3977  -20.0000 C   0  0  0  0  0  0  0  0  0  0  0  0
   27.4706  -16.2247  -19.1216 C   0  0  1  0  0  0  0  0  0  0  0  0
   26.7331  -17.1734  -18.2792 C   0  0  0  0  0  0  0  0  0  0  0  0
   26.1920  -18.1705  -18.8206 O   0  0  0  0  0  0  0  0  0  0  0  0
   24.9000  -21.2033  -11.2385 N   0  0  0  0  0  0  0  0  0  0  0  0
   25.9160  -21.6965  -12.1311 C   0  0  0  0  0  0  0  0  0  0  0  0
   25.9560  -22.9419  -12.4597 N   0  0  0  0  0  0  0  0  0  0  0  0
   26.8951  -20.8094  -12.6634 N   0  0  0  0  0  0  0  0  0  0  0  0
   26.7613  -19.3694  -12.6324 C   0  0  0  0  0  0  0  0  0  0  0  0
   25.8109  -18.9056  -13.7173 C   0  0  0  0  0  0  0  0  0  0  0  0
   26.6272  -18.1955  -14.7613 C   0  0  0  0  0  0  0  0  0  0  0  0
   25.8612  -17.8792  -16.0145 C   0  0  2  0  0  0  0  0  0  0  0  0
   26.6162  -16.9993  -16.8989 N   0  0  0  0  0  0  0  0  0  0  0  0
   24.5048  -17.3602  -15.7579 C   0  0  0  0  0  0  0  0  0  0  0  0
   24.2889  -16.2094  -15.3027 O   0  0  0  0  0  0  0  0  0  0  0  0
   26.6912  -23.3367  -13.0739 N   0  0  0  0  0  0  0  0  0  0  0  0
   23.3549  -18.1627  -16.0229 C   0  0  0  0  0  0  0  0  0  0  0  0
   22.0205  -17.7577  -15.7187 C   0  0  0  0  0  0  0  0  0  0  0  0
   21.3900  -18.6198  -14.6743 O   0  0  0  0  0  0  0  0  0  0  0  0
   20.1255  -18.2671  -14.2439 O   0  0  0  0  0  0  0  0  0  0  0  0
  2  1  1  0
  2  3  1  0
  4  3  1  0
  5  4  1  0
  5  6  1  6
  5  1  1  0
  6  7  2  0
  8  9  1  0
  9 11  1  0
 10  9  2  0
 11 12  1  0
 12 13  1  0
 14 13  1  0
 15 14  1  1
 15 17  1  0
 16  6  1  0
 16 15  1  0
 17 19  1  0
 17 18  2  0
 19 20  1  0
 21 22  1  0
 21 20  1  0
 23 21  2  0
M  END
$$$$
