PRG.pdb
     RDKit          3D

 23 23  0  0  1  0  0  0  0  0999 V2000
   18.7940  -24.6159  -10.2044 N   0  0  0  0  0  0  0  0  0  0  0  0
   19.0247  -23.6715  -11.2608 C   0  0  0  0  0  0  0  0  0  0  0  0
   18.4629  -22.3373  -10.8337 C   0  0  0  0  0  0  0  0  0  0  0  0
   17.5728  -22.7545   -9.6551 C   0  0  0  0  0  0  0  0  0  0  0  0
   18.4736  -23.8412   -9.0497 C   0  0  1  0  0  0  0  0  0  0  0  0
   17.7763  -24.5919   -7.9991 C   0  0  0  0  0  0  0  0  0  0  0  0
   16.5614  -24.3495   -7.7862 O   0  0  0  0  0  0  0  0  0  0  0  0
   20.3964  -29.9823  -10.0868 N   0  0  0  0  0  0  0  0  0  0  0  0
   19.0772  -30.1229  -10.6455 C   0  0  0  0  0  0  0  0  0  0  0  0
   18.9167  -30.4633  -11.8780 N   0  0  0  0  0  0  0  0  0  0  0  0
   17.9276  -29.8849   -9.8388 N   0  0  0  0  0  0  0  0  0  0  0  0
   17.9974  -29.6042   -8.4216 C   0  0  0  0  0  0  0  0  0  0  0  0
   17.7137  -28.1390   -8.1606 C   0  0  0  0  0  0  0  0  0  0  0  0
   17.9058  -27.8955   -6.6894 C   0  0  0  0  0  0  0  0  0  0  0  0
   17.7549  -26.4547   -6.2912 C   0  0  2  0  0  0  0  0  0  0  0  0
   18.4226  -25.5635   -7.2328 N   0  0  0  0  0  0  0  0  0  0  0  0
   18.1650  -26.1840   -4.9007 C   0  0  0  0  0  0  0  0  0  0  0  0
   19.3576  -25.9675   -4.5704 O   0  0  0  0  0  0  0  0  0  0  0  0
   17.9831  -30.5469  -12.3199 N   0  0  0  0  0  0  0  0  0  0  0  0
   17.2012  -26.1559   -3.8487 C   0  0  0  0  0  0  0  0  0  0  0  0
   17.5167  -25.8299   -2.4954 C   0  0  0  0  0  0  0  0  0  0  0  0
   18.0029  -27.0139   -1.7251 O   0  0  0  0  0  0  0  0  0  0  0  0
   18.2967  -26.8203   -0.3892 O   0  0  0  0  0  0  0  0  0  0  0  0
  2  1  1  0
  2  3  1  0
  4  3  1  0
  5  4  1  0
  5  6  1  1
  5  1  1  0
  6  7  2  0
  8  9  1  0
  9 11  1  0
 10  9  2  0
 11 12  1  0
 12 13  1  0
 14 13  1  0
 15 14  1  6
 15 17  1  0
 16  6  1  0
 16 15  1  0
 17 19  1  0
 17 18  2  0
 19 20  1  0
 21 22  1  0
 21 20  1  0
 23 21  2  0
M  END
$$$$
