PRG.pdb
     RDKit          3D

 23 23  0  0  1  0  0  0  0  0999 V2000
   28.5418  -20.5064  -17.4190 N   0  0  0  0  0  0  0  0  0  0  0  0
   29.1993  -20.2721  -18.6736 C   0  0  0  0  0  0  0  0  0  0  0  0
   28.8765  -18.8675  -19.1219 C   0  0  0  0  0  0  0  0  0  0  0  0
   27.6856  -18.5332  -18.2134 C   0  0  0  0  0  0  0  0  0  0  0  0
   28.1673  -19.2203  -16.9271 C   0  0  1  0  0  0  0  0  0  0  0  0
   27.1114  -19.2526  -15.9085 C   0  0  0  0  0  0  0  0  0  0  0  0
   26.7024  -18.1665  -15.4255 O   0  0  0  0  0  0  0  0  0  0  0  0
   20.3697  -22.7820  -13.1027 N   0  0  0  0  0  0  0  0  0  0  0  0
   20.9342  -23.5340  -14.1926 C   0  0  0  0  0  0  0  0  0  0  0  0
   20.7405  -24.8046  -14.2862 N   0  0  0  0  0  0  0  0  0  0  0  0
   21.7188  -22.8795  -15.1851 N   0  0  0  0  0  0  0  0  0  0  0  0
   21.8781  -21.4433  -15.2505 C   0  0  0  0  0  0  0  0  0  0  0  0
   23.0018  -20.9963  -14.3378 C   0  0  0  0  0  0  0  0  0  0  0  0
   24.2993  -21.3116  -15.0291 C   0  0  0  0  0  0  0  0  0  0  0  0
   25.4739  -20.5488  -14.4853 C   0  0  2  0  0  0  0  0  0  0  0  0
   26.5515  -20.4514  -15.4630 N   0  0  0  0  0  0  0  0  0  0  0  0
   25.9582  -21.0620  -13.1902 C   0  0  0  0  0  0  0  0  0  0  0  0
   26.9249  -21.8580  -13.0897 O   0  0  0  0  0  0  0  0  0  0  0  0
   21.1228  -25.3747  -15.0625 N   0  0  0  0  0  0  0  0  0  0  0  0
   25.3343  -20.6656  -11.9695 C   0  0  0  0  0  0  0  0  0  0  0  0
   25.7949  -21.0662  -10.6794 C   0  0  0  0  0  0  0  0  0  0  0  0
   24.8674  -20.6404   -9.5884 O   0  0  0  0  0  0  0  0  0  0  0  0
   25.2405  -20.9364   -8.2916 O   0  0  0  0  0  0  0  0  0  0  0  0
  2  1  1  0
  2  3  1  0
  4  3  1  0
  5  4  1  0
  5  6  1  1
  5  1  1  0
  6  7  2  0
  8  9  1  0
  9 11  1  0
 10  9  2  0
 11 12  1  0
 12 13  1  0
 14 13  1  0
 15 14  1  6
 15 17  1  0
 16  6  1  0
 16 15  1  0
 17 19  1  0
 17 18  2  0
 19 20  1  0
 21 22  1  0
 21 20  1  0
 23 21  2  0
M  END
$$$$
