WFP.pdb
     RDKit          3D

 33 36  0  0  1  0  0  0  0  0999 V2000
    8.7065  -18.8102   22.3136 N   0  0  0  0  0  0  0  0  0  0  0  0
    9.0273  -17.5297   21.7674 C   0  0  1  0  0  0  0  0  0  0  0  0
    8.0415  -17.1154   20.7171 C   0  0  0  0  0  0  0  0  0  0  0  0
    8.3748  -15.9010   19.9820 C   0  0  0  0  0  0  0  0  0  0  0  0
    8.9719  -15.8032   18.7541 C   0  0  0  0  0  0  0  0  0  0  0  0
    9.0878  -14.5228   18.3788 N   0  0  0  0  0  0  0  0  0  0  0  0
    8.5655  -13.7733   19.3653 C   0  0  0  0  0  0  0  0  0  0  0  0
    8.4719  -12.3994   19.4114 C   0  0  0  0  0  0  0  0  0  0  0  0
    7.8990  -11.8263   20.5237 C   0  0  0  0  0  0  0  0  0  0  0  0
    7.4330  -12.6306   21.5663 C   0  0  0  0  0  0  0  0  0  0  0  0
    7.5432  -14.0014   21.4856 C   0  0  0  0  0  0  0  0  0  0  0  0
    8.1093  -14.6031   20.3863 C   0  0  0  0  0  0  0  0  0  0  0  0
    9.0728  -16.5144   22.8723 C   0  0  0  0  0  0  0  0  0  0  0  0
    9.6064  -15.4091   22.6960 O   0  0  0  0  0  0  0  0  0  0  0  0
    8.5343  -16.7470   24.1372 N   0  0  0  0  0  0  0  0  0  0  0  0
    8.4940  -15.8621   25.2679 C   0  0  1  0  0  0  0  0  0  0  0  0
    7.2037  -15.6660   25.9262 C   0  0  0  0  0  0  0  0  0  0  0  0
    6.8443  -14.1936   25.9142 C   0  0  0  0  0  0  0  0  0  0  0  0
    7.7455  -13.2937   26.4292 C   0  0  0  0  0  0  0  0  0  0  0  0
    7.4461  -11.9263   26.4348 C   0  0  0  0  0  0  0  0  0  0  0  0
    6.2443  -11.4633   25.9248 C   0  0  0  0  0  0  0  0  0  0  0  0
    5.3485  -12.3782   25.4115 C   0  0  0  0  0  0  0  0  0  0  0  0
    5.6722  -13.7262   25.4183 C   0  0  0  0  0  0  0  0  0  0  0  0
    9.5543  -16.3476   26.1752 C   0  0  0  0  0  0  0  0  0  0  0  0
    9.8986  -17.5848   26.0390 O   0  0  0  0  0  0  0  0  0  0  0  0
   10.2237  -15.5679   27.1810 N   0  0  0  0  0  0  0  0  0  0  0  0
   10.2042  -14.1574   27.4155 C   0  0  0  0  0  0  0  0  0  0  0  0
   11.3366  -13.8989   28.4298 C   0  0  0  0  0  0  0  0  0  0  0  0
   11.3171  -15.1839   29.2208 C   0  0  0  0  0  0  0  0  0  0  0  0
   11.0991  -16.2039   28.1339 C   0  0  1  0  0  0  0  0  0  0  0  0
   10.4907  -17.4239   28.7547 C   0  0  0  0  0  0  0  0  0  0  0  0
   11.1454  -18.1700   29.6859 O   0  0  0  0  0  0  0  0  0  0  0  0
    9.3379  -17.7449   28.3824 O   0  0  0  0  0  0  0  0  0  0  0  0
  2  1  1  1
  2 13  1  0
  2  3  1  0
  4  3  1  0
  4  5  2  0
  6  5  1  0
  7  6  1  0
  8  7  2  0
  9  8  1  0
 10  9  2  0
 10 11  1  0
 11 12  2  0
 12  7  1  0
 12  4  1  0
 13 14  2  0
 15 16  1  0
 15 13  1  0
 16 17  1  1
 18 17  1  0
 19 18  2  0
 20 19  1  0
 21 20  2  0
 21 22  1  0
 22 23  2  0
 23 18  1  0
 24 25  2  0
 24 16  1  0
 26 24  1  0
 27 26  1  0
 28 27  1  0
 28 29  1  0
 29 30  1  0
 30 26  1  0
 30 31  1  1
 32 31  1  0
 33 31  2  0
M  END
$$$$
