WFP.pdb
     RDKit          3D

 33 36  0  0  1  0  0  0  0  0999 V2000
    9.3661  -17.2976   20.3095 N   0  0  0  0  0  0  0  0  0  0  0  0
   10.3218  -17.3054   21.3713 C   0  0  1  0  0  0  0  0  0  0  0  0
   11.7207  -17.1530   20.8551 C   0  0  0  0  0  0  0  0  0  0  0  0
   12.1439  -18.1463   19.8750 C   0  0  0  0  0  0  0  0  0  0  0  0
   12.3724  -17.9589   18.5385 C   0  0  0  0  0  0  0  0  0  0  0  0
   12.7845  -19.0941   17.9595 N   0  0  0  0  0  0  0  0  0  0  0  0
   12.8264  -20.0345   18.9195 C   0  0  0  0  0  0  0  0  0  0  0  0
   13.1931  -21.3553   18.7806 C   0  0  0  0  0  0  0  0  0  0  0  0
   13.1647  -22.1563   19.8993 C   0  0  0  0  0  0  0  0  0  0  0  0
   12.7713  -21.6280   21.1310 C   0  0  0  0  0  0  0  0  0  0  0  0
   12.4112  -20.3021   21.2323 C   0  0  0  0  0  0  0  0  0  0  0  0
   12.4312  -19.4766   20.1327 C   0  0  0  0  0  0  0  0  0  0  0  0
    9.9985  -16.2052   22.3401 C   0  0  0  0  0  0  0  0  0  0  0  0
   10.4883  -15.0745   22.2019 O   0  0  0  0  0  0  0  0  0  0  0  0
    9.1507  -16.3831   23.4327 N   0  0  0  0  0  0  0  0  0  0  0  0
    8.7086  -15.4068   24.3890 C   0  0  1  0  0  0  0  0  0  0  0  0
    7.2789  -15.1055   24.4347 C   0  0  0  0  0  0  0  0  0  0  0  0
    7.0248  -13.9913   25.4301 C   0  0  0  0  0  0  0  0  0  0  0  0
    6.6482  -14.3259   26.7081 C   0  0  0  0  0  0  0  0  0  0  0  0
    6.4046  -13.3224   27.6532 C   0  0  0  0  0  0  0  0  0  0  0  0
    6.5386  -11.9856   27.3157 C   0  0  0  0  0  0  0  0  0  0  0  0
    6.9168  -11.6640   26.0287 C   0  0  0  0  0  0  0  0  0  0  0  0
    7.1521  -12.6789   25.1141 C   0  0  0  0  0  0  0  0  0  0  0  0
    9.2607  -15.8577   25.6833 C   0  0  0  0  0  0  0  0  0  0  0  0
    9.2128  -17.1278   25.9119 O   0  0  0  0  0  0  0  0  0  0  0  0
    9.8378  -15.0119   26.6928 N   0  0  0  0  0  0  0  0  0  0  0  0
    9.9307  -13.5862   26.7553 C   0  0  0  0  0  0  0  0  0  0  0  0
   10.9055  -13.2934   27.9138 C   0  0  0  0  0  0  0  0  0  0  0  0
   10.6220  -14.4562   28.8329 C   0  0  0  0  0  0  0  0  0  0  0  0
   10.4752  -15.5886   27.8503 C   0  0  1  0  0  0  0  0  0  0  0  0
    9.6483  -16.6595   28.4933 C   0  0  0  0  0  0  0  0  0  0  0  0
    8.3692  -16.9207   28.1086 O   0  0  0  0  0  0  0  0  0  0  0  0
   10.1796  -17.3205   29.4160 O   0  0  0  0  0  0  0  0  0  0  0  0
  2  1  1  6
  2 13  1  0
  2  3  1  0
  4  3  1  0
  4  5  2  0
  6  5  1  0
  7  6  1  0
  8  7  2  0
  9  8  1  0
 10  9  2  0
 10 11  1  0
 11 12  2  0
 12  7  1  0
 12  4  1  0
 13 14  2  0
 15 16  1  0
 15 13  1  0
 16 17  1  1
 18 17  1  0
 19 18  2  0
 20 19  1  0
 21 20  2  0
 21 22  1  0
 22 23  2  0
 23 18  1  0
 24 25  2  0
 24 16  1  0
 26 24  1  0
 27 26  1  0
 28 27  1  0
 28 29  1  0
 29 30  1  0
 30 26  1  0
 30 31  1  1
 32 31  1  0
 33 31  2  0
M  END
$$$$
