WFP.pdb
     RDKit          3D

 33 36  0  0  1  0  0  0  0  0999 V2000
    5.9747  -18.8841   21.4824 N   0  0  0  0  0  0  0  0  0  0  0  0
    7.0112  -17.9073   21.3716 C   0  0  1  0  0  0  0  0  0  0  0  0
    6.9759  -17.2139   20.0433 C   0  0  0  0  0  0  0  0  0  0  0  0
    8.0029  -16.2005   19.8323 C   0  0  0  0  0  0  0  0  0  0  0  0
    9.3051  -16.3938   19.4575 C   0  0  0  0  0  0  0  0  0  0  0  0
    9.9445  -15.2242   19.3275 N   0  0  0  0  0  0  0  0  0  0  0  0
    9.0591  -14.2554   19.6195 C   0  0  0  0  0  0  0  0  0  0  0  0
    9.2775  -12.8951   19.6182 C   0  0  0  0  0  0  0  0  0  0  0  0
    8.2277  -12.0703   19.9519 C   0  0  0  0  0  0  0  0  0  0  0  0
    6.9843  -12.6152   20.2810 C   0  0  0  0  0  0  0  0  0  0  0  0
    6.8026  -13.9807   20.2717 C   0  0  0  0  0  0  0  0  0  0  0  0
    7.8320  -14.8301   19.9407 C   0  0  0  0  0  0  0  0  0  0  0  0
    6.8771  -16.9106   22.4862 C   0  0  0  0  0  0  0  0  0  0  0  0
    6.2038  -15.8801   22.3374 O   0  0  0  0  0  0  0  0  0  0  0  0
    7.4904  -17.0754   23.7274 N   0  0  0  0  0  0  0  0  0  0  0  0
    7.7142  -16.0930   24.7511 C   0  0  1  0  0  0  0  0  0  0  0  0
    6.5686  -15.6952   25.5673 C   0  0  0  0  0  0  0  0  0  0  0  0
    6.9221  -14.4623   26.3748 C   0  0  0  0  0  0  0  0  0  0  0  0
    6.3560  -13.2615   26.0215 C   0  0  0  0  0  0  0  0  0  0  0  0
    6.6607  -12.1024   26.7449 C   0  0  0  0  0  0  0  0  0  0  0  0
    7.5323  -12.1489   27.8206 C   0  0  0  0  0  0  0  0  0  0  0  0
    8.0939  -13.3612   28.1637 C   0  0  0  0  0  0  0  0  0  0  0  0
    7.7732  -14.4927   27.4298 C   0  0  0  0  0  0  0  0  0  0  0  0
    8.8521  -16.6100   25.5392 C   0  0  0  0  0  0  0  0  0  0  0  0
    8.6295  -17.6799   26.2274 O   0  0  0  0  0  0  0  0  0  0  0  0
   10.1660  -16.0290   25.6016 N   0  0  0  0  0  0  0  0  0  0  0  0
   10.6803  -14.8488   24.9791 C   0  0  0  0  0  0  0  0  0  0  0  0
   12.2077  -14.9170   25.1794 C   0  0  0  0  0  0  0  0  0  0  0  0
   12.2953  -15.6348   26.5039 C   0  0  0  0  0  0  0  0  0  0  0  0
   11.2123  -16.6715   26.3574 C   0  0  1  0  0  0  0  0  0  0  0  0
   10.7689  -17.0796   27.7289 C   0  0  0  0  0  0  0  0  0  0  0  0
   11.5830  -17.7538   28.5863 O   0  0  0  0  0  0  0  0  0  0  0  0
    9.6016  -16.7770   28.0699 O   0  0  0  0  0  0  0  0  0  0  0  0
  2  1  1  6
  2 13  1  0
  2  3  1  0
  4  3  1  0
  4  5  2  0
  6  5  1  0
  7  6  1  0
  8  7  2  0
  9  8  1  0
 10  9  2  0
 10 11  1  0
 11 12  2  0
 12  7  1  0
 12  4  1  0
 13 14  2  0
 15 16  1  0
 15 13  1  0
 16 17  1  1
 18 17  1  0
 19 18  2  0
 20 19  1  0
 21 20  2  0
 21 22  1  0
 22 23  2  0
 23 18  1  0
 24 25  2  0
 24 16  1  0
 26 24  1  0
 27 26  1  0
 28 27  1  0
 28 29  1  0
 29 30  1  0
 30 26  1  0
 30 31  1  1
 32 31  1  0
 33 31  2  0
M  END
$$$$
