WFP.pdb
     RDKit          3D

 33 36  0  0  1  0  0  0  0  0999 V2000
   10.8937  -16.4271   20.9090 N   0  0  0  0  0  0  0  0  0  0  0  0
   11.5192  -15.1930   21.2650 C   0  0  1  0  0  0  0  0  0  0  0  0
   11.5309  -14.2295   20.1169 C   0  0  0  0  0  0  0  0  0  0  0  0
   11.9536  -14.7801   18.8346 C   0  0  0  0  0  0  0  0  0  0  0  0
   11.1612  -15.1670   17.7877 C   0  0  0  0  0  0  0  0  0  0  0  0
   11.9033  -15.5923   16.7571 N   0  0  0  0  0  0  0  0  0  0  0  0
   13.1914  -15.4862   17.1277 C   0  0  0  0  0  0  0  0  0  0  0  0
   14.3048  -15.8120   16.3843 C   0  0  0  0  0  0  0  0  0  0  0  0
   15.5424  -15.6270   16.9568 C   0  0  0  0  0  0  0  0  0  0  0  0
   15.6468  -15.1237   18.2556 C   0  0  0  0  0  0  0  0  0  0  0  0
   14.5114  -14.8088   18.9693 C   0  0  0  0  0  0  0  0  0  0  0  0
   13.2611  -14.9811   18.4235 C   0  0  0  0  0  0  0  0  0  0  0  0
   10.8061  -14.5951   22.4430 C   0  0  0  0  0  0  0  0  0  0  0  0
   11.0825  -13.4529   22.8384 O   0  0  0  0  0  0  0  0  0  0  0  0
    9.8148  -15.2725   23.1519 N   0  0  0  0  0  0  0  0  0  0  0  0
    9.0435  -14.8109   24.2722 C   0  0  1  0  0  0  0  0  0  0  0  0
    7.5875  -14.8837   24.1655 C   0  0  0  0  0  0  0  0  0  0  0  0
    6.9545  -14.0100   25.2299 C   0  0  0  0  0  0  0  0  0  0  0  0
    7.1243  -12.6492   25.1487 C   0  0  0  0  0  0  0  0  0  0  0  0
    6.5542  -11.8122   26.1151 C   0  0  0  0  0  0  0  0  0  0  0  0
    5.8153  -12.3404   27.1611 C   0  0  0  0  0  0  0  0  0  0  0  0
    5.6535  -13.7086   27.2305 C   0  0  0  0  0  0  0  0  0  0  0  0
    6.2288  -14.5128   26.2590 C   0  0  0  0  0  0  0  0  0  0  0  0
    9.5890  -15.5338   25.4397 C   0  0  0  0  0  0  0  0  0  0  0  0
    9.7367  -16.8094   25.3022 O   0  0  0  0  0  0  0  0  0  0  0  0
    9.9630  -14.9431   26.6962 N   0  0  0  0  0  0  0  0  0  0  0  0
    9.8496  -13.5906   27.1466 C   0  0  0  0  0  0  0  0  0  0  0  0
   10.6825  -13.5233   28.4427 C   0  0  0  0  0  0  0  0  0  0  0  0
   10.4961  -14.9208   28.9807 C   0  0  0  0  0  0  0  0  0  0  0  0
   10.5851  -15.7432   27.7217 C   0  0  1  0  0  0  0  0  0  0  0  0
    9.8704  -17.0381   27.9591 C   0  0  0  0  0  0  0  0  0  0  0  0
    9.1144  -17.2591   29.0690 O   0  0  0  0  0  0  0  0  0  0  0  0
    9.9931  -17.9310   27.0884 O   0  0  0  0  0  0  0  0  0  0  0  0
  2  1  1  6
  2 13  1  0
  2  3  1  0
  4  3  1  0
  4  5  2  0
  6  5  1  0
  7  6  1  0
  8  7  2  0
  9  8  1  0
 10  9  2  0
 10 11  1  0
 11 12  2  0
 12  7  1  0
 12  4  1  0
 13 14  2  0
 15 16  1  0
 15 13  1  0
 16 17  1  6
 18 17  1  0
 19 18  2  0
 20 19  1  0
 21 20  2  0
 21 22  1  0
 22 23  2  0
 23 18  1  0
 24 25  2  0
 24 16  1  0
 26 24  1  0
 27 26  1  0
 28 27  1  0
 28 29  1  0
 29 30  1  0
 30 26  1  0
 30 31  1  1
 32 31  1  0
 33 31  2  0
M  END
$$$$
