WFP.pdb
     RDKit          3D

 33 36  0  0  1  0  0  0  0  0999 V2000
    5.7654  -19.0640   25.2830 N   0  0  0  0  0  0  0  0  0  0  0  0
    6.6972  -18.7989   24.2331 C   0  0  1  0  0  0  0  0  0  0  0  0
    6.3937  -19.6087   23.0089 C   0  0  0  0  0  0  0  0  0  0  0  0
    6.9133  -20.9711   23.0082 C   0  0  0  0  0  0  0  0  0  0  0  0
    6.2327  -22.1267   23.2826 C   0  0  0  0  0  0  0  0  0  0  0  0
    7.0295  -23.1948   23.1488 N   0  0  0  0  0  0  0  0  0  0  0  0
    8.2416  -22.7404   22.7857 C   0  0  0  0  0  0  0  0  0  0  0  0
    9.3740  -23.4852   22.5378 C   0  0  0  0  0  0  0  0  0  0  0  0
   10.5220  -22.8176   22.1771 C   0  0  0  0  0  0  0  0  0  0  0  0
   10.5204  -21.4247   22.0721 C   0  0  0  0  0  0  0  0  0  0  0  0
    9.3691  -20.7126   22.3275 C   0  0  0  0  0  0  0  0  0  0  0  0
    8.2062  -21.3517   22.6881 C   0  0  0  0  0  0  0  0  0  0  0  0
    6.6784  -17.3331   23.9092 C   0  0  0  0  0  0  0  0  0  0  0  0
    5.6061  -16.7377   23.7278 O   0  0  0  0  0  0  0  0  0  0  0  0
    7.8385  -16.5688   23.7905 N   0  0  0  0  0  0  0  0  0  0  0  0
    7.9687  -15.2015   23.3702 C   0  0  1  0  0  0  0  0  0  0  0  0
    8.7829  -14.3148   24.1995 C   0  0  0  0  0  0  0  0  0  0  0  0
    7.9521  -13.7925   25.3545 C   0  0  0  0  0  0  0  0  0  0  0  0
    6.7875  -13.1199   25.0740 C   0  0  0  0  0  0  0  0  0  0  0  0
    5.9959  -12.6232   26.1162 C   0  0  0  0  0  0  0  0  0  0  0  0
    6.3729  -12.8012   27.4373 C   0  0  0  0  0  0  0  0  0  0  0  0
    7.5449  -13.4779   27.7042 C   0  0  0  0  0  0  0  0  0  0  0  0
    8.3084  -13.9594   26.6520 C   0  0  0  0  0  0  0  0  0  0  0  0
    8.4144  -15.2716   21.9632 C   0  0  0  0  0  0  0  0  0  0  0  0
    9.0860  -16.3231   21.6298 O   0  0  0  0  0  0  0  0  0  0  0  0
    8.1656  -14.2811   20.9510 N   0  0  0  0  0  0  0  0  0  0  0  0
    7.4181  -13.0639   21.0193 C   0  0  0  0  0  0  0  0  0  0  0  0
    7.2689  -12.5968   19.5573 C   0  0  0  0  0  0  0  0  0  0  0  0
    8.5540  -13.1101   18.9556 C   0  0  0  0  0  0  0  0  0  0  0  0
    8.6784  -14.4588   19.6152 C   0  0  1  0  0  0  0  0  0  0  0  0
   10.1229  -14.8551   19.5974 C   0  0  0  0  0  0  0  0  0  0  0  0
   10.8861  -14.8746   20.7242 O   0  0  0  0  0  0  0  0  0  0  0  0
   10.6186  -15.1731   18.4912 O   0  0  0  0  0  0  0  0  0  0  0  0
  2  1  1  1
  2 13  1  0
  2  3  1  0
  4  3  1  0
  4  5  2  0
  6  5  1  0
  7  6  1  0
  8  7  2  0
  9  8  1  0
 10  9  2  0
 10 11  1  0
 11 12  2  0
 12  7  1  0
 12  4  1  0
 13 14  2  0
 15 16  1  0
 15 13  1  0
 16 17  1  1
 18 17  1  0
 19 18  2  0
 20 19  1  0
 21 20  2  0
 21 22  1  0
 22 23  2  0
 23 18  1  0
 24 25  2  0
 24 16  1  0
 26 24  1  0
 27 26  1  0
 28 27  1  0
 28 29  1  0
 29 30  1  0
 30 26  1  0
 30 31  1  1
 32 31  1  0
 33 31  2  0
M  END
$$$$
