WFP.pdb
     RDKit          3D

 33 36  0  0  1  0  0  0  0  0999 V2000
    7.4504  -19.0320   21.2710 N   0  0  0  0  0  0  0  0  0  0  0  0
    7.5612  -17.6279   21.5102 C   0  0  1  0  0  0  0  0  0  0  0  0
    6.8349  -16.8321   20.4683 C   0  0  0  0  0  0  0  0  0  0  0  0
    7.6216  -15.8047   19.7961 C   0  0  0  0  0  0  0  0  0  0  0  0
    8.3131  -15.9157   18.6200 C   0  0  0  0  0  0  0  0  0  0  0  0
    8.8897  -14.7522   18.2921 N   0  0  0  0  0  0  0  0  0  0  0  0
    8.5776  -13.8706   19.2580 C   0  0  0  0  0  0  0  0  0  0  0  0
    8.9561  -12.5482   19.3371 C   0  0  0  0  0  0  0  0  0  0  0  0
    8.5260  -11.8152   20.4194 C   0  0  0  0  0  0  0  0  0  0  0  0
    7.7306  -12.4123   21.4001 C   0  0  0  0  0  0  0  0  0  0  0  0
    7.3715  -13.7375   21.2879 C   0  0  0  0  0  0  0  0  0  0  0  0
    7.7843  -14.4951   20.2171 C   0  0  0  0  0  0  0  0  0  0  0  0
    7.0270  -17.3121   22.8771 C   0  0  0  0  0  0  0  0  0  0  0  0
    5.8069  -17.2090   23.0726 O   0  0  0  0  0  0  0  0  0  0  0  0
    7.8501  -17.1153   23.9851 N   0  0  0  0  0  0  0  0  0  0  0  0
    7.8639  -16.0107   24.9032 C   0  0  1  0  0  0  0  0  0  0  0  0
    6.5789  -15.5537   25.4291 C   0  0  0  0  0  0  0  0  0  0  0  0
    6.7635  -14.2319   26.1472 C   0  0  0  0  0  0  0  0  0  0  0  0
    6.0281  -13.1494   25.7293 C   0  0  0  0  0  0  0  0  0  0  0  0
    6.1739  -11.9130   26.3693 C   0  0  0  0  0  0  0  0  0  0  0  0
    7.0563  -11.7637   27.4267 C   0  0  0  0  0  0  0  0  0  0  0  0
    7.7887  -12.8589   27.8354 C   0  0  0  0  0  0  0  0  0  0  0  0
    7.6231  -14.0711   27.1834 C   0  0  0  0  0  0  0  0  0  0  0  0
    8.8311  -16.3939   25.9525 C   0  0  0  0  0  0  0  0  0  0  0  0
    8.7895  -17.6237   26.3444 O   0  0  0  0  0  0  0  0  0  0  0  0
    9.7993  -15.5237   26.5632 N   0  0  0  0  0  0  0  0  0  0  0  0
    9.9857  -14.1129   26.4230 C   0  0  0  0  0  0  0  0  0  0  0  0
   11.3479  -13.8159   27.0820 C   0  0  0  0  0  0  0  0  0  0  0  0
   11.3814  -14.8656   28.1656 C   0  0  0  0  0  0  0  0  0  0  0  0
   10.8041  -16.0580   27.4485 C   0  0  1  0  0  0  0  0  0  0  0  0
   10.2354  -16.9891   28.4750 C   0  0  0  0  0  0  0  0  0  0  0  0
    8.9009  -17.2392   28.5708 O   0  0  0  0  0  0  0  0  0  0  0  0
   11.0411  -17.5410   29.2604 O   0  0  0  0  0  0  0  0  0  0  0  0
  2  1  1  6
  2 13  1  0
  2  3  1  0
  4  3  1  0
  4  5  2  0
  6  5  1  0
  7  6  1  0
  8  7  2  0
  9  8  1  0
 10  9  2  0
 10 11  1  0
 11 12  2  0
 12  7  1  0
 12  4  1  0
 13 14  2  0
 15 16  1  0
 15 13  1  0
 16 17  1  1
 18 17  1  0
 19 18  2  0
 20 19  1  0
 21 20  2  0
 21 22  1  0
 22 23  2  0
 23 18  1  0
 24 25  2  0
 24 16  1  0
 26 24  1  0
 27 26  1  0
 28 27  1  0
 28 29  1  0
 29 30  1  0
 30 26  1  0
 30 31  1  1
 32 31  1  0
 33 31  2  0
M  END
$$$$
