WFP.pdb
     RDKit          3D

 33 36  0  0  1  0  0  0  0  0999 V2000
    4.2515  -18.7080   21.8268 N   0  0  0  0  0  0  0  0  0  0  0  0
    5.5299  -18.0849   21.6919 C   0  0  1  0  0  0  0  0  0  0  0  0
    5.6940  -17.4489   20.3446 C   0  0  0  0  0  0  0  0  0  0  0  0
    6.9745  -16.7928   20.1076 C   0  0  0  0  0  0  0  0  0  0  0  0
    8.1942  -17.3831   19.9136 C   0  0  0  0  0  0  0  0  0  0  0  0
    9.1412  -16.4628   19.6900 N   0  0  0  0  0  0  0  0  0  0  0  0
    8.5424  -15.2600   19.7385 C   0  0  0  0  0  0  0  0  0  0  0  0
    9.1304  -14.0259   19.5667 C   0  0  0  0  0  0  0  0  0  0  0  0
    8.3310  -12.9094   19.6583 C   0  0  0  0  0  0  0  0  0  0  0  0
    6.9655  -13.0434   19.9198 C   0  0  0  0  0  0  0  0  0  0  0  0
    6.4120  -14.2940   20.0860 C   0  0  0  0  0  0  0  0  0  0  0  0
    7.1847  -15.4280   19.9985 C   0  0  0  0  0  0  0  0  0  0  0  0
    5.7027  -17.0629   22.7778 C   0  0  0  0  0  0  0  0  0  0  0  0
    5.0098  -16.0347   22.7967 O   0  0  0  0  0  0  0  0  0  0  0  0
    6.6340  -17.2006   23.8063 N   0  0  0  0  0  0  0  0  0  0  0  0
    7.1623  -16.1862   24.6752 C   0  0  1  0  0  0  0  0  0  0  0  0
    6.6339  -16.1212   26.0367 C   0  0  0  0  0  0  0  0  0  0  0  0
    7.0014  -14.7907   26.6626 C   0  0  0  0  0  0  0  0  0  0  0  0
    6.1364  -13.7340   26.5136 C   0  0  0  0  0  0  0  0  0  0  0  0
    6.4443  -12.4904   27.0779 C   0  0  0  0  0  0  0  0  0  0  0  0
    7.6185  -12.3083   27.7901 C   0  0  0  0  0  0  0  0  0  0  0  0
    8.4780  -13.3779   27.9312 C   0  0  0  0  0  0  0  0  0  0  0  0
    8.1466  -14.5979   27.3622 C   0  0  0  0  0  0  0  0  0  0  0  0
    8.6291  -16.3540   24.6163 C   0  0  0  0  0  0  0  0  0  0  0  0
    9.0946  -17.4664   25.0787 O   0  0  0  0  0  0  0  0  0  0  0  0
    9.5657  -15.3958   24.0946 N   0  0  0  0  0  0  0  0  0  0  0  0
    9.3418  -14.0909   23.5544 C   0  0  0  0  0  0  0  0  0  0  0  0
   10.6784  -13.6880   22.8992 C   0  0  0  0  0  0  0  0  0  0  0  0
   11.6658  -14.3938   23.7958 C   0  0  0  0  0  0  0  0  0  0  0  0
   10.9716  -15.7097   24.0323 C   0  0  1  0  0  0  0  0  0  0  0  0
   11.4929  -16.2885   25.3118 C   0  0  0  0  0  0  0  0  0  0  0  0
   10.7213  -16.4007   26.4274 O   0  0  0  0  0  0  0  0  0  0  0  0
   12.6856  -16.6729   25.3255 O   0  0  0  0  0  0  0  0  0  0  0  0
  2  1  1  6
  2 13  1  0
  2  3  1  0
  4  3  1  0
  4  5  2  0
  6  5  1  0
  7  6  1  0
  8  7  2  0
  9  8  1  0
 10  9  2  0
 10 11  1  0
 11 12  2  0
 12  7  1  0
 12  4  1  0
 13 14  2  0
 15 16  1  0
 15 13  1  0
 16 17  1  1
 18 17  1  0
 19 18  2  0
 20 19  1  0
 21 20  2  0
 21 22  1  0
 22 23  2  0
 23 18  1  0
 24 25  2  0
 24 16  1  0
 26 24  1  0
 27 26  1  0
 28 27  1  0
 28 29  1  0
 29 30  1  0
 30 26  1  0
 30 31  1  1
 32 31  1  0
 33 31  2  0
M  END
$$$$
