WFP.pdb
     RDKit          3D

 33 36  0  0  1  0  0  0  0  0999 V2000
   10.6064  -18.3798   21.6846 N   0  0  0  0  0  0  0  0  0  0  0  0
   10.2701  -17.0626   21.2456 C   0  0  1  0  0  0  0  0  0  0  0  0
    9.0047  -17.0555   20.4423 C   0  0  0  0  0  0  0  0  0  0  0  0
    8.8545  -15.9441   19.5103 C   0  0  0  0  0  0  0  0  0  0  0  0
    9.1565  -15.9246   18.1753 C   0  0  0  0  0  0  0  0  0  0  0  0
    8.8525  -14.7383   17.6330 N   0  0  0  0  0  0  0  0  0  0  0  0
    8.3489  -13.9720   18.6163 C   0  0  0  0  0  0  0  0  0  0  0  0
    7.9031  -12.6720   18.5180 C   0  0  0  0  0  0  0  0  0  0  0  0
    7.4228  -12.0644   19.6555 C   0  0  0  0  0  0  0  0  0  0  0  0
    7.3973  -12.7610   20.8659 C   0  0  0  0  0  0  0  0  0  0  0  0
    7.8514  -14.0603   20.9266 C   0  0  0  0  0  0  0  0  0  0  0  0
    8.3353  -14.6946   19.8066 C   0  0  0  0  0  0  0  0  0  0  0  0
   10.1388  -16.1590   22.4371 C   0  0  0  0  0  0  0  0  0  0  0  0
   10.8636  -15.1602   22.5582 O   0  0  0  0  0  0  0  0  0  0  0  0
    9.2184  -16.3834   23.4601 N   0  0  0  0  0  0  0  0  0  0  0  0
    8.7868  -15.4781   24.4884 C   0  0  1  0  0  0  0  0  0  0  0  0
    7.3629  -15.1528   24.5475 C   0  0  0  0  0  0  0  0  0  0  0  0
    7.1329  -14.0565   25.5683 C   0  0  0  0  0  0  0  0  0  0  0  0
    6.5154  -14.3805   26.7519 C   0  0  0  0  0  0  0  0  0  0  0  0
    6.2864  -13.3927   27.7170 C   0  0  0  0  0  0  0  0  0  0  0  0
    6.6762  -12.0823   27.4941 C   0  0  0  0  0  0  0  0  0  0  0  0
    7.2945  -11.7710   26.3009 C   0  0  0  0  0  0  0  0  0  0  0  0
    7.5091  -12.7700   25.3639 C   0  0  0  0  0  0  0  0  0  0  0  0
    9.3185  -16.0420   25.7464 C   0  0  0  0  0  0  0  0  0  0  0  0
    9.2522  -17.3260   25.8683 O   0  0  0  0  0  0  0  0  0  0  0  0
    9.8945  -15.2906   26.8285 N   0  0  0  0  0  0  0  0  0  0  0  0
    9.9778  -13.8765   27.0243 C   0  0  0  0  0  0  0  0  0  0  0  0
   10.9560  -13.6867   28.2012 C   0  0  0  0  0  0  0  0  0  0  0  0
   10.6849  -14.9326   29.0082 C   0  0  0  0  0  0  0  0  0  0  0  0
   10.5413  -15.9688   27.9242 C   0  0  1  0  0  0  0  0  0  0  0  0
    9.7249  -17.1014   28.4670 C   0  0  0  0  0  0  0  0  0  0  0  0
   10.1806  -17.9186   29.4554 O   0  0  0  0  0  0  0  0  0  0  0  0
    8.5870  -17.2790   27.9728 O   0  0  0  0  0  0  0  0  0  0  0  0
  2  1  1  1
  2 13  1  0
  2  3  1  0
  4  3  1  0
  4  5  2  0
  6  5  1  0
  7  6  1  0
  8  7  2  0
  9  8  1  0
 10  9  2  0
 10 11  1  0
 11 12  2  0
 12  7  1  0
 12  4  1  0
 13 14  2  0
 15 16  1  0
 15 13  1  0
 16 17  1  1
 18 17  1  0
 19 18  2  0
 20 19  1  0
 21 20  2  0
 21 22  1  0
 22 23  2  0
 23 18  1  0
 24 25  2  0
 24 16  1  0
 26 24  1  0
 27 26  1  0
 28 27  1  0
 28 29  1  0
 29 30  1  0
 30 26  1  0
 30 31  1  1
 32 31  1  0
 33 31  2  0
M  END
$$$$
