WFP.pdb
     RDKit          3D

 33 36  0  0  1  0  0  0  0  0999 V2000
    8.7796  -16.0689   20.8805 N   0  0  0  0  0  0  0  0  0  0  0  0
    9.7080  -15.0138   21.1367 C   0  0  1  0  0  0  0  0  0  0  0  0
    9.4071  -13.8014   20.3085 C   0  0  0  0  0  0  0  0  0  0  0  0
    9.1704  -14.0476   18.8909 C   0  0  0  0  0  0  0  0  0  0  0  0
    8.0217  -13.8199   18.1821 C   0  0  0  0  0  0  0  0  0  0  0  0
    8.1858  -14.1343   16.8907 N   0  0  0  0  0  0  0  0  0  0  0  0
    9.4488  -14.5727   16.7482 C   0  0  0  0  0  0  0  0  0  0  0  0
   10.0579  -15.0058   15.5908 C   0  0  0  0  0  0  0  0  0  0  0  0
   11.3690  -15.4177   15.6641 C   0  0  0  0  0  0  0  0  0  0  0  0
   12.0456  -15.3915   16.8858 C   0  0  0  0  0  0  0  0  0  0  0  0
   11.4043  -14.9519   18.0230 C   0  0  0  0  0  0  0  0  0  0  0  0
   10.0954  -14.5325   17.9809 C   0  0  0  0  0  0  0  0  0  0  0  0
    9.6801  -14.6700   22.5977 C   0  0  0  0  0  0  0  0  0  0  0  0
   10.2572  -13.6578   23.0219 O   0  0  0  0  0  0  0  0  0  0  0  0
    9.0227  -15.4512   23.5472 N   0  0  0  0  0  0  0  0  0  0  0  0
    8.6363  -15.0960   24.8843 C   0  0  1  0  0  0  0  0  0  0  0  0
    7.2217  -15.2158   25.2326 C   0  0  0  0  0  0  0  0  0  0  0  0
    6.7312  -13.9106   25.8268 C   0  0  0  0  0  0  0  0  0  0  0  0
    6.3407  -13.8945   27.1437 C   0  0  0  0  0  0  0  0  0  0  0  0
    5.8817  -12.7066   27.7249 C   0  0  0  0  0  0  0  0  0  0  0  0
    5.8146  -11.5373   26.9852 C   0  0  0  0  0  0  0  0  0  0  0  0
    6.2093  -11.5682   25.6637 C   0  0  0  0  0  0  0  0  0  0  0  0
    6.6603  -12.7587   25.1151 C   0  0  0  0  0  0  0  0  0  0  0  0
    9.5313  -15.8759   25.7640 C   0  0  0  0  0  0  0  0  0  0  0  0
    9.7635  -17.0945   25.4048 O   0  0  0  0  0  0  0  0  0  0  0  0
   10.1549  -15.3970   26.9679 N   0  0  0  0  0  0  0  0  0  0  0  0
   10.1902  -14.0802   27.5243 C   0  0  0  0  0  0  0  0  0  0  0  0
   11.2466  -14.1417   28.6460 C   0  0  0  0  0  0  0  0  0  0  0  0
   11.0940  -15.5692   29.1108 C   0  0  0  0  0  0  0  0  0  0  0  0
   10.9136  -16.2947   27.8030 C   0  0  1  0  0  0  0  0  0  0  0  0
   10.1924  -17.5787   28.0776 C   0  0  0  0  0  0  0  0  0  0  0  0
   10.7395  -18.5747   28.8268 O   0  0  0  0  0  0  0  0  0  0  0  0
    9.0476  -17.7121   27.5857 O   0  0  0  0  0  0  0  0  0  0  0  0
  2  1  1  1
  2 13  1  0
  2  3  1  0
  4  3  1  0
  4  5  2  0
  6  5  1  0
  7  6  1  0
  8  7  2  0
  9  8  1  0
 10  9  2  0
 10 11  1  0
 11 12  2  0
 12  7  1  0
 12  4  1  0
 13 14  2  0
 15 16  1  0
 15 13  1  0
 16 17  1  1
 18 17  1  0
 19 18  2  0
 20 19  1  0
 21 20  2  0
 21 22  1  0
 22 23  2  0
 23 18  1  0
 24 25  2  0
 24 16  1  0
 26 24  1  0
 27 26  1  0
 28 27  1  0
 28 29  1  0
 29 30  1  0
 30 26  1  0
 30 31  1  1
 32 31  1  0
 33 31  2  0
M  END
$$$$
