WFP.pdb
     RDKit          3D

 33 36  0  0  1  0  0  0  0  0999 V2000
    6.7295  -18.7052   22.0657 N   0  0  0  0  0  0  0  0  0  0  0  0
    7.4823  -17.6429   21.4779 C   0  0  1  0  0  0  0  0  0  0  0  0
    6.6192  -16.7596   20.6287 C   0  0  0  0  0  0  0  0  0  0  0  0
    7.3016  -15.6483   19.9762 C   0  0  0  0  0  0  0  0  0  0  0  0
    7.8027  -15.6051   18.7031 C   0  0  0  0  0  0  0  0  0  0  0  0
    8.3318  -14.4038   18.4375 N   0  0  0  0  0  0  0  0  0  0  0  0
    8.1797  -13.6522   19.5418 C   0  0  0  0  0  0  0  0  0  0  0  0
    8.5771  -12.3458   19.7254 C   0  0  0  0  0  0  0  0  0  0  0  0
    8.3252  -11.7573   20.9436 C   0  0  0  0  0  0  0  0  0  0  0  0
    7.6853  -12.4800   21.9532 C   0  0  0  0  0  0  0  0  0  0  0  0
    7.3019  -13.7849   21.7338 C   0  0  0  0  0  0  0  0  0  0  0  0
    7.5384  -14.3993   20.5266 C   0  0  0  0  0  0  0  0  0  0  0  0
    8.1439  -16.8424   22.5620 C   0  0  0  0  0  0  0  0  0  0  0  0
    8.9156  -15.9130   22.2826 O   0  0  0  0  0  0  0  0  0  0  0  0
    7.9400  -17.0910   23.9187 N   0  0  0  0  0  0  0  0  0  0  0  0
    8.5314  -16.4281   25.0475 C   0  0  1  0  0  0  0  0  0  0  0  0
    7.6426  -16.0258   26.1361 C   0  0  0  0  0  0  0  0  0  0  0  0
    8.3837  -15.1049   27.0846 C   0  0  0  0  0  0  0  0  0  0  0  0
    8.4493  -13.7663   26.7827 C   0  0  0  0  0  0  0  0  0  0  0  0
    9.1262  -12.8871   27.6361 C   0  0  0  0  0  0  0  0  0  0  0  0
    9.7362  -13.3509   28.7901 C   0  0  0  0  0  0  0  0  0  0  0  0
    9.6630  -14.6975   29.0805 C   0  0  0  0  0  0  0  0  0  0  0  0
    8.9852  -15.5446   28.2174 C   0  0  0  0  0  0  0  0  0  0  0  0
    9.6343  -17.3116   25.4788 C   0  0  0  0  0  0  0  0  0  0  0  0
    9.2890  -18.4444   25.9941 O   0  0  0  0  0  0  0  0  0  0  0  0
   11.0381  -17.0184   25.3735 N   0  0  0  0  0  0  0  0  0  0  0  0
   11.6989  -15.8401   24.9047 C   0  0  0  0  0  0  0  0  0  0  0  0
   13.1812  -16.2382   24.7553 C   0  0  0  0  0  0  0  0  0  0  0  0
   13.3208  -17.2578   25.8590 C   0  0  0  0  0  0  0  0  0  0  0  0
   12.0195  -18.0078   25.7432 C   0  0  1  0  0  0  0  0  0  0  0  0
   11.7291  -18.6449   27.0675 C   0  0  0  0  0  0  0  0  0  0  0  0
   12.5382  -19.5948   27.6111 O   0  0  0  0  0  0  0  0  0  0  0  0
   10.6969  -18.2708   27.6718 O   0  0  0  0  0  0  0  0  0  0  0  0
  2  1  1  1
  2 13  1  0
  2  3  1  0
  4  3  1  0
  4  5  2  0
  6  5  1  0
  7  6  1  0
  8  7  2  0
  9  8  1  0
 10  9  2  0
 10 11  1  0
 11 12  2  0
 12  7  1  0
 12  4  1  0
 13 14  2  0
 15 16  1  0
 15 13  1  0
 16 17  1  1
 18 17  1  0
 19 18  2  0
 20 19  1  0
 21 20  2  0
 21 22  1  0
 22 23  2  0
 23 18  1  0
 24 25  2  0
 24 16  1  0
 26 24  1  0
 27 26  1  0
 28 27  1  0
 28 29  1  0
 29 30  1  0
 30 26  1  0
 30 31  1  1
 32 31  1  0
 33 31  2  0
M  END
$$$$
