WFP.pdb
     RDKit          3D

 33 36  0  0  1  0  0  0  0  0999 V2000
    8.4073  -18.5846   21.9439 N   0  0  0  0  0  0  0  0  0  0  0  0
    8.6269  -17.2799   21.4050 C   0  0  1  0  0  0  0  0  0  0  0  0
    7.5968  -16.9285   20.3744 C   0  0  0  0  0  0  0  0  0  0  0  0
    7.9885  -15.9038   19.4138 C   0  0  0  0  0  0  0  0  0  0  0  0
    8.4288  -16.0840   18.1303 C   0  0  0  0  0  0  0  0  0  0  0  0
    8.6621  -14.9075   17.5346 N   0  0  0  0  0  0  0  0  0  0  0  0
    8.3754  -13.9472   18.4308 C   0  0  0  0  0  0  0  0  0  0  0  0
    8.4699  -12.5840   18.2546 C   0  0  0  0  0  0  0  0  0  0  0  0
    8.1265  -11.7694   19.3093 C   0  0  0  0  0  0  0  0  0  0  0  0
    7.6981  -12.3269   20.5162 C   0  0  0  0  0  0  0  0  0  0  0  0
    7.6160  -13.6949   20.6562 C   0  0  0  0  0  0  0  0  0  0  0  0
    7.9505  -14.5345   19.6198 C   0  0  0  0  0  0  0  0  0  0  0  0
    8.6178  -16.2733   22.5186 C   0  0  0  0  0  0  0  0  0  0  0  0
    9.0271  -15.1178   22.3320 O   0  0  0  0  0  0  0  0  0  0  0  0
    8.1633  -16.5690   23.8031 N   0  0  0  0  0  0  0  0  0  0  0  0
    8.0829  -15.7007   24.9446 C   0  0  1  0  0  0  0  0  0  0  0  0
    6.7655  -15.4919   25.5426 C   0  0  0  0  0  0  0  0  0  0  0  0
    6.7151  -14.1271   26.1998 C   0  0  0  0  0  0  0  0  0  0  0  0
    7.1516  -14.0065   27.4968 C   0  0  0  0  0  0  0  0  0  0  0  0
    7.1185  -12.7611   28.1351 C   0  0  0  0  0  0  0  0  0  0  0  0
    6.6479  -11.6392   27.4727 C   0  0  0  0  0  0  0  0  0  0  0  0
    6.2121  -11.7751   26.1709 C   0  0  0  0  0  0  0  0  0  0  0  0
    6.2573  -13.0206   25.5639 C   0  0  0  0  0  0  0  0  0  0  0  0
    9.0894  -16.2187   25.8943 C   0  0  0  0  0  0  0  0  0  0  0  0
    9.2400  -17.5010   25.9222 O   0  0  0  0  0  0  0  0  0  0  0  0
    9.9019  -15.4247   26.7759 N   0  0  0  0  0  0  0  0  0  0  0  0
   10.0165  -14.0040   26.8909 C   0  0  0  0  0  0  0  0  0  0  0  0
   11.2475  -13.7675   27.7892 C   0  0  0  0  0  0  0  0  0  0  0  0
   11.1905  -14.9803   28.6853 C   0  0  0  0  0  0  0  0  0  0  0  0
   10.7999  -16.0589   27.7088 C   0  0  1  0  0  0  0  0  0  0  0  0
   10.1489  -17.1688   28.4758 C   0  0  0  0  0  0  0  0  0  0  0  0
    8.8331  -17.4828   28.3259 O   0  0  0  0  0  0  0  0  0  0  0  0
   10.8662  -17.8119   29.2774 O   0  0  0  0  0  0  0  0  0  0  0  0
  2  1  1  1
  2 13  1  0
  2  3  1  0
  4  3  1  0
  4  5  2  0
  6  5  1  0
  7  6  1  0
  8  7  2  0
  9  8  1  0
 10  9  2  0
 10 11  1  0
 11 12  2  0
 12  7  1  0
 12  4  1  0
 13 14  2  0
 15 16  1  0
 15 13  1  0
 16 17  1  1
 18 17  1  0
 19 18  2  0
 20 19  1  0
 21 20  2  0
 21 22  1  0
 22 23  2  0
 23 18  1  0
 24 25  2  0
 24 16  1  0
 26 24  1  0
 27 26  1  0
 28 27  1  0
 28 29  1  0
 29 30  1  0
 30 26  1  0
 30 31  1  1
 32 31  1  0
 33 31  2  0
M  END
$$$$
