WFP.pdb
     RDKit          3D

 33 36  0  0  1  0  0  0  0  0999 V2000
    7.5225  -18.6984   21.9265 N   0  0  0  0  0  0  0  0  0  0  0  0
    8.0398  -17.4596   21.4380 C   0  0  1  0  0  0  0  0  0  0  0  0
    7.2520  -16.9569   20.2661 C   0  0  0  0  0  0  0  0  0  0  0  0
    7.8753  -15.8845   19.4994 C   0  0  0  0  0  0  0  0  0  0  0  0
    8.4045  -15.9551   18.2389 C   0  0  0  0  0  0  0  0  0  0  0  0
    8.8590  -14.7592   17.8430 N   0  0  0  0  0  0  0  0  0  0  0  0
    8.6293  -13.8966   18.8484 C   0  0  0  0  0  0  0  0  0  0  0  0
    8.9342  -12.5534   18.8838 C   0  0  0  0  0  0  0  0  0  0  0  0
    8.6128  -11.8462   20.0197 C   0  0  0  0  0  0  0  0  0  0  0  0
    7.9970  -12.4891   21.0960 C   0  0  0  0  0  0  0  0  0  0  0  0
    7.7070  -13.8340   21.0252 C   0  0  0  0  0  0  0  0  0  0  0  0
    8.0144  -14.5667   19.9029 C   0  0  0  0  0  0  0  0  0  0  0  0
    8.0344  -16.4464   22.5457 C   0  0  0  0  0  0  0  0  0  0  0  0
    8.3155  -15.2599   22.3209 O   0  0  0  0  0  0  0  0  0  0  0  0
    7.7246  -16.7696   23.8662 N   0  0  0  0  0  0  0  0  0  0  0  0
    7.8538  -15.9522   25.0402 C   0  0  1  0  0  0  0  0  0  0  0  0
    6.6353  -15.6469   25.7879 C   0  0  0  0  0  0  0  0  0  0  0  0
    6.6734  -14.2064   26.2574 C   0  0  0  0  0  0  0  0  0  0  0  0
    5.8931  -13.2826   25.6056 C   0  0  0  0  0  0  0  0  0  0  0  0
    5.9041  -11.9432   26.0122 C   0  0  0  0  0  0  0  0  0  0  0  0
    6.6971  -11.5321   27.0710 C   0  0  0  0  0  0  0  0  0  0  0  0
    7.4761  -12.4703   27.7160 C   0  0  0  0  0  0  0  0  0  0  0  0
    7.4443  -13.7898   27.2920 C   0  0  0  0  0  0  0  0  0  0  0  0
    8.8992  -16.6077   25.8530 C   0  0  0  0  0  0  0  0  0  0  0  0
    8.8579  -17.8976   25.9020 O   0  0  0  0  0  0  0  0  0  0  0  0
    9.9420  -15.9381   26.5822 N   0  0  0  0  0  0  0  0  0  0  0  0
   10.1577  -14.5422   26.8055 C   0  0  0  0  0  0  0  0  0  0  0  0
   11.5798  -14.4401   27.3929 C   0  0  0  0  0  0  0  0  0  0  0  0
   11.6752  -15.7414   28.1509 C   0  0  0  0  0  0  0  0  0  0  0  0
   11.0029  -16.6954   27.1985 C   0  0  1  0  0  0  0  0  0  0  0  0
   10.4972  -17.8636   27.9881 C   0  0  0  0  0  0  0  0  0  0  0  0
    9.1723  -18.0593   28.2306 O   0  0  0  0  0  0  0  0  0  0  0  0
   11.3478  -18.6713   28.4293 O   0  0  0  0  0  0  0  0  0  0  0  0
  2  1  1  1
  2 13  1  0
  2  3  1  0
  4  3  1  0
  4  5  2  0
  6  5  1  0
  7  6  1  0
  8  7  2  0
  9  8  1  0
 10  9  2  0
 10 11  1  0
 11 12  2  0
 12  7  1  0
 12  4  1  0
 13 14  2  0
 15 16  1  0
 15 13  1  0
 16 17  1  1
 18 17  1  0
 19 18  2  0
 20 19  1  0
 21 20  2  0
 21 22  1  0
 22 23  2  0
 23 18  1  0
 24 25  2  0
 24 16  1  0
 26 24  1  0
 27 26  1  0
 28 27  1  0
 28 29  1  0
 29 30  1  0
 30 26  1  0
 30 31  1  1
 32 31  1  0
 33 31  2  0
M  END
$$$$
