WFP.pdb
     RDKit          3D

 33 36  0  0  1  0  0  0  0  0999 V2000
    9.9427  -18.6936   22.0318 N   0  0  0  0  0  0  0  0  0  0  0  0
   10.0949  -17.4038   21.4369 C   0  0  1  0  0  0  0  0  0  0  0  0
    9.1723  -17.2224   20.2697 C   0  0  0  0  0  0  0  0  0  0  0  0
    9.2473  -15.9291   19.6004 C   0  0  0  0  0  0  0  0  0  0  0  0
   10.0807  -15.5626   18.5783 C   0  0  0  0  0  0  0  0  0  0  0  0
    9.8403  -14.3027   18.1929 N   0  0  0  0  0  0  0  0  0  0  0  0
    8.8442  -13.8364   18.9661 C   0  0  0  0  0  0  0  0  0  0  0  0
    8.2694  -12.5849   18.9247 C   0  0  0  0  0  0  0  0  0  0  0  0
    7.2553  -12.3084   19.8128 C   0  0  0  0  0  0  0  0  0  0  0  0
    6.8354  -13.2806   20.7236 C   0  0  0  0  0  0  0  0  0  0  0  0
    7.4334  -14.5216   20.7362 C   0  0  0  0  0  0  0  0  0  0  0  0
    8.4478  -14.8280   19.8599 C   0  0  0  0  0  0  0  0  0  0  0  0
    9.8442  -16.3455   22.4718 C   0  0  0  0  0  0  0  0  0  0  0  0
   10.5181  -15.3049   22.4905 O   0  0  0  0  0  0  0  0  0  0  0  0
    8.8638  -16.4658   23.4559 N   0  0  0  0  0  0  0  0  0  0  0  0
    8.5291  -15.5399   24.5018 C   0  0  1  0  0  0  0  0  0  0  0  0
    7.1138  -15.2392   24.7099 C   0  0  0  0  0  0  0  0  0  0  0  0
    6.9738  -14.1331   25.7366 C   0  0  0  0  0  0  0  0  0  0  0  0
    7.1580  -12.8336   25.3308 C   0  0  0  0  0  0  0  0  0  0  0  0
    7.0370  -11.7870   26.2526 C   0  0  0  0  0  0  0  0  0  0  0  0
    6.7320  -12.0447   27.5790 C   0  0  0  0  0  0  0  0  0  0  0  0
    6.5504  -13.3543   27.9727 C   0  0  0  0  0  0  0  0  0  0  0  0
    6.6756  -14.3702   27.0378 C   0  0  0  0  0  0  0  0  0  0  0  0
    9.2083  -16.0583   25.7073 C   0  0  0  0  0  0  0  0  0  0  0  0
    9.1320  -17.3329   25.9007 O   0  0  0  0  0  0  0  0  0  0  0  0
    9.9355  -15.2727   26.6672 N   0  0  0  0  0  0  0  0  0  0  0  0
   10.2091  -13.8693   26.6891 C   0  0  0  0  0  0  0  0  0  0  0  0
   11.2685  -13.6794   27.7935 C   0  0  0  0  0  0  0  0  0  0  0  0
   10.8872  -14.7791   28.7539 C   0  0  0  0  0  0  0  0  0  0  0  0
   10.5518  -15.9028   27.8083 C   0  0  1  0  0  0  0  0  0  0  0  0
    9.6299  -16.8481   28.5158 C   0  0  0  0  0  0  0  0  0  0  0  0
    8.3225  -16.9888   28.1649 O   0  0  0  0  0  0  0  0  0  0  0  0
   10.1076  -17.5182   29.4609 O   0  0  0  0  0  0  0  0  0  0  0  0
  2  1  1  1
  2 13  1  0
  2  3  1  0
  4  3  1  0
  4  5  2  0
  6  5  1  0
  7  6  1  0
  8  7  2  0
  9  8  1  0
 10  9  2  0
 10 11  1  0
 11 12  2  0
 12  7  1  0
 12  4  1  0
 13 14  2  0
 15 16  1  0
 15 13  1  0
 16 17  1  1
 18 17  1  0
 19 18  2  0
 20 19  1  0
 21 20  2  0
 21 22  1  0
 22 23  2  0
 23 18  1  0
 24 25  2  0
 24 16  1  0
 26 24  1  0
 27 26  1  0
 28 27  1  0
 28 29  1  0
 29 30  1  0
 30 26  1  0
 30 31  1  1
 32 31  1  0
 33 31  2  0
M  END
$$$$
