WFP.pdb
     RDKit          3D

 33 36  0  0  1  0  0  0  0  0999 V2000
    4.9683  -20.5973   23.2934 N   0  0  0  0  0  0  0  0  0  0  0  0
    6.1625  -19.8422   23.0824 C   0  0  1  0  0  0  0  0  0  0  0  0
    6.5836  -19.8670   21.6441 C   0  0  0  0  0  0  0  0  0  0  0  0
    7.0751  -21.1486   21.1519 C   0  0  0  0  0  0  0  0  0  0  0  0
    6.3698  -22.1174   20.4904 C   0  0  0  0  0  0  0  0  0  0  0  0
    7.1621  -23.1456   20.1609 N   0  0  0  0  0  0  0  0  0  0  0  0
    8.3955  -22.8532   20.6089 C   0  0  0  0  0  0  0  0  0  0  0  0
    9.5313  -23.6248   20.4947 C   0  0  0  0  0  0  0  0  0  0  0  0
   10.7021  -23.1367   21.0284 C   0  0  0  0  0  0  0  0  0  0  0  0
   10.7186  -21.8935   21.6650 C   0  0  0  0  0  0  0  0  0  0  0  0
    9.5632  -21.1493   21.7605 C   0  0  0  0  0  0  0  0  0  0  0  0
    8.3786  -21.6096   21.2354 C   0  0  0  0  0  0  0  0  0  0  0  0
    5.9454  -18.4290   23.5400 C   0  0  0  0  0  0  0  0  0  0  0  0
    5.1642  -17.6798   22.9353 O   0  0  0  0  0  0  0  0  0  0  0  0
    6.5967  -17.8823   24.6450 N   0  0  0  0  0  0  0  0  0  0  0  0
    6.8644  -16.5004   24.9311 C   0  0  1  0  0  0  0  0  0  0  0  0
    7.1254  -16.1373   26.3229 C   0  0  0  0  0  0  0  0  0  0  0  0
    7.0969  -14.6291   26.4696 C   0  0  0  0  0  0  0  0  0  0  0  0
    5.8807  -14.0062   26.6117 C   0  0  0  0  0  0  0  0  0  0  0  0
    5.8172  -12.6145   26.7489 C   0  0  0  0  0  0  0  0  0  0  0  0
    6.9722  -11.8498   26.7432 C   0  0  0  0  0  0  0  0  0  0  0  0
    8.1864  -12.4885   26.5991 C   0  0  0  0  0  0  0  0  0  0  0  0
    8.2190  -13.8680   26.4660 C   0  0  0  0  0  0  0  0  0  0  0  0
    7.9510  -16.1188   24.0055 C   0  0  0  0  0  0  0  0  0  0  0  0
    9.0180  -16.8451   24.0486 O   0  0  0  0  0  0  0  0  0  0  0  0
    7.9184  -15.0226   23.0754 N   0  0  0  0  0  0  0  0  0  0  0  0
    6.9332  -14.0030   22.8898 C   0  0  0  0  0  0  0  0  0  0  0  0
    7.3117  -13.3091   21.5657 C   0  0  0  0  0  0  0  0  0  0  0  0
    8.8141  -13.4494   21.5834 C   0  0  0  0  0  0  0  0  0  0  0  0
    8.9802  -14.8488   22.1157 C   0  0  1  0  0  0  0  0  0  0  0  0
   10.3413  -14.9546   22.7323 C   0  0  0  0  0  0  0  0  0  0  0  0
   11.4812  -14.9221   21.9895 O   0  0  0  0  0  0  0  0  0  0  0  0
   10.4004  -15.0782   23.9780 O   0  0  0  0  0  0  0  0  0  0  0  0
  2  1  1  6
  2 13  1  0
  2  3  1  0
  4  3  1  0
  4  5  2  0
  6  5  1  0
  7  6  1  0
  8  7  2  0
  9  8  1  0
 10  9  2  0
 10 11  1  0
 11 12  2  0
 12  7  1  0
 12  4  1  0
 13 14  2  0
 15 16  1  0
 15 13  1  0
 16 17  1  1
 18 17  1  0
 19 18  2  0
 20 19  1  0
 21 20  2  0
 21 22  1  0
 22 23  2  0
 23 18  1  0
 24 25  2  0
 24 16  1  0
 26 24  1  0
 27 26  1  0
 28 27  1  0
 28 29  1  0
 29 30  1  0
 30 26  1  0
 30 31  1  1
 32 31  1  0
 33 31  2  0
M  END
$$$$
