HSM.pdb
     RDKit          3D

 25 25  0  0  1  0  0  0  0  0999 V2000
   26.0383  -19.0613  -15.8920 N   0  0  0  0  0  0  0  0  0  0  0  0
   27.0080  -18.9526  -14.8463 C   0  0  1  0  0  0  0  0  0  0  0  0
   27.8697  -17.7346  -15.0976 C   0  0  0  0  0  0  0  0  0  0  0  0
   28.5284  -17.8538  -16.4154 C   0  0  0  0  0  0  0  0  0  0  0  0
   29.5014  -18.7348  -16.8295 C   0  0  0  0  0  0  0  0  0  0  0  0
   29.8164  -18.4899  -18.1208 N   0  0  0  0  0  0  0  0  0  0  0  0
   29.0417  -17.4543  -18.5207 C   0  0  0  0  0  0  0  0  0  0  0  0
   28.2653  -17.0787  -17.4755 N   0  0  0  0  0  0  0  0  0  0  0  0
   26.3977  -18.9241  -13.4919 C   0  0  0  0  0  0  0  0  0  0  0  0
   26.2298  -17.8279  -12.8966 O   0  0  0  0  0  0  0  0  0  0  0  0
   24.0627  -22.0561  -11.8827 O   0  0  0  0  0  0  0  0  0  0  0  0
   23.9889  -20.7365  -11.5121 C   0  0  0  0  0  0  0  0  0  0  0  0
   25.3534  -20.0475  -11.4984 C   0  0  2  0  0  0  0  0  0  0  0  0
   25.9765  -20.0950  -12.8011 N   0  0  0  0  0  0  0  0  0  0  0  0
   26.2065  -20.5532  -10.4189 C   0  0  0  0  0  0  0  0  0  0  0  0
   26.9784  -21.5395  -10.5211 O   0  0  0  0  0  0  0  0  0  0  0  0
   29.4323  -19.6273   -3.2816 C   0  0  0  0  0  0  0  0  0  0  0  0
   28.7277  -18.8906   -4.7818 S   0  0  0  0  0  0  0  0  0  0  0  0
   27.8154  -20.0688   -5.7761 C   0  0  0  0  0  0  0  0  0  0  0  0
   27.3608  -19.5661   -7.1033 C   0  0  0  0  0  0  0  0  0  0  0  0
   26.5812  -20.5693   -7.9208 C   0  0  2  0  0  0  0  0  0  0  0  0
   26.1778  -19.9003   -9.1577 N   0  0  0  0  0  0  0  0  0  0  0  0
   25.4163  -21.0670   -7.1775 C   0  0  0  0  0  0  0  0  0  0  0  0
   24.2629  -20.6078   -7.4500 O   0  0  0  0  0  0  0  0  0  0  0  0
   25.5177  -22.0149   -6.1945 O   0  0  0  0  0  0  0  0  0  0  0  0
  2  1  1  6
  3  4  1  0
  3  2  1  0
  4  5  2  0
  6  5  1  0
  7  6  1  0
  8  7  2  0
  8  4  1  0
  9 10  2  0
  9  2  1  0
 11 12  1  0
 13 12  1  6
 13 14  1  0
 13 15  1  0
 14  9  1  0
 15 22  1  0
 16 15  2  0
 18 17  1  0
 19 18  1  0
 20 19  1  0
 21 20  1  1
 21 23  1  0
 22 21  1  0
 23 24  2  0
 23 25  1  0
M  END
$$$$
