HSM.pdb
     RDKit          3D

 25 25  0  0  1  0  0  0  0  0999 V2000
   25.9447  -20.9637  -16.6054 N   0  0  0  0  0  0  0  0  0  0  0  0
   26.7330  -21.0209  -15.4133 C   0  0  1  0  0  0  0  0  0  0  0  0
   28.0791  -20.3842  -15.6813 C   0  0  0  0  0  0  0  0  0  0  0  0
   28.8252  -21.1931  -16.6680 C   0  0  0  0  0  0  0  0  0  0  0  0
   29.5600  -22.3417  -16.4797 C   0  0  0  0  0  0  0  0  0  0  0  0
   30.0746  -22.7506  -17.6606 N   0  0  0  0  0  0  0  0  0  0  0  0
   29.6642  -21.8596  -18.5935 C   0  0  0  0  0  0  0  0  0  0  0  0
   28.9069  -20.9202  -17.9767 N   0  0  0  0  0  0  0  0  0  0  0  0
   26.0569  -20.4048  -14.2425 C   0  0  0  0  0  0  0  0  0  0  0  0
   25.4512  -19.3085  -14.3663 O   0  0  0  0  0  0  0  0  0  0  0  0
   22.9530  -20.2008  -11.1381 O   0  0  0  0  0  0  0  0  0  0  0  0
   23.7523  -20.5863  -12.1854 C   0  0  0  0  0  0  0  0  0  0  0  0
   25.2430  -20.4800  -11.8637 C   0  0  2  0  0  0  0  0  0  0  0  0
   26.0497  -20.9936  -12.9468 N   0  0  0  0  0  0  0  0  0  0  0  0
   25.5610  -21.0716  -10.5608 C   0  0  0  0  0  0  0  0  0  0  0  0
   25.6684  -22.3045  -10.3432 O   0  0  0  0  0  0  0  0  0  0  0  0
   29.8576  -18.9023   -5.9862 C   0  0  0  0  0  0  0  0  0  0  0  0
   28.2901  -19.0708   -5.0894 S   0  0  0  0  0  0  0  0  0  0  0  0
   27.1103  -20.1197   -5.9363 C   0  0  0  0  0  0  0  0  0  0  0  0
   26.8478  -19.7641   -7.3596 C   0  0  0  0  0  0  0  0  0  0  0  0
   25.9327  -20.7213   -8.0869 C   0  0  2  0  0  0  0  0  0  0  0  0
   25.7676  -20.2126   -9.4485 N   0  0  0  0  0  0  0  0  0  0  0  0
   24.6398  -20.8422   -7.4006 C   0  0  0  0  0  0  0  0  0  0  0  0
   23.6489  -20.1646   -7.8182 O   0  0  0  0  0  0  0  0  0  0  0  0
   24.4513  -21.6623   -6.3203 O   0  0  0  0  0  0  0  0  0  0  0  0
  2  1  1  6
  3  4  1  0
  3  2  1  0
  4  5  2  0
  6  5  1  0
  7  6  1  0
  8  7  2  0
  8  4  1  0
  9 10  2  0
  9  2  1  0
 11 12  1  0
 13 12  1  6
 13 14  1  0
 13 15  1  0
 14  9  1  0
 15 22  1  0
 16 15  2  0
 18 17  1  0
 19 18  1  0
 20 19  1  0
 21 20  1  1
 21 23  1  0
 22 21  1  0
 23 24  2  0
 23 25  1  0
M  END
$$$$
