HSM.pdb
     RDKit          3D

 25 25  0  0  1  0  0  0  0  0999 V2000
   29.2956  -29.3166  -16.2260 N   0  0  0  0  0  0  0  0  0  0  0  0
   29.8470  -28.1249  -16.7930 C   0  0  1  0  0  0  0  0  0  0  0  0
   30.2406  -28.3980  -18.2282 C   0  0  0  0  0  0  0  0  0  0  0  0
   31.3210  -29.4061  -18.2651 C   0  0  0  0  0  0  0  0  0  0  0  0
   32.5193  -29.4279  -17.5883 C   0  0  0  0  0  0  0  0  0  0  0  0
   33.2078  -30.5427  -17.9192 N   0  0  0  0  0  0  0  0  0  0  0  0
   32.4434  -31.2238  -18.8048 C   0  0  0  0  0  0  0  0  0  0  0  0
   31.3015  -30.5222  -19.0052 N   0  0  0  0  0  0  0  0  0  0  0  0
   28.9343  -26.9573  -16.6861 C   0  0  0  0  0  0  0  0  0  0  0  0
   27.6996  -27.1329  -16.5163 O   0  0  0  0  0  0  0  0  0  0  0  0
   30.0419  -23.0527  -17.8233 O   0  0  0  0  0  0  0  0  0  0  0  0
   29.2406  -23.1585  -16.7139 C   0  0  0  0  0  0  0  0  0  0  0  0
   28.4804  -24.4835  -16.6559 C   0  0  2  0  0  0  0  0  0  0  0  0
   29.3806  -25.6082  -16.7661 N   0  0  0  0  0  0  0  0  0  0  0  0
   27.3746  -24.5179  -17.6176 C   0  0  0  0  0  0  0  0  0  0  0  0
   27.4512  -24.9959  -18.7771 O   0  0  0  0  0  0  0  0  0  0  0  0
   19.9397  -26.1478  -18.7670 C   0  0  0  0  0  0  0  0  0  0  0  0
   21.3747  -25.9768  -17.6709 S   0  0  0  0  0  0  0  0  0  0  0  0
   22.6418  -24.9028  -18.3419 C   0  0  0  0  0  0  0  0  0  0  0  0
   23.8856  -24.7981  -17.5276 C   0  0  0  0  0  0  0  0  0  0  0  0
   24.9710  -23.9487  -18.1464 C   0  0  2  0  0  0  0  0  0  0  0  0
   26.1165  -23.9794  -17.2370 N   0  0  0  0  0  0  0  0  0  0  0  0
   24.5039  -22.5747  -18.3721 C   0  0  0  0  0  0  0  0  0  0  0  0
   24.8883  -21.6511  -17.5881 O   0  0  0  0  0  0  0  0  0  0  0  0
   23.6650  -22.2398  -19.4013 O   0  0  0  0  0  0  0  0  0  0  0  0
  2  1  1  6
  3  4  1  0
  3  2  1  0
  4  5  2  0
  6  5  1  0
  7  6  1  0
  8  7  2  0
  8  4  1  0
  9 10  2  0
  9  2  1  0
 11 12  1  0
 13 12  1  6
 13 14  1  0
 13 15  1  0
 14  9  1  0
 15 22  1  0
 16 15  2  0
 18 17  1  0
 19 18  1  0
 20 19  1  0
 21 20  1  1
 21 23  1  0
 22 21  1  0
 23 24  2  0
 23 25  1  0
M  END
$$$$
