HSM.pdb
     RDKit          3D

 25 25  0  0  1  0  0  0  0  0999 V2000
   16.7846  -13.6571  -17.6285 N   0  0  0  0  0  0  0  0  0  0  0  0
   16.9570  -13.0154  -16.3620 C   0  0  1  0  0  0  0  0  0  0  0  0
   17.6422  -13.9739  -15.4128 C   0  0  0  0  0  0  0  0  0  0  0  0
   16.7689  -15.1407  -15.1665 C   0  0  0  0  0  0  0  0  0  0  0  0
   15.5054  -15.1871  -14.6225 C   0  0  0  0  0  0  0  0  0  0  0  0
   15.0744  -16.4674  -14.5830 N   0  0  0  0  0  0  0  0  0  0  0  0
   16.0664  -17.2282  -15.1022 C   0  0  0  0  0  0  0  0  0  0  0  0
   17.0882  -16.4096  -15.4519 N   0  0  0  0  0  0  0  0  0  0  0  0
   17.6867  -11.7250  -16.4618 C   0  0  0  0  0  0  0  0  0  0  0  0
   18.8498  -11.6914  -16.9414 O   0  0  0  0  0  0  0  0  0  0  0  0
   16.4114   -8.0692  -14.5892 O   0  0  0  0  0  0  0  0  0  0  0  0
   16.9540   -8.0427  -15.8498 C   0  0  0  0  0  0  0  0  0  0  0  0
   17.8649   -9.2383  -16.1283 C   0  0  2  0  0  0  0  0  0  0  0  0
   17.1373  -10.4831  -16.0360 N   0  0  0  0  0  0  0  0  0  0  0  0
   19.0764   -9.2019  -15.3037 C   0  0  0  0  0  0  0  0  0  0  0  0
   19.2014   -9.7749  -14.1924 O   0  0  0  0  0  0  0  0  0  0  0  0
   26.5826  -10.4948  -15.0944 C   0  0  0  0  0  0  0  0  0  0  0  0
   24.9819  -10.4266  -15.9446 S   0  0  0  0  0  0  0  0  0  0  0  0
   23.8081   -9.3407  -15.1371 C   0  0  0  0  0  0  0  0  0  0  0  0
   22.4435   -9.3188  -15.7358 C   0  0  0  0  0  0  0  0  0  0  0  0
   21.4612   -8.4168  -15.0259 C   0  0  2  0  0  0  0  0  0  0  0  0
   20.2035   -8.4745  -15.7708 N   0  0  0  0  0  0  0  0  0  0  0  0
   21.9705   -7.0417  -14.9419 C   0  0  0  0  0  0  0  0  0  0  0  0
   21.6751   -6.2126  -15.8588 O   0  0  0  0  0  0  0  0  0  0  0  0
   22.7565   -6.6075  -13.9081 O   0  0  0  0  0  0  0  0  0  0  0  0
  2  1  1  6
  3  4  1  0
  3  2  1  0
  4  5  2  0
  6  5  1  0
  7  6  1  0
  8  7  2  0
  8  4  1  0
  9 10  2  0
  9  2  1  0
 11 12  1  0
 13 12  1  1
 13 14  1  0
 13 15  1  0
 14  9  1  0
 15 22  1  0
 16 15  2  0
 18 17  1  0
 19 18  1  0
 20 19  1  0
 21 20  1  6
 21 23  1  0
 22 21  1  0
 23 24  2  0
 23 25  1  0
M  END
$$$$
