HSM.pdb
     RDKit          3D

 25 25  0  0  1  0  0  0  0  0999 V2000
   19.5265  -10.0754  -13.8203 N   0  0  0  0  0  0  0  0  0  0  0  0
   18.4953   -9.2330  -14.3423 C   0  0  1  0  0  0  0  0  0  0  0  0
   17.1772   -9.9735  -14.2846 C   0  0  0  0  0  0  0  0  0  0  0  0
   17.1956  -11.0987  -15.2429 C   0  0  0  0  0  0  0  0  0  0  0  0
   16.6456  -11.1834  -16.5017 C   0  0  0  0  0  0  0  0  0  0  0  0
   16.9037  -12.4005  -17.0295 N   0  0  0  0  0  0  0  0  0  0  0  0
   17.6165  -13.0832  -16.1030 C   0  0  0  0  0  0  0  0  0  0  0  0
   17.7860  -12.2808  -15.0242 N   0  0  0  0  0  0  0  0  0  0  0  0
   18.4179   -7.9187  -13.6536 C   0  0  0  0  0  0  0  0  0  0  0  0
   18.6664   -7.8338  -12.4227 O   0  0  0  0  0  0  0  0  0  0  0  0
   17.2385   -4.2823  -15.6197 O   0  0  0  0  0  0  0  0  0  0  0  0
   18.1393   -4.2703  -14.5840 C   0  0  0  0  0  0  0  0  0  0  0  0
   17.9556   -5.4464  -13.6250 C   0  0  2  0  0  0  0  0  0  0  0  0
   18.0694   -6.7091  -14.3178 N   0  0  0  0  0  0  0  0  0  0  0  0
   16.7273   -5.3166  -12.8354 C   0  0  0  0  0  0  0  0  0  0  0  0
   15.7958   -6.1598  -12.8200 O   0  0  0  0  0  0  0  0  0  0  0  0
   12.7351   -5.7212   -6.7104 C   0  0  0  0  0  0  0  0  0  0  0  0
   14.1604   -5.9447   -7.8096 S   0  0  0  0  0  0  0  0  0  0  0  0
   14.1893   -4.7713   -9.1629 C   0  0  0  0  0  0  0  0  0  0  0  0
   15.2925   -4.9600  -10.1469 C   0  0  0  0  0  0  0  0  0  0  0  0
   15.3311   -3.9300  -11.2515 C   0  0  2  0  0  0  0  0  0  0  0  0
   16.5526   -4.1658  -12.0213 N   0  0  0  0  0  0  0  0  0  0  0  0
   15.2978   -2.5669  -10.7056 C   0  0  0  0  0  0  0  0  0  0  0  0
   16.3875   -1.9292  -10.5597 O   0  0  0  0  0  0  0  0  0  0  0  0
   14.1327   -1.9447  -10.3442 O   0  0  0  0  0  0  0  0  0  0  0  0
  2  1  1  1
  3  4  1  0
  3  2  1  0
  4  5  2  0
  6  5  1  0
  7  6  1  0
  8  7  2  0
  8  4  1  0
  9 10  2  0
  9  2  1  0
 11 12  1  0
 13 12  1  6
 13 14  1  0
 13 15  1  0
 14  9  1  0
 15 22  1  0
 16 15  2  0
 18 17  1  0
 19 18  1  0
 20 19  1  0
 21 20  1  1
 21 23  1  0
 22 21  1  0
 23 24  2  0
 23 25  1  0
M  END
$$$$
