HSM.pdb
     RDKit          3D

 25 25  0  0  1  0  0  0  0  0999 V2000
   25.7335  -18.6723  -16.0584 N   0  0  0  0  0  0  0  0  0  0  0  0
   26.4686  -18.3328  -14.8795 C   0  0  1  0  0  0  0  0  0  0  0  0
   26.9043  -16.8866  -14.9694 C   0  0  0  0  0  0  0  0  0  0  0  0
   27.7748  -16.7011  -16.1495 C   0  0  0  0  0  0  0  0  0  0  0  0
   29.1432  -16.8091  -16.2516 C   0  0  0  0  0  0  0  0  0  0  0  0
   29.5252  -16.5574  -17.5233 N   0  0  0  0  0  0  0  0  0  0  0  0
   28.3975  -16.2907  -18.2229 C   0  0  0  0  0  0  0  0  0  0  0  0
   27.3432  -16.3817  -17.3764 N   0  0  0  0  0  0  0  0  0  0  0  0
   25.7130  -18.6023  -13.6288 C   0  0  0  0  0  0  0  0  0  0  0  0
   24.5050  -18.2620  -13.5337 O   0  0  0  0  0  0  0  0  0  0  0  0
   24.4213  -22.3178  -11.7560 O   0  0  0  0  0  0  0  0  0  0  0  0
   25.0162  -21.3420  -12.5163 C   0  0  0  0  0  0  0  0  0  0  0  0
   25.5519  -20.1815  -11.6778 C   0  0  2  0  0  0  0  0  0  0  0  0
   26.2858  -19.2417  -12.4937 N   0  0  0  0  0  0  0  0  0  0  0  0
   26.2990  -20.6554  -10.5089 C   0  0  0  0  0  0  0  0  0  0  0  0
   27.0233  -21.6821  -10.4925 O   0  0  0  0  0  0  0  0  0  0  0  0
   28.6052  -19.1116   -3.0637 C   0  0  0  0  0  0  0  0  0  0  0  0
   28.1535  -18.5205   -4.7179 S   0  0  0  0  0  0  0  0  0  0  0  0
   27.3935  -19.7889   -5.7292 C   0  0  0  0  0  0  0  0  0  0  0  0
   27.1143  -19.3973   -7.1398 C   0  0  0  0  0  0  0  0  0  0  0  0
   26.5574  -20.5070   -8.0005 C   0  0  2  0  0  0  0  0  0  0  0  0
   26.2158  -19.9203   -9.2963 N   0  0  0  0  0  0  0  0  0  0  0  0
   25.3861  -21.1292   -7.3696 C   0  0  0  0  0  0  0  0  0  0  0  0
   25.5541  -21.9093   -6.3804 O   0  0  0  0  0  0  0  0  0  0  0  0
   24.1069  -20.9029   -7.8028 O   0  0  0  0  0  0  0  0  0  0  0  0
  2  1  1  6
  3  4  1  0
  3  2  1  0
  4  5  2  0
  6  5  1  0
  7  6  1  0
  8  7  2  0
  8  4  1  0
  9 10  2  0
  9  2  1  0
 11 12  1  0
 13 12  1  6
 13 14  1  0
 13 15  1  0
 14  9  1  0
 15 22  1  0
 16 15  2  0
 18 17  1  0
 19 18  1  0
 20 19  1  0
 21 20  1  1
 21 23  1  0
 22 21  1  0
 23 24  2  0
 23 25  1  0
M  END
$$$$
