HSM.pdb
     RDKit          3D

 25 25  0  0  1  0  0  0  0  0999 V2000
   22.7558  -13.4702  -18.7322 N   0  0  0  0  0  0  0  0  0  0  0  0
   21.5202  -12.7718  -18.5556 C   0  0  1  0  0  0  0  0  0  0  0  0
   20.6847  -13.5006  -17.5260 C   0  0  0  0  0  0  0  0  0  0  0  0
   20.3430  -14.8490  -18.0257 C   0  0  0  0  0  0  0  0  0  0  0  0
   20.7957  -16.0782  -17.6031 C   0  0  0  0  0  0  0  0  0  0  0  0
   20.2191  -17.0529  -18.3407 N   0  0  0  0  0  0  0  0  0  0  0  0
   19.4029  -16.4380  -19.2284 C   0  0  0  0  0  0  0  0  0  0  0  0
   19.4883  -15.1009  -19.0256 N   0  0  0  0  0  0  0  0  0  0  0  0
   21.7097  -11.3423  -18.1976 C   0  0  0  0  0  0  0  0  0  0  0  0
   22.6133  -11.0072  -17.3880 O   0  0  0  0  0  0  0  0  0  0  0  0
   19.3136   -8.0928  -19.7747 O   0  0  0  0  0  0  0  0  0  0  0  0
   20.6489   -7.9707  -19.4810 C   0  0  0  0  0  0  0  0  0  0  0  0
   21.0974   -8.9081  -18.3598 C   0  0  2  0  0  0  0  0  0  0  0  0
   20.9090  -10.2923  -18.7285 N   0  0  0  0  0  0  0  0  0  0  0  0
   20.4850   -8.5519  -17.0765 C   0  0  0  0  0  0  0  0  0  0  0  0
   19.3939   -9.0101  -16.6542 O   0  0  0  0  0  0  0  0  0  0  0  0
   23.0616  -10.9802  -11.9623 C   0  0  0  0  0  0  0  0  0  0  0  0
   22.8663   -9.2014  -12.2587 S   0  0  0  0  0  0  0  0  0  0  0  0
   21.6446   -8.8330  -13.5160 C   0  0  0  0  0  0  0  0  0  0  0  0
   21.5148   -7.3927  -13.8761 C   0  0  0  0  0  0  0  0  0  0  0  0
   20.5469   -7.1122  -15.0018 C   0  0  2  0  0  0  0  0  0  0  0  0
   21.1517   -7.6254  -16.2310 N   0  0  0  0  0  0  0  0  0  0  0  0
   20.2589   -5.6758  -15.1067 C   0  0  0  0  0  0  0  0  0  0  0  0
   20.7800   -5.0050  -16.0522 O   0  0  0  0  0  0  0  0  0  0  0  0
   19.4440   -5.0198  -14.2231 O   0  0  0  0  0  0  0  0  0  0  0  0
  2  1  1  1
  3  4  1  0
  3  2  1  0
  4  5  2  0
  6  5  1  0
  7  6  1  0
  8  7  2  0
  8  4  1  0
  9 10  2  0
  9  2  1  0
 11 12  1  0
 13 12  1  6
 13 14  1  0
 13 15  1  0
 14  9  1  0
 15 22  1  0
 16 15  2  0
 18 17  1  0
 19 18  1  0
 20 19  1  0
 21 20  1  1
 21 23  1  0
 22 21  1  0
 23 24  2  0
 23 25  1  0
M  END
$$$$
