HSM.pdb
     RDKit          3D

 25 25  0  0  1  0  0  0  0  0999 V2000
   22.3311  -12.1494  -17.3243 N   0  0  0  0  0  0  0  0  0  0  0  0
   22.9386  -11.1214  -16.5371 C   0  0  1  0  0  0  0  0  0  0  0  0
   24.2988  -10.7968  -17.1147 C   0  0  0  0  0  0  0  0  0  0  0  0
   25.1786  -11.9802  -17.0129 C   0  0  0  0  0  0  0  0  0  0  0  0
   25.4946  -12.7418  -15.9109 C   0  0  0  0  0  0  0  0  0  0  0  0
   26.3382  -13.7344  -16.2713 N   0  0  0  0  0  0  0  0  0  0  0  0
   26.5539  -13.5983  -17.6007 C   0  0  0  0  0  0  0  0  0  0  0  0
   25.8438  -12.5298  -18.0372 N   0  0  0  0  0  0  0  0  0  0  0  0
   22.0896   -9.9082  -16.4150 C   0  0  0  0  0  0  0  0  0  0  0  0
   21.9159   -9.1550  -17.4084 O   0  0  0  0  0  0  0  0  0  0  0  0
   18.8305   -9.5968  -14.1390 O   0  0  0  0  0  0  0  0  0  0  0  0
   19.5859   -8.4585  -14.0055 C   0  0  0  0  0  0  0  0  0  0  0  0
   20.6517   -8.3234  -15.0931 C   0  0  2  0  0  0  0  0  0  0  0  0
   21.4382   -9.5300  -15.2075 N   0  0  0  0  0  0  0  0  0  0  0  0
   21.4561   -7.1106  -14.9176 C   0  0  0  0  0  0  0  0  0  0  0  0
   22.4306   -7.0075  -14.1311 O   0  0  0  0  0  0  0  0  0  0  0  0
   22.7185    0.0704  -18.2126 C   0  0  0  0  0  0  0  0  0  0  0  0
   21.9093   -1.5521  -18.2633 S   0  0  0  0  0  0  0  0  0  0  0  0
   22.2032   -2.5255  -16.7885 C   0  0  0  0  0  0  0  0  0  0  0  0
   21.5679   -3.8736  -16.7772 C   0  0  0  0  0  0  0  0  0  0  0  0
   21.8738   -4.7011  -15.5507 C   0  0  2  0  0  0  0  0  0  0  0  0
   21.1324   -5.9557  -15.6787 N   0  0  0  0  0  0  0  0  0  0  0  0
   21.5045   -3.9844  -14.3231 C   0  0  0  0  0  0  0  0  0  0  0  0
   20.3270   -4.1091  -13.8611 O   0  0  0  0  0  0  0  0  0  0  0  0
   22.3817   -3.1805  -13.6453 O   0  0  0  0  0  0  0  0  0  0  0  0
  2  1  1  6
  3  4  1  0
  3  2  1  0
  4  5  2  0
  6  5  1  0
  7  6  1  0
  8  7  2  0
  8  4  1  0
  9 10  2  0
  9  2  1  0
 11 12  1  0
 13 12  1  1
 13 14  1  0
 13 15  1  0
 14  9  1  0
 15 22  1  0
 16 15  2  0
 18 17  1  0
 19 18  1  0
 20 19  1  0
 21 20  1  6
 21 23  1  0
 22 21  1  0
 23 24  2  0
 23 25  1  0
M  END
$$$$
