HSM.pdb
     RDKit          3D

 25 25  0  0  1  0  0  0  0  0999 V2000
   20.7551  -20.8357  -14.4233 N   0  0  0  0  0  0  0  0  0  0  0  0
   21.6898  -19.8724  -13.9294 C   0  0  1  0  0  0  0  0  0  0  0  0
   20.9315  -18.6700  -13.4114 C   0  0  0  0  0  0  0  0  0  0  0  0
   20.3557  -17.9175  -14.5458 C   0  0  0  0  0  0  0  0  0  0  0  0
   19.0498  -17.8475  -14.9751 C   0  0  0  0  0  0  0  0  0  0  0  0
   18.9689  -17.0378  -16.0541 N   0  0  0  0  0  0  0  0  0  0  0  0
   20.2241  -16.5974  -16.3051 C   0  0  0  0  0  0  0  0  0  0  0  0
   21.0550  -17.1393  -15.3819 N   0  0  0  0  0  0  0  0  0  0  0  0
   22.6057  -20.4295  -12.9006 C   0  0  0  0  0  0  0  0  0  0  0  0
   22.1727  -20.7075  -11.7520 O   0  0  0  0  0  0  0  0  0  0  0  0
   26.5641  -21.8104  -13.7728 O   0  0  0  0  0  0  0  0  0  0  0  0
   25.7648  -22.3327  -12.7867 C   0  0  0  0  0  0  0  0  0  0  0  0
   24.8482  -21.2874  -12.1510 C   0  0  2  0  0  0  0  0  0  0  0  0
   23.9870  -20.6775  -13.1378 N   0  0  0  0  0  0  0  0  0  0  0  0
   25.6022  -20.3196  -11.3487 C   0  0  0  0  0  0  0  0  0  0  0  0
   25.9589  -19.1835  -11.7497 O   0  0  0  0  0  0  0  0  0  0  0  0
   29.4387  -19.3809   -4.4038 C   0  0  0  0  0  0  0  0  0  0  0  0
   27.9607  -19.9008   -5.3176 S   0  0  0  0  0  0  0  0  0  0  0  0
   28.1639  -19.7922   -7.0942 C   0  0  0  0  0  0  0  0  0  0  0  0
   26.9936  -20.2440   -7.8986 C   0  0  0  0  0  0  0  0  0  0  0  0
   27.1959  -20.1750   -9.3942 C   0  0  2  0  0  0  0  0  0  0  0  0
   25.9682  -20.6655  -10.0205 N   0  0  0  0  0  0  0  0  0  0  0  0
   28.3610  -20.9679   -9.8078 C   0  0  0  0  0  0  0  0  0  0  0  0
   28.2371  -22.2243   -9.9549 O   0  0  0  0  0  0  0  0  0  0  0  0
   29.5878  -20.4083  -10.0464 O   0  0  0  0  0  0  0  0  0  0  0  0
  2  1  1  1
  3  4  1  0
  3  2  1  0
  4  5  2  0
  6  5  1  0
  7  6  1  0
  8  7  2  0
  8  4  1  0
  9 10  2  0
  9  2  1  0
 11 12  1  0
 13 12  1  6
 13 14  1  0
 13 15  1  0
 14  9  1  0
 15 22  1  0
 16 15  2  0
 18 17  1  0
 19 18  1  0
 20 19  1  0
 21 20  1  1
 21 23  1  0
 22 21  1  0
 23 24  2  0
 23 25  1  0
M  END
$$$$
