HSM.pdb
     RDKit          3D

 25 25  0  0  1  0  0  0  0  0999 V2000
   17.9672  -12.3548  -17.8245 N   0  0  0  0  0  0  0  0  0  0  0  0
   17.8507  -11.4210  -16.7474 C   0  0  1  0  0  0  0  0  0  0  0  0
   18.1278  -12.1359  -15.4430 C   0  0  0  0  0  0  0  0  0  0  0  0
   17.1181  -13.1943  -15.2307 C   0  0  0  0  0  0  0  0  0  0  0  0
   15.8175  -13.0861  -14.7935 C   0  0  0  0  0  0  0  0  0  0  0  0
   15.2505  -14.3120  -14.7462 N   0  0  0  0  0  0  0  0  0  0  0  0
   16.1940  -15.1931  -15.1537 C   0  0  0  0  0  0  0  0  0  0  0  0
   17.3219  -14.5006  -15.4444 N   0  0  0  0  0  0  0  0  0  0  0  0
   18.7225  -10.2300  -16.9173 C   0  0  0  0  0  0  0  0  0  0  0  0
   19.9404  -10.3727  -17.2013 O   0  0  0  0  0  0  0  0  0  0  0  0
   17.6186   -6.2876  -15.6676 O   0  0  0  0  0  0  0  0  0  0  0  0
   18.3401   -6.4413  -16.8251 C   0  0  0  0  0  0  0  0  0  0  0  0
   19.1313   -7.7488  -16.8613 C   0  0  2  0  0  0  0  0  0  0  0  0
   18.2542   -8.8936  -16.7750 N   0  0  0  0  0  0  0  0  0  0  0  0
   20.2108   -7.7580  -15.8696 C   0  0  0  0  0  0  0  0  0  0  0  0
   20.1112   -8.2314  -14.7099 O   0  0  0  0  0  0  0  0  0  0  0  0
   27.4271   -9.6239  -14.3942 C   0  0  0  0  0  0  0  0  0  0  0  0
   26.2309   -9.1088  -15.6566 S   0  0  0  0  0  0  0  0  0  0  0  0
   24.9098   -8.0960  -14.9949 C   0  0  0  0  0  0  0  0  0  0  0  0
   23.6550   -8.0797  -15.7989 C   0  0  0  0  0  0  0  0  0  0  0  0
   22.5889   -7.1439  -15.2790 C   0  0  2  0  0  0  0  0  0  0  0  0
   21.4690   -7.1985  -16.2187 N   0  0  0  0  0  0  0  0  0  0  0  0
   23.1060   -5.7761  -15.1422 C   0  0  0  0  0  0  0  0  0  0  0  0
   23.8481   -5.4886  -14.1513 O   0  0  0  0  0  0  0  0  0  0  0  0
   22.8229   -4.7861  -16.0450 O   0  0  0  0  0  0  0  0  0  0  0  0
  2  1  1  6
  3  4  1  0
  3  2  1  0
  4  5  2  0
  6  5  1  0
  7  6  1  0
  8  7  2  0
  8  4  1  0
  9 10  2  0
  9  2  1  0
 11 12  1  0
 13 12  1  1
 13 14  1  0
 13 15  1  0
 14  9  1  0
 15 22  1  0
 16 15  2  0
 18 17  1  0
 19 18  1  0
 20 19  1  0
 21 20  1  6
 21 23  1  0
 22 21  1  0
 23 24  2  0
 23 25  1  0
M  END
$$$$
