HSM.pdb
     RDKit          3D

 25 25  0  0  1  0  0  0  0  0999 V2000
   19.2931  -12.9287  -16.4486 N   0  0  0  0  0  0  0  0  0  0  0  0
   19.4603  -11.5748  -16.8782 C   0  0  1  0  0  0  0  0  0  0  0  0
   18.1215  -11.0309  -17.3266 C   0  0  0  0  0  0  0  0  0  0  0  0
   17.6034  -11.8440  -18.4470 C   0  0  0  0  0  0  0  0  0  0  0  0
   16.5378  -12.7147  -18.4751 C   0  0  0  0  0  0  0  0  0  0  0  0
   16.4174  -13.2457  -19.7120 N   0  0  0  0  0  0  0  0  0  0  0  0
   17.4073  -12.7096  -20.4638 C   0  0  0  0  0  0  0  0  0  0  0  0
   18.1189  -11.8609  -19.6830 N   0  0  0  0  0  0  0  0  0  0  0  0
   20.0849  -10.7120  -15.8423 C   0  0  0  0  0  0  0  0  0  0  0  0
   19.4035  -10.2989  -14.8681 O   0  0  0  0  0  0  0  0  0  0  0  0
   24.2893   -9.6902  -15.6674 O   0  0  0  0  0  0  0  0  0  0  0  0
   23.4439   -9.7034  -14.5861 C   0  0  0  0  0  0  0  0  0  0  0  0
   22.0035   -9.3486  -14.9554 C   0  0  2  0  0  0  0  0  0  0  0  0
   21.4493  -10.3090  -15.8817 N   0  0  0  0  0  0  0  0  0  0  0  0
   21.8850   -7.9590  -15.4068 C   0  0  0  0  0  0  0  0  0  0  0  0
   22.0344   -7.5789  -16.5951 O   0  0  0  0  0  0  0  0  0  0  0  0
   18.0377   -1.4189  -15.8866 C   0  0  0  0  0  0  0  0  0  0  0  0
   18.2112   -3.1369  -15.3312 S   0  0  0  0  0  0  0  0  0  0  0  0
   19.9195   -3.6624  -15.2101 C   0  0  0  0  0  0  0  0  0  0  0  0
   20.1221   -5.1093  -14.9159 C   0  0  0  0  0  0  0  0  0  0  0  0
   21.5685   -5.5285  -14.7956 C   0  0  2  0  0  0  0  0  0  0  0  0
   21.5803   -6.9509  -14.4536 N   0  0  0  0  0  0  0  0  0  0  0  0
   22.2689   -4.7290  -13.7820 C   0  0  0  0  0  0  0  0  0  0  0  0
   22.4145   -5.2002  -12.6106 O   0  0  0  0  0  0  0  0  0  0  0  0
   22.7791   -3.4858  -14.0454 O   0  0  0  0  0  0  0  0  0  0  0  0
  2  1  1  1
  3  4  1  0
  3  2  1  0
  4  5  2  0
  6  5  1  0
  7  6  1  0
  8  7  2  0
  8  4  1  0
  9 10  2  0
  9  2  1  0
 11 12  1  0
 13 12  1  6
 13 14  1  0
 13 15  1  0
 14  9  1  0
 15 22  1  0
 16 15  2  0
 18 17  1  0
 19 18  1  0
 20 19  1  0
 21 20  1  1
 21 23  1  0
 22 21  1  0
 23 24  2  0
 23 25  1  0
M  END
$$$$
