HSM.pdb
     RDKit          3D

 25 25  0  0  1  0  0  0  0  0999 V2000
   20.5759  -18.2664  -17.8499 N   0  0  0  0  0  0  0  0  0  0  0  0
   21.4436  -18.5070  -16.7387 C   0  0  1  0  0  0  0  0  0  0  0  0
   20.9596  -19.7301  -15.9909 C   0  0  0  0  0  0  0  0  0  0  0  0
   19.6045  -19.4824  -15.4551 C   0  0  0  0  0  0  0  0  0  0  0  0
   19.2271  -18.9942  -14.2248 C   0  0  0  0  0  0  0  0  0  0  0  0
   17.8790  -18.9266  -14.1568 N   0  0  0  0  0  0  0  0  0  0  0  0
   17.4065  -19.3724  -15.3445 C   0  0  0  0  0  0  0  0  0  0  0  0
   18.4649  -19.7061  -16.1222 N   0  0  0  0  0  0  0  0  0  0  0  0
   22.8699  -18.6341  -17.1352 C   0  0  0  0  0  0  0  0  0  0  0  0
   23.2111  -19.4724  -18.0099 O   0  0  0  0  0  0  0  0  0  0  0  0
   26.2682  -16.7684  -15.1199 O   0  0  0  0  0  0  0  0  0  0  0  0
   26.1235  -16.7864  -16.4848 C   0  0  0  0  0  0  0  0  0  0  0  0
   25.2907  -17.9701  -16.9770 C   0  0  2  0  0  0  0  0  0  0  0  0
   23.9099  -17.8429  -16.5714 N   0  0  0  0  0  0  0  0  0  0  0  0
   25.8974  -19.2522  -16.6071 C   0  0  0  0  0  0  0  0  0  0  0  0
   25.4525  -20.0234  -15.7203 O   0  0  0  0  0  0  0  0  0  0  0  0
   27.1496  -25.9932  -16.1321 C   0  0  0  0  0  0  0  0  0  0  0  0
   26.7405  -24.2272  -16.0706 S   0  0  0  0  0  0  0  0  0  0  0  0
   26.9086  -23.4157  -17.6588 C   0  0  0  0  0  0  0  0  0  0  0  0
   26.5300  -21.9745  -17.6817 C   0  0  0  0  0  0  0  0  0  0  0  0
   27.5957  -21.0375  -17.1633 C   0  0  2  0  0  0  0  0  0  0  0  0
   27.0720  -19.6768  -17.2835 N   0  0  0  0  0  0  0  0  0  0  0  0
   28.8496  -21.1961  -17.9115 C   0  0  0  0  0  0  0  0  0  0  0  0
   28.9866  -20.6030  -19.0272 O   0  0  0  0  0  0  0  0  0  0  0  0
   29.8896  -21.9613  -17.4556 O   0  0  0  0  0  0  0  0  0  0  0  0
  2  1  1  6
  3  4  1  0
  3  2  1  0
  4  5  2  0
  6  5  1  0
  7  6  1  0
  8  7  2  0
  8  4  1  0
  9 10  2  0
  9  2  1  0
 11 12  1  0
 13 12  1  1
 13 14  1  0
 13 15  1  0
 14  9  1  0
 15 22  1  0
 16 15  2  0
 18 17  1  0
 19 18  1  0
 20 19  1  0
 21 20  1  6
 21 23  1  0
 22 21  1  0
 23 24  2  0
 23 25  1  0
M  END
$$$$
