IQN.pdb
     RDKit          3D

 26 25  0  0  1  0  0  0  0  0999 V2000
   15.5027  -13.8000  -11.7821 C   0  0  0  0  0  0  0  0  0  0  0  0
   15.0477  -12.9943  -10.5673 C   0  0  0  0  0  0  0  0  0  0  0  0
   15.1517  -11.5243  -10.8986 C   0  0  2  0  0  0  0  0  0  0  0  0
   16.5708  -11.1495  -11.3009 C   0  0  0  0  0  0  0  0  0  0  0  0
   14.6462  -10.6187   -9.8039 C   0  0  2  0  0  0  0  0  0  0  0  0
   13.3201  -11.0663   -9.4636 N   0  0  0  0  0  0  0  0  0  0  0  0
   14.7411   -9.1970  -10.1007 C   0  0  0  0  0  0  0  0  0  0  0  0
   13.9765   -8.7029  -10.9651 O   0  0  0  0  0  0  0  0  0  0  0  0
   14.7381   -4.4508   -6.6341 N   0  0  0  0  0  0  0  0  0  0  0  0
   13.6539   -5.0828   -7.2926 C   0  0  0  0  0  0  0  0  0  0  0  0
   12.4716   -4.8987   -6.9221 O   0  0  0  0  0  0  0  0  0  0  0  0
   13.9552   -5.9731   -8.4386 C   0  0  0  0  0  0  0  0  0  0  0  0
   15.4362   -6.0519   -8.6143 C   0  0  0  0  0  0  0  0  0  0  0  0
   15.8676   -6.9483   -9.7584 C   0  0  2  0  0  0  0  0  0  0  0  0
   15.6710   -8.3400   -9.4471 N   0  0  0  0  0  0  0  0  0  0  0  0
   17.2762   -6.6234  -10.0238 C   0  0  0  0  0  0  0  0  0  0  0  0
   18.1572   -6.8764   -9.1939 O   0  0  0  0  0  0  0  0  0  0  0  0
   22.0924   -6.6173  -11.5764 N   0  0  0  0  0  0  0  0  0  0  0  0
   20.9961   -7.0167  -12.4343 C   0  0  0  0  0  0  0  0  0  0  0  0
   21.2120   -7.2425  -13.6447 O   0  0  0  0  0  0  0  0  0  0  0  0
   19.6502   -7.1493  -11.8694 C   0  0  0  0  0  0  0  0  0  0  0  0
   19.0035   -5.8309  -11.6229 C   0  0  2  0  0  0  0  0  0  0  0  0
   17.6228   -6.0097  -11.2543 N   0  0  0  0  0  0  0  0  0  0  0  0
   19.1392   -4.9429  -12.8178 C   0  0  0  0  0  0  0  0  0  0  0  0
   20.3463   -4.2892  -12.9994 O   0  0  0  0  0  0  0  0  0  0  0  0
   18.2255   -4.7600  -13.6578 O   0  0  0  0  0  0  0  0  0  0  0  0
  1  2  1  0
  2  3  1  0
  3  5  1  0
  3  4  1  1
  5  7  1  0
  5  6  1  6
  7  8  2  0
 10  9  1  0
 11 10  2  0
 12 10  1  0
 14 13  1  1
 13 12  1  0
 15 14  1  0
 15  7  1  0
 16 14  1  0
 17 16  2  0
 19 18  1  0
 19 20  2  0
 21 19  1  0
 22 21  1  6
 22 23  1  0
 23 16  1  0
 24 25  1  0
 24 22  1  0
 26 24  2  0
M  END
$$$$
