IQN.pdb
     RDKit          3D

 26 25  0  0  1  0  0  0  0  0999 V2000
   29.8397  -21.1586  -10.1736 C   0  0  0  0  0  0  0  0  0  0  0  0
   28.5206  -21.8600  -10.4894 C   0  0  0  0  0  0  0  0  0  0  0  0
   27.4828  -20.8107  -10.8114 C   0  0  2  0  0  0  0  0  0  0  0  0
   27.2666  -19.8707   -9.6343 C   0  0  0  0  0  0  0  0  0  0  0  0
   26.1721  -21.3814  -11.2916 C   0  0  2  0  0  0  0  0  0  0  0  0
   26.4467  -22.7002  -11.8015 N   0  0  0  0  0  0  0  0  0  0  0  0
   25.4380  -20.5243  -12.2107 C   0  0  0  0  0  0  0  0  0  0  0  0
   24.9941  -19.4257  -11.7962 O   0  0  0  0  0  0  0  0  0  0  0  0
   27.7759  -20.5113  -15.7998 N   0  0  0  0  0  0  0  0  0  0  0  0
   27.3961  -19.1928  -16.1546 C   0  0  0  0  0  0  0  0  0  0  0  0
   28.2530  -18.3185  -16.4202 O   0  0  0  0  0  0  0  0  0  0  0  0
   25.9501  -18.8712  -16.2040 C   0  0  0  0  0  0  0  0  0  0  0  0
   25.1689  -20.1037  -15.8862 C   0  0  0  0  0  0  0  0  0  0  0  0
   24.5013  -20.0684  -14.5254 C   0  0  2  0  0  0  0  0  0  0  0  0
   25.2020  -20.8836  -13.5678 N   0  0  0  0  0  0  0  0  0  0  0  0
   23.1164  -20.5125  -14.7376 C   0  0  0  0  0  0  0  0  0  0  0  0
   22.7455  -21.6379  -14.3847 O   0  0  0  0  0  0  0  0  0  0  0  0
   18.1024  -20.0994  -14.6145 N   0  0  0  0  0  0  0  0  0  0  0  0
   18.9875  -19.8589  -13.4936 C   0  0  0  0  0  0  0  0  0  0  0  0
   18.5161  -19.8055  -12.3371 O   0  0  0  0  0  0  0  0  0  0  0  0
   20.4225  -19.6815  -13.7336 C   0  0  0  0  0  0  0  0  0  0  0  0
   20.7778  -19.7995  -15.1748 C   0  0  2  0  0  0  0  0  0  0  0  0
   22.1962  -19.6298  -15.3580 N   0  0  0  0  0  0  0  0  0  0  0  0
   20.0002  -18.8199  -15.9937 C   0  0  0  0  0  0  0  0  0  0  0  0
   19.0460  -19.3221  -16.8624 O   0  0  0  0  0  0  0  0  0  0  0  0
   20.1648  -17.5775  -15.9364 O   0  0  0  0  0  0  0  0  0  0  0  0
  1  2  1  0
  2  3  1  0
  3  5  1  0
  3  4  1  1
  5  7  1  0
  5  6  1  6
  7  8  2  0
 10  9  1  0
 11 10  2  0
 12 10  1  0
 14 13  1  6
 13 12  1  0
 15 14  1  0
 15  7  1  0
 16 14  1  0
 17 16  2  0
 19 18  1  0
 19 20  2  0
 21 19  1  0
 22 21  1  1
 22 23  1  0
 23 16  1  0
 24 25  1  0
 24 22  1  0
 26 24  2  0
M  END
$$$$
