IQN.pdb
     RDKit          3D

 26 25  0  0  1  0  0  0  0  0999 V2000
   13.0122  -12.7410  -14.9739 C   0  0  0  0  0  0  0  0  0  0  0  0
   14.5010  -12.5169  -15.2294 C   0  0  0  0  0  0  0  0  0  0  0  0
   15.0773  -11.7427  -14.0674 C   0  0  2  0  0  0  0  0  0  0  0  0
   14.2822  -10.4722  -13.8037 C   0  0  0  0  0  0  0  0  0  0  0  0
   16.5470  -11.4371  -14.2116 C   0  0  2  0  0  0  0  0  0  0  0  0
   17.2174  -12.6890  -14.4529 N   0  0  0  0  0  0  0  0  0  0  0  0
   17.1132  -10.6540  -13.1233 C   0  0  0  0  0  0  0  0  0  0  0  0
   17.3108  -11.2069  -12.0137 O   0  0  0  0  0  0  0  0  0  0  0  0
   21.3978   -6.4670  -13.6408 N   0  0  0  0  0  0  0  0  0  0  0  0
   21.2397   -6.4206  -12.2332 C   0  0  0  0  0  0  0  0  0  0  0  0
   22.0947   -5.8719  -11.5005 O   0  0  0  0  0  0  0  0  0  0  0  0
   20.0293   -7.0417  -11.6449 C   0  0  0  0  0  0  0  0  0  0  0  0
   19.2515   -7.7097  -12.7307 C   0  0  0  0  0  0  0  0  0  0  0  0
   18.0327   -8.4619  -12.2334 C   0  0  2  0  0  0  0  0  0  0  0  0
   17.4535   -9.2793  -13.2672 N   0  0  0  0  0  0  0  0  0  0  0  0
   17.0999   -7.4430  -11.7313 C   0  0  0  0  0  0  0  0  0  0  0  0
   16.4248   -6.7573  -12.5078 O   0  0  0  0  0  0  0  0  0  0  0  0
   14.1456   -4.6755   -8.6326 N   0  0  0  0  0  0  0  0  0  0  0  0
   14.6337   -5.7875   -7.8433 C   0  0  0  0  0  0  0  0  0  0  0  0
   14.2085   -5.9499   -6.6791 O   0  0  0  0  0  0  0  0  0  0  0  0
   15.6193   -6.7047   -8.4226 C   0  0  0  0  0  0  0  0  0  0  0  0
   16.0226   -6.3110   -9.8008 C   0  0  2  0  0  0  0  0  0  0  0  0
   16.9778   -7.2490  -10.3320 N   0  0  0  0  0  0  0  0  0  0  0  0
   16.5597   -4.9160   -9.8172 C   0  0  0  0  0  0  0  0  0  0  0  0
   15.6628   -3.8792   -9.6228 O   0  0  0  0  0  0  0  0  0  0  0  0
   17.7697   -4.6370   -9.9961 O   0  0  0  0  0  0  0  0  0  0  0  0
  1  2  1  0
  2  3  1  0
  3  5  1  0
  3  4  1  6
  5  7  1  0
  5  6  1  1
  7  8  2  0
 10  9  1  0
 11 10  2  0
 12 10  1  0
 14 13  1  6
 13 12  1  0
 15 14  1  0
 15  7  1  0
 16 14  1  0
 17 16  2  0
 19 18  1  0
 19 20  2  0
 21 19  1  0
 22 21  1  1
 22 23  1  0
 23 16  1  0
 24 25  1  0
 24 22  1  0
 26 24  2  0
M  END
$$$$
