IQN.pdb
     RDKit          3D

 26 25  0  0  1  0  0  0  0  0999 V2000
   25.6642  -20.2828   -8.8411 C   0  0  0  0  0  0  0  0  0  0  0  0
   25.4908  -19.9208  -10.3144 C   0  0  0  0  0  0  0  0  0  0  0  0
   25.7019  -21.1654  -11.1437 C   0  0  2  0  0  0  0  0  0  0  0  0
   27.1224  -21.6912  -10.9958 C   0  0  0  0  0  0  0  0  0  0  0  0
   25.3408  -20.9938  -12.5978 C   0  0  2  0  0  0  0  0  0  0  0  0
   26.3338  -20.1284  -13.1808 N   0  0  0  0  0  0  0  0  0  0  0  0
   23.9672  -20.5758  -12.8362 C   0  0  0  0  0  0  0  0  0  0  0  0
   23.3999  -19.8386  -11.9932 O   0  0  0  0  0  0  0  0  0  0  0  0
   22.6928  -19.7413  -18.0836 N   0  0  0  0  0  0  0  0  0  0  0  0
   22.9189  -18.6476  -17.2111 C   0  0  0  0  0  0  0  0  0  0  0  0
   23.5745  -17.6461  -17.5803 O   0  0  0  0  0  0  0  0  0  0  0  0
   22.3568  -18.7183  -15.8415 C   0  0  0  0  0  0  0  0  0  0  0  0
   21.7000  -20.0465  -15.6555 C   0  0  0  0  0  0  0  0  0  0  0  0
   21.8677  -20.6198  -14.2621 C   0  0  2  0  0  0  0  0  0  0  0  0
   23.2375  -20.9712  -13.9927 N   0  0  0  0  0  0  0  0  0  0  0  0
   20.9633  -21.7758  -14.1837 C   0  0  0  0  0  0  0  0  0  0  0  0
   21.3995  -22.9319  -14.2263 O   0  0  0  0  0  0  0  0  0  0  0  0
   17.5010  -23.9841  -10.5062 N   0  0  0  0  0  0  0  0  0  0  0  0
   18.2063  -24.1409  -11.7614 C   0  0  0  0  0  0  0  0  0  0  0  0
   18.0761  -25.1999  -12.4127 O   0  0  0  0  0  0  0  0  0  0  0  0
   19.0623  -23.0551  -12.2476 C   0  0  0  0  0  0  0  0  0  0  0  0
   18.6928  -22.6094  -13.6195 C   0  0  2  0  0  0  0  0  0  0  0  0
   19.5686  -21.5533  -14.0574 N   0  0  0  0  0  0  0  0  0  0  0  0
   17.2597  -22.1872  -13.6710 C   0  0  0  0  0  0  0  0  0  0  0  0
   16.9048  -21.0321  -12.9950 O   0  0  0  0  0  0  0  0  0  0  0  0
   16.3688  -22.8184  -14.2890 O   0  0  0  0  0  0  0  0  0  0  0  0
  1  2  1  0
  2  3  1  0
  3  5  1  0
  3  4  1  6
  5  7  1  0
  5  6  1  1
  7  8  2  0
 10  9  1  0
 11 10  2  0
 12 10  1  0
 14 13  1  6
 13 12  1  0
 15 14  1  0
 15  7  1  0
 16 14  1  0
 17 16  2  0
 19 18  1  0
 19 20  2  0
 21 19  1  0
 22 21  1  1
 22 23  1  0
 23 16  1  0
 24 25  1  0
 24 22  1  0
 26 24  2  0
M  END
$$$$
