IQN.pdb
     RDKit          3D

 26 25  0  0  1  0  0  0  0  0999 V2000
   22.7814  -17.9865  -20.4363 C   0  0  0  0  0  0  0  0  0  0  0  0
   23.2571  -17.8622  -18.9906 C   0  0  0  0  0  0  0  0  0  0  0  0
   22.5129  -18.8733  -18.1506 C   0  0  2  0  0  0  0  0  0  0  0  0
   21.0118  -18.7855  -18.3847 C   0  0  0  0  0  0  0  0  0  0  0  0
   22.8334  -18.7927  -16.6792 C   0  0  2  0  0  0  0  0  0  0  0  0
   24.2686  -18.8064  -16.5577 N   0  0  0  0  0  0  0  0  0  0  0  0
   22.1527  -19.7808  -15.8554 C   0  0  0  0  0  0  0  0  0  0  0  0
   22.4176  -20.9969  -16.0190 O   0  0  0  0  0  0  0  0  0  0  0  0
   20.2379  -19.3099   -9.9979 N   0  0  0  0  0  0  0  0  0  0  0  0
   21.5500  -19.6237  -10.4319 C   0  0  0  0  0  0  0  0  0  0  0  0
   22.5303  -19.5322   -9.6575 O   0  0  0  0  0  0  0  0  0  0  0  0
   21.7354  -20.0659  -11.8343 C   0  0  0  0  0  0  0  0  0  0  0  0
   20.4552  -19.8682  -12.5776 C   0  0  0  0  0  0  0  0  0  0  0  0
   20.5027  -20.3529  -14.0133 C   0  0  2  0  0  0  0  0  0  0  0  0
   21.1936  -19.4218  -14.8666 N   0  0  0  0  0  0  0  0  0  0  0  0
   19.1061  -20.5618  -14.4209 C   0  0  0  0  0  0  0  0  0  0  0  0
   18.4063  -19.6192  -14.8088 O   0  0  0  0  0  0  0  0  0  0  0  0
   17.6498  -25.6806  -15.8989 N   0  0  0  0  0  0  0  0  0  0  0  0
   17.4381  -24.2482  -15.9324 C   0  0  0  0  0  0  0  0  0  0  0  0
   17.7150  -23.6089  -16.9703 O   0  0  0  0  0  0  0  0  0  0  0  0
   16.9026  -23.5709  -14.7480 C   0  0  0  0  0  0  0  0  0  0  0  0
   17.1919  -22.1102  -14.7478 C   0  0  2  0  0  0  0  0  0  0  0  0
   18.5594  -21.8690  -14.3656 N   0  0  0  0  0  0  0  0  0  0  0  0
   16.2388  -21.3819  -13.8556 C   0  0  0  0  0  0  0  0  0  0  0  0
   16.4756  -21.4224  -12.4920 O   0  0  0  0  0  0  0  0  0  0  0  0
   15.2442  -20.7412  -14.2731 O   0  0  0  0  0  0  0  0  0  0  0  0
  1  2  1  0
  2  3  1  0
  3  5  1  0
  3  4  1  1
  5  7  1  0
  5  6  1  6
  7  8  2  0
 10  9  1  0
 11 10  2  0
 12 10  1  0
 14 13  1  1
 13 12  1  0
 15 14  1  0
 15  7  1  0
 16 14  1  0
 17 16  2  0
 19 18  1  0
 19 20  2  0
 21 19  1  0
 22 21  1  1
 22 23  1  0
 23 16  1  0
 24 25  1  0
 24 22  1  0
 26 24  2  0
M  END
$$$$
