IQN.pdb
     RDKit          3D

 26 25  0  0  1  0  0  0  0  0999 V2000
   28.7739  -12.3901  -16.0864 C   0  0  0  0  0  0  0  0  0  0  0  0
   27.3738  -12.9871  -15.9631 C   0  0  0  0  0  0  0  0  0  0  0  0
   26.3624  -11.9127  -16.2862 C   0  0  2  0  0  0  0  0  0  0  0  0
   26.4587  -10.7531  -15.3054 C   0  0  0  0  0  0  0  0  0  0  0  0
   24.9460  -12.4216  -16.3799 C   0  0  2  0  0  0  0  0  0  0  0  0
   24.9807  -13.6257  -17.1695 N   0  0  0  0  0  0  0  0  0  0  0  0
   23.9761  -11.4355  -16.8331 C   0  0  0  0  0  0  0  0  0  0  0  0
   24.1105  -10.9283  -17.9735 O   0  0  0  0  0  0  0  0  0  0  0  0
   17.3150   -9.5362  -18.0890 N   0  0  0  0  0  0  0  0  0  0  0  0
   18.4183  -10.2876  -17.6129 C   0  0  0  0  0  0  0  0  0  0  0  0
   18.5022  -11.5205  -17.8176 O   0  0  0  0  0  0  0  0  0  0  0  0
   19.4779   -9.5739  -16.8613 C   0  0  0  0  0  0  0  0  0  0  0  0
   20.5031  -10.5628  -16.4128 C   0  0  0  0  0  0  0  0  0  0  0  0
   21.9167  -10.0147  -16.4054 C   0  0  2  0  0  0  0  0  0  0  0  0
   22.8756  -11.0210  -16.0309 N   0  0  0  0  0  0  0  0  0  0  0  0
   21.9076   -8.8725  -15.4804 C   0  0  0  0  0  0  0  0  0  0  0  0
   22.6868   -8.8210  -14.5217 O   0  0  0  0  0  0  0  0  0  0  0  0
   21.2178   -4.2613  -13.4993 N   0  0  0  0  0  0  0  0  0  0  0  0
   22.4267   -4.7815  -14.1041 C   0  0  0  0  0  0  0  0  0  0  0  0
   23.5044   -4.1664  -13.9535 O   0  0  0  0  0  0  0  0  0  0  0  0
   22.3667   -6.0211  -14.8837 C   0  0  0  0  0  0  0  0  0  0  0  0
   21.0116   -6.6382  -14.8690 C   0  0  2  0  0  0  0  0  0  0  0  0
   20.9870   -7.8160  -15.6975 N   0  0  0  0  0  0  0  0  0  0  0  0
   19.9748   -5.6491  -15.2949 C   0  0  0  0  0  0  0  0  0  0  0  0
   19.6069   -4.6714  -14.3860 O   0  0  0  0  0  0  0  0  0  0  0  0
   19.4248   -5.6575  -16.4224 O   0  0  0  0  0  0  0  0  0  0  0  0
  1  2  1  0
  2  3  1  0
  3  5  1  0
  3  4  1  1
  5  7  1  0
  5  6  1  6
  7  8  2  0
 10  9  1  0
 11 10  2  0
 12 10  1  0
 14 13  1  1
 13 12  1  0
 15 14  1  0
 15  7  1  0
 16 14  1  0
 17 16  2  0
 19 18  1  0
 19 20  2  0
 21 19  1  0
 22 21  1  6
 22 23  1  0
 23 16  1  0
 24 25  1  0
 24 22  1  0
 26 24  2  0
M  END
$$$$
