IQN.pdb
     RDKit          3D

 26 25  0  0  1  0  0  0  0  0999 V2000
   26.4127  -14.5489  -19.1973 C   0  0  0  0  0  0  0  0  0  0  0  0
   26.0690  -13.8827  -17.8669 C   0  0  0  0  0  0  0  0  0  0  0  0
   24.9956  -12.8482  -18.1101 C   0  0  2  0  0  0  0  0  0  0  0  0
   25.3700  -11.9265  -19.2618 C   0  0  0  0  0  0  0  0  0  0  0  0
   24.6303  -12.0530  -16.8819 C   0  0  2  0  0  0  0  0  0  0  0  0
   24.3084  -13.0000  -15.8454 N   0  0  0  0  0  0  0  0  0  0  0  0
   23.6142  -11.0340  -17.0993 C   0  0  0  0  0  0  0  0  0  0  0  0
   23.8482  -10.1033  -17.9086 O   0  0  0  0  0  0  0  0  0  0  0  0
   17.5864  -11.9491  -16.2377 N   0  0  0  0  0  0  0  0  0  0  0  0
   18.3779  -12.4739  -17.2896 C   0  0  0  0  0  0  0  0  0  0  0  0
   17.9743  -13.4286  -17.9930 O   0  0  0  0  0  0  0  0  0  0  0  0
   19.7043  -11.8613  -17.5390 C   0  0  0  0  0  0  0  0  0  0  0  0
   19.9311  -10.7744  -16.5402 C   0  0  0  0  0  0  0  0  0  0  0  0
   21.2905  -10.1133  -16.6568 C   0  0  2  0  0  0  0  0  0  0  0  0
   22.3591  -11.0502  -16.4277 N   0  0  0  0  0  0  0  0  0  0  0  0
   21.2923   -9.0081  -15.6878 C   0  0  0  0  0  0  0  0  0  0  0  0
   21.7651   -9.1531  -14.5546 O   0  0  0  0  0  0  0  0  0  0  0  0
   21.0234   -4.4413  -13.5278 N   0  0  0  0  0  0  0  0  0  0  0  0
   22.2399   -5.1310  -13.9047 C   0  0  0  0  0  0  0  0  0  0  0  0
   23.3398   -4.7171  -13.4785 O   0  0  0  0  0  0  0  0  0  0  0  0
   22.1619   -6.3035  -14.7807 C   0  0  0  0  0  0  0  0  0  0  0  0
   20.7614   -6.6404  -15.1579 C   0  0  2  0  0  0  0  0  0  0  0  0
   20.7408   -7.7577  -16.0664 N   0  0  0  0  0  0  0  0  0  0  0  0
   20.0689   -5.4503  -15.7400 C   0  0  0  0  0  0  0  0  0  0  0  0
   19.8901   -4.3468  -14.9228 O   0  0  0  0  0  0  0  0  0  0  0  0
   19.6447   -5.3984  -16.9195 O   0  0  0  0  0  0  0  0  0  0  0  0
  1  2  1  0
  2  3  1  0
  3  5  1  0
  3  4  1  6
  5  7  1  0
  5  6  1  1
  7  8  2  0
 10  9  1  0
 11 10  2  0
 12 10  1  0
 14 13  1  1
 13 12  1  0
 15 14  1  0
 15  7  1  0
 16 14  1  0
 17 16  2  0
 19 18  1  0
 19 20  2  0
 21 19  1  0
 22 21  1  6
 22 23  1  0
 23 16  1  0
 24 25  1  0
 24 22  1  0
 26 24  2  0
M  END
$$$$
