IQN.pdb
     RDKit          3D

 26 25  0  0  1  0  0  0  0  0999 V2000
   27.8552  -16.3256  -17.6857 C   0  0  0  0  0  0  0  0  0  0  0  0
   28.4001  -17.3289  -16.6715 C   0  0  0  0  0  0  0  0  0  0  0  0
   27.2368  -18.0682  -16.0535 C   0  0  2  0  0  0  0  0  0  0  0  0
   26.2654  -17.1061  -15.3852 C   0  0  0  0  0  0  0  0  0  0  0  0
   27.6505  -19.1624  -15.1017 C   0  0  2  0  0  0  0  0  0  0  0  0
   28.6274  -19.9705  -15.7853 N   0  0  0  0  0  0  0  0  0  0  0  0
   26.5458  -19.9158  -14.5270 C   0  0  0  0  0  0  0  0  0  0  0  0
   26.1770  -20.9778  -15.0856 O   0  0  0  0  0  0  0  0  0  0  0  0
   24.4266  -21.1358   -8.8782 N   0  0  0  0  0  0  0  0  0  0  0  0
   25.7753  -20.8483   -9.2048 C   0  0  0  0  0  0  0  0  0  0  0  0
   26.7079  -21.1196   -8.4138 O   0  0  0  0  0  0  0  0  0  0  0  0
   26.0575  -20.2143  -10.5145 C   0  0  0  0  0  0  0  0  0  0  0  0
   24.7644  -19.9508  -11.2135 C   0  0  0  0  0  0  0  0  0  0  0  0
   24.8087  -20.2299  -12.7031 C   0  0  2  0  0  0  0  0  0  0  0  0
   25.8632  -19.4946  -13.3510 N   0  0  0  0  0  0  0  0  0  0  0  0
   23.4783  -19.8846  -13.2237 C   0  0  0  0  0  0  0  0  0  0  0  0
   23.2268  -18.7430  -13.6265 O   0  0  0  0  0  0  0  0  0  0  0  0
   18.4948  -19.5153  -14.3709 N   0  0  0  0  0  0  0  0  0  0  0  0
   19.7307  -18.8709  -14.7646 C   0  0  0  0  0  0  0  0  0  0  0  0
   19.7279  -18.0656  -15.7207 O   0  0  0  0  0  0  0  0  0  0  0  0
   20.9655  -19.1741  -14.0355 C   0  0  0  0  0  0  0  0  0  0  0  0
   21.2185  -20.6374  -13.9274 C   0  0  2  0  0  0  0  0  0  0  0  0
   22.4717  -20.8827  -13.2614 N   0  0  0  0  0  0  0  0  0  0  0  0
   21.1810  -21.2823  -15.2756 C   0  0  0  0  0  0  0  0  0  0  0  0
   19.9429  -21.4586  -15.8699 O   0  0  0  0  0  0  0  0  0  0  0  0
   22.2030  -21.6689  -15.8920 O   0  0  0  0  0  0  0  0  0  0  0  0
  1  2  1  0
  2  3  1  0
  3  5  1  0
  3  4  1  1
  5  7  1  0
  5  6  1  6
  7  8  2  0
 10  9  1  0
 11 10  2  0
 12 10  1  0
 14 13  1  1
 13 12  1  0
 15 14  1  0
 15  7  1  0
 16 14  1  0
 17 16  2  0
 19 18  1  0
 19 20  2  0
 21 19  1  0
 22 21  1  6
 22 23  1  0
 23 16  1  0
 24 25  1  0
 24 22  1  0
 26 24  2  0
M  END
$$$$
