IQN.pdb
     RDKit          3D

 26 25  0  0  1  0  0  0  0  0999 V2000
   13.2773   -6.3860   -6.6861 C   0  0  0  0  0  0  0  0  0  0  0  0
   12.7985   -7.2837   -7.8248 C   0  0  0  0  0  0  0  0  0  0  0  0
   14.0067   -7.8103   -8.5628 C   0  0  2  0  0  0  0  0  0  0  0  0
   14.9660   -6.6850   -8.9223 C   0  0  0  0  0  0  0  0  0  0  0  0
   13.6632   -8.6333   -9.7790 C   0  0  2  0  0  0  0  0  0  0  0  0
   12.9956   -9.8208   -9.3111 N   0  0  0  0  0  0  0  0  0  0  0  0
   14.7819   -8.8880  -10.6744 C   0  0  0  0  0  0  0  0  0  0  0  0
   15.5419   -9.8590  -10.4388 O   0  0  0  0  0  0  0  0  0  0  0  0
   15.5748  -10.8484  -15.1268 N   0  0  0  0  0  0  0  0  0  0  0  0
   16.5473   -9.9892  -15.6963 C   0  0  0  0  0  0  0  0  0  0  0  0
   17.3462  -10.3997  -16.5693 O   0  0  0  0  0  0  0  0  0  0  0  0
   16.5963   -8.5830  -15.2305 C   0  0  0  0  0  0  0  0  0  0  0  0
   15.5455   -8.3811  -14.1886 C   0  0  0  0  0  0  0  0  0  0  0  0
   16.0911   -8.3261  -12.7752 C   0  0  2  0  0  0  0  0  0  0  0  0
   15.0504   -8.0762  -11.8125 N   0  0  0  0  0  0  0  0  0  0  0  0
   17.1224   -7.2788  -12.7752 C   0  0  0  0  0  0  0  0  0  0  0  0
   16.8161   -6.0810  -12.7860 O   0  0  0  0  0  0  0  0  0  0  0  0
   21.6499   -4.9447  -13.2068 N   0  0  0  0  0  0  0  0  0  0  0  0
   21.9579   -6.3520  -13.0575 C   0  0  0  0  0  0  0  0  0  0  0  0
   23.1519   -6.7208  -13.0246 O   0  0  0  0  0  0  0  0  0  0  0  0
   20.8642   -7.3215  -12.9479 C   0  0  0  0  0  0  0  0  0  0  0  0
   19.5254   -6.6701  -12.9296 C   0  0  2  0  0  0  0  0  0  0  0  0
   18.4892   -7.6564  -12.7628 N   0  0  0  0  0  0  0  0  0  0  0  0
   19.3139   -5.8597  -14.1679 C   0  0  0  0  0  0  0  0  0  0  0  0
   19.5859   -4.5036  -14.1032 O   0  0  0  0  0  0  0  0  0  0  0  0
   18.9066   -6.3389  -15.2534 O   0  0  0  0  0  0  0  0  0  0  0  0
  1  2  1  0
  2  3  1  0
  3  5  1  0
  3  4  1  6
  5  7  1  0
  5  6  1  1
  7  8  2  0
 10  9  1  0
 11 10  2  0
 12 10  1  0
 14 13  1  6
 13 12  1  0
 15 14  1  0
 15  7  1  0
 16 14  1  0
 17 16  2  0
 19 18  1  0
 19 20  2  0
 21 19  1  0
 22 21  1  6
 22 23  1  0
 23 16  1  0
 24 25  1  0
 24 22  1  0
 26 24  2  0
M  END
$$$$
