IQN.pdb
     RDKit          3D

 26 25  0  0  1  0  0  0  0  0999 V2000
   23.5117  -14.6084  -19.4064 C   0  0  0  0  0  0  0  0  0  0  0  0
   23.3271  -14.7051  -17.8937 C   0  0  0  0  0  0  0  0  0  0  0  0
   23.0173  -16.1401  -17.5377 C   0  0  2  0  0  0  0  0  0  0  0  0
   21.8411  -16.6666  -18.3471 C   0  0  0  0  0  0  0  0  0  0  0  0
   22.7988  -16.3653  -16.0626 C   0  0  2  0  0  0  0  0  0  0  0  0
   23.8848  -15.7197  -15.3709 N   0  0  0  0  0  0  0  0  0  0  0  0
   22.5903  -17.7555  -15.6859 C   0  0  0  0  0  0  0  0  0  0  0  0
   21.7065  -18.4213  -16.2787 O   0  0  0  0  0  0  0  0  0  0  0  0
   26.0821  -20.8193  -11.4662 N   0  0  0  0  0  0  0  0  0  0  0  0
   25.2662  -21.8966  -11.8932 C   0  0  0  0  0  0  0  0  0  0  0  0
   25.4569  -23.0619  -11.4753 O   0  0  0  0  0  0  0  0  0  0  0  0
   24.1742  -21.6087  -12.8530 C   0  0  0  0  0  0  0  0  0  0  0  0
   24.2061  -20.1569  -13.2015 C   0  0  0  0  0  0  0  0  0  0  0  0
   23.1707  -19.7547  -14.2335 C   0  0  2  0  0  0  0  0  0  0  0  0
   23.3522  -18.3940  -14.6668 N   0  0  0  0  0  0  0  0  0  0  0  0
   21.8602  -19.9765  -13.6060 C   0  0  0  0  0  0  0  0  0  0  0  0
   21.3575  -19.1281  -12.8602 O   0  0  0  0  0  0  0  0  0  0  0  0
   17.1417  -21.5876  -12.7836 N   0  0  0  0  0  0  0  0  0  0  0  0
   17.5222  -20.4914  -13.6503 C   0  0  0  0  0  0  0  0  0  0  0  0
   16.6413  -19.7251  -14.0969 O   0  0  0  0  0  0  0  0  0  0  0  0
   18.9348  -20.2983  -13.9903 C   0  0  0  0  0  0  0  0  0  0  0  0
   19.8077  -21.3631  -13.4235 C   0  0  2  0  0  0  0  0  0  0  0  0
   21.1671  -21.1862  -13.8651 N   0  0  0  0  0  0  0  0  0  0  0  0
   19.2893  -22.7189  -13.7811 C   0  0  0  0  0  0  0  0  0  0  0  0
   20.1524  -23.5875  -14.4277 O   0  0  0  0  0  0  0  0  0  0  0  0
   18.1238  -23.1085  -13.5287 O   0  0  0  0  0  0  0  0  0  0  0  0
  1  2  1  0
  2  3  1  0
  3  5  1  0
  3  4  1  6
  5  7  1  0
  5  6  1  1
  7  8  2  0
 10  9  1  0
 11 10  2  0
 12 10  1  0
 14 13  1  1
 13 12  1  0
 15 14  1  0
 15  7  1  0
 16 14  1  0
 17 16  2  0
 19 18  1  0
 19 20  2  0
 21 19  1  0
 22 21  1  6
 22 23  1  0
 23 16  1  0
 24 25  1  0
 24 22  1  0
 26 24  2  0
M  END
$$$$
