IQN.pdb
     RDKit          3D

 26 25  0  0  1  0  0  0  0  0999 V2000
   12.1260  -12.3386  -10.3496 C   0  0  0  0  0  0  0  0  0  0  0  0
   13.5430  -12.2770  -10.9155 C   0  0  0  0  0  0  0  0  0  0  0  0
   14.2082  -11.0183  -10.4107 C   0  0  2  0  0  0  0  0  0  0  0  0
   13.3510   -9.7923  -10.6900 C   0  0  0  0  0  0  0  0  0  0  0  0
   15.6106  -10.8235  -10.9299 C   0  0  2  0  0  0  0  0  0  0  0  0
   16.2907  -12.0860  -10.7946 N   0  0  0  0  0  0  0  0  0  0  0  0
   16.3213   -9.6945  -10.3480 C   0  0  0  0  0  0  0  0  0  0  0  0
   16.1836   -9.4537   -9.1237 O   0  0  0  0  0  0  0  0  0  0  0  0
   20.5465   -6.1577  -13.3540 N   0  0  0  0  0  0  0  0  0  0  0  0
   20.8607   -7.4403  -12.8397 C   0  0  0  0  0  0  0  0  0  0  0  0
   21.8774   -8.0634  -13.2230 O   0  0  0  0  0  0  0  0  0  0  0  0
   19.9503   -8.0307  -11.8300 C   0  0  0  0  0  0  0  0  0  0  0  0
   18.8072   -7.0968  -11.6037 C   0  0  0  0  0  0  0  0  0  0  0  0
   17.7676   -7.6287  -10.6368 C   0  0  2  0  0  0  0  0  0  0  0  0
   17.1706   -8.8481  -11.1152 N   0  0  0  0  0  0  0  0  0  0  0  0
   16.7840   -6.5509  -10.4601 C   0  0  0  0  0  0  0  0  0  0  0  0
   15.6193   -6.6783  -10.8550 O   0  0  0  0  0  0  0  0  0  0  0  0
   14.4385   -2.5017   -8.4658 N   0  0  0  0  0  0  0  0  0  0  0  0
   14.3203   -3.8623   -7.9836 C   0  0  0  0  0  0  0  0  0  0  0  0
   13.4280   -4.1468   -7.1556 O   0  0  0  0  0  0  0  0  0  0  0  0
   15.2496   -4.8840   -8.4742 C   0  0  0  0  0  0  0  0  0  0  0  0
   16.2141   -4.3446   -9.4721 C   0  0  2  0  0  0  0  0  0  0  0  0
   17.1851   -5.3480   -9.8254 N   0  0  0  0  0  0  0  0  0  0  0  0
   16.8722   -3.1054   -8.9562 C   0  0  0  0  0  0  0  0  0  0  0  0
   16.5243   -1.9005   -9.5432 O   0  0  0  0  0  0  0  0  0  0  0  0
   17.7157   -3.0990   -8.0276 O   0  0  0  0  0  0  0  0  0  0  0  0
  1  2  1  0
  2  3  1  0
  3  5  1  0
  3  4  1  6
  5  7  1  0
  5  6  1  1
  7  8  2  0
 10  9  1  0
 11 10  2  0
 12 10  1  0
 14 13  1  6
 13 12  1  0
 15 14  1  0
 15  7  1  0
 16 14  1  0
 17 16  2  0
 19 18  1  0
 19 20  2  0
 21 19  1  0
 22 21  1  1
 22 23  1  0
 23 16  1  0
 24 25  1  0
 24 22  1  0
 26 24  2  0
M  END
$$$$
