IQN.pdb
     RDKit          3D

 26 25  0  0  1  0  0  0  0  0999 V2000
   28.4594  -21.0701   -8.5151 C   0  0  0  0  0  0  0  0  0  0  0  0
   28.6552  -21.3198  -10.0089 C   0  0  0  0  0  0  0  0  0  0  0  0
   27.4952  -20.7045  -10.7556 C   0  0  2  0  0  0  0  0  0  0  0  0
   26.1697  -21.2953  -10.2972 C   0  0  0  0  0  0  0  0  0  0  0  0
   27.6291  -20.7835  -12.2556 C   0  0  2  0  0  0  0  0  0  0  0  0
   28.9928  -20.4487  -12.5764 N   0  0  0  0  0  0  0  0  0  0  0  0
   26.6347  -20.0195  -12.9942 C   0  0  0  0  0  0  0  0  0  0  0  0
   26.6578  -18.7660  -12.9289 O   0  0  0  0  0  0  0  0  0  0  0  0
   25.1098  -20.7639  -18.6203 N   0  0  0  0  0  0  0  0  0  0  0  0
   24.1867  -19.7260  -18.3390 C   0  0  0  0  0  0  0  0  0  0  0  0
   23.6337  -19.0808  -19.2593 O   0  0  0  0  0  0  0  0  0  0  0  0
   23.8895  -19.4205  -16.9195 C   0  0  0  0  0  0  0  0  0  0  0  0
   24.7743  -20.2518  -16.0498 C   0  0  0  0  0  0  0  0  0  0  0  0
   24.6485  -19.9353  -14.5724 C   0  0  2  0  0  0  0  0  0  0  0  0
   25.6319  -20.6396  -13.7919 N   0  0  0  0  0  0  0  0  0  0  0  0
   23.2721  -20.2862  -14.1947 C   0  0  0  0  0  0  0  0  0  0  0  0
   22.9904  -21.4200  -13.7899 O   0  0  0  0  0  0  0  0  0  0  0  0
   19.9062  -20.4257  -11.4802 N   0  0  0  0  0  0  0  0  0  0  0  0
   19.8671  -19.0053  -11.7604 C   0  0  0  0  0  0  0  0  0  0  0  0
   19.4146  -18.2200  -10.8994 O   0  0  0  0  0  0  0  0  0  0  0  0
   20.3585  -18.5113  -13.0498 C   0  0  0  0  0  0  0  0  0  0  0  0
   20.9024  -19.6004  -13.9073 C   0  0  2  0  0  0  0  0  0  0  0  0
   22.2559  -19.3028  -14.2991 N   0  0  0  0  0  0  0  0  0  0  0  0
   20.0260  -19.8250  -15.0973 C   0  0  0  0  0  0  0  0  0  0  0  0
   18.9345  -20.6629  -14.9432 O   0  0  0  0  0  0  0  0  0  0  0  0
   20.2251  -19.2992  -16.2188 O   0  0  0  0  0  0  0  0  0  0  0  0
  1  2  1  0
  2  3  1  0
  3  5  1  0
  3  4  1  1
  5  7  1  0
  5  6  1  1
  7  8  2  0
 10  9  1  0
 11 10  2  0
 12 10  1  0
 14 13  1  6
 13 12  1  0
 15 14  1  0
 15  7  1  0
 16 14  1  0
 17 16  2  0
 19 18  1  0
 19 20  2  0
 21 19  1  0
 22 21  1  6
 22 23  1  0
 23 16  1  0
 24 25  1  0
 24 22  1  0
 26 24  2  0
M  END
$$$$
