IQN.pdb
     RDKit          3D

 26 25  0  0  1  0  0  0  0  0999 V2000
   18.6346  -14.1581  -17.0465 C   0  0  0  0  0  0  0  0  0  0  0  0
   18.2073  -12.6922  -17.0314 C   0  0  0  0  0  0  0  0  0  0  0  0
   18.2877  -12.1822  -15.6118 C   0  0  2  0  0  0  0  0  0  0  0  0
   17.4582  -13.0428  -14.6698 C   0  0  0  0  0  0  0  0  0  0  0  0
   17.9247  -10.7255  -15.4693 C   0  0  2  0  0  0  0  0  0  0  0  0
   18.6759  -10.0033  -16.4638 N   0  0  0  0  0  0  0  0  0  0  0  0
   18.0550  -10.1974  -14.1193 C   0  0  0  0  0  0  0  0  0  0  0  0
   17.5521  -10.8375  -13.1637 O   0  0  0  0  0  0  0  0  0  0  0  0
   21.9205   -5.5656  -12.5447 N   0  0  0  0  0  0  0  0  0  0  0  0
   20.8521   -5.2790  -13.4306 C   0  0  0  0  0  0  0  0  0  0  0  0
   20.8620   -4.2544  -14.1512 O   0  0  0  0  0  0  0  0  0  0  0  0
   19.7146   -6.2277  -13.4840 C   0  0  0  0  0  0  0  0  0  0  0  0
   19.9577   -7.3305  -12.5068 C   0  0  0  0  0  0  0  0  0  0  0  0
   18.8908   -8.4076  -12.5253 C   0  0  2  0  0  0  0  0  0  0  0  0
   18.7332   -8.9779  -13.8376 N   0  0  0  0  0  0  0  0  0  0  0  0
   17.6594   -7.7721  -12.0351 C   0  0  0  0  0  0  0  0  0  0  0  0
   16.8318   -7.2939  -12.8195 O   0  0  0  0  0  0  0  0  0  0  0  0
   14.6967   -6.5772   -6.8118 N   0  0  0  0  0  0  0  0  0  0  0  0
   14.7109   -6.9918   -8.1994 C   0  0  0  0  0  0  0  0  0  0  0  0
   13.6878   -6.8334   -8.9000 O   0  0  0  0  0  0  0  0  0  0  0  0
   15.9253   -7.5913   -8.7601 C   0  0  0  0  0  0  0  0  0  0  0  0
   16.2401   -7.0738  -10.1203 C   0  0  2  0  0  0  0  0  0  0  0  0
   17.4238   -7.7101  -10.6382 N   0  0  0  0  0  0  0  0  0  0  0  0
   16.3840   -5.5860  -10.1006 C   0  0  0  0  0  0  0  0  0  0  0  0
   15.2787   -4.8283  -10.4495 O   0  0  0  0  0  0  0  0  0  0  0  0
   17.4438   -4.9922   -9.7873 O   0  0  0  0  0  0  0  0  0  0  0  0
  1  2  1  0
  2  3  1  0
  3  5  1  0
  3  4  1  1
  5  7  1  0
  5  6  1  6
  7  8  2  0
 10  9  1  0
 11 10  2  0
 12 10  1  0
 14 13  1  6
 13 12  1  0
 15 14  1  0
 15  7  1  0
 16 14  1  0
 17 16  2  0
 19 18  1  0
 19 20  2  0
 21 19  1  0
 22 21  1  1
 22 23  1  0
 23 16  1  0
 24 25  1  0
 24 22  1  0
 26 24  2  0
M  END
$$$$
