YSP.pdb
     RDKit          3D

 26 27  0  0  1  0  0  0  0  0999 V2000
   10.6605  -14.3985   30.2482 O   0  0  0  0  0  0  0  0  0  0  0  0
   10.2049  -15.1204   29.1509 C   0  0  0  0  0  0  0  0  0  0  0  0
    9.8040  -14.4426   28.0150 C   0  0  0  0  0  0  0  0  0  0  0  0
    9.3517  -15.1649   26.9264 C   0  0  0  0  0  0  0  0  0  0  0  0
    9.2870  -16.5401   26.9364 C   0  0  0  0  0  0  0  0  0  0  0  0
    8.7952  -17.2988   25.7709 C   0  0  0  0  0  0  0  0  0  0  0  0
    7.3249  -17.1088   25.5400 C   0  0  2  0  0  0  0  0  0  0  0  0
    6.6700  -18.4118   25.4197 N   0  0  0  0  0  0  0  0  0  0  0  0
    7.1215  -16.3531   24.2849 C   0  0  0  0  0  0  0  0  0  0  0  0
    6.7259  -16.8703   23.2289 O   0  0  0  0  0  0  0  0  0  0  0  0
    9.6883  -17.2254   28.0739 C   0  0  0  0  0  0  0  0  0  0  0  0
   10.1362  -16.4982   29.1499 C   0  0  0  0  0  0  0  0  0  0  0  0
    8.8177  -12.7669   24.0494 O   0  0  0  0  0  0  0  0  0  0  0  0
    7.5577  -12.7490   23.4015 C   0  0  0  0  0  0  0  0  0  0  0  0
    7.2960  -14.1787   22.9910 C   0  0  2  0  0  0  0  0  0  0  0  0
    7.3846  -14.9457   24.2460 N   0  0  0  0  0  0  0  0  0  0  0  0
    8.2106  -14.7108   21.9838 C   0  0  0  0  0  0  0  0  0  0  0  0
    8.8100  -15.7988   22.3083 O   0  0  0  0  0  0  0  0  0  0  0  0
    8.5112  -14.1838   20.7148 N   0  0  0  0  0  0  0  0  0  0  0  0
    8.0528  -12.8631   20.2446 C   0  0  0  0  0  0  0  0  0  0  0  0
    7.8391  -13.0640   18.7746 C   0  0  0  0  0  0  0  0  0  0  0  0
    8.3405  -14.4442   18.4406 C   0  0  0  0  0  0  0  0  0  0  0  0
    9.2879  -14.6929   19.6045 C   0  0  1  0  0  0  0  0  0  0  0  0
   10.5693  -13.9322   19.4075 C   0  0  0  0  0  0  0  0  0  0  0  0
   11.4118  -14.4382   18.6245 O   0  0  0  0  0  0  0  0  0  0  0  0
   10.8715  -12.7428   20.0178 O   0  0  0  0  0  0  0  0  0  0  0  0
  2  3  2  0
  2  1  1  0
  4  3  1  0
  5  4  2  0
  6  5  1  0
  7  6  1  0
  7  9  1  0
  7  8  1  6
  9 16  1  0
  9 10  2  0
 11  5  1  0
 11 12  2  0
 12  2  1  0
 14 13  1  0
 15 14  1  1
 16 15  1  0
 17 15  1  0
 17 18  2  0
 19 17  1  0
 20 19  1  0
 21 20  1  0
 21 22  1  0
 22 23  1  0
 23 19  1  0
 23 24  1  6
 25 24  2  0
 26 24  1  0
M  END
$$$$
