YSP.pdb
     RDKit          3D

 26 27  0  0  1  0  0  0  0  0999 V2000
    8.3796  -10.2050   23.6814 O   0  0  0  0  0  0  0  0  0  0  0  0
    7.9275  -11.2600   22.8968 C   0  0  0  0  0  0  0  0  0  0  0  0
    7.0301  -12.1646   23.4324 C   0  0  0  0  0  0  0  0  0  0  0  0
    6.5835  -13.2120   22.6483 C   0  0  0  0  0  0  0  0  0  0  0  0
    7.0040  -13.3844   21.3487 C   0  0  0  0  0  0  0  0  0  0  0  0
    6.5256  -14.5105   20.5249 C   0  0  0  0  0  0  0  0  0  0  0  0
    7.2517  -15.7895   20.8224 C   0  0  2  0  0  0  0  0  0  0  0  0
    6.7155  -16.8681   19.9916 N   0  0  0  0  0  0  0  0  0  0  0  0
    7.0586  -16.1406   22.2461 C   0  0  0  0  0  0  0  0  0  0  0  0
    5.9992  -16.5967   22.7029 O   0  0  0  0  0  0  0  0  0  0  0  0
    7.9045  -12.4792   20.8062 C   0  0  0  0  0  0  0  0  0  0  0  0
    8.3420  -11.4421   21.5937 C   0  0  0  0  0  0  0  0  0  0  0  0
    8.0057  -18.4874   25.7253 O   0  0  0  0  0  0  0  0  0  0  0  0
    8.0371  -17.9732   24.4054 C   0  0  0  0  0  0  0  0  0  0  0  0
    8.0457  -16.4708   24.5590 C   0  0  2  0  0  0  0  0  0  0  0  0
    8.1294  -15.9587   23.1800 N   0  0  0  0  0  0  0  0  0  0  0  0
    9.1278  -15.9391   25.3840 C   0  0  0  0  0  0  0  0  0  0  0  0
   10.2460  -15.7677   24.7768 O   0  0  0  0  0  0  0  0  0  0  0  0
    9.0953  -15.5944   26.7472 N   0  0  0  0  0  0  0  0  0  0  0  0
    7.9336  -15.8277   27.6257 C   0  0  0  0  0  0  0  0  0  0  0  0
    7.9698  -14.6702   28.5774 C   0  0  0  0  0  0  0  0  0  0  0  0
    9.2437  -13.9146   28.3046 C   0  0  0  0  0  0  0  0  0  0  0  0
   10.0753  -14.9929   27.6266 C   0  0  1  0  0  0  0  0  0  0  0  0
   10.6017  -15.9652   28.6450 C   0  0  0  0  0  0  0  0  0  0  0  0
   10.0654  -17.1012   28.6712 O   0  0  0  0  0  0  0  0  0  0  0  0
   11.6114  -15.6951   29.5315 O   0  0  0  0  0  0  0  0  0  0  0  0
  2  3  2  0
  2  1  1  0
  4  3  1  0
  5  4  2  0
  6  5  1  0
  7  6  1  0
  7  9  1  0
  7  8  1  6
  9 16  1  0
  9 10  2  0
 11  5  1  0
 11 12  2  0
 12  2  1  0
 14 13  1  0
 15 14  1  6
 16 15  1  0
 17 15  1  0
 17 18  2  0
 19 17  1  0
 20 19  1  0
 21 20  1  0
 21 22  1  0
 22 23  1  0
 23 19  1  0
 23 24  1  1
 25 24  2  0
 26 24  1  0
M  END
$$$$
