YSP.pdb
     RDKit          3D

 26 27  0  0  1  0  0  0  0  0999 V2000
    8.8613  -13.3308   15.5540 O   0  0  0  0  0  0  0  0  0  0  0  0
    8.5176  -13.5394   16.8850 C   0  0  0  0  0  0  0  0  0  0  0  0
    7.2331  -13.2494   17.3049 C   0  0  0  0  0  0  0  0  0  0  0  0
    6.8962  -13.4584   18.6292 C   0  0  0  0  0  0  0  0  0  0  0  0
    7.7998  -13.9468   19.5460 C   0  0  0  0  0  0  0  0  0  0  0  0
    7.4299  -14.1582   20.9581 C   0  0  0  0  0  0  0  0  0  0  0  0
    7.4274  -15.6090   21.3407 C   0  0  2  0  0  0  0  0  0  0  0  0
    6.3669  -16.3104   20.6167 N   0  0  0  0  0  0  0  0  0  0  0  0
    7.1765  -15.7303   22.7933 C   0  0  0  0  0  0  0  0  0  0  0  0
    6.0661  -15.5474   23.3155 O   0  0  0  0  0  0  0  0  0  0  0  0
    9.0904  -14.2396   19.1298 C   0  0  0  0  0  0  0  0  0  0  0  0
    9.4149  -14.0284   17.8117 C   0  0  0  0  0  0  0  0  0  0  0  0
    7.2128  -17.8503   26.6206 O   0  0  0  0  0  0  0  0  0  0  0  0
    7.3238  -17.5936   25.2315 C   0  0  0  0  0  0  0  0  0  0  0  0
    8.0260  -16.2609   25.1235 C   0  0  2  0  0  0  0  0  0  0  0  0
    8.2480  -16.0761   23.6786 N   0  0  0  0  0  0  0  0  0  0  0  0
    9.2804  -16.1602   25.8654 C   0  0  0  0  0  0  0  0  0  0  0  0
   10.3151  -16.6150   25.2564 O   0  0  0  0  0  0  0  0  0  0  0  0
    9.4920  -15.6307   27.1512 N   0  0  0  0  0  0  0  0  0  0  0  0
    8.4122  -15.1212   28.0173 C   0  0  0  0  0  0  0  0  0  0  0  0
    9.0587  -13.9945   28.7653 C   0  0  0  0  0  0  0  0  0  0  0  0
   10.5229  -14.0144   28.4138 C   0  0  0  0  0  0  0  0  0  0  0  0
   10.6855  -15.4544   27.9510 C   0  0  1  0  0  0  0  0  0  0  0  0
   10.7233  -16.3825   29.1328 C   0  0  0  0  0  0  0  0  0  0  0  0
    9.7064  -17.0954   29.3237 O   0  0  0  0  0  0  0  0  0  0  0  0
   11.7781  -16.4975   30.0003 O   0  0  0  0  0  0  0  0  0  0  0  0
  2  3  2  0
  2  1  1  0
  4  3  1  0
  5  4  2  0
  6  5  1  0
  7  6  1  0
  7  9  1  0
  7  8  1  6
  9 16  1  0
  9 10  2  0
 11  5  1  0
 11 12  2  0
 12  2  1  0
 14 13  1  0
 15 14  1  6
 16 15  1  0
 17 15  1  0
 17 18  2  0
 19 17  1  0
 20 19  1  0
 21 20  1  0
 21 22  1  0
 22 23  1  0
 23 19  1  0
 23 24  1  1
 25 24  2  0
 26 24  1  0
M  END
$$$$
