YSP.pdb
     RDKit          3D

 26 27  0  0  1  0  0  0  0  0999 V2000
    5.6823  -10.7626   28.1575 O   0  0  0  0  0  0  0  0  0  0  0  0
    6.2808  -11.7685   27.4071 C   0  0  0  0  0  0  0  0  0  0  0  0
    5.8140  -12.0299   26.1327 C   0  0  0  0  0  0  0  0  0  0  0  0
    6.4124  -13.0311   25.3905 C   0  0  0  0  0  0  0  0  0  0  0  0
    7.4601  -13.7782   25.8799 C   0  0  0  0  0  0  0  0  0  0  0  0
    8.0850  -14.8489   25.0806 C   0  0  0  0  0  0  0  0  0  0  0  0
    7.0763  -15.7940   24.4970 C   0  0  2  0  0  0  0  0  0  0  0  0
    6.5649  -16.6803   25.5429 N   0  0  0  0  0  0  0  0  0  0  0  0
    7.7239  -16.6132   23.4496 C   0  0  0  0  0  0  0  0  0  0  0  0
    8.2435  -17.7187   23.6665 O   0  0  0  0  0  0  0  0  0  0  0  0
    7.9327  -13.5199   27.1584 C   0  0  0  0  0  0  0  0  0  0  0  0
    7.3312  -12.5229   27.8874 C   0  0  0  0  0  0  0  0  0  0  0  0
    7.1045  -16.6457   19.1910 O   0  0  0  0  0  0  0  0  0  0  0  0
    8.2565  -16.0782   19.7898 C   0  0  0  0  0  0  0  0  0  0  0  0
    8.4928  -16.8803   21.0474 C   0  0  2  0  0  0  0  0  0  0  0  0
    7.7743  -16.1392   22.0989 N   0  0  0  0  0  0  0  0  0  0  0  0
    9.8962  -17.0722   21.4047 C   0  0  0  0  0  0  0  0  0  0  0  0
   10.3473  -16.2724   22.3021 O   0  0  0  0  0  0  0  0  0  0  0  0
   10.8043  -18.0164   20.8928 N   0  0  0  0  0  0  0  0  0  0  0  0
   10.4528  -19.0271   19.8775 C   0  0  0  0  0  0  0  0  0  0  0  0
   11.2981  -20.2090   20.2455 C   0  0  0  0  0  0  0  0  0  0  0  0
   12.2151  -19.7671   21.3554 C   0  0  0  0  0  0  0  0  0  0  0  0
   12.2082  -18.2601   21.1480 C   0  0  1  0  0  0  0  0  0  0  0  0
   13.0743  -17.8893   19.9767 C   0  0  0  0  0  0  0  0  0  0  0  0
   12.5350  -17.9236   18.8424 O   0  0  0  0  0  0  0  0  0  0  0  0
   14.3921  -17.5234   20.0666 O   0  0  0  0  0  0  0  0  0  0  0  0
  2  3  2  0
  2  1  1  0
  4  3  1  0
  5  4  2  0
  6  5  1  0
  7  6  1  0
  7  9  1  0
  7  8  1  1
  9 16  1  0
  9 10  2  0
 11  5  1  0
 11 12  2  0
 12  2  1  0
 14 13  1  0
 15 14  1  6
 16 15  1  0
 17 15  1  0
 17 18  2  0
 19 17  1  0
 20 19  1  0
 21 20  1  0
 21 22  1  0
 22 23  1  0
 23 19  1  0
 23 24  1  6
 25 24  2  0
 26 24  1  0
M  END
$$$$
