YSP.pdb
     RDKit          3D

 26 27  0  0  1  0  0  0  0  0999 V2000
   11.1826  -14.7626   30.4861 O   0  0  0  0  0  0  0  0  0  0  0  0
   10.6012  -15.3929   29.3917 C   0  0  0  0  0  0  0  0  0  0  0  0
   10.0625  -14.6247   28.3767 C   0  0  0  0  0  0  0  0  0  0  0  0
    9.4854  -15.2560   27.2906 C   0  0  0  0  0  0  0  0  0  0  0  0
    9.4291  -16.6277   27.1863 C   0  0  0  0  0  0  0  0  0  0  0  0
    8.8037  -17.2891   26.0257 C   0  0  0  0  0  0  0  0  0  0  0  0
    7.3159  -17.0986   25.9881 C   0  0  2  0  0  0  0  0  0  0  0  0
    6.6499  -18.4014   25.9715 N   0  0  0  0  0  0  0  0  0  0  0  0
    6.9494  -16.3579   24.7614 C   0  0  0  0  0  0  0  0  0  0  0  0
    6.2909  -16.8512   23.8330 O   0  0  0  0  0  0  0  0  0  0  0  0
    9.9683  -17.4034   28.2022 C   0  0  0  0  0  0  0  0  0  0  0  0
   10.5395  -16.7662   29.2769 C   0  0  0  0  0  0  0  0  0  0  0  0
    8.8626  -12.8656   24.0033 O   0  0  0  0  0  0  0  0  0  0  0  0
    7.4876  -12.8325   23.6630 C   0  0  0  0  0  0  0  0  0  0  0  0
    7.1176  -14.2616   23.3438 C   0  0  2  0  0  0  0  0  0  0  0  0
    7.3585  -14.9949   24.5989 N   0  0  0  0  0  0  0  0  0  0  0  0
    7.8573  -14.8596   22.2350 C   0  0  0  0  0  0  0  0  0  0  0  0
    8.3462  -16.0238   22.4673 O   0  0  0  0  0  0  0  0  0  0  0  0
    8.0963  -14.3228   20.9571 N   0  0  0  0  0  0  0  0  0  0  0  0
    7.7327  -12.9489   20.5625 C   0  0  0  0  0  0  0  0  0  0  0  0
    7.3714  -13.0794   19.1135 C   0  0  0  0  0  0  0  0  0  0  0  0
    7.7008  -14.4901   18.7021 C   0  0  0  0  0  0  0  0  0  0  0  0
    8.7173  -14.8683   19.7688 C   0  0  1  0  0  0  0  0  0  0  0  0
   10.0461  -14.2300   19.4745 C   0  0  0  0  0  0  0  0  0  0  0  0
   10.8149  -14.8564   18.7029 O   0  0  0  0  0  0  0  0  0  0  0  0
   10.4647  -13.0296   19.9864 O   0  0  0  0  0  0  0  0  0  0  0  0
  2  3  2  0
  2  1  1  0
  4  3  1  0
  5  4  2  0
  6  5  1  0
  7  6  1  0
  7  9  1  0
  7  8  1  6
  9 16  1  0
  9 10  2  0
 11  5  1  0
 11 12  2  0
 12  2  1  0
 14 13  1  0
 15 14  1  1
 16 15  1  0
 17 15  1  0
 17 18  2  0
 19 17  1  0
 20 19  1  0
 21 20  1  0
 21 22  1  0
 22 23  1  0
 23 19  1  0
 23 24  1  6
 25 24  2  0
 26 24  1  0
M  END
$$$$
