YSP.pdb
     RDKit          3D

 26 27  0  0  1  0  0  0  0  0999 V2000
   11.2395  -14.1620   29.8159 O   0  0  0  0  0  0  0  0  0  0  0  0
   10.6502  -15.1309   29.0116 C   0  0  0  0  0  0  0  0  0  0  0  0
   10.3868  -16.3802   29.5409 C   0  0  0  0  0  0  0  0  0  0  0  0
    9.8007  -17.3402   28.7372 C   0  0  0  0  0  0  0  0  0  0  0  0
    9.4700  -17.0927   27.4238 C   0  0  0  0  0  0  0  0  0  0  0  0
    8.8518  -18.1281   26.5745 C   0  0  0  0  0  0  0  0  0  0  0  0
    7.3625  -17.9759   26.4745 C   0  0  2  0  0  0  0  0  0  0  0  0
    6.7396  -19.2907   26.3184 N   0  0  0  0  0  0  0  0  0  0  0  0
    7.0347  -17.1477   25.2937 C   0  0  0  0  0  0  0  0  0  0  0  0
    6.7775  -17.6186   24.1752 O   0  0  0  0  0  0  0  0  0  0  0  0
    9.7321  -15.8404   26.8875 C   0  0  0  0  0  0  0  0  0  0  0  0
   10.3146  -14.8936   27.6947 C   0  0  0  0  0  0  0  0  0  0  0  0
    8.1062  -13.2822   25.3538 O   0  0  0  0  0  0  0  0  0  0  0  0
    6.8206  -13.4518   24.7827 C   0  0  0  0  0  0  0  0  0  0  0  0
    6.8085  -14.8568   24.2289 C   0  0  2  0  0  0  0  0  0  0  0  0
    7.0022  -15.7202   25.4071 N   0  0  0  0  0  0  0  0  0  0  0  0
    7.8165  -15.1280   23.2068 C   0  0  0  0  0  0  0  0  0  0  0  0
    8.6468  -16.0651   23.4913 O   0  0  0  0  0  0  0  0  0  0  0  0
    7.9866  -14.4962   21.9618 N   0  0  0  0  0  0  0  0  0  0  0  0
    7.4190  -13.1768   21.6262 C   0  0  0  0  0  0  0  0  0  0  0  0
    7.1025  -13.2875   20.1652 C   0  0  0  0  0  0  0  0  0  0  0  0
    7.6533  -14.6073   19.6934 C   0  0  0  0  0  0  0  0  0  0  0  0
    8.7015  -14.8775   20.7622 C   0  0  1  0  0  0  0  0  0  0  0  0
    9.9186  -14.0269   20.5280 C   0  0  0  0  0  0  0  0  0  0  0  0
   10.6264  -14.3164   19.5310 O   0  0  0  0  0  0  0  0  0  0  0  0
   10.2984  -12.9747   21.3198 O   0  0  0  0  0  0  0  0  0  0  0  0
  2  3  2  0
  2  1  1  0
  4  3  1  0
  5  4  2  0
  6  5  1  0
  7  6  1  0
  7  9  1  0
  7  8  1  6
  9 16  1  0
  9 10  2  0
 11  5  1  0
 11 12  2  0
 12  2  1  0
 14 13  1  0
 15 14  1  1
 16 15  1  0
 17 15  1  0
 17 18  2  0
 19 17  1  0
 20 19  1  0
 21 20  1  0
 21 22  1  0
 22 23  1  0
 23 19  1  0
 23 24  1  6
 25 24  2  0
 26 24  1  0
M  END
$$$$
