YSP.pdb
     RDKit          3D

 26 27  0  0  1  0  0  0  0  0999 V2000
    6.2841  -10.3394   28.1505 O   0  0  0  0  0  0  0  0  0  0  0  0
    6.6610  -11.4496   27.4033 C   0  0  0  0  0  0  0  0  0  0  0  0
    6.0770  -11.6636   26.1690 C   0  0  0  0  0  0  0  0  0  0  0  0
    6.4551  -12.7690   25.4297 C   0  0  0  0  0  0  0  0  0  0  0  0
    7.3959  -13.6659   25.8834 C   0  0  0  0  0  0  0  0  0  0  0  0
    7.7850  -14.8457   25.0882 C   0  0  0  0  0  0  0  0  0  0  0  0
    6.6034  -15.5517   24.4910 C   0  0  2  0  0  0  0  0  0  0  0  0
    6.1793  -16.6401   25.3723 N   0  0  0  0  0  0  0  0  0  0  0  0
    6.9854  -16.1189   23.1795 C   0  0  0  0  0  0  0  0  0  0  0  0
    7.2945  -17.3084   23.0100 O   0  0  0  0  0  0  0  0  0  0  0  0
    7.9852  -13.4558   27.1216 C   0  0  0  0  0  0  0  0  0  0  0  0
    7.6026  -12.3544   27.8480 C   0  0  0  0  0  0  0  0  0  0  0  0
    8.2302  -14.9235   18.6599 O   0  0  0  0  0  0  0  0  0  0  0  0
    7.6116  -14.5158   19.8677 C   0  0  0  0  0  0  0  0  0  0  0  0
    7.5973  -15.7436   20.7469 C   0  0  2  0  0  0  0  0  0  0  0  0
    7.0119  -15.2816   22.0176 N   0  0  0  0  0  0  0  0  0  0  0  0
    8.9017  -16.3648   20.9639 C   0  0  0  0  0  0  0  0  0  0  0  0
    9.5149  -15.9933   22.0289 O   0  0  0  0  0  0  0  0  0  0  0  0
    9.5608  -17.3109   20.1584 N   0  0  0  0  0  0  0  0  0  0  0  0
    8.9863  -17.8828   18.9261 C   0  0  0  0  0  0  0  0  0  0  0  0
    9.5189  -19.2838   18.9029 C   0  0  0  0  0  0  0  0  0  0  0  0
   10.5047  -19.3997   20.0355 C   0  0  0  0  0  0  0  0  0  0  0  0
   10.8624  -17.9373   20.2532 C   0  0  1  0  0  0  0  0  0  0  0  0
   11.8035  -17.4638   19.1809 C   0  0  0  0  0  0  0  0  0  0  0  0
   11.2821  -17.0363   18.1205 O   0  0  0  0  0  0  0  0  0  0  0  0
   13.1700  -17.4697   19.2848 O   0  0  0  0  0  0  0  0  0  0  0  0
  2  3  2  0
  2  1  1  0
  4  3  1  0
  5  4  2  0
  6  5  1  0
  7  6  1  0
  7  9  1  0
  7  8  1  1
  9 16  1  0
  9 10  2  0
 11  5  1  0
 11 12  2  0
 12  2  1  0
 14 13  1  0
 15 14  1  6
 16 15  1  0
 17 15  1  0
 17 18  2  0
 19 17  1  0
 20 19  1  0
 21 20  1  0
 21 22  1  0
 22 23  1  0
 23 19  1  0
 23 24  1  6
 25 24  2  0
 26 24  1  0
M  END
$$$$
