YSP.pdb
     RDKit          3D

 26 27  0  0  1  0  0  0  0  0999 V2000
   10.9575  -14.4177   30.5598 O   0  0  0  0  0  0  0  0  0  0  0  0
   10.4469  -15.2123   29.5396 C   0  0  0  0  0  0  0  0  0  0  0  0
    9.9689  -14.6120   28.3900 C   0  0  0  0  0  0  0  0  0  0  0  0
    9.4621  -15.4063   27.3784 C   0  0  0  0  0  0  0  0  0  0  0  0
    9.4174  -16.7788   27.4783 C   0  0  0  0  0  0  0  0  0  0  0  0
    8.8671  -17.6147   26.3948 C   0  0  0  0  0  0  0  0  0  0  0  0
    7.3745  -17.5068   26.2869 C   0  0  2  0  0  0  0  0  0  0  0  0
    6.7860  -18.8439   26.2038 N   0  0  0  0  0  0  0  0  0  0  0  0
    7.0267  -16.7537   25.0623 C   0  0  0  0  0  0  0  0  0  0  0  0
    6.5115  -17.2731   24.0604 O   0  0  0  0  0  0  0  0  0  0  0  0
    9.8960  -17.3865   28.6299 C   0  0  0  0  0  0  0  0  0  0  0  0
   10.3975  -16.5881   29.6291 C   0  0  0  0  0  0  0  0  0  0  0  0
    8.6471  -13.1319   24.5332 O   0  0  0  0  0  0  0  0  0  0  0  0
    7.2804  -13.1378   24.1592 C   0  0  0  0  0  0  0  0  0  0  0  0
    6.9735  -14.5668   23.7789 C   0  0  2  0  0  0  0  0  0  0  0  0
    7.2832  -15.3463   24.9902 N   0  0  0  0  0  0  0  0  0  0  0  0
    7.7127  -15.0726   22.6248 C   0  0  0  0  0  0  0  0  0  0  0  0
    8.1462  -16.2758   22.7364 O   0  0  0  0  0  0  0  0  0  0  0  0
    8.0036  -14.4106   21.4183 N   0  0  0  0  0  0  0  0  0  0  0  0
    7.7385  -12.9789   21.1825 C   0  0  0  0  0  0  0  0  0  0  0  0
    7.3879  -12.9177   19.7264 C   0  0  0  0  0  0  0  0  0  0  0  0
    7.6268  -14.2913   19.1571 C   0  0  0  0  0  0  0  0  0  0  0  0
    8.6018  -14.8577   20.1783 C   0  0  1  0  0  0  0  0  0  0  0  0
    9.9742  -14.2823   19.9662 C   0  0  0  0  0  0  0  0  0  0  0  0
   10.6284  -14.7273   18.9900 O   0  0  0  0  0  0  0  0  0  0  0  0
   10.5470  -13.3205   20.7569 O   0  0  0  0  0  0  0  0  0  0  0  0
  2  3  2  0
  2  1  1  0
  4  3  1  0
  5  4  2  0
  6  5  1  0
  7  6  1  0
  7  9  1  0
  7  8  1  6
  9 16  1  0
  9 10  2  0
 11  5  1  0
 11 12  2  0
 12  2  1  0
 14 13  1  0
 15 14  1  1
 16 15  1  0
 17 15  1  0
 17 18  2  0
 19 17  1  0
 20 19  1  0
 21 20  1  0
 21 22  1  0
 22 23  1  0
 23 19  1  0
 23 24  1  6
 25 24  2  0
 26 24  1  0
M  END
$$$$
