YSP.pdb
     RDKit          3D

 26 27  0  0  1  0  0  0  0  0999 V2000
   10.8223  -14.1795   30.4483 O   0  0  0  0  0  0  0  0  0  0  0  0
   10.3705  -14.5617   29.1903 C   0  0  0  0  0  0  0  0  0  0  0  0
   10.4340  -15.8932   28.8250 C   0  0  0  0  0  0  0  0  0  0  0  0
    9.9835  -16.2684   27.5729 C   0  0  0  0  0  0  0  0  0  0  0  0
    9.4728  -15.3576   26.6757 C   0  0  0  0  0  0  0  0  0  0  0  0
    9.0024  -15.7696   25.3398 C   0  0  0  0  0  0  0  0  0  0  0  0
    7.5281  -15.5574   25.1587 C   0  0  2  0  0  0  0  0  0  0  0  0
    6.7859  -16.4592   26.0401 N   0  0  0  0  0  0  0  0  0  0  0  0
    7.1616  -15.8500   23.7559 C   0  0  0  0  0  0  0  0  0  0  0  0
    6.7202  -16.9455   23.3763 O   0  0  0  0  0  0  0  0  0  0  0  0
    9.4067  -14.0199   27.0373 C   0  0  0  0  0  0  0  0  0  0  0  0
    9.8568  -13.6577   28.2837 C   0  0  0  0  0  0  0  0  0  0  0  0
    8.6583  -13.4912   20.6518 O   0  0  0  0  0  0  0  0  0  0  0  0
    7.2781  -13.8108   20.6281 C   0  0  0  0  0  0  0  0  0  0  0  0
    7.1631  -15.1491   21.3184 C   0  0  2  0  0  0  0  0  0  0  0  0
    7.3099  -14.8397   22.7515 N   0  0  0  0  0  0  0  0  0  0  0  0
    8.1385  -16.1504   20.8940 C   0  0  0  0  0  0  0  0  0  0  0  0
    9.0677  -16.4042   21.7428 O   0  0  0  0  0  0  0  0  0  0  0  0
    8.1836  -16.8641   19.6828 N   0  0  0  0  0  0  0  0  0  0  0  0
    7.2535  -16.6370   18.5608 C   0  0  0  0  0  0  0  0  0  0  0  0
    7.0858  -17.9988   17.9573 C   0  0  0  0  0  0  0  0  0  0  0  0
    8.0537  -18.9145   18.6591 C   0  0  0  0  0  0  0  0  0  0  0  0
    9.0602  -17.9082   19.1961 C   0  0  1  0  0  0  0  0  0  0  0  0
    9.9608  -17.4292   18.0920 C   0  0  0  0  0  0  0  0  0  0  0  0
   10.8275  -18.2396   17.6787 O   0  0  0  0  0  0  0  0  0  0  0  0
    9.8977  -16.1861   17.5185 O   0  0  0  0  0  0  0  0  0  0  0  0
  2  3  2  0
  2  1  1  0
  4  3  1  0
  5  4  2  0
  6  5  1  0
  7  6  1  0
  7  9  1  0
  7  8  1  1
  9 16  1  0
  9 10  2  0
 11  5  1  0
 11 12  2  0
 12  2  1  0
 14 13  1  0
 15 14  1  6
 16 15  1  0
 17 15  1  0
 17 18  2  0
 19 17  1  0
 20 19  1  0
 21 20  1  0
 21 22  1  0
 22 23  1  0
 23 19  1  0
 23 24  1  6
 25 24  2  0
 26 24  1  0
M  END
$$$$
