YSP.pdb
     RDKit          3D

 26 27  0  0  1  0  0  0  0  0999 V2000
   11.1210  -14.8246   30.3317 O   0  0  0  0  0  0  0  0  0  0  0  0
   10.5396  -15.3290   29.1740 C   0  0  0  0  0  0  0  0  0  0  0  0
   10.3409  -16.6917   29.0557 C   0  0  0  0  0  0  0  0  0  0  0  0
    9.7624  -17.1885   27.9026 C   0  0  0  0  0  0  0  0  0  0  0  0
    9.3769  -16.3691   26.8656 C   0  0  0  0  0  0  0  0  0  0  0  0
    8.7675  -16.9125   25.6371 C   0  0  0  0  0  0  0  0  0  0  0  0
    7.2948  -16.6375   25.5557 C   0  0  2  0  0  0  0  0  0  0  0  0
    6.5495  -17.8912   25.6742 N   0  0  0  0  0  0  0  0  0  0  0  0
    6.9853  -16.0183   24.2486 C   0  0  0  0  0  0  0  0  0  0  0  0
    6.4087  -16.6147   23.3261 O   0  0  0  0  0  0  0  0  0  0  0  0
    9.5739  -15.0006   26.9791 C   0  0  0  0  0  0  0  0  0  0  0  0
   10.1494  -14.5172   28.1290 C   0  0  0  0  0  0  0  0  0  0  0  0
    8.7880  -12.5378   23.4259 O   0  0  0  0  0  0  0  0  0  0  0  0
    7.4808  -12.5816   22.8811 C   0  0  0  0  0  0  0  0  0  0  0  0
    7.1836  -14.0466   22.6657 C   0  0  2  0  0  0  0  0  0  0  0  0
    7.3554  -14.6580   23.9952 N   0  0  0  0  0  0  0  0  0  0  0  0
    8.0229  -14.7086   21.6700 C   0  0  0  0  0  0  0  0  0  0  0  0
    8.6130  -15.7752   22.0729 O   0  0  0  0  0  0  0  0  0  0  0  0
    8.2606  -14.3256   20.3376 N   0  0  0  0  0  0  0  0  0  0  0  0
    7.7567  -13.0746   19.7404 C   0  0  0  0  0  0  0  0  0  0  0  0
    7.4871  -13.4456   18.3134 C   0  0  0  0  0  0  0  0  0  0  0  0
    8.0021  -14.8471   18.1171 C   0  0  0  0  0  0  0  0  0  0  0  0
    9.0012  -14.9465   19.2599 C   0  0  1  0  0  0  0  0  0  0  0  0
   10.2579  -14.1936   18.9228 C   0  0  0  0  0  0  0  0  0  0  0  0
   11.1243  -14.8116   18.2547 O   0  0  0  0  0  0  0  0  0  0  0  0
   10.5139  -12.8989   19.2923 O   0  0  0  0  0  0  0  0  0  0  0  0
  2  3  2  0
  2  1  1  0
  4  3  1  0
  5  4  2  0
  6  5  1  0
  7  6  1  0
  7  9  1  0
  7  8  1  6
  9 16  1  0
  9 10  2  0
 11  5  1  0
 11 12  2  0
 12  2  1  0
 14 13  1  0
 15 14  1  1
 16 15  1  0
 17 15  1  0
 17 18  2  0
 19 17  1  0
 20 19  1  0
 21 20  1  0
 21 22  1  0
 22 23  1  0
 23 19  1  0
 23 24  1  6
 25 24  2  0
 26 24  1  0
M  END
$$$$
