YSP.pdb
     RDKit          3D

 26 27  0  0  1  0  0  0  0  0999 V2000
   10.8623  -14.5271   30.9472 O   0  0  0  0  0  0  0  0  0  0  0  0
   10.4235  -14.9192   29.6875 C   0  0  0  0  0  0  0  0  0  0  0  0
   10.4910  -16.2535   29.3332 C   0  0  0  0  0  0  0  0  0  0  0  0
   10.0534  -16.6385   28.0796 C   0  0  0  0  0  0  0  0  0  0  0  0
    9.5517  -15.7347   27.1702 C   0  0  0  0  0  0  0  0  0  0  0  0
    9.0951  -16.1573   25.8328 C   0  0  0  0  0  0  0  0  0  0  0  0
    7.6001  -16.1452   25.7053 C   0  0  2  0  0  0  0  0  0  0  0  0
    7.0268  -17.2352   26.4953 N   0  0  0  0  0  0  0  0  0  0  0  0
    7.2297  -16.3363   24.2861 C   0  0  0  0  0  0  0  0  0  0  0  0
    6.8903  -17.4289   23.8067 O   0  0  0  0  0  0  0  0  0  0  0  0
    9.4816  -14.3943   27.5207 C   0  0  0  0  0  0  0  0  0  0  0  0
    9.9189  -14.0224   28.7688 C   0  0  0  0  0  0  0  0  0  0  0  0
    8.4852  -13.6118   21.3543 O   0  0  0  0  0  0  0  0  0  0  0  0
    7.1242  -14.0055   21.3674 C   0  0  0  0  0  0  0  0  0  0  0  0
    7.1163  -15.4075   21.9288 C   0  0  2  0  0  0  0  0  0  0  0  0
    7.2515  -15.2236   23.3844 N   0  0  0  0  0  0  0  0  0  0  0  0
    8.1608  -16.2876   21.4106 C   0  0  0  0  0  0  0  0  0  0  0  0
    9.0859  -16.5916   22.2474 O   0  0  0  0  0  0  0  0  0  0  0  0
    8.2757  -16.8382   20.1214 N   0  0  0  0  0  0  0  0  0  0  0  0
    7.3881  -16.4878   18.9968 C   0  0  0  0  0  0  0  0  0  0  0  0
    7.2819  -17.7638   18.2173 C   0  0  0  0  0  0  0  0  0  0  0  0
    8.2432  -18.7420   18.8393 C   0  0  0  0  0  0  0  0  0  0  0  0
    9.1993  -17.7925   19.5454 C   0  0  1  0  0  0  0  0  0  0  0  0
   10.1327  -17.1567   18.5534 C   0  0  0  0  0  0  0  0  0  0  0  0
    9.6791  -16.1906   17.8902 O   0  0  0  0  0  0  0  0  0  0  0  0
   11.4241  -17.5577   18.3303 O   0  0  0  0  0  0  0  0  0  0  0  0
  2  3  2  0
  2  1  1  0
  4  3  1  0
  5  4  2  0
  6  5  1  0
  7  6  1  0
  7  9  1  0
  7  8  1  1
  9 16  1  0
  9 10  2  0
 11  5  1  0
 11 12  2  0
 12  2  1  0
 14 13  1  0
 15 14  1  6
 16 15  1  0
 17 15  1  0
 17 18  2  0
 19 17  1  0
 20 19  1  0
 21 20  1  0
 21 22  1  0
 22 23  1  0
 23 19  1  0
 23 24  1  6
 25 24  2  0
 26 24  1  0
M  END
$$$$
