YSP.pdb
     RDKit          3D

 26 27  0  0  1  0  0  0  0  0999 V2000
    9.9419  -15.3071   30.2586 O   0  0  0  0  0  0  0  0  0  0  0  0
   10.6053  -15.6116   29.0753 C   0  0  0  0  0  0  0  0  0  0  0  0
   10.9692  -16.9207   28.8220 C   0  0  0  0  0  0  0  0  0  0  0  0
   11.6286  -17.2186   27.6440 C   0  0  0  0  0  0  0  0  0  0  0  0
   11.9358  -16.2522   26.7128 C   0  0  0  0  0  0  0  0  0  0  0  0
   12.6465  -16.5819   25.4630 C   0  0  0  0  0  0  0  0  0  0  0  0
   11.7559  -17.2426   24.4523 C   0  0  2  0  0  0  0  0  0  0  0  0
   12.5580  -17.7337   23.3313 N   0  0  0  0  0  0  0  0  0  0  0  0
   10.7775  -16.2562   23.9450 C   0  0  0  0  0  0  0  0  0  0  0  0
   11.0985  -15.1855   23.4070 O   0  0  0  0  0  0  0  0  0  0  0  0
   11.5726  -14.9366   26.9619 C   0  0  0  0  0  0  0  0  0  0  0  0
   10.9177  -14.6514   28.1354 C   0  0  0  0  0  0  0  0  0  0  0  0
    6.6257  -16.9871   24.0553 O   0  0  0  0  0  0  0  0  0  0  0  0
    7.2549  -16.1724   23.0817 C   0  0  0  0  0  0  0  0  0  0  0  0
    8.3718  -15.4640   23.8107 C   0  0  2  0  0  0  0  0  0  0  0  0
    9.3735  -16.5147   24.0627 N   0  0  0  0  0  0  0  0  0  0  0  0
    7.9789  -14.8031   25.0529 C   0  0  0  0  0  0  0  0  0  0  0  0
    8.3570  -15.3913   26.1296 O   0  0  0  0  0  0  0  0  0  0  0  0
    7.2460  -13.6133   25.2126 N   0  0  0  0  0  0  0  0  0  0  0  0
    6.7600  -12.7911   24.0885 C   0  0  0  0  0  0  0  0  0  0  0  0
    6.8369  -11.3895   24.6145 C   0  0  0  0  0  0  0  0  0  0  0  0
    7.2083  -11.4847   26.0709 C   0  0  0  0  0  0  0  0  0  0  0  0
    6.7716  -12.9078   26.3842 C   0  0  1  0  0  0  0  0  0  0  0  0
    5.2768  -12.9769   26.5262 C   0  0  0  0  0  0  0  0  0  0  0  0
    4.7934  -12.5709   27.6126 O   0  0  0  0  0  0  0  0  0  0  0  0
    4.4231  -13.4473   25.5627 O   0  0  0  0  0  0  0  0  0  0  0  0
  2  3  2  0
  2  1  1  0
  4  3  1  0
  5  4  2  0
  6  5  1  0
  7  6  1  0
  7  9  1  0
  7  8  1  6
  9 16  1  0
  9 10  2  0
 11  5  1  0
 11 12  2  0
 12  2  1  0
 14 13  1  0
 15 14  1  1
 16 15  1  0
 17 15  1  0
 17 18  2  0
 19 17  1  0
 20 19  1  0
 21 20  1  0
 21 22  1  0
 22 23  1  0
 23 19  1  0
 23 24  1  6
 25 24  2  0
 26 24  1  0
M  END
$$$$
