AQK.pdb
     RDKit          3D

 24 23  0  0  1  0  0  0  0  0999 V2000
   11.2899  -19.7323   17.4235 C   0  0  0  0  0  0  0  0  0  0  0  0
   11.7185  -18.2805   17.3416 C   0  0  2  0  0  0  0  0  0  0  0  0
   13.0440  -18.1347   16.8059 N   0  0  0  0  0  0  0  0  0  0  0  0
   11.5807  -17.6926   18.6920 C   0  0  0  0  0  0  0  0  0  0  0  0
   12.6030  -17.6719   19.4244 O   0  0  0  0  0  0  0  0  0  0  0  0
    7.4131  -13.1042   20.8764 N   0  0  0  0  0  0  0  0  0  0  0  0
    8.0199  -13.5670   19.6721 C   0  0  0  0  0  0  0  0  0  0  0  0
    7.4139  -13.3184   18.6002 O   0  0  0  0  0  0  0  0  0  0  0  0
    9.3075  -14.3066   19.6981 C   0  0  0  0  0  0  0  0  0  0  0  0
    9.1099  -15.5404   20.5515 C   0  0  0  0  0  0  0  0  0  0  0  0
   10.3068  -16.4660   20.4833 C   0  0  2  0  0  0  0  0  0  0  0  0
   10.3820  -17.1544   19.2128 N   0  0  0  0  0  0  0  0  0  0  0  0
   10.2152  -17.4099   21.6204 C   0  0  0  0  0  0  0  0  0  0  0  0
    9.3596  -18.3284   21.5375 O   0  0  0  0  0  0  0  0  0  0  0  0
   11.0115  -17.3512   22.7762 N   0  0  0  0  0  0  0  0  0  0  0  0
   10.8506  -18.2654   23.8890 C   0  0  1  0  0  0  0  0  0  0  0  0
   12.0324  -18.2407   24.8217 C   0  0  0  0  0  0  0  0  0  0  0  0
   11.8634  -19.1396   26.0150 C   0  0  0  0  0  0  0  0  0  0  0  0
   13.1606  -19.0392   26.8216 C   0  0  0  0  0  0  0  0  0  0  0  0
   13.0928  -19.8899   28.0637 C   0  0  0  0  0  0  0  0  0  0  0  0
   14.2580  -19.6807   28.8675 N   0  0  0  0  0  0  0  0  0  0  0  0
    9.6661  -17.8166   24.6657 C   0  0  0  0  0  0  0  0  0  0  0  0
    9.1082  -16.5505   24.4922 O   0  0  0  0  0  0  0  0  0  0  0  0
    9.1177  -18.5650   25.5141 O   0  0  0  0  0  0  0  0  0  0  0  0
  2  3  1  0
  2  1  1  1
  4  2  1  0
  5  4  2  0
  7  6  1  0
  7  9  1  0
  8  7  2  0
 10  9  1  0
 11 10  1  6
 11 12  1  0
 12  4  1  0
 13 11  1  0
 13 15  1  0
 14 13  2  0
 16 17  1  1
 16 15  1  0
 16 22  1  0
 18 17  1  0
 19 18  1  0
 20 19  1  0
 20 21  1  0
 22 23  1  0
 24 22  2  0
M  END
$$$$
