AQK.pdb
     RDKit          3D

 24 23  0  0  1  0  0  0  0  0999 V2000
    8.6326  -12.3645   19.1758 C   0  0  0  0  0  0  0  0  0  0  0  0
    8.6625  -13.7672   18.6016 C   0  0  2  0  0  0  0  0  0  0  0  0
    7.6263  -13.9781   17.6285 N   0  0  0  0  0  0  0  0  0  0  0  0
    8.5868  -14.7189   19.7316 C   0  0  0  0  0  0  0  0  0  0  0  0
    7.4618  -14.9015   20.2637 O   0  0  0  0  0  0  0  0  0  0  0  0
   12.5021  -19.3676   21.2355 N   0  0  0  0  0  0  0  0  0  0  0  0
   11.6065  -19.3945   22.3445 C   0  0  0  0  0  0  0  0  0  0  0  0
   11.7789  -20.3071   23.1903 O   0  0  0  0  0  0  0  0  0  0  0  0
   10.5255  -18.3852   22.4810 C   0  0  0  0  0  0  0  0  0  0  0  0
   10.6499  -17.4212   21.3213 C   0  0  0  0  0  0  0  0  0  0  0  0
    9.5890  -16.3417   21.3742 C   0  0  2  0  0  0  0  0  0  0  0  0
    9.6893  -15.4342   20.2516 N   0  0  0  0  0  0  0  0  0  0  0  0
    9.7230  -15.6374   22.6697 C   0  0  0  0  0  0  0  0  0  0  0  0
   10.7734  -14.9703   22.8553 O   0  0  0  0  0  0  0  0  0  0  0  0
    8.7660  -15.6623   23.6977 N   0  0  0  0  0  0  0  0  0  0  0  0
    8.8764  -14.8526   24.8944 C   0  0  1  0  0  0  0  0  0  0  0  0
    7.6493  -14.0122   25.1286 C   0  0  0  0  0  0  0  0  0  0  0  0
    7.7101  -13.2184   26.4041 C   0  0  0  0  0  0  0  0  0  0  0  0
    6.3834  -12.4619   26.5085 C   0  0  0  0  0  0  0  0  0  0  0  0
    6.3426  -11.6099   27.7510 C   0  0  0  0  0  0  0  0  0  0  0  0
    5.0913  -10.9209   27.8341 N   0  0  0  0  0  0  0  0  0  0  0  0
    9.0031  -15.7798   26.0486 C   0  0  0  0  0  0  0  0  0  0  0  0
    9.4579  -15.3478   27.2940 O   0  0  0  0  0  0  0  0  0  0  0  0
    8.7035  -16.9966   25.9467 O   0  0  0  0  0  0  0  0  0  0  0  0
  2  3  1  0
  2  1  1  1
  4  2  1  0
  5  4  2  0
  7  6  1  0
  7  9  1  0
  8  7  2  0
 10  9  1  0
 11 10  1  6
 11 12  1  0
 12  4  1  0
 13 11  1  0
 13 15  1  0
 14 13  2  0
 16 17  1  1
 16 15  1  0
 16 22  1  0
 18 17  1  0
 19 18  1  0
 20 19  1  0
 20 21  1  0
 22 23  1  0
 24 22  2  0
M  END
$$$$
