AQK.pdb
     RDKit          3D

 24 23  0  0  1  0  0  0  0  0999 V2000
   10.8390  -18.3041   16.5168 C   0  0  0  0  0  0  0  0  0  0  0  0
   10.9928  -18.3556   18.0241 C   0  0  2  0  0  0  0  0  0  0  0  0
    9.8847  -19.0124   18.6612 N   0  0  0  0  0  0  0  0  0  0  0  0
   11.1886  -16.9704   18.5051 C   0  0  0  0  0  0  0  0  0  0  0  0
   12.2119  -16.3562   18.1081 O   0  0  0  0  0  0  0  0  0  0  0  0
    6.8892  -12.8458   19.2539 N   0  0  0  0  0  0  0  0  0  0  0  0
    7.5210  -13.3420   18.0761 C   0  0  0  0  0  0  0  0  0  0  0  0
    6.9146  -13.1651   16.9902 O   0  0  0  0  0  0  0  0  0  0  0  0
    8.8336  -14.0333   18.1440 C   0  0  0  0  0  0  0  0  0  0  0  0
    9.2448  -14.0935   19.5989 C   0  0  0  0  0  0  0  0  0  0  0  0
   10.4988  -14.9205   19.7927 C   0  0  2  0  0  0  0  0  0  0  0  0
   10.3066  -16.2933   19.3776 N   0  0  0  0  0  0  0  0  0  0  0  0
   10.8912  -14.8221   21.2170 C   0  0  0  0  0  0  0  0  0  0  0  0
    9.9978  -14.4888   22.0376 O   0  0  0  0  0  0  0  0  0  0  0  0
   12.1818  -15.0731   21.7114 N   0  0  0  0  0  0  0  0  0  0  0  0
   12.4256  -15.6207   23.0308 C   0  0  1  0  0  0  0  0  0  0  0  0
   11.7843  -16.9706   23.2144 C   0  0  0  0  0  0  0  0  0  0  0  0
   12.0477  -17.5718   24.5672 C   0  0  0  0  0  0  0  0  0  0  0  0
   11.4867  -18.9955   24.5263 C   0  0  0  0  0  0  0  0  0  0  0  0
   11.7645  -19.7239   25.8162 C   0  0  0  0  0  0  0  0  0  0  0  0
   11.1850  -21.0316   25.7773 N   0  0  0  0  0  0  0  0  0  0  0  0
   13.8931  -15.8066   23.1710 C   0  0  0  0  0  0  0  0  0  0  0  0
   14.5197  -15.8074   24.4167 O   0  0  0  0  0  0  0  0  0  0  0  0
   14.6310  -15.9712   22.1665 O   0  0  0  0  0  0  0  0  0  0  0  0
  2  3  1  0
  2  1  1  6
  4  2  1  0
  5  4  2  0
  7  6  1  0
  7  9  1  0
  8  7  2  0
 10  9  1  0
 11 10  1  1
 11 12  1  0
 12  4  1  0
 13 11  1  0
 13 15  1  0
 14 13  2  0
 16 17  1  6
 16 15  1  0
 16 22  1  0
 18 17  1  0
 19 18  1  0
 20 19  1  0
 20 21  1  0
 22 23  1  0
 24 22  2  0
M  END
$$$$
