AQK.pdb
     RDKit          3D

 24 23  0  0  1  0  0  0  0  0999 V2000
    9.6955  -15.5476   19.8334 C   0  0  0  0  0  0  0  0  0  0  0  0
    8.8788  -16.3158   20.8537 C   0  0  2  0  0  0  0  0  0  0  0  0
    7.4794  -16.3336   20.5274 N   0  0  0  0  0  0  0  0  0  0  0  0
    9.1475  -15.7258   22.1833 C   0  0  0  0  0  0  0  0  0  0  0  0
   10.3210  -15.8064   22.6289 O   0  0  0  0  0  0  0  0  0  0  0  0
    5.3069  -12.0974   25.7398 N   0  0  0  0  0  0  0  0  0  0  0  0
    6.5559  -12.0364   26.4246 C   0  0  0  0  0  0  0  0  0  0  0  0
    6.6740  -11.1539   27.3107 O   0  0  0  0  0  0  0  0  0  0  0  0
    7.6567  -12.9776   26.0959 C   0  0  0  0  0  0  0  0  0  0  0  0
    7.3554  -13.5793   24.7406 C   0  0  0  0  0  0  0  0  0  0  0  0
    8.4800  -14.4743   24.2628 C   0  0  2  0  0  0  0  0  0  0  0  0
    8.1780  -15.0800   22.9838 N   0  0  0  0  0  0  0  0  0  0  0  0
    8.7284  -15.4893   25.3117 C   0  0  0  0  0  0  0  0  0  0  0  0
    7.8077  -16.3150   25.5422 O   0  0  0  0  0  0  0  0  0  0  0  0
    9.9119  -15.5932   26.0614 N   0  0  0  0  0  0  0  0  0  0  0  0
   10.1631  -16.6792   26.9874 C   0  0  1  0  0  0  0  0  0  0  0  0
   11.2140  -17.6299   26.4786 C   0  0  0  0  0  0  0  0  0  0  0  0
   11.5609  -18.7112   27.4641 C   0  0  0  0  0  0  0  0  0  0  0  0
   12.5982  -19.6055   26.7803 C   0  0  0  0  0  0  0  0  0  0  0  0
   13.0348  -20.7229   27.6925 C   0  0  0  0  0  0  0  0  0  0  0  0
   14.1110  -21.4531   27.0957 N   0  0  0  0  0  0  0  0  0  0  0  0
   10.6813  -16.0805   28.2448 C   0  0  0  0  0  0  0  0  0  0  0  0
   10.8898  -14.7080   28.3758 O   0  0  0  0  0  0  0  0  0  0  0  0
   10.9533  -16.7920   29.2450 O   0  0  0  0  0  0  0  0  0  0  0  0
  2  3  1  0
  2  1  1  6
  4  2  1  0
  5  4  2  0
  7  6  1  0
  7  9  1  0
  8  7  2  0
 10  9  1  0
 11 10  1  1
 11 12  1  0
 12  4  1  0
 13 11  1  0
 13 15  1  0
 14 13  2  0
 16 17  1  6
 16 15  1  0
 16 22  1  0
 18 17  1  0
 19 18  1  0
 20 19  1  0
 20 21  1  0
 22 23  1  0
 24 22  2  0
M  END
$$$$
