AQK.pdb
     RDKit          3D

 24 23  0  0  1  0  0  0  0  0999 V2000
    9.5176  -18.9610   20.1112 C   0  0  0  0  0  0  0  0  0  0  0  0
   10.3193  -19.7076   21.1590 C   0  0  2  0  0  0  0  0  0  0  0  0
   10.5431  -21.0799   20.7960 N   0  0  0  0  0  0  0  0  0  0  0  0
    9.6138  -19.5669   22.4517 C   0  0  0  0  0  0  0  0  0  0  0  0
    9.4380  -18.4028   22.8945 O   0  0  0  0  0  0  0  0  0  0  0  0
    5.0572  -22.8592   24.6000 N   0  0  0  0  0  0  0  0  0  0  0  0
    5.0154  -21.6917   23.7827 C   0  0  0  0  0  0  0  0  0  0  0  0
    3.9314  -21.4491   23.1961 O   0  0  0  0  0  0  0  0  0  0  0  0
    6.2041  -20.8129   23.6406 C   0  0  0  0  0  0  0  0  0  0  0  0
    7.2337  -21.2681   24.6518 C   0  0  0  0  0  0  0  0  0  0  0  0
    8.5253  -20.4870   24.5264 C   0  0  2  0  0  0  0  0  0  0  0  0
    9.1259  -20.6483   23.2199 N   0  0  0  0  0  0  0  0  0  0  0  0
    9.4304  -20.9305   25.6110 C   0  0  0  0  0  0  0  0  0  0  0  0
    9.3885  -22.1457   25.9337 O   0  0  0  0  0  0  0  0  0  0  0  0
   10.3256  -20.0948   26.2990 N   0  0  0  0  0  0  0  0  0  0  0  0
   11.1967  -20.5742   27.3531 C   0  0  1  0  0  0  0  0  0  0  0  0
   12.6352  -20.1959   27.1194 C   0  0  0  0  0  0  0  0  0  0  0  0
   13.1890  -20.7415   25.8324 C   0  0  0  0  0  0  0  0  0  0  0  0
   14.6595  -20.3195   25.7789 C   0  0  0  0  0  0  0  0  0  0  0  0
   15.3361  -20.8697   24.5497 C   0  0  0  0  0  0  0  0  0  0  0  0
   16.7211  -20.5102   24.5479 N   0  0  0  0  0  0  0  0  0  0  0  0
   10.7680  -19.9198   28.6164 C   0  0  0  0  0  0  0  0  0  0  0  0
   11.2962  -20.2888   29.8531 O   0  0  0  0  0  0  0  0  0  0  0  0
    9.9077  -19.0030   28.6195 O   0  0  0  0  0  0  0  0  0  0  0  0
  2  3  1  0
  2  1  1  6
  4  2  1  0
  5  4  2  0
  7  6  1  0
  7  9  1  0
  8  7  2  0
 10  9  1  0
 11 10  1  6
 11 12  1  0
 12  4  1  0
 13 11  1  0
 13 15  1  0
 14 13  2  0
 16 17  1  6
 16 15  1  0
 16 22  1  0
 18 17  1  0
 19 18  1  0
 20 19  1  0
 20 21  1  0
 22 23  1  0
 24 22  2  0
M  END
$$$$
