AQK.pdb
     RDKit          3D

 24 23  0  0  1  0  0  0  0  0999 V2000
    9.7352  -19.3434   16.4487 C   0  0  0  0  0  0  0  0  0  0  0  0
    9.3934  -19.4983   17.9174 C   0  0  2  0  0  0  0  0  0  0  0  0
    7.9922  -19.7386   18.1268 N   0  0  0  0  0  0  0  0  0  0  0  0
    9.8773  -18.2914   18.6229 C   0  0  0  0  0  0  0  0  0  0  0  0
   11.1182  -18.0870   18.6415 O   0  0  0  0  0  0  0  0  0  0  0  0
    6.8253  -13.0399   19.6775 N   0  0  0  0  0  0  0  0  0  0  0  0
    7.4670  -13.4610   18.4759 C   0  0  0  0  0  0  0  0  0  0  0  0
    7.1155  -12.8879   17.4148 O   0  0  0  0  0  0  0  0  0  0  0  0
    8.5003  -14.5276   18.4924 C   0  0  0  0  0  0  0  0  0  0  0  0
    8.6210  -15.0264   19.9159 C   0  0  0  0  0  0  0  0  0  0  0  0
    9.5484  -16.2198   20.0143 C   0  0  2  0  0  0  0  0  0  0  0  0
    9.0422  -17.3560   19.2751 N   0  0  0  0  0  0  0  0  0  0  0  0
    9.7354  -16.5313   21.4497 C   0  0  0  0  0  0  0  0  0  0  0  0
    8.7117  -16.8531   22.1061 O   0  0  0  0  0  0  0  0  0  0  0  0
   10.9673  -16.4927   22.1238 N   0  0  0  0  0  0  0  0  0  0  0  0
   11.1152  -16.8749   23.5137 C   0  0  1  0  0  0  0  0  0  0  0  0
   11.6516  -18.2736   23.6657 C   0  0  0  0  0  0  0  0  0  0  0  0
   10.6864  -19.3308   23.2059 C   0  0  0  0  0  0  0  0  0  0  0  0
   11.3917  -20.6758   23.3979 C   0  0  0  0  0  0  0  0  0  0  0  0
   10.4570  -21.8228   23.1113 C   0  0  0  0  0  0  0  0  0  0  0  0
   11.1433  -23.0682   23.2705 N   0  0  0  0  0  0  0  0  0  0  0  0
   12.1072  -15.9530   24.1253 C   0  0  0  0  0  0  0  0  0  0  0  0
   12.2724  -15.8602   25.5068 O   0  0  0  0  0  0  0  0  0  0  0  0
   12.8401  -15.2168   23.4171 O   0  0  0  0  0  0  0  0  0  0  0  0
  2  3  1  0
  2  1  1  6
  4  2  1  0
  5  4  2  0
  7  6  1  0
  7  9  1  0
  8  7  2  0
 10  9  1  0
 11 10  1  1
 11 12  1  0
 12  4  1  0
 13 11  1  0
 13 15  1  0
 14 13  2  0
 16 17  1  6
 16 15  1  0
 16 22  1  0
 18 17  1  0
 19 18  1  0
 20 19  1  0
 20 21  1  0
 22 23  1  0
 24 22  2  0
M  END
$$$$
