AQK.pdb
     RDKit          3D

 24 23  0  0  1  0  0  0  0  0999 V2000
   15.7099  -29.9570   27.4373 C   0  0  0  0  0  0  0  0  0  0  0  0
   14.9415  -28.7146   27.0326 C   0  0  2  0  0  0  0  0  0  0  0  0
   15.7488  -27.7998   26.2731 N   0  0  0  0  0  0  0  0  0  0  0  0
   14.3907  -28.1042   28.2624 C   0  0  0  0  0  0  0  0  0  0  0  0
   13.4046  -28.6697   28.8009 O   0  0  0  0  0  0  0  0  0  0  0  0
   17.2283  -24.0111   32.0513 N   0  0  0  0  0  0  0  0  0  0  0  0
   16.7372  -23.5206   30.8059 C   0  0  0  0  0  0  0  0  0  0  0  0
   17.2124  -22.4313   30.3988 O   0  0  0  0  0  0  0  0  0  0  0  0
   15.7126  -24.2718   30.0369 C   0  0  0  0  0  0  0  0  0  0  0  0
   15.3795  -25.5236   30.8190 C   0  0  0  0  0  0  0  0  0  0  0  0
   14.3609  -26.3808   30.0967 C   0  0  2  0  0  0  0  0  0  0  0  0
   14.8959  -26.9328   28.8708 N   0  0  0  0  0  0  0  0  0  0  0  0
   13.1604  -25.5493   29.8525 C   0  0  0  0  0  0  0  0  0  0  0  0
   13.1561  -24.8364   28.8160 O   0  0  0  0  0  0  0  0  0  0  0  0
   12.0347  -25.5020   30.6914 N   0  0  0  0  0  0  0  0  0  0  0  0
   10.8098  -24.8196   30.3257 C   0  0  1  0  0  0  0  0  0  0  0  0
    9.6881  -25.7805   30.0332 C   0  0  0  0  0  0  0  0  0  0  0  0
    8.4106  -25.0952   29.6343 C   0  0  0  0  0  0  0  0  0  0  0  0
    7.3699  -26.1997   29.4328 C   0  0  0  0  0  0  0  0  0  0  0  0
    6.0482  -25.6242   28.9931 C   0  0  0  0  0  0  0  0  0  0  0  0
    5.1120  -26.6770   28.7432 N   0  0  0  0  0  0  0  0  0  0  0  0
   10.3937  -23.9973   31.4913 C   0  0  0  0  0  0  0  0  0  0  0  0
   11.0802  -24.0386   32.7044 O   0  0  0  0  0  0  0  0  0  0  0  0
    9.4011  -23.2282   31.4289 O   0  0  0  0  0  0  0  0  0  0  0  0
  2  3  1  0
  2  1  1  1
  4  2  1  0
  5  4  2  0
  7  6  1  0
  7  9  1  0
  8  7  2  0
 10  9  1  0
 11 10  1  6
 11 12  1  0
 12  4  1  0
 13 11  1  0
 13 15  1  0
 14 13  2  0
 16 17  1  1
 16 15  1  0
 16 22  1  0
 18 17  1  0
 19 18  1  0
 20 19  1  0
 20 21  1  0
 22 23  1  0
 24 22  2  0
M  END
$$$$
