AQK.pdb
     RDKit          3D

 24 23  0  0  1  0  0  0  0  0999 V2000
   10.5468  -18.1207   14.7910 C   0  0  0  0  0  0  0  0  0  0  0  0
   10.9748  -16.6665   14.7899 C   0  0  2  0  0  0  0  0  0  0  0  0
   12.2224  -16.4678   14.1050 N   0  0  0  0  0  0  0  0  0  0  0  0
   11.0158  -16.2073   16.1956 C   0  0  0  0  0  0  0  0  0  0  0  0
   12.1188  -16.2722   16.7966 O   0  0  0  0  0  0  0  0  0  0  0  0
    6.8335  -12.5946   19.1786 N   0  0  0  0  0  0  0  0  0  0  0  0
    7.8299  -12.7685   20.1834 C   0  0  0  0  0  0  0  0  0  0  0  0
    7.7147  -12.0718   21.2224 O   0  0  0  0  0  0  0  0  0  0  0  0
    8.9456  -13.7310   19.9977 C   0  0  0  0  0  0  0  0  0  0  0  0
    8.7957  -14.3463   18.6235 C   0  0  0  0  0  0  0  0  0  0  0  0
    9.9844  -15.2140   18.2657 C   0  0  2  0  0  0  0  0  0  0  0  0
    9.9031  -15.7025   16.9061 N   0  0  0  0  0  0  0  0  0  0  0  0
   10.0509  -16.3193   19.2486 C   0  0  0  0  0  0  0  0  0  0  0  0
    9.4992  -17.4045   18.9315 O   0  0  0  0  0  0  0  0  0  0  0  0
   10.6827  -16.2406   20.5009 N   0  0  0  0  0  0  0  0  0  0  0  0
   10.6886  -17.3368   21.4487 C   0  0  1  0  0  0  0  0  0  0  0  0
   11.5505  -17.0472   22.6488 C   0  0  0  0  0  0  0  0  0  0  0  0
   11.6751  -18.2177   23.5843 C   0  0  0  0  0  0  0  0  0  0  0  0
   12.5915  -17.7667   24.7246 C   0  0  0  0  0  0  0  0  0  0  0  0
   12.7641  -18.8618   25.7455 C   0  0  0  0  0  0  0  0  0  0  0  0
   13.6628  -18.4374   26.7749 N   0  0  0  0  0  0  0  0  0  0  0  0
    9.2960  -17.5100   21.9370 C   0  0  0  0  0  0  0  0  0  0  0  0
    8.4130  -16.4358   22.0412 O   0  0  0  0  0  0  0  0  0  0  0  0
    8.8572  -18.6380   22.2772 O   0  0  0  0  0  0  0  0  0  0  0  0
  2  3  1  0
  2  1  1  1
  4  2  1  0
  5  4  2  0
  7  6  1  0
  7  9  1  0
  8  7  2  0
 10  9  1  0
 11 10  1  1
 11 12  1  0
 12  4  1  0
 13 11  1  0
 13 15  1  0
 14 13  2  0
 16 17  1  1
 16 15  1  0
 16 22  1  0
 18 17  1  0
 19 18  1  0
 20 19  1  0
 20 21  1  0
 22 23  1  0
 24 22  2  0
M  END
$$$$
