AQK.pdb
     RDKit          3D

 24 23  0  0  1  0  0  0  0  0999 V2000
    6.7614  -21.5353   19.6575 C   0  0  0  0  0  0  0  0  0  0  0  0
    6.2704  -20.1519   19.2791 C   0  0  2  0  0  0  0  0  0  0  0  0
    5.9632  -20.0484   17.8791 N   0  0  0  0  0  0  0  0  0  0  0  0
    7.2939  -19.1758   19.7127 C   0  0  0  0  0  0  0  0  0  0  0  0
    8.4440  -19.6149   19.9708 O   0  0  0  0  0  0  0  0  0  0  0  0
    7.0220  -12.9088   19.1234 N   0  0  0  0  0  0  0  0  0  0  0  0
    8.3287  -13.0862   19.6655 C   0  0  0  0  0  0  0  0  0  0  0  0
    9.0474  -12.0603   19.7593 O   0  0  0  0  0  0  0  0  0  0  0  0
    8.8046  -14.4259   20.0948 C   0  0  0  0  0  0  0  0  0  0  0  0
    7.7015  -15.4193   19.8021 C   0  0  0  0  0  0  0  0  0  0  0  0
    8.1211  -16.8362   20.1347 C   0  0  2  0  0  0  0  0  0  0  0  0
    7.0675  -17.7880   19.8559 N   0  0  0  0  0  0  0  0  0  0  0  0
    8.5319  -16.8652   21.5569 C   0  0  0  0  0  0  0  0  0  0  0  0
    7.6244  -16.7459   22.4199 O   0  0  0  0  0  0  0  0  0  0  0  0
    9.8546  -17.0156   22.0056 N   0  0  0  0  0  0  0  0  0  0  0  0
   10.2047  -17.0901   23.4098 C   0  0  1  0  0  0  0  0  0  0  0  0
   10.7815  -18.4301   23.7826 C   0  0  0  0  0  0  0  0  0  0  0  0
   11.1965  -18.5152   25.2252 C   0  0  0  0  0  0  0  0  0  0  0  0
   11.8409  -19.8912   25.4113 C   0  0  0  0  0  0  0  0  0  0  0  0
   12.1875  -20.1353   26.8576 C   0  0  0  0  0  0  0  0  0  0  0  0
   12.6375  -21.4820   27.0350 N   0  0  0  0  0  0  0  0  0  0  0  0
   11.2571  -16.0716   23.6603 C   0  0  0  0  0  0  0  0  0  0  0  0
   11.4433  -15.4989   24.9180 O   0  0  0  0  0  0  0  0  0  0  0  0
   12.0249  -15.6843   22.7431 O   0  0  0  0  0  0  0  0  0  0  0  0
  2  3  1  0
  2  1  1  6
  4  2  1  0
  5  4  2  0
  7  6  1  0
  7  9  1  0
  8  7  2  0
 10  9  1  0
 11 10  1  1
 11 12  1  0
 12  4  1  0
 13 11  1  0
 13 15  1  0
 14 13  2  0
 16 17  1  6
 16 15  1  0
 16 22  1  0
 18 17  1  0
 19 18  1  0
 20 19  1  0
 20 21  1  0
 22 23  1  0
 24 22  2  0
M  END
$$$$
