AQK.pdb
     RDKit          3D

 24 23  0  0  1  0  0  0  0  0999 V2000
    8.9259  -19.9879   17.7396 C   0  0  0  0  0  0  0  0  0  0  0  0
    8.5964  -19.6757   19.1860 C   0  0  2  0  0  0  0  0  0  0  0  0
    7.1798  -19.6390   19.4248 N   0  0  0  0  0  0  0  0  0  0  0  0
    9.2676  -18.4052   19.5375 C   0  0  0  0  0  0  0  0  0  0  0  0
   10.5230  -18.3717   19.4667 O   0  0  0  0  0  0  0  0  0  0  0  0
    7.4558  -12.1220   19.6963 N   0  0  0  0  0  0  0  0  0  0  0  0
    7.4233  -13.1940   18.7569 C   0  0  0  0  0  0  0  0  0  0  0  0
    6.5317  -13.1464   17.8733 O   0  0  0  0  0  0  0  0  0  0  0  0
    8.4030  -14.3077   18.8310 C   0  0  0  0  0  0  0  0  0  0  0  0
    8.4246  -14.8043   20.2602 C   0  0  0  0  0  0  0  0  0  0  0  0
    9.2819  -16.0439   20.4094 C   0  0  2  0  0  0  0  0  0  0  0  0
    8.5958  -17.2307   19.9460 N   0  0  0  0  0  0  0  0  0  0  0  0
    9.6780  -16.1526   21.8319 C   0  0  0  0  0  0  0  0  0  0  0  0
    8.7901  -15.9285   22.6945 O   0  0  0  0  0  0  0  0  0  0  0  0
   10.9664  -16.4862   22.2813 N   0  0  0  0  0  0  0  0  0  0  0  0
   11.2976  -16.6263   23.6851 C   0  0  1  0  0  0  0  0  0  0  0  0
   11.2934  -18.0646   24.1304 C   0  0  0  0  0  0  0  0  0  0  0  0
   11.6155  -18.2335   25.5893 C   0  0  0  0  0  0  0  0  0  0  0  0
   11.5015  -19.7303   25.8888 C   0  0  0  0  0  0  0  0  0  0  0  0
   11.6013  -19.9952   27.3691 C   0  0  0  0  0  0  0  0  0  0  0  0
   11.3006  -21.3667   27.6448 N   0  0  0  0  0  0  0  0  0  0  0  0
   12.6791  -16.1113   23.8697 C   0  0  0  0  0  0  0  0  0  0  0  0
   13.1954  -15.8237   25.1327 O   0  0  0  0  0  0  0  0  0  0  0  0
   13.4405  -15.9136   22.8889 O   0  0  0  0  0  0  0  0  0  0  0  0
  2  3  1  0
  2  1  1  6
  4  2  1  0
  5  4  2  0
  7  6  1  0
  7  9  1  0
  8  7  2  0
 10  9  1  0
 11 10  1  1
 11 12  1  0
 12  4  1  0
 13 11  1  0
 13 15  1  0
 14 13  2  0
 16 17  1  6
 16 15  1  0
 16 22  1  0
 18 17  1  0
 19 18  1  0
 20 19  1  0
 20 21  1  0
 22 23  1  0
 24 22  2  0
M  END
$$$$
