AQK.pdb
     RDKit          3D

 24 23  0  0  1  0  0  0  0  0999 V2000
    7.9534  -12.8674   18.5051 C   0  0  0  0  0  0  0  0  0  0  0  0
    8.6923  -13.8310   19.4126 C   0  0  2  0  0  0  0  0  0  0  0  0
    8.9282  -15.0999   18.7807 N   0  0  0  0  0  0  0  0  0  0  0  0
    7.9178  -13.9532   20.6670 C   0  0  0  0  0  0  0  0  0  0  0  0
    7.7735  -12.9166   21.3647 O   0  0  0  0  0  0  0  0  0  0  0  0
    4.2364  -18.6589   22.7539 N   0  0  0  0  0  0  0  0  0  0  0  0
    5.1632  -18.6488   21.6705 C   0  0  0  0  0  0  0  0  0  0  0  0
    5.1507  -19.6445   20.9046 O   0  0  0  0  0  0  0  0  0  0  0  0
    6.0936  -17.5090   21.4687 C   0  0  0  0  0  0  0  0  0  0  0  0
    5.7304  -16.4379   22.4739 C   0  0  0  0  0  0  0  0  0  0  0  0
    6.7009  -15.2759   22.4293 C   0  0  2  0  0  0  0  0  0  0  0  0
    7.3312  -15.1518   21.1327 N   0  0  0  0  0  0  0  0  0  0  0  0
    7.6926  -15.4717   23.5111 C   0  0  0  0  0  0  0  0  0  0  0  0
    7.2802  -15.3658   24.6949 O   0  0  0  0  0  0  0  0  0  0  0  0
    9.0513  -15.7652   23.3086 N   0  0  0  0  0  0  0  0  0  0  0  0
    9.9867  -15.9504   24.3998 C   0  0  1  0  0  0  0  0  0  0  0  0
    9.7321  -17.2263   25.1578 C   0  0  0  0  0  0  0  0  0  0  0  0
   10.7892  -17.5259   26.1842 C   0  0  0  0  0  0  0  0  0  0  0  0
   10.4285  -18.8820   26.7959 C   0  0  0  0  0  0  0  0  0  0  0  0
   11.4173  -19.2743   27.8635 C   0  0  0  0  0  0  0  0  0  0  0  0
   11.1249  -20.5895   28.3454 N   0  0  0  0  0  0  0  0  0  0  0  0
   11.3458  -16.0525   23.8080 C   0  0  0  0  0  0  0  0  0  0  0  0
   11.5556  -15.9959   22.4306 O   0  0  0  0  0  0  0  0  0  0  0  0
   12.3652  -16.1945   24.5301 O   0  0  0  0  0  0  0  0  0  0  0  0
  2  3  1  0
  2  1  1  6
  4  2  1  0
  5  4  2  0
  7  6  1  0
  7  9  1  0
  8  7  2  0
 10  9  1  0
 11 10  1  6
 11 12  1  0
 12  4  1  0
 13 11  1  0
 13 15  1  0
 14 13  2  0
 16 17  1  6
 16 15  1  0
 16 22  1  0
 18 17  1  0
 19 18  1  0
 20 19  1  0
 20 21  1  0
 22 23  1  0
 24 22  2  0
M  END
$$$$
