AQK.pdb
     RDKit          3D

 24 23  0  0  1  0  0  0  0  0999 V2000
    8.6926  -12.5310   18.5888 C   0  0  0  0  0  0  0  0  0  0  0  0
    8.6771  -14.0143   18.2764 C   0  0  2  0  0  0  0  0  0  0  0  0
    7.6568  -14.3586   17.3248 N   0  0  0  0  0  0  0  0  0  0  0  0
    8.5340  -14.7433   19.5557 C   0  0  0  0  0  0  0  0  0  0  0  0
    7.3682  -14.9463   19.9821 O   0  0  0  0  0  0  0  0  0  0  0  0
   12.4080  -19.0800   21.2155 N   0  0  0  0  0  0  0  0  0  0  0  0
   11.3268  -19.1832   20.2919 C   0  0  0  0  0  0  0  0  0  0  0  0
   11.3699  -20.1347   19.4728 O   0  0  0  0  0  0  0  0  0  0  0  0
   10.2090  -18.2055   20.3083 C   0  0  0  0  0  0  0  0  0  0  0  0
   10.4635  -17.2381   21.4436 C   0  0  0  0  0  0  0  0  0  0  0  0
    9.4494  -16.1132   21.4587 C   0  0  2  0  0  0  0  0  0  0  0  0
    9.6150  -15.2253   20.3282 N   0  0  0  0  0  0  0  0  0  0  0  0
    9.5838  -15.3989   22.7487 C   0  0  0  0  0  0  0  0  0  0  0  0
   10.6563  -14.7729   22.9500 O   0  0  0  0  0  0  0  0  0  0  0  0
    8.6043  -15.3721   23.7552 N   0  0  0  0  0  0  0  0  0  0  0  0
    8.7457  -14.5935   24.9692 C   0  0  1  0  0  0  0  0  0  0  0  0
    7.4901  -13.8348   25.3085 C   0  0  0  0  0  0  0  0  0  0  0  0
    7.6135  -13.0179   26.5648 C   0  0  0  0  0  0  0  0  0  0  0  0
    6.2565  -12.3425   26.7787 C   0  0  0  0  0  0  0  0  0  0  0  0
    6.2946  -11.4157   27.9665 C   0  0  0  0  0  0  0  0  0  0  0  0
    5.0500  -10.7202   28.0878 N   0  0  0  0  0  0  0  0  0  0  0  0
    9.0000  -15.5457   26.0812 C   0  0  0  0  0  0  0  0  0  0  0  0
    9.6648  -15.1591   27.2444 O   0  0  0  0  0  0  0  0  0  0  0  0
    8.6236  -16.7435   26.0162 O   0  0  0  0  0  0  0  0  0  0  0  0
  2  3  1  0
  2  1  1  1
  4  2  1  0
  5  4  2  0
  7  6  1  0
  7  9  1  0
  8  7  2  0
 10  9  1  0
 11 10  1  6
 11 12  1  0
 12  4  1  0
 13 11  1  0
 13 15  1  0
 14 13  2  0
 16 17  1  1
 16 15  1  0
 16 22  1  0
 18 17  1  0
 19 18  1  0
 20 19  1  0
 20 21  1  0
 22 23  1  0
 24 22  2  0
M  END
$$$$
