VLD.pdb
     RDKit          3D

 24 23  0  0  1  0  0  0  0  0999 V2000
   18.8577  -13.2448  -19.6082 C   0  0  0  0  0  0  0  0  0  0  0  0
   19.6852  -12.9886  -18.3781 C   0  0  2  0  0  0  0  0  0  0  0  0
   18.8678  -13.5132  -17.1989 C   0  0  0  0  0  0  0  0  0  0  0  0
   19.9469  -11.5103  -18.1417 C   0  0  2  0  0  0  0  0  0  0  0  0
   20.3913  -10.8569  -19.3467 N   0  0  0  0  0  0  0  0  0  0  0  0
   20.9705  -11.3951  -17.0813 C   0  0  0  0  0  0  0  0  0  0  0  0
   20.7234  -11.8718  -15.9488 O   0  0  0  0  0  0  0  0  0  0  0  0
   25.8370  -11.7889  -14.9366 C   0  0  0  0  0  0  0  0  0  0  0  0
   25.5247  -10.3892  -15.4627 C   0  0  1  0  0  0  0  0  0  0  0  0
   26.8314   -9.7500  -15.8248 C   0  0  0  0  0  0  0  0  0  0  0  0
   24.5934  -10.5806  -16.6422 C   0  0  0  0  0  0  0  0  0  0  0  0
   23.1306  -10.6178  -16.1667 C   0  0  2  0  0  0  0  0  0  0  0  0
   22.2275  -10.7782  -17.2492 N   0  0  0  0  0  0  0  0  0  0  0  0
   22.8418   -9.4418  -15.3088 C   0  0  0  0  0  0  0  0  0  0  0  0
   23.3100   -9.2903  -14.1514 O   0  0  0  0  0  0  0  0  0  0  0  0
   21.9966   -8.3968  -15.7659 N   0  0  0  0  0  0  0  0  0  0  0  0
   21.6743   -7.2787  -14.9058 C   0  0  1  0  0  0  0  0  0  0  0  0
   22.8096   -6.2792  -15.0310 C   0  0  0  0  0  0  0  0  0  0  0  0
   22.5543   -5.0483  -14.2509 C   0  0  0  0  0  0  0  0  0  0  0  0
   22.2007   -5.1153  -13.0349 O   0  0  0  0  0  0  0  0  0  0  0  0
   20.4469   -6.5724  -15.3407 C   0  0  0  0  0  0  0  0  0  0  0  0
   19.6953   -6.8734  -16.4528 O   0  0  0  0  0  0  0  0  0  0  0  0
   22.6849   -3.7597  -14.7941 O   0  0  0  0  0  0  0  0  0  0  0  0
   20.0635   -5.6106  -14.6224 O   0  0  0  0  0  0  0  0  0  0  0  0
  2  1  1  6
  2  4  1  0
  3  2  1  0
  4  6  1  0
  4  5  1  6
  6  7  2  0
  9  8  1  6
  9 10  1  0
 11  9  1  0
 12 11  1  6
 12 14  1  0
 13  6  1  0
 13 12  1  0
 14 15  2  0
 16 14  1  0
 16 17  1  0
 17 21  1  0
 17 18  1  6
 19 20  2  0
 19 18  1  0
 21 24  2  0
 21 22  1  0
 23 19  1  0
M  END
$$$$
