VLD.pdb
     RDKit          3D

 24 23  0  0  1  0  0  0  0  0999 V2000
   24.6027  -12.6802  -16.1134 C   0  0  0  0  0  0  0  0  0  0  0  0
   23.4802  -11.6787  -16.1433 C   0  0  2  0  0  0  0  0  0  0  0  0
   23.5177  -10.9578  -14.7969 C   0  0  0  0  0  0  0  0  0  0  0  0
   22.1141  -12.3292  -16.2849 C   0  0  2  0  0  0  0  0  0  0  0  0
   22.0354  -13.1295  -17.4806 N   0  0  0  0  0  0  0  0  0  0  0  0
   21.1005  -11.2535  -16.3129 C   0  0  0  0  0  0  0  0  0  0  0  0
   21.0620  -10.4854  -17.3026 O   0  0  0  0  0  0  0  0  0  0  0  0
   15.8032  -11.5175  -15.6837 C   0  0  0  0  0  0  0  0  0  0  0  0
   17.1857  -11.0750  -16.1594 C   0  0  1  0  0  0  0  0  0  0  0  0
   16.9833  -10.2140  -17.3697 C   0  0  0  0  0  0  0  0  0  0  0  0
   17.8191  -10.3453  -14.9926 C   0  0  0  0  0  0  0  0  0  0  0  0
   19.2567   -9.9241  -15.3435 C   0  0  2  0  0  0  0  0  0  0  0  0
   20.1556  -11.0206  -15.2922 N   0  0  0  0  0  0  0  0  0  0  0  0
   19.6681   -8.7668  -14.5105 C   0  0  0  0  0  0  0  0  0  0  0  0
   19.8402   -8.8285  -13.2662 O   0  0  0  0  0  0  0  0  0  0  0  0
   19.8952   -7.4931  -15.0947 N   0  0  0  0  0  0  0  0  0  0  0  0
   20.2200   -6.3499  -14.2693 C   0  0  1  0  0  0  0  0  0  0  0  0
   21.6390   -5.9384  -14.6174 C   0  0  0  0  0  0  0  0  0  0  0  0
   22.0924   -4.7783  -13.8191 C   0  0  0  0  0  0  0  0  0  0  0  0
   21.3352   -4.2604  -12.9436 O   0  0  0  0  0  0  0  0  0  0  0  0
   19.3614   -5.1804  -14.5683 C   0  0  0  0  0  0  0  0  0  0  0  0
   19.0733   -4.1502  -13.7033 O   0  0  0  0  0  0  0  0  0  0  0  0
   23.3590   -4.1922  -13.9762 O   0  0  0  0  0  0  0  0  0  0  0  0
   18.8529   -5.1321  -15.7203 O   0  0  0  0  0  0  0  0  0  0  0  0
  2  1  1  1
  2  4  1  0
  3  2  1  0
  4  6  1  0
  4  5  1  6
  6  7  2  0
  9  8  1  1
  9 10  1  0
 11  9  1  0
 12 11  1  1
 12 14  1  0
 13  6  1  0
 13 12  1  0
 14 15  2  0
 16 14  1  0
 16 17  1  0
 17 21  1  0
 17 18  1  6
 19 20  2  0
 19 18  1  0
 21 24  2  0
 21 22  1  0
 23 19  1  0
M  END
$$$$
