VLD.pdb
     RDKit          3D

 24 23  0  0  1  0  0  0  0  0999 V2000
   19.3597  -13.8236  -16.3411 C   0  0  0  0  0  0  0  0  0  0  0  0
   18.3504  -12.7235  -16.5276 C   0  0  2  0  0  0  0  0  0  0  0  0
   17.2368  -13.3104  -17.3930 C   0  0  0  0  0  0  0  0  0  0  0  0
   18.9207  -11.5185  -17.2573 C   0  0  2  0  0  0  0  0  0  0  0  0
   19.4188  -11.8813  -18.5599 N   0  0  0  0  0  0  0  0  0  0  0  0
   20.0053  -10.9562  -16.4252 C   0  0  0  0  0  0  0  0  0  0  0  0
   19.7324  -10.5479  -15.2721 O   0  0  0  0  0  0  0  0  0  0  0  0
   24.5385  -10.1085  -14.1665 C   0  0  0  0  0  0  0  0  0  0  0  0
   24.7150   -9.6599  -15.6160 C   0  0  1  0  0  0  0  0  0  0  0  0
   26.1505   -9.8919  -15.9801 C   0  0  0  0  0  0  0  0  0  0  0  0
   23.7395  -10.4820  -16.4331 C   0  0  0  0  0  0  0  0  0  0  0  0
   22.2924  -10.0776  -16.1020 C   0  0  2  0  0  0  0  0  0  0  0  0
   21.3493  -10.8414  -16.8369 N   0  0  0  0  0  0  0  0  0  0  0  0
   22.1255   -8.6102  -16.2476 C   0  0  0  0  0  0  0  0  0  0  0  0
   22.2374   -8.0001  -17.3418 O   0  0  0  0  0  0  0  0  0  0  0  0
   21.8218   -7.7966  -15.1246 N   0  0  0  0  0  0  0  0  0  0  0  0
   21.7410   -6.3579  -15.2558 C   0  0  1  0  0  0  0  0  0  0  0  0
   20.3129   -6.0263  -15.6487 C   0  0  0  0  0  0  0  0  0  0  0  0
   20.0898   -4.5674  -15.7517 C   0  0  0  0  0  0  0  0  0  0  0  0
   21.0680   -3.7607  -15.7293 O   0  0  0  0  0  0  0  0  0  0  0  0
   21.9925   -5.6628  -13.9720 C   0  0  0  0  0  0  0  0  0  0  0  0
   22.2110   -4.3137  -13.8155 O   0  0  0  0  0  0  0  0  0  0  0  0
   18.8122   -3.9979  -15.8785 O   0  0  0  0  0  0  0  0  0  0  0  0
   22.0060   -6.3785  -12.9348 O   0  0  0  0  0  0  0  0  0  0  0  0
  2  1  1  6
  2  4  1  0
  3  2  1  0
  4  6  1  0
  4  5  1  6
  6  7  2  0
  9  8  1  1
  9 10  1  0
 11  9  1  0
 12 11  1  6
 12 14  1  0
 13  6  1  0
 13 12  1  0
 14 15  2  0
 16 14  1  0
 16 17  1  0
 17 21  1  0
 17 18  1  1
 19 20  2  0
 19 18  1  0
 21 24  2  0
 21 22  1  0
 23 19  1  0
M  END
$$$$
