VLD.pdb
     RDKit          3D

 24 23  0  0  1  0  0  0  0  0999 V2000
   20.4834  -11.4736  -20.4065 C   0  0  0  0  0  0  0  0  0  0  0  0
   21.9185  -11.7468  -20.7666 C   0  0  2  0  0  0  0  0  0  0  0  0
   21.8833  -12.6925  -21.9658 C   0  0  0  0  0  0  0  0  0  0  0  0
   22.6844  -12.4383  -19.6509 C   0  0  2  0  0  0  0  0  0  0  0  0
   22.0749  -13.6952  -19.2968 N   0  0  0  0  0  0  0  0  0  0  0  0
   22.7100  -11.5278  -18.4866 C   0  0  0  0  0  0  0  0  0  0  0  0
   21.7283  -11.5158  -17.7074 O   0  0  0  0  0  0  0  0  0  0  0  0
   27.1197  -10.0254  -15.5115 C   0  0  0  0  0  0  0  0  0  0  0  0
   25.7496  -10.5106  -15.9815 C   0  0  1  0  0  0  0  0  0  0  0  0
   25.0413  -11.0666  -14.7831 C   0  0  0  0  0  0  0  0  0  0  0  0
   25.0620   -9.3056  -16.5900 C   0  0  0  0  0  0  0  0  0  0  0  0
   23.6780   -9.6996  -17.1349 C   0  0  2  0  0  0  0  0  0  0  0  0
   23.7742  -10.6549  -18.1794 N   0  0  0  0  0  0  0  0  0  0  0  0
   22.9064   -8.4848  -17.4971 C   0  0  0  0  0  0  0  0  0  0  0  0
   23.0191   -7.8891  -18.5990 O   0  0  0  0  0  0  0  0  0  0  0  0
   21.9737   -7.9170  -16.5900 N   0  0  0  0  0  0  0  0  0  0  0  0
   21.2457   -6.7153  -16.9358 C   0  0  1  0  0  0  0  0  0  0  0  0
   19.8176   -7.1315  -17.2381 C   0  0  0  0  0  0  0  0  0  0  0  0
   18.9684   -5.9767  -17.6043 C   0  0  0  0  0  0  0  0  0  0  0  0
   19.1301   -5.3809  -18.7120 O   0  0  0  0  0  0  0  0  0  0  0  0
   21.1714   -5.7601  -15.8059 C   0  0  0  0  0  0  0  0  0  0  0  0
   20.8223   -4.4325  -15.8948 O   0  0  0  0  0  0  0  0  0  0  0  0
   17.9542   -5.4801  -16.7692 O   0  0  0  0  0  0  0  0  0  0  0  0
   21.4550   -6.2117  -14.6641 O   0  0  0  0  0  0  0  0  0  0  0  0
  2  1  1  1
  2  4  1  0
  3  2  1  0
  4  6  1  0
  4  5  1  1
  6  7  2  0
  9  8  1  1
  9 10  1  0
 11  9  1  0
 12 11  1  6
 12 14  1  0
 13  6  1  0
 13 12  1  0
 14 15  2  0
 16 14  1  0
 16 17  1  0
 17 21  1  0
 17 18  1  1
 19 20  2  0
 19 18  1  0
 21 24  2  0
 21 22  1  0
 23 19  1  0
M  END
$$$$
