VLD.pdb
     RDKit          3D

 24 23  0  0  1  0  0  0  0  0999 V2000
   18.5034  -15.5129  -19.3407 C   0  0  0  0  0  0  0  0  0  0  0  0
   19.1536  -14.5490  -18.3858 C   0  0  2  0  0  0  0  0  0  0  0  0
   19.5683  -13.3384  -19.2202 C   0  0  0  0  0  0  0  0  0  0  0  0
   20.4046  -15.1169  -17.7361 C   0  0  2  0  0  0  0  0  0  0  0  0
   20.1077  -16.3036  -16.9745 N   0  0  0  0  0  0  0  0  0  0  0  0
   20.9774  -14.0701  -16.8636 C   0  0  0  0  0  0  0  0  0  0  0  0
   20.3448  -13.7259  -15.8378 O   0  0  0  0  0  0  0  0  0  0  0  0
   26.3272  -13.6697  -16.1235 C   0  0  0  0  0  0  0  0  0  0  0  0
   24.8196  -13.7689  -15.8981 C   0  0  1  0  0  0  0  0  0  0  0  0
   24.6108  -14.1840  -14.4729 C   0  0  0  0  0  0  0  0  0  0  0  0
   24.2542  -12.4013  -16.2226 C   0  0  0  0  0  0  0  0  0  0  0  0
   22.7163  -12.4420  -16.2061 C   0  0  2  0  0  0  0  0  0  0  0  0
   22.2042  -13.4164  -17.1013 N   0  0  0  0  0  0  0  0  0  0  0  0
   22.1665  -11.0798  -16.4176 C   0  0  0  0  0  0  0  0  0  0  0  0
   22.1619  -10.4941  -17.5305 O   0  0  0  0  0  0  0  0  0  0  0  0
   21.6008  -10.3475  -15.3411 N   0  0  0  0  0  0  0  0  0  0  0  0
   21.0924   -9.0084  -15.5461 C   0  0  1  0  0  0  0  0  0  0  0  0
   19.8432   -8.8715  -14.6950 C   0  0  0  0  0  0  0  0  0  0  0  0
   19.2151   -7.5399  -14.8406 C   0  0  0  0  0  0  0  0  0  0  0  0
   19.3820   -6.8586  -15.8971 O   0  0  0  0  0  0  0  0  0  0  0  0
   22.0369   -7.9711  -15.0703 C   0  0  0  0  0  0  0  0  0  0  0  0
   21.7576   -6.9888  -14.1486 O   0  0  0  0  0  0  0  0  0  0  0  0
   18.4137   -6.9610  -13.8431 O   0  0  0  0  0  0  0  0  0  0  0  0
   23.1985   -7.9974  -15.5583 O   0  0  0  0  0  0  0  0  0  0  0  0
  2  1  1  6
  2  4  1  0
  3  2  1  0
  4  6  1  0
  4  5  1  1
  6  7  2  0
  9  8  1  1
  9 10  1  0
 11  9  1  0
 12 11  1  6
 12 14  1  0
 13  6  1  0
 13 12  1  0
 14 15  2  0
 16 14  1  0
 16 17  1  0
 17 21  1  0
 17 18  1  1
 19 20  2  0
 19 18  1  0
 21 24  2  0
 21 22  1  0
 23 19  1  0
M  END
$$$$
