VLD.pdb
     RDKit          3D

 24 23  0  0  1  0  0  0  0  0999 V2000
   24.8390  -23.0873  -17.0553 C   0  0  0  0  0  0  0  0  0  0  0  0
   25.9040  -23.4364  -16.0514 C   0  0  2  0  0  0  0  0  0  0  0  0
   26.8241  -24.4427  -16.7403 C   0  0  0  0  0  0  0  0  0  0  0  0
   25.3430  -24.0974  -14.8033 C   0  0  2  0  0  0  0  0  0  0  0  0
   24.5272  -25.2379  -15.1351 N   0  0  0  0  0  0  0  0  0  0  0  0
   24.5492  -23.0866  -14.0728 C   0  0  0  0  0  0  0  0  0  0  0  0
   23.3007  -23.1052  -14.1813 O   0  0  0  0  0  0  0  0  0  0  0  0
   26.1934  -20.2061   -9.5203 C   0  0  0  0  0  0  0  0  0  0  0  0
   25.2530  -21.0153  -10.4115 C   0  0  1  0  0  0  0  0  0  0  0  0
   23.9842  -21.2255   -9.6414 C   0  0  0  0  0  0  0  0  0  0  0  0
   25.0691  -20.2031  -11.6770 C   0  0  0  0  0  0  0  0  0  0  0  0
   24.3085  -21.0244  -12.7326 C   0  0  2  0  0  0  0  0  0  0  0  0
   25.0992  -22.0838  -13.2477 N   0  0  0  0  0  0  0  0  0  0  0  0
   23.7499  -20.1266  -13.7739 C   0  0  0  0  0  0  0  0  0  0  0  0
   24.3581  -19.8210  -14.8314 O   0  0  0  0  0  0  0  0  0  0  0  0
   22.4613  -19.5504  -13.6238 N   0  0  0  0  0  0  0  0  0  0  0  0
   21.6493  -19.2461  -14.7822 C   0  0  1  0  0  0  0  0  0  0  0  0
   21.9298  -20.3207  -15.8168 C   0  0  0  0  0  0  0  0  0  0  0  0
   22.0609  -19.7590  -17.1792 C   0  0  0  0  0  0  0  0  0  0  0  0
   21.9496  -18.5115  -17.3776 O   0  0  0  0  0  0  0  0  0  0  0  0
   20.1998  -19.3205  -14.4860 C   0  0  0  0  0  0  0  0  0  0  0  0
   19.6053  -20.1651  -13.5774 O   0  0  0  0  0  0  0  0  0  0  0  0
   22.3113  -20.5523  -18.3108 O   0  0  0  0  0  0  0  0  0  0  0  0
   19.4505  -18.5368  -15.1283 O   0  0  0  0  0  0  0  0  0  0  0  0
  2  1  1  6
  2  4  1  0
  3  2  1  0
  4  6  1  0
  4  5  1  6
  6  7  2  0
  9  8  1  1
  9 10  1  0
 11  9  1  0
 12 11  1  1
 12 14  1  0
 13  6  1  0
 13 12  1  0
 14 15  2  0
 16 14  1  0
 16 17  1  0
 17 21  1  0
 17 18  1  6
 19 20  2  0
 19 18  1  0
 21 24  2  0
 21 22  1  0
 23 19  1  0
M  END
$$$$
