VLD.pdb
     RDKit          3D

 24 23  0  0  1  0  0  0  0  0999 V2000
   24.9075  -17.7028  -18.3261 C   0  0  0  0  0  0  0  0  0  0  0  0
   24.2241  -18.5021  -17.2500 C   0  0  2  0  0  0  0  0  0  0  0  0
   23.2820  -17.5349  -16.5354 C   0  0  0  0  0  0  0  0  0  0  0  0
   25.1952  -19.0529  -16.2189 C   0  0  2  0  0  0  0  0  0  0  0  0
   26.2372  -19.8293  -16.8417 N   0  0  0  0  0  0  0  0  0  0  0  0
   24.4252  -19.8847  -15.2700 C   0  0  0  0  0  0  0  0  0  0  0  0
   23.7871  -20.8696  -15.7099 O   0  0  0  0  0  0  0  0  0  0  0  0
   26.0118  -20.8031  -10.1228 C   0  0  0  0  0  0  0  0  0  0  0  0
   25.5470  -20.9178  -11.5734 C   0  0  1  0  0  0  0  0  0  0  0  0
   25.7454  -22.3438  -11.9910 C   0  0  0  0  0  0  0  0  0  0  0  0
   24.0981  -20.4756  -11.5877 C   0  0  0  0  0  0  0  0  0  0  0  0
   23.5586  -20.4610  -13.0286 C   0  0  2  0  0  0  0  0  0  0  0  0
   24.3519  -19.6505  -13.8811 N   0  0  0  0  0  0  0  0  0  0  0  0
   22.1169  -20.1094  -13.0312 C   0  0  0  0  0  0  0  0  0  0  0  0
   21.6848  -18.9361  -13.1677 O   0  0  0  0  0  0  0  0  0  0  0  0
   21.1227  -21.1106  -12.8752 N   0  0  0  0  0  0  0  0  0  0  0  0
   19.7336  -20.8219  -13.1594 C   0  0  1  0  0  0  0  0  0  0  0  0
   19.6296  -20.5593  -14.6507 C   0  0  0  0  0  0  0  0  0  0  0  0
   18.2333  -20.3179  -15.0760 C   0  0  0  0  0  0  0  0  0  0  0  0
   17.2996  -20.2499  -14.2207 O   0  0  0  0  0  0  0  0  0  0  0  0
   18.8515  -21.9781  -12.8770 C   0  0  0  0  0  0  0  0  0  0  0  0
   19.1867  -23.3035  -13.0298 O   0  0  0  0  0  0  0  0  0  0  0  0
   17.8630  -20.1524  -16.4206 O   0  0  0  0  0  0  0  0  0  0  0  0
   17.6916  -21.7158  -12.4600 O   0  0  0  0  0  0  0  0  0  0  0  0
  2  1  1  6
  2  4  1  0
  3  2  1  0
  4  6  1  0
  4  5  1  6
  6  7  2  0
  9  8  1  1
  9 10  1  0
 11  9  1  0
 12 11  1  1
 12 14  1  0
 13  6  1  0
 13 12  1  0
 14 15  2  0
 16 14  1  0
 16 17  1  0
 17 21  1  0
 17 18  1  6
 19 20  2  0
 19 18  1  0
 21 24  2  0
 21 22  1  0
 23 19  1  0
M  END
$$$$
