VLD.pdb
     RDKit          3D

 24 23  0  0  1  0  0  0  0  0999 V2000
   26.0058  -27.3707  -18.0496 C   0  0  0  0  0  0  0  0  0  0  0  0
   27.4005  -27.0779  -18.5321 C   0  0  2  0  0  0  0  0  0  0  0  0
   27.9276  -28.3829  -19.1262 C   0  0  0  0  0  0  0  0  0  0  0  0
   28.3379  -26.6658  -17.4092 C   0  0  2  0  0  0  0  0  0  0  0  0
   28.3091  -27.6159  -16.3262 N   0  0  0  0  0  0  0  0  0  0  0  0
   27.9199  -25.3286  -16.9375 C   0  0  0  0  0  0  0  0  0  0  0  0
   27.6135  -25.1821  -15.7311 O   0  0  0  0  0  0  0  0  0  0  0  0
   30.1017  -21.8849  -16.7772 C   0  0  0  0  0  0  0  0  0  0  0  0
   29.0026  -20.9311  -17.2417 C   0  0  1  0  0  0  0  0  0  0  0  0
   29.6676  -19.8293  -18.0104 C   0  0  0  0  0  0  0  0  0  0  0  0
   28.0472  -21.7624  -18.0732 C   0  0  0  0  0  0  0  0  0  0  0  0
   27.4731  -22.9161  -17.2326 C   0  0  2  0  0  0  0  0  0  0  0  0
   27.8376  -24.1833  -17.7564 N   0  0  0  0  0  0  0  0  0  0  0  0
   26.0114  -22.7367  -17.0488 C   0  0  0  0  0  0  0  0  0  0  0  0
   25.4972  -21.7456  -16.4699 O   0  0  0  0  0  0  0  0  0  0  0  0
   25.0924  -23.7046  -17.5321 N   0  0  0  0  0  0  0  0  0  0  0  0
   23.6661  -23.4943  -17.4086 C   0  0  1  0  0  0  0  0  0  0  0  0
   23.3800  -23.2340  -15.9409 C   0  0  0  0  0  0  0  0  0  0  0  0
   21.9380  -23.0253  -15.6847 C   0  0  0  0  0  0  0  0  0  0  0  0
   21.0881  -23.1746  -16.6140 O   0  0  0  0  0  0  0  0  0  0  0  0
   23.2113  -22.2903  -18.1421 C   0  0  0  0  0  0  0  0  0  0  0  0
   21.9831  -22.1271  -18.7399 O   0  0  0  0  0  0  0  0  0  0  0  0
   21.4316  -22.6582  -14.4272 O   0  0  0  0  0  0  0  0  0  0  0  0
   24.0284  -21.3342  -18.2212 O   0  0  0  0  0  0  0  0  0  0  0  0
  2  1  1  1
  2  4  1  0
  3  2  1  0
  4  6  1  0
  4  5  1  1
  6  7  2  0
  9  8  1  6
  9 10  1  0
 11  9  1  0
 12 11  1  6
 12 14  1  0
 13  6  1  0
 13 12  1  0
 14 15  2  0
 16 14  1  0
 16 17  1  0
 17 21  1  0
 17 18  1  1
 19 20  2  0
 19 18  1  0
 21 24  2  0
 21 22  1  0
 23 19  1  0
M  END
$$$$
