VLD.pdb
     RDKit          3D

 24 23  0  0  1  0  0  0  0  0999 V2000
   18.7641   -8.8631  -19.8622 C   0  0  0  0  0  0  0  0  0  0  0  0
   19.9756   -9.6547  -20.2738 C   0  0  2  0  0  0  0  0  0  0  0  0
   19.6466  -10.2566  -21.6388 C   0  0  0  0  0  0  0  0  0  0  0  0
   20.2825  -10.7992  -19.3223 C   0  0  2  0  0  0  0  0  0  0  0  0
   19.1595  -11.6936  -19.1979 N   0  0  0  0  0  0  0  0  0  0  0  0
   20.6295  -10.2163  -18.0090 C   0  0  0  0  0  0  0  0  0  0  0  0
   19.7039   -9.8823  -17.2327 O   0  0  0  0  0  0  0  0  0  0  0  0
   24.5472  -11.8498  -14.7175 C   0  0  0  0  0  0  0  0  0  0  0  0
   23.2170  -11.3318  -15.2615 C   0  0  1  0  0  0  0  0  0  0  0  0
   22.1903  -11.5339  -14.1882 C   0  0  0  0  0  0  0  0  0  0  0  0
   23.4458   -9.8775  -15.6188 C   0  0  0  0  0  0  0  0  0  0  0  0
   22.2161   -9.3070  -16.3468 C   0  0  2  0  0  0  0  0  0  0  0  0
   21.9471  -10.0028  -17.5536 N   0  0  0  0  0  0  0  0  0  0  0  0
   22.3568   -7.8392  -16.5147 C   0  0  0  0  0  0  0  0  0  0  0  0
   22.7904   -7.2949  -17.5623 O   0  0  0  0  0  0  0  0  0  0  0  0
   21.9976   -6.9488  -15.4691 N   0  0  0  0  0  0  0  0  0  0  0  0
   22.0267   -5.5170  -15.6764 C   0  0  1  0  0  0  0  0  0  0  0  0
   21.0165   -5.2044  -16.7652 C   0  0  0  0  0  0  0  0  0  0  0  0
   20.9088   -3.7514  -17.0222 C   0  0  0  0  0  0  0  0  0  0  0  0
   21.6716   -2.9314  -16.4272 O   0  0  0  0  0  0  0  0  0  0  0  0
   21.5907   -4.7676  -14.4753 C   0  0  0  0  0  0  0  0  0  0  0  0
   22.0851   -3.5530  -14.0599 O   0  0  0  0  0  0  0  0  0  0  0  0
   19.9784   -3.2021  -17.9194 O   0  0  0  0  0  0  0  0  0  0  0  0
   20.6854   -5.2969  -13.7764 O   0  0  0  0  0  0  0  0  0  0  0  0
  2  1  1  1
  2  4  1  0
  3  2  1  0
  4  6  1  0
  4  5  1  1
  6  7  2  0
  9  8  1  1
  9 10  1  0
 11  9  1  0
 12 11  1  6
 12 14  1  0
 13  6  1  0
 13 12  1  0
 14 15  2  0
 16 14  1  0
 16 17  1  0
 17 21  1  0
 17 18  1  6
 19 20  2  0
 19 18  1  0
 21 24  2  0
 21 22  1  0
 23 19  1  0
M  END
$$$$
