VLD.pdb
     RDKit          3D

 24 23  0  0  1  0  0  0  0  0999 V2000
   19.8749  -14.1873  -18.4032 C   0  0  0  0  0  0  0  0  0  0  0  0
   21.1413  -14.6335  -19.0820 C   0  0  2  0  0  0  0  0  0  0  0  0
   20.7359  -15.7417  -20.0522 C   0  0  0  0  0  0  0  0  0  0  0  0
   22.1570  -15.2132  -18.1115 C   0  0  2  0  0  0  0  0  0  0  0  0
   21.6062  -16.3237  -17.3767 N   0  0  0  0  0  0  0  0  0  0  0  0
   22.5697  -14.1343  -17.1891 C   0  0  0  0  0  0  0  0  0  0  0  0
   21.8311  -13.8565  -16.2154 O   0  0  0  0  0  0  0  0  0  0  0  0
   26.1464  -14.0224  -15.7173 C   0  0  0  0  0  0  0  0  0  0  0  0
   26.3072  -12.5215  -15.4830 C   0  0  1  0  0  0  0  0  0  0  0  0
   27.7742  -12.2186  -15.5402 C   0  0  0  0  0  0  0  0  0  0  0  0
   25.5018  -11.8370  -16.5683 C   0  0  0  0  0  0  0  0  0  0  0  0
   24.0261  -12.2649  -16.4881 C   0  0  2  0  0  0  0  0  0  0  0  0
   23.7532  -13.3791  -17.3231 N   0  0  0  0  0  0  0  0  0  0  0  0
   23.1415  -11.0982  -16.7302 C   0  0  0  0  0  0  0  0  0  0  0  0
   22.6026  -10.8490  -17.8389 O   0  0  0  0  0  0  0  0  0  0  0  0
   22.8503  -10.1768  -15.6903 N   0  0  0  0  0  0  0  0  0  0  0  0
   21.9841   -9.0428  -15.9301 C   0  0  1  0  0  0  0  0  0  0  0  0
   20.5803   -9.5876  -16.1209 C   0  0  0  0  0  0  0  0  0  0  0  0
   19.5979   -8.5124  -16.3804 C   0  0  0  0  0  0  0  0  0  0  0  0
   19.8783   -7.5559  -17.1645 O   0  0  0  0  0  0  0  0  0  0  0  0
   21.9220   -8.1287  -14.7661 C   0  0  0  0  0  0  0  0  0  0  0  0
   21.3364   -6.8840  -14.7494 O   0  0  0  0  0  0  0  0  0  0  0  0
   18.3239   -8.4840  -15.7899 O   0  0  0  0  0  0  0  0  0  0  0  0
   22.4556   -8.5348  -13.6991 O   0  0  0  0  0  0  0  0  0  0  0  0
  2  1  1  1
  2  4  1  0
  3  2  1  0
  4  6  1  0
  4  5  1  1
  6  7  2  0
  9  8  1  6
  9 10  1  0
 11  9  1  0
 12 11  1  6
 12 14  1  0
 13  6  1  0
 13 12  1  0
 14 15  2  0
 16 14  1  0
 16 17  1  0
 17 21  1  0
 17 18  1  1
 19 20  2  0
 19 18  1  0
 21 24  2  0
 21 22  1  0
 23 19  1  0
M  END
$$$$
