VLD.pdb
     RDKit          3D

 24 23  0  0  1  0  0  0  0  0999 V2000
   26.1396  -19.5781  -17.1307 C   0  0  0  0  0  0  0  0  0  0  0  0
   26.8983  -18.8844  -16.0321 C   0  0  2  0  0  0  0  0  0  0  0  0
   28.0277  -18.1154  -16.7153 C   0  0  0  0  0  0  0  0  0  0  0  0
   27.5265  -19.8553  -15.0461 C   0  0  2  0  0  0  0  0  0  0  0  0
   28.3791  -20.8047  -15.7155 N   0  0  0  0  0  0  0  0  0  0  0  0
   26.4327  -20.5511  -14.3356 C   0  0  0  0  0  0  0  0  0  0  0  0
   25.9827  -21.6177  -14.8159 O   0  0  0  0  0  0  0  0  0  0  0  0
   25.7625  -20.3388   -8.8830 C   0  0  0  0  0  0  0  0  0  0  0  0
   25.9390  -20.7905  -10.3315 C   0  0  1  0  0  0  0  0  0  0  0  0
   26.2589  -22.2547  -10.3033 C   0  0  0  0  0  0  0  0  0  0  0  0
   24.6376  -20.4654  -11.0357 C   0  0  0  0  0  0  0  0  0  0  0  0
   24.7517  -20.7762  -12.5382 C   0  0  2  0  0  0  0  0  0  0  0  0
   25.8453  -20.0982  -13.1361 N   0  0  0  0  0  0  0  0  0  0  0  0
   23.4510  -20.5343  -13.2106 C   0  0  0  0  0  0  0  0  0  0  0  0
   23.0679  -19.4024  -13.6028 O   0  0  0  0  0  0  0  0  0  0  0  0
   22.5464  -21.6013  -13.4522 N   0  0  0  0  0  0  0  0  0  0  0  0
   21.2786  -21.3602  -14.1065 C   0  0  1  0  0  0  0  0  0  0  0  0
   21.1403  -22.3982  -15.2052 C   0  0  0  0  0  0  0  0  0  0  0  0
   19.8619  -22.2644  -15.9378 C   0  0  0  0  0  0  0  0  0  0  0  0
   19.0422  -21.3423  -15.6446 O   0  0  0  0  0  0  0  0  0  0  0  0
   20.1293  -21.5630  -13.1941 C   0  0  0  0  0  0  0  0  0  0  0  0
   18.8615  -21.0590  -13.3707 O   0  0  0  0  0  0  0  0  0  0  0  0
   19.4851  -23.1284  -16.9790 O   0  0  0  0  0  0  0  0  0  0  0  0
   20.3397  -22.2609  -12.1661 O   0  0  0  0  0  0  0  0  0  0  0  0
  2  1  1  6
  2  4  1  0
  3  2  1  0
  4  6  1  0
  4  5  1  6
  6  7  2  0
  9  8  1  1
  9 10  1  0
 11  9  1  0
 12 11  1  1
 12 14  1  0
 13  6  1  0
 13 12  1  0
 14 15  2  0
 16 14  1  0
 16 17  1  0
 17 21  1  0
 17 18  1  6
 19 20  2  0
 19 18  1  0
 21 24  2  0
 21 22  1  0
 23 19  1  0
M  END
$$$$
