VLD.pdb
     RDKit          3D

 24 23  0  0  1  0  0  0  0  0999 V2000
   37.1644  -26.7074    2.5623 C   0  0  0  0  0  0  0  0  0  0  0  0
   37.3739  -27.5297    3.8047 C   0  0  2  0  0  0  0  0  0  0  0  0
   37.5820  -28.9677    3.3328 C   0  0  0  0  0  0  0  0  0  0  0  0
   36.1696  -27.5139    4.7316 C   0  0  2  0  0  0  0  0  0  0  0  0
   34.9676  -27.8995    4.0366 N   0  0  0  0  0  0  0  0  0  0  0  0
   36.0367  -26.1472    5.2789 C   0  0  0  0  0  0  0  0  0  0  0  0
   37.0551  -25.5783    5.7371 O   0  0  0  0  0  0  0  0  0  0  0  0
   32.2584  -22.0831    4.0479 C   0  0  0  0  0  0  0  0  0  0  0  0
   33.5659  -22.8288    4.3087 C   0  0  1  0  0  0  0  0  0  0  0  0
   34.6768  -21.8290    4.1944 C   0  0  0  0  0  0  0  0  0  0  0  0
   33.4351  -23.4380    5.6896 C   0  0  0  0  0  0  0  0  0  0  0  0
   34.7151  -24.2091    6.0562 C   0  0  2  0  0  0  0  0  0  0  0  0
   34.8290  -25.4204    5.3262 N   0  0  0  0  0  0  0  0  0  0  0  0
   34.8052  -24.3803    7.5275 C   0  0  0  0  0  0  0  0  0  0  0  0
   34.1388  -25.2289    8.1737 O   0  0  0  0  0  0  0  0  0  0  0  0
   35.6751  -23.5698    8.3031 N   0  0  0  0  0  0  0  0  0  0  0  0
   35.7490  -23.7307    9.7392 C   0  0  1  0  0  0  0  0  0  0  0  0
   37.1272  -23.2621   10.1693 C   0  0  0  0  0  0  0  0  0  0  0  0
   37.5393  -23.8588   11.4588 C   0  0  0  0  0  0  0  0  0  0  0  0
   36.7332  -24.5743   12.1270 O   0  0  0  0  0  0  0  0  0  0  0  0
   34.7752  -22.8705   10.4506 C   0  0  0  0  0  0  0  0  0  0  0  0
   34.4018  -22.9957   11.7687 O   0  0  0  0  0  0  0  0  0  0  0  0
   38.8178  -23.6756   12.0104 O   0  0  0  0  0  0  0  0  0  0  0  0
   34.2456  -21.9431    9.7816 O   0  0  0  0  0  0  0  0  0  0  0  0
  2  1  1  6
  2  4  1  0
  3  2  1  0
  4  6  1  0
  4  5  1  6
  6  7  2  0
  9  8  1  1
  9 10  1  0
 11  9  1  0
 12 11  1  1
 12 14  1  0
 13  6  1  0
 13 12  1  0
 14 15  2  0
 16 14  1  0
 16 17  1  0
 17 21  1  0
 17 18  1  1
 19 20  2  0
 19 18  1  0
 21 24  2  0
 21 22  1  0
 23 19  1  0
M  END
$$$$
