LCS.pdb
     RDKit          3D

 21 20  0  0  1  0  0  0  0  0999 V2000
    9.4191  -14.2330   19.2928 C   0  0  0  0  0  0  0  0  0  0  0  0
    7.9553  -13.8664   19.3532 C   0  0  2  0  0  0  0  0  0  0  0  0
    7.7789  -12.3702   19.1980 C   0  0  0  0  0  0  0  0  0  0  0  0
    7.3635  -14.2483   20.7018 C   0  0  0  0  0  0  0  0  0  0  0  0
    7.3982  -15.7456   20.9217 C   0  0  2  0  0  0  0  0  0  0  0  0
    6.4498  -16.4400   20.0987 N   0  0  0  0  0  0  0  0  0  0  0  0
    7.1604  -15.9606   22.3823 C   0  0  0  0  0  0  0  0  0  0  0  0
    6.0120  -15.6376   22.8011 O   0  0  0  0  0  0  0  0  0  0  0  0
    8.1339  -16.4874   23.2601 N   0  0  0  0  0  0  0  0  0  0  0  0
    7.7787  -16.5935   24.6808 C   0  0  1  0  0  0  0  0  0  0  0  0
    7.7735  -18.0925   25.0117 C   0  0  0  0  0  0  0  0  0  0  0  0
    7.5967  -18.4329   26.7538 S   0  0  0  0  0  0  0  0  0  0  0  0
    8.7669  -15.9048   25.5190 C   0  0  0  0  0  0  0  0  0  0  0  0
   10.0046  -16.0650   25.2386 O   0  0  0  0  0  0  0  0  0  0  0  0
    7.7305  -13.1906   28.3424 O   0  0  0  0  0  0  0  0  0  0  0  0
    9.0205  -13.0696   27.8323 C   0  0  0  0  0  0  0  0  0  0  0  0
    9.5687  -14.4019   27.3753 C   0  0  2  0  0  0  0  0  0  0  0  0
    8.4991  -15.0667   26.6221 N   0  0  0  0  0  0  0  0  0  0  0  0
    9.9186  -15.2704   28.5264 C   0  0  0  0  0  0  0  0  0  0  0  0
   10.9070  -14.9019   29.4270 O   0  0  0  0  0  0  0  0  0  0  0  0
    9.3364  -16.3668   28.7286 O   0  0  0  0  0  0  0  0  0  0  0  0
  2  1  1  1
  2  4  1  0
  2  3  1  0
  5  4  1  0
  5  6  1  6
  7  5  1  0
  7  9  1  0
  8  7  2  0
 10  9  1  0
 10 13  1  0
 10 11  1  1
 12 11  1  0
 13 14  2  0
 13 18  1  0
 16 15  1  0
 17 16  1  1
 18 17  1  0
 19 17  1  0
 19 20  1  0
 21 19  2  0
M  END
$$$$
