LCS.pdb
     RDKit          3D

 21 20  0  0  1  0  0  0  0  0999 V2000
    7.5868  -11.3892   26.9302 C   0  0  0  0  0  0  0  0  0  0  0  0
    6.4100  -12.0898   26.2937 C   0  0  2  0  0  0  0  0  0  0  0  0
    5.3126  -12.3112   27.3137 C   0  0  0  0  0  0  0  0  0  0  0  0
    6.8201  -13.4600   25.7747 C   0  0  0  0  0  0  0  0  0  0  0  0
    8.0933  -13.3887   24.9590 C   0  0  2  0  0  0  0  0  0  0  0  0
    8.0610  -12.3323   23.9884 N   0  0  0  0  0  0  0  0  0  0  0  0
    8.2695  -14.7374   24.3376 C   0  0  0  0  0  0  0  0  0  0  0  0
    8.0076  -15.7213   25.0871 O   0  0  0  0  0  0  0  0  0  0  0  0
    8.6981  -14.9306   23.0055 N   0  0  0  0  0  0  0  0  0  0  0  0
    8.8549  -16.3137   22.5381 C   0  0  1  0  0  0  0  0  0  0  0  0
    8.4553  -16.3143   21.0559 C   0  0  0  0  0  0  0  0  0  0  0  0
    6.7322  -15.9400   20.7865 S   0  0  0  0  0  0  0  0  0  0  0  0
   10.2472  -16.7566   22.6758 C   0  0  0  0  0  0  0  0  0  0  0  0
   11.1322  -15.8731   22.9441 O   0  0  0  0  0  0  0  0  0  0  0  0
   12.2802  -19.1948   25.6415 O   0  0  0  0  0  0  0  0  0  0  0  0
   11.3790  -18.5516   24.7970 C   0  0  0  0  0  0  0  0  0  0  0  0
   11.8381  -18.5873   23.3575 C   0  0  2  0  0  0  0  0  0  0  0  0
   10.7289  -18.0763   22.5440 N   0  0  0  0  0  0  0  0  0  0  0  0
   12.1249  -19.9734   22.9118 C   0  0  0  0  0  0  0  0  0  0  0  0
   13.4224  -20.3867   22.6484 O   0  0  0  0  0  0  0  0  0  0  0  0
   11.2088  -20.8210   22.7567 O   0  0  0  0  0  0  0  0  0  0  0  0
  2  1  1  1
  2  4  1  0
  2  3  1  0
  5  4  1  0
  5  6  1  6
  7  5  1  0
  7  9  1  0
  8  7  2  0
 10  9  1  0
 10 13  1  0
 10 11  1  6
 12 11  1  0
 13 14  2  0
 13 18  1  0
 16 15  1  0
 17 16  1  1
 18 17  1  0
 19 17  1  0
 19 20  1  0
 21 19  2  0
M  END
$$$$
