LCS.pdb
     RDKit          3D

 21 20  0  0  1  0  0  0  0  0999 V2000
    9.0709  -14.3393   29.6360 C   0  0  0  0  0  0  0  0  0  0  0  0
   10.1893  -15.3404   29.4687 C   0  0  2  0  0  0  0  0  0  0  0  0
   11.5275  -14.6332   29.4173 C   0  0  0  0  0  0  0  0  0  0  0  0
   10.0354  -16.1005   28.1598 C   0  0  0  0  0  0  0  0  0  0  0  0
    8.6493  -16.6924   28.0189 C   0  0  2  0  0  0  0  0  0  0  0  0
    8.6132  -18.0851   28.3627 N   0  0  0  0  0  0  0  0  0  0  0  0
    8.2251  -16.4358   26.6080 C   0  0  0  0  0  0  0  0  0  0  0  0
    8.2443  -17.4411   25.8416 O   0  0  0  0  0  0  0  0  0  0  0  0
    7.8247  -15.1666   26.1343 N   0  0  0  0  0  0  0  0  0  0  0  0
    7.5133  -15.0444   24.7046 C   0  0  1  0  0  0  0  0  0  0  0  0
    6.9839  -13.6180   24.5005 C   0  0  0  0  0  0  0  0  0  0  0  0
    5.7224  -13.1558   25.6739 S   0  0  0  0  0  0  0  0  0  0  0  0
    8.7163  -15.2475   23.8890 C   0  0  0  0  0  0  0  0  0  0  0  0
    9.7918  -14.6584   24.2524 O   0  0  0  0  0  0  0  0  0  0  0  0
   10.7176  -18.1421   23.2093 O   0  0  0  0  0  0  0  0  0  0  0  0
   10.4109  -17.6475   21.9443 C   0  0  0  0  0  0  0  0  0  0  0  0
   10.0818  -16.1729   21.9848 C   0  0  2  0  0  0  0  0  0  0  0  0
    8.8219  -16.0379   22.7249 N   0  0  0  0  0  0  0  0  0  0  0  0
    9.8670  -15.6254   20.6224 C   0  0  0  0  0  0  0  0  0  0  0  0
   10.9080  -15.5493   19.7090 O   0  0  0  0  0  0  0  0  0  0  0  0
    8.7403  -15.2122   20.2458 O   0  0  0  0  0  0  0  0  0  0  0  0
  2  1  1  6
  2  4  1  0
  2  3  1  0
  5  4  1  0
  5  6  1  6
  7  5  1  0
  7  9  1  0
  8  7  2  0
 10  9  1  0
 10 13  1  0
 10 11  1  1
 12 11  1  0
 13 14  2  0
 13 18  1  0
 16 15  1  0
 17 16  1  6
 18 17  1  0
 19 17  1  0
 19 20  1  0
 21 19  2  0
M  END
$$$$
