LCS.pdb
     RDKit          3D

 21 20  0  0  1  0  0  0  0  0999 V2000
    8.4557  -12.0336   18.4109 C   0  0  0  0  0  0  0  0  0  0  0  0
    7.7189  -13.3368   18.6095 C   0  0  2  0  0  0  0  0  0  0  0  0
    6.7125  -13.2083   19.7340 C   0  0  0  0  0  0  0  0  0  0  0  0
    8.6864  -14.4440   19.0006 C   0  0  0  0  0  0  0  0  0  0  0  0
    9.7746  -14.6248   17.9640 C   0  0  2  0  0  0  0  0  0  0  0  0
    9.3118  -15.3327   16.8048 N   0  0  0  0  0  0  0  0  0  0  0  0
   10.9005  -15.3250   18.6556 C   0  0  0  0  0  0  0  0  0  0  0  0
   10.8470  -16.5881   18.6427 O   0  0  0  0  0  0  0  0  0  0  0  0
   11.9659  -14.6478   19.2896 N   0  0  0  0  0  0  0  0  0  0  0  0
   13.0255  -15.4661   19.8927 C   0  0  1  0  0  0  0  0  0  0  0  0
   14.2261  -14.5317   20.0977 C   0  0  0  0  0  0  0  0  0  0  0  0
   15.5270  -15.2548   21.0808 S   0  0  0  0  0  0  0  0  0  0  0  0
   12.5938  -16.0087   21.1860 C   0  0  0  0  0  0  0  0  0  0  0  0
   11.9349  -15.2398   21.9674 O   0  0  0  0  0  0  0  0  0  0  0  0
   10.4785  -18.9248   22.3329 O   0  0  0  0  0  0  0  0  0  0  0  0
   11.7426  -19.0549   22.9022 C   0  0  0  0  0  0  0  0  0  0  0  0
   12.4393  -17.7196   23.0289 C   0  0  2  0  0  0  0  0  0  0  0  0
   12.8280  -17.3119   21.6739 N   0  0  0  0  0  0  0  0  0  0  0  0
   13.6762  -17.8259   23.8417 C   0  0  0  0  0  0  0  0  0  0  0  0
   13.6168  -18.0091   25.2153 O   0  0  0  0  0  0  0  0  0  0  0  0
   14.8184  -17.7545   23.3201 O   0  0  0  0  0  0  0  0  0  0  0  0
  2  1  1  1
  2  4  1  0
  2  3  1  0
  5  4  1  0
  5  6  1  6
  7  5  1  0
  7  9  1  0
  8  7  2  0
 10  9  1  0
 10 13  1  0
 10 11  1  1
 12 11  1  0
 13 14  2  0
 13 18  1  0
 16 15  1  0
 17 16  1  6
 18 17  1  0
 19 17  1  0
 19 20  1  0
 21 19  2  0
M  END
$$$$
