LCS.pdb
     RDKit          3D

 21 20  0  0  1  0  0  0  0  0999 V2000
    6.4302  -12.0271   25.0892 C   0  0  0  0  0  0  0  0  0  0  0  0
    6.1644  -12.8857   26.3028 C   0  0  2  0  0  0  0  0  0  0  0  0
    6.1200  -12.0327   27.5535 C   0  0  0  0  0  0  0  0  0  0  0  0
    7.2809  -13.9013   26.4945 C   0  0  0  0  0  0  0  0  0  0  0  0
    7.5139  -14.7165   25.2405 C   0  0  2  0  0  0  0  0  0  0  0  0
    6.3747  -15.5154   24.8895 N   0  0  0  0  0  0  0  0  0  0  0  0
    8.7373  -15.5377   25.4953 C   0  0  0  0  0  0  0  0  0  0  0  0
    9.3660  -15.2642   26.5576 O   0  0  0  0  0  0  0  0  0  0  0  0
    9.1854  -16.5572   24.6261 N   0  0  0  0  0  0  0  0  0  0  0  0
   10.4167  -17.2678   24.9932 C   0  0  1  0  0  0  0  0  0  0  0  0
   10.0587  -18.7603   25.0242 C   0  0  0  0  0  0  0  0  0  0  0  0
    8.8902  -19.1822   26.3042 S   0  0  0  0  0  0  0  0  0  0  0  0
   11.4713  -17.0321   24.0003 C   0  0  0  0  0  0  0  0  0  0  0  0
   11.1424  -17.0426   22.7643 O   0  0  0  0  0  0  0  0  0  0  0  0
   14.4701  -14.4713   24.0707 O   0  0  0  0  0  0  0  0  0  0  0  0
   14.9258  -15.7454   23.7419 C   0  0  0  0  0  0  0  0  0  0  0  0
   13.8177  -16.6098   23.1858 C   0  0  2  0  0  0  0  0  0  0  0  0
   12.8363  -16.7886   24.2621 N   0  0  0  0  0  0  0  0  0  0  0  0
   14.3164  -17.9532   22.8005 C   0  0  0  0  0  0  0  0  0  0  0  0
   15.1629  -18.1182   21.7143 O   0  0  0  0  0  0  0  0  0  0  0  0
   13.9930  -18.9870   23.4397 O   0  0  0  0  0  0  0  0  0  0  0  0
  2  1  1  6
  2  4  1  0
  2  3  1  0
  5  4  1  0
  5  6  1  1
  7  5  1  0
  7  9  1  0
  8  7  2  0
 10  9  1  0
 10 13  1  0
 10 11  1  6
 12 11  1  0
 13 14  2  0
 13 18  1  0
 16 15  1  0
 17 16  1  1
 18 17  1  0
 19 17  1  0
 19 20  1  0
 21 19  2  0
M  END
$$$$
