LCS.pdb
     RDKit          3D

 21 20  0  0  1  0  0  0  0  0999 V2000
    7.9902  -13.8857   18.5976 C   0  0  0  0  0  0  0  0  0  0  0  0
    7.6371  -13.4777   20.0082 C   0  0  2  0  0  0  0  0  0  0  0  0
    7.5061  -11.9720   20.1051 C   0  0  0  0  0  0  0  0  0  0  0  0
    8.7351  -13.8935   20.9759 C   0  0  0  0  0  0  0  0  0  0  0  0
    8.8407  -15.3996   21.0850 C   0  0  2  0  0  0  0  0  0  0  0  0
    7.5667  -16.0211   21.3084 N   0  0  0  0  0  0  0  0  0  0  0  0
    9.8163  -15.6731   22.1848 C   0  0  0  0  0  0  0  0  0  0  0  0
   10.9777  -15.2041   22.0124 O   0  0  0  0  0  0  0  0  0  0  0  0
    9.4914  -16.4032   23.3497 N   0  0  0  0  0  0  0  0  0  0  0  0
   10.5746  -16.6749   24.3031 C   0  0  1  0  0  0  0  0  0  0  0  0
    9.9111  -16.8072   25.6811 C   0  0  0  0  0  0  0  0  0  0  0  0
   10.9872  -17.5035   26.9217 S   0  0  0  0  0  0  0  0  0  0  0  0
   11.2668  -17.9239   23.9649 C   0  0  0  0  0  0  0  0  0  0  0  0
   10.5814  -19.0038   23.9550 O   0  0  0  0  0  0  0  0  0  0  0  0
   14.5837  -18.1458   21.7352 O   0  0  0  0  0  0  0  0  0  0  0  0
   13.7424  -19.2462   21.8779 C   0  0  0  0  0  0  0  0  0  0  0  0
   13.2167  -19.3692   23.2895 C   0  0  2  0  0  0  0  0  0  0  0  0
   12.6324  -18.0699   23.6411 N   0  0  0  0  0  0  0  0  0  0  0  0
   14.3085  -19.6502   24.2545 C   0  0  0  0  0  0  0  0  0  0  0  0
   14.6140  -18.7564   25.2701 O   0  0  0  0  0  0  0  0  0  0  0  0
   14.9942  -20.7025   24.1891 O   0  0  0  0  0  0  0  0  0  0  0  0
  2  1  1  6
  2  4  1  0
  2  3  1  0
  5  4  1  0
  5  6  1  1
  7  5  1  0
  7  9  1  0
  8  7  2  0
 10  9  1  0
 10 13  1  0
 10 11  1  1
 12 11  1  0
 13 14  2  0
 13 18  1  0
 16 15  1  0
 17 16  1  6
 18 17  1  0
 19 17  1  0
 19 20  1  0
 21 19  2  0
M  END
$$$$
