LCS.pdb
     RDKit          3D

 21 20  0  0  1  0  0  0  0  0999 V2000
    8.6461  -12.5504   18.3996 C   0  0  0  0  0  0  0  0  0  0  0  0
    8.1000  -13.7153   19.1907 C   0  0  2  0  0  0  0  0  0  0  0  0
    6.6809  -13.4315   19.6368 C   0  0  0  0  0  0  0  0  0  0  0  0
    8.9264  -13.9422   20.4478 C   0  0  0  0  0  0  0  0  0  0  0  0
    8.7575  -15.3495   20.9792 C   0  0  2  0  0  0  0  0  0  0  0  0
    7.4228  -15.8446   20.7982 N   0  0  0  0  0  0  0  0  0  0  0  0
    9.1665  -15.3070   22.4169 C   0  0  0  0  0  0  0  0  0  0  0  0
   10.3757  -15.0062   22.6311 O   0  0  0  0  0  0  0  0  0  0  0  0
    8.2837  -15.5796   23.4856 N   0  0  0  0  0  0  0  0  0  0  0  0
    8.8354  -15.5443   24.8459 C   0  0  1  0  0  0  0  0  0  0  0  0
    7.7027  -15.0498   25.7564 C   0  0  0  0  0  0  0  0  0  0  0  0
    7.0472  -13.4626   25.2733 S   0  0  0  0  0  0  0  0  0  0  0  0
    9.2637  -16.8822   25.2706 C   0  0  0  0  0  0  0  0  0  0  0  0
    8.4134  -17.8346   25.1944 O   0  0  0  0  0  0  0  0  0  0  0  0
   13.0952  -18.0700   25.3068 O   0  0  0  0  0  0  0  0  0  0  0  0
   12.0618  -18.9964   25.1936 C   0  0  0  0  0  0  0  0  0  0  0  0
   10.8868  -18.6341   26.0726 C   0  0  2  0  0  0  0  0  0  0  0  0
   10.5359  -17.2434   25.7625 N   0  0  0  0  0  0  0  0  0  0  0  0
   11.2426  -18.7008   27.5117 C   0  0  0  0  0  0  0  0  0  0  0  0
   11.5467  -19.9103   28.1187 O   0  0  0  0  0  0  0  0  0  0  0  0
   11.2818  -17.6703   28.2316 O   0  0  0  0  0  0  0  0  0  0  0  0
  2  1  1  1
  2  4  1  0
  2  3  1  0
  5  4  1  0
  5  6  1  1
  7  5  1  0
  7  9  1  0
  8  7  2  0
 10  9  1  0
 10 13  1  0
 10 11  1  1
 12 11  1  0
 13 14  2  0
 13 18  1  0
 16 15  1  0
 17 16  1  6
 18 17  1  0
 19 17  1  0
 19 20  1  0
 21 19  2  0
M  END
$$$$
