LCS.pdb
     RDKit          3D

 21 20  0  0  1  0  0  0  0  0999 V2000
    8.7890  -14.0453   18.7184 C   0  0  0  0  0  0  0  0  0  0  0  0
    7.7450  -13.4770   19.6502 C   0  0  2  0  0  0  0  0  0  0  0  0
    7.5179  -12.0088   19.3559 C   0  0  0  0  0  0  0  0  0  0  0  0
    8.2078  -13.5761   21.0961 C   0  0  0  0  0  0  0  0  0  0  0  0
    8.2972  -15.0159   21.5551 C   0  0  2  0  0  0  0  0  0  0  0  0
    7.1053  -15.7580   21.2589 N   0  0  0  0  0  0  0  0  0  0  0  0
    8.5999  -14.9715   23.0189 C   0  0  0  0  0  0  0  0  0  0  0  0
    9.7458  -14.5340   23.3256 O   0  0  0  0  0  0  0  0  0  0  0  0
    7.6872  -15.3837   24.0152 N   0  0  0  0  0  0  0  0  0  0  0  0
    8.1453  -15.3491   25.4098 C   0  0  1  0  0  0  0  0  0  0  0  0
    6.9180  -14.9840   26.2564 C   0  0  0  0  0  0  0  0  0  0  0  0
    6.1999  -13.4101   25.8214 S   0  0  0  0  0  0  0  0  0  0  0  0
    8.6597  -16.6599   25.8230 C   0  0  0  0  0  0  0  0  0  0  0  0
    7.8665  -17.6613   25.7585 O   0  0  0  0  0  0  0  0  0  0  0  0
   12.5860  -17.5831   25.9309 O   0  0  0  0  0  0  0  0  0  0  0  0
   11.6270  -18.5792   25.7668 C   0  0  0  0  0  0  0  0  0  0  0  0
   10.3950  -18.3126   26.6007 C   0  0  2  0  0  0  0  0  0  0  0  0
    9.9595  -16.9457   26.2922 N   0  0  0  0  0  0  0  0  0  0  0  0
   10.6963  -18.3746   28.0524 C   0  0  0  0  0  0  0  0  0  0  0  0
   10.5163  -17.2679   28.8689 O   0  0  0  0  0  0  0  0  0  0  0  0
   11.1238  -19.4258   28.5947 O   0  0  0  0  0  0  0  0  0  0  0  0
  2  1  1  6
  2  4  1  0
  2  3  1  0
  5  4  1  0
  5  6  1  1
  7  5  1  0
  7  9  1  0
  8  7  2  0
 10  9  1  0
 10 13  1  0
 10 11  1  1
 12 11  1  0
 13 14  2  0
 13 18  1  0
 16 15  1  0
 17 16  1  6
 18 17  1  0
 19 17  1  0
 19 20  1  0
 21 19  2  0
M  END
$$$$
