LCS.pdb
     RDKit          3D

 21 20  0  0  1  0  0  0  0  0999 V2000
    8.4664  -14.0036   18.0377 C   0  0  0  0  0  0  0  0  0  0  0  0
    7.8092  -13.4382   19.2743 C   0  0  2  0  0  0  0  0  0  0  0  0
    7.6742  -11.9341   19.1596 C   0  0  0  0  0  0  0  0  0  0  0  0
    8.6575  -13.7177   20.5060 C   0  0  0  0  0  0  0  0  0  0  0  0
    8.7467  -15.2007   20.7964 C   0  0  2  0  0  0  0  0  0  0  0  0
    7.4575  -15.8303   20.8217 N   0  0  0  0  0  0  0  0  0  0  0  0
    9.4773  -15.3307   22.0947 C   0  0  0  0  0  0  0  0  0  0  0  0
   10.6497  -14.8576   22.1102 O   0  0  0  0  0  0  0  0  0  0  0  0
    8.9212  -15.9362   23.2435 N   0  0  0  0  0  0  0  0  0  0  0  0
    9.7913  -16.0913   24.4160 C   0  0  1  0  0  0  0  0  0  0  0  0
    8.8954  -15.8875   25.6459 C   0  0  0  0  0  0  0  0  0  0  0  0
    8.1790  -14.2565   25.7381 S   0  0  0  0  0  0  0  0  0  0  0  0
   10.3843  -17.4332   24.4523 C   0  0  0  0  0  0  0  0  0  0  0  0
    9.5937  -18.4342   24.5470 O   0  0  0  0  0  0  0  0  0  0  0  0
   13.8323  -18.2941   22.7272 O   0  0  0  0  0  0  0  0  0  0  0  0
   12.8992  -19.2989   22.9696 C   0  0  0  0  0  0  0  0  0  0  0  0
   12.2376  -19.1345   24.3185 C   0  0  2  0  0  0  0  0  0  0  0  0
   11.7580  -17.7496   24.3916 N   0  0  0  0  0  0  0  0  0  0  0  0
   13.2031  -19.3381   25.4268 C   0  0  0  0  0  0  0  0  0  0  0  0
   13.8496  -20.5530   25.5991 O   0  0  0  0  0  0  0  0  0  0  0  0
   13.4706  -18.4230   26.2472 O   0  0  0  0  0  0  0  0  0  0  0  0
  2  1  1  6
  2  4  1  0
  2  3  1  0
  5  4  1  0
  5  6  1  1
  7  5  1  0
  7  9  1  0
  8  7  2  0
 10  9  1  0
 10 13  1  0
 10 11  1  1
 12 11  1  0
 13 14  2  0
 13 18  1  0
 16 15  1  0
 17 16  1  6
 18 17  1  0
 19 17  1  0
 19 20  1  0
 21 19  2  0
M  END
$$$$
