LCS.pdb
     RDKit          3D

 21 20  0  0  1  0  0  0  0  0999 V2000
    8.4206  -13.0852   17.6918 C   0  0  0  0  0  0  0  0  0  0  0  0
    8.1767  -13.3527   19.1581 C   0  0  2  0  0  0  0  0  0  0  0  0
    7.3418  -12.2445   19.7652 C   0  0  0  0  0  0  0  0  0  0  0  0
    9.4925  -13.3896   19.9211 C   0  0  0  0  0  0  0  0  0  0  0  0
   10.3521  -14.5598   19.4932 C   0  0  2  0  0  0  0  0  0  0  0  0
    9.6388  -15.8043   19.5334 N   0  0  0  0  0  0  0  0  0  0  0  0
   11.5483  -14.5517   20.3905 C   0  0  0  0  0  0  0  0  0  0  0  0
   12.2964  -13.5372   20.2926 O   0  0  0  0  0  0  0  0  0  0  0  0
   11.8484  -15.5929   21.2969 N   0  0  0  0  0  0  0  0  0  0  0  0
   13.1166  -15.5068   22.0319 C   0  0  1  0  0  0  0  0  0  0  0  0
   12.8346  -16.0479   23.4405 C   0  0  0  0  0  0  0  0  0  0  0  0
   11.5029  -17.2337   23.4904 S   0  0  0  0  0  0  0  0  0  0  0  0
   14.1510  -16.3230   21.3859 C   0  0  0  0  0  0  0  0  0  0  0  0
   13.8699  -17.5413   21.1162 O   0  0  0  0  0  0  0  0  0  0  0  0
   17.3501  -14.8827   19.1738 O   0  0  0  0  0  0  0  0  0  0  0  0
   16.6782  -16.0861   18.9755 C   0  0  0  0  0  0  0  0  0  0  0  0
   16.3706  -16.7773   20.2839 C   0  0  2  0  0  0  0  0  0  0  0  0
   15.4480  -15.9051   21.0197 N   0  0  0  0  0  0  0  0  0  0  0  0
   17.5911  -16.9453   21.1110 C   0  0  0  0  0  0  0  0  0  0  0  0
   18.6459  -17.7353   20.6785 O   0  0  0  0  0  0  0  0  0  0  0  0
   17.7153  -16.3818   22.2285 O   0  0  0  0  0  0  0  0  0  0  0  0
  2  1  1  6
  2  4  1  0
  2  3  1  0
  5  4  1  0
  5  6  1  1
  7  5  1  0
  7  9  1  0
  8  7  2  0
 10  9  1  0
 10 13  1  0
 10 11  1  1
 12 11  1  0
 13 14  2  0
 13 18  1  0
 16 15  1  0
 17 16  1  6
 18 17  1  0
 19 17  1  0
 19 20  1  0
 21 19  2  0
M  END
$$$$
