SSV.pdb
     RDKit          3D

 20 19  0  0  1  0  0  0  0  0999 V2000
   17.7712  -13.3338  -14.9608 O   0  0  0  0  0  0  0  0  0  0  0  0
   16.6748  -12.6302  -14.5052 C   0  0  0  0  0  0  0  0  0  0  0  0
   15.9851  -12.0078  -15.6990 C   0  0  2  0  0  0  0  0  0  0  0  0
   15.7536  -13.0205  -16.7415 N   0  0  0  0  0  0  0  0  0  0  0  0
   16.8040  -10.9474  -16.3300 C   0  0  0  0  0  0  0  0  0  0  0  0
   17.5008  -11.1581  -17.3834 O   0  0  0  0  0  0  0  0  0  0  0  0
   15.6940   -7.2877  -16.4022 O   0  0  0  0  0  0  0  0  0  0  0  0
   16.7641   -7.6645  -17.2045 C   0  0  0  0  0  0  0  0  0  0  0  0
   17.7089   -8.6016  -16.4928 C   0  0  2  0  0  0  0  0  0  0  0  0
   16.8982   -9.6111  -15.8403 N   0  0  0  0  0  0  0  0  0  0  0  0
   18.4686   -7.8156  -15.4755 C   0  0  0  0  0  0  0  0  0  0  0  0
   18.0496   -7.7233  -14.2915 O   0  0  0  0  0  0  0  0  0  0  0  0
   22.6105   -6.0058  -13.6566 C   0  0  0  0  0  0  0  0  0  0  0  0
   21.8773   -6.7702  -14.7411 C   0  0  1  0  0  0  0  0  0  0  0  0
   22.0007   -8.2451  -14.4336 C   0  0  0  0  0  0  0  0  0  0  0  0
   20.4016   -6.4296  -14.7314 C   0  0  2  0  0  0  0  0  0  0  0  0
   19.6823   -7.1383  -15.7698 N   0  0  0  0  0  0  0  0  0  0  0  0
   20.1898   -4.9775  -14.9487 C   0  0  0  0  0  0  0  0  0  0  0  0
   20.1551   -4.0819  -13.8820 O   0  0  0  0  0  0  0  0  0  0  0  0
   20.0344   -4.5066  -16.1013 O   0  0  0  0  0  0  0  0  0  0  0  0
  2  1  1  0
  3  2  1  0
  3  4  1  6
  5  3  1  0
  5  6  2  0
  7  8  1  0
  9  8  1  1
  9 10  1  0
 10  5  1  0
 11  9  1  0
 11 17  1  0
 12 11  2  0
 14 13  1  1
 14 15  1  0
 14 16  1  0
 16 17  1  6
 16 18  1  0
 18 20  2  0
 18 19  1  0
M  END
$$$$
