SSV.pdb
     RDKit          3D

 20 19  0  0  1  0  0  0  0  0999 V2000
   13.1762   -8.4272  -11.4057 O   0  0  0  0  0  0  0  0  0  0  0  0
   14.4793   -8.1054  -11.7266 C   0  0  0  0  0  0  0  0  0  0  0  0
   15.3535   -9.2945  -11.3951 C   0  0  2  0  0  0  0  0  0  0  0  0
   15.5934   -9.3647   -9.9448 N   0  0  0  0  0  0  0  0  0  0  0  0
   16.6887   -9.2033  -12.0291 C   0  0  0  0  0  0  0  0  0  0  0  0
   17.7237   -8.8061  -11.3884 O   0  0  0  0  0  0  0  0  0  0  0  0
   18.1555  -11.6360  -15.0840 O   0  0  0  0  0  0  0  0  0  0  0  0
   18.2382  -10.2603  -15.2605 C   0  0  0  0  0  0  0  0  0  0  0  0
   18.2915   -9.5185  -13.9474 C   0  0  2  0  0  0  0  0  0  0  0  0
   16.9536   -9.5417  -13.3892 N   0  0  0  0  0  0  0  0  0  0  0  0
   18.7098   -8.1115  -14.2222 C   0  0  0  0  0  0  0  0  0  0  0  0
   17.8552   -7.2322  -14.5091 O   0  0  0  0  0  0  0  0  0  0  0  0
   22.3558   -6.4572  -12.8301 C   0  0  0  0  0  0  0  0  0  0  0  0
   21.0793   -5.7045  -13.1492 C   0  0  1  0  0  0  0  0  0  0  0  0
   21.4524   -4.2777  -13.4812 C   0  0  0  0  0  0  0  0  0  0  0  0
   20.4042   -6.2901  -14.3720 C   0  0  2  0  0  0  0  0  0  0  0  0
   20.0641   -7.6847  -14.1788 N   0  0  0  0  0  0  0  0  0  0  0  0
   21.2883   -6.2034  -15.5600 C   0  0  0  0  0  0  0  0  0  0  0  0
   21.4557   -5.0069  -16.2538 O   0  0  0  0  0  0  0  0  0  0  0  0
   21.9156   -7.2055  -15.9804 O   0  0  0  0  0  0  0  0  0  0  0  0
  2  1  1  0
  3  2  1  0
  3  4  1  1
  5  3  1  0
  5  6  2  0
  7  8  1  0
  9  8  1  6
  9 10  1  0
 10  5  1  0
 11  9  1  0
 11 17  1  0
 12 11  2  0
 14 13  1  6
 14 15  1  0
 14 16  1  0
 16 17  1  1
 16 18  1  0
 18 20  2  0
 18 19  1  0
M  END
$$$$
