SSV.pdb
     RDKit          3D

 20 19  0  0  1  0  0  0  0  0999 V2000
   12.5382  -13.3752  -14.7741 O   0  0  0  0  0  0  0  0  0  0  0  0
   13.1889  -12.6879  -13.7696 C   0  0  0  0  0  0  0  0  0  0  0  0
   14.6762  -12.9095  -13.9343 C   0  0  2  0  0  0  0  0  0  0  0  0
   15.0430  -14.2657  -13.4960 N   0  0  0  0  0  0  0  0  0  0  0  0
   15.4771  -11.9787  -13.1064 C   0  0  0  0  0  0  0  0  0  0  0  0
   15.7230  -12.2028  -11.8700 O   0  0  0  0  0  0  0  0  0  0  0  0
   18.3877   -8.0621  -12.9491 O   0  0  0  0  0  0  0  0  0  0  0  0
   17.6337   -8.9912  -13.6556 C   0  0  0  0  0  0  0  0  0  0  0  0
   16.8225   -9.8795  -12.7444 C   0  0  2  0  0  0  0  0  0  0  0  0
   16.0452  -10.7635  -13.5909 N   0  0  0  0  0  0  0  0  0  0  0  0
   15.9148   -9.0135  -11.9344 C   0  0  0  0  0  0  0  0  0  0  0  0
   14.8939   -8.4905  -12.4541 O   0  0  0  0  0  0  0  0  0  0  0  0
   13.5454   -7.6712   -8.0156 C   0  0  0  0  0  0  0  0  0  0  0  0
   14.4960   -8.6002   -8.7444 C   0  0  1  0  0  0  0  0  0  0  0  0
   13.6712   -9.6732   -9.4178 C   0  0  0  0  0  0  0  0  0  0  0  0
   15.2423   -7.8561   -9.8322 C   0  0  2  0  0  0  0  0  0  0  0  0
   16.1384   -8.7306  -10.5603 N   0  0  0  0  0  0  0  0  0  0  0  0
   16.0550   -6.7543   -9.2611 C   0  0  0  0  0  0  0  0  0  0  0  0
   17.4475   -6.7968   -9.2767 O   0  0  0  0  0  0  0  0  0  0  0  0
   15.5153   -5.7463   -8.7443 O   0  0  0  0  0  0  0  0  0  0  0  0
  2  1  1  0
  3  2  1  0
  3  4  1  1
  5  3  1  0
  5  6  2  0
  7  8  1  0
  9  8  1  6
  9 10  1  0
 10  5  1  0
 11  9  1  0
 11 17  1  0
 12 11  2  0
 14 13  1  6
 14 15  1  0
 14 16  1  0
 16 17  1  1
 16 18  1  0
 18 20  2  0
 18 19  1  0
M  END
$$$$
