SSV.pdb
     RDKit          3D

 20 19  0  0  1  0  0  0  0  0999 V2000
   21.2692  -12.6021  -19.4028 O   0  0  0  0  0  0  0  0  0  0  0  0
   20.5290  -11.7150  -18.6479 C   0  0  0  0  0  0  0  0  0  0  0  0
   21.3929  -11.2366  -17.5020 C   0  0  2  0  0  0  0  0  0  0  0  0
   21.6078  -12.3244  -16.5344 N   0  0  0  0  0  0  0  0  0  0  0  0
   20.7599  -10.1320  -16.7455 C   0  0  0  0  0  0  0  0  0  0  0  0
   19.5022  -10.0997  -16.5074 O   0  0  0  0  0  0  0  0  0  0  0  0
   21.4869   -9.0412  -13.3650 O   0  0  0  0  0  0  0  0  0  0  0  0
   20.3995   -8.6274  -14.1247 C   0  0  0  0  0  0  0  0  0  0  0  0
   20.8218   -7.9874  -15.4245 C   0  0  2  0  0  0  0  0  0  0  0  0
   21.4707   -9.0148  -16.2154 N   0  0  0  0  0  0  0  0  0  0  0  0
   21.7871   -6.8913  -15.1137 C   0  0  0  0  0  0  0  0  0  0  0  0
   23.0228   -7.0537  -15.2943 O   0  0  0  0  0  0  0  0  0  0  0  0
   23.0298   -5.3341  -16.9499 C   0  0  0  0  0  0  0  0  0  0  0  0
   22.4892   -4.1300  -16.2044 C   0  0  1  0  0  0  0  0  0  0  0  0
   21.1545   -3.7673  -16.8146 C   0  0  0  0  0  0  0  0  0  0  0  0
   22.2424   -4.4683  -14.7490 C   0  0  2  0  0  0  0  0  0  0  0  0
   21.3844   -5.6266  -14.6071 N   0  0  0  0  0  0  0  0  0  0  0  0
   21.5914   -3.3375  -14.0433 C   0  0  0  0  0  0  0  0  0  0  0  0
   22.3300   -2.2527  -13.5754 O   0  0  0  0  0  0  0  0  0  0  0  0
   20.3528   -3.3198  -13.8439 O   0  0  0  0  0  0  0  0  0  0  0  0
  2  1  1  0
  3  2  1  0
  3  4  1  1
  5  3  1  0
  5  6  2  0
  7  8  1  0
  9  8  1  1
  9 10  1  0
 10  5  1  0
 11  9  1  0
 11 17  1  0
 12 11  2  0
 14 13  1  6
 14 15  1  0
 14 16  1  0
 16 17  1  6
 16 18  1  0
 18 20  2  0
 18 19  1  0
M  END
$$$$
