SSV.pdb
     RDKit          3D

 20 19  0  0  1  0  0  0  0  0999 V2000
   19.7993  -11.9307  -17.9201 O   0  0  0  0  0  0  0  0  0  0  0  0
   19.4447  -10.9785  -16.9861 C   0  0  0  0  0  0  0  0  0  0  0  0
   20.7103  -10.4516  -16.3468 C   0  0  2  0  0  0  0  0  0  0  0  0
   21.2482  -11.4337  -15.3917 N   0  0  0  0  0  0  0  0  0  0  0  0
   20.4734   -9.2117  -15.5724 C   0  0  0  0  0  0  0  0  0  0  0  0
   19.5319   -9.1140  -14.7101 O   0  0  0  0  0  0  0  0  0  0  0  0
   22.1240   -4.9905  -13.9063 O   0  0  0  0  0  0  0  0  0  0  0  0
   22.2829   -6.1857  -14.5970 C   0  0  0  0  0  0  0  0  0  0  0  0
   20.9604   -6.8178  -14.9558 C   0  0  2  0  0  0  0  0  0  0  0  0
   21.2530   -8.0246  -15.7043 N   0  0  0  0  0  0  0  0  0  0  0  0
   20.1988   -5.8564  -15.8076 C   0  0  0  0  0  0  0  0  0  0  0  0
   20.4956   -5.6993  -17.0213 O   0  0  0  0  0  0  0  0  0  0  0  0
   16.7270   -5.7346  -16.9976 C   0  0  0  0  0  0  0  0  0  0  0  0
   16.9623   -4.4187  -16.2829 C   0  0  1  0  0  0  0  0  0  0  0  0
   16.4280   -4.5530  -14.8752 C   0  0  0  0  0  0  0  0  0  0  0  0
   18.4443   -4.1251  -16.1765 C   0  0  2  0  0  0  0  0  0  0  0  0
   19.1176   -5.0764  -15.3165 N   0  0  0  0  0  0  0  0  0  0  0  0
   18.6793   -2.7706  -15.6192 C   0  0  0  0  0  0  0  0  0  0  0  0
   19.1709   -2.5929  -14.3277 O   0  0  0  0  0  0  0  0  0  0  0  0
   18.4429   -1.7386  -16.2926 O   0  0  0  0  0  0  0  0  0  0  0  0
  2  1  1  0
  3  2  1  0
  3  4  1  1
  5  3  1  0
  5  6  2  0
  7  8  1  0
  9  8  1  6
  9 10  1  0
 10  5  1  0
 11  9  1  0
 11 17  1  0
 12 11  2  0
 14 13  1  6
 14 15  1  0
 14 16  1  0
 16 17  1  1
 16 18  1  0
 18 20  2  0
 18 19  1  0
M  END
$$$$
