SSV.pdb
     RDKit          3D

 20 19  0  0  1  0  0  0  0  0999 V2000
   12.9365   -7.8931  -13.2214 O   0  0  0  0  0  0  0  0  0  0  0  0
   14.2179   -8.3151  -13.5124 C   0  0  0  0  0  0  0  0  0  0  0  0
   14.1489   -9.2425  -14.7054 C   0  0  2  0  0  0  0  0  0  0  0  0
   13.5468  -10.5287  -14.3195 N   0  0  0  0  0  0  0  0  0  0  0  0
   15.4902   -9.5617  -15.2461 C   0  0  0  0  0  0  0  0  0  0  0  0
   16.0841  -10.6672  -14.9916 O   0  0  0  0  0  0  0  0  0  0  0  0
   18.9630   -8.4851  -18.4864 O   0  0  0  0  0  0  0  0  0  0  0  0
   17.7601   -8.1953  -17.8542 C   0  0  0  0  0  0  0  0  0  0  0  0
   17.5269   -9.0663  -16.6441 C   0  0  2  0  0  0  0  0  0  0  0  0
   16.2418   -8.6898  -16.0881 N   0  0  0  0  0  0  0  0  0  0  0  0
   18.6138   -8.7950  -15.6567 C   0  0  0  0  0  0  0  0  0  0  0  0
   18.4493   -7.9512  -14.7365 O   0  0  0  0  0  0  0  0  0  0  0  0
   23.0374   -9.8424  -13.6534 C   0  0  0  0  0  0  0  0  0  0  0  0
   21.9842  -10.1902  -14.6866 C   0  0  1  0  0  0  0  0  0  0  0  0
   21.3367  -11.4910  -14.2696 C   0  0  0  0  0  0  0  0  0  0  0  0
   20.8976   -9.1357  -14.7189 C   0  0  2  0  0  0  0  0  0  0  0  0
   19.8717   -9.4544  -15.6905 N   0  0  0  0  0  0  0  0  0  0  0  0
   21.4557   -7.8079  -15.0736 C   0  0  0  0  0  0  0  0  0  0  0  0
   21.8122   -6.8853  -14.0923 O   0  0  0  0  0  0  0  0  0  0  0  0
   21.6256   -7.4706  -16.2701 O   0  0  0  0  0  0  0  0  0  0  0  0
  2  1  1  0
  3  2  1  0
  3  4  1  1
  5  3  1  0
  5  6  2  0
  7  8  1  0
  9  8  1  6
  9 10  1  0
 10  5  1  0
 11  9  1  0
 11 17  1  0
 12 11  2  0
 14 13  1  1
 14 15  1  0
 14 16  1  0
 16 17  1  6
 16 18  1  0
 18 20  2  0
 18 19  1  0
M  END
$$$$
