SSV.pdb
     RDKit          3D

 20 19  0  0  1  0  0  0  0  0999 V2000
   17.4164  -10.3976  -20.2585 O   0  0  0  0  0  0  0  0  0  0  0  0
   17.8183   -9.6859  -19.1464 C   0  0  0  0  0  0  0  0  0  0  0  0
   17.9951  -10.6596  -18.0025 C   0  0  2  0  0  0  0  0  0  0  0  0
   16.6927  -11.2071  -17.5905 N   0  0  0  0  0  0  0  0  0  0  0  0
   18.5692  -10.0139  -16.7997 C   0  0  0  0  0  0  0  0  0  0  0  0
   17.8600   -9.3136  -15.9959 O   0  0  0  0  0  0  0  0  0  0  0  0
   22.6239  -10.2079  -16.0078 O   0  0  0  0  0  0  0  0  0  0  0  0
   21.7832  -10.0462  -14.9134 C   0  0  0  0  0  0  0  0  0  0  0  0
   20.4817   -9.3799  -15.2869 C   0  0  2  0  0  0  0  0  0  0  0  0
   19.9413  -10.1041  -16.4209 N   0  0  0  0  0  0  0  0  0  0  0  0
   20.7736   -7.9667  -15.6709 C   0  0  0  0  0  0  0  0  0  0  0  0
   21.0284   -7.6660  -16.8670 O   0  0  0  0  0  0  0  0  0  0  0  0
   20.4052   -3.2153  -15.5090 C   0  0  0  0  0  0  0  0  0  0  0  0
   19.9657   -4.6407  -15.2390 C   0  0  1  0  0  0  0  0  0  0  0  0
   19.1343   -5.1007  -16.4148 C   0  0  0  0  0  0  0  0  0  0  0  0
   21.1645   -5.5618  -15.1467 C   0  0  2  0  0  0  0  0  0  0  0  0
   20.7825   -6.8972  -14.7359 N   0  0  0  0  0  0  0  0  0  0  0  0
   22.1509   -5.0535  -14.1623 C   0  0  0  0  0  0  0  0  0  0  0  0
   23.1679   -4.1791  -14.5398 O   0  0  0  0  0  0  0  0  0  0  0  0
   22.1026   -5.3941  -12.9557 O   0  0  0  0  0  0  0  0  0  0  0  0
  2  1  1  0
  3  2  1  0
  3  4  1  1
  5  3  1  0
  5  6  2  0
  7  8  1  0
  9  8  1  6
  9 10  1  0
 10  5  1  0
 11  9  1  0
 11 17  1  0
 12 11  2  0
 14 13  1  6
 14 15  1  0
 14 16  1  0
 16 17  1  1
 16 18  1  0
 18 20  2  0
 18 19  1  0
M  END
$$$$
