SSV.pdb
     RDKit          3D

 20 19  0  0  1  0  0  0  0  0999 V2000
   23.5322  -12.6691  -19.2719 O   0  0  0  0  0  0  0  0  0  0  0  0
   24.4644  -12.5162  -18.2658 C   0  0  0  0  0  0  0  0  0  0  0  0
   23.7482  -12.6319  -16.9385 C   0  0  2  0  0  0  0  0  0  0  0  0
   23.1034  -13.9493  -16.8181 N   0  0  0  0  0  0  0  0  0  0  0  0
   22.6671  -11.6300  -16.7952 C   0  0  0  0  0  0  0  0  0  0  0  0
   21.4897  -11.8240  -17.2597 O   0  0  0  0  0  0  0  0  0  0  0  0
   19.8065   -9.2626  -14.4467 O   0  0  0  0  0  0  0  0  0  0  0  0
   20.8769  -10.0752  -14.7997 C   0  0  0  0  0  0  0  0  0  0  0  0
   21.7073   -9.4759  -15.9081 C   0  0  2  0  0  0  0  0  0  0  0  0
   22.8226  -10.3732  -16.1390 N   0  0  0  0  0  0  0  0  0  0  0  0
   22.2049   -8.1441  -15.4514 C   0  0  0  0  0  0  0  0  0  0  0  0
   23.2272   -8.0565  -14.7213 O   0  0  0  0  0  0  0  0  0  0  0  0
   22.6784   -3.3445  -16.3594 C   0  0  0  0  0  0  0  0  0  0  0  0
   22.0214   -4.6737  -16.6748 C   0  0  1  0  0  0  0  0  0  0  0  0
   22.7049   -5.2517  -17.8930 C   0  0  0  0  0  0  0  0  0  0  0  0
   22.2229   -5.6534  -15.5375 C   0  0  2  0  0  0  0  0  0  0  0  0
   21.5733   -6.9207  -15.8018 N   0  0  0  0  0  0  0  0  0  0  0  0
   21.6666   -5.1188  -14.2706 C   0  0  0  0  0  0  0  0  0  0  0  0
   22.4710   -4.4501  -13.3502 O   0  0  0  0  0  0  0  0  0  0  0  0
   20.4520   -5.2509  -13.9848 O   0  0  0  0  0  0  0  0  0  0  0  0
  2  1  1  0
  3  2  1  0
  3  4  1  6
  5  3  1  0
  5  6  2  0
  7  8  1  0
  9  8  1  1
  9 10  1  0
 10  5  1  0
 11  9  1  0
 11 17  1  0
 12 11  2  0
 14 13  1  1
 14 15  1  0
 14 16  1  0
 16 17  1  6
 16 18  1  0
 18 20  2  0
 18 19  1  0
M  END
$$$$
