SSV.pdb
     RDKit          3D

 20 19  0  0  1  0  0  0  0  0999 V2000
   18.9005   -7.7289  -19.3592 O   0  0  0  0  0  0  0  0  0  0  0  0
   18.6204   -9.0266  -18.9818 C   0  0  0  0  0  0  0  0  0  0  0  0
   19.7204   -9.4956  -18.0555 C   0  0  2  0  0  0  0  0  0  0  0  0
   19.4749  -10.8832  -17.6311 N   0  0  0  0  0  0  0  0  0  0  0  0
   19.7890   -8.6915  -16.8137 C   0  0  0  0  0  0  0  0  0  0  0  0
   18.9018   -8.7771  -15.8944 O   0  0  0  0  0  0  0  0  0  0  0  0
   21.9072   -6.6015  -13.2514 O   0  0  0  0  0  0  0  0  0  0  0  0
   21.7986   -7.4133  -14.3740 C   0  0  0  0  0  0  0  0  0  0  0  0
   20.7845   -6.8896  -15.3612 C   0  0  2  0  0  0  0  0  0  0  0  0
   20.8281   -7.7596  -16.5202 N   0  0  0  0  0  0  0  0  0  0  0  0
   21.1796   -5.5016  -15.7450 C   0  0  0  0  0  0  0  0  0  0  0  0
   22.0516   -5.3044  -16.6319 O   0  0  0  0  0  0  0  0  0  0  0  0
   18.6541   -2.2308  -15.4384 C   0  0  0  0  0  0  0  0  0  0  0  0
   19.8944   -2.3041  -16.3068 C   0  0  1  0  0  0  0  0  0  0  0  0
   20.3607   -0.8905  -16.5703 C   0  0  0  0  0  0  0  0  0  0  0  0
   21.0142   -3.0203  -15.5809 C   0  0  2  0  0  0  0  0  0  0  0  0
   20.6120   -4.3432  -15.1497 N   0  0  0  0  0  0  0  0  0  0  0  0
   21.4362   -2.2639  -14.3766 C   0  0  0  0  0  0  0  0  0  0  0  0
   22.3689   -1.2321  -14.4580 O   0  0  0  0  0  0  0  0  0  0  0  0
   20.9672   -2.5282  -13.2432 O   0  0  0  0  0  0  0  0  0  0  0  0
  2  1  1  0
  3  2  1  0
  3  4  1  1
  5  3  1  0
  5  6  2  0
  7  8  1  0
  9  8  1  1
  9 10  1  0
 10  5  1  0
 11  9  1  0
 11 17  1  0
 12 11  2  0
 14 13  1  1
 14 15  1  0
 14 16  1  0
 16 17  1  1
 16 18  1  0
 18 20  2  0
 18 19  1  0
M  END
$$$$
