SSV.pdb
     RDKit          3D

 20 19  0  0  1  0  0  0  0  0999 V2000
   19.2082   -9.8043  -20.3749 O   0  0  0  0  0  0  0  0  0  0  0  0
   18.9959   -9.1578  -19.1741 C   0  0  0  0  0  0  0  0  0  0  0  0
   19.1468  -10.1705  -18.0608 C   0  0  2  0  0  0  0  0  0  0  0  0
   17.8886  -10.9087  -17.8665 N   0  0  0  0  0  0  0  0  0  0  0  0
   19.4547   -9.5327  -16.7601 C   0  0  0  0  0  0  0  0  0  0  0  0
   18.5886   -8.8459  -16.1139 O   0  0  0  0  0  0  0  0  0  0  0  0
   22.4314   -9.0578  -12.9530 O   0  0  0  0  0  0  0  0  0  0  0  0
   22.0077   -9.7059  -14.1068 C   0  0  0  0  0  0  0  0  0  0  0  0
   21.0155   -8.8834  -14.8919 C   0  0  2  0  0  0  0  0  0  0  0  0
   20.7202   -9.6164  -16.1075 N   0  0  0  0  0  0  0  0  0  0  0  0
   21.6524   -7.5739  -15.2229 C   0  0  0  0  0  0  0  0  0  0  0  0
   22.5189   -7.4933  -16.1332 O   0  0  0  0  0  0  0  0  0  0  0  0
   20.4075   -4.7451  -16.8279 C   0  0  0  0  0  0  0  0  0  0  0  0
   20.9907   -4.1563  -15.5587 C   0  0  1  0  0  0  0  0  0  0  0  0
   19.8581   -3.9534  -14.5782 C   0  0  0  0  0  0  0  0  0  0  0  0
   21.9704   -5.1203  -14.9226 C   0  0  2  0  0  0  0  0  0  0  0  0
   21.3303   -6.3650  -14.5497 N   0  0  0  0  0  0  0  0  0  0  0  0
   22.5693   -4.5380  -13.6968 C   0  0  0  0  0  0  0  0  0  0  0  0
   23.4728   -3.4795  -13.7633 O   0  0  0  0  0  0  0  0  0  0  0  0
   22.2823   -4.9794  -12.5579 O   0  0  0  0  0  0  0  0  0  0  0  0
  2  1  1  0
  3  2  1  0
  3  4  1  1
  5  3  1  0
  5  6  2  0
  7  8  1  0
  9  8  1  1
  9 10  1  0
 10  5  1  0
 11  9  1  0
 11 17  1  0
 12 11  2  0
 14 13  1  6
 14 15  1  0
 14 16  1  0
 16 17  1  1
 16 18  1  0
 18 20  2  0
 18 19  1  0
M  END
$$$$
