SSV.pdb
     RDKit          3D

 20 19  0  0  1  0  0  0  0  0999 V2000
   21.2594  -14.8408  -18.9783 O   0  0  0  0  0  0  0  0  0  0  0  0
   20.4932  -13.6994  -18.8567 C   0  0  0  0  0  0  0  0  0  0  0  0
   19.1197  -14.1039  -18.3690 C   0  0  2  0  0  0  0  0  0  0  0  0
   18.3392  -14.6934  -19.4687 N   0  0  0  0  0  0  0  0  0  0  0  0
   18.3344  -12.9469  -17.8812 C   0  0  0  0  0  0  0  0  0  0  0  0
   17.8380  -12.0742  -18.6758 O   0  0  0  0  0  0  0  0  0  0  0  0
   16.0194  -12.8288  -14.4719 O   0  0  0  0  0  0  0  0  0  0  0  0
   16.9158  -11.7783  -14.6258 C   0  0  0  0  0  0  0  0  0  0  0  0
   17.2802  -11.5460  -16.0717 C   0  0  2  0  0  0  0  0  0  0  0  0
   18.0558  -12.6915  -16.5059 N   0  0  0  0  0  0  0  0  0  0  0  0
   18.1070  -10.3051  -16.1516 C   0  0  0  0  0  0  0  0  0  0  0  0
   19.3332  -10.3311  -15.8661 O   0  0  0  0  0  0  0  0  0  0  0  0
   19.0693   -5.9678  -18.1618 C   0  0  0  0  0  0  0  0  0  0  0  0
   18.1779   -7.1862  -18.0244 C   0  0  1  0  0  0  0  0  0  0  0  0
   18.5251   -8.1435  -19.1416 C   0  0  0  0  0  0  0  0  0  0  0  0
   18.4477   -7.9019  -16.7172 C   0  0  2  0  0  0  0  0  0  0  0  0
   17.5774   -9.0468  -16.5449 N   0  0  0  0  0  0  0  0  0  0  0  0
   18.2339   -6.9967  -15.5616 C   0  0  0  0  0  0  0  0  0  0  0  0
   19.2638   -6.2023  -15.0623 O   0  0  0  0  0  0  0  0  0  0  0  0
   17.1176   -6.9161  -14.9944 O   0  0  0  0  0  0  0  0  0  0  0  0
  2  1  1  0
  3  2  1  0
  3  4  1  6
  5  3  1  0
  5  6  2  0
  7  8  1  0
  9  8  1  1
  9 10  1  0
 10  5  1  0
 11  9  1  0
 11 17  1  0
 12 11  2  0
 14 13  1  6
 14 15  1  0
 14 16  1  0
 16 17  1  1
 16 18  1  0
 18 20  2  0
 18 19  1  0
M  END
$$$$
