SSV.pdb
     RDKit          3D

 20 19  0  0  1  0  0  0  0  0999 V2000
   11.7485  -13.7373  -13.5154 O   0  0  0  0  0  0  0  0  0  0  0  0
   12.7525  -13.0774  -12.8361 C   0  0  0  0  0  0  0  0  0  0  0  0
   14.0693  -13.4107  -13.5017 C   0  0  2  0  0  0  0  0  0  0  0  0
   14.5377  -14.7384  -13.0729 N   0  0  0  0  0  0  0  0  0  0  0  0
   15.1411  -12.4575  -13.1334 C   0  0  0  0  0  0  0  0  0  0  0  0
   15.6546  -12.4263  -11.9608 O   0  0  0  0  0  0  0  0  0  0  0  0
   16.3791   -9.4689  -15.7253 O   0  0  0  0  0  0  0  0  0  0  0  0
   17.3484  -10.0116  -14.8906 C   0  0  0  0  0  0  0  0  0  0  0  0
   16.7564  -10.5881  -13.6278 C   0  0  2  0  0  0  0  0  0  0  0  0
   15.7000  -11.4972  -14.0277 N   0  0  0  0  0  0  0  0  0  0  0  0
   16.1910   -9.4653  -12.8219 C   0  0  0  0  0  0  0  0  0  0  0  0
   14.9841   -9.1286  -12.9482 O   0  0  0  0  0  0  0  0  0  0  0  0
   16.1270   -6.4230   -9.0004 C   0  0  0  0  0  0  0  0  0  0  0  0
   16.6029   -7.6854   -9.6915 C   0  0  1  0  0  0  0  0  0  0  0  0
   15.7677   -8.8372   -9.1806 C   0  0  0  0  0  0  0  0  0  0  0  0
   16.3784   -7.5941  -11.1865 C   0  0  2  0  0  0  0  0  0  0  0  0
   16.9581   -8.7231  -11.8844 N   0  0  0  0  0  0  0  0  0  0  0  0
   16.9888   -6.3611  -11.7413 C   0  0  0  0  0  0  0  0  0  0  0  0
   18.2184   -6.3916  -12.3958 O   0  0  0  0  0  0  0  0  0  0  0  0
   16.4179   -5.2484  -11.6398 O   0  0  0  0  0  0  0  0  0  0  0  0
  2  1  1  0
  3  2  1  0
  3  4  1  1
  5  3  1  0
  5  6  2  0
  7  8  1  0
  9  8  1  6
  9 10  1  0
 10  5  1  0
 11  9  1  0
 11 17  1  0
 12 11  2  0
 14 13  1  1
 14 15  1  0
 14 16  1  0
 16 17  1  6
 16 18  1  0
 18 20  2  0
 18 19  1  0
M  END
$$$$
