SSV.pdb
     RDKit          3D

 20 19  0  0  1  0  0  0  0  0999 V2000
   19.3237   -9.6881  -20.1544 O   0  0  0  0  0  0  0  0  0  0  0  0
   20.4684  -10.4056  -19.8723 C   0  0  0  0  0  0  0  0  0  0  0  0
   20.3130  -11.0195  -18.4987 C   0  0  2  0  0  0  0  0  0  0  0  0
   19.2497  -12.0369  -18.5103 N   0  0  0  0  0  0  0  0  0  0  0  0
   19.9160  -10.0210  -17.4796 C   0  0  0  0  0  0  0  0  0  0  0  0
   18.7044   -9.8904  -17.0866 O   0  0  0  0  0  0  0  0  0  0  0  0
   21.3292   -6.7039  -14.1813 O   0  0  0  0  0  0  0  0  0  0  0  0
   21.6179   -7.6918  -15.1148 C   0  0  0  0  0  0  0  0  0  0  0  0
   20.3886   -8.1483  -15.8616 C   0  0  2  0  0  0  0  0  0  0  0  0
   20.8229   -9.1219  -16.8444 N   0  0  0  0  0  0  0  0  0  0  0  0
   19.7885   -6.9626  -16.5427 C   0  0  0  0  0  0  0  0  0  0  0  0
   20.2388   -6.5611  -17.6481 O   0  0  0  0  0  0  0  0  0  0  0  0
   16.2057   -3.8259  -17.5222 C   0  0  0  0  0  0  0  0  0  0  0  0
   16.7244   -5.1337  -16.9579 C   0  0  1  0  0  0  0  0  0  0  0  0
   16.5396   -6.2002  -18.0132 C   0  0  0  0  0  0  0  0  0  0  0  0
   18.2077   -5.0399  -16.6666 C   0  0  2  0  0  0  0  0  0  0  0  0
   18.6985   -6.2294  -16.0018 N   0  0  0  0  0  0  0  0  0  0  0  0
   18.5051   -3.8803  -15.7907 C   0  0  0  0  0  0  0  0  0  0  0  0
   18.6542   -4.0308  -14.4136 O   0  0  0  0  0  0  0  0  0  0  0  0
   18.6325   -2.7239  -16.2607 O   0  0  0  0  0  0  0  0  0  0  0  0
  2  1  1  0
  3  2  1  0
  3  4  1  6
  5  3  1  0
  5  6  2  0
  7  8  1  0
  9  8  1  6
  9 10  1  0
 10  5  1  0
 11  9  1  0
 11 17  1  0
 12 11  2  0
 14 13  1  6
 14 15  1  0
 14 16  1  0
 16 17  1  1
 16 18  1  0
 18 20  2  0
 18 19  1  0
M  END
$$$$
