SSV.pdb
     RDKit          3D

 20 19  0  0  1  0  0  0  0  0999 V2000
   15.5974  -13.3749  -14.0591 O   0  0  0  0  0  0  0  0  0  0  0  0
   16.6910  -12.5732  -14.3161 C   0  0  0  0  0  0  0  0  0  0  0  0
   16.7939  -12.3828  -15.8132 C   0  0  2  0  0  0  0  0  0  0  0  0
   17.3829  -13.5762  -16.4415 N   0  0  0  0  0  0  0  0  0  0  0  0
   17.6758  -11.2495  -16.1752 C   0  0  0  0  0  0  0  0  0  0  0  0
   18.9173  -11.4089  -16.4451 O   0  0  0  0  0  0  0  0  0  0  0  0
   16.3996   -7.2962  -15.9619 O   0  0  0  0  0  0  0  0  0  0  0  0
   17.2675   -7.6290  -16.9947 C   0  0  0  0  0  0  0  0  0  0  0  0
   18.1317   -8.8181  -16.6533 C   0  0  2  0  0  0  0  0  0  0  0  0
   17.2423   -9.8933  -16.2592 N   0  0  0  0  0  0  0  0  0  0  0  0
   19.0179   -8.4395  -15.5126 C   0  0  0  0  0  0  0  0  0  0  0  0
   18.6244   -8.5695  -14.3234 O   0  0  0  0  0  0  0  0  0  0  0  0
   22.1611   -9.9985  -14.6334 C   0  0  0  0  0  0  0  0  0  0  0  0
   22.4695   -8.5145  -14.6525 C   0  0  1  0  0  0  0  0  0  0  0  0
   23.1053   -8.1897  -15.9850 C   0  0  0  0  0  0  0  0  0  0  0  0
   21.1955   -7.7019  -14.5508 C   0  0  2  0  0  0  0  0  0  0  0  0
   20.3287   -7.9215  -15.6903 N   0  0  0  0  0  0  0  0  0  0  0  0
   21.4946   -6.2504  -14.4867 C   0  0  0  0  0  0  0  0  0  0  0  0
   22.0635   -5.6765  -13.3517 O   0  0  0  0  0  0  0  0  0  0  0  0
   21.2449   -5.4899  -15.4530 O   0  0  0  0  0  0  0  0  0  0  0  0
  2  1  1  0
  3  2  1  0
  3  4  1  6
  5  3  1  0
  5  6  2  0
  7  8  1  0
  9  8  1  1
  9 10  1  0
 10  5  1  0
 11  9  1  0
 11 17  1  0
 12 11  2  0
 14 13  1  6
 14 15  1  0
 14 16  1  0
 16 17  1  6
 16 18  1  0
 18 20  2  0
 18 19  1  0
M  END
$$$$
