TQQ.pdb
     RDKit          3D

 26 25  0  0  1  0  0  0  0  0999 V2000
    5.3163  -20.6316   23.6184 C   0  0  0  0  0  0  0  0  0  0  0  0
    6.3565  -19.6218   23.2508 C   0  0  1  0  0  0  0  0  0  0  0  0
    7.6017  -20.0287   23.7096 O   0  0  0  0  0  0  0  0  0  0  0  0
    6.3782  -19.4185   21.7366 C   0  0  2  0  0  0  0  0  0  0  0  0
    6.5406  -20.6629   21.0483 N   0  0  0  0  0  0  0  0  0  0  0  0
    7.4872  -18.4539   21.3820 C   0  0  0  0  0  0  0  0  0  0  0  0
    8.5768  -18.9618   21.0294 O   0  0  0  0  0  0  0  0  0  0  0  0
    8.0747  -11.4222   19.3677 N   0  0  0  0  0  0  0  0  0  0  0  0
    7.9458  -12.8414   19.3971 C   0  0  0  0  0  0  0  0  0  0  0  0
    7.3173  -13.3706   18.4449 O   0  0  0  0  0  0  0  0  0  0  0  0
    8.5415  -13.6464   20.5236 C   0  0  0  0  0  0  0  0  0  0  0  0
    7.5844  -14.7368   20.8225 C   0  0  0  0  0  0  0  0  0  0  0  0
    8.1814  -16.0451   21.2583 C   0  0  2  0  0  0  0  0  0  0  0  0
    7.2074  -17.0751   21.4759 N   0  0  0  0  0  0  0  0  0  0  0  0
    8.9731  -15.8146   22.4843 C   0  0  0  0  0  0  0  0  0  0  0  0
    9.9001  -14.9271   22.5097 O   0  0  0  0  0  0  0  0  0  0  0  0
    8.2951  -18.8762   28.0940 N   0  0  0  0  0  0  0  0  0  0  0  0
    9.4004  -18.0094   28.3153 C   0  0  0  0  0  0  0  0  0  0  0  0
    9.9970  -18.0473   29.4468 O   0  0  0  0  0  0  0  0  0  0  0  0
    9.8755  -17.0785   27.2724 C   0  0  0  0  0  0  0  0  0  0  0  0
    9.0794  -17.0481   26.0197 C   0  0  0  0  0  0  0  0  0  0  0  0
    9.6329  -16.3064   24.8645 C   0  0  2  0  0  0  0  0  0  0  0  0
    8.7710  -16.5352   23.6826 N   0  0  0  0  0  0  0  0  0  0  0  0
   11.0271  -16.5903   24.5584 C   0  0  0  0  0  0  0  0  0  0  0  0
   11.4838  -17.7556   23.9077 O   0  0  0  0  0  0  0  0  0  0  0  0
   11.9784  -15.7989   24.8674 O   0  0  0  0  0  0  0  0  0  0  0  0
  2  1  1  6
  2  3  1  0
  4  5  1  6
  4  2  1  0
  6  4  1  0
  7  6  2  0
  9  8  1  0
  9 11  1  0
 10  9  2  0
 12 11  1  0
 13 12  1  1
 13 14  1  0
 14  6  1  0
 15 13  1  0
 15 16  2  0
 17 18  1  0
 18 19  2  0
 20 21  1  0
 20 18  1  0
 22 21  1  1
 22 23  1  0
 23 15  1  0
 24 22  1  0
 25 24  1  0
 26 24  2  0
M  END
$$$$
