TQQ.pdb
     RDKit          3D

 26 25  0  0  1  0  0  0  0  0999 V2000
   11.9168  -17.9650   17.1887 C   0  0  0  0  0  0  0  0  0  0  0  0
   12.6318  -17.5528   15.9414 C   0  0  1  0  0  0  0  0  0  0  0  0
   12.6410  -18.5975   15.0275 O   0  0  0  0  0  0  0  0  0  0  0  0
   11.9675  -16.3149   15.3408 C   0  0  2  0  0  0  0  0  0  0  0  0
   12.5540  -15.9708   14.0813 N   0  0  0  0  0  0  0  0  0  0  0  0
   12.0769  -15.1689   16.3210 C   0  0  0  0  0  0  0  0  0  0  0  0
   13.0973  -14.4485   16.2255 O   0  0  0  0  0  0  0  0  0  0  0  0
    7.5304  -12.4948   19.7871 N   0  0  0  0  0  0  0  0  0  0  0  0
    7.3406  -13.7316   19.1047 C   0  0  0  0  0  0  0  0  0  0  0  0
    6.2383  -14.3107   19.2824 O   0  0  0  0  0  0  0  0  0  0  0  0
    8.4215  -14.2975   18.2196 C   0  0  0  0  0  0  0  0  0  0  0  0
    9.5324  -13.3175   18.2216 C   0  0  0  0  0  0  0  0  0  0  0  0
   10.9211  -13.8861   18.1426 C   0  0  2  0  0  0  0  0  0  0  0  0
   11.0318  -15.0060   17.2535 N   0  0  0  0  0  0  0  0  0  0  0  0
   11.3524  -14.2625   19.5047 C   0  0  0  0  0  0  0  0  0  0  0  0
   11.3357  -13.4042   20.4590 O   0  0  0  0  0  0  0  0  0  0  0  0
   16.4796  -14.2885   22.0975 N   0  0  0  0  0  0  0  0  0  0  0  0
   15.9318  -15.0786   21.0498 C   0  0  0  0  0  0  0  0  0  0  0  0
   16.6197  -16.0545   20.5889 O   0  0  0  0  0  0  0  0  0  0  0  0
   14.5930  -14.8037   20.4913 C   0  0  0  0  0  0  0  0  0  0  0  0
   13.4635  -14.8728   21.4523 C   0  0  0  0  0  0  0  0  0  0  0  0
   12.3780  -15.8410   21.1777 C   0  0  2  0  0  0  0  0  0  0  0  0
   11.8015  -15.5584   19.8435 N   0  0  0  0  0  0  0  0  0  0  0  0
   11.3381  -15.9079   22.1937 C   0  0  0  0  0  0  0  0  0  0  0  0
   11.5438  -16.3264   23.5250 O   0  0  0  0  0  0  0  0  0  0  0  0
   10.1229  -15.5977   21.9615 O   0  0  0  0  0  0  0  0  0  0  0  0
  2  1  1  1
  2  3  1  0
  4  5  1  6
  4  2  1  0
  6  4  1  0
  7  6  2  0
  9  8  1  0
  9 11  1  0
 10  9  2  0
 12 11  1  0
 13 12  1  1
 13 14  1  0
 14  6  1  0
 15 13  1  0
 15 16  2  0
 17 18  1  0
 18 19  2  0
 20 21  1  0
 20 18  1  0
 22 21  1  1
 22 23  1  0
 23 15  1  0
 24 22  1  0
 25 24  1  0
 26 24  2  0
M  END
$$$$
