TQQ.pdb
     RDKit          3D

 26 25  0  0  1  0  0  0  0  0999 V2000
    8.3623  -16.1335   18.1338 C   0  0  0  0  0  0  0  0  0  0  0  0
    8.4497  -14.7012   17.7124 C   0  0  1  0  0  0  0  0  0  0  0  0
    7.5675  -14.4545   16.6695 O   0  0  0  0  0  0  0  0  0  0  0  0
    8.1529  -13.7862   18.8995 C   0  0  2  0  0  0  0  0  0  0  0  0
    7.8884  -12.4470   18.4690 N   0  0  0  0  0  0  0  0  0  0  0  0
    9.3198  -13.8265   19.8601 C   0  0  0  0  0  0  0  0  0  0  0  0
   10.3772  -13.2746   19.4770 O   0  0  0  0  0  0  0  0  0  0  0  0
    9.4904  -16.7515   25.5781 N   0  0  0  0  0  0  0  0  0  0  0  0
    8.7130  -17.1845   24.4647 C   0  0  0  0  0  0  0  0  0  0  0  0
    8.0335  -18.2309   24.6238 O   0  0  0  0  0  0  0  0  0  0  0  0
    8.7208  -16.4105   23.1713 C   0  0  0  0  0  0  0  0  0  0  0  0
    9.6632  -15.2822   23.3540 C   0  0  0  0  0  0  0  0  0  0  0  0
   10.1407  -14.6047   22.1007 C   0  0  2  0  0  0  0  0  0  0  0  0
    9.1247  -14.4754   21.0967 N   0  0  0  0  0  0  0  0  0  0  0  0
   11.2973  -15.3569   21.5720 C   0  0  0  0  0  0  0  0  0  0  0  0
   11.1589  -16.1644   20.5838 O   0  0  0  0  0  0  0  0  0  0  0  0
   15.9178  -12.9953   18.0789 N   0  0  0  0  0  0  0  0  0  0  0  0
   15.2112  -14.2292   18.0639 C   0  0  0  0  0  0  0  0  0  0  0  0
   14.6503  -14.6056   16.9768 O   0  0  0  0  0  0  0  0  0  0  0  0
   15.1173  -15.0826   19.2650 C   0  0  0  0  0  0  0  0  0  0  0  0
   13.9151  -14.8792   20.1120 C   0  0  0  0  0  0  0  0  0  0  0  0
   13.7803  -15.7040   21.3337 C   0  0  2  0  0  0  0  0  0  0  0  0
   12.6018  -15.2435   22.1026 N   0  0  0  0  0  0  0  0  0  0  0  0
   14.9659  -15.7592   22.1760 C   0  0  0  0  0  0  0  0  0  0  0  0
   16.1879  -16.3563   21.8019 O   0  0  0  0  0  0  0  0  0  0  0  0
   15.0009  -15.2718   23.3541 O   0  0  0  0  0  0  0  0  0  0  0  0
  2  1  1  1
  2  3  1  0
  4  5  1  6
  4  2  1  0
  6  4  1  0
  7  6  2  0
  9  8  1  0
  9 11  1  0
 10  9  2  0
 12 11  1  0
 13 12  1  1
 13 14  1  0
 14  6  1  0
 15 13  1  0
 15 16  2  0
 17 18  1  0
 18 19  2  0
 20 21  1  0
 20 18  1  0
 22 21  1  6
 22 23  1  0
 23 15  1  0
 24 22  1  0
 25 24  1  0
 26 24  2  0
M  END
$$$$
