TQQ.pdb
     RDKit          3D

 26 25  0  0  1  0  0  0  0  0999 V2000
    8.1683  -15.8957   18.3167 C   0  0  0  0  0  0  0  0  0  0  0  0
    8.4391  -14.4687   17.9599 C   0  0  1  0  0  0  0  0  0  0  0  0
    7.8809  -14.1700   16.7247 O   0  0  0  0  0  0  0  0  0  0  0  0
    7.8846  -13.5433   19.0419 C   0  0  2  0  0  0  0  0  0  0  0  0
    7.8388  -12.1859   18.5901 N   0  0  0  0  0  0  0  0  0  0  0  0
    8.7329  -13.6722   20.2868 C   0  0  0  0  0  0  0  0  0  0  0  0
    9.8939  -13.2062   20.2215 O   0  0  0  0  0  0  0  0  0  0  0  0
    6.6068  -16.0345   25.8071 N   0  0  0  0  0  0  0  0  0  0  0  0
    6.5035  -16.8073   24.6140 C   0  0  0  0  0  0  0  0  0  0  0  0
    5.7562  -17.8180   24.6593 O   0  0  0  0  0  0  0  0  0  0  0  0
    7.2615  -16.4133   23.3722 C   0  0  0  0  0  0  0  0  0  0  0  0
    8.0046  -15.1744   23.7000 C   0  0  0  0  0  0  0  0  0  0  0  0
    8.8725  -14.6112   22.6102 C   0  0  2  0  0  0  0  0  0  0  0  0
    8.1538  -14.3000   21.4088 N   0  0  0  0  0  0  0  0  0  0  0  0
    9.9572  -15.5742   22.3293 C   0  0  0  0  0  0  0  0  0  0  0  0
   10.0477  -16.1447   21.1830 O   0  0  0  0  0  0  0  0  0  0  0  0
   15.3770  -14.7744   19.8470 N   0  0  0  0  0  0  0  0  0  0  0  0
   14.0170  -15.1398   19.6493 C   0  0  0  0  0  0  0  0  0  0  0  0
   13.3847  -14.6468   18.6518 O   0  0  0  0  0  0  0  0  0  0  0  0
   13.3260  -16.0746   20.5595 C   0  0  0  0  0  0  0  0  0  0  0  0
   12.8250  -15.4910   21.8293 C   0  0  0  0  0  0  0  0  0  0  0  0
   12.2743  -16.4143   22.8468 C   0  0  2  0  0  0  0  0  0  0  0  0
   10.9445  -15.9254   23.2768 N   0  0  0  0  0  0  0  0  0  0  0  0
   13.1381  -16.6577   23.9925 C   0  0  0  0  0  0  0  0  0  0  0  0
   14.3738  -17.3356   23.9352 O   0  0  0  0  0  0  0  0  0  0  0  0
   12.8423  -16.2807   25.1746 O   0  0  0  0  0  0  0  0  0  0  0  0
  2  1  1  1
  2  3  1  0
  4  5  1  6
  4  2  1  0
  6  4  1  0
  7  6  2  0
  9  8  1  0
  9 11  1  0
 10  9  2  0
 12 11  1  0
 13 12  1  1
 13 14  1  0
 14  6  1  0
 15 13  1  0
 15 16  2  0
 17 18  1  0
 18 19  2  0
 20 21  1  0
 20 18  1  0
 22 21  1  6
 22 23  1  0
 23 15  1  0
 24 22  1  0
 25 24  1  0
 26 24  2  0
M  END
$$$$
