TQQ.pdb
     RDKit          3D

 26 25  0  0  1  0  0  0  0  0999 V2000
    7.4283  -12.9970   19.2276 C   0  0  0  0  0  0  0  0  0  0  0  0
    6.9955  -13.8528   20.3753 C   0  0  1  0  0  0  0  0  0  0  0  0
    6.4396  -15.0355   19.9074 O   0  0  0  0  0  0  0  0  0  0  0  0
    8.1832  -14.1395   21.2928 C   0  0  2  0  0  0  0  0  0  0  0  0
    9.1772  -14.9236   20.6252 N   0  0  0  0  0  0  0  0  0  0  0  0
    7.6890  -14.8377   22.5395 C   0  0  0  0  0  0  0  0  0  0  0  0
    6.8727  -14.2039   23.2476 O   0  0  0  0  0  0  0  0  0  0  0  0
    6.2801  -20.6021   22.7936 N   0  0  0  0  0  0  0  0  0  0  0  0
    6.2525  -20.3573   24.1974 C   0  0  0  0  0  0  0  0  0  0  0  0
    5.7226  -21.2443   24.9145 O   0  0  0  0  0  0  0  0  0  0  0  0
    6.8355  -19.0910   24.7708 C   0  0  0  0  0  0  0  0  0  0  0  0
    7.2381  -18.2472   23.6217 C   0  0  0  0  0  0  0  0  0  0  0  0
    7.8265  -16.9054   23.9557 C   0  0  2  0  0  0  0  0  0  0  0  0
    8.1822  -16.1326   22.8011 N   0  0  0  0  0  0  0  0  0  0  0  0
    9.0048  -17.1123   24.8227 C   0  0  0  0  0  0  0  0  0  0  0  0
   10.1713  -16.7309   24.4466 O   0  0  0  0  0  0  0  0  0  0  0  0
   11.0388  -13.5208   27.9751 N   0  0  0  0  0  0  0  0  0  0  0  0
    9.7403  -14.0159   28.2763 C   0  0  0  0  0  0  0  0  0  0  0  0
    8.8907  -13.2283   28.8201 O   0  0  0  0  0  0  0  0  0  0  0  0
    9.3517  -15.4071   27.9707 C   0  0  0  0  0  0  0  0  0  0  0  0
   10.3888  -16.2394   27.3106 C   0  0  0  0  0  0  0  0  0  0  0  0
   10.0690  -17.6588   27.0388 C   0  0  2  0  0  0  0  0  0  0  0  0
    8.9325  -17.7277   26.0923 N   0  0  0  0  0  0  0  0  0  0  0  0
    9.8174  -18.4725   28.2189 C   0  0  0  0  0  0  0  0  0  0  0  0
    8.6396  -19.2154   28.4443 O   0  0  0  0  0  0  0  0  0  0  0  0
   10.6527  -18.5789   29.1770 O   0  0  0  0  0  0  0  0  0  0  0  0
  2  1  1  6
  2  3  1  0
  4  5  1  6
  4  2  1  0
  6  4  1  0
  7  6  2  0
  9  8  1  0
  9 11  1  0
 10  9  2  0
 12 11  1  0
 13 12  1  6
 13 14  1  0
 14  6  1  0
 15 13  1  0
 15 16  2  0
 17 18  1  0
 18 19  2  0
 20 21  1  0
 20 18  1  0
 22 21  1  1
 22 23  1  0
 23 15  1  0
 24 22  1  0
 25 24  1  0
 26 24  2  0
M  END
$$$$
