TQQ.pdb
     RDKit          3D

 26 25  0  0  1  0  0  0  0  0999 V2000
    7.6483  -14.5206   16.2346 C   0  0  0  0  0  0  0  0  0  0  0  0
    8.3896  -14.7845   17.5065 C   0  0  1  0  0  0  0  0  0  0  0  0
    9.7528  -14.8667   17.2577 O   0  0  0  0  0  0  0  0  0  0  0  0
    8.0913  -13.6855   18.5252 C   0  0  2  0  0  0  0  0  0  0  0  0
    8.3871  -12.3903   17.9927 N   0  0  0  0  0  0  0  0  0  0  0  0
    8.8855  -13.9484   19.7847 C   0  0  0  0  0  0  0  0  0  0  0  0
    9.9225  -13.2637   19.9434 O   0  0  0  0  0  0  0  0  0  0  0  0
    7.0159  -18.5089   22.9732 N   0  0  0  0  0  0  0  0  0  0  0  0
    6.1607  -17.3967   22.7218 C   0  0  0  0  0  0  0  0  0  0  0  0
    4.9330  -17.6439   22.6060 O   0  0  0  0  0  0  0  0  0  0  0  0
    6.7228  -16.0030   22.6047 C   0  0  0  0  0  0  0  0  0  0  0  0
    8.1853  -16.1129   22.8135 C   0  0  0  0  0  0  0  0  0  0  0  0
    9.0517  -15.3019   21.8917 C   0  0  2  0  0  0  0  0  0  0  0  0
    8.3990  -14.9329   20.6692 N   0  0  0  0  0  0  0  0  0  0  0  0
   10.2830  -16.0683   21.6097 C   0  0  0  0  0  0  0  0  0  0  0  0
   10.4417  -17.2518   22.0807 O   0  0  0  0  0  0  0  0  0  0  0  0
   16.2811  -13.7112   21.0832 N   0  0  0  0  0  0  0  0  0  0  0  0
   15.8172  -14.1968   19.8299 C   0  0  0  0  0  0  0  0  0  0  0  0
   16.6191  -14.1947   18.8325 O   0  0  0  0  0  0  0  0  0  0  0  0
   14.4422  -14.7064   19.6575 C   0  0  0  0  0  0  0  0  0  0  0  0
   13.5728  -14.6442   20.8593 C   0  0  0  0  0  0  0  0  0  0  0  0
   12.7542  -15.8337   21.1850 C   0  0  2  0  0  0  0  0  0  0  0  0
   11.3437  -15.5661   20.8232 N   0  0  0  0  0  0  0  0  0  0  0  0
   12.8625  -16.3009   22.5591 C   0  0  0  0  0  0  0  0  0  0  0  0
   12.0210  -15.8903   23.6142 O   0  0  0  0  0  0  0  0  0  0  0  0
   13.7525  -17.1316   22.9393 O   0  0  0  0  0  0  0  0  0  0  0  0
  2  1  1  6
  2  3  1  0
  4  5  1  6
  4  2  1  0
  6  4  1  0
  7  6  2  0
  9  8  1  0
  9 11  1  0
 10  9  2  0
 12 11  1  0
 13 12  1  1
 13 14  1  0
 14  6  1  0
 15 13  1  0
 15 16  2  0
 17 18  1  0
 18 19  2  0
 20 21  1  0
 20 18  1  0
 22 21  1  1
 22 23  1  0
 23 15  1  0
 24 22  1  0
 25 24  1  0
 26 24  2  0
M  END
$$$$
