TQQ.pdb
     RDKit          3D

 26 25  0  0  1  0  0  0  0  0999 V2000
    9.5829  -12.6279   19.9799 C   0  0  0  0  0  0  0  0  0  0  0  0
    8.6232  -13.0550   18.9153 C   0  0  1  0  0  0  0  0  0  0  0  0
    8.8961  -12.3877   17.7292 O   0  0  0  0  0  0  0  0  0  0  0  0
    8.7012  -14.5677   18.7150 C   0  0  2  0  0  0  0  0  0  0  0  0
    7.8896  -14.9877   17.6134 N   0  0  0  0  0  0  0  0  0  0  0  0
    8.2815  -15.2591   19.9924 C   0  0  0  0  0  0  0  0  0  0  0  0
    7.0656  -15.1961   20.2873 O   0  0  0  0  0  0  0  0  0  0  0  0
    9.9626  -20.4891   21.8122 N   0  0  0  0  0  0  0  0  0  0  0  0
    9.7665  -20.0156   23.1421 C   0  0  0  0  0  0  0  0  0  0  0  0
    9.5976  -20.8878   24.0325 O   0  0  0  0  0  0  0  0  0  0  0  0
    9.7656  -18.5384   23.4422 C   0  0  0  0  0  0  0  0  0  0  0  0
    9.8841  -17.8380   22.1423 C   0  0  0  0  0  0  0  0  0  0  0  0
    9.0362  -16.6096   21.9688 C   0  0  2  0  0  0  0  0  0  0  0  0
    9.2829  -15.9121   20.7401 N   0  0  0  0  0  0  0  0  0  0  0  0
    9.2612  -15.7170   23.1244 C   0  0  0  0  0  0  0  0  0  0  0  0
   10.3864  -15.1201   23.2833 O   0  0  0  0  0  0  0  0  0  0  0  0
    4.8618  -12.3771   26.1716 N   0  0  0  0  0  0  0  0  0  0  0  0
    6.0737  -12.0026   26.8144 C   0  0  0  0  0  0  0  0  0  0  0  0
    6.0579  -11.0230   27.6378 O   0  0  0  0  0  0  0  0  0  0  0  0
    7.3391  -12.7192   26.5595 C   0  0  0  0  0  0  0  0  0  0  0  0
    7.2902  -13.7667   25.5086 C   0  0  0  0  0  0  0  0  0  0  0  0
    8.5354  -14.5100   25.2122 C   0  0  2  0  0  0  0  0  0  0  0  0
    8.2803  -15.4643   24.1093 N   0  0  0  0  0  0  0  0  0  0  0  0
    9.1422  -15.1791   26.3534 C   0  0  0  0  0  0  0  0  0  0  0  0
    9.9702  -14.5482   27.3054 O   0  0  0  0  0  0  0  0  0  0  0  0
    8.9834  -16.4220   26.5915 O   0  0  0  0  0  0  0  0  0  0  0  0
  2  1  1  1
  2  3  1  0
  4  5  1  6
  4  2  1  0
  6  4  1  0
  7  6  2  0
  9  8  1  0
  9 11  1  0
 10  9  2  0
 12 11  1  0
 13 12  1  1
 13 14  1  0
 14  6  1  0
 15 13  1  0
 15 16  2  0
 17 18  1  0
 18 19  2  0
 20 21  1  0
 20 18  1  0
 22 21  1  1
 22 23  1  0
 23 15  1  0
 24 22  1  0
 25 24  1  0
 26 24  2  0
M  END
$$$$
