TQQ.pdb
     RDKit          3D

 26 25  0  0  1  0  0  0  0  0999 V2000
   10.5263  -14.3592   20.1385 C   0  0  0  0  0  0  0  0  0  0  0  0
    9.6438  -13.2863   19.5845 C   0  0  1  0  0  0  0  0  0  0  0  0
   10.1969  -12.7635   18.4238 O   0  0  0  0  0  0  0  0  0  0  0  0
    8.2470  -13.8436   19.3143 C   0  0  2  0  0  0  0  0  0  0  0  0
    7.4432  -12.9029   18.5948 N   0  0  0  0  0  0  0  0  0  0  0  0
    7.5994  -14.2166   20.6287 C   0  0  0  0  0  0  0  0  0  0  0  0
    7.2495  -13.2672   21.3675 O   0  0  0  0  0  0  0  0  0  0  0  0
    3.8000  -18.1190   22.5459 N   0  0  0  0  0  0  0  0  0  0  0  0
    4.1785  -18.0821   21.1723 C   0  0  0  0  0  0  0  0  0  0  0  0
    3.2696  -18.2993   20.3306 O   0  0  0  0  0  0  0  0  0  0  0  0
    5.6033  -17.7950   20.7727 C   0  0  0  0  0  0  0  0  0  0  0  0
    6.3429  -17.4869   22.0187 C   0  0  0  0  0  0  0  0  0  0  0  0
    6.8944  -16.0941   22.1378 C   0  0  2  0  0  0  0  0  0  0  0  0
    7.4436  -15.5889   20.9130 N   0  0  0  0  0  0  0  0  0  0  0  0
    7.9154  -16.0833   23.2057 C   0  0  0  0  0  0  0  0  0  0  0  0
    9.0294  -15.4669   23.0423 O   0  0  0  0  0  0  0  0  0  0  0  0
    8.3949  -12.0699   26.4161 N   0  0  0  0  0  0  0  0  0  0  0  0
    7.1931  -12.8279   26.4711 C   0  0  0  0  0  0  0  0  0  0  0  0
    6.0995  -12.2300   26.7621 O   0  0  0  0  0  0  0  0  0  0  0  0
    7.1786  -14.2781   26.1945 C   0  0  0  0  0  0  0  0  0  0  0  0
    8.4792  -14.8753   25.7994 C   0  0  0  0  0  0  0  0  0  0  0  0
    8.5446  -16.3443   25.6302 C   0  0  2  0  0  0  0  0  0  0  0  0
    7.7422  -16.7330   24.4482 N   0  0  0  0  0  0  0  0  0  0  0  0
    8.1608  -17.1189   26.8011 C   0  0  0  0  0  0  0  0  0  0  0  0
    8.9878  -17.3402   27.9222 O   0  0  0  0  0  0  0  0  0  0  0  0
    7.0236  -17.6855   26.9136 O   0  0  0  0  0  0  0  0  0  0  0  0
  2  1  1  6
  2  3  1  0
  4  5  1  1
  4  2  1  0
  6  4  1  0
  7  6  2  0
  9  8  1  0
  9 11  1  0
 10  9  2  0
 12 11  1  0
 13 12  1  6
 13 14  1  0
 14  6  1  0
 15 13  1  0
 15 16  2  0
 17 18  1  0
 18 19  2  0
 20 21  1  0
 20 18  1  0
 22 21  1  1
 22 23  1  0
 23 15  1  0
 24 22  1  0
 25 24  1  0
 26 24  2  0
M  END
$$$$
