TQQ.pdb
     RDKit          3D

 26 25  0  0  1  0  0  0  0  0999 V2000
   11.2285  -17.7021   14.4263 C   0  0  0  0  0  0  0  0  0  0  0  0
   11.4514  -17.1778   15.8091 C   0  0  1  0  0  0  0  0  0  0  0  0
   12.2427  -18.0588   16.5332 O   0  0  0  0  0  0  0  0  0  0  0  0
   12.0986  -15.7951   15.7478 C   0  0  2  0  0  0  0  0  0  0  0  0
   13.3592  -15.8418   15.0715 N   0  0  0  0  0  0  0  0  0  0  0  0
   12.2566  -15.2591   17.1527 C   0  0  0  0  0  0  0  0  0  0  0  0
   13.3801  -15.4124   17.6853 O   0  0  0  0  0  0  0  0  0  0  0  0
    7.6532  -11.8185   19.7985 N   0  0  0  0  0  0  0  0  0  0  0  0
    7.4751  -13.2288   19.6956 C   0  0  0  0  0  0  0  0  0  0  0  0
    6.3640  -13.6859   20.0677 O   0  0  0  0  0  0  0  0  0  0  0  0
    8.5778  -14.1084   19.1641 C   0  0  0  0  0  0  0  0  0  0  0  0
    9.8537  -13.4082   19.4400 C   0  0  0  0  0  0  0  0  0  0  0  0
   11.1108  -14.1551   19.0939 C   0  0  2  0  0  0  0  0  0  0  0  0
   11.1376  -14.6366   17.7432 N   0  0  0  0  0  0  0  0  0  0  0  0
   11.2686  -15.2745   20.0452 C   0  0  0  0  0  0  0  0  0  0  0  0
   10.8214  -16.4440   19.7625 O   0  0  0  0  0  0  0  0  0  0  0  0
   16.9722  -15.6414   21.7474 N   0  0  0  0  0  0  0  0  0  0  0  0
   15.9239  -16.3883   22.3517 C   0  0  0  0  0  0  0  0  0  0  0  0
   16.1847  -17.5513   22.8179 O   0  0  0  0  0  0  0  0  0  0  0  0
   14.5526  -15.8518   22.4584 C   0  0  0  0  0  0  0  0  0  0  0  0
   13.4592  -16.7956   22.1153 C   0  0  0  0  0  0  0  0  0  0  0  0
   12.0659  -16.3032   22.2012 C   0  0  2  0  0  0  0  0  0  0  0  0
   11.9056  -15.1402   21.2991 N   0  0  0  0  0  0  0  0  0  0  0  0
   11.6027  -15.9909   23.5452 C   0  0  0  0  0  0  0  0  0  0  0  0
   11.1496  -14.7218   23.9622 O   0  0  0  0  0  0  0  0  0  0  0  0
   11.5752  -16.8525   24.4852 O   0  0  0  0  0  0  0  0  0  0  0  0
  2  1  1  6
  2  3  1  0
  4  5  1  1
  4  2  1  0
  6  4  1  0
  7  6  2  0
  9  8  1  0
  9 11  1  0
 10  9  2  0
 12 11  1  0
 13 12  1  1
 13 14  1  0
 14  6  1  0
 15 13  1  0
 15 16  2  0
 17 18  1  0
 18 19  2  0
 20 21  1  0
 20 18  1  0
 22 21  1  1
 22 23  1  0
 23 15  1  0
 24 22  1  0
 25 24  1  0
 26 24  2  0
M  END
$$$$
