TQQ.pdb
     RDKit          3D

 26 25  0  0  1  0  0  0  0  0999 V2000
    8.5736  -16.0327   17.4963 C   0  0  0  0  0  0  0  0  0  0  0  0
    8.7307  -14.5455   17.4759 C   0  0  1  0  0  0  0  0  0  0  0  0
    8.1851  -14.0225   16.3117 O   0  0  0  0  0  0  0  0  0  0  0  0
    8.0673  -13.9310   18.7074 C   0  0  2  0  0  0  0  0  0  0  0  0
    7.9485  -12.5104   18.5784 N   0  0  0  0  0  0  0  0  0  0  0  0
    8.8671  -14.2988   19.9367 C   0  0  0  0  0  0  0  0  0  0  0  0
    9.9228  -13.6525   20.1295 O   0  0  0  0  0  0  0  0  0  0  0  0
    6.8348  -19.0677   23.2208 N   0  0  0  0  0  0  0  0  0  0  0  0
    6.1945  -17.8109   23.4259 C   0  0  0  0  0  0  0  0  0  0  0  0
    5.0198  -17.8426   23.8742 O   0  0  0  0  0  0  0  0  0  0  0  0
    6.9098  -16.5214   23.1138 C   0  0  0  0  0  0  0  0  0  0  0  0
    8.2701  -16.8872   22.6552 C   0  0  0  0  0  0  0  0  0  0  0  0
    9.0360  -15.8193   21.9265 C   0  0  2  0  0  0  0  0  0  0  0  0
    8.3645  -15.3290   20.7579 N   0  0  0  0  0  0  0  0  0  0  0  0
   10.3665  -16.3550   21.5719 C   0  0  0  0  0  0  0  0  0  0  0  0
   10.5861  -16.8487   20.4075 O   0  0  0  0  0  0  0  0  0  0  0  0
   13.7625  -14.3931   18.0596 N   0  0  0  0  0  0  0  0  0  0  0  0
   14.5645  -14.3413   19.2327 C   0  0  0  0  0  0  0  0  0  0  0  0
   15.4292  -13.4049   19.3479 O   0  0  0  0  0  0  0  0  0  0  0  0
   14.4170  -15.3335   20.3161 C   0  0  0  0  0  0  0  0  0  0  0  0
   13.0522  -15.4763   20.8824 C   0  0  0  0  0  0  0  0  0  0  0  0
   12.8513  -16.4639   21.9665 C   0  0  2  0  0  0  0  0  0  0  0  0
   11.4610  -16.3615   22.4651 N   0  0  0  0  0  0  0  0  0  0  0  0
   13.8072  -16.3829   23.0611 C   0  0  0  0  0  0  0  0  0  0  0  0
   13.4822  -16.0157   24.3837 O   0  0  0  0  0  0  0  0  0  0  0  0
   15.0495  -16.6320   22.9146 O   0  0  0  0  0  0  0  0  0  0  0  0
  2  1  1  6
  2  3  1  0
  4  5  1  6
  4  2  1  0
  6  4  1  0
  7  6  2  0
  9  8  1  0
  9 11  1  0
 10  9  2  0
 12 11  1  0
 13 12  1  6
 13 14  1  0
 14  6  1  0
 15 13  1  0
 15 16  2  0
 17 18  1  0
 18 19  2  0
 20 21  1  0
 20 18  1  0
 22 21  1  6
 22 23  1  0
 23 15  1  0
 24 22  1  0
 25 24  1  0
 26 24  2  0
M  END
$$$$
