TQQ.pdb
     RDKit          3D

 26 25  0  0  1  0  0  0  0  0999 V2000
   15.5140  -12.1004   11.8505 C   0  0  0  0  0  0  0  0  0  0  0  0
   14.2702  -12.7605   11.3465 C   0  0  1  0  0  0  0  0  0  0  0  0
   13.9214  -12.2415   10.1073 O   0  0  0  0  0  0  0  0  0  0  0  0
   14.4765  -14.2720   11.2609 C   0  0  2  0  0  0  0  0  0  0  0  0
   13.4131  -14.9006   10.5377 N   0  0  0  0  0  0  0  0  0  0  0  0
   14.5894  -14.8367   12.6589 C   0  0  0  0  0  0  0  0  0  0  0  0
   15.3970  -14.2657   13.4277 O   0  0  0  0  0  0  0  0  0  0  0  0
   10.7807  -19.4756   14.4350 N   0  0  0  0  0  0  0  0  0  0  0  0
   10.3296  -18.1457   14.6786 C   0  0  0  0  0  0  0  0  0  0  0  0
    9.0979  -17.9966   14.8846 O   0  0  0  0  0  0  0  0  0  0  0  0
   11.2992  -16.9916   14.6843 C   0  0  0  0  0  0  0  0  0  0  0  0
   12.6445  -17.5623   14.4411 C   0  0  0  0  0  0  0  0  0  0  0  0
   13.7647  -16.5755   14.2702 C   0  0  2  0  0  0  0  0  0  0  0  0
   13.7845  -15.9490   12.9802 N   0  0  0  0  0  0  0  0  0  0  0  0
   15.0440  -17.2682   14.5284 C   0  0  0  0  0  0  0  0  0  0  0  0
   15.7761  -17.6780   13.5569 O   0  0  0  0  0  0  0  0  0  0  0  0
   18.7301  -13.6285   15.1670 N   0  0  0  0  0  0  0  0  0  0  0  0
   19.5751  -14.7472   15.4044 C   0  0  0  0  0  0  0  0  0  0  0  0
   20.8343  -14.6205   15.2142 O   0  0  0  0  0  0  0  0  0  0  0  0
   19.0355  -16.0405   15.8692 C   0  0  0  0  0  0  0  0  0  0  0  0
   17.5787  -16.2445   15.6684 C   0  0  0  0  0  0  0  0  0  0  0  0
   16.9932  -17.5334   16.1008 C   0  0  2  0  0  0  0  0  0  0  0  0
   15.5381  -17.5215   15.8275 N   0  0  0  0  0  0  0  0  0  0  0  0
   17.2632  -17.9022   17.4827 C   0  0  0  0  0  0  0  0  0  0  0  0
   18.2422  -18.8337   17.8871 O   0  0  0  0  0  0  0  0  0  0  0  0
   16.6178  -17.4130   18.4681 O   0  0  0  0  0  0  0  0  0  0  0  0
  2  1  1  6
  2  3  1  0
  4  5  1  1
  4  2  1  0
  6  4  1  0
  7  6  2  0
  9  8  1  0
  9 11  1  0
 10  9  2  0
 12 11  1  0
 13 12  1  6
 13 14  1  0
 14  6  1  0
 15 13  1  0
 15 16  2  0
 17 18  1  0
 18 19  2  0
 20 21  1  0
 20 18  1  0
 22 21  1  1
 22 23  1  0
 23 15  1  0
 24 22  1  0
 25 24  1  0
 26 24  2  0
M  END
$$$$
