TQQ.pdb
     RDKit          3D

 26 25  0  0  1  0  0  0  0  0999 V2000
    8.0430  -12.6621   17.3835 C   0  0  0  0  0  0  0  0  0  0  0  0
    8.0007  -13.8045   18.3479 C   0  0  1  0  0  0  0  0  0  0  0  0
    8.4040  -14.9754   17.7208 O   0  0  0  0  0  0  0  0  0  0  0  0
    8.8877  -13.5048   19.5553 C   0  0  2  0  0  0  0  0  0  0  0  0
   10.2693  -13.4544   19.1845 N   0  0  0  0  0  0  0  0  0  0  0  0
    8.6495  -14.5537   20.6179 C   0  0  0  0  0  0  0  0  0  0  0  0
    7.4701  -14.6824   21.0203 O   0  0  0  0  0  0  0  0  0  0  0  0
   12.5945  -19.3927   21.7121 N   0  0  0  0  0  0  0  0  0  0  0  0
   12.6325  -18.3881   20.7018 C   0  0  0  0  0  0  0  0  0  0  0  0
   13.4039  -18.5941   19.7299 O   0  0  0  0  0  0  0  0  0  0  0  0
   11.7816  -17.1490   20.8143 C   0  0  0  0  0  0  0  0  0  0  0  0
   10.6711  -17.4755   21.7388 C   0  0  0  0  0  0  0  0  0  0  0  0
    9.6791  -16.3777   22.0008 C   0  0  2  0  0  0  0  0  0  0  0  0
    9.7631  -15.2944   21.0647 N   0  0  0  0  0  0  0  0  0  0  0  0
    9.8766  -15.8859   23.3800 C   0  0  0  0  0  0  0  0  0  0  0  0
   10.9206  -15.2070   23.6914 O   0  0  0  0  0  0  0  0  0  0  0  0
    6.5240  -11.3902   27.5999 N   0  0  0  0  0  0  0  0  0  0  0  0
    6.5354  -12.6067   26.8638 C   0  0  0  0  0  0  0  0  0  0  0  0
    5.5085  -12.9143   26.1647 O   0  0  0  0  0  0  0  0  0  0  0  0
    7.7011  -13.5127   26.8829 C   0  0  0  0  0  0  0  0  0  0  0  0
    7.8743  -14.3709   25.6839 C   0  0  0  0  0  0  0  0  0  0  0  0
    9.0015  -15.3302   25.6751 C   0  0  2  0  0  0  0  0  0  0  0  0
    8.9554  -16.1219   24.4248 N   0  0  0  0  0  0  0  0  0  0  0  0
    9.0840  -16.1975   26.8411 C   0  0  0  0  0  0  0  0  0  0  0  0
    9.0409  -17.6067   26.7966 O   0  0  0  0  0  0  0  0  0  0  0  0
    9.1942  -15.7495   28.0302 O   0  0  0  0  0  0  0  0  0  0  0  0
  2  1  1  6
  2  3  1  0
  4  5  1  6
  4  2  1  0
  6  4  1  0
  7  6  2  0
  9  8  1  0
  9 11  1  0
 10  9  2  0
 12 11  1  0
 13 12  1  6
 13 14  1  0
 14  6  1  0
 15 13  1  0
 15 16  2  0
 17 18  1  0
 18 19  2  0
 20 21  1  0
 20 18  1  0
 22 21  1  1
 22 23  1  0
 23 15  1  0
 24 22  1  0
 25 24  1  0
 26 24  2  0
M  END
$$$$
