GNP.pdb
     RDKit          3D

 20 20  0  0  1  0  0  0  0  0999 V2000
    8.4833  -12.3052   19.2002 N   0  0  0  0  0  0  0  0  0  0  0  0
    8.8668  -13.4419   20.0174 C   0  0  0  0  0  0  0  0  0  0  0  0
    7.9770  -13.5900   21.1856 C   0  0  0  0  0  0  0  0  0  0  0  0
    7.1693  -12.6662   21.4463 O   0  0  0  0  0  0  0  0  0  0  0  0
    5.7446  -15.7885   21.2255 N   0  0  0  0  0  0  0  0  0  0  0  0
    6.0721  -16.7420   22.2224 C   0  0  0  0  0  0  0  0  0  0  0  0
    5.6558  -17.9071   22.0986 O   0  0  0  0  0  0  0  0  0  0  0  0
    6.8846  -16.3458   23.3672 C   0  0  0  0  0  0  0  0  0  0  0  0
    7.2609  -14.8639   23.2643 C   0  0  2  0  0  0  0  0  0  0  0  0
    8.0215  -14.7293   21.9938 N   0  0  0  0  0  0  0  0  0  0  0  0
    8.1384  -14.5874   24.4021 C   0  0  0  0  0  0  0  0  0  0  0  0
    9.1770  -15.4146   24.4309 O   0  0  0  0  0  0  0  0  0  0  0  0
    8.0280  -13.6335   25.3914 N   0  0  0  0  0  0  0  0  0  0  0  0
    7.4140  -12.2973   25.0428 C   0  0  0  0  0  0  0  0  0  0  0  0
    6.3627  -12.2280   26.1201 C   0  0  0  0  0  0  0  0  0  0  0  0
    6.8341  -13.1295   27.2296 C   0  0  0  0  0  0  0  0  0  0  0  0
    8.2999  -13.4376   26.7330 C   0  0  1  0  0  0  0  0  0  0  0  0
    8.8850  -14.3913   27.6278 C   0  0  0  0  0  0  0  0  0  0  0  0
    9.2993  -13.9372   28.9074 O   0  0  0  0  0  0  0  0  0  0  0  0
    9.0744  -15.5718   27.4184 O   0  0  0  0  0  0  0  0  0  0  0  0
  2  1  1  0
  3  2  1  0
  3  4  2  0
  6  8  1  0
  6  5  1  0
  7  6  2  0
  9 10  1  0
  9  8  1  1
 10  3  1  0
 11 12  2  0
 11  9  1  0
 13 11  1  0
 14 15  1  0
 14 13  1  0
 16 15  1  0
 16 17  1  0
 17 13  1  0
 17 18  1  1
 18 20  2  0
 18 19  1  0
M  END
$$$$
