GNP.pdb
     RDKit          3D

 20 20  0  0  1  0  0  0  0  0999 V2000
    5.1017  -19.5244   22.7417 N   0  0  0  0  0  0  0  0  0  0  0  0
    6.3089  -18.9781   23.3343 C   0  0  0  0  0  0  0  0  0  0  0  0
    6.3370  -17.5056   23.2384 C   0  0  0  0  0  0  0  0  0  0  0  0
    5.3788  -16.9218   22.6774 O   0  0  0  0  0  0  0  0  0  0  0  0
    7.8771  -15.4796   26.7341 N   0  0  0  0  0  0  0  0  0  0  0  0
    7.8122  -14.5573   25.6593 C   0  0  0  0  0  0  0  0  0  0  0  0
    7.0815  -13.5573   25.7697 O   0  0  0  0  0  0  0  0  0  0  0  0
    8.5959  -14.7929   24.4518 C   0  0  0  0  0  0  0  0  0  0  0  0
    7.7061  -15.3676   23.3445 C   0  0  2  0  0  0  0  0  0  0  0  0
    7.4018  -16.7634   23.7567 N   0  0  0  0  0  0  0  0  0  0  0  0
    8.5217  -15.3733   22.1296 C   0  0  0  0  0  0  0  0  0  0  0  0
    9.6199  -16.1045   22.2815 O   0  0  0  0  0  0  0  0  0  0  0  0
    8.3071  -14.7499   20.9188 N   0  0  0  0  0  0  0  0  0  0  0  0
    6.9380  -14.1777   20.6321 C   0  0  0  0  0  0  0  0  0  0  0  0
    7.3388  -12.7757   20.2523 C   0  0  0  0  0  0  0  0  0  0  0  0
    8.7741  -12.8525   19.8051 C   0  0  0  0  0  0  0  0  0  0  0  0
    8.9634  -14.4181   19.7477 C   0  0  1  0  0  0  0  0  0  0  0  0
   10.3347  -14.6926   19.4370 C   0  0  0  0  0  0  0  0  0  0  0  0
   10.7848  -14.4266   18.1171 O   0  0  0  0  0  0  0  0  0  0  0  0
   11.1805  -15.1370   20.1856 O   0  0  0  0  0  0  0  0  0  0  0  0
  2  1  1  0
  3  2  1  0
  3  4  2  0
  6  8  1  0
  6  5  1  0
  7  6  2  0
  9 10  1  0
  9  8  1  1
 10  3  1  0
 11 12  2  0
 11  9  1  0
 13 11  1  0
 14 15  1  0
 14 13  1  0
 16 15  1  0
 16 17  1  0
 17 13  1  0
 17 18  1  1
 18 20  2  0
 18 19  1  0
M  END
$$$$
