GNP.pdb
     RDKit          3D

 20 20  0  0  1  0  0  0  0  0999 V2000
    7.1805  -19.5773   16.4089 N   0  0  0  0  0  0  0  0  0  0  0  0
    7.2587  -19.5673   17.8583 C   0  0  0  0  0  0  0  0  0  0  0  0
    6.7457  -18.3011   18.4165 C   0  0  0  0  0  0  0  0  0  0  0  0
    6.7056  -17.2902   17.6748 O   0  0  0  0  0  0  0  0  0  0  0  0
    3.6985  -18.0598   19.6001 N   0  0  0  0  0  0  0  0  0  0  0  0
    3.8285  -17.8903   21.0017 C   0  0  0  0  0  0  0  0  0  0  0  0
    2.9057  -18.2750   21.7411 O   0  0  0  0  0  0  0  0  0  0  0  0
    5.0310  -17.2732   21.5501 C   0  0  0  0  0  0  0  0  0  0  0  0
    6.0115  -16.9275   20.4243 C   0  0  2  0  0  0  0  0  0  0  0  0
    6.3101  -18.2142   19.7417 N   0  0  0  0  0  0  0  0  0  0  0  0
    7.2177  -16.4183   21.0778 C   0  0  0  0  0  0  0  0  0  0  0  0
    7.7586  -17.3266   21.8817 O   0  0  0  0  0  0  0  0  0  0  0  0
    7.8263  -15.1859   20.9719 N   0  0  0  0  0  0  0  0  0  0  0  0
    7.4781  -14.3058   19.7937 C   0  0  0  0  0  0  0  0  0  0  0  0
    7.1088  -13.0471   20.5353 C   0  0  0  0  0  0  0  0  0  0  0  0
    7.8013  -13.1239   21.8697 C   0  0  0  0  0  0  0  0  0  0  0  0
    8.7337  -14.3736   21.6270 C   0  0  1  0  0  0  0  0  0  0  0  0
    9.4090  -14.6740   22.8543 C   0  0  0  0  0  0  0  0  0  0  0  0
    8.7133  -15.4382   23.8276 O   0  0  0  0  0  0  0  0  0  0  0  0
   10.5337  -14.3453   23.1709 O   0  0  0  0  0  0  0  0  0  0  0  0
  2  1  1  0
  3  2  1  0
  3  4  2  0
  6  8  1  0
  6  5  1  0
  7  6  2  0
  9 10  1  0
  9  8  1  1
 10  3  1  0
 11 12  2  0
 11  9  1  0
 13 11  1  0
 14 15  1  0
 14 13  1  0
 16 15  1  0
 16 17  1  0
 17 13  1  0
 17 18  1  1
 18 20  2  0
 18 19  1  0
M  END
$$$$
