GNP.pdb
     RDKit          3D

 20 20  0  0  1  0  0  0  0  0999 V2000
    9.3966  -15.2369   13.0324 N   0  0  0  0  0  0  0  0  0  0  0  0
    9.6709  -16.1520   14.1253 C   0  0  0  0  0  0  0  0  0  0  0  0
    8.9109  -15.7871   15.3367 C   0  0  0  0  0  0  0  0  0  0  0  0
    8.4575  -14.6215   15.4329 O   0  0  0  0  0  0  0  0  0  0  0  0
    5.5894  -17.1483   19.6572 N   0  0  0  0  0  0  0  0  0  0  0  0
    6.9544  -17.5140   19.5428 C   0  0  0  0  0  0  0  0  0  0  0  0
    7.6266  -17.6565   20.5791 O   0  0  0  0  0  0  0  0  0  0  0  0
    7.5441  -17.7155   18.2239 C   0  0  0  0  0  0  0  0  0  0  0  0
    7.9924  -16.3751   17.6318 C   0  0  2  0  0  0  0  0  0  0  0  0
    8.6928  -16.7098   16.3636 N   0  0  0  0  0  0  0  0  0  0  0  0
    8.9405  -15.8046   18.5892 C   0  0  0  0  0  0  0  0  0  0  0  0
    9.8894  -16.6747   18.9152 O   0  0  0  0  0  0  0  0  0  0  0  0
    8.9697  -14.5516   19.1635 N   0  0  0  0  0  0  0  0  0  0  0  0
    8.3008  -13.4072   18.4376 C   0  0  0  0  0  0  0  0  0  0  0  0
    7.4192  -12.9004   19.5496 C   0  0  0  0  0  0  0  0  0  0  0  0
    8.0560  -13.3562   20.8352 C   0  0  0  0  0  0  0  0  0  0  0  0
    9.4349  -13.8929   20.2869 C   0  0  1  0  0  0  0  0  0  0  0  0
   10.1529  -14.4810   21.3783 C   0  0  0  0  0  0  0  0  0  0  0  0
   10.9642  -13.6322   22.1762 O   0  0  0  0  0  0  0  0  0  0  0  0
   10.1514  -15.6480   21.7119 O   0  0  0  0  0  0  0  0  0  0  0  0
  2  1  1  0
  3  2  1  0
  3  4  2  0
  6  8  1  0
  6  5  1  0
  7  6  2  0
  9 10  1  0
  9  8  1  1
 10  3  1  0
 11 12  2  0
 11  9  1  0
 13 11  1  0
 14 15  1  0
 14 13  1  0
 16 15  1  0
 16 17  1  0
 17 13  1  0
 17 18  1  1
 18 20  2  0
 18 19  1  0
M  END
$$$$
