GNP.pdb
     RDKit          3D

 20 20  0  0  1  0  0  0  0  0999 V2000
    4.1848  -19.5026   21.3548 N   0  0  0  0  0  0  0  0  0  0  0  0
    4.9920  -19.3955   22.5564 C   0  0  0  0  0  0  0  0  0  0  0  0
    5.4686  -18.0142   22.7636 C   0  0  0  0  0  0  0  0  0  0  0  0
    4.7412  -17.0648   22.3853 O   0  0  0  0  0  0  0  0  0  0  0  0
    7.6700  -14.0122   25.0243 N   0  0  0  0  0  0  0  0  0  0  0  0
    8.4380  -15.1534   25.3675 C   0  0  0  0  0  0  0  0  0  0  0  0
    9.4787  -14.9996   26.0303 O   0  0  0  0  0  0  0  0  0  0  0  0
    8.0000  -16.4782   24.9421 C   0  0  0  0  0  0  0  0  0  0  0  0
    7.2120  -16.3819   23.6315 C   0  0  2  0  0  0  0  0  0  0  0  0
    6.7019  -17.7533   23.3671 N   0  0  0  0  0  0  0  0  0  0  0  0
    8.1803  -16.0032   22.6019 C   0  0  0  0  0  0  0  0  0  0  0  0
    9.3441  -16.6190   22.7752 O   0  0  0  0  0  0  0  0  0  0  0  0
    8.0450  -15.1367   21.5381 N   0  0  0  0  0  0  0  0  0  0  0  0
    6.6796  -14.5595   21.2441 C   0  0  0  0  0  0  0  0  0  0  0  0
    7.0384  -13.0963   21.2173 C   0  0  0  0  0  0  0  0  0  0  0  0
    8.5108  -13.0274   20.9116 C   0  0  0  0  0  0  0  0  0  0  0  0
    8.7875  -14.5355   20.5383 C   0  0  1  0  0  0  0  0  0  0  0  0
   10.1943  -14.6914   20.3163 C   0  0  0  0  0  0  0  0  0  0  0  0
   10.9883  -15.1749   21.3892 O   0  0  0  0  0  0  0  0  0  0  0  0
   10.8053  -14.4536   19.2949 O   0  0  0  0  0  0  0  0  0  0  0  0
  2  1  1  0
  3  2  1  0
  3  4  2  0
  6  8  1  0
  6  5  1  0
  7  6  2  0
  9 10  1  0
  9  8  1  1
 10  3  1  0
 11 12  2  0
 11  9  1  0
 13 11  1  0
 14 15  1  0
 14 13  1  0
 16 15  1  0
 16 17  1  0
 17 13  1  0
 17 18  1  1
 18 20  2  0
 18 19  1  0
M  END
$$$$
