GNP.pdb
     RDKit          3D

 20 20  0  0  1  0  0  0  0  0999 V2000
    2.6432  -19.1919   20.9616 N   0  0  0  0  0  0  0  0  0  0  0  0
    4.0911  -19.0921   20.9401 C   0  0  0  0  0  0  0  0  0  0  0  0
    4.6184  -18.6295   22.2386 C   0  0  0  0  0  0  0  0  0  0  0  0
    3.8732  -18.6915   23.2459 O   0  0  0  0  0  0  0  0  0  0  0  0
    7.3665  -20.0375   26.3943 N   0  0  0  0  0  0  0  0  0  0  0  0
    6.6056  -19.7676   25.2289 C   0  0  0  0  0  0  0  0  0  0  0  0
    5.3896  -20.0271   25.2324 O   0  0  0  0  0  0  0  0  0  0  0  0
    7.2543  -19.1950   24.0545 C   0  0  0  0  0  0  0  0  0  0  0  0
    6.5804  -17.8747   23.6660 C   0  0  2  0  0  0  0  0  0  0  0  0
    5.9182  -18.1304   22.3595 N   0  0  0  0  0  0  0  0  0  0  0  0
    7.6602  -16.9020   23.4955 C   0  0  0  0  0  0  0  0  0  0  0  0
    8.6402  -17.3866   22.7416 O   0  0  0  0  0  0  0  0  0  0  0  0
    7.7820  -15.6216   23.9919 N   0  0  0  0  0  0  0  0  0  0  0  0
    6.5408  -14.7661   24.0994 C   0  0  0  0  0  0  0  0  0  0  0  0
    6.6518  -14.3633   25.5472 C   0  0  0  0  0  0  0  0  0  0  0  0
    8.1055  -14.4987   25.9136 C   0  0  0  0  0  0  0  0  0  0  0  0
    8.7300  -14.7441   24.4854 C   0  0  1  0  0  0  0  0  0  0  0  0
   10.1285  -15.0095   24.6473 C   0  0  0  0  0  0  0  0  0  0  0  0
   10.9852  -13.9150   24.9363 O   0  0  0  0  0  0  0  0  0  0  0  0
   10.6841  -16.0855   24.5650 O   0  0  0  0  0  0  0  0  0  0  0  0
  2  1  1  0
  3  2  1  0
  3  4  2  0
  6  8  1  0
  6  5  1  0
  7  6  2  0
  9 10  1  0
  9  8  1  6
 10  3  1  0
 11 12  2  0
 11  9  1  0
 13 11  1  0
 14 15  1  0
 14 13  1  0
 16 15  1  0
 16 17  1  0
 17 13  1  0
 17 18  1  1
 18 20  2  0
 18 19  1  0
M  END
$$$$
