GNP.pdb
     RDKit          3D

 20 20  0  0  1  0  0  0  0  0999 V2000
    7.9887  -12.7677   18.9897 N   0  0  0  0  0  0  0  0  0  0  0  0
    8.6166  -13.7483   19.8564 C   0  0  0  0  0  0  0  0  0  0  0  0
    7.7809  -14.0358   21.0384 C   0  0  0  0  0  0  0  0  0  0  0  0
    6.6086  -13.5903   21.0679 O   0  0  0  0  0  0  0  0  0  0  0  0
    7.0828  -17.9627   25.3985 N   0  0  0  0  0  0  0  0  0  0  0  0
    6.5153  -17.0836   24.4419 C   0  0  0  0  0  0  0  0  0  0  0  0
    5.3426  -16.7013   24.5992 O   0  0  0  0  0  0  0  0  0  0  0  0
    7.3078  -16.6450   23.2985 C   0  0  0  0  0  0  0  0  0  0  0  0
    7.4652  -15.1208   23.3144 C   0  0  2  0  0  0  0  0  0  0  0  0
    8.2710  -14.7871   22.1102 N   0  0  0  0  0  0  0  0  0  0  0  0
    8.2231  -14.8030   24.5250 C   0  0  0  0  0  0  0  0  0  0  0  0
    9.2234  -15.6560   24.7135 O   0  0  0  0  0  0  0  0  0  0  0  0
    8.0389  -13.7902   25.4420 N   0  0  0  0  0  0  0  0  0  0  0  0
    7.4283  -12.4903   24.9715 C   0  0  0  0  0  0  0  0  0  0  0  0
    6.3123  -12.3716   25.9771 C   0  0  0  0  0  0  0  0  0  0  0  0
    6.7280  -13.1918   27.1689 C   0  0  0  0  0  0  0  0  0  0  0  0
    8.2256  -13.5042   26.7820 C   0  0  1  0  0  0  0  0  0  0  0  0
    8.7688  -14.3880   27.7701 C   0  0  0  0  0  0  0  0  0  0  0  0
    9.2729  -13.8181   28.9686 O   0  0  0  0  0  0  0  0  0  0  0  0
    8.8522  -15.5971   27.7046 O   0  0  0  0  0  0  0  0  0  0  0  0
  2  1  1  0
  3  2  1  0
  3  4  2  0
  6  8  1  0
  6  5  1  0
  7  6  2  0
  9 10  1  0
  9  8  1  1
 10  3  1  0
 11 12  2  0
 11  9  1  0
 13 11  1  0
 14 15  1  0
 14 13  1  0
 16 15  1  0
 16 17  1  0
 17 13  1  0
 17 18  1  1
 18 20  2  0
 18 19  1  0
M  END
$$$$
