GNP.pdb
     RDKit          3D

 20 20  0  0  1  0  0  0  0  0999 V2000
    6.5009  -16.6522   19.5176 N   0  0  0  0  0  0  0  0  0  0  0  0
    7.5036  -16.2976   20.5055 C   0  0  0  0  0  0  0  0  0  0  0  0
    6.9283  -16.2507   21.8638 C   0  0  0  0  0  0  0  0  0  0  0  0
    5.7254  -15.9200   21.9955 O   0  0  0  0  0  0  0  0  0  0  0  0
    7.1905  -18.6718   27.3708 N   0  0  0  0  0  0  0  0  0  0  0  0
    6.8014  -17.7147   26.3998 C   0  0  0  0  0  0  0  0  0  0  0  0
    5.9317  -16.8774   26.6972 O   0  0  0  0  0  0  0  0  0  0  0  0
    7.4213  -17.7266   25.0795 C   0  0  0  0  0  0  0  0  0  0  0  0
    7.2185  -16.3757   24.3851 C   0  0  2  0  0  0  0  0  0  0  0  0
    7.6948  -16.5653   22.9894 N   0  0  0  0  0  0  0  0  0  0  0  0
    8.0857  -15.4258   25.0828 C   0  0  0  0  0  0  0  0  0  0  0  0
    9.3089  -15.9143   25.2528 O   0  0  0  0  0  0  0  0  0  0  0  0
    7.8083  -14.1624   25.5600 N   0  0  0  0  0  0  0  0  0  0  0  0
    6.7666  -13.3321   24.8464 C   0  0  0  0  0  0  0  0  0  0  0  0
    5.8931  -12.9804   26.0229 C   0  0  0  0  0  0  0  0  0  0  0  0
    6.7612  -13.1049   27.2463 C   0  0  0  0  0  0  0  0  0  0  0  0
    8.1737  -13.2878   26.5669 C   0  0  1  0  0  0  0  0  0  0  0  0
    9.1379  -13.5358   27.5971 C   0  0  0  0  0  0  0  0  0  0  0  0
    9.2876  -14.8687   28.0624 O   0  0  0  0  0  0  0  0  0  0  0  0
    9.8612  -12.7226   28.1344 O   0  0  0  0  0  0  0  0  0  0  0  0
  2  1  1  0
  3  2  1  0
  3  4  2  0
  6  8  1  0
  6  5  1  0
  7  6  2  0
  9 10  1  0
  9  8  1  1
 10  3  1  0
 11 12  2  0
 11  9  1  0
 13 11  1  0
 14 15  1  0
 14 13  1  0
 16 15  1  0
 16 17  1  0
 17 13  1  0
 17 18  1  1
 18 20  2  0
 18 19  1  0
M  END
$$$$
