GNP.pdb
     RDKit          3D

 20 20  0  0  1  0  0  0  0  0999 V2000
    8.8230  -25.9732   23.9151 N   0  0  0  0  0  0  0  0  0  0  0  0
    8.0969  -25.5763   25.1076 C   0  0  0  0  0  0  0  0  0  0  0  0
    8.5261  -24.2463   25.5819 C   0  0  0  0  0  0  0  0  0  0  0  0
    9.4553  -23.6629   24.9737 O   0  0  0  0  0  0  0  0  0  0  0  0
    6.3152  -19.3139   27.8865 N   0  0  0  0  0  0  0  0  0  0  0  0
    6.7809  -20.4221   27.1349 C   0  0  0  0  0  0  0  0  0  0  0  0
    6.9344  -20.2933   25.9078 O   0  0  0  0  0  0  0  0  0  0  0  0
    7.0702  -21.6846   27.8059 C   0  0  0  0  0  0  0  0  0  0  0  0
    8.3394  -22.3167   27.2246 C   0  0  2  0  0  0  0  0  0  0  0  0
    7.9199  -23.6367   26.6838 N   0  0  0  0  0  0  0  0  0  0  0  0
    9.2518  -22.5073   28.3525 C   0  0  0  0  0  0  0  0  0  0  0  0
    8.6930  -23.2299   29.3166 O   0  0  0  0  0  0  0  0  0  0  0  0
   10.5422  -22.0559   28.5308 N   0  0  0  0  0  0  0  0  0  0  0  0
   11.3006  -21.5395   27.3299 C   0  0  0  0  0  0  0  0  0  0  0  0
   11.7237  -20.1987   27.8718 C   0  0  0  0  0  0  0  0  0  0  0  0
   11.7039  -20.3234   29.3718 C   0  0  0  0  0  0  0  0  0  0  0  0
   11.4946  -21.8806   29.5180 C   0  0  1  0  0  0  0  0  0  0  0  0
   11.3390  -22.1832   30.9097 C   0  0  0  0  0  0  0  0  0  0  0  0
   12.4407  -21.9400   31.7714 O   0  0  0  0  0  0  0  0  0  0  0  0
   10.3532  -22.6343   31.4555 O   0  0  0  0  0  0  0  0  0  0  0  0
  2  1  1  0
  3  2  1  0
  3  4  2  0
  6  8  1  0
  6  5  1  0
  7  6  2  0
  9 10  1  0
  9  8  1  1
 10  3  1  0
 11 12  2  0
 11  9  1  0
 13 11  1  0
 14 15  1  0
 14 13  1  0
 16 15  1  0
 16 17  1  0
 17 13  1  0
 17 18  1  1
 18 20  2  0
 18 19  1  0
M  END
$$$$
