GNP.pdb
     RDKit          3D

 20 20  0  0  1  0  0  0  0  0999 V2000
    0.4022  -27.5615   28.5795 N   0  0  0  0  0  0  0  0  0  0  0  0
    0.7097  -26.9489   27.3000 C   0  0  0  0  0  0  0  0  0  0  0  0
    0.2642  -25.5426   27.2554 C   0  0  0  0  0  0  0  0  0  0  0  0
    0.8163  -24.7132   28.0175 O   0  0  0  0  0  0  0  0  0  0  0  0
   -0.5238  -21.0334   24.3533 N   0  0  0  0  0  0  0  0  0  0  0  0
   -1.5327  -22.0154   24.5199 C   0  0  0  0  0  0  0  0  0  0  0  0
   -2.7249  -21.6676   24.4589 O   0  0  0  0  0  0  0  0  0  0  0  0
   -1.1607  -23.4056   24.7581 C   0  0  0  0  0  0  0  0  0  0  0  0
   -1.1926  -23.7146   26.2587 C   0  0  2  0  0  0  0  0  0  0  0  0
   -0.7502  -25.1283   26.3877 N   0  0  0  0  0  0  0  0  0  0  0  0
   -2.5914  -23.5907   26.6697 C   0  0  0  0  0  0  0  0  0  0  0  0
   -3.3901  -24.3390   25.9174 O   0  0  0  0  0  0  0  0  0  0  0  0
   -3.1520  -22.8373   27.6790 N   0  0  0  0  0  0  0  0  0  0  0  0
   -2.2342  -22.1363   28.6539 C   0  0  0  0  0  0  0  0  0  0  0  0
   -2.7862  -20.7388   28.5405 C   0  0  0  0  0  0  0  0  0  0  0  0
   -4.2006  -20.8816   28.0454 C   0  0  0  0  0  0  0  0  0  0  0  0
   -4.3826  -22.4440   28.1723 C   0  0  1  0  0  0  0  0  0  0  0  0
   -5.6632  -22.7914   27.6320 C   0  0  0  0  0  0  0  0  0  0  0  0
   -6.8174  -22.4626   28.3903 O   0  0  0  0  0  0  0  0  0  0  0  0
   -5.8864  -23.3476   26.5765 O   0  0  0  0  0  0  0  0  0  0  0  0
  2  1  1  0
  3  2  1  0
  3  4  2  0
  6  8  1  0
  6  5  1  0
  7  6  2  0
  9 10  1  0
  9  8  1  6
 10  3  1  0
 11 12  2  0
 11  9  1  0
 13 11  1  0
 14 15  1  0
 14 13  1  0
 16 15  1  0
 16 17  1  0
 17 13  1  0
 17 18  1  6
 18 20  2  0
 18 19  1  0
M  END
$$$$
