GNP.pdb
     RDKit          3D

 20 20  0  0  1  0  0  0  0  0999 V2000
    8.4862  -12.4273   19.1569 N   0  0  0  0  0  0  0  0  0  0  0  0
    8.9152  -13.5781   19.9306 C   0  0  0  0  0  0  0  0  0  0  0  0
    8.0242  -13.8146   21.0831 C   0  0  0  0  0  0  0  0  0  0  0  0
    7.0590  -13.0345   21.2661 O   0  0  0  0  0  0  0  0  0  0  0  0
    6.8654  -17.6982   21.0147 N   0  0  0  0  0  0  0  0  0  0  0  0
    6.3113  -17.0299   22.1356 C   0  0  0  0  0  0  0  0  0  0  0  0
    5.0889  -16.8035   22.1556 O   0  0  0  0  0  0  0  0  0  0  0  0
    7.1753  -16.6219   23.2379 C   0  0  0  0  0  0  0  0  0  0  0  0
    7.4263  -15.1112   23.1851 C   0  0  2  0  0  0  0  0  0  0  0  0
    8.2383  -14.8809   21.9610 N   0  0  0  0  0  0  0  0  0  0  0  0
    8.2152  -14.7884   24.3745 C   0  0  0  0  0  0  0  0  0  0  0  0
    9.2421  -15.6180   24.5199 O   0  0  0  0  0  0  0  0  0  0  0  0
    8.0359  -13.7913   25.3095 N   0  0  0  0  0  0  0  0  0  0  0  0
    7.3690  -12.5058   24.8775 C   0  0  0  0  0  0  0  0  0  0  0  0
    6.2893  -12.4316   25.9260 C   0  0  0  0  0  0  0  0  0  0  0  0
    6.7747  -13.2512   27.0916 C   0  0  0  0  0  0  0  0  0  0  0  0
    8.2651  -13.5138   26.6447 C   0  0  1  0  0  0  0  0  0  0  0  0
    8.8719  -14.3910   27.6011 C   0  0  0  0  0  0  0  0  0  0  0  0
    9.4218  -13.8163   28.7771 O   0  0  0  0  0  0  0  0  0  0  0  0
    8.9755  -15.5980   27.5256 O   0  0  0  0  0  0  0  0  0  0  0  0
  2  1  1  0
  3  2  1  0
  3  4  2  0
  6  8  1  0
  6  5  1  0
  7  6  2  0
  9 10  1  0
  9  8  1  1
 10  3  1  0
 11 12  2  0
 11  9  1  0
 13 11  1  0
 14 15  1  0
 14 13  1  0
 16 15  1  0
 16 17  1  0
 17 13  1  0
 17 18  1  1
 18 20  2  0
 18 19  1  0
M  END
$$$$
