GNP.pdb
     RDKit          3D

 20 20  0  0  1  0  0  0  0  0999 V2000
    8.4809  -12.1602   19.1328 N   0  0  0  0  0  0  0  0  0  0  0  0
    8.9669  -13.2798   19.9183 C   0  0  0  0  0  0  0  0  0  0  0  0
    8.0566  -13.5870   21.0387 C   0  0  0  0  0  0  0  0  0  0  0  0
    7.0821  -12.8252   21.2470 O   0  0  0  0  0  0  0  0  0  0  0  0
    7.5927  -17.7885   21.0785 N   0  0  0  0  0  0  0  0  0  0  0  0
    6.7869  -17.0500   21.9815 C   0  0  0  0  0  0  0  0  0  0  0  0
    5.5825  -16.8893   21.7179 O   0  0  0  0  0  0  0  0  0  0  0  0
    7.3772  -16.4952   23.1945 C   0  0  0  0  0  0  0  0  0  0  0  0
    7.4725  -14.9694   23.0893 C   0  0  2  0  0  0  0  0  0  0  0  0
    8.2629  -14.6996   21.8591 N   0  0  0  0  0  0  0  0  0  0  0  0
    8.2180  -14.5264   24.2678 C   0  0  0  0  0  0  0  0  0  0  0  0
    9.3783  -15.1627   24.3799 O   0  0  0  0  0  0  0  0  0  0  0  0
    7.8860  -13.5881   25.2218 N   0  0  0  0  0  0  0  0  0  0  0  0
    7.0664  -12.3893   24.8032 C   0  0  0  0  0  0  0  0  0  0  0  0
    5.9609  -12.4869   25.8224 C   0  0  0  0  0  0  0  0  0  0  0  0
    6.5211  -13.2683   26.9806 C   0  0  0  0  0  0  0  0  0  0  0  0
    8.0437  -13.3207   26.5693 C   0  0  1  0  0  0  0  0  0  0  0  0
    8.7370  -14.1375   27.5205 C   0  0  0  0  0  0  0  0  0  0  0  0
    8.8473  -15.5268   27.2503 O   0  0  0  0  0  0  0  0  0  0  0  0
    9.2550  -13.7757   28.5568 O   0  0  0  0  0  0  0  0  0  0  0  0
  2  1  1  0
  3  2  1  0
  3  4  2  0
  6  8  1  0
  6  5  1  0
  7  6  2  0
  9 10  1  0
  9  8  1  1
 10  3  1  0
 11 12  2  0
 11  9  1  0
 13 11  1  0
 14 15  1  0
 14 13  1  0
 16 15  1  0
 16 17  1  0
 17 13  1  0
 17 18  1  1
 18 20  2  0
 18 19  1  0
M  END
$$$$
