IEH.pdb
     RDKit          3D

 28 28  0  0  1  0  0  0  0  0999 V2000
    7.4855  -11.6813   19.7325 C   0  0  0  0  0  0  0  0  0  0  0  0
    7.5799  -13.1340   19.3872 C   0  0  0  0  0  0  0  0  0  0  0  0
    8.0508  -13.9567   20.5400 C   0  0  2  0  0  0  0  0  0  0  0  0
    9.3508  -13.4989   21.1152 C   0  0  0  0  0  0  0  0  0  0  0  0
    8.1899  -15.4016   20.1254 C   0  0  2  0  0  0  0  0  0  0  0  0
    6.8458  -15.8257   19.7172 N   0  0  0  0  0  0  0  0  0  0  0  0
    8.6555  -16.2895   21.2096 C   0  0  0  0  0  0  0  0  0  0  0  0
    7.8979  -16.7993   22.0738 O   0  0  0  0  0  0  0  0  0  0  0  0
   10.0429  -16.5981   21.2966 N   0  0  0  0  0  0  0  0  0  0  0  0
   10.5626  -17.5124   22.2682 C   0  0  1  0  0  0  0  0  0  0  0  0
   11.8746  -18.1198   21.9935 C   0  0  0  0  0  0  0  0  0  0  0  0
   12.4803  -19.0947   22.8861 C   0  0  0  0  0  0  0  0  0  0  0  0
   13.7969  -19.6327   22.6388 C   0  0  0  0  0  0  0  0  0  0  0  0
   14.7876  -19.6333   23.4076 O   0  0  0  0  0  0  0  0  0  0  0  0
   10.4453  -16.9479   23.6487 C   0  0  0  0  0  0  0  0  0  0  0  0
   10.9693  -15.8418   23.8745 O   0  0  0  0  0  0  0  0  0  0  0  0
   14.0408  -20.2416   21.3896 O   0  0  0  0  0  0  0  0  0  0  0  0
    9.7779  -17.6147   24.6693 N   0  0  0  0  0  0  0  0  0  0  0  0
    9.6016  -17.1167   26.0275 C   0  0  1  0  0  0  0  0  0  0  0  0
    8.2031  -16.7836   26.3463 C   0  0  0  0  0  0  0  0  0  0  0  0
    7.8348  -15.4443   25.8315 C   0  0  0  0  0  0  0  0  0  0  0  0
    8.5435  -14.5025   25.1263 C   0  0  0  0  0  0  0  0  0  0  0  0
    7.7629  -13.4425   24.7922 N   0  0  0  0  0  0  0  0  0  0  0  0
    6.5518  -13.7171   25.2884 C   0  0  0  0  0  0  0  0  0  0  0  0
    6.5683  -14.9003   25.9098 N   0  0  0  0  0  0  0  0  0  0  0  0
   10.0957  -18.2591   26.8745 C   0  0  0  0  0  0  0  0  0  0  0  0
   10.0683  -18.2081   28.0970 O   0  0  0  0  0  0  0  0  0  0  0  0
   10.5902  -19.3863   26.2633 O   0  0  0  0  0  0  0  0  0  0  0  0
  2  1  1  0
  3  2  1  0
  3  4  1  6
  5  3  1  0
  5  6  1  1
  7  5  1  0
  7  8  2  0
  9  7  1  0
 10  9  1  0
 10 11  1  6
 12 11  1  0
 12 13  1  0
 13 17  1  0
 13 14  2  0
 15 10  1  0
 16 15  2  0
 18 15  1  0
 19 18  1  0
 19 26  1  0
 19 20  1  1
 21 25  1  0
 21 20  1  0
 22 21  2  0
 23 22  1  0
 23 24  1  0
 24 25  2  0
 26 28  1  0
 27 26  2  0
M  END
$$$$
