IEH.pdb
     RDKit          3D

 28 28  0  0  1  0  0  0  0  0999 V2000
    5.8052  -11.4667   26.3671 C   0  0  0  0  0  0  0  0  0  0  0  0
    5.6185  -12.8684   25.8785 C   0  0  0  0  0  0  0  0  0  0  0  0
    6.9193  -13.5433   25.5953 C   0  0  2  0  0  0  0  0  0  0  0  0
    7.8138  -12.7683   24.6843 C   0  0  0  0  0  0  0  0  0  0  0  0
    6.6779  -14.9047   24.9894 C   0  0  2  0  0  0  0  0  0  0  0  0
    5.7052  -15.5612   25.8702 N   0  0  0  0  0  0  0  0  0  0  0  0
    7.8892  -15.7460   24.9146 C   0  0  0  0  0  0  0  0  0  0  0  0
    8.2911  -16.4830   25.8506 O   0  0  0  0  0  0  0  0  0  0  0  0
    8.6607  -15.7346   23.7177 N   0  0  0  0  0  0  0  0  0  0  0  0
    9.7508  -16.6376   23.5029 C   0  0  1  0  0  0  0  0  0  0  0  0
   10.3630  -16.6548   22.1647 C   0  0  0  0  0  0  0  0  0  0  0  0
   11.3883  -17.6162   21.7931 C   0  0  0  0  0  0  0  0  0  0  0  0
   11.9999  -17.6038   20.4853 C   0  0  0  0  0  0  0  0  0  0  0  0
   13.1712  -17.2725   20.1840 O   0  0  0  0  0  0  0  0  0  0  0  0
   10.7492  -16.5428   24.6130 C   0  0  0  0  0  0  0  0  0  0  0  0
   11.0602  -15.4100   25.0244 O   0  0  0  0  0  0  0  0  0  0  0  0
   11.2170  -18.0072   19.3830 O   0  0  0  0  0  0  0  0  0  0  0  0
   11.3294  -17.6673   25.1879 N   0  0  0  0  0  0  0  0  0  0  0  0
   12.0613  -17.6875   26.4480 C   0  0  1  0  0  0  0  0  0  0  0  0
   11.2006  -17.4680   27.6225 C   0  0  0  0  0  0  0  0  0  0  0  0
   11.1949  -16.0441   28.0309 C   0  0  0  0  0  0  0  0  0  0  0  0
   11.7469  -14.9216   27.4635 C   0  0  0  0  0  0  0  0  0  0  0  0
   11.4099  -13.8010   28.1527 N   0  0  0  0  0  0  0  0  0  0  0  0
   10.6379  -14.2180   29.1620 C   0  0  0  0  0  0  0  0  0  0  0  0
   10.4948  -15.5460   29.1115 N   0  0  0  0  0  0  0  0  0  0  0  0
   12.6666  -19.0659   26.4667 C   0  0  0  0  0  0  0  0  0  0  0  0
   12.4623  -19.8670   25.5644 O   0  0  0  0  0  0  0  0  0  0  0  0
   13.4670  -19.4359   27.5207 O   0  0  0  0  0  0  0  0  0  0  0  0
  2  1  1  0
  3  2  1  0
  3  4  1  6
  5  3  1  0
  5  6  1  1
  7  5  1  0
  7  8  2  0
  9  7  1  0
 10  9  1  0
 10 11  1  6
 12 11  1  0
 12 13  1  0
 13 17  1  0
 13 14  2  0
 15 10  1  0
 16 15  2  0
 18 15  1  0
 19 18  1  0
 19 26  1  0
 19 20  1  1
 21 25  1  0
 21 20  1  0
 22 21  2  0
 23 22  1  0
 23 24  1  0
 24 25  2  0
 26 28  1  0
 27 26  2  0
M  END
$$$$
