IEH.pdb
     RDKit          3D

 28 28  0  0  1  0  0  0  0  0999 V2000
    8.2418  -11.5825   20.2177 C   0  0  0  0  0  0  0  0  0  0  0  0
    8.9193  -12.8903   19.9549 C   0  0  0  0  0  0  0  0  0  0  0  0
    7.9910  -13.8946   19.3571 C   0  0  2  0  0  0  0  0  0  0  0  0
    6.7647  -14.1415   20.1731 C   0  0  0  0  0  0  0  0  0  0  0  0
    8.7067  -15.2081   19.1539 C   0  0  2  0  0  0  0  0  0  0  0  0
    7.8637  -15.9778   18.2320 N   0  0  0  0  0  0  0  0  0  0  0  0
    8.8822  -15.9883   20.3954 C   0  0  0  0  0  0  0  0  0  0  0  0
    7.9477  -16.5866   20.9867 O   0  0  0  0  0  0  0  0  0  0  0  0
   10.1812  -16.0797   20.9715 N   0  0  0  0  0  0  0  0  0  0  0  0
   10.4794  -16.9796   22.0445 C   0  0  1  0  0  0  0  0  0  0  0  0
   11.7385  -17.7372   21.9636 C   0  0  0  0  0  0  0  0  0  0  0  0
   11.9112  -18.8601   21.0564 C   0  0  0  0  0  0  0  0  0  0  0  0
   12.0071  -20.2169   21.5404 C   0  0  0  0  0  0  0  0  0  0  0  0
   13.0430  -20.8635   21.8254 O   0  0  0  0  0  0  0  0  0  0  0  0
   10.2663  -16.3191   23.3699 C   0  0  0  0  0  0  0  0  0  0  0  0
   10.7562  -15.1885   23.5451 O   0  0  0  0  0  0  0  0  0  0  0  0
   10.8103  -20.9399   21.7296 O   0  0  0  0  0  0  0  0  0  0  0  0
    9.5477  -16.9244   24.3940 N   0  0  0  0  0  0  0  0  0  0  0  0
    9.2681  -16.3283   25.6942 C   0  0  1  0  0  0  0  0  0  0  0  0
    7.8284  -16.1941   25.9733 C   0  0  0  0  0  0  0  0  0  0  0  0
    7.4060  -14.7743   25.9677 C   0  0  0  0  0  0  0  0  0  0  0  0
    8.0967  -13.6094   25.7384 C   0  0  0  0  0  0  0  0  0  0  0  0
    7.2705  -12.5317   25.7555 N   0  0  0  0  0  0  0  0  0  0  0  0
    6.0485  -13.0191   25.9958 C   0  0  0  0  0  0  0  0  0  0  0  0
    6.1022  -14.3483   26.1253 N   0  0  0  0  0  0  0  0  0  0  0  0
    9.9217  -17.2863   26.6542 C   0  0  0  0  0  0  0  0  0  0  0  0
   10.3011  -18.3931   26.2953 O   0  0  0  0  0  0  0  0  0  0  0  0
   10.0970  -16.9120   27.9649 O   0  0  0  0  0  0  0  0  0  0  0  0
  2  1  1  0
  3  2  1  0
  3  4  1  1
  5  3  1  0
  5  6  1  6
  7  5  1  0
  7  8  2  0
  9  7  1  0
 10  9  1  0
 10 11  1  6
 12 11  1  0
 12 13  1  0
 13 17  1  0
 13 14  2  0
 15 10  1  0
 16 15  2  0
 18 15  1  0
 19 18  1  0
 19 26  1  0
 19 20  1  1
 21 25  1  0
 21 20  1  0
 22 21  2  0
 23 22  1  0
 23 24  1  0
 24 25  2  0
 26 28  1  0
 27 26  2  0
M  END
$$$$
