IEH.pdb
     RDKit          3D

 28 28  0  0  1  0  0  0  0  0999 V2000
    7.6173  -11.9101   18.5571 C   0  0  0  0  0  0  0  0  0  0  0  0
    8.0546  -13.3269   18.3579 C   0  0  0  0  0  0  0  0  0  0  0  0
    8.2111  -14.0546   19.6516 C   0  0  2  0  0  0  0  0  0  0  0  0
    9.1307  -13.3787   20.6150 C   0  0  0  0  0  0  0  0  0  0  0  0
    8.7184  -15.4545   19.4029 C   0  0  2  0  0  0  0  0  0  0  0  0
    7.6829  -16.1116   18.5974 N   0  0  0  0  0  0  0  0  0  0  0  0
    8.9259  -16.2399   20.6361 C   0  0  0  0  0  0  0  0  0  0  0  0
    7.9934  -16.6431   21.3769 O   0  0  0  0  0  0  0  0  0  0  0  0
   10.2553  -16.5702   21.0247 N   0  0  0  0  0  0  0  0  0  0  0  0
   10.5519  -17.1941   22.2788 C   0  0  1  0  0  0  0  0  0  0  0  0
   11.7996  -17.9690   22.3720 C   0  0  0  0  0  0  0  0  0  0  0  0
   12.2037  -18.6445   23.5943 C   0  0  0  0  0  0  0  0  0  0  0  0
   13.4589  -19.3515   23.6895 C   0  0  0  0  0  0  0  0  0  0  0  0
   14.6139  -18.8681   23.7582 O   0  0  0  0  0  0  0  0  0  0  0  0
   10.3613  -16.2346   23.4107 C   0  0  0  0  0  0  0  0  0  0  0  0
   10.8770  -15.1060   23.3135 O   0  0  0  0  0  0  0  0  0  0  0  0
   13.4259  -20.7619   23.7105 O   0  0  0  0  0  0  0  0  0  0  0  0
    9.6357  -16.5642   24.5493 N   0  0  0  0  0  0  0  0  0  0  0  0
    9.2148  -15.6258   25.5818 C   0  0  1  0  0  0  0  0  0  0  0  0
    7.8217  -15.1754   25.4234 C   0  0  0  0  0  0  0  0  0  0  0  0
    7.4858  -14.1045   26.3901 C   0  0  0  0  0  0  0  0  0  0  0  0
    8.2566  -13.3820   27.2679 C   0  0  0  0  0  0  0  0  0  0  0  0
    7.5240  -12.4324   27.9052 N   0  0  0  0  0  0  0  0  0  0  0  0
    6.2817  -12.5546   27.4255 C   0  0  0  0  0  0  0  0  0  0  0  0
    6.2329  -13.5403   26.5241 N   0  0  0  0  0  0  0  0  0  0  0  0
    9.3902  -16.4166   26.8509 C   0  0  0  0  0  0  0  0  0  0  0  0
    9.5354  -17.6316   26.8331 O   0  0  0  0  0  0  0  0  0  0  0  0
    9.3868  -15.7613   28.0589 O   0  0  0  0  0  0  0  0  0  0  0  0
  2  1  1  0
  3  2  1  0
  3  4  1  1
  5  3  1  0
  5  6  1  6
  7  5  1  0
  7  8  2  0
  9  7  1  0
 10  9  1  0
 10 11  1  6
 12 11  1  0
 12 13  1  0
 13 17  1  0
 13 14  2  0
 15 10  1  0
 16 15  2  0
 18 15  1  0
 19 18  1  0
 19 26  1  0
 19 20  1  6
 21 25  1  0
 21 20  1  0
 22 21  2  0
 23 22  1  0
 23 24  1  0
 24 25  2  0
 26 28  1  0
 27 26  2  0
M  END
$$$$
