IEH.pdb
     RDKit          3D

 28 28  0  0  1  0  0  0  0  0999 V2000
    6.8568  -12.1958   19.6360 C   0  0  0  0  0  0  0  0  0  0  0  0
    7.5259  -13.0369   18.5953 C   0  0  0  0  0  0  0  0  0  0  0  0
    8.8665  -13.5201   19.0392 C   0  0  2  0  0  0  0  0  0  0  0  0
    9.8323  -12.4219   19.3422 C   0  0  0  0  0  0  0  0  0  0  0  0
    9.4714  -14.4161   17.9855 C   0  0  2  0  0  0  0  0  0  0  0  0
    8.4543  -15.4354   17.7037 N   0  0  0  0  0  0  0  0  0  0  0  0
   10.7098  -15.0932   18.4199 C   0  0  0  0  0  0  0  0  0  0  0  0
   10.7305  -16.1527   19.0966 O   0  0  0  0  0  0  0  0  0  0  0  0
   11.9654  -14.5263   18.0594 N   0  0  0  0  0  0  0  0  0  0  0  0
   13.2083  -15.1736   18.3532 C   0  0  1  0  0  0  0  0  0  0  0  0
   14.1905  -15.2816   17.2626 C   0  0  0  0  0  0  0  0  0  0  0  0
   15.4932  -15.8992   17.4503 C   0  0  0  0  0  0  0  0  0  0  0  0
   16.4510  -15.9891   16.3737 C   0  0  0  0  0  0  0  0  0  0  0  0
   17.2266  -16.9379   16.1077 O   0  0  0  0  0  0  0  0  0  0  0  0
   13.7912  -14.6555   19.6299 C   0  0  0  0  0  0  0  0  0  0  0  0
   14.1890  -13.4764   19.6550 O   0  0  0  0  0  0  0  0  0  0  0  0
   16.5591  -14.8954   15.4890 O   0  0  0  0  0  0  0  0  0  0  0  0
   13.8987  -15.4427   20.7703 N   0  0  0  0  0  0  0  0  0  0  0  0
   14.4681  -15.0127   22.0410 C   0  0  1  0  0  0  0  0  0  0  0  0
   13.5152  -15.0939   23.1608 C   0  0  0  0  0  0  0  0  0  0  0  0
   12.6240  -16.2698   23.0291 C   0  0  0  0  0  0  0  0  0  0  0  0
   12.5257  -17.2471   22.0690 C   0  0  0  0  0  0  0  0  0  0  0  0
   11.6062  -18.1865   22.4104 N   0  0  0  0  0  0  0  0  0  0  0  0
   11.1212  -17.8010   23.5955 C   0  0  0  0  0  0  0  0  0  0  0  0
   11.7097  -16.6658   23.9846 N   0  0  0  0  0  0  0  0  0  0  0  0
   15.6193  -15.9631   22.2359 C   0  0  0  0  0  0  0  0  0  0  0  0
   15.8110  -16.9011   21.4736 O   0  0  0  0  0  0  0  0  0  0  0  0
   16.4758  -15.7758   23.2941 O   0  0  0  0  0  0  0  0  0  0  0  0
  2  1  1  0
  3  2  1  0
  3  4  1  6
  5  3  1  0
  5  6  1  1
  7  5  1  0
  7  8  2  0
  9  7  1  0
 10  9  1  0
 10 11  1  6
 12 11  1  0
 12 13  1  0
 13 17  1  0
 13 14  2  0
 15 10  1  0
 16 15  2  0
 18 15  1  0
 19 18  1  0
 19 26  1  0
 19 20  1  1
 21 25  1  0
 21 20  1  0
 22 21  2  0
 23 22  1  0
 23 24  1  0
 24 25  2  0
 26 28  1  0
 27 26  2  0
M  END
$$$$
