IEH.pdb
     RDKit          3D

 28 28  0  0  1  0  0  0  0  0999 V2000
    6.9418  -12.0380   19.6506 C   0  0  0  0  0  0  0  0  0  0  0  0
    7.2945  -13.4699   19.3985 C   0  0  0  0  0  0  0  0  0  0  0  0
    7.9550  -14.1026   20.5779 C   0  0  2  0  0  0  0  0  0  0  0  0
    9.2021  -13.4067   21.0147 C   0  0  0  0  0  0  0  0  0  0  0  0
    8.2882  -15.5438   20.2763 C   0  0  2  0  0  0  0  0  0  0  0  0
    7.0131  -16.1774   19.9220 N   0  0  0  0  0  0  0  0  0  0  0  0
    8.8743  -16.2709   21.4202 C   0  0  0  0  0  0  0  0  0  0  0  0
    8.1972  -16.7855   22.3464 O   0  0  0  0  0  0  0  0  0  0  0  0
   10.2897  -16.4076   21.4950 N   0  0  0  0  0  0  0  0  0  0  0  0
   10.9331  -17.1213   22.5565 C   0  0  1  0  0  0  0  0  0  0  0  0
   12.3540  -17.4618   22.3804 C   0  0  0  0  0  0  0  0  0  0  0  0
   13.1040  -18.2025   23.3816 C   0  0  0  0  0  0  0  0  0  0  0  0
   14.1762  -19.0976   23.0160 C   0  0  0  0  0  0  0  0  0  0  0  0
   15.4070  -18.9438   23.2001 O   0  0  0  0  0  0  0  0  0  0  0  0
   10.6310  -16.4946   23.8810 C   0  0  0  0  0  0  0  0  0  0  0  0
   10.4697  -15.2611   23.9209 O   0  0  0  0  0  0  0  0  0  0  0  0
   13.8402  -20.3060   22.3696 O   0  0  0  0  0  0  0  0  0  0  0  0
   10.5274  -17.2406   25.0490 N   0  0  0  0  0  0  0  0  0  0  0  0
    9.6368  -16.9427   26.1634 C   0  0  1  0  0  0  0  0  0  0  0  0
    8.2183  -16.8830   25.7725 C   0  0  0  0  0  0  0  0  0  0  0  0
    7.7498  -15.4833   25.6470 C   0  0  0  0  0  0  0  0  0  0  0  0
    8.3944  -14.2800   25.7986 C   0  0  0  0  0  0  0  0  0  0  0  0
    7.5757  -13.2382   25.5002 N   0  0  0  0  0  0  0  0  0  0  0  0
    6.4059  -13.7872   25.1560 C   0  0  0  0  0  0  0  0  0  0  0  0
    6.4836  -15.1192   25.2347 N   0  0  0  0  0  0  0  0  0  0  0  0
    9.8917  -18.0811   27.1151 C   0  0  0  0  0  0  0  0  0  0  0  0
    9.2963  -18.1702   28.1806 O   0  0  0  0  0  0  0  0  0  0  0  0
   10.8146  -19.0436   26.7824 O   0  0  0  0  0  0  0  0  0  0  0  0
  2  1  1  0
  3  2  1  0
  3  4  1  6
  5  3  1  0
  5  6  1  1
  7  5  1  0
  7  8  2  0
  9  7  1  0
 10  9  1  0
 10 11  1  6
 12 11  1  0
 12 13  1  0
 13 17  1  0
 13 14  2  0
 15 10  1  0
 16 15  2  0
 18 15  1  0
 19 18  1  0
 19 26  1  0
 19 20  1  6
 21 25  1  0
 21 20  1  0
 22 21  2  0
 23 22  1  0
 23 24  1  0
 24 25  2  0
 26 28  1  0
 27 26  2  0
M  END
$$$$
