IEH.pdb
     RDKit          3D

 28 28  0  0  1  0  0  0  0  0999 V2000
    6.6281  -12.0850   19.5192 C   0  0  0  0  0  0  0  0  0  0  0  0
    7.4274  -12.8474   18.5102 C   0  0  0  0  0  0  0  0  0  0  0  0
    8.6497  -13.4609   19.1080 C   0  0  2  0  0  0  0  0  0  0  0  0
    9.5608  -12.4740   19.7610 C   0  0  0  0  0  0  0  0  0  0  0  0
    9.4269  -14.2078   18.0510 C   0  0  2  0  0  0  0  0  0  0  0  0
    8.4687  -15.1352   17.4389 N   0  0  0  0  0  0  0  0  0  0  0  0
   10.5615  -14.9869   18.5861 C   0  0  0  0  0  0  0  0  0  0  0  0
   10.4616  -16.1601   19.0272 O   0  0  0  0  0  0  0  0  0  0  0  0
   11.8538  -14.3897   18.6113 N   0  0  0  0  0  0  0  0  0  0  0  0
   13.0199  -15.1092   19.0267 C   0  0  1  0  0  0  0  0  0  0  0  0
   14.2886  -14.7915   18.3518 C   0  0  0  0  0  0  0  0  0  0  0  0
   15.5310  -15.4742   18.6743 C   0  0  0  0  0  0  0  0  0  0  0  0
   16.7875  -15.0799   18.0828 C   0  0  0  0  0  0  0  0  0  0  0  0
   17.0067  -14.7269   16.8997 O   0  0  0  0  0  0  0  0  0  0  0  0
   13.1291  -15.1332   20.5186 C   0  0  0  0  0  0  0  0  0  0  0  0
   13.4915  -14.0914   21.0951 O   0  0  0  0  0  0  0  0  0  0  0  0
   17.9354  -15.0781   18.9033 O   0  0  0  0  0  0  0  0  0  0  0  0
   12.8414  -16.2691   21.2659 N   0  0  0  0  0  0  0  0  0  0  0  0
   12.7782  -16.3275   22.7207 C   0  0  1  0  0  0  0  0  0  0  0  0
   11.7562  -17.2628   23.2199 C   0  0  0  0  0  0  0  0  0  0  0  0
   10.3882  -16.7425   22.9911 C   0  0  0  0  0  0  0  0  0  0  0  0
    9.9272  -15.5176   22.5744 C   0  0  0  0  0  0  0  0  0  0  0  0
    8.5773  -15.5206   22.4253 N   0  0  0  0  0  0  0  0  0  0  0  0
    8.1826  -16.7568   22.7485 C   0  0  0  0  0  0  0  0  0  0  0  0
    9.2392  -17.5017   23.0877 N   0  0  0  0  0  0  0  0  0  0  0  0
   14.1626  -16.7794   23.1026 C   0  0  0  0  0  0  0  0  0  0  0  0
   14.5075  -16.8655   24.2737 O   0  0  0  0  0  0  0  0  0  0  0  0
   15.0621  -17.1027   22.1152 O   0  0  0  0  0  0  0  0  0  0  0  0
  2  1  1  0
  3  2  1  0
  3  4  1  6
  5  3  1  0
  5  6  1  1
  7  5  1  0
  7  8  2  0
  9  7  1  0
 10  9  1  0
 10 11  1  6
 12 11  1  0
 12 13  1  0
 13 17  1  0
 13 14  2  0
 15 10  1  0
 16 15  2  0
 18 15  1  0
 19 18  1  0
 19 26  1  0
 19 20  1  6
 21 25  1  0
 21 20  1  0
 22 21  2  0
 23 22  1  0
 23 24  1  0
 24 25  2  0
 26 28  1  0
 27 26  2  0
M  END
$$$$
