IEH.pdb
     RDKit          3D

 28 28  0  0  1  0  0  0  0  0999 V2000
    6.0193  -11.2777   26.6650 C   0  0  0  0  0  0  0  0  0  0  0  0
    5.6822  -12.5859   26.0221 C   0  0  0  0  0  0  0  0  0  0  0  0
    6.8960  -13.4156   25.7649 C   0  0  2  0  0  0  0  0  0  0  0  0
    7.9283  -12.7300   24.9313 C   0  0  0  0  0  0  0  0  0  0  0  0
    6.5088  -14.7072   25.0860 C   0  0  2  0  0  0  0  0  0  0  0  0
    5.5110  -15.3298   25.9632 N   0  0  0  0  0  0  0  0  0  0  0  0
    7.6340  -15.6472   24.9099 C   0  0  0  0  0  0  0  0  0  0  0  0
    8.0330  -16.4395   25.8010 O   0  0  0  0  0  0  0  0  0  0  0  0
    8.3197  -15.6719   23.6622 N   0  0  0  0  0  0  0  0  0  0  0  0
    9.3696  -16.6054   23.3859 C   0  0  1  0  0  0  0  0  0  0  0  0
    9.8598  -16.6834   22.0004 C   0  0  0  0  0  0  0  0  0  0  0  0
   10.9567  -17.5558   21.6137 C   0  0  0  0  0  0  0  0  0  0  0  0
   11.3567  -17.7036   20.2344 C   0  0  0  0  0  0  0  0  0  0  0  0
   12.3896  -17.2605   19.6784 O   0  0  0  0  0  0  0  0  0  0  0  0
   10.4645  -16.4926   24.3991 C   0  0  0  0  0  0  0  0  0  0  0  0
   11.1124  -15.4308   24.4441 O   0  0  0  0  0  0  0  0  0  0  0  0
   10.5083  -18.4296   19.3718 O   0  0  0  0  0  0  0  0  0  0  0  0
   10.7727  -17.5249   25.2772 N   0  0  0  0  0  0  0  0  0  0  0  0
   11.9605  -17.5892   26.1192 C   0  0  1  0  0  0  0  0  0  0  0  0
   11.6589  -17.4847   27.5568 C   0  0  0  0  0  0  0  0  0  0  0  0
   11.4246  -16.0786   27.9599 C   0  0  0  0  0  0  0  0  0  0  0  0
   11.3186  -14.9182   27.2328 C   0  0  0  0  0  0  0  0  0  0  0  0
   11.0147  -13.8606   28.0288 N   0  0  0  0  0  0  0  0  0  0  0  0
   10.9263  -14.3565   29.2676 C   0  0  0  0  0  0  0  0  0  0  0  0
   11.1652  -15.6715   29.2533 N   0  0  0  0  0  0  0  0  0  0  0  0
   12.5431  -18.9358   25.7817 C   0  0  0  0  0  0  0  0  0  0  0  0
   11.8373  -19.8630   25.4075 O   0  0  0  0  0  0  0  0  0  0  0  0
   13.8985  -19.1313   25.8964 O   0  0  0  0  0  0  0  0  0  0  0  0
  2  1  1  0
  3  2  1  0
  3  4  1  6
  5  3  1  0
  5  6  1  1
  7  5  1  0
  7  8  2  0
  9  7  1  0
 10  9  1  0
 10 11  1  6
 12 11  1  0
 12 13  1  0
 13 17  1  0
 13 14  2  0
 15 10  1  0
 16 15  2  0
 18 15  1  0
 19 18  1  0
 19 26  1  0
 19 20  1  1
 21 25  1  0
 21 20  1  0
 22 21  2  0
 23 22  1  0
 23 24  1  0
 24 25  2  0
 26 28  1  0
 27 26  2  0
M  END
$$$$
