IEH.pdb
     RDKit          3D

 28 28  0  0  1  0  0  0  0  0999 V2000
    6.2532  -11.3852   26.3764 C   0  0  0  0  0  0  0  0  0  0  0  0
    5.8361  -12.6719   25.7371 C   0  0  0  0  0  0  0  0  0  0  0  0
    7.0068  -13.4910   25.3056 C   0  0  2  0  0  0  0  0  0  0  0  0
    7.9054  -12.7939   24.3375 C   0  0  0  0  0  0  0  0  0  0  0  0
    6.5363  -14.7826   24.6816 C   0  0  2  0  0  0  0  0  0  0  0  0
    5.6054  -15.3722   25.6505 N   0  0  0  0  0  0  0  0  0  0  0  0
    7.6226  -15.7489   24.4232 C   0  0  0  0  0  0  0  0  0  0  0  0
    7.8535  -16.7545   25.1418 O   0  0  0  0  0  0  0  0  0  0  0  0
    8.4693  -15.5456   23.2965 N   0  0  0  0  0  0  0  0  0  0  0  0
    9.2383  -16.6056   22.7177 C   0  0  1  0  0  0  0  0  0  0  0  0
    9.4010  -16.6043   21.2550 C   0  0  0  0  0  0  0  0  0  0  0  0
   10.2885  -17.5317   20.5724 C   0  0  0  0  0  0  0  0  0  0  0  0
   10.4567  -17.5029   19.1388 C   0  0  0  0  0  0  0  0  0  0  0  0
   11.4481  -17.0989   18.4857 O   0  0  0  0  0  0  0  0  0  0  0  0
   10.5231  -16.7994   23.4592 C   0  0  0  0  0  0  0  0  0  0  0  0
   11.0132  -17.9431   23.4906 O   0  0  0  0  0  0  0  0  0  0  0  0
    9.3980  -17.9794   18.3370 O   0  0  0  0  0  0  0  0  0  0  0  0
   11.1735  -15.7538   24.1035 N   0  0  0  0  0  0  0  0  0  0  0  0
   11.3977  -15.6580   25.5403 C   0  0  1  0  0  0  0  0  0  0  0  0
   10.1556  -15.4782   26.3106 C   0  0  0  0  0  0  0  0  0  0  0  0
   10.4322  -15.3400   27.7593 C   0  0  0  0  0  0  0  0  0  0  0  0
   11.3756  -14.6208   28.4516 C   0  0  0  0  0  0  0  0  0  0  0  0
   11.1974  -14.7322   29.7934 N   0  0  0  0  0  0  0  0  0  0  0  0
   10.1326  -15.5260   29.9501 C   0  0  0  0  0  0  0  0  0  0  0  0
    9.6599  -15.9000   28.7572 N   0  0  0  0  0  0  0  0  0  0  0  0
   12.0568  -16.9710   25.8691 C   0  0  0  0  0  0  0  0  0  0  0  0
   12.8891  -17.0637   26.7616 O   0  0  0  0  0  0  0  0  0  0  0  0
   11.7184  -18.0931   25.1515 O   0  0  0  0  0  0  0  0  0  0  0  0
  2  1  1  0
  3  2  1  0
  3  4  1  6
  5  3  1  0
  5  6  1  1
  7  5  1  0
  7  8  2  0
  9  7  1  0
 10  9  1  0
 10 11  1  6
 12 11  1  0
 12 13  1  0
 13 17  1  0
 13 14  2  0
 15 10  1  0
 16 15  2  0
 18 15  1  0
 19 18  1  0
 19 26  1  0
 19 20  1  1
 21 25  1  0
 21 20  1  0
 22 21  2  0
 23 22  1  0
 23 24  1  0
 24 25  2  0
 26 28  1  0
 27 26  2  0
M  END
$$$$
