IEH.pdb
     RDKit          3D

 28 28  0  0  1  0  0  0  0  0999 V2000
    6.5942  -12.5027   19.5860 C   0  0  0  0  0  0  0  0  0  0  0  0
    7.4399  -13.1221   18.5187 C   0  0  0  0  0  0  0  0  0  0  0  0
    8.6643  -13.7689   19.0757 C   0  0  2  0  0  0  0  0  0  0  0  0
    9.5013  -12.8553   19.9096 C   0  0  0  0  0  0  0  0  0  0  0  0
    9.5175  -14.3171   17.9575 C   0  0  2  0  0  0  0  0  0  0  0  0
    8.6443  -15.2239   17.2037 N   0  0  0  0  0  0  0  0  0  0  0  0
   10.6948  -15.0762   18.4248 C   0  0  0  0  0  0  0  0  0  0  0  0
   10.6428  -16.2546   18.8602 O   0  0  0  0  0  0  0  0  0  0  0  0
   11.9741  -14.4520   18.3868 N   0  0  0  0  0  0  0  0  0  0  0  0
   13.1661  -15.1270   18.8030 C   0  0  1  0  0  0  0  0  0  0  0  0
   14.4317  -14.7179   18.1732 C   0  0  0  0  0  0  0  0  0  0  0  0
   15.7036  -15.3327   18.5170 C   0  0  0  0  0  0  0  0  0  0  0  0
   16.9476  -14.8660   17.9523 C   0  0  0  0  0  0  0  0  0  0  0  0
   17.2933  -14.8577   16.7470 O   0  0  0  0  0  0  0  0  0  0  0  0
   13.2419  -15.2053   20.2952 C   0  0  0  0  0  0  0  0  0  0  0  0
   13.2181  -14.1401   20.9384 O   0  0  0  0  0  0  0  0  0  0  0  0
   17.9219  -14.3476   18.8314 O   0  0  0  0  0  0  0  0  0  0  0  0
   13.3367  -16.4159   20.9712 N   0  0  0  0  0  0  0  0  0  0  0  0
   13.4076  -16.5698   22.4187 C   0  0  1  0  0  0  0  0  0  0  0  0
   12.5050  -17.6120   22.9362 C   0  0  0  0  0  0  0  0  0  0  0  0
   11.1022  -17.1386   22.9833 C   0  0  0  0  0  0  0  0  0  0  0  0
   10.5579  -15.8817   23.0857 C   0  0  0  0  0  0  0  0  0  0  0  0
    9.2027  -15.9204   23.0062 N   0  0  0  0  0  0  0  0  0  0  0  0
    8.8883  -17.2109   22.8507 C   0  0  0  0  0  0  0  0  0  0  0  0
    9.9987  -17.9546   22.8337 N   0  0  0  0  0  0  0  0  0  0  0  0
   14.8498  -16.9344   22.6509 C   0  0  0  0  0  0  0  0  0  0  0  0
   15.6357  -17.0606   21.7214 O   0  0  0  0  0  0  0  0  0  0  0  0
   15.2965  -17.1312   23.9356 O   0  0  0  0  0  0  0  0  0  0  0  0
  2  1  1  0
  3  2  1  0
  3  4  1  6
  5  3  1  0
  5  6  1  6
  7  5  1  0
  7  8  2  0
  9  7  1  0
 10  9  1  0
 10 11  1  1
 12 11  1  0
 12 13  1  0
 13 17  1  0
 13 14  2  0
 15 10  1  0
 16 15  2  0
 18 15  1  0
 19 18  1  0
 19 26  1  0
 19 20  1  6
 21 25  1  0
 21 20  1  0
 22 21  2  0
 23 22  1  0
 23 24  1  0
 24 25  2  0
 26 28  1  0
 27 26  2  0
M  END
$$$$
