IEH.pdb
     RDKit          3D

 28 28  0  0  1  0  0  0  0  0999 V2000
    7.5006  -10.9176   24.7674 C   0  0  0  0  0  0  0  0  0  0  0  0
    7.2326  -12.3424   24.3982 C   0  0  0  0  0  0  0  0  0  0  0  0
    6.5222  -13.0806   25.4835 C   0  0  2  0  0  0  0  0  0  0  0  0
    7.2357  -13.0559   26.7954 C   0  0  0  0  0  0  0  0  0  0  0  0
    6.3071  -14.5192   25.0795 C   0  0  2  0  0  0  0  0  0  0  0  0
    5.4443  -15.0952   26.1171 N   0  0  0  0  0  0  0  0  0  0  0  0
    7.5523  -15.3099   25.0092 C   0  0  0  0  0  0  0  0  0  0  0  0
    8.0384  -15.9421   25.9813 O   0  0  0  0  0  0  0  0  0  0  0  0
    8.2579  -15.3717   23.7739 N   0  0  0  0  0  0  0  0  0  0  0  0
    9.2964  -16.3279   23.5345 C   0  0  1  0  0  0  0  0  0  0  0  0
    9.7581  -16.4938   22.1469 C   0  0  0  0  0  0  0  0  0  0  0  0
   10.8170  -17.4229   21.7876 C   0  0  0  0  0  0  0  0  0  0  0  0
   11.1817  -17.6601   20.4110 C   0  0  0  0  0  0  0  0  0  0  0  0
   12.1805  -17.2238   19.7908 O   0  0  0  0  0  0  0  0  0  0  0  0
   10.4122  -16.1615   24.5171 C   0  0  0  0  0  0  0  0  0  0  0  0
   10.9251  -15.0335   24.6338 O   0  0  0  0  0  0  0  0  0  0  0  0
   10.3364  -18.4785   19.6324 O   0  0  0  0  0  0  0  0  0  0  0  0
   10.8837  -17.2155   25.2905 N   0  0  0  0  0  0  0  0  0  0  0  0
   11.9738  -17.1323   26.2543 C   0  0  1  0  0  0  0  0  0  0  0  0
   11.5488  -17.4112   27.6363 C   0  0  0  0  0  0  0  0  0  0  0  0
   10.6727  -16.3377   28.1603 C   0  0  0  0  0  0  0  0  0  0  0  0
   10.4145  -15.0630   27.7190 C   0  0  0  0  0  0  0  0  0  0  0  0
    9.4655  -14.4580   28.4791 N   0  0  0  0  0  0  0  0  0  0  0  0
    9.1202  -15.3575   29.4065 C   0  0  0  0  0  0  0  0  0  0  0  0
    9.8227  -16.4821   29.2385 N   0  0  0  0  0  0  0  0  0  0  0  0
   12.9423  -18.1745   25.7619 C   0  0  0  0  0  0  0  0  0  0  0  0
   12.6973  -18.8631   24.7803 O   0  0  0  0  0  0  0  0  0  0  0  0
   14.1296  -18.3594   26.4288 O   0  0  0  0  0  0  0  0  0  0  0  0
  2  1  1  0
  3  2  1  0
  3  4  1  1
  5  3  1  0
  5  6  1  1
  7  5  1  0
  7  8  2  0
  9  7  1  0
 10  9  1  0
 10 11  1  6
 12 11  1  0
 12 13  1  0
 13 17  1  0
 13 14  2  0
 15 10  1  0
 16 15  2  0
 18 15  1  0
 19 18  1  0
 19 26  1  0
 19 20  1  1
 21 25  1  0
 21 20  1  0
 22 21  2  0
 23 22  1  0
 23 24  1  0
 24 25  2  0
 26 28  1  0
 27 26  2  0
M  END
$$$$
