WAG.pdb
     RDKit          3D

 24 25  0  0  1  0  0  0  0  0999 V2000
    6.5371  -17.6105   23.7007 N   0  0  0  0  0  0  0  0  0  0  0  0
    6.8828  -16.2429   23.4137 C   0  0  1  0  0  0  0  0  0  0  0  0
    7.8391  -15.7970   24.5180 C   0  0  0  0  0  0  0  0  0  0  0  0
    7.0032  -15.0421   25.4876 C   0  0  0  0  0  0  0  0  0  0  0  0
    5.9660  -15.5244   26.2217 C   0  0  0  0  0  0  0  0  0  0  0  0
    5.4246  -14.5717   26.9993 N   0  0  0  0  0  0  0  0  0  0  0  0
    6.1122  -13.4388   26.7789 C   0  0  0  0  0  0  0  0  0  0  0  0
    6.0333  -12.1637   27.2644 C   0  0  0  0  0  0  0  0  0  0  0  0
    6.9013  -11.1871   26.8377 C   0  0  0  0  0  0  0  0  0  0  0  0
    7.8695  -11.4537   25.9178 C   0  0  0  0  0  0  0  0  0  0  0  0
    7.9828  -12.7263   25.4037 C   0  0  0  0  0  0  0  0  0  0  0  0
    7.1108  -13.6951   25.8363 C   0  0  0  0  0  0  0  0  0  0  0  0
    7.4406  -16.0713   22.0645 C   0  0  0  0  0  0  0  0  0  0  0  0
    7.7648  -17.0935   21.4091 O   0  0  0  0  0  0  0  0  0  0  0  0
    7.7104  -13.1257   19.8500 C   0  0  0  0  0  0  0  0  0  0  0  0
    7.9521  -14.5823   20.1443 C   0  0  2  0  0  0  0  0  0  0  0  0
    7.6040  -14.7934   21.5288 N   0  0  0  0  0  0  0  0  0  0  0  0
    9.3259  -15.0177   19.9264 C   0  0  0  0  0  0  0  0  0  0  0  0
    9.8263  -14.9078   18.7772 O   0  0  0  0  0  0  0  0  0  0  0  0
   10.1367  -15.5672   20.9640 N   0  0  0  0  0  0  0  0  0  0  0  0
   11.4226  -16.1398   20.6036 C   0  0  0  0  0  0  0  0  0  0  0  0
   12.2294  -16.4462   21.8006 C   0  0  0  0  0  0  0  0  0  0  0  0
   13.3689  -15.7074   22.1245 O   0  0  0  0  0  0  0  0  0  0  0  0
   11.8627  -17.3997   22.5316 O   0  0  0  0  0  0  0  0  0  0  0  0
  2  1  1  1
  2 13  1  0
  3  2  1  0
  4 12  1  0
  4  3  1  0
  5  4  2  0
  6  5  1  0
  6  7  1  0
  7 12  2  0
  8  7  1  0
  8  9  2  0
  9 10  1  0
 10 11  2  0
 12 11  1  0
 13 14  2  0
 16 15  1  1
 16 18  1  0
 17 13  1  0
 17 16  1  0
 18 19  2  0
 20 18  1  0
 20 21  1  0
 22 21  1  0
 22 23  1  0
 24 22  2  0
M  END
$$$$
