WAG.pdb
     RDKit          3D

 24 25  0  0  1  0  0  0  0  0999 V2000
    6.6897  -17.8891   24.5449 N   0  0  0  0  0  0  0  0  0  0  0  0
    7.2336  -16.6638   24.0205 C   0  0  1  0  0  0  0  0  0  0  0  0
    8.1316  -16.0862   25.1127 C   0  0  0  0  0  0  0  0  0  0  0  0
    7.2899  -15.1007   25.8402 C   0  0  0  0  0  0  0  0  0  0  0  0
    6.2446  -15.3704   26.6660 C   0  0  0  0  0  0  0  0  0  0  0  0
    5.6998  -14.2453   27.1587 N   0  0  0  0  0  0  0  0  0  0  0  0
    6.3934  -13.2119   26.6530 C   0  0  0  0  0  0  0  0  0  0  0  0
    6.3148  -11.8537   26.7830 C   0  0  0  0  0  0  0  0  0  0  0  0
    7.1899  -11.0258   26.1213 C   0  0  0  0  0  0  0  0  0  0  0  0
    8.1652  -11.5273   25.3138 C   0  0  0  0  0  0  0  0  0  0  0  0
    8.2784  -12.8907   25.1558 C   0  0  0  0  0  0  0  0  0  0  0  0
    7.3993  -13.7095   25.8211 C   0  0  0  0  0  0  0  0  0  0  0  0
    7.9328  -16.8563   22.7418 C   0  0  0  0  0  0  0  0  0  0  0  0
    8.3881  -17.9949   22.4664 O   0  0  0  0  0  0  0  0  0  0  0  0
    8.2183  -14.9105   19.6602 C   0  0  0  0  0  0  0  0  0  0  0  0
    8.7995  -15.9239   20.6098 C   0  0  2  0  0  0  0  0  0  0  0  0
    8.0840  -15.7892   21.8558 N   0  0  0  0  0  0  0  0  0  0  0  0
   10.2263  -15.7618   20.8596 C   0  0  0  0  0  0  0  0  0  0  0  0
   11.0131  -15.6882   19.8805 O   0  0  0  0  0  0  0  0  0  0  0  0
   10.7772  -15.6818   22.1734 N   0  0  0  0  0  0  0  0  0  0  0  0
   12.2193  -15.5688   22.3102 C   0  0  0  0  0  0  0  0  0  0  0  0
   12.8609  -16.8970   22.3548 C   0  0  0  0  0  0  0  0  0  0  0  0
   13.9587  -17.2074   21.5502 O   0  0  0  0  0  0  0  0  0  0  0  0
   12.3905  -17.7538   23.1439 O   0  0  0  0  0  0  0  0  0  0  0  0
  2  1  1  1
  2 13  1  0
  3  2  1  0
  4 12  1  0
  4  3  1  0
  5  4  2  0
  6  5  1  0
  6  7  1  0
  7 12  2  0
  8  7  1  0
  8  9  2  0
  9 10  1  0
 10 11  2  0
 12 11  1  0
 13 14  2  0
 16 15  1  6
 16 18  1  0
 17 13  1  0
 17 16  1  0
 18 19  2  0
 20 18  1  0
 20 21  1  0
 22 21  1  0
 22 23  1  0
 24 22  2  0
M  END
$$$$
