WAG.pdb
     RDKit          3D

 24 25  0  0  1  0  0  0  0  0999 V2000
    6.4928  -18.3077   24.8701 N   0  0  0  0  0  0  0  0  0  0  0  0
    6.8142  -16.9640   24.4659 C   0  0  1  0  0  0  0  0  0  0  0  0
    7.6680  -16.3681   25.5835 C   0  0  0  0  0  0  0  0  0  0  0  0
    6.9204  -15.1767   26.0634 C   0  0  0  0  0  0  0  0  0  0  0  0
    5.6293  -15.1376   26.4863 C   0  0  0  0  0  0  0  0  0  0  0  0
    5.2649  -13.8966   26.8501 N   0  0  0  0  0  0  0  0  0  0  0  0
    6.3297  -13.0983   26.6664 C   0  0  0  0  0  0  0  0  0  0  0  0
    6.5685  -11.7659   26.8544 C   0  0  0  0  0  0  0  0  0  0  0  0
    7.7962  -11.2179   26.5685 C   0  0  0  0  0  0  0  0  0  0  0  0
    8.8173  -11.9808   26.0887 C   0  0  0  0  0  0  0  0  0  0  0  0
    8.6177  -13.3281   25.8851 C   0  0  0  0  0  0  0  0  0  0  0  0
    7.3876  -13.8662   26.1737 C   0  0  0  0  0  0  0  0  0  0  0  0
    7.4676  -16.9095   23.1503 C   0  0  0  0  0  0  0  0  0  0  0  0
    8.1076  -17.9145   22.7503 O   0  0  0  0  0  0  0  0  0  0  0  0
    7.3641  -14.4776   20.3742 C   0  0  0  0  0  0  0  0  0  0  0  0
    7.9700  -15.6762   21.0545 C   0  0  2  0  0  0  0  0  0  0  0  0
    7.3742  -15.7592   22.3662 N   0  0  0  0  0  0  0  0  0  0  0  0
    9.4199  -15.6177   21.1923 C   0  0  0  0  0  0  0  0  0  0  0  0
   10.1314  -15.5936   20.1549 O   0  0  0  0  0  0  0  0  0  0  0  0
   10.0755  -15.5860   22.4593 N   0  0  0  0  0  0  0  0  0  0  0  0
   11.5088  -15.3489   22.4877 C   0  0  0  0  0  0  0  0  0  0  0  0
   12.2628  -16.6167   22.5312 C   0  0  0  0  0  0  0  0  0  0  0  0
   13.6343  -16.6444   22.7904 O   0  0  0  0  0  0  0  0  0  0  0  0
   11.6341  -17.6849   22.3271 O   0  0  0  0  0  0  0  0  0  0  0  0
  2  1  1  1
  2 13  1  0
  3  2  1  0
  4 12  1  0
  4  3  1  0
  5  4  2  0
  6  5  1  0
  6  7  1  0
  7 12  2  0
  8  7  1  0
  8  9  2  0
  9 10  1  0
 10 11  2  0
 12 11  1  0
 13 14  2  0
 16 15  1  1
 16 18  1  0
 17 13  1  0
 17 16  1  0
 18 19  2  0
 20 18  1  0
 20 21  1  0
 22 21  1  0
 22 23  1  0
 24 22  2  0
M  END
$$$$
