WAG.pdb
     RDKit          3D

 24 25  0  0  1  0  0  0  0  0999 V2000
    6.4388  -18.4911   24.8156 N   0  0  0  0  0  0  0  0  0  0  0  0
    6.8820  -17.1626   24.4824 C   0  0  1  0  0  0  0  0  0  0  0  0
    7.8903  -16.7603   25.5569 C   0  0  0  0  0  0  0  0  0  0  0  0
    7.3821  -15.4829   26.1214 C   0  0  0  0  0  0  0  0  0  0  0  0
    6.5083  -15.3349   27.1518 C   0  0  0  0  0  0  0  0  0  0  0  0
    6.2577  -14.0397   27.4064 N   0  0  0  0  0  0  0  0  0  0  0  0
    6.9758  -13.3153   26.5321 C   0  0  0  0  0  0  0  0  0  0  0  0
    7.1332  -11.9774   26.3020 C   0  0  0  0  0  0  0  0  0  0  0  0
    7.9623  -11.5217   25.3049 C   0  0  0  0  0  0  0  0  0  0  0  0
    8.6557  -12.3847   24.5116 C   0  0  0  0  0  0  0  0  0  0  0  0
    8.5249  -13.7410   24.7108 C   0  0  0  0  0  0  0  0  0  0  0  0
    7.6942  -14.1864   25.7096 C   0  0  0  0  0  0  0  0  0  0  0  0
    7.4255  -17.0723   23.1196 C   0  0  0  0  0  0  0  0  0  0  0  0
    8.0963  -18.0355   22.6705 O   0  0  0  0  0  0  0  0  0  0  0  0
    6.9466  -14.7099   20.3332 C   0  0  0  0  0  0  0  0  0  0  0  0
    7.7435  -15.7882   21.0182 C   0  0  2  0  0  0  0  0  0  0  0  0
    7.1963  -15.9343   22.3455 N   0  0  0  0  0  0  0  0  0  0  0  0
    9.1700  -15.5065   21.1190 C   0  0  0  0  0  0  0  0  0  0  0  0
    9.8294  -15.3093   20.0657 O   0  0  0  0  0  0  0  0  0  0  0  0
    9.8594  -15.4434   22.3667 N   0  0  0  0  0  0  0  0  0  0  0  0
   11.2523  -15.0297   22.3641 C   0  0  0  0  0  0  0  0  0  0  0  0
   12.1405  -16.1342   21.9528 C   0  0  0  0  0  0  0  0  0  0  0  0
   12.7040  -16.1843   20.6765 O   0  0  0  0  0  0  0  0  0  0  0  0
   12.3812  -17.0407   22.7885 O   0  0  0  0  0  0  0  0  0  0  0  0
  2  1  1  1
  2 13  1  0
  3  2  1  0
  4 12  1  0
  4  3  1  0
  5  4  2  0
  6  5  1  0
  6  7  1  0
  7 12  2  0
  8  7  1  0
  8  9  2  0
  9 10  1  0
 10 11  2  0
 12 11  1  0
 13 14  2  0
 16 15  1  1
 16 18  1  0
 17 13  1  0
 17 16  1  0
 18 19  2  0
 20 18  1  0
 20 21  1  0
 22 21  1  0
 22 23  1  0
 24 22  2  0
M  END
$$$$
