WAG.pdb
     RDKit          3D

 24 25  0  0  1  0  0  0  0  0999 V2000
    6.9528  -17.7068   24.5752 N   0  0  0  0  0  0  0  0  0  0  0  0
    7.8575  -16.8391   23.8674 C   0  0  1  0  0  0  0  0  0  0  0  0
    8.4724  -15.9098   24.9120 C   0  0  0  0  0  0  0  0  0  0  0  0
    7.3513  -15.0679   25.4051 C   0  0  0  0  0  0  0  0  0  0  0  0
    6.1278  -15.4947   25.8154 C   0  0  0  0  0  0  0  0  0  0  0  0
    5.3481  -14.4692   26.1971 N   0  0  0  0  0  0  0  0  0  0  0  0
    6.0639  -13.3435   26.0383 C   0  0  0  0  0  0  0  0  0  0  0  0
    5.8171  -12.0164   26.2521 C   0  0  0  0  0  0  0  0  0  0  0  0
    6.7739  -11.0654   25.9885 C   0  0  0  0  0  0  0  0  0  0  0  0
    7.9999  -11.4099   25.5058 C   0  0  0  0  0  0  0  0  0  0  0  0
    8.2887  -12.7368   25.2766 C   0  0  0  0  0  0  0  0  0  0  0  0
    7.3262  -13.6794   25.5431 C   0  0  0  0  0  0  0  0  0  0  0  0
    8.8630  -17.5804   23.0926 C   0  0  0  0  0  0  0  0  0  0  0  0
    8.5208  -18.6448   22.5187 O   0  0  0  0  0  0  0  0  0  0  0  0
    9.9112  -16.0631   20.8895 C   0  0  0  0  0  0  0  0  0  0  0  0
   10.8284  -16.9099   21.7312 C   0  0  2  0  0  0  0  0  0  0  0  0
   10.1713  -17.1041   23.0012 N   0  0  0  0  0  0  0  0  0  0  0  0
   12.1434  -16.3239   21.9595 C   0  0  0  0  0  0  0  0  0  0  0  0
   12.8301  -15.9604   20.9698 O   0  0  0  0  0  0  0  0  0  0  0  0
   12.6928  -16.1417   23.2637 N   0  0  0  0  0  0  0  0  0  0  0  0
   14.0109  -15.5410   23.3782 C   0  0  0  0  0  0  0  0  0  0  0  0
   15.0717  -16.5668   23.3724 C   0  0  0  0  0  0  0  0  0  0  0  0
   16.3896  -16.2595   23.7157 O   0  0  0  0  0  0  0  0  0  0  0  0
   14.7580  -17.7389   23.0470 O   0  0  0  0  0  0  0  0  0  0  0  0
  2  1  1  1
  2 13  1  0
  3  2  1  0
  4 12  1  0
  4  3  1  0
  5  4  2  0
  6  5  1  0
  6  7  1  0
  7 12  2  0
  8  7  1  0
  8  9  2  0
  9 10  1  0
 10 11  2  0
 12 11  1  0
 13 14  2  0
 16 15  1  6
 16 18  1  0
 17 13  1  0
 17 16  1  0
 18 19  2  0
 20 18  1  0
 20 21  1  0
 22 21  1  0
 22 23  1  0
 24 22  2  0
M  END
$$$$
