WAG.pdb
     RDKit          3D

 24 25  0  0  1  0  0  0  0  0999 V2000
    6.3138  -17.4109   23.4802 N   0  0  0  0  0  0  0  0  0  0  0  0
    6.7905  -16.0884   23.1703 C   0  0  1  0  0  0  0  0  0  0  0  0
    7.8447  -15.7505   24.2227 C   0  0  0  0  0  0  0  0  0  0  0  0
    7.1129  -15.0447   25.3068 C   0  0  0  0  0  0  0  0  0  0  0  0
    6.2396  -15.5910   26.1935 C   0  0  0  0  0  0  0  0  0  0  0  0
    5.7538  -14.6693   27.0418 N   0  0  0  0  0  0  0  0  0  0  0  0
    6.3125  -13.4922   26.7143 C   0  0  0  0  0  0  0  0  0  0  0  0
    6.2134  -12.2193   27.2017 C   0  0  0  0  0  0  0  0  0  0  0  0
    6.9299  -11.1879   26.6430 C   0  0  0  0  0  0  0  0  0  0  0  0
    7.7630  -11.3962   25.5859 C   0  0  0  0  0  0  0  0  0  0  0  0
    7.8913  -12.6645   25.0650 C   0  0  0  0  0  0  0  0  0  0  0  0
    7.1713  -13.6883   25.6301 C   0  0  0  0  0  0  0  0  0  0  0  0
    7.2939  -15.9762   21.7938 C   0  0  0  0  0  0  0  0  0  0  0  0
    7.6952  -17.0142   21.2097 O   0  0  0  0  0  0  0  0  0  0  0  0
    7.2918  -13.2446   19.3149 C   0  0  0  0  0  0  0  0  0  0  0  0
    7.7778  -14.5868   19.7935 C   0  0  2  0  0  0  0  0  0  0  0  0
    7.3224  -14.7363   21.1547 N   0  0  0  0  0  0  0  0  0  0  0  0
    9.2258  -14.7484   19.7547 C   0  0  0  0  0  0  0  0  0  0  0  0
    9.8235  -14.6359   18.6532 O   0  0  0  0  0  0  0  0  0  0  0  0
   10.0038  -15.0305   20.9171 N   0  0  0  0  0  0  0  0  0  0  0  0
   11.4518  -14.9946   20.8025 C   0  0  0  0  0  0  0  0  0  0  0  0
   11.9968  -16.3213   20.4552 C   0  0  0  0  0  0  0  0  0  0  0  0
   13.3718  -16.5538   20.3892 O   0  0  0  0  0  0  0  0  0  0  0  0
   11.1845  -17.2495   20.2171 O   0  0  0  0  0  0  0  0  0  0  0  0
  2  1  1  1
  2 13  1  0
  3  2  1  0
  4 12  1  0
  4  3  1  0
  5  4  2  0
  6  5  1  0
  6  7  1  0
  7 12  2  0
  8  7  1  0
  8  9  2  0
  9 10  1  0
 10 11  2  0
 12 11  1  0
 13 14  2  0
 16 15  1  1
 16 18  1  0
 17 13  1  0
 17 16  1  0
 18 19  2  0
 20 18  1  0
 20 21  1  0
 22 21  1  0
 22 23  1  0
 24 22  2  0
M  END
$$$$
