WAG.pdb
     RDKit          3D

 24 25  0  0  1  0  0  0  0  0999 V2000
    6.3006  -18.3375   24.4231 N   0  0  0  0  0  0  0  0  0  0  0  0
    6.6654  -16.9788   24.1185 C   0  0  1  0  0  0  0  0  0  0  0  0
    7.6490  -16.5411   25.2020 C   0  0  0  0  0  0  0  0  0  0  0  0
    6.9940  -15.4030   25.8980 C   0  0  0  0  0  0  0  0  0  0  0  0
    5.7709  -15.4021   26.4908 C   0  0  0  0  0  0  0  0  0  0  0  0
    5.4812  -14.2044   27.0266 N   0  0  0  0  0  0  0  0  0  0  0  0
    6.5276  -13.3967   26.7864 C   0  0  0  0  0  0  0  0  0  0  0  0
    6.8143  -12.0927   27.0780 C   0  0  0  0  0  0  0  0  0  0  0  0
    8.0038  -11.5239   26.6896 C   0  0  0  0  0  0  0  0  0  0  0  0
    8.9380  -12.2371   26.0016 C   0  0  0  0  0  0  0  0  0  0  0  0
    8.6877  -13.5546   25.6879 C   0  0  0  0  0  0  0  0  0  0  0  0
    7.4964  -14.1138   26.0804 C   0  0  0  0  0  0  0  0  0  0  0  0
    7.2020  -16.8281   22.7583 C   0  0  0  0  0  0  0  0  0  0  0  0
    7.5830  -17.8544   22.1409 O   0  0  0  0  0  0  0  0  0  0  0  0
    7.4803  -13.9507   20.4487 C   0  0  0  0  0  0  0  0  0  0  0  0
    7.7837  -15.3751   20.8305 C   0  0  2  0  0  0  0  0  0  0  0  0
    7.2837  -15.5652   22.1708 N   0  0  0  0  0  0  0  0  0  0  0  0
    9.2006  -15.7155   20.7975 C   0  0  0  0  0  0  0  0  0  0  0  0
    9.8400  -15.5646   19.7245 O   0  0  0  0  0  0  0  0  0  0  0  0
    9.9023  -16.2159   21.9347 N   0  0  0  0  0  0  0  0  0  0  0  0
   11.2285  -16.7748   21.7350 C   0  0  0  0  0  0  0  0  0  0  0  0
   12.2693  -15.9172   22.3341 C   0  0  0  0  0  0  0  0  0  0  0  0
   13.6284  -16.1873   22.1635 O   0  0  0  0  0  0  0  0  0  0  0  0
   11.8998  -14.9250   23.0102 O   0  0  0  0  0  0  0  0  0  0  0  0
  2  1  1  1
  2 13  1  0
  3  2  1  0
  4 12  1  0
  4  3  1  0
  5  4  2  0
  6  5  1  0
  6  7  1  0
  7 12  2  0
  8  7  1  0
  8  9  2  0
  9 10  1  0
 10 11  2  0
 12 11  1  0
 13 14  2  0
 16 15  1  1
 16 18  1  0
 17 13  1  0
 17 16  1  0
 18 19  2  0
 20 18  1  0
 20 21  1  0
 22 21  1  0
 22 23  1  0
 24 22  2  0
M  END
$$$$
