WAG.pdb
     RDKit          3D

 24 25  0  0  1  0  0  0  0  0999 V2000
    6.3459  -18.0585   24.3033 N   0  0  0  0  0  0  0  0  0  0  0  0
    6.7232  -16.7306   23.8954 C   0  0  1  0  0  0  0  0  0  0  0  0
    7.7043  -16.2168   24.9473 C   0  0  0  0  0  0  0  0  0  0  0  0
    6.9532  -15.2005   25.7295 C   0  0  0  0  0  0  0  0  0  0  0  0
    5.7818  -15.3827   26.3944 C   0  0  0  0  0  0  0  0  0  0  0  0
    5.3739  -14.2533   26.9972 N   0  0  0  0  0  0  0  0  0  0  0  0
    6.2878  -13.3057   26.7291 C   0  0  0  0  0  0  0  0  0  0  0  0
    6.4202  -11.9859   27.0582 C   0  0  0  0  0  0  0  0  0  0  0  0
    7.4972  -11.2509   26.6233 C   0  0  0  0  0  0  0  0  0  0  0  0
    8.4695  -11.8096   25.8505 C   0  0  0  0  0  0  0  0  0  0  0  0
    8.3735  -13.1370   25.4966 C   0  0  0  0  0  0  0  0  0  0  0  0
    7.2937  -13.8629   25.9360 C   0  0  0  0  0  0  0  0  0  0  0  0
    7.2685  -16.6909   22.5309 C   0  0  0  0  0  0  0  0  0  0  0  0
    7.5888  -17.7719   21.9755 O   0  0  0  0  0  0  0  0  0  0  0  0
    7.6997  -13.9631   20.0658 C   0  0  0  0  0  0  0  0  0  0  0  0
    7.8757  -15.3930   20.5029 C   0  0  2  0  0  0  0  0  0  0  0  0
    7.4245  -15.4713   21.8714 N   0  0  0  0  0  0  0  0  0  0  0  0
    9.2477  -15.8788   20.4248 C   0  0  0  0  0  0  0  0  0  0  0  0
    9.8104  -15.9409   19.3012 O   0  0  0  0  0  0  0  0  0  0  0  0
    9.9887  -16.2907   21.5726 N   0  0  0  0  0  0  0  0  0  0  0  0
   11.1914  -17.0803   21.3694 C   0  0  0  0  0  0  0  0  0  0  0  0
   12.4072  -16.2601   21.5333 C   0  0  0  0  0  0  0  0  0  0  0  0
   13.6831  -16.8254   21.4911 O   0  0  0  0  0  0  0  0  0  0  0  0
   12.2663  -15.0250   21.7140 O   0  0  0  0  0  0  0  0  0  0  0  0
  2  1  1  1
  2 13  1  0
  3  2  1  0
  4 12  1  0
  4  3  1  0
  5  4  2  0
  6  5  1  0
  6  7  1  0
  7 12  2  0
  8  7  1  0
  8  9  2  0
  9 10  1  0
 10 11  2  0
 12 11  1  0
 13 14  2  0
 16 15  1  1
 16 18  1  0
 17 13  1  0
 17 16  1  0
 18 19  2  0
 20 18  1  0
 20 21  1  0
 22 21  1  0
 22 23  1  0
 24 22  2  0
M  END
$$$$
