WAG.pdb
     RDKit          3D

 24 25  0  0  1  0  0  0  0  0999 V2000
    6.9539  -17.6567   23.8326 N   0  0  0  0  0  0  0  0  0  0  0  0
    7.0727  -16.2783   23.4352 C   0  0  1  0  0  0  0  0  0  0  0  0
    8.1067  -15.6470   24.3655 C   0  0  0  0  0  0  0  0  0  0  0  0
    7.3230  -14.8950   25.3799 C   0  0  0  0  0  0  0  0  0  0  0  0
    6.3189  -15.3769   26.1590 C   0  0  0  0  0  0  0  0  0  0  0  0
    5.8215  -14.4273   26.9690 N   0  0  0  0  0  0  0  0  0  0  0  0
    6.5051  -13.2969   26.7249 C   0  0  0  0  0  0  0  0  0  0  0  0
    6.4576  -12.0253   27.2235 C   0  0  0  0  0  0  0  0  0  0  0  0
    7.3105  -11.0506   26.7634 C   0  0  0  0  0  0  0  0  0  0  0  0
    8.2319  -11.3155   25.7962 C   0  0  0  0  0  0  0  0  0  0  0  0
    8.3123  -12.5845   25.2673 C   0  0  0  0  0  0  0  0  0  0  0  0
    7.4558  -13.5515   25.7336 C   0  0  0  0  0  0  0  0  0  0  0  0
    7.4090  -16.1263   22.0123 C   0  0  0  0  0  0  0  0  0  0  0  0
    7.6265  -17.1579   21.3283 O   0  0  0  0  0  0  0  0  0  0  0  0
    7.3127  -13.3105   19.6528 C   0  0  0  0  0  0  0  0  0  0  0  0
    7.8441  -14.6602   20.0560 C   0  0  2  0  0  0  0  0  0  0  0  0
    7.4833  -14.8562   21.4395 N   0  0  0  0  0  0  0  0  0  0  0  0
    9.2879  -14.8023   19.9151 C   0  0  0  0  0  0  0  0  0  0  0  0
    9.8089  -14.6471   18.7804 O   0  0  0  0  0  0  0  0  0  0  0  0
   10.1452  -15.1116   21.0130 N   0  0  0  0  0  0  0  0  0  0  0  0
   11.5700  -15.2418   20.7592 C   0  0  0  0  0  0  0  0  0  0  0  0
   11.9380  -16.6401   20.4642 C   0  0  0  0  0  0  0  0  0  0  0  0
   13.2692  -17.0283   20.3018 O   0  0  0  0  0  0  0  0  0  0  0  0
   11.0139  -17.4848   20.3611 O   0  0  0  0  0  0  0  0  0  0  0  0
  2  1  1  1
  2 13  1  0
  3  2  1  0
  4 12  1  0
  4  3  1  0
  5  4  2  0
  6  5  1  0
  6  7  1  0
  7 12  2  0
  8  7  1  0
  8  9  2  0
  9 10  1  0
 10 11  2  0
 12 11  1  0
 13 14  2  0
 16 15  1  1
 16 18  1  0
 17 13  1  0
 17 16  1  0
 18 19  2  0
 20 18  1  0
 20 21  1  0
 22 21  1  0
 22 23  1  0
 24 22  2  0
M  END
$$$$
