WAG.pdb
     RDKit          3D

 24 25  0  0  1  0  0  0  0  0999 V2000
    7.2761  -17.4859   22.9491 N   0  0  0  0  0  0  0  0  0  0  0  0
    7.4980  -16.0667   22.8556 C   0  0  1  0  0  0  0  0  0  0  0  0
    8.3769  -15.6865   24.0455 C   0  0  0  0  0  0  0  0  0  0  0  0
    7.4566  -15.0794   25.0422 C   0  0  0  0  0  0  0  0  0  0  0  0
    6.4343  -15.6955   25.6924 C   0  0  0  0  0  0  0  0  0  0  0  0
    5.7993  -14.8545   26.5259 N   0  0  0  0  0  0  0  0  0  0  0  0
    6.4085  -13.6611   26.4285 C   0  0  0  0  0  0  0  0  0  0  0  0
    6.2202  -12.4417   27.0162 C   0  0  0  0  0  0  0  0  0  0  0  0
    7.0274  -11.3730   26.7071 C   0  0  0  0  0  0  0  0  0  0  0  0
    8.0420  -11.4897   25.8062 C   0  0  0  0  0  0  0  0  0  0  0  0
    8.2652  -12.7017   25.1916 C   0  0  0  0  0  0  0  0  0  0  0  0
    7.4534  -13.7635   25.5070 C   0  0  0  0  0  0  0  0  0  0  0  0
    8.0739  -15.6677   21.5633 C   0  0  0  0  0  0  0  0  0  0  0  0
    8.7751  -16.4974   20.9312 O   0  0  0  0  0  0  0  0  0  0  0  0
    7.6831  -12.6601   19.4439 C   0  0  0  0  0  0  0  0  0  0  0  0
    8.3409  -13.9756   19.7657 C   0  0  2  0  0  0  0  0  0  0  0  0
    7.8415  -14.3893   21.0549 N   0  0  0  0  0  0  0  0  0  0  0  0
    9.7966  -13.9218   19.8133 C   0  0  0  0  0  0  0  0  0  0  0  0
   10.3600  -13.5666   20.8807 O   0  0  0  0  0  0  0  0  0  0  0  0
   10.6196  -14.2561   18.6966 N   0  0  0  0  0  0  0  0  0  0  0  0
   12.0232  -13.8826   18.7388 C   0  0  0  0  0  0  0  0  0  0  0  0
   12.8561  -14.9804   19.2669 C   0  0  0  0  0  0  0  0  0  0  0  0
   14.2402  -14.8519   19.3974 O   0  0  0  0  0  0  0  0  0  0  0  0
   12.2839  -16.0476   19.6008 O   0  0  0  0  0  0  0  0  0  0  0  0
  2  1  1  6
  2 13  1  0
  3  2  1  0
  4 12  1  0
  4  3  1  0
  5  4  2  0
  6  5  1  0
  6  7  1  0
  7 12  2  0
  8  7  1  0
  8  9  2  0
  9 10  1  0
 10 11  2  0
 12 11  1  0
 13 14  2  0
 16 15  1  1
 16 18  1  0
 17 13  1  0
 17 16  1  0
 18 19  2  0
 20 18  1  0
 20 21  1  0
 22 21  1  0
 22 23  1  0
 24 22  2  0
M  END
$$$$
