WAG.pdb
     RDKit          3D

 24 25  0  0  1  0  0  0  0  0999 V2000
    6.3870  -17.6719   23.8965 N   0  0  0  0  0  0  0  0  0  0  0  0
    6.8747  -16.3663   23.5362 C   0  0  1  0  0  0  0  0  0  0  0  0
    7.9517  -16.0089   24.5586 C   0  0  0  0  0  0  0  0  0  0  0  0
    7.2786  -15.1392   25.5583 C   0  0  0  0  0  0  0  0  0  0  0  0
    6.4666  -15.5372   26.5730 C   0  0  0  0  0  0  0  0  0  0  0  0
    6.0223  -14.4918   27.2907 N   0  0  0  0  0  0  0  0  0  0  0  0
    6.5467  -13.3818   26.7450 C   0  0  0  0  0  0  0  0  0  0  0  0
    6.4626  -12.0473   27.0270 C   0  0  0  0  0  0  0  0  0  0  0  0
    7.1323  -11.1180   26.2672 C   0  0  0  0  0  0  0  0  0  0  0  0
    7.9025  -11.4922   25.2082 C   0  0  0  0  0  0  0  0  0  0  0  0
    8.0137  -12.8276   24.8906 C   0  0  0  0  0  0  0  0  0  0  0  0
    7.3408  -13.7484   25.6556 C   0  0  0  0  0  0  0  0  0  0  0  0
    7.3547  -16.3045   22.1482 C   0  0  0  0  0  0  0  0  0  0  0  0
    7.6174  -17.3783   21.5503 O   0  0  0  0  0  0  0  0  0  0  0  0
    7.4370  -13.5505   19.6998 C   0  0  0  0  0  0  0  0  0  0  0  0
    7.7586  -14.9671   20.0953 C   0  0  2  0  0  0  0  0  0  0  0  0
    7.5133  -15.0721   21.5135 N   0  0  0  0  0  0  0  0  0  0  0  0
    9.1317  -15.3697   19.8180 C   0  0  0  0  0  0  0  0  0  0  0  0
    9.5494  -15.3385   18.6315 O   0  0  0  0  0  0  0  0  0  0  0  0
   10.0320  -15.8010   20.8376 N   0  0  0  0  0  0  0  0  0  0  0  0
   11.3355  -16.3037   20.4383 C   0  0  0  0  0  0  0  0  0  0  0  0
   12.1772  -16.6076   21.6117 C   0  0  0  0  0  0  0  0  0  0  0  0
   12.2168  -17.8851   22.1734 O   0  0  0  0  0  0  0  0  0  0  0  0
   12.8666  -15.6782   22.1004 O   0  0  0  0  0  0  0  0  0  0  0  0
  2  1  1  1
  2 13  1  0
  3  2  1  0
  4 12  1  0
  4  3  1  0
  5  4  2  0
  6  5  1  0
  6  7  1  0
  7 12  2  0
  8  7  1  0
  8  9  2  0
  9 10  1  0
 10 11  2  0
 12 11  1  0
 13 14  2  0
 16 15  1  1
 16 18  1  0
 17 13  1  0
 17 16  1  0
 18 19  2  0
 20 18  1  0
 20 21  1  0
 22 21  1  0
 22 23  1  0
 24 22  2  0
M  END
$$$$
