WAG.pdb
     RDKit          3D

 24 25  0  0  1  0  0  0  0  0999 V2000
    6.3752  -18.1877   24.8226 N   0  0  0  0  0  0  0  0  0  0  0  0
    6.8191  -16.8629   24.4764 C   0  0  1  0  0  0  0  0  0  0  0  0
    7.5417  -16.3134   25.7048 C   0  0  0  0  0  0  0  0  0  0  0  0
    6.7423  -15.1406   26.1453 C   0  0  0  0  0  0  0  0  0  0  0  0
    5.4293  -15.1317   26.4967 C   0  0  0  0  0  0  0  0  0  0  0  0
    5.0176  -13.9003   26.8425 N   0  0  0  0  0  0  0  0  0  0  0  0
    6.0728  -13.0779   26.7193 C   0  0  0  0  0  0  0  0  0  0  0  0
    6.2709  -11.7411   26.9230 C   0  0  0  0  0  0  0  0  0  0  0  0
    7.4998  -11.1650   26.7063 C   0  0  0  0  0  0  0  0  0  0  0  0
    8.5626  -11.9032   26.2817 C   0  0  0  0  0  0  0  0  0  0  0  0
    8.4048  -13.2540   26.0646 C   0  0  0  0  0  0  0  0  0  0  0  0
    7.1731  -13.8204   26.2840 C   0  0  0  0  0  0  0  0  0  0  0  0
    7.6486  -16.8428   23.2630 C   0  0  0  0  0  0  0  0  0  0  0  0
    8.4077  -17.8177   23.0327 O   0  0  0  0  0  0  0  0  0  0  0  0
    8.0563  -14.3948   20.5081 C   0  0  0  0  0  0  0  0  0  0  0  0
    8.4159  -15.6781   21.2086 C   0  0  2  0  0  0  0  0  0  0  0  0
    7.5885  -15.7574   22.3883 N   0  0  0  0  0  0  0  0  0  0  0  0
    9.8163  -15.7743   21.6012 C   0  0  0  0  0  0  0  0  0  0  0  0
   10.2504  -15.0155   22.5061 O   0  0  0  0  0  0  0  0  0  0  0  0
   10.7256  -16.6967   21.0023 N   0  0  0  0  0  0  0  0  0  0  0  0
   12.0441  -16.8470   21.5941 C   0  0  0  0  0  0  0  0  0  0  0  0
   13.0931  -16.2886   20.7191 C   0  0  0  0  0  0  0  0  0  0  0  0
   12.7875  -15.7168   19.4827 O   0  0  0  0  0  0  0  0  0  0  0  0
   14.2833  -16.3401   21.1173 O   0  0  0  0  0  0  0  0  0  0  0  0
  2  1  1  1
  2 13  1  0
  3  2  1  0
  4 12  1  0
  4  3  1  0
  5  4  2  0
  6  5  1  0
  6  7  1  0
  7 12  2  0
  8  7  1  0
  8  9  2  0
  9 10  1  0
 10 11  2  0
 12 11  1  0
 13 14  2  0
 16 15  1  1
 16 18  1  0
 17 13  1  0
 17 16  1  0
 18 19  2  0
 20 18  1  0
 20 21  1  0
 22 21  1  0
 22 23  1  0
 24 22  2  0
M  END
$$$$
