WAG.pdb
     RDKit          3D

 24 25  0  0  1  0  0  0  0  0999 V2000
    6.6166  -17.8048   24.0340 N   0  0  0  0  0  0  0  0  0  0  0  0
    6.9295  -16.4427   23.6892 C   0  0  1  0  0  0  0  0  0  0  0  0
    7.9034  -15.9395   24.7528 C   0  0  0  0  0  0  0  0  0  0  0  0
    7.1218  -14.9956   25.5936 C   0  0  0  0  0  0  0  0  0  0  0  0
    6.0333  -15.2870   26.3536 C   0  0  0  0  0  0  0  0  0  0  0  0
    5.5659  -14.1981   26.9871 N   0  0  0  0  0  0  0  0  0  0  0  0
    6.3555  -13.1671   26.6431 C   0  0  0  0  0  0  0  0  0  0  0  0
    6.3824  -11.8376   26.9587 C   0  0  0  0  0  0  0  0  0  0  0  0
    7.3412  -11.0034   26.4353 C   0  0  0  0  0  0  0  0  0  0  0  0
    8.2973  -11.4699   25.5849 C   0  0  0  0  0  0  0  0  0  0  0  0
    8.3053  -12.8035   25.2415 C   0  0  0  0  0  0  0  0  0  0  0  0
    7.3432  -13.6290   25.7698 C   0  0  0  0  0  0  0  0  0  0  0  0
    7.4514  -16.3107   22.3214 C   0  0  0  0  0  0  0  0  0  0  0  0
    7.8699  -17.3385   21.7314 O   0  0  0  0  0  0  0  0  0  0  0  0
    7.3368  -13.5889   19.8483 C   0  0  0  0  0  0  0  0  0  0  0  0
    7.8962  -14.9030   20.3248 C   0  0  2  0  0  0  0  0  0  0  0  0
    7.4783  -15.0633   21.6967 N   0  0  0  0  0  0  0  0  0  0  0  0
    9.3491  -14.9963   20.2549 C   0  0  0  0  0  0  0  0  0  0  0  0
    9.9183  -14.8394   19.1439 O   0  0  0  0  0  0  0  0  0  0  0  0
   10.1628  -15.2594   21.3971 N   0  0  0  0  0  0  0  0  0  0  0  0
   11.6008  -15.3545   21.2115 C   0  0  0  0  0  0  0  0  0  0  0  0
   12.0380  -16.7603   21.1090 C   0  0  0  0  0  0  0  0  0  0  0  0
   13.3751  -17.1254   21.2762 O   0  0  0  0  0  0  0  0  0  0  0  0
   11.1680  -17.6328   20.8645 O   0  0  0  0  0  0  0  0  0  0  0  0
  2  1  1  1
  2 13  1  0
  3  2  1  0
  4 12  1  0
  4  3  1  0
  5  4  2  0
  6  5  1  0
  6  7  1  0
  7 12  2  0
  8  7  1  0
  8  9  2  0
  9 10  1  0
 10 11  2  0
 12 11  1  0
 13 14  2  0
 16 15  1  1
 16 18  1  0
 17 13  1  0
 17 16  1  0
 18 19  2  0
 20 18  1  0
 20 21  1  0
 22 21  1  0
 22 23  1  0
 24 22  2  0
M  END
$$$$
