WAG.pdb
     RDKit          3D

 24 25  0  0  1  0  0  0  0  0999 V2000
    8.7585  -15.8282   24.4676 N   0  0  0  0  0  0  0  0  0  0  0  0
    7.5528  -16.4564   23.9946 C   0  0  1  0  0  0  0  0  0  0  0  0
    6.4076  -15.8713   24.8186 C   0  0  0  0  0  0  0  0  0  0  0  0
    7.0471  -15.2687   26.0172 C   0  0  0  0  0  0  0  0  0  0  0  0
    7.7496  -15.9184   26.9825 C   0  0  0  0  0  0  0  0  0  0  0  0
    8.1899  -15.0721   27.9288 N   0  0  0  0  0  0  0  0  0  0  0  0
    7.7739  -13.8411   27.5875 C   0  0  0  0  0  0  0  0  0  0  0  0
    7.9076  -12.5995   28.1428 C   0  0  0  0  0  0  0  0  0  0  0  0
    7.3548  -11.4920   27.5455 C   0  0  0  0  0  0  0  0  0  0  0  0
    6.6552  -11.5909   26.3811 C   0  0  0  0  0  0  0  0  0  0  0  0
    6.4975  -12.8242   25.7890 C   0  0  0  0  0  0  0  0  0  0  0  0
    7.0536  -13.9248   26.3935 C   0  0  0  0  0  0  0  0  0  0  0  0
    7.3613  -16.2953   22.5461 C   0  0  0  0  0  0  0  0  0  0  0  0
    6.3307  -16.7796   22.0143 O   0  0  0  0  0  0  0  0  0  0  0  0
    7.5488  -13.9678   20.2618 C   0  0  0  0  0  0  0  0  0  0  0  0
    8.1200  -15.3561   20.3762 C   0  0  2  0  0  0  0  0  0  0  0  0
    8.3113  -15.6158   21.7828 N   0  0  0  0  0  0  0  0  0  0  0  0
    9.3872  -15.5419   19.6804 C   0  0  0  0  0  0  0  0  0  0  0  0
    9.4661  -15.2345   18.4629 O   0  0  0  0  0  0  0  0  0  0  0  0
   10.5522  -16.0602   20.3208 N   0  0  0  0  0  0  0  0  0  0  0  0
   10.7328  -17.5014   20.3610 C   0  0  0  0  0  0  0  0  0  0  0  0
   11.2567  -18.0136   19.0799 C   0  0  0  0  0  0  0  0  0  0  0  0
   12.6249  -18.1919   18.8671 O   0  0  0  0  0  0  0  0  0  0  0  0
   10.4325  -18.2893   18.1729 O   0  0  0  0  0  0  0  0  0  0  0  0
  2  1  1  1
  2 13  1  0
  3  2  1  0
  4 12  1  0
  4  3  1  0
  5  4  2  0
  6  5  1  0
  6  7  1  0
  7 12  2  0
  8  7  1  0
  8  9  2  0
  9 10  1  0
 10 11  2  0
 12 11  1  0
 13 14  2  0
 16 15  1  1
 16 18  1  0
 17 13  1  0
 17 16  1  0
 18 19  2  0
 20 18  1  0
 20 21  1  0
 22 21  1  0
 22 23  1  0
 24 22  2  0
M  END
$$$$
