WAG.pdb
     RDKit          3D

 24 25  0  0  1  0  0  0  0  0999 V2000
    6.5574  -18.3322   24.7500 N   0  0  0  0  0  0  0  0  0  0  0  0
    6.8517  -16.9828   24.3444 C   0  0  1  0  0  0  0  0  0  0  0  0
    7.6737  -16.3612   25.4718 C   0  0  0  0  0  0  0  0  0  0  0  0
    6.8542  -15.2333   25.9867 C   0  0  0  0  0  0  0  0  0  0  0  0
    5.5194  -15.2431   26.2429 C   0  0  0  0  0  0  0  0  0  0  0  0
    5.0940  -14.0527   26.6981 N   0  0  0  0  0  0  0  0  0  0  0  0
    6.1620  -13.2390   26.7454 C   0  0  0  0  0  0  0  0  0  0  0  0
    6.3558  -11.9377   27.1151 C   0  0  0  0  0  0  0  0  0  0  0  0
    7.6019  -11.3608   27.0536 C   0  0  0  0  0  0  0  0  0  0  0  0
    8.6864  -12.0631   26.6232 C   0  0  0  0  0  0  0  0  0  0  0  0
    8.5337  -13.3775   26.2415 C   0  0  0  0  0  0  0  0  0  0  0  0
    7.2847  -13.9449   26.3065 C   0  0  0  0  0  0  0  0  0  0  0  0
    7.5233  -16.9180   23.0384 C   0  0  0  0  0  0  0  0  0  0  0  0
    8.1115  -17.9423   22.6089 O   0  0  0  0  0  0  0  0  0  0  0  0
    7.4573  -14.4229   20.3255 C   0  0  0  0  0  0  0  0  0  0  0  0
    8.0248  -15.6689   20.9517 C   0  0  2  0  0  0  0  0  0  0  0  0
    7.5036  -15.7370   22.2957 N   0  0  0  0  0  0  0  0  0  0  0  0
    9.4810  -15.7040   21.0028 C   0  0  0  0  0  0  0  0  0  0  0  0
   10.1280  -15.7855   19.9268 O   0  0  0  0  0  0  0  0  0  0  0  0
   10.2134  -15.6497   22.2263 N   0  0  0  0  0  0  0  0  0  0  0  0
   11.2000  -16.6845   22.4852 C   0  0  0  0  0  0  0  0  0  0  0  0
   12.4259  -16.4691   21.6925 C   0  0  0  0  0  0  0  0  0  0  0  0
   13.4305  -15.5986   22.1193 O   0  0  0  0  0  0  0  0  0  0  0  0
   12.5468  -17.0952   20.6102 O   0  0  0  0  0  0  0  0  0  0  0  0
  2  1  1  1
  2 13  1  0
  3  2  1  0
  4 12  1  0
  4  3  1  0
  5  4  2  0
  6  5  1  0
  6  7  1  0
  7 12  2  0
  8  7  1  0
  8  9  2  0
  9 10  1  0
 10 11  2  0
 12 11  1  0
 13 14  2  0
 16 15  1  1
 16 18  1  0
 17 13  1  0
 17 16  1  0
 18 19  2  0
 20 18  1  0
 20 21  1  0
 22 21  1  0
 22 23  1  0
 24 22  2  0
M  END
$$$$
