ATM.pdb
     RDKit          3D

 21 20  0  0  1  0  0  0  0  0999 V2000
   10.8323  -19.3119   20.5996 C   0  0  0  0  0  0  0  0  0  0  0  0
   10.3488  -18.2551   19.6292 C   0  0  2  0  0  0  0  0  0  0  0  0
   11.3090  -18.1490   18.5614 N   0  0  0  0  0  0  0  0  0  0  0  0
   10.1425  -16.9544   20.3219 C   0  0  0  0  0  0  0  0  0  0  0  0
   11.1225  -16.2353   20.6502 O   0  0  0  0  0  0  0  0  0  0  0  0
    7.7615  -14.0406   19.3280 C   0  0  0  0  0  0  0  0  0  0  0  0
    7.4864  -14.4414   20.7625 C   0  0  1  0  0  0  0  0  0  0  0  0
    6.3908  -15.3176   20.7372 O   0  0  0  0  0  0  0  0  0  0  0  0
    8.6780  -15.1817   21.3450 C   0  0  2  0  0  0  0  0  0  0  0  0
    8.8521  -16.4445   20.6546 N   0  0  0  0  0  0  0  0  0  0  0  0
    8.5142  -15.3736   22.8078 C   0  0  0  0  0  0  0  0  0  0  0  0
    7.9521  -16.4035   23.2148 O   0  0  0  0  0  0  0  0  0  0  0  0
    7.0110  -11.1655   28.1940 C   0  0  0  0  0  0  0  0  0  0  0  0
    5.9915  -11.8542   26.8409 S   0  0  0  0  0  0  0  0  0  0  0  0
    6.5116  -13.5477   26.4550 C   0  0  0  0  0  0  0  0  0  0  0  0
    7.0493  -13.6966   25.0677 C   0  0  0  0  0  0  0  0  0  0  0  0
    8.4547  -14.2362   25.0607 C   0  0  2  0  0  0  0  0  0  0  0  0
    8.9711  -14.4341   23.7484 N   0  0  0  0  0  0  0  0  0  0  0  0
    8.6581  -15.4417   25.8592 C   0  0  0  0  0  0  0  0  0  0  0  0
    8.3619  -15.5685   27.0786 O   0  0  0  0  0  0  0  0  0  0  0  0
    9.2206  -16.5637   25.2677 O   0  0  0  0  0  0  0  0  0  0  0  0
  2  3  1  0
  2  1  1  1
  4  2  1  0
  5  4  2  0
  7  6  1  6
  7  8  1  0
  7  9  1  0
  9 11  1  0
  9 10  1  6
 10  4  1  0
 11 18  1  0
 12 11  2  0
 13 14  1  0
 15 14  1  0
 16 15  1  0
 17 16  1  6
 18 17  1  0
 19 21  1  0
 19 17  1  0
 20 19  2  0
M  END
$$$$
