ATM.pdb
     RDKit          3D

 21 20  0  0  1  0  0  0  0  0999 V2000
    8.6127  -12.1946   18.9055 C   0  0  0  0  0  0  0  0  0  0  0  0
    8.6157  -13.6854   18.6412 C   0  0  2  0  0  0  0  0  0  0  0  0
    7.8440  -13.9347   17.4513 N   0  0  0  0  0  0  0  0  0  0  0  0
    8.0854  -14.4325   19.8137 C   0  0  0  0  0  0  0  0  0  0  0  0
    6.8498  -14.4645   20.0538 O   0  0  0  0  0  0  0  0  0  0  0  0
    8.1273  -17.8940   20.3149 C   0  0  0  0  0  0  0  0  0  0  0  0
    8.7076  -17.3919   21.6208 C   0  0  1  0  0  0  0  0  0  0  0  0
   10.1016  -17.5188   21.5220 O   0  0  0  0  0  0  0  0  0  0  0  0
    8.3738  -15.9236   21.8206 C   0  0  2  0  0  0  0  0  0  0  0  0
    8.9194  -15.1463   20.7252 N   0  0  0  0  0  0  0  0  0  0  0  0
    8.8712  -15.4452   23.1348 C   0  0  0  0  0  0  0  0  0  0  0  0
   10.0403  -15.0341   23.2160 O   0  0  0  0  0  0  0  0  0  0  0  0
    6.7565  -11.2293   28.0216 C   0  0  0  0  0  0  0  0  0  0  0  0
    5.8884  -12.0169   26.6178 S   0  0  0  0  0  0  0  0  0  0  0  0
    7.0363  -13.0394   25.6566 C   0  0  0  0  0  0  0  0  0  0  0  0
    7.4263  -14.3024   26.3557 C   0  0  0  0  0  0  0  0  0  0  0  0
    8.4816  -15.0647   25.5998 C   0  0  2  0  0  0  0  0  0  0  0  0
    8.0694  -15.4401   24.2893 N   0  0  0  0  0  0  0  0  0  0  0  0
    9.0254  -16.2257   26.2986 C   0  0  0  0  0  0  0  0  0  0  0  0
    8.7500  -17.4290   26.0397 O   0  0  0  0  0  0  0  0  0  0  0  0
    9.9228  -16.0356   27.3397 O   0  0  0  0  0  0  0  0  0  0  0  0
  2  3  1  0
  2  1  1  1
  4  2  1  0
  5  4  2  0
  7  6  1  6
  7  8  1  0
  7  9  1  0
  9 11  1  0
  9 10  1  6
 10  4  1  0
 11 18  1  0
 12 11  2  0
 13 14  1  0
 15 14  1  0
 16 15  1  0
 17 16  1  1
 18 17  1  0
 19 21  1  0
 19 17  1  0
 20 19  2  0
M  END
$$$$
