ATM.pdb
     RDKit          3D

 21 20  0  0  1  0  0  0  0  0999 V2000
   12.4666  -18.9525   21.3157 C   0  0  0  0  0  0  0  0  0  0  0  0
   11.4162  -18.5854   20.2890 C   0  0  2  0  0  0  0  0  0  0  0  0
   12.0664  -18.4286   19.0137 N   0  0  0  0  0  0  0  0  0  0  0  0
   10.6858  -17.3543   20.6951 C   0  0  0  0  0  0  0  0  0  0  0  0
   11.2379  -16.2246   20.6286 O   0  0  0  0  0  0  0  0  0  0  0  0
    7.1543  -16.0631   19.5533 C   0  0  0  0  0  0  0  0  0  0  0  0
    7.2092  -16.2177   21.0591 C   0  0  1  0  0  0  0  0  0  0  0  0
    6.6988  -17.4905   21.3564 O   0  0  0  0  0  0  0  0  0  0  0  0
    8.6459  -16.1520   21.5478 C   0  0  2  0  0  0  0  0  0  0  0  0
    9.3428  -17.3678   21.1768 N   0  0  0  0  0  0  0  0  0  0  0  0
    8.6929  -15.9171   23.0127 C   0  0  0  0  0  0  0  0  0  0  0  0
    8.9581  -16.8718   23.7614 O   0  0  0  0  0  0  0  0  0  0  0  0
    6.2672  -10.8986   28.7043 C   0  0  0  0  0  0  0  0  0  0  0  0
    6.3024  -11.2743   26.9149 S   0  0  0  0  0  0  0  0  0  0  0  0
    7.1328  -12.8581   26.6165 C   0  0  0  0  0  0  0  0  0  0  0  0
    7.3888  -13.1247   25.1676 C   0  0  0  0  0  0  0  0  0  0  0  0
    8.1751  -14.3908   24.9556 C   0  0  2  0  0  0  0  0  0  0  0  0
    8.4489  -14.6559   23.5834 N   0  0  0  0  0  0  0  0  0  0  0  0
    7.6121  -15.5812   25.5865 C   0  0  0  0  0  0  0  0  0  0  0  0
    6.6718  -16.2799   25.1192 O   0  0  0  0  0  0  0  0  0  0  0  0
    8.1238  -16.0152   26.8010 O   0  0  0  0  0  0  0  0  0  0  0  0
  2  3  1  0
  2  1  1  1
  4  2  1  0
  5  4  2  0
  7  6  1  6
  7  8  1  0
  7  9  1  0
  9 11  1  0
  9 10  1  1
 10  4  1  0
 11 18  1  0
 12 11  2  0
 13 14  1  0
 15 14  1  0
 16 15  1  0
 17 16  1  6
 18 17  1  0
 19 21  1  0
 19 17  1  0
 20 19  2  0
M  END
$$$$
