ATM.pdb
     RDKit          3D

 21 20  0  0  1  0  0  0  0  0999 V2000
    8.7538  -12.3295   18.8151 C   0  0  0  0  0  0  0  0  0  0  0  0
    8.7627  -13.8038   18.4709 C   0  0  2  0  0  0  0  0  0  0  0  0
    7.9123  -14.0057   17.3266 N   0  0  0  0  0  0  0  0  0  0  0  0
    8.3301  -14.6225   19.6357 C   0  0  0  0  0  0  0  0  0  0  0  0
    7.1084  -14.7726   19.9011 O   0  0  0  0  0  0  0  0  0  0  0  0
    9.2693  -18.1347   20.1521 C   0  0  0  0  0  0  0  0  0  0  0  0
    9.5262  -17.4792   21.4933 C   0  0  1  0  0  0  0  0  0  0  0  0
   10.9060  -17.2362   21.5697 O   0  0  0  0  0  0  0  0  0  0  0  0
    8.8002  -16.1479   21.5815 C   0  0  2  0  0  0  0  0  0  0  0  0
    9.2464  -15.2776   20.5115 N   0  0  0  0  0  0  0  0  0  0  0  0
    9.0009  -15.5267   22.9146 C   0  0  0  0  0  0  0  0  0  0  0  0
   10.0516  -14.9000   23.1282 O   0  0  0  0  0  0  0  0  0  0  0  0
    6.5479  -11.0398   28.3740 C   0  0  0  0  0  0  0  0  0  0  0  0
    6.3563  -11.8453   26.7433 S   0  0  0  0  0  0  0  0  0  0  0  0
    6.7716  -13.6066   26.8544 C   0  0  0  0  0  0  0  0  0  0  0  0
    6.7366  -14.3041   25.5321 C   0  0  0  0  0  0  0  0  0  0  0  0
    8.0672  -14.9127   25.1782 C   0  0  2  0  0  0  0  0  0  0  0  0
    8.0473  -15.6212   23.9430 N   0  0  0  0  0  0  0  0  0  0  0  0
    8.6610  -15.7484   26.2180 C   0  0  0  0  0  0  0  0  0  0  0  0
    8.5272  -16.9987   26.3151 O   0  0  0  0  0  0  0  0  0  0  0  0
    9.4446  -15.1598   27.2003 O   0  0  0  0  0  0  0  0  0  0  0  0
  2  3  1  0
  2  1  1  1
  4  2  1  0
  5  4  2  0
  7  6  1  6
  7  8  1  0
  7  9  1  0
  9 11  1  0
  9 10  1  6
 10  4  1  0
 11 18  1  0
 12 11  2  0
 13 14  1  0
 15 14  1  0
 16 15  1  0
 17 16  1  1
 18 17  1  0
 19 21  1  0
 19 17  1  0
 20 19  2  0
M  END
$$$$
