ATM.pdb
     RDKit          3D

 21 20  0  0  1  0  0  0  0  0999 V2000
    8.6043  -12.2326   18.9610 C   0  0  0  0  0  0  0  0  0  0  0  0
    8.5160  -13.6855   18.5447 C   0  0  2  0  0  0  0  0  0  0  0  0
    7.4655  -13.8126   17.5681 N   0  0  0  0  0  0  0  0  0  0  0  0
    8.2858  -14.5618   19.7251 C   0  0  0  0  0  0  0  0  0  0  0  0
    7.1211  -14.7755   20.1532 O   0  0  0  0  0  0  0  0  0  0  0  0
    9.6541  -18.4929   22.2442 C   0  0  0  0  0  0  0  0  0  0  0  0
    9.9617  -17.4141   21.2265 C   0  0  1  0  0  0  0  0  0  0  0  0
    9.6485  -17.9433   19.9652 O   0  0  0  0  0  0  0  0  0  0  0  0
    9.0875  -16.1948   21.4643 C   0  0  2  0  0  0  0  0  0  0  0  0
    9.3424  -15.2045   20.4367 N   0  0  0  0  0  0  0  0  0  0  0  0
    9.3110  -15.6447   22.8247 C   0  0  0  0  0  0  0  0  0  0  0  0
   10.3884  -15.0772   23.0688 O   0  0  0  0  0  0  0  0  0  0  0  0
    6.7293  -10.6077   27.4708 C   0  0  0  0  0  0  0  0  0  0  0  0
    6.1994  -12.2006   26.7452 S   0  0  0  0  0  0  0  0  0  0  0  0
    7.6402  -13.1667   26.2180 C   0  0  0  0  0  0  0  0  0  0  0  0
    7.2789  -14.5082   25.6649 C   0  0  0  0  0  0  0  0  0  0  0  0
    8.4870  -15.2644   25.1804 C   0  0  2  0  0  0  0  0  0  0  0  0
    8.3497  -15.7419   23.8457 N   0  0  0  0  0  0  0  0  0  0  0  0
    8.9267  -16.3507   26.0514 C   0  0  0  0  0  0  0  0  0  0  0  0
    8.5846  -17.5597   25.9406 O   0  0  0  0  0  0  0  0  0  0  0  0
    9.7926  -16.0752   27.1000 O   0  0  0  0  0  0  0  0  0  0  0  0
  2  3  1  0
  2  1  1  1
  4  2  1  0
  5  4  2  0
  7  6  1  1
  7  8  1  0
  7  9  1  0
  9 11  1  0
  9 10  1  6
 10  4  1  0
 11 18  1  0
 12 11  2  0
 13 14  1  0
 15 14  1  0
 16 15  1  0
 17 16  1  1
 18 17  1  0
 19 21  1  0
 19 17  1  0
 20 19  2  0
M  END
$$$$
