ATM.pdb
     RDKit          3D

 21 20  0  0  1  0  0  0  0  0999 V2000
    0.0576  -27.8100   28.8224 C   0  0  0  0  0  0  0  0  0  0  0  0
   -1.1104  -28.7711   28.7558 C   0  0  2  0  0  0  0  0  0  0  0  0
   -0.7308  -29.8866   27.9281 N   0  0  0  0  0  0  0  0  0  0  0  0
   -2.3295  -28.0888   28.2435 C   0  0  0  0  0  0  0  0  0  0  0  0
   -2.3831  -27.6667   27.0584 O   0  0  0  0  0  0  0  0  0  0  0  0
   -5.8975  -29.5110   28.7402 C   0  0  0  0  0  0  0  0  0  0  0  0
   -5.9135  -28.0385   29.0951 C   0  0  1  0  0  0  0  0  0  0  0  0
   -5.8073  -27.9555   30.4918 O   0  0  0  0  0  0  0  0  0  0  0  0
   -4.7176  -27.3311   28.4813 C   0  0  2  0  0  0  0  0  0  0  0  0
   -3.4932  -27.8703   29.0396 N   0  0  0  0  0  0  0  0  0  0  0  0
   -4.8139  -25.8637   28.6833 C   0  0  0  0  0  0  0  0  0  0  0  0
   -4.3241  -25.3701   29.7122 O   0  0  0  0  0  0  0  0  0  0  0  0
   -4.6795  -18.7765   25.4485 C   0  0  0  0  0  0  0  0  0  0  0  0
   -5.1137  -20.5238   25.1279 S   0  0  0  0  0  0  0  0  0  0  0  0
   -5.3890  -21.4046   26.6886 C   0  0  0  0  0  0  0  0  0  0  0  0
   -5.3287  -22.8916   26.5438 C   0  0  0  0  0  0  0  0  0  0  0  0
   -5.5545  -23.5972   27.8542 C   0  0  2  0  0  0  0  0  0  0  0  0
   -5.4380  -25.0130   27.7543 N   0  0  0  0  0  0  0  0  0  0  0  0
   -6.7977  -23.2503   28.5370 C   0  0  0  0  0  0  0  0  0  0  0  0
   -7.8628  -23.9249   28.5020 O   0  0  0  0  0  0  0  0  0  0  0  0
   -6.8565  -22.0917   29.2982 O   0  0  0  0  0  0  0  0  0  0  0  0
  2  3  1  0
  2  1  1  6
  4  2  1  0
  5  4  2  0
  7  6  1  1
  7  8  1  0
  7  9  1  0
  9 11  1  0
  9 10  1  1
 10  4  1  0
 11 18  1  0
 12 11  2  0
 13 14  1  0
 15 14  1  0
 16 15  1  0
 17 16  1  6
 18 17  1  0
 19 21  1  0
 19 17  1  0
 20 19  2  0
M  END
$$$$
