ATM.pdb
     RDKit          3D

 21 20  0  0  1  0  0  0  0  0999 V2000
    7.1212  -11.5695   26.0784 C   0  0  0  0  0  0  0  0  0  0  0  0
    6.1829  -12.6123   25.5089 C   0  0  2  0  0  0  0  0  0  0  0  0
    5.1962  -12.9268   26.5094 N   0  0  0  0  0  0  0  0  0  0  0  0
    6.9350  -13.8196   25.0718 C   0  0  0  0  0  0  0  0  0  0  0  0
    7.1783  -14.7556   25.8781 O   0  0  0  0  0  0  0  0  0  0  0  0
    6.7701  -15.0039   21.2911 C   0  0  0  0  0  0  0  0  0  0  0  0
    8.1526  -15.3033   21.8327 C   0  0  1  0  0  0  0  0  0  0  0  0
    9.0178  -14.3380   21.2956 O   0  0  0  0  0  0  0  0  0  0  0  0
    8.1700  -15.1725   23.3460 C   0  0  2  0  0  0  0  0  0  0  0  0
    7.4212  -13.9960   23.7420 N   0  0  0  0  0  0  0  0  0  0  0  0
    9.5640  -15.1333   23.8545 C   0  0  0  0  0  0  0  0  0  0  0  0
   10.1281  -14.0323   23.9637 O   0  0  0  0  0  0  0  0  0  0  0  0
   10.5702  -13.6006   28.8478 C   0  0  0  0  0  0  0  0  0  0  0  0
   11.6891  -15.0093   28.5191 S   0  0  0  0  0  0  0  0  0  0  0  0
   10.7453  -16.4476   27.9467 C   0  0  0  0  0  0  0  0  0  0  0  0
   10.0401  -16.2105   26.6495 C   0  0  0  0  0  0  0  0  0  0  0  0
   10.9102  -16.5358   25.4649 C   0  0  2  0  0  0  0  0  0  0  0  0
   10.2685  -16.2945   24.2167 N   0  0  0  0  0  0  0  0  0  0  0  0
   11.4891  -17.8763   25.4725 C   0  0  0  0  0  0  0  0  0  0  0  0
   10.8502  -18.9486   25.2913 O   0  0  0  0  0  0  0  0  0  0  0  0
   12.8503  -18.0294   25.6932 O   0  0  0  0  0  0  0  0  0  0  0  0
  2  3  1  0
  2  1  1  1
  4  2  1  0
  5  4  2  0
  7  6  1  6
  7  8  1  0
  7  9  1  0
  9 11  1  0
  9 10  1  6
 10  4  1  0
 11 18  1  0
 12 11  2  0
 13 14  1  0
 15 14  1  0
 16 15  1  0
 17 16  1  1
 18 17  1  0
 19 21  1  0
 19 17  1  0
 20 19  2  0
M  END
$$$$
