ATM.pdb
     RDKit          3D

 21 20  0  0  1  0  0  0  0  0999 V2000
   12.6361  -18.4311   20.7176 C   0  0  0  0  0  0  0  0  0  0  0  0
   11.6776  -17.6492   19.8446 C   0  0  2  0  0  0  0  0  0  0  0  0
   12.4167  -17.1100   18.7326 N   0  0  0  0  0  0  0  0  0  0  0  0
   10.9968  -16.5830   20.6282 C   0  0  0  0  0  0  0  0  0  0  0  0
   11.6069  -15.5302   20.9517 O   0  0  0  0  0  0  0  0  0  0  0  0
    7.2930  -15.0884   20.0705 C   0  0  0  0  0  0  0  0  0  0  0  0
    7.5124  -15.5892   21.4831 C   0  0  1  0  0  0  0  0  0  0  0  0
    7.0218  -16.9030   21.5298 O   0  0  0  0  0  0  0  0  0  0  0  0
    8.9951  -15.6200   21.8114 C   0  0  2  0  0  0  0  0  0  0  0  0
    9.6392  -16.6774   21.0573 N   0  0  0  0  0  0  0  0  0  0  0  0
    9.2072  -15.7793   23.2719 C   0  0  0  0  0  0  0  0  0  0  0  0
    9.8085  -16.7862   23.6807 O   0  0  0  0  0  0  0  0  0  0  0  0
    6.8385  -10.8881   26.8437 C   0  0  0  0  0  0  0  0  0  0  0  0
    6.0319  -12.4779   27.2518 S   0  0  0  0  0  0  0  0  0  0  0  0
    6.8430  -13.8427   26.3761 C   0  0  0  0  0  0  0  0  0  0  0  0
    8.3327  -13.7176   26.3423 C   0  0  0  0  0  0  0  0  0  0  0  0
    8.9803  -14.8649   25.6139 C   0  0  2  0  0  0  0  0  0  0  0  0
    8.7535  -14.8342   24.2083 N   0  0  0  0  0  0  0  0  0  0  0  0
    8.6598  -16.1896   26.1378 C   0  0  0  0  0  0  0  0  0  0  0  0
    9.1133  -16.6815   27.2070 O   0  0  0  0  0  0  0  0  0  0  0  0
    7.7886  -17.0083   25.4334 O   0  0  0  0  0  0  0  0  0  0  0  0
  2  3  1  0
  2  1  1  1
  4  2  1  0
  5  4  2  0
  7  6  1  6
  7  8  1  0
  7  9  1  0
  9 11  1  0
  9 10  1  6
 10  4  1  0
 11 18  1  0
 12 11  2  0
 13 14  1  0
 15 14  1  0
 16 15  1  0
 17 16  1  1
 18 17  1  0
 19 21  1  0
 19 17  1  0
 20 19  2  0
M  END
$$$$
