ATM.pdb
     RDKit          3D

 21 20  0  0  1  0  0  0  0  0999 V2000
   10.6257  -18.3640   18.2357 C   0  0  0  0  0  0  0  0  0  0  0  0
    9.9420  -18.3068   19.5853 C   0  0  2  0  0  0  0  0  0  0  0  0
    8.6351  -18.8973   19.4550 N   0  0  0  0  0  0  0  0  0  0  0  0
    9.8716  -16.9068   20.0846 C   0  0  0  0  0  0  0  0  0  0  0  0
   10.9202  -16.2636   20.3527 O   0  0  0  0  0  0  0  0  0  0  0  0
    7.8793  -12.5518   20.6298 C   0  0  0  0  0  0  0  0  0  0  0  0
    7.7229  -13.9730   20.1296 C   0  0  1  0  0  0  0  0  0  0  0  0
    8.1782  -13.9896   18.8025 O   0  0  0  0  0  0  0  0  0  0  0  0
    8.5866  -14.9207   20.9439 C   0  0  2  0  0  0  0  0  0  0  0  0
    8.6416  -16.2134   20.2899 N   0  0  0  0  0  0  0  0  0  0  0  0
    8.0803  -15.0300   22.3349 C   0  0  0  0  0  0  0  0  0  0  0  0
    7.0783  -15.7311   22.5514 O   0  0  0  0  0  0  0  0  0  0  0  0
    6.2888  -11.3481   27.8172 C   0  0  0  0  0  0  0  0  0  0  0  0
    6.8271  -12.1320   26.2551 S   0  0  0  0  0  0  0  0  0  0  0  0
    6.4382  -13.9028   26.2683 C   0  0  0  0  0  0  0  0  0  0  0  0
    6.8629  -14.6080   25.0200 C   0  0  0  0  0  0  0  0  0  0  0  0
    8.3471  -14.5067   24.7901 C   0  0  2  0  0  0  0  0  0  0  0  0
    8.6920  -14.3704   23.4151 N   0  0  0  0  0  0  0  0  0  0  0  0
    9.1408  -15.5723   25.3956 C   0  0  0  0  0  0  0  0  0  0  0  0
    9.3492  -16.7071   24.8862 O   0  0  0  0  0  0  0  0  0  0  0  0
    9.7326  -15.3620   26.6328 O   0  0  0  0  0  0  0  0  0  0  0  0
  2  3  1  0
  2  1  1  6
  4  2  1  0
  5  4  2  0
  7  6  1  1
  7  8  1  0
  7  9  1  0
  9 11  1  0
  9 10  1  6
 10  4  1  0
 11 18  1  0
 12 11  2  0
 13 14  1  0
 15 14  1  0
 16 15  1  0
 17 16  1  6
 18 17  1  0
 19 21  1  0
 19 17  1  0
 20 19  2  0
M  END
$$$$
