ATM.pdb
     RDKit          3D

 21 20  0  0  1  0  0  0  0  0999 V2000
    8.3769  -12.2947   19.1538 C   0  0  0  0  0  0  0  0  0  0  0  0
    8.7642  -13.7278   18.8558 C   0  0  2  0  0  0  0  0  0  0  0  0
    8.2502  -14.0737   17.5559 N   0  0  0  0  0  0  0  0  0  0  0  0
    8.2597  -14.6439   19.9143 C   0  0  0  0  0  0  0  0  0  0  0  0
    7.3187  -15.4466   19.6787 O   0  0  0  0  0  0  0  0  0  0  0  0
    8.0810  -17.2239   20.2345 C   0  0  0  0  0  0  0  0  0  0  0  0
    8.7486  -17.0766   21.5862 C   0  0  1  0  0  0  0  0  0  0  0  0
   10.1321  -17.1618   21.3681 O   0  0  0  0  0  0  0  0  0  0  0  0
    8.4415  -15.7147   22.1847 C   0  0  2  0  0  0  0  0  0  0  0  0
    8.7935  -14.6755   21.2372 N   0  0  0  0  0  0  0  0  0  0  0  0
    9.1452  -15.5385   23.4797 C   0  0  0  0  0  0  0  0  0  0  0  0
   10.3588  -15.2752   23.4679 O   0  0  0  0  0  0  0  0  0  0  0  0
    5.5903  -11.7411   26.2601 C   0  0  0  0  0  0  0  0  0  0  0  0
    6.8889  -12.2260   27.4530 S   0  0  0  0  0  0  0  0  0  0  0  0
    8.1987  -13.1609   26.6179 C   0  0  0  0  0  0  0  0  0  0  0  0
    8.1522  -14.6270   26.9085 C   0  0  0  0  0  0  0  0  0  0  0  0
    9.0592  -15.4129   25.9996 C   0  0  2  0  0  0  0  0  0  0  0  0
    8.4898  -15.6584   24.7175 N   0  0  0  0  0  0  0  0  0  0  0  0
    9.5677  -16.6607   26.5620 C   0  0  0  0  0  0  0  0  0  0  0  0
    9.1811  -17.8175   26.2408 O   0  0  0  0  0  0  0  0  0  0  0  0
   10.5586  -16.6168   27.5323 O   0  0  0  0  0  0  0  0  0  0  0  0
  2  3  1  0
  2  1  1  1
  4  2  1  0
  5  4  2  0
  7  6  1  6
  7  8  1  0
  7  9  1  0
  9 11  1  0
  9 10  1  6
 10  4  1  0
 11 18  1  0
 12 11  2  0
 13 14  1  0
 15 14  1  0
 16 15  1  0
 17 16  1  1
 18 17  1  0
 19 21  1  0
 19 17  1  0
 20 19  2  0
M  END
$$$$
