ATM.pdb
     RDKit          3D

 21 20  0  0  1  0  0  0  0  0999 V2000
    7.1039  -16.5142   17.9250 C   0  0  0  0  0  0  0  0  0  0  0  0
    8.2789  -15.8533   18.6140 C   0  0  2  0  0  0  0  0  0  0  0  0
    9.4827  -16.2404   17.9252 N   0  0  0  0  0  0  0  0  0  0  0  0
    8.3219  -16.2190   20.0557 C   0  0  0  0  0  0  0  0  0  0  0  0
    7.2704  -16.2396   20.7481 O   0  0  0  0  0  0  0  0  0  0  0  0
   10.6723  -19.0882   21.2752 C   0  0  0  0  0  0  0  0  0  0  0  0
   10.6933  -17.9889   22.3171 C   0  0  1  0  0  0  0  0  0  0  0  0
   11.8873  -17.2755   22.1318 O   0  0  0  0  0  0  0  0  0  0  0  0
    9.5290  -17.0361   22.1074 C   0  0  2  0  0  0  0  0  0  0  0  0
    9.5274  -16.5628   20.7371 N   0  0  0  0  0  0  0  0  0  0  0  0
    9.5873  -15.9131   23.0763 C   0  0  0  0  0  0  0  0  0  0  0  0
    9.8294  -14.7714   22.6519 O   0  0  0  0  0  0  0  0  0  0  0  0
    6.6323  -11.2058   27.2306 C   0  0  0  0  0  0  0  0  0  0  0  0
    7.5843  -12.2820   26.0992 S   0  0  0  0  0  0  0  0  0  0  0  0
    6.6886  -13.8283   25.7927 C   0  0  0  0  0  0  0  0  0  0  0  0
    7.3839  -14.7288   24.8224 C   0  0  0  0  0  0  0  0  0  0  0  0
    8.7243  -15.1845   25.3340 C   0  0  2  0  0  0  0  0  0  0  0  0
    9.3789  -16.0936   24.4547 N   0  0  0  0  0  0  0  0  0  0  0  0
    8.7169  -15.7267   26.6898 C   0  0  0  0  0  0  0  0  0  0  0  0
    8.3477  -16.8896   27.0093 O   0  0  0  0  0  0  0  0  0  0  0  0
    9.1431  -14.9314   27.7439 O   0  0  0  0  0  0  0  0  0  0  0  0
  2  3  1  0
  2  1  1  6
  4  2  1  0
  5  4  2  0
  7  6  1  6
  7  8  1  0
  7  9  1  0
  9 11  1  0
  9 10  1  6
 10  4  1  0
 11 18  1  0
 12 11  2  0
 13 14  1  0
 15 14  1  0
 16 15  1  0
 17 16  1  6
 18 17  1  0
 19 21  1  0
 19 17  1  0
 20 19  2  0
M  END
$$$$
