ATM.pdb
     RDKit          3D

 21 20  0  0  1  0  0  0  0  0999 V2000
    8.5484  -12.3495   18.8524 C   0  0  0  0  0  0  0  0  0  0  0  0
    8.5396  -13.8032   18.4294 C   0  0  2  0  0  0  0  0  0  0  0  0
    7.5311  -13.9726   17.4157 N   0  0  0  0  0  0  0  0  0  0  0  0
    8.3070  -14.6937   19.5987 C   0  0  0  0  0  0  0  0  0  0  0  0
    7.1419  -14.9077   20.0254 O   0  0  0  0  0  0  0  0  0  0  0  0
    9.7364  -18.4533   22.4013 C   0  0  0  0  0  0  0  0  0  0  0  0
    9.9614  -17.5053   21.2416 C   0  0  1  0  0  0  0  0  0  0  0  0
    9.5529  -18.1788   20.0804 O   0  0  0  0  0  0  0  0  0  0  0  0
    9.1051  -16.2606   21.3992 C   0  0  2  0  0  0  0  0  0  0  0  0
    9.3616  -15.3504   20.3004 N   0  0  0  0  0  0  0  0  0  0  0  0
    9.3496  -15.6170   22.7142 C   0  0  0  0  0  0  0  0  0  0  0  0
   10.4560  -15.0938   22.9254 O   0  0  0  0  0  0  0  0  0  0  0  0
    6.4677  -10.6913   27.7580 C   0  0  0  0  0  0  0  0  0  0  0  0
    5.9600  -12.2262   26.9031 S   0  0  0  0  0  0  0  0  0  0  0  0
    7.4092  -13.2453   26.5177 C   0  0  0  0  0  0  0  0  0  0  0  0
    7.2517  -14.0413   25.2616 C   0  0  0  0  0  0  0  0  0  0  0  0
    8.4720  -14.8695   24.9601 C   0  0  2  0  0  0  0  0  0  0  0  0
    8.3768  -15.5776   23.7281 N   0  0  0  0  0  0  0  0  0  0  0  0
    8.8783  -15.7823   26.0249 C   0  0  0  0  0  0  0  0  0  0  0  0
    9.4537  -15.4454   27.0955 O   0  0  0  0  0  0  0  0  0  0  0  0
    8.6303  -17.1407   25.8893 O   0  0  0  0  0  0  0  0  0  0  0  0
  2  3  1  0
  2  1  1  1
  4  2  1  0
  5  4  2  0
  7  6  1  1
  7  8  1  0
  7  9  1  0
  9 11  1  0
  9 10  1  6
 10  4  1  0
 11 18  1  0
 12 11  2  0
 13 14  1  0
 15 14  1  0
 16 15  1  0
 17 16  1  1
 18 17  1  0
 19 21  1  0
 19 17  1  0
 20 19  2  0
M  END
$$$$
