ATM.pdb
     RDKit          3D

 21 20  0  0  1  0  0  0  0  0999 V2000
    8.6589  -12.2419   19.3399 C   0  0  0  0  0  0  0  0  0  0  0  0
    8.5596  -13.7165   19.0114 C   0  0  2  0  0  0  0  0  0  0  0  0
    7.5154  -13.8926   18.0356 N   0  0  0  0  0  0  0  0  0  0  0  0
    8.3119  -14.5176   20.2406 C   0  0  0  0  0  0  0  0  0  0  0  0
    7.1797  -14.5215   20.7914 O   0  0  0  0  0  0  0  0  0  0  0  0
    9.1774  -18.1280   20.7108 C   0  0  0  0  0  0  0  0  0  0  0  0
    9.6561  -17.4473   21.9764 C   0  0  1  0  0  0  0  0  0  0  0  0
   11.0500  -17.3259   21.8707 O   0  0  0  0  0  0  0  0  0  0  0  0
    9.0614  -16.0540   22.0877 C   0  0  2  0  0  0  0  0  0  0  0  0
    9.3152  -15.3169   20.8655 N   0  0  0  0  0  0  0  0  0  0  0  0
    9.5979  -15.3466   23.2773 C   0  0  0  0  0  0  0  0  0  0  0  0
   10.1912  -14.2681   23.1124 O   0  0  0  0  0  0  0  0  0  0  0  0
    5.3437  -12.3479   26.8738 C   0  0  0  0  0  0  0  0  0  0  0  0
    7.1098  -11.9022   27.0367 S   0  0  0  0  0  0  0  0  0  0  0  0
    8.1365  -13.3951   27.1003 C   0  0  0  0  0  0  0  0  0  0  0  0
    8.3088  -14.0482   25.7662 C   0  0  0  0  0  0  0  0  0  0  0  0
    9.4010  -15.0841   25.7803 C   0  0  2  0  0  0  0  0  0  0  0  0
    9.4595  -15.8513   24.5819 N   0  0  0  0  0  0  0  0  0  0  0  0
    9.3938  -15.9744   26.9376 C   0  0  0  0  0  0  0  0  0  0  0  0
    9.7983  -15.6728   28.0935 O   0  0  0  0  0  0  0  0  0  0  0  0
    8.9105  -17.2677   26.7992 O   0  0  0  0  0  0  0  0  0  0  0  0
  2  3  1  0
  2  1  1  1
  4  2  1  0
  5  4  2  0
  7  6  1  6
  7  8  1  0
  7  9  1  0
  9 11  1  0
  9 10  1  6
 10  4  1  0
 11 18  1  0
 12 11  2  0
 13 14  1  0
 15 14  1  0
 16 15  1  0
 17 16  1  6
 18 17  1  0
 19 21  1  0
 19 17  1  0
 20 19  2  0
M  END
$$$$
