ATM.pdb
     RDKit          3D

 21 20  0  0  1  0  0  0  0  0999 V2000
    8.7293  -12.3199   18.8993 C   0  0  0  0  0  0  0  0  0  0  0  0
    8.7026  -13.7828   18.5100 C   0  0  2  0  0  0  0  0  0  0  0  0
    7.8213  -13.9339   17.3813 N   0  0  0  0  0  0  0  0  0  0  0  0
    8.2828  -14.6293   19.6596 C   0  0  0  0  0  0  0  0  0  0  0  0
    7.0744  -14.6927   20.0073 O   0  0  0  0  0  0  0  0  0  0  0  0
    8.9336  -18.2693   20.1475 C   0  0  0  0  0  0  0  0  0  0  0  0
    9.3656  -17.6081   21.4400 C   0  0  1  0  0  0  0  0  0  0  0  0
   10.7623  -17.4838   21.3864 O   0  0  0  0  0  0  0  0  0  0  0  0
    8.7653  -16.2172   21.5516 C   0  0  2  0  0  0  0  0  0  0  0  0
    9.1977  -15.4083   20.4290 N   0  0  0  0  0  0  0  0  0  0  0  0
    9.1238  -15.5922   22.8493 C   0  0  0  0  0  0  0  0  0  0  0  0
   10.2160  -15.0095   22.9489 O   0  0  0  0  0  0  0  0  0  0  0  0
    6.2503  -10.9639   28.3375 C   0  0  0  0  0  0  0  0  0  0  0  0
    5.8886  -12.0813   26.9357 S   0  0  0  0  0  0  0  0  0  0  0  0
    7.2444  -13.2619   26.7008 C   0  0  0  0  0  0  0  0  0  0  0  0
    7.1336  -14.0399   25.4287 C   0  0  0  0  0  0  0  0  0  0  0  0
    8.3812  -14.8309   25.1388 C   0  0  2  0  0  0  0  0  0  0  0  0
    8.2742  -15.6351   23.9684 N   0  0  0  0  0  0  0  0  0  0  0  0
    8.8730  -15.6393   26.2509 C   0  0  0  0  0  0  0  0  0  0  0  0
    9.2167  -15.1955   27.3804 O   0  0  0  0  0  0  0  0  0  0  0  0
    8.9875  -17.0134   26.0960 O   0  0  0  0  0  0  0  0  0  0  0  0
  2  3  1  0
  2  1  1  1
  4  2  1  0
  5  4  2  0
  7  6  1  6
  7  8  1  0
  7  9  1  0
  9 11  1  0
  9 10  1  6
 10  4  1  0
 11 18  1  0
 12 11  2  0
 13 14  1  0
 15 14  1  0
 16 15  1  0
 17 16  1  1
 18 17  1  0
 19 21  1  0
 19 17  1  0
 20 19  2  0
M  END
$$$$
