ATM.pdb
     RDKit          3D

 21 20  0  0  1  0  0  0  0  0999 V2000
    8.5599  -12.2108   19.1820 C   0  0  0  0  0  0  0  0  0  0  0  0
    8.5114  -13.7019   18.9244 C   0  0  2  0  0  0  0  0  0  0  0  0
    7.5554  -13.9483   17.8761 N   0  0  0  0  0  0  0  0  0  0  0  0
    8.1741  -14.4440   20.1693 C   0  0  0  0  0  0  0  0  0  0  0  0
    6.9956  -14.4595   20.6124 O   0  0  0  0  0  0  0  0  0  0  0  0
    8.2731  -17.8590   20.5073 C   0  0  0  0  0  0  0  0  0  0  0  0
    9.0179  -17.4476   21.7605 C   0  0  1  0  0  0  0  0  0  0  0  0
   10.3855  -17.6145   21.4942 O   0  0  0  0  0  0  0  0  0  0  0  0
    8.7661  -15.9823   22.0712 C   0  0  2  0  0  0  0  0  0  0  0  0
    9.1386  -15.1710   20.9289 N   0  0  0  0  0  0  0  0  0  0  0  0
    9.4949  -15.5718   23.2974 C   0  0  0  0  0  0  0  0  0  0  0  0
   10.6973  -15.2749   23.2052 O   0  0  0  0  0  0  0  0  0  0  0  0
    5.2058  -11.8766   26.8270 C   0  0  0  0  0  0  0  0  0  0  0  0
    6.9936  -12.1368   27.1113 S   0  0  0  0  0  0  0  0  0  0  0  0
    7.6000  -13.5189   26.1068 C   0  0  0  0  0  0  0  0  0  0  0  0
    9.0762  -13.7273   26.2224 C   0  0  0  0  0  0  0  0  0  0  0  0
    9.4894  -15.1050   25.7783 C   0  0  2  0  0  0  0  0  0  0  0  0
    8.8756  -15.5067   24.5576 N   0  0  0  0  0  0  0  0  0  0  0  0
    9.3264  -16.1530   26.7820 C   0  0  0  0  0  0  0  0  0  0  0  0
    9.8051  -16.1276   27.9486 O   0  0  0  0  0  0  0  0  0  0  0  0
    8.5918  -17.2877   26.4691 O   0  0  0  0  0  0  0  0  0  0  0  0
  2  3  1  0
  2  1  1  1
  4  2  1  0
  5  4  2  0
  7  6  1  6
  7  8  1  0
  7  9  1  0
  9 11  1  0
  9 10  1  6
 10  4  1  0
 11 18  1  0
 12 11  2  0
 13 14  1  0
 15 14  1  0
 16 15  1  0
 17 16  1  1
 18 17  1  0
 19 21  1  0
 19 17  1  0
 20 19  2  0
M  END
$$$$
