VEW.pdb
     RDKit          3D

 31 32  0  0  1  0  0  0  0  0999 V2000
    8.6827  -13.0510   21.3277 C   0  0  0  0  0  0  0  0  0  0  0  0
    7.6472  -13.8440   20.5669 C   0  0  1  0  0  0  0  0  0  0  0  0
    6.8715  -12.9902   19.6179 C   0  0  0  0  0  0  0  0  0  0  0  0
    8.2230  -15.1026   19.9522 C   0  0  2  0  0  0  0  0  0  0  0  0
    7.1569  -15.7848   19.2015 N   0  0  0  0  0  0  0  0  0  0  0  0
    8.8146  -16.0285   20.9393 C   0  0  0  0  0  0  0  0  0  0  0  0
    8.0719  -16.7004   21.7284 O   0  0  0  0  0  0  0  0  0  0  0  0
   10.1986  -16.2315   21.0773 N   0  0  0  0  0  0  0  0  0  0  0  0
   10.7735  -17.1217   22.0738 C   0  0  1  0  0  0  0  0  0  0  0  0
   12.1636  -17.5239   21.7577 C   0  0  0  0  0  0  0  0  0  0  0  0
   12.1951  -18.3808   20.5296 C   0  0  0  0  0  0  0  0  0  0  0  0
   13.5797  -18.7300   20.1830 C   0  0  0  0  0  0  0  0  0  0  0  0
   14.5203  -18.7509   21.0041 O   0  0  0  0  0  0  0  0  0  0  0  0
   10.7259  -16.4395   23.4300 C   0  0  0  0  0  0  0  0  0  0  0  0
   11.1616  -15.2811   23.5320 O   0  0  0  0  0  0  0  0  0  0  0  0
   13.9334  -19.0712   18.8668 O   0  0  0  0  0  0  0  0  0  0  0  0
   10.2011  -17.0794   24.5782 N   0  0  0  0  0  0  0  0  0  0  0  0
   10.3279  -16.5568   25.9301 C   0  0  1  0  0  0  0  0  0  0  0  0
   10.0014  -15.1057   25.9985 C   0  0  0  0  0  0  0  0  0  0  0  0
    8.5471  -14.8765   26.0281 C   0  0  0  0  0  0  0  0  0  0  0  0
    7.5376  -15.8302   25.8346 C   0  0  0  0  0  0  0  0  0  0  0  0
    6.3425  -15.2203   25.8999 N   0  0  0  0  0  0  0  0  0  0  0  0
    6.4908  -13.9063   26.1281 C   0  0  0  0  0  0  0  0  0  0  0  0
    5.5781  -12.8809   26.2911 C   0  0  0  0  0  0  0  0  0  0  0  0
    6.0247  -11.6043   26.5418 C   0  0  0  0  0  0  0  0  0  0  0  0
    7.3888  -11.3526   26.6298 C   0  0  0  0  0  0  0  0  0  0  0  0
    8.2642  -12.3943   26.4622 C   0  0  0  0  0  0  0  0  0  0  0  0
    7.8456  -13.6938   26.2073 C   0  0  0  0  0  0  0  0  0  0  0  0
    9.7538  -17.4058   26.9448 C   0  0  0  0  0  0  0  0  0  0  0  0
    9.1680  -18.4772   26.5271 O   0  0  0  0  0  0  0  0  0  0  0  0
    9.7559  -17.2219   28.2966 O   0  0  0  0  0  0  0  0  0  0  0  0
  2  1  1  6
  2  3  1  0
  4  2  1  0
  4  5  1  1
  6  4  1  0
  6  7  2  0
  8  6  1  0
  9  8  1  0
  9 10  1  6
 11 10  1  0
 12 13  2  0
 12 11  1  0
 14  9  1  0
 15 14  2  0
 16 12  1  0
 17 14  1  0
 18 19  1  6
 18 17  1  0
 20 19  1  0
 21 20  2  0
 22 23  1  0
 22 21  1  0
 23 28  2  0
 24 25  2  0
 24 23  1  0
 25 26  1  0
 26 27  2  0
 28 20  1  0
 28 27  1  0
 29 18  1  0
 30 29  2  0
 31 29  1  0
M  END
$$$$
