VEW.pdb
     RDKit          3D

 31 32  0  0  1  0  0  0  0  0999 V2000
    8.8835  -12.9707   20.4873 C   0  0  0  0  0  0  0  0  0  0  0  0
    7.8993  -13.5668   19.5097 C   0  0  1  0  0  0  0  0  0  0  0  0
    7.3867  -12.5529   18.5399 C   0  0  0  0  0  0  0  0  0  0  0  0
    8.4192  -14.8385   18.8724 C   0  0  2  0  0  0  0  0  0  0  0  0
    7.3758  -15.3756   17.9846 N   0  0  0  0  0  0  0  0  0  0  0  0
    8.8274  -15.8683   19.8494 C   0  0  0  0  0  0  0  0  0  0  0  0
    7.9537  -16.5498   20.4803 O   0  0  0  0  0  0  0  0  0  0  0  0
   10.1689  -16.1646   20.1466 N   0  0  0  0  0  0  0  0  0  0  0  0
   10.5612  -17.1282   21.1633 C   0  0  1  0  0  0  0  0  0  0  0  0
   11.8178  -17.8393   20.8328 C   0  0  0  0  0  0  0  0  0  0  0  0
   12.1187  -18.8802   21.8669 C   0  0  0  0  0  0  0  0  0  0  0  0
   13.3432  -19.6130   21.5161 C   0  0  0  0  0  0  0  0  0  0  0  0
   14.4927  -19.1331   21.6037 O   0  0  0  0  0  0  0  0  0  0  0  0
   10.7053  -16.4097   22.4937 C   0  0  0  0  0  0  0  0  0  0  0  0
   11.2219  -15.2806   22.5104 O   0  0  0  0  0  0  0  0  0  0  0  0
   13.2869  -20.9365   21.0481 O   0  0  0  0  0  0  0  0  0  0  0  0
   10.2699  -16.9837   23.7119 N   0  0  0  0  0  0  0  0  0  0  0  0
   10.2331  -16.2709   24.9797 C   0  0  1  0  0  0  0  0  0  0  0  0
    9.7159  -14.8834   24.8230 C   0  0  0  0  0  0  0  0  0  0  0  0
    8.3965  -14.7203   25.4563 C   0  0  0  0  0  0  0  0  0  0  0  0
    7.3900  -15.6894   25.5730 C   0  0  0  0  0  0  0  0  0  0  0  0
    6.3241  -15.1410   26.1793 N   0  0  0  0  0  0  0  0  0  0  0  0
    6.5573  -13.8540   26.4791 C   0  0  0  0  0  0  0  0  0  0  0  0
    5.7910  -12.8914   27.1096 C   0  0  0  0  0  0  0  0  0  0  0  0
    6.3063  -11.6314   27.3066 C   0  0  0  0  0  0  0  0  0  0  0  0
    7.5923  -11.3333   26.8716 C   0  0  0  0  0  0  0  0  0  0  0  0
    8.3224  -12.3131   26.2500 C   0  0  0  0  0  0  0  0  0  0  0  0
    7.8310  -13.5942   26.0354 C   0  0  0  0  0  0  0  0  0  0  0  0
    9.7056  -17.0465   26.0753 C   0  0  0  0  0  0  0  0  0  0  0  0
    9.9240  -16.5821   27.2594 O   0  0  0  0  0  0  0  0  0  0  0  0
    8.9974  -18.2110   26.0184 O   0  0  0  0  0  0  0  0  0  0  0  0
  2  1  1  6
  2  3  1  0
  4  2  1  0
  4  5  1  6
  6  4  1  0
  6  7  2  0
  8  6  1  0
  9  8  1  0
  9 10  1  6
 11 10  1  0
 12 13  2  0
 12 11  1  0
 14  9  1  0
 15 14  2  0
 16 12  1  0
 17 14  1  0
 18 19  1  6
 18 17  1  0
 20 19  1  0
 21 20  2  0
 22 23  1  0
 22 21  1  0
 23 28  2  0
 24 25  2  0
 24 23  1  0
 25 26  1  0
 26 27  2  0
 28 20  1  0
 28 27  1  0
 29 18  1  0
 30 29  2  0
 31 29  1  0
M  END
$$$$
