VEW.pdb
     RDKit          3D

 31 32  0  0  1  0  0  0  0  0999 V2000
    7.5631  -12.5398   19.8944 C   0  0  0  0  0  0  0  0  0  0  0  0
    7.9949  -13.5497   20.9305 C   0  0  1  0  0  0  0  0  0  0  0  0
    6.9542  -13.7557   21.9820 C   0  0  0  0  0  0  0  0  0  0  0  0
    8.5187  -14.8265   20.3068 C   0  0  2  0  0  0  0  0  0  0  0  0
    7.4780  -15.3749   19.4227 N   0  0  0  0  0  0  0  0  0  0  0  0
    8.9275  -15.8456   21.2948 C   0  0  0  0  0  0  0  0  0  0  0  0
    8.1393  -16.7955   21.6144 O   0  0  0  0  0  0  0  0  0  0  0  0
   10.1783  -15.8437   21.9361 N   0  0  0  0  0  0  0  0  0  0  0  0
   10.5638  -16.8393   22.9241 C   0  0  1  0  0  0  0  0  0  0  0  0
   11.9290  -17.3716   22.7075 C   0  0  0  0  0  0  0  0  0  0  0  0
   11.9804  -18.1884   21.4531 C   0  0  0  0  0  0  0  0  0  0  0  0
   13.3473  -18.2160   20.9145 C   0  0  0  0  0  0  0  0  0  0  0  0
   14.3696  -17.9863   21.5939 O   0  0  0  0  0  0  0  0  0  0  0  0
   10.4595  -16.2251   24.3093 C   0  0  0  0  0  0  0  0  0  0  0  0
   10.9283  -15.0906   24.4970 O   0  0  0  0  0  0  0  0  0  0  0  0
   13.5878  -18.5123   19.5624 O   0  0  0  0  0  0  0  0  0  0  0  0
    9.8455  -16.9019   25.3902 N   0  0  0  0  0  0  0  0  0  0  0  0
   10.0581  -16.5621   26.7888 C   0  0  1  0  0  0  0  0  0  0  0  0
    8.7737  -16.3403   27.5088 C   0  0  0  0  0  0  0  0  0  0  0  0
    7.8135  -15.5845   26.6873 C   0  0  0  0  0  0  0  0  0  0  0  0
    6.8659  -16.1101   25.7975 C   0  0  0  0  0  0  0  0  0  0  0  0
    6.2074  -15.0961   25.2119 N   0  0  0  0  0  0  0  0  0  0  0  0
    6.6588  -13.9143   25.6594 C   0  0  0  0  0  0  0  0  0  0  0  0
    6.2938  -12.6110   25.3773 C   0  0  0  0  0  0  0  0  0  0  0  0
    6.9284  -11.5718   26.0171 C   0  0  0  0  0  0  0  0  0  0  0  0
    7.9313  -11.8371   26.9421 C   0  0  0  0  0  0  0  0  0  0  0  0
    8.2666  -13.1420   27.1959 C   0  0  0  0  0  0  0  0  0  0  0  0
    7.6459  -14.2132   26.5666 C   0  0  0  0  0  0  0  0  0  0  0  0
   11.0461  -17.3795   27.4489 C   0  0  0  0  0  0  0  0  0  0  0  0
   11.3180  -17.0690   28.6717 O   0  0  0  0  0  0  0  0  0  0  0  0
   11.7289  -18.4473   26.9444 O   0  0  0  0  0  0  0  0  0  0  0  0
  2  1  1  6
  2  3  1  0
  4  2  1  0
  4  5  1  6
  6  4  1  0
  6  7  2  0
  8  6  1  0
  9  8  1  0
  9 10  1  6
 11 10  1  0
 12 13  2  0
 12 11  1  0
 14  9  1  0
 15 14  2  0
 16 12  1  0
 17 14  1  0
 18 19  1  1
 18 17  1  0
 20 19  1  0
 21 20  2  0
 22 23  1  0
 22 21  1  0
 23 28  2  0
 24 25  2  0
 24 23  1  0
 25 26  1  0
 26 27  2  0
 28 20  1  0
 28 27  1  0
 29 18  1  0
 30 29  2  0
 31 29  1  0
M  END
$$$$
