VEW.pdb
     RDKit          3D

 31 32  0  0  1  0  0  0  0  0999 V2000
    8.0472  -12.1571   19.2058 C   0  0  0  0  0  0  0  0  0  0  0  0
    8.1150  -13.3881   20.0774 C   0  0  1  0  0  0  0  0  0  0  0  0
    6.7936  -13.7142   20.6928 C   0  0  0  0  0  0  0  0  0  0  0  0
    8.7866  -14.5520   19.3787 C   0  0  2  0  0  0  0  0  0  0  0  0
    8.0278  -14.8631   18.1568 N   0  0  0  0  0  0  0  0  0  0  0  0
    8.9045  -15.7610   20.2190 C   0  0  0  0  0  0  0  0  0  0  0  0
    8.4472  -16.8810   19.8162 O   0  0  0  0  0  0  0  0  0  0  0  0
    9.5116  -15.7660   21.4867 N   0  0  0  0  0  0  0  0  0  0  0  0
   10.1578  -16.9407   22.0513 C   0  0  1  0  0  0  0  0  0  0  0  0
   11.2655  -17.4521   21.2113 C   0  0  0  0  0  0  0  0  0  0  0  0
   11.8426  -18.6992   21.8070 C   0  0  0  0  0  0  0  0  0  0  0  0
   12.9623  -19.1875   20.9902 C   0  0  0  0  0  0  0  0  0  0  0  0
   12.8251  -19.8917   19.9682 O   0  0  0  0  0  0  0  0  0  0  0  0
   10.6726  -16.6007   23.4392 C   0  0  0  0  0  0  0  0  0  0  0  0
   11.5137  -15.6951   23.5595 O   0  0  0  0  0  0  0  0  0  0  0  0
   14.2916  -18.8789   21.3241 O   0  0  0  0  0  0  0  0  0  0  0  0
   10.2247  -17.2801   24.5971 N   0  0  0  0  0  0  0  0  0  0  0  0
   10.4664  -16.8187   25.9556 C   0  0  1  0  0  0  0  0  0  0  0  0
   10.2528  -15.3513   26.0911 C   0  0  0  0  0  0  0  0  0  0  0  0
    8.8205  -15.0116   26.1282 C   0  0  0  0  0  0  0  0  0  0  0  0
    7.7426  -15.8651   25.8531 C   0  0  0  0  0  0  0  0  0  0  0  0
    6.5977  -15.1701   25.9578 N   0  0  0  0  0  0  0  0  0  0  0  0
    6.8447  -13.8937   26.2898 C   0  0  0  0  0  0  0  0  0  0  0  0
    6.0123  -12.8156   26.5266 C   0  0  0  0  0  0  0  0  0  0  0  0
    6.5535  -11.6015   26.8803 C   0  0  0  0  0  0  0  0  0  0  0  0
    7.9318  -11.4653   26.9975 C   0  0  0  0  0  0  0  0  0  0  0  0
    8.7257  -12.5563   26.7546 C   0  0  0  0  0  0  0  0  0  0  0  0
    8.2107  -13.7950   26.3952 C   0  0  0  0  0  0  0  0  0  0  0  0
    9.8895  -17.6612   26.9742 C   0  0  0  0  0  0  0  0  0  0  0  0
    9.2173  -18.6808   26.5571 O   0  0  0  0  0  0  0  0  0  0  0  0
    9.9688  -17.5194   28.3286 O   0  0  0  0  0  0  0  0  0  0  0  0
  2  1  1  6
  2  3  1  0
  4  2  1  0
  4  5  1  6
  6  4  1  0
  6  7  2  0
  8  6  1  0
  9  8  1  0
  9 10  1  6
 11 10  1  0
 12 13  2  0
 12 11  1  0
 14  9  1  0
 15 14  2  0
 16 12  1  0
 17 14  1  0
 18 19  1  6
 18 17  1  0
 20 19  1  0
 21 20  2  0
 22 23  1  0
 22 21  1  0
 23 28  2  0
 24 25  2  0
 24 23  1  0
 25 26  1  0
 26 27  2  0
 28 20  1  0
 28 27  1  0
 29 18  1  0
 30 29  2  0
 31 29  1  0
M  END
$$$$
