VEW.pdb
     RDKit          3D

 31 32  0  0  1  0  0  0  0  0999 V2000
    6.9838  -12.8837   20.0265 C   0  0  0  0  0  0  0  0  0  0  0  0
    8.0032  -13.4622   19.0747 C   0  0  1  0  0  0  0  0  0  0  0  0
    8.2364  -12.5762   17.8948 C   0  0  0  0  0  0  0  0  0  0  0  0
    9.2649  -13.9085   19.7837 C   0  0  2  0  0  0  0  0  0  0  0  0
   10.2312  -14.3658   18.7724 N   0  0  0  0  0  0  0  0  0  0  0  0
    9.0398  -14.9735   20.7820 C   0  0  0  0  0  0  0  0  0  0  0  0
    8.2327  -14.7957   21.7529 O   0  0  0  0  0  0  0  0  0  0  0  0
    9.6795  -16.2243   20.7368 N   0  0  0  0  0  0  0  0  0  0  0  0
    9.5038  -17.2418   21.7615 C   0  0  1  0  0  0  0  0  0  0  0  0
   10.0239  -18.5680   21.3557 C   0  0  0  0  0  0  0  0  0  0  0  0
   11.4206  -18.7605   21.8610 C   0  0  0  0  0  0  0  0  0  0  0  0
   12.2176  -19.5216   20.8890 C   0  0  0  0  0  0  0  0  0  0  0  0
   11.7895  -19.8974   19.7778 O   0  0  0  0  0  0  0  0  0  0  0  0
   10.1912  -16.7819   23.0354 C   0  0  0  0  0  0  0  0  0  0  0  0
   11.1044  -15.9445   22.9531 O   0  0  0  0  0  0  0  0  0  0  0  0
   13.5479  -19.8798   21.1645 O   0  0  0  0  0  0  0  0  0  0  0  0
    9.8245  -17.2749   24.3104 N   0  0  0  0  0  0  0  0  0  0  0  0
   10.2196  -16.6559   25.5664 C   0  0  1  0  0  0  0  0  0  0  0  0
    9.9470  -15.1921   25.5752 C   0  0  0  0  0  0  0  0  0  0  0  0
    8.5184  -14.9065   25.7897 C   0  0  0  0  0  0  0  0  0  0  0  0
    7.4420  -15.7810   25.5836 C   0  0  0  0  0  0  0  0  0  0  0  0
    6.2962  -15.1345   25.8549 N   0  0  0  0  0  0  0  0  0  0  0  0
    6.5412  -13.8709   26.2342 C   0  0  0  0  0  0  0  0  0  0  0  0
    5.7092  -12.8384   26.6254 C   0  0  0  0  0  0  0  0  0  0  0  0
    6.2508  -11.6277   26.9902 C   0  0  0  0  0  0  0  0  0  0  0  0
    7.6290  -11.4492   26.9634 C   0  0  0  0  0  0  0  0  0  0  0  0
    8.4224  -12.4956   26.5695 C   0  0  0  0  0  0  0  0  0  0  0  0
    7.9070  -13.7296   26.1948 C   0  0  0  0  0  0  0  0  0  0  0  0
    9.8298  -17.4016   26.7377 C   0  0  0  0  0  0  0  0  0  0  0  0
   10.3358  -17.0087   27.8580 O   0  0  0  0  0  0  0  0  0  0  0  0
    8.9862  -18.4710   26.8129 O   0  0  0  0  0  0  0  0  0  0  0  0
  2  1  1  1
  2  3  1  0
  4  2  1  0
  4  5  1  6
  6  4  1  0
  6  7  2  0
  8  6  1  0
  9  8  1  0
  9 10  1  6
 11 10  1  0
 12 13  2  0
 12 11  1  0
 14  9  1  0
 15 14  2  0
 16 12  1  0
 17 14  1  0
 18 19  1  1
 18 17  1  0
 20 19  1  0
 21 20  2  0
 22 23  1  0
 22 21  1  0
 23 28  2  0
 24 25  2  0
 24 23  1  0
 25 26  1  0
 26 27  2  0
 28 20  1  0
 28 27  1  0
 29 18  1  0
 30 29  2  0
 31 29  1  0
M  END
$$$$
