VEW.pdb
     RDKit          3D

 31 32  0  0  1  0  0  0  0  0999 V2000
    8.9393  -12.8910   21.0373 C   0  0  0  0  0  0  0  0  0  0  0  0
    7.8346  -13.4722   20.1878 C   0  0  1  0  0  0  0  0  0  0  0  0
    7.2371  -12.4556   19.2708 C   0  0  0  0  0  0  0  0  0  0  0  0
    8.2469  -14.7628   19.5111 C   0  0  2  0  0  0  0  0  0  0  0  0
    7.1331  -15.2232   18.6668 N   0  0  0  0  0  0  0  0  0  0  0  0
    8.6369  -15.8299   20.4550 C   0  0  0  0  0  0  0  0  0  0  0  0
    7.7541  -16.4647   21.1208 O   0  0  0  0  0  0  0  0  0  0  0  0
    9.9701  -16.2130   20.6820 N   0  0  0  0  0  0  0  0  0  0  0  0
   10.3518  -17.2023   21.6779 C   0  0  1  0  0  0  0  0  0  0  0  0
   11.5527  -17.9788   21.2920 C   0  0  0  0  0  0  0  0  0  0  0  0
   11.2720  -18.8095   20.0777 C   0  0  0  0  0  0  0  0  0  0  0  0
   12.4739  -19.5534   19.6760 C   0  0  0  0  0  0  0  0  0  0  0  0
   13.5245  -19.0144   19.2696 O   0  0  0  0  0  0  0  0  0  0  0  0
   10.5910  -16.5002   23.0033 C   0  0  0  0  0  0  0  0  0  0  0  0
   11.4484  -15.6036   23.0587 O   0  0  0  0  0  0  0  0  0  0  0  0
   12.5091  -20.9569   19.7288 O   0  0  0  0  0  0  0  0  0  0  0  0
    9.8691  -16.8333   24.1743 N   0  0  0  0  0  0  0  0  0  0  0  0
   10.2701  -16.4401   25.5165 C   0  0  1  0  0  0  0  0  0  0  0  0
    9.9428  -15.0154   25.8000 C   0  0  0  0  0  0  0  0  0  0  0  0
    8.4884  -14.7944   25.8657 C   0  0  0  0  0  0  0  0  0  0  0  0
    7.4793  -15.7456   25.6585 C   0  0  0  0  0  0  0  0  0  0  0  0
    6.2832  -15.1442   25.7683 N   0  0  0  0  0  0  0  0  0  0  0  0
    6.4305  -13.8383   26.0396 C   0  0  0  0  0  0  0  0  0  0  0  0
    5.5168  -12.8236   26.2562 C   0  0  0  0  0  0  0  0  0  0  0  0
    5.9630  -11.5544   26.5429 C   0  0  0  0  0  0  0  0  0  0  0  0
    7.3275  -11.2994   26.6132 C   0  0  0  0  0  0  0  0  0  0  0  0
    8.2038  -12.3304   26.3922 C   0  0  0  0  0  0  0  0  0  0  0  0
    7.7857  -13.6221   26.1000 C   0  0  0  0  0  0  0  0  0  0  0  0
    9.9362  -17.4040   26.5360 C   0  0  0  0  0  0  0  0  0  0  0  0
   10.3950  -17.1652   27.7183 O   0  0  0  0  0  0  0  0  0  0  0  0
    9.1892  -18.5385   26.4099 O   0  0  0  0  0  0  0  0  0  0  0  0
  2  1  1  6
  2  3  1  0
  4  2  1  0
  4  5  1  1
  6  4  1  0
  6  7  2  0
  8  6  1  0
  9  8  1  0
  9 10  1  6
 11 10  1  0
 12 13  2  0
 12 11  1  0
 14  9  1  0
 15 14  2  0
 16 12  1  0
 17 14  1  0
 18 19  1  1
 18 17  1  0
 20 19  1  0
 21 20  2  0
 22 23  1  0
 22 21  1  0
 23 28  2  0
 24 25  2  0
 24 23  1  0
 25 26  1  0
 26 27  2  0
 28 20  1  0
 28 27  1  0
 29 18  1  0
 30 29  2  0
 31 29  1  0
M  END
$$$$
