VEW.pdb
     RDKit          3D

 31 32  0  0  1  0  0  0  0  0999 V2000
    9.1377  -12.9754   21.0227 C   0  0  0  0  0  0  0  0  0  0  0  0
    7.8381  -13.5155   20.4757 C   0  0  1  0  0  0  0  0  0  0  0  0
    7.2046  -12.5759   19.5025 C   0  0  0  0  0  0  0  0  0  0  0  0
    7.9704  -14.9397   19.9781 C   0  0  2  0  0  0  0  0  0  0  0  0
    6.6484  -15.3997   19.5239 N   0  0  0  0  0  0  0  0  0  0  0  0
    8.5083  -15.8739   20.9879 C   0  0  0  0  0  0  0  0  0  0  0  0
    7.7550  -16.3535   21.8979 O   0  0  0  0  0  0  0  0  0  0  0  0
    9.8503  -16.2909   21.0191 N   0  0  0  0  0  0  0  0  0  0  0  0
   10.3616  -17.2439   21.9919 C   0  0  1  0  0  0  0  0  0  0  0  0
   11.6173  -17.8981   21.5569 C   0  0  0  0  0  0  0  0  0  0  0  0
   12.0760  -18.8875   22.5835 C   0  0  0  0  0  0  0  0  0  0  0  0
   13.3155  -19.5441   22.1455 C   0  0  0  0  0  0  0  0  0  0  0  0
   14.4416  -19.0060   22.1854 O   0  0  0  0  0  0  0  0  0  0  0  0
   10.5793  -16.5293   23.3144 C   0  0  0  0  0  0  0  0  0  0  0  0
   11.1886  -15.4473   23.3159 O   0  0  0  0  0  0  0  0  0  0  0  0
   13.3020  -20.8556   21.6418 O   0  0  0  0  0  0  0  0  0  0  0  0
   10.1101  -17.0550   24.5419 N   0  0  0  0  0  0  0  0  0  0  0  0
   10.4156  -16.4797   25.8429 C   0  0  1  0  0  0  0  0  0  0  0  0
   10.0330  -15.0428   25.9196 C   0  0  0  0  0  0  0  0  0  0  0  0
    8.5714  -14.8669   25.8875 C   0  0  0  0  0  0  0  0  0  0  0  0
    7.6035  -15.8685   25.7257 C   0  0  0  0  0  0  0  0  0  0  0  0
    6.3860  -15.3009   25.7123 N   0  0  0  0  0  0  0  0  0  0  0  0
    6.4798  -13.9702   25.8573 C   0  0  0  0  0  0  0  0  0  0  0  0
    5.5263  -12.9713   25.9228 C   0  0  0  0  0  0  0  0  0  0  0  0
    5.9186  -11.6653   26.1023 C   0  0  0  0  0  0  0  0  0  0  0  0
    7.2692  -11.3573   26.2168 C   0  0  0  0  0  0  0  0  0  0  0  0
    8.1861  -12.3741   26.1467 C   0  0  0  0  0  0  0  0  0  0  0  0
    7.8227  -13.7022   25.9654 C   0  0  0  0  0  0  0  0  0  0  0  0
   10.0448  -17.3165   26.9575 C   0  0  0  0  0  0  0  0  0  0  0  0
    9.6101  -18.4959   26.6650 O   0  0  0  0  0  0  0  0  0  0  0  0
   10.1004  -17.0202   28.2879 O   0  0  0  0  0  0  0  0  0  0  0  0
  2  1  1  6
  2  3  1  0
  4  2  1  0
  4  5  1  1
  6  4  1  0
  6  7  2  0
  8  6  1  0
  9  8  1  0
  9 10  1  6
 11 10  1  0
 12 13  2  0
 12 11  1  0
 14  9  1  0
 15 14  2  0
 16 12  1  0
 17 14  1  0
 18 19  1  1
 18 17  1  0
 20 19  1  0
 21 20  2  0
 22 23  1  0
 22 21  1  0
 23 28  2  0
 24 25  2  0
 24 23  1  0
 25 26  1  0
 26 27  2  0
 28 20  1  0
 28 27  1  0
 29 18  1  0
 30 29  2  0
 31 29  1  0
M  END
$$$$
