VEW.pdb
     RDKit          3D

 31 32  0  0  1  0  0  0  0  0999 V2000
    8.6261  -13.0200   21.6834 C   0  0  0  0  0  0  0  0  0  0  0  0
    7.7771  -13.8423   20.7438 C   0  0  1  0  0  0  0  0  0  0  0  0
    7.2112  -13.0199   19.6327 C   0  0  0  0  0  0  0  0  0  0  0  0
    8.4764  -15.1083   20.2946 C   0  0  2  0  0  0  0  0  0  0  0  0
    7.6268  -15.7827   19.3001 N   0  0  0  0  0  0  0  0  0  0  0  0
    8.7912  -16.0367   21.3994 C   0  0  0  0  0  0  0  0  0  0  0  0
    7.8994  -16.8194   21.8662 O   0  0  0  0  0  0  0  0  0  0  0  0
   10.0592  -16.1236   21.9996 N   0  0  0  0  0  0  0  0  0  0  0  0
   10.4007  -17.1353   22.9876 C   0  0  1  0  0  0  0  0  0  0  0  0
   11.6992  -17.7944   22.7164 C   0  0  0  0  0  0  0  0  0  0  0  0
   11.7404  -18.3137   21.3121 C   0  0  0  0  0  0  0  0  0  0  0  0
   13.0391  -18.9434   21.0359 C   0  0  0  0  0  0  0  0  0  0  0  0
   13.6186  -18.8912   19.9310 O   0  0  0  0  0  0  0  0  0  0  0  0
   10.4218  -16.4928   24.3637 C   0  0  0  0  0  0  0  0  0  0  0  0
   10.9843  -15.3944   24.5021 O   0  0  0  0  0  0  0  0  0  0  0  0
   13.7227  -19.6615   22.0312 O   0  0  0  0  0  0  0  0  0  0  0  0
    9.8213  -17.1035   25.4905 N   0  0  0  0  0  0  0  0  0  0  0  0
    9.9995  -16.6405   26.8582 C   0  0  1  0  0  0  0  0  0  0  0  0
    8.6969  -16.4104   27.5419 C   0  0  0  0  0  0  0  0  0  0  0  0
    7.7714  -15.6329   26.7008 C   0  0  0  0  0  0  0  0  0  0  0  0
    6.8108  -16.1374   25.8128 C   0  0  0  0  0  0  0  0  0  0  0  0
    6.1950  -15.1094   25.2057 N   0  0  0  0  0  0  0  0  0  0  0  0
    6.6875  -13.9380   25.6369 C   0  0  0  0  0  0  0  0  0  0  0  0
    6.3739  -12.6269   25.3306 C   0  0  0  0  0  0  0  0  0  0  0  0
    7.0428  -11.6017   25.9578 C   0  0  0  0  0  0  0  0  0  0  0  0
    8.0287  -11.8889   26.8946 C   0  0  0  0  0  0  0  0  0  0  0  0
    8.3128  -13.2010   27.1724 C   0  0  0  0  0  0  0  0  0  0  0  0
    7.6565  -14.2585   26.5563 C   0  0  0  0  0  0  0  0  0  0  0  0
   11.0080  -17.3606   27.5960 C   0  0  0  0  0  0  0  0  0  0  0  0
   11.4888  -18.4135   27.0253 O   0  0  0  0  0  0  0  0  0  0  0  0
   11.5245  -17.0658   28.8238 O   0  0  0  0  0  0  0  0  0  0  0  0
  2  1  1  6
  2  3  1  0
  4  2  1  0
  4  5  1  6
  6  4  1  0
  6  7  2  0
  8  6  1  0
  9  8  1  0
  9 10  1  6
 11 10  1  0
 12 13  2  0
 12 11  1  0
 14  9  1  0
 15 14  2  0
 16 12  1  0
 17 14  1  0
 18 19  1  1
 18 17  1  0
 20 19  1  0
 21 20  2  0
 22 23  1  0
 22 21  1  0
 23 28  2  0
 24 25  2  0
 24 23  1  0
 25 26  1  0
 26 27  2  0
 28 20  1  0
 28 27  1  0
 29 18  1  0
 30 29  2  0
 31 29  1  0
M  END
$$$$
