VEW.pdb
     RDKit          3D

 31 32  0  0  1  0  0  0  0  0999 V2000
    6.3685  -13.9709   20.4405 C   0  0  0  0  0  0  0  0  0  0  0  0
    7.7116  -13.7718   19.7801 C   0  0  1  0  0  0  0  0  0  0  0  0
    7.6951  -12.6422   18.8028 C   0  0  0  0  0  0  0  0  0  0  0  0
    8.8444  -13.7171   20.7839 C   0  0  2  0  0  0  0  0  0  0  0  0
   10.0883  -13.3958   20.0662 N   0  0  0  0  0  0  0  0  0  0  0  0
    9.0162  -14.9657   21.5539 C   0  0  0  0  0  0  0  0  0  0  0  0
    8.0629  -15.4306   22.2615 O   0  0  0  0  0  0  0  0  0  0  0  0
   10.2076  -15.7115   21.5630 N   0  0  0  0  0  0  0  0  0  0  0  0
   10.4097  -16.8718   22.4169 C   0  0  1  0  0  0  0  0  0  0  0  0
   11.6285  -17.6395   22.0715 C   0  0  0  0  0  0  0  0  0  0  0  0
   11.6830  -18.9160   22.8531 C   0  0  0  0  0  0  0  0  0  0  0  0
   12.0054  -20.0451   21.9696 C   0  0  0  0  0  0  0  0  0  0  0  0
   11.2489  -20.4639   21.0686 O   0  0  0  0  0  0  0  0  0  0  0  0
   10.4771  -16.4133   23.8633 C   0  0  0  0  0  0  0  0  0  0  0  0
   11.2370  -15.4766   24.1587 O   0  0  0  0  0  0  0  0  0  0  0  0
   13.2214  -20.7379   22.0931 O   0  0  0  0  0  0  0  0  0  0  0  0
    9.7028  -17.0170   24.8827 N   0  0  0  0  0  0  0  0  0  0  0  0
    9.8619  -16.7335   26.3008 C   0  0  1  0  0  0  0  0  0  0  0  0
    8.5557  -16.7215   27.0157 C   0  0  0  0  0  0  0  0  0  0  0  0
    7.6101  -15.7726   26.4045 C   0  0  0  0  0  0  0  0  0  0  0  0
    6.5467  -16.0768   25.5427 C   0  0  0  0  0  0  0  0  0  0  0  0
    5.9447  -14.9345   25.1721 N   0  0  0  0  0  0  0  0  0  0  0  0
    6.5439  -13.8756   25.7381 C   0  0  0  0  0  0  0  0  0  0  0  0
    6.2858  -12.5187   25.6797 C   0  0  0  0  0  0  0  0  0  0  0  0
    7.0685  -11.6446   26.3977 C   0  0  0  0  0  0  0  0  0  0  0  0
    8.1127  -12.1294   27.1765 C   0  0  0  0  0  0  0  0  0  0  0  0
    8.3388  -13.4812   27.2096 C   0  0  0  0  0  0  0  0  0  0  0  0
    7.5676  -14.3896   26.4961 C   0  0  0  0  0  0  0  0  0  0  0  0
   10.9442  -17.4527   26.9264 C   0  0  0  0  0  0  0  0  0  0  0  0
   11.5500  -18.3233   26.1913 O   0  0  0  0  0  0  0  0  0  0  0  0
   11.4144  -17.3253   28.2006 O   0  0  0  0  0  0  0  0  0  0  0  0
  2  1  1  1
  2  3  1  0
  4  2  1  0
  4  5  1  6
  6  4  1  0
  6  7  2  0
  8  6  1  0
  9  8  1  0
  9 10  1  6
 11 10  1  0
 12 13  2  0
 12 11  1  0
 14  9  1  0
 15 14  2  0
 16 12  1  0
 17 14  1  0
 18 19  1  1
 18 17  1  0
 20 19  1  0
 21 20  2  0
 22 23  1  0
 22 21  1  0
 23 28  2  0
 24 25  2  0
 24 23  1  0
 25 26  1  0
 26 27  2  0
 28 20  1  0
 28 27  1  0
 29 18  1  0
 30 29  2  0
 31 29  1  0
M  END
$$$$
