AYC.pdb
     RDKit          3D

 24 24  0  0  1  0  0  0  0  0999 V2000
   23.4203  -12.8482  -17.9968 C   0  0  0  0  0  0  0  0  0  0  0  0
   23.7413  -11.7046  -17.0588 C   0  0  2  0  0  0  0  0  0  0  0  0
   24.1190  -12.1894  -15.7495 N   0  0  0  0  0  0  0  0  0  0  0  0
   22.6309  -10.7551  -16.9400 C   0  0  0  0  0  0  0  0  0  0  0  0
   22.1327  -10.1283  -17.9191 O   0  0  0  0  0  0  0  0  0  0  0  0
   16.8859  -13.9886  -18.0266 O   0  0  0  0  0  0  0  0  0  0  0  0
   17.6214  -13.1137  -17.2138 C   0  0  0  0  0  0  0  0  0  0  0  0
   17.3263  -11.7682  -17.1547 C   0  0  0  0  0  0  0  0  0  0  0  0
   18.0495  -10.9088  -16.3558 C   0  0  0  0  0  0  0  0  0  0  0  0
   19.1008  -11.3477  -15.5777 C   0  0  0  0  0  0  0  0  0  0  0  0
   19.8456  -10.3996  -14.7405 C   0  0  0  0  0  0  0  0  0  0  0  0
   20.8937   -9.6296  -15.5143 C   0  0  2  0  0  0  0  0  0  0  0  0
   22.0486  -10.4929  -15.6665 N   0  0  0  0  0  0  0  0  0  0  0  0
   21.2631   -8.4035  -14.7318 C   0  0  0  0  0  0  0  0  0  0  0  0
   22.0945   -8.4560  -13.7917 O   0  0  0  0  0  0  0  0  0  0  0  0
   19.3966  -12.6938  -15.6363 C   0  0  0  0  0  0  0  0  0  0  0  0
   18.6697  -13.5676  -16.4416 C   0  0  0  0  0  0  0  0  0  0  0  0
   20.6675   -7.1731  -15.0572 N   0  0  0  0  0  0  0  0  0  0  0  0
   20.9949   -5.9159  -14.4430 C   0  0  1  0  0  0  0  0  0  0  0  0
   22.4686   -5.5972  -14.5499 C   0  0  0  0  0  0  0  0  0  0  0  0
   22.7208   -4.0164  -13.6607 S   0  0  0  0  0  0  0  0  0  0  0  0
   20.1406   -4.8068  -14.9310 C   0  0  0  0  0  0  0  0  0  0  0  0
   20.1181   -3.6263  -14.2051 O   0  0  0  0  0  0  0  0  0  0  0  0
   19.4290   -4.8600  -15.9644 O   0  0  0  0  0  0  0  0  0  0  0  0
  2  1  1  6
  2  4  1  0
  2  3  1  0
  4  5  2  0
  7  6  1  0
  7 17  2  0
  8  7  1  0
  9  8  2  0
  9 10  1  0
 10 16  2  0
 11 10  1  0
 12 11  1  1
 13 12  1  0
 13  4  1  0
 14 12  1  0
 14 15  2  0
 16 17  1  0
 18 14  1  0
 19 18  1  0
 19 22  1  0
 20 21  1  0
 19 20  1  6
 22 24  2  0
 22 23  1  0
M  END
$$$$
