AYC.pdb
     RDKit          3D

 24 24  0  0  1  0  0  0  0  0999 V2000
   27.0640  -19.3867  -16.3803 C   0  0  0  0  0  0  0  0  0  0  0  0
   27.5324  -20.0891  -15.1241 C   0  0  2  0  0  0  0  0  0  0  0  0
   27.6215  -21.5187  -15.3238 N   0  0  0  0  0  0  0  0  0  0  0  0
   26.6749  -19.7970  -13.9717 C   0  0  0  0  0  0  0  0  0  0  0  0
   26.3326  -18.6292  -13.6268 O   0  0  0  0  0  0  0  0  0  0  0  0
   20.2318  -19.6009  -15.9199 O   0  0  0  0  0  0  0  0  0  0  0  0
   21.1871  -20.0893  -15.0167 C   0  0  0  0  0  0  0  0  0  0  0  0
   21.2245  -19.6591  -13.7073 C   0  0  0  0  0  0  0  0  0  0  0  0
   22.1636  -20.1395  -12.8202 C   0  0  0  0  0  0  0  0  0  0  0  0
   23.1102  -21.0708  -13.1939 C   0  0  0  0  0  0  0  0  0  0  0  0
   24.0931  -21.5569  -12.2182 C   0  0  0  0  0  0  0  0  0  0  0  0
   25.2724  -20.6225  -12.0563 C   0  0  2  0  0  0  0  0  0  0  0  0
   26.1755  -20.8601  -13.1654 N   0  0  0  0  0  0  0  0  0  0  0  0
   25.9555  -20.9329  -10.7567 C   0  0  0  0  0  0  0  0  0  0  0  0
   26.4520  -22.0653  -10.5353 O   0  0  0  0  0  0  0  0  0  0  0  0
   23.0735  -21.5017  -14.5039 C   0  0  0  0  0  0  0  0  0  0  0  0
   22.1270  -21.0202  -15.4055 C   0  0  0  0  0  0  0  0  0  0  0  0
   26.0413  -19.9377   -9.7684 N   0  0  0  0  0  0  0  0  0  0  0  0
   26.5579  -20.1408   -8.4429 C   0  0  1  0  0  0  0  0  0  0  0  0
   27.2315  -18.9018   -7.8988 C   0  0  0  0  0  0  0  0  0  0  0  0
   27.8244  -19.3314   -6.2204 S   0  0  0  0  0  0  0  0  0  0  0  0
   25.5379  -20.6830   -7.5136 C   0  0  0  0  0  0  0  0  0  0  0  0
   25.9658  -21.2258   -6.3122 O   0  0  0  0  0  0  0  0  0  0  0  0
   24.3023  -20.6861   -7.7382 O   0  0  0  0  0  0  0  0  0  0  0  0
  2  1  1  6
  2  4  1  0
  2  3  1  0
  4  5  2  0
  7  6  1  0
  7 17  2  0
  8  7  1  0
  9  8  2  0
  9 10  1  0
 10 16  2  0
 11 10  1  0
 12 11  1  6
 13 12  1  0
 13  4  1  0
 14 12  1  0
 14 15  2  0
 16 17  1  0
 18 14  1  0
 19 18  1  0
 19 22  1  0
 20 21  1  0
 19 20  1  1
 22 24  2  0
 22 23  1  0
M  END
$$$$
