AYC.pdb
     RDKit          3D

 24 24  0  0  1  0  0  0  0  0999 V2000
   26.3192  -22.3134  -18.0710 C   0  0  0  0  0  0  0  0  0  0  0  0
   26.8735  -22.6582  -16.7055 C   0  0  2  0  0  0  0  0  0  0  0  0
   27.2813  -24.0442  -16.6388 N   0  0  0  0  0  0  0  0  0  0  0  0
   25.9227  -22.3636  -15.6295 C   0  0  0  0  0  0  0  0  0  0  0  0
   25.2598  -23.2477  -15.0140 O   0  0  0  0  0  0  0  0  0  0  0  0
   29.3712  -21.4975   -9.6671 O   0  0  0  0  0  0  0  0  0  0  0  0
   28.4157  -21.0214  -10.5767 C   0  0  0  0  0  0  0  0  0  0  0  0
   27.0714  -21.0167  -10.2704 C   0  0  0  0  0  0  0  0  0  0  0  0
   26.1328  -20.5487  -11.1647 C   0  0  0  0  0  0  0  0  0  0  0  0
   26.4874  -20.0632  -12.4063 C   0  0  0  0  0  0  0  0  0  0  0  0
   25.4565  -19.5739  -13.3296 C   0  0  0  0  0  0  0  0  0  0  0  0
   24.8082  -20.6837  -14.1285 C   0  0  2  0  0  0  0  0  0  0  0  0
   25.7013  -21.0168  -15.2210 N   0  0  0  0  0  0  0  0  0  0  0  0
   23.4976  -20.1865  -14.6641 C   0  0  0  0  0  0  0  0  0  0  0  0
   23.4277  -19.5932  -15.7692 O   0  0  0  0  0  0  0  0  0  0  0  0
   27.8322  -20.0676  -12.7135 C   0  0  0  0  0  0  0  0  0  0  0  0
   28.7859  -20.5392  -11.8142 C   0  0  0  0  0  0  0  0  0  0  0  0
   22.3259  -20.3884  -13.9151 N   0  0  0  0  0  0  0  0  0  0  0  0
   20.9982  -20.4246  -14.4637 C   0  0  1  0  0  0  0  0  0  0  0  0
   20.8740  -21.4283  -15.5872 C   0  0  0  0  0  0  0  0  0  0  0  0
   19.1873  -21.2304  -16.2722 S   0  0  0  0  0  0  0  0  0  0  0  0
   19.9593  -20.6115  -13.4226 C   0  0  0  0  0  0  0  0  0  0  0  0
   18.7176  -20.0286  -13.6212 O   0  0  0  0  0  0  0  0  0  0  0  0
   20.1246  -21.2659  -12.3635 O   0  0  0  0  0  0  0  0  0  0  0  0
  2  1  1  6
  2  4  1  0
  2  3  1  0
  4  5  2  0
  7  6  1  0
  7 17  2  0
  8  7  1  0
  9  8  2  0
  9 10  1  0
 10 16  2  0
 11 10  1  0
 12 11  1  1
 13 12  1  0
 13  4  1  0
 14 12  1  0
 14 15  2  0
 16 17  1  0
 18 14  1  0
 19 18  1  0
 19 22  1  0
 20 21  1  0
 19 20  1  6
 22 24  2  0
 22 23  1  0
M  END
$$$$
