AYC.pdb
     RDKit          3D

 24 24  0  0  1  0  0  0  0  0999 V2000
   21.2053  -20.5337  -15.9395 C   0  0  0  0  0  0  0  0  0  0  0  0
   22.0664  -19.6472  -15.0658 C   0  0  2  0  0  0  0  0  0  0  0  0
   21.3049  -19.0922  -13.9686 N   0  0  0  0  0  0  0  0  0  0  0  0
   22.7059  -18.5700  -15.8268 C   0  0  0  0  0  0  0  0  0  0  0  0
   22.1934  -18.0299  -16.8492 O   0  0  0  0  0  0  0  0  0  0  0  0
   27.9508  -11.5769  -17.1742 O   0  0  0  0  0  0  0  0  0  0  0  0
   27.3143  -12.7023  -16.6307 C   0  0  0  0  0  0  0  0  0  0  0  0
   26.2997  -13.3493  -17.3036 C   0  0  0  0  0  0  0  0  0  0  0  0
   25.6746  -14.4553  -16.7689 C   0  0  0  0  0  0  0  0  0  0  0  0
   26.0295  -14.9698  -15.5391 C   0  0  0  0  0  0  0  0  0  0  0  0
   25.3385  -16.1497  -15.0052 C   0  0  0  0  0  0  0  0  0  0  0  0
   24.5897  -16.9236  -16.0685 C   0  0  2  0  0  0  0  0  0  0  0  0
   23.9793  -18.0717  -15.4269 N   0  0  0  0  0  0  0  0  0  0  0  0
   25.5687  -17.3737  -17.1130 C   0  0  0  0  0  0  0  0  0  0  0  0
   26.5490  -18.1013  -16.8174 O   0  0  0  0  0  0  0  0  0  0  0  0
   27.0446  -14.3229  -14.8652 C   0  0  0  0  0  0  0  0  0  0  0  0
   27.6804  -13.2048  -15.4000 C   0  0  0  0  0  0  0  0  0  0  0  0
   25.3851  -16.9734  -18.4474 N   0  0  0  0  0  0  0  0  0  0  0  0
   26.2091  -17.3892  -19.5488 C   0  0  1  0  0  0  0  0  0  0  0  0
   25.3880  -17.8339  -20.7375 C   0  0  0  0  0  0  0  0  0  0  0  0
   26.5826  -18.3372  -22.0309 S   0  0  0  0  0  0  0  0  0  0  0  0
   27.2246  -16.3722  -19.9129 C   0  0  0  0  0  0  0  0  0  0  0  0
   26.7931  -15.0877  -20.2041 O   0  0  0  0  0  0  0  0  0  0  0  0
   28.4593  -16.5925  -19.9772 O   0  0  0  0  0  0  0  0  0  0  0  0
  2  1  1  6
  2  4  1  0
  2  3  1  0
  4  5  2  0
  7  6  1  0
  7 17  2  0
  8  7  1  0
  9  8  2  0
  9 10  1  0
 10 16  2  0
 11 10  1  0
 12 11  1  1
 13 12  1  0
 13  4  1  0
 14 12  1  0
 14 15  2  0
 16 17  1  0
 18 14  1  0
 19 18  1  0
 19 22  1  0
 20 21  1  0
 19 20  1  6
 22 24  2  0
 22 23  1  0
M  END
$$$$
