AYC.pdb
     RDKit          3D

 24 24  0  0  1  0  0  0  0  0999 V2000
   28.3237  -23.4791  -16.7102 C   0  0  0  0  0  0  0  0  0  0  0  0
   27.9765  -22.0855  -17.1880 C   0  0  2  0  0  0  0  0  0  0  0  0
   28.9638  -21.5889  -18.1209 N   0  0  0  0  0  0  0  0  0  0  0  0
   27.8170  -21.1415  -16.0781 C   0  0  0  0  0  0  0  0  0  0  0  0
   28.7838  -20.6481  -15.4287 O   0  0  0  0  0  0  0  0  0  0  0  0
   27.8429  -14.6973  -18.0643 O   0  0  0  0  0  0  0  0  0  0  0  0
   27.2334  -15.6947  -17.2893 C   0  0  0  0  0  0  0  0  0  0  0  0
   26.4586  -16.6793  -17.8649 C   0  0  0  0  0  0  0  0  0  0  0  0
   25.8599  -17.6593  -17.1027 C   0  0  0  0  0  0  0  0  0  0  0  0
   26.0038  -17.7061  -15.7315 C   0  0  0  0  0  0  0  0  0  0  0  0
   25.3495  -18.7670  -14.9563 C   0  0  0  0  0  0  0  0  0  0  0  0
   26.3060  -19.8599  -14.5314 C   0  0  2  0  0  0  0  0  0  0  0  0
   26.5149  -20.7282  -15.6736 N   0  0  0  0  0  0  0  0  0  0  0  0
   25.6845  -20.6292  -13.4028 C   0  0  0  0  0  0  0  0  0  0  0  0
   24.8460  -21.5395  -13.6181 O   0  0  0  0  0  0  0  0  0  0  0  0
   26.7790  -16.7214  -15.1549 C   0  0  0  0  0  0  0  0  0  0  0  0
   27.3868  -15.7281  -15.9195 C   0  0  0  0  0  0  0  0  0  0  0  0
   26.0474  -20.3256  -12.0797 N   0  0  0  0  0  0  0  0  0  0  0  0
   25.4389  -20.8981  -10.9106 C   0  0  1  0  0  0  0  0  0  0  0  0
   26.1186  -20.4488   -9.6374 C   0  0  0  0  0  0  0  0  0  0  0  0
   25.1568  -21.1705   -8.2563 S   0  0  0  0  0  0  0  0  0  0  0  0
   23.9721  -20.6852  -10.8728 C   0  0  0  0  0  0  0  0  0  0  0  0
   23.1585  -21.7672  -10.5754 O   0  0  0  0  0  0  0  0  0  0  0  0
   23.4081  -19.5850  -11.0928 O   0  0  0  0  0  0  0  0  0  0  0  0
  2  1  1  1
  2  4  1  0
  2  3  1  0
  4  5  2  0
  7  6  1  0
  7 17  2  0
  8  7  1  0
  9  8  2  0
  9 10  1  0
 10 16  2  0
 11 10  1  0
 12 11  1  6
 13 12  1  0
 13  4  1  0
 14 12  1  0
 14 15  2  0
 16 17  1  0
 18 14  1  0
 19 18  1  0
 19 22  1  0
 20 21  1  0
 19 20  1  1
 22 24  2  0
 22 23  1  0
M  END
$$$$
