AYC.pdb
     RDKit          3D

 24 24  0  0  1  0  0  0  0  0999 V2000
   16.8894  -27.0674   -6.8104 C   0  0  0  0  0  0  0  0  0  0  0  0
   16.7881  -26.0178   -5.7245 C   0  0  2  0  0  0  0  0  0  0  0  0
   17.0165  -24.6912   -6.2534 N   0  0  0  0  0  0  0  0  0  0  0  0
   17.7067  -26.2786   -4.6125 C   0  0  0  0  0  0  0  0  0  0  0  0
   18.9113  -25.8937   -4.5891 O   0  0  0  0  0  0  0  0  0  0  0  0
   15.7726  -22.0521    0.7461 O   0  0  0  0  0  0  0  0  0  0  0  0
   16.1340  -23.3323    0.3016 C   0  0  0  0  0  0  0  0  0  0  0  0
   15.5054  -23.9241   -0.7733 C   0  0  0  0  0  0  0  0  0  0  0  0
   15.8611  -25.1823   -1.2096 C   0  0  0  0  0  0  0  0  0  0  0  0
   16.8592  -25.9112   -0.5969 C   0  0  0  0  0  0  0  0  0  0  0  0
   17.2077  -27.2481   -1.0927 C   0  0  0  0  0  0  0  0  0  0  0  0
   18.1043  -27.2079   -2.3112 C   0  0  2  0  0  0  0  0  0  0  0  0
   17.2587  -27.0042   -3.4712 N   0  0  0  0  0  0  0  0  0  0  0  0
   18.8252  -28.5195   -2.4197 C   0  0  0  0  0  0  0  0  0  0  0  0
   18.5467  -29.3436   -3.3258 O   0  0  0  0  0  0  0  0  0  0  0  0
   17.4886  -25.3197    0.4788 C   0  0  0  0  0  0  0  0  0  0  0  0
   17.1340  -24.0485    0.9247 C   0  0  0  0  0  0  0  0  0  0  0  0
   19.8313  -28.8318   -1.4897 N   0  0  0  0  0  0  0  0  0  0  0  0
   20.7045  -29.9696   -1.5775 C   0  0  1  0  0  0  0  0  0  0  0  0
   21.8544  -29.7321   -2.5296 C   0  0  0  0  0  0  0  0  0  0  0  0
   22.6078  -31.3705   -2.8479 S   0  0  0  0  0  0  0  0  0  0  0  0
   21.1608  -30.4384   -0.2471 C   0  0  0  0  0  0  0  0  0  0  0  0
   21.8322  -31.6486   -0.1714 O   0  0  0  0  0  0  0  0  0  0  0  0
   20.9813  -29.8123    0.8267 O   0  0  0  0  0  0  0  0  0  0  0  0
  2  1  1  6
  2  4  1  0
  2  3  1  0
  4  5  2  0
  7  6  1  0
  7 17  2  0
  8  7  1  0
  9  8  2  0
  9 10  1  0
 10 16  2  0
 11 10  1  0
 12 11  1  1
 13 12  1  0
 13  4  1  0
 14 12  1  0
 14 15  2  0
 16 17  1  0
 18 14  1  0
 19 18  1  0
 19 22  1  0
 20 21  1  0
 19 20  1  6
 22 24  2  0
 22 23  1  0
M  END
$$$$
