AYC.pdb
     RDKit          3D

 24 24  0  0  1  0  0  0  0  0999 V2000
   28.0300  -21.2972  -18.4188 C   0  0  0  0  0  0  0  0  0  0  0  0
   28.6369  -21.9856  -17.2152 C   0  0  2  0  0  0  0  0  0  0  0  0
   29.2754  -23.2287  -17.5876 N   0  0  0  0  0  0  0  0  0  0  0  0
   27.6512  -22.2263  -16.1573 C   0  0  0  0  0  0  0  0  0  0  0  0
   26.9903  -23.2985  -16.0413 O   0  0  0  0  0  0  0  0  0  0  0  0
   23.0649  -20.7373   -8.6681 O   0  0  0  0  0  0  0  0  0  0  0  0
   23.9635  -20.6644   -9.7425 C   0  0  0  0  0  0  0  0  0  0  0  0
   25.2107  -21.2488   -9.6774 C   0  0  0  0  0  0  0  0  0  0  0  0
   26.0933  -21.1768  -10.7336 C   0  0  0  0  0  0  0  0  0  0  0  0
   25.7768  -20.5199  -11.9047 C   0  0  0  0  0  0  0  0  0  0  0  0
   26.7456  -20.4664  -13.0062 C   0  0  0  0  0  0  0  0  0  0  0  0
   26.3932  -21.3990  -14.1447 C   0  0  2  0  0  0  0  0  0  0  0  0
   27.3908  -21.2212  -15.1817 N   0  0  0  0  0  0  0  0  0  0  0  0
   25.0347  -21.0298  -14.6642 C   0  0  0  0  0  0  0  0  0  0  0  0
   24.8826  -20.0863  -15.4793 O   0  0  0  0  0  0  0  0  0  0  0  0
   24.5292  -19.9350  -11.9705 C   0  0  0  0  0  0  0  0  0  0  0  0
   23.6325  -20.0040  -10.9067 C   0  0  0  0  0  0  0  0  0  0  0  0
   23.9110  -21.7537  -14.2304 N   0  0  0  0  0  0  0  0  0  0  0  0
   22.5657  -21.5276  -14.6821 C   0  0  1  0  0  0  0  0  0  0  0  0
   22.4262  -21.7232  -16.1745 C   0  0  0  0  0  0  0  0  0  0  0  0
   20.6612  -21.4370  -16.5698 S   0  0  0  0  0  0  0  0  0  0  0  0
   21.5701  -22.3133  -13.9143 C   0  0  0  0  0  0  0  0  0  0  0  0
   20.2247  -22.0655  -14.1363 O   0  0  0  0  0  0  0  0  0  0  0  0
   21.8604  -23.1957  -13.0692 O   0  0  0  0  0  0  0  0  0  0  0  0
  2  1  1  6
  2  4  1  0
  2  3  1  0
  4  5  2  0
  7  6  1  0
  7 17  2  0
  8  7  1  0
  9  8  2  0
  9 10  1  0
 10 16  2  0
 11 10  1  0
 12 11  1  1
 13 12  1  0
 13  4  1  0
 14 12  1  0
 14 15  2  0
 16 17  1  0
 18 14  1  0
 19 18  1  0
 19 22  1  0
 20 21  1  0
 19 20  1  6
 22 24  2  0
 22 23  1  0
M  END
$$$$
