AYC.pdb
     RDKit          3D

 24 24  0  0  1  0  0  0  0  0999 V2000
   16.9422   -9.0695  -21.7611 C   0  0  0  0  0  0  0  0  0  0  0  0
   17.8542   -9.9938  -20.9834 C   0  0  2  0  0  0  0  0  0  0  0  0
   17.4309  -11.3716  -21.1022 N   0  0  0  0  0  0  0  0  0  0  0  0
   17.9497   -9.6194  -19.5695 C   0  0  0  0  0  0  0  0  0  0  0  0
   16.9832   -9.6867  -18.7564 O   0  0  0  0  0  0  0  0  0  0  0  0
   20.1418  -14.9864  -16.5171 O   0  0  0  0  0  0  0  0  0  0  0  0
   20.2382  -13.5934  -16.6479 C   0  0  0  0  0  0  0  0  0  0  0  0
   20.8836  -13.0150  -17.7203 C   0  0  0  0  0  0  0  0  0  0  0  0
   20.9781  -11.6459  -17.8482 C   0  0  0  0  0  0  0  0  0  0  0  0
   20.4347  -10.7873  -16.9151 C   0  0  0  0  0  0  0  0  0  0  0  0
   20.5573   -9.3349  -17.0887 C   0  0  0  0  0  0  0  0  0  0  0  0
   19.3073   -8.7039  -17.6625 C   0  0  2  0  0  0  0  0  0  0  0  0
   19.1841   -9.1470  -19.0375 N   0  0  0  0  0  0  0  0  0  0  0  0
   19.4562   -7.2116  -17.6107 C   0  0  0  0  0  0  0  0  0  0  0  0
   20.0810   -6.5873  -18.5039 O   0  0  0  0  0  0  0  0  0  0  0  0
   19.7888  -11.3652  -15.8419 C   0  0  0  0  0  0  0  0  0  0  0  0
   19.6898  -12.7482  -15.7066 C   0  0  0  0  0  0  0  0  0  0  0  0
   18.8857   -6.4988  -16.5425 N   0  0  0  0  0  0  0  0  0  0  0  0
   18.8498   -5.0660  -16.4392 C   0  0  1  0  0  0  0  0  0  0  0  0
   18.4125   -4.4132  -17.7306 C   0  0  0  0  0  0  0  0  0  0  0  0
   18.4865   -2.6058  -17.4463 S   0  0  0  0  0  0  0  0  0  0  0  0
   18.0578   -4.6010  -15.2753 C   0  0  0  0  0  0  0  0  0  0  0  0
   18.5061   -3.4911  -14.5766 O   0  0  0  0  0  0  0  0  0  0  0  0
   17.0000   -5.1452  -14.8727 O   0  0  0  0  0  0  0  0  0  0  0  0
  2  1  1  6
  2  4  1  0
  2  3  1  0
  4  5  2  0
  7  6  1  0
  7 17  2  0
  8  7  1  0
  9  8  2  0
  9 10  1  0
 10 16  2  0
 11 10  1  0
 12 11  1  6
 13 12  1  0
 13  4  1  0
 14 12  1  0
 14 15  2  0
 16 17  1  0
 18 14  1  0
 19 18  1  0
 19 22  1  0
 20 21  1  0
 19 20  1  6
 22 24  2  0
 22 23  1  0
M  END
$$$$
