AYC.pdb
     RDKit          3D

 24 24  0  0  1  0  0  0  0  0999 V2000
   26.4597  -13.8899  -15.7985 C   0  0  0  0  0  0  0  0  0  0  0  0
   25.1649  -13.1886  -16.1485 C   0  0  2  0  0  0  0  0  0  0  0  0
   24.6298  -13.6692  -17.4033 N   0  0  0  0  0  0  0  0  0  0  0  0
   25.3172  -11.7315  -16.1943 C   0  0  0  0  0  0  0  0  0  0  0  0
   25.7946  -11.0432  -15.2466 O   0  0  0  0  0  0  0  0  0  0  0  0
   31.3083  -10.4424  -18.0223 O   0  0  0  0  0  0  0  0  0  0  0  0
   29.9472  -10.1402  -18.1741 C   0  0  0  0  0  0  0  0  0  0  0  0
   29.4230   -8.9435  -17.7335 C   0  0  0  0  0  0  0  0  0  0  0  0
   28.0852   -8.6471  -17.8830 C   0  0  0  0  0  0  0  0  0  0  0  0
   27.2055   -9.5276  -18.4779 C   0  0  0  0  0  0  0  0  0  0  0  0
   25.7880   -9.1734  -18.6178 C   0  0  0  0  0  0  0  0  0  0  0  0
   24.9635   -9.5596  -17.4090 C   0  0  2  0  0  0  0  0  0  0  0  0
   24.9172  -11.0078  -17.3545 N   0  0  0  0  0  0  0  0  0  0  0  0
   23.5798   -9.0030  -17.5745 C   0  0  0  0  0  0  0  0  0  0  0  0
   22.8170   -9.4121  -18.4848 O   0  0  0  0  0  0  0  0  0  0  0  0
   27.7293  -10.7252  -18.9190 C   0  0  0  0  0  0  0  0  0  0  0  0
   29.0803  -11.0309  -18.7710 C   0  0  0  0  0  0  0  0  0  0  0  0
   23.1287   -8.0050  -16.6941 N   0  0  0  0  0  0  0  0  0  0  0  0
   21.7960   -7.4677  -16.6775 C   0  0  1  0  0  0  0  0  0  0  0  0
   20.7549   -8.5358  -16.4321 C   0  0  0  0  0  0  0  0  0  0  0  0
   19.1492   -7.6677  -16.2866 S   0  0  0  0  0  0  0  0  0  0  0  0
   21.6585   -6.3211  -15.7476 C   0  0  0  0  0  0  0  0  0  0  0  0
   20.6432   -5.4062  -15.9782 O   0  0  0  0  0  0  0  0  0  0  0  0
   22.4023   -6.1170  -14.7566 O   0  0  0  0  0  0  0  0  0  0  0  0
  2  1  1  6
  2  4  1  0
  2  3  1  0
  4  5  2  0
  7  6  1  0
  7 17  2  0
  8  7  1  0
  9  8  2  0
  9 10  1  0
 10 16  2  0
 11 10  1  0
 12 11  1  6
 13 12  1  0
 13  4  1  0
 14 12  1  0
 14 15  2  0
 16 17  1  0
 18 14  1  0
 19 18  1  0
 19 22  1  0
 20 21  1  0
 19 20  1  1
 22 24  2  0
 22 23  1  0
M  END
$$$$
