AYC.pdb
     RDKit          3D

 24 24  0  0  1  0  0  0  0  0999 V2000
   16.7221  -10.9152  -13.5984 C   0  0  0  0  0  0  0  0  0  0  0  0
   15.8039  -10.6552  -12.4236 C   0  0  2  0  0  0  0  0  0  0  0  0
   14.4440  -11.0456  -12.7234 N   0  0  0  0  0  0  0  0  0  0  0  0
   15.8391   -9.2553  -11.9904 C   0  0  0  0  0  0  0  0  0  0  0  0
   15.2152   -8.3220  -12.5730 O   0  0  0  0  0  0  0  0  0  0  0  0
   10.7777   -7.7181   -8.0846 O   0  0  0  0  0  0  0  0  0  0  0  0
   12.1594   -7.6276   -8.3081 C   0  0  0  0  0  0  0  0  0  0  0  0
   12.9655   -8.7460   -8.2889 C   0  0  0  0  0  0  0  0  0  0  0  0
   14.3232   -8.6564   -8.5086 C   0  0  0  0  0  0  0  0  0  0  0  0
   14.9433   -7.4496   -8.7580 C   0  0  0  0  0  0  0  0  0  0  0  0
   16.3922   -7.3974   -8.9869 C   0  0  0  0  0  0  0  0  0  0  0  0
   16.7597   -7.4938  -10.4518 C   0  0  2  0  0  0  0  0  0  0  0  0
   16.6081   -8.8793  -10.8515 N   0  0  0  0  0  0  0  0  0  0  0  0
   18.1866   -7.0601  -10.6179 C   0  0  0  0  0  0  0  0  0  0  0  0
   19.1085   -7.5774   -9.9394 O   0  0  0  0  0  0  0  0  0  0  0  0
   14.1374   -6.3301   -8.7774 C   0  0  0  0  0  0  0  0  0  0  0  0
   12.7646   -6.4138   -8.5561 C   0  0  0  0  0  0  0  0  0  0  0  0
   18.4974   -6.0558  -11.5503 N   0  0  0  0  0  0  0  0  0  0  0  0
   19.8273   -5.7130  -11.9735 C   0  0  1  0  0  0  0  0  0  0  0  0
   20.5614   -6.8980  -12.5581 C   0  0  0  0  0  0  0  0  0  0  0  0
   22.2214   -6.2916  -13.0374 S   0  0  0  0  0  0  0  0  0  0  0  0
   19.8501   -4.5349  -12.8732 C   0  0  0  0  0  0  0  0  0  0  0  0
   20.9370   -3.6775  -12.8057 O   0  0  0  0  0  0  0  0  0  0  0  0
   18.9473   -4.2549  -13.7001 O   0  0  0  0  0  0  0  0  0  0  0  0
  2  1  1  6
  2  4  1  0
  2  3  1  0
  4  5  2  0
  7  6  1  0
  7 17  2  0
  8  7  1  0
  9  8  2  0
  9 10  1  0
 10 16  2  0
 11 10  1  0
 12 11  1  1
 13 12  1  0
 13  4  1  0
 14 12  1  0
 14 15  2  0
 16 17  1  0
 18 14  1  0
 19 18  1  0
 19 22  1  0
 20 21  1  0
 19 20  1  6
 22 24  2  0
 22 23  1  0
M  END
$$$$
