AYC.pdb
     RDKit          3D

 24 24  0  0  1  0  0  0  0  0999 V2000
   27.8291  -20.3394  -17.7758 C   0  0  0  0  0  0  0  0  0  0  0  0
   28.2009  -21.4762  -16.8482 C   0  0  2  0  0  0  0  0  0  0  0  0
   28.3619  -22.7160  -17.5752 N   0  0  0  0  0  0  0  0  0  0  0  0
   27.2267  -21.6524  -15.7672 C   0  0  0  0  0  0  0  0  0  0  0  0
   26.1736  -22.3446  -15.8743 O   0  0  0  0  0  0  0  0  0  0  0  0
   23.8723  -20.8101   -7.5187 O   0  0  0  0  0  0  0  0  0  0  0  0
   24.6738  -20.7674   -8.6689 C   0  0  0  0  0  0  0  0  0  0  0  0
   25.7904  -19.9616   -8.7375 C   0  0  0  0  0  0  0  0  0  0  0  0
   26.5776  -19.9201   -9.8681 C   0  0  0  0  0  0  0  0  0  0  0  0
   26.2910  -20.6786  -10.9842 C   0  0  0  0  0  0  0  0  0  0  0  0
   27.1552  -20.6054  -12.1684 C   0  0  0  0  0  0  0  0  0  0  0  0
   26.4991  -21.1682  -13.4106 C   0  0  2  0  0  0  0  0  0  0  0  0
   27.4386  -21.0253  -14.5056 N   0  0  0  0  0  0  0  0  0  0  0  0
   25.2520  -20.3825  -13.6923 C   0  0  0  0  0  0  0  0  0  0  0  0
   25.3060  -19.1783  -14.0458 O   0  0  0  0  0  0  0  0  0  0  0  0
   25.1738  -21.4851  -10.9163 C   0  0  0  0  0  0  0  0  0  0  0  0
   24.3741  -21.5316   -9.7767 C   0  0  0  0  0  0  0  0  0  0  0  0
   23.9998  -21.0058  -13.5580 N   0  0  0  0  0  0  0  0  0  0  0  0
   22.7345  -20.3566  -13.7640 C   0  0  1  0  0  0  0  0  0  0  0  0
   22.4776  -20.0611  -15.2240 C   0  0  0  0  0  0  0  0  0  0  0  0
   22.5664  -21.6672  -16.0991 S   0  0  0  0  0  0  0  0  0  0  0  0
   21.6117  -21.0886  -13.1302 C   0  0  0  0  0  0  0  0  0  0  0  0
   20.3674  -20.4791  -13.0933 O   0  0  0  0  0  0  0  0  0  0  0  0
   21.7074  -22.2318  -12.6194 O   0  0  0  0  0  0  0  0  0  0  0  0
  2  1  1  6
  2  4  1  0
  2  3  1  0
  4  5  2  0
  7  6  1  0
  7 17  2  0
  8  7  1  0
  9  8  2  0
  9 10  1  0
 10 16  2  0
 11 10  1  0
 12 11  1  1
 13 12  1  0
 13  4  1  0
 14 12  1  0
 14 15  2  0
 16 17  1  0
 18 14  1  0
 19 18  1  0
 19 22  1  0
 20 21  1  0
 19 20  1  6
 22 24  2  0
 22 23  1  0
M  END
$$$$
