AYC.pdb
     RDKit          3D

 24 24  0  0  1  0  0  0  0  0999 V2000
   27.7340  -21.2535  -18.3048 C   0  0  0  0  0  0  0  0  0  0  0  0
   28.3268  -22.0086  -17.1346 C   0  0  2  0  0  0  0  0  0  0  0  0
   28.8259  -23.3031  -17.5434 N   0  0  0  0  0  0  0  0  0  0  0  0
   27.3722  -22.1650  -16.0334 C   0  0  0  0  0  0  0  0  0  0  0  0
   26.6055  -23.1623  -15.9024 O   0  0  0  0  0  0  0  0  0  0  0  0
   23.8212  -20.6208   -8.0173 O   0  0  0  0  0  0  0  0  0  0  0  0
   24.5741  -20.5553   -9.1988 C   0  0  0  0  0  0  0  0  0  0  0  0
   25.7647  -21.2380   -9.3313 C   0  0  0  0  0  0  0  0  0  0  0  0
   26.5041  -21.1731  -10.4926 C   0  0  0  0  0  0  0  0  0  0  0  0
   26.0940  -20.4259  -11.5773 C   0  0  0  0  0  0  0  0  0  0  0  0
   26.9109  -20.3835  -12.7960 C   0  0  0  0  0  0  0  0  0  0  0  0
   26.4018  -21.3115  -13.8776 C   0  0  2  0  0  0  0  0  0  0  0  0
   27.2686  -21.1591  -15.0298 N   0  0  0  0  0  0  0  0  0  0  0  0
   24.9982  -20.9139  -14.2292 C   0  0  0  0  0  0  0  0  0  0  0  0
   24.7556  -19.8326  -14.8207 O   0  0  0  0  0  0  0  0  0  0  0  0
   24.9028  -19.7426  -11.4455 C   0  0  0  0  0  0  0  0  0  0  0  0
   24.1507  -19.8039  -10.2745 C   0  0  0  0  0  0  0  0  0  0  0  0
   23.9348  -21.7675  -13.8901 N   0  0  0  0  0  0  0  0  0  0  0  0
   22.5494  -21.4993  -14.1620 C   0  0  1  0  0  0  0  0  0  0  0  0
   21.8570  -22.6795  -14.8046 C   0  0  0  0  0  0  0  0  0  0  0  0
   22.6230  -22.8920  -16.4542 S   0  0  0  0  0  0  0  0  0  0  0  0
   21.8238  -20.9998  -12.9695 C   0  0  0  0  0  0  0  0  0  0  0  0
   20.5299  -20.5318  -13.1360 O   0  0  0  0  0  0  0  0  0  0  0  0
   22.3013  -20.9697  -11.8084 O   0  0  0  0  0  0  0  0  0  0  0  0
  2  1  1  6
  2  4  1  0
  2  3  1  0
  4  5  2  0
  7  6  1  0
  7 17  2  0
  8  7  1  0
  9  8  2  0
  9 10  1  0
 10 16  2  0
 11 10  1  0
 12 11  1  1
 13 12  1  0
 13  4  1  0
 14 12  1  0
 14 15  2  0
 16 17  1  0
 18 14  1  0
 19 18  1  0
 19 22  1  0
 20 21  1  0
 19 20  1  1
 22 24  2  0
 22 23  1  0
M  END
$$$$
