AYC.pdb
     RDKit          3D

 24 24  0  0  1  0  0  0  0  0999 V2000
   24.8164  -24.8802  -14.8977 C   0  0  0  0  0  0  0  0  0  0  0  0
   25.2800  -23.6824  -15.6984 C   0  0  2  0  0  0  0  0  0  0  0  0
   26.7106  -23.7132  -15.9088 N   0  0  0  0  0  0  0  0  0  0  0  0
   24.8928  -22.4137  -15.0748 C   0  0  0  0  0  0  0  0  0  0  0  0
   23.6949  -22.0784  -14.8459 O   0  0  0  0  0  0  0  0  0  0  0  0
   23.7909  -21.3505   -7.9549 O   0  0  0  0  0  0  0  0  0  0  0  0
   24.4618  -21.0449   -9.1480 C   0  0  0  0  0  0  0  0  0  0  0  0
   23.7792  -20.6195  -10.2679 C   0  0  0  0  0  0  0  0  0  0  0  0
   24.4391  -20.3193  -11.4401 C   0  0  0  0  0  0  0  0  0  0  0  0
   25.8097  -20.4282  -11.5537 C   0  0  0  0  0  0  0  0  0  0  0  0
   26.4740  -20.0987  -12.8204 C   0  0  0  0  0  0  0  0  0  0  0  0
   25.5575  -20.2327  -14.0171 C   0  0  2  0  0  0  0  0  0  0  0  0
   25.8913  -21.4740  -14.6880 N   0  0  0  0  0  0  0  0  0  0  0  0
   25.7930  -19.0686  -14.9344 C   0  0  0  0  0  0  0  0  0  0  0  0
   25.9424  -17.9049  -14.4858 O   0  0  0  0  0  0  0  0  0  0  0  0
   26.4933  -20.8538  -10.4336 C   0  0  0  0  0  0  0  0  0  0  0  0
   25.8324  -21.1587   -9.2458 C   0  0  0  0  0  0  0  0  0  0  0  0
   25.8476  -19.2846  -16.3218 N   0  0  0  0  0  0  0  0  0  0  0  0
   26.7035  -18.5717  -17.2295 C   0  0  1  0  0  0  0  0  0  0  0  0
   28.1446  -18.5740  -16.7731 C   0  0  0  0  0  0  0  0  0  0  0  0
   28.3604  -17.0794  -15.7373 S   0  0  0  0  0  0  0  0  0  0  0  0
   26.5544  -19.0334  -18.6305 C   0  0  0  0  0  0  0  0  0  0  0  0
   27.3319  -18.4311  -19.6072 O   0  0  0  0  0  0  0  0  0  0  0  0
   25.7671  -19.9393  -18.9999 O   0  0  0  0  0  0  0  0  0  0  0  0
  2  1  1  1
  2  4  1  0
  2  3  1  0
  4  5  2  0
  7  6  1  0
  7 17  2  0
  8  7  1  0
  9  8  2  0
  9 10  1  0
 10 16  2  0
 11 10  1  0
 12 11  1  1
 13 12  1  0
 13  4  1  0
 14 12  1  0
 14 15  2  0
 16 17  1  0
 18 14  1  0
 19 18  1  0
 19 22  1  0
 20 21  1  0
 19 20  1  1
 22 24  2  0
 22 23  1  0
M  END
$$$$
