AYC.pdb
     RDKit          3D

 24 24  0  0  1  0  0  0  0  0999 V2000
   18.0466   -9.6502  -19.0085 C   0  0  0  0  0  0  0  0  0  0  0  0
   18.9630  -10.6108  -18.2816 C   0  0  2  0  0  0  0  0  0  0  0  0
   18.2511  -11.7958  -17.8565 N   0  0  0  0  0  0  0  0  0  0  0  0
   19.6251   -9.9854  -17.1332 C   0  0  0  0  0  0  0  0  0  0  0  0
   19.1703  -10.0198  -15.9535 O   0  0  0  0  0  0  0  0  0  0  0  0
   23.9298  -14.7080  -15.6382 O   0  0  0  0  0  0  0  0  0  0  0  0
   23.7101  -13.3359  -15.8278 C   0  0  0  0  0  0  0  0  0  0  0  0
   23.7585  -12.4478  -14.7742 C   0  0  0  0  0  0  0  0  0  0  0  0
   23.5425  -11.0994  -14.9612 C   0  0  0  0  0  0  0  0  0  0  0  0
   23.2680  -10.5707  -16.2055 C   0  0  0  0  0  0  0  0  0  0  0  0
   23.0441   -9.1285  -16.3619 C   0  0  0  0  0  0  0  0  0  0  0  0
   21.5924   -8.7370  -16.1904 C   0  0  2  0  0  0  0  0  0  0  0  0
   20.8545   -9.2877  -17.3104 N   0  0  0  0  0  0  0  0  0  0  0  0
   21.4960   -7.2395  -16.1927 C   0  0  0  0  0  0  0  0  0  0  0  0
   21.1705   -6.6087  -17.2290 O   0  0  0  0  0  0  0  0  0  0  0  0
   23.2195  -11.4587  -17.2602 C   0  0  0  0  0  0  0  0  0  0  0  0
   23.4368  -12.8226  -17.0780 C   0  0  0  0  0  0  0  0  0  0  0  0
   21.7752   -6.5293  -15.0127 N   0  0  0  0  0  0  0  0  0  0  0  0
   21.5878   -5.1146  -14.8435 C   0  0  1  0  0  0  0  0  0  0  0  0
   20.1653   -4.6909  -15.1299 C   0  0  0  0  0  0  0  0  0  0  0  0
   20.0935   -2.8863  -14.8276 S   0  0  0  0  0  0  0  0  0  0  0  0
   22.0658   -4.6329  -13.5254 C   0  0  0  0  0  0  0  0  0  0  0  0
   22.6872   -3.3955  -13.4638 O   0  0  0  0  0  0  0  0  0  0  0  0
   21.9472   -5.2710  -12.4502 O   0  0  0  0  0  0  0  0  0  0  0  0
  2  1  1  1
  2  4  1  0
  2  3  1  0
  4  5  2  0
  7  6  1  0
  7 17  2  0
  8  7  1  0
  9  8  2  0
  9 10  1  0
 10 16  2  0
 11 10  1  0
 12 11  1  6
 13 12  1  0
 13  4  1  0
 14 12  1  0
 14 15  2  0
 16 17  1  0
 18 14  1  0
 19 18  1  0
 19 22  1  0
 20 21  1  0
 19 20  1  1
 22 24  2  0
 22 23  1  0
M  END
$$$$
