SCY.pdb
     RDKit          3D

 25 25  0  0  1  0  0  0  0  0999 V2000
   17.5865  -13.8659  -17.4093 O   0  0  0  0  0  0  0  0  0  0  0  0
   18.1372  -12.6824  -17.8727 C   0  0  0  0  0  0  0  0  0  0  0  0
   18.4062  -11.7909  -16.6749 C   0  0  2  0  0  0  0  0  0  0  0  0
   17.1120  -11.5662  -16.0339 N   0  0  0  0  0  0  0  0  0  0  0  0
   18.8942  -10.4596  -17.1111 C   0  0  0  0  0  0  0  0  0  0  0  0
   19.4048  -10.3650  -18.2699 O   0  0  0  0  0  0  0  0  0  0  0  0
   18.8204   -9.2917  -16.3040 N   0  0  0  0  0  0  0  0  0  0  0  0
   19.3083   -8.0075  -16.8073 C   0  0  1  0  0  0  0  0  0  0  0  0
   18.1317   -7.3209  -17.4687 C   0  0  0  0  0  0  0  0  0  0  0  0
   16.7393   -7.3433  -16.3070 S   0  0  0  0  0  0  0  0  0  0  0  0
   19.6750   -7.1820  -15.6144 C   0  0  0  0  0  0  0  0  0  0  0  0
   18.9542   -7.1506  -14.5735 O   0  0  0  0  0  0  0  0  0  0  0  0
   25.5886  -10.2280  -15.8025 O   0  0  0  0  0  0  0  0  0  0  0  0
   24.6896   -9.3098  -15.2372 C   0  0  0  0  0  0  0  0  0  0  0  0
   23.7911   -9.7356  -14.2822 C   0  0  0  0  0  0  0  0  0  0  0  0
   22.9023   -8.8563  -13.7149 C   0  0  0  0  0  0  0  0  0  0  0  0
   22.8646   -7.5114  -14.0704 C   0  0  0  0  0  0  0  0  0  0  0  0
   21.8932   -6.5801  -13.4486 C   0  0  0  0  0  0  0  0  0  0  0  0
   21.2770   -5.6127  -14.4342 C   0  0  2  0  0  0  0  0  0  0  0  0
   20.8532   -6.3881  -15.5856 N   0  0  0  0  0  0  0  0  0  0  0  0
   22.2338   -4.5873  -14.9074 C   0  0  0  0  0  0  0  0  0  0  0  0
   22.7425   -3.6340  -14.0417 O   0  0  0  0  0  0  0  0  0  0  0  0
   23.7682   -7.0996  -15.0263 C   0  0  0  0  0  0  0  0  0  0  0  0
   24.6777   -7.9880  -15.6099 C   0  0  0  0  0  0  0  0  0  0  0  0
   22.6088   -4.5550  -16.1054 O   0  0  0  0  0  0  0  0  0  0  0  0
  1  2  1  0
  2  3  1  0
  3  5  1  0
  3  4  1  6
  5  6  2  0
  7  5  1  0
  7  8  1  0
  8 11  1  0
  8  9  1  1
 10  9  1  0
 11 20  1  0
 11 12  2  0
 14 13  1  0
 15 14  2  0
 16 15  1  0
 17 16  2  0
 17 23  1  0
 18 17  1  0
 19 18  1  1
 19 21  1  0
 20 19  1  0
 21 25  2  0
 21 22  1  0
 23 24  2  0
 24 14  1  0
M  END
$$$$
