SCY.pdb
     RDKit          3D

 25 25  0  0  1  0  0  0  0  0999 V2000
   20.5786  -16.2929  -16.4086 O   0  0  0  0  0  0  0  0  0  0  0  0
   21.7875  -16.9575  -16.2841 C   0  0  0  0  0  0  0  0  0  0  0  0
   22.4872  -16.9119  -17.6295 C   0  0  2  0  0  0  0  0  0  0  0  0
   21.7882  -17.8677  -18.4863 N   0  0  0  0  0  0  0  0  0  0  0  0
   23.8836  -17.3988  -17.5112 C   0  0  0  0  0  0  0  0  0  0  0  0
   24.2325  -18.3824  -18.2345 O   0  0  0  0  0  0  0  0  0  0  0  0
   24.8451  -16.8248  -16.6355 N   0  0  0  0  0  0  0  0  0  0  0  0
   26.2065  -17.3570  -16.5737 C   0  0  1  0  0  0  0  0  0  0  0  0
   27.0993  -16.2236  -16.1139 C   0  0  0  0  0  0  0  0  0  0  0  0
   26.5368  -15.6919  -14.4738 S   0  0  0  0  0  0  0  0  0  0  0  0
   26.2235  -18.3874  -15.4888 C   0  0  0  0  0  0  0  0  0  0  0  0
   27.3051  -18.8198  -14.9916 O   0  0  0  0  0  0  0  0  0  0  0  0
   24.4625  -21.9932   -7.7921 O   0  0  0  0  0  0  0  0  0  0  0  0
   24.7129  -21.3079   -8.9914 C   0  0  0  0  0  0  0  0  0  0  0  0
   25.9568  -21.3955   -9.5794 C   0  0  0  0  0  0  0  0  0  0  0  0
   26.2254  -20.7343  -10.7523 C   0  0  0  0  0  0  0  0  0  0  0  0
   25.2697  -19.9542  -11.3964 C   0  0  0  0  0  0  0  0  0  0  0  0
   25.5827  -19.2448  -12.6598 C   0  0  0  0  0  0  0  0  0  0  0  0
   24.9904  -19.9103  -13.8819 C   0  0  2  0  0  0  0  0  0  0  0  0
   25.0254  -18.9366  -14.9576 N   0  0  0  0  0  0  0  0  0  0  0  0
   23.5810  -20.3185  -13.6876 C   0  0  0  0  0  0  0  0  0  0  0  0
   22.5420  -19.4465  -13.9650 O   0  0  0  0  0  0  0  0  0  0  0  0
   24.0309  -19.8755  -10.7974 C   0  0  0  0  0  0  0  0  0  0  0  0
   23.7476  -20.5456   -9.6025 C   0  0  0  0  0  0  0  0  0  0  0  0
   23.2910  -21.4654  -13.2662 O   0  0  0  0  0  0  0  0  0  0  0  0
  1  2  1  0
  2  3  1  0
  3  5  1  0
  3  4  1  6
  5  6  2  0
  7  5  1  0
  7  8  1  0
  8 11  1  0
  8  9  1  1
 10  9  1  0
 11 20  1  0
 11 12  2  0
 14 13  1  0
 15 14  2  0
 16 15  1  0
 17 16  2  0
 17 23  1  0
 18 17  1  0
 19 18  1  1
 19 21  1  0
 20 19  1  0
 21 25  2  0
 21 22  1  0
 23 24  2  0
 24 14  1  0
M  END
$$$$
