SCY.pdb
     RDKit          3D

 25 25  0  0  1  0  0  0  0  0999 V2000
   24.6770  -20.1298  -16.0713 O   0  0  0  0  0  0  0  0  0  0  0  0
   25.1154  -21.1334  -16.9193 C   0  0  0  0  0  0  0  0  0  0  0  0
   26.6317  -21.0918  -16.9489 C   0  0  2  0  0  0  0  0  0  0  0  0
   27.0523  -22.1627  -17.8504 N   0  0  0  0  0  0  0  0  0  0  0  0
   27.1916  -21.4227  -15.6156 C   0  0  0  0  0  0  0  0  0  0  0  0
   27.3459  -22.6490  -15.3243 O   0  0  0  0  0  0  0  0  0  0  0  0
   27.5620  -20.4441  -14.6533 N   0  0  0  0  0  0  0  0  0  0  0  0
   28.0965  -20.8456  -13.3518 C   0  0  1  0  0  0  0  0  0  0  0  0
   29.4010  -20.0996  -13.1653 C   0  0  0  0  0  0  0  0  0  0  0  0
   30.0369  -20.4800  -11.5100 S   0  0  0  0  0  0  0  0  0  0  0  0
   27.1512  -20.3286  -12.3135 C   0  0  0  0  0  0  0  0  0  0  0  0
   26.7446  -19.1291  -12.3146 O   0  0  0  0  0  0  0  0  0  0  0  0
   21.0124  -19.7075  -14.3896 O   0  0  0  0  0  0  0  0  0  0  0  0
   21.8879  -20.1588  -13.3894 C   0  0  0  0  0  0  0  0  0  0  0  0
   21.7814  -19.6529  -12.1114 C   0  0  0  0  0  0  0  0  0  0  0  0
   22.6263  -20.0789  -11.1165 C   0  0  0  0  0  0  0  0  0  0  0  0
   23.6176  -21.0284  -11.3452 C   0  0  0  0  0  0  0  0  0  0  0  0
   24.5223  -21.4707  -10.2574 C   0  0  0  0  0  0  0  0  0  0  0  0
   25.8102  -20.6805  -10.1923 C   0  0  2  0  0  0  0  0  0  0  0  0
   26.6584  -21.1569  -11.2693 N   0  0  0  0  0  0  0  0  0  0  0  0
   26.5413  -20.8774   -8.9205 C   0  0  0  0  0  0  0  0  0  0  0  0
   26.1052  -20.2830   -7.7486 O   0  0  0  0  0  0  0  0  0  0  0  0
   23.7128  -21.5254  -12.6273 C   0  0  0  0  0  0  0  0  0  0  0  0
   22.8566  -21.0977  -13.6476 C   0  0  0  0  0  0  0  0  0  0  0  0
   27.5755  -21.5881   -8.8712 O   0  0  0  0  0  0  0  0  0  0  0  0
  1  2  1  0
  2  3  1  0
  3  5  1  0
  3  4  1  6
  5  6  2  0
  7  5  1  0
  7  8  1  0
  8 11  1  0
  8  9  1  1
 10  9  1  0
 11 20  1  0
 11 12  2  0
 14 13  1  0
 15 14  2  0
 16 15  1  0
 17 16  2  0
 17 23  1  0
 18 17  1  0
 19 18  1  1
 19 21  1  0
 20 19  1  0
 21 25  2  0
 21 22  1  0
 23 24  2  0
 24 14  1  0
M  END
$$$$
