SCY.pdb
     RDKit          3D

 25 25  0  0  1  0  0  0  0  0999 V2000
   28.6047  -10.8179  -16.3571 O   0  0  0  0  0  0  0  0  0  0  0  0
   28.1137  -12.0189  -15.8723 C   0  0  0  0  0  0  0  0  0  0  0  0
   27.4955  -12.7746  -17.0336 C   0  0  2  0  0  0  0  0  0  0  0  0
   28.4668  -12.7138  -18.1241 N   0  0  0  0  0  0  0  0  0  0  0  0
   26.2763  -12.0832  -17.5196 C   0  0  0  0  0  0  0  0  0  0  0  0
   26.4190  -11.1700  -18.3902 O   0  0  0  0  0  0  0  0  0  0  0  0
   24.9647  -12.3883  -17.0641 N   0  0  0  0  0  0  0  0  0  0  0  0
   23.8018  -11.7090  -17.6357 C   0  0  1  0  0  0  0  0  0  0  0  0
   22.7045  -12.7456  -17.7558 C   0  0  0  0  0  0  0  0  0  0  0  0
   23.0527  -13.7699  -19.2114 S   0  0  0  0  0  0  0  0  0  0  0  0
   23.3406  -10.7074  -16.6242 C   0  0  0  0  0  0  0  0  0  0  0  0
   23.5024  -10.8866  -15.3810 O   0  0  0  0  0  0  0  0  0  0  0  0
   22.6499   -2.2003  -14.5642 O   0  0  0  0  0  0  0  0  0  0  0  0
   22.8551   -3.5666  -14.8124 C   0  0  0  0  0  0  0  0  0  0  0  0
   23.6608   -3.9553  -15.8614 C   0  0  0  0  0  0  0  0  0  0  0  0
   23.8764   -5.2856  -16.1238 C   0  0  0  0  0  0  0  0  0  0  0  0
   23.3009   -6.2930  -15.3553 C   0  0  0  0  0  0  0  0  0  0  0  0
   23.5433   -7.7235  -15.6593 C   0  0  0  0  0  0  0  0  0  0  0  0
   22.2920   -8.4687  -16.0668 C   0  0  2  0  0  0  0  0  0  0  0  0
   22.6956   -9.4998  -17.0051 N   0  0  0  0  0  0  0  0  0  0  0  0
   21.3026   -7.6021  -16.7456 C   0  0  0  0  0  0  0  0  0  0  0  0
   20.2724   -7.0069  -16.0377 O   0  0  0  0  0  0  0  0  0  0  0  0
   22.4977   -5.8901  -14.3101 C   0  0  0  0  0  0  0  0  0  0  0  0
   22.2721   -4.5372  -14.0349 C   0  0  0  0  0  0  0  0  0  0  0  0
   21.3716   -7.3843  -17.9805 O   0  0  0  0  0  0  0  0  0  0  0  0
  1  2  1  0
  2  3  1  0
  3  5  1  0
  3  4  1  6
  5  6  2  0
  7  5  1  0
  7  8  1  0
  8 11  1  0
  8  9  1  1
 10  9  1  0
 11 20  1  0
 11 12  2  0
 14 13  1  0
 15 14  2  0
 16 15  1  0
 17 16  2  0
 17 23  1  0
 18 17  1  0
 19 18  1  6
 19 21  1  0
 20 19  1  0
 21 25  2  0
 21 22  1  0
 23 24  2  0
 24 14  1  0
M  END
$$$$
