SCY.pdb
     RDKit          3D

 25 25  0  0  1  0  0  0  0  0999 V2000
   19.6343  -10.5055  -16.7300 O   0  0  0  0  0  0  0  0  0  0  0  0
   20.0751  -11.4357  -17.6568 C   0  0  0  0  0  0  0  0  0  0  0  0
   19.7777  -10.8931  -19.0421 C   0  0  2  0  0  0  0  0  0  0  0  0
   20.3142  -11.8702  -19.9875 N   0  0  0  0  0  0  0  0  0  0  0  0
   20.5178   -9.6297  -19.2805 C   0  0  0  0  0  0  0  0  0  0  0  0
   21.2999   -9.5794  -20.2796 O   0  0  0  0  0  0  0  0  0  0  0  0
   20.3973   -8.4797  -18.4536 N   0  0  0  0  0  0  0  0  0  0  0  0
   21.0873   -7.2373  -18.8019 C   0  0  1  0  0  0  0  0  0  0  0  0
   20.4830   -6.7507  -20.1024 C   0  0  0  0  0  0  0  0  0  0  0  0
   21.2289   -5.1477  -20.5062 S   0  0  0  0  0  0  0  0  0  0  0  0
   20.7277   -6.2302  -17.7553 C   0  0  0  0  0  0  0  0  0  0  0  0
   19.5241   -5.9806  -17.4503 O   0  0  0  0  0  0  0  0  0  0  0  0
   19.0446   -9.7461  -12.7834 O   0  0  0  0  0  0  0  0  0  0  0  0
   19.8024   -8.6671  -13.2652 C   0  0  0  0  0  0  0  0  0  0  0  0
   19.4223   -7.3774  -12.9603 C   0  0  0  0  0  0  0  0  0  0  0  0
   20.1475   -6.3061  -13.4199 C   0  0  0  0  0  0  0  0  0  0  0  0
   21.2855   -6.4661  -14.2047 C   0  0  0  0  0  0  0  0  0  0  0  0
   22.0511   -5.2949  -14.6944 C   0  0  0  0  0  0  0  0  0  0  0  0
   21.4329   -4.6423  -15.9105 C   0  0  2  0  0  0  0  0  0  0  0  0
   21.7189   -5.4990  -17.0467 N   0  0  0  0  0  0  0  0  0  0  0  0
   22.0020   -3.3064  -16.1973 C   0  0  0  0  0  0  0  0  0  0  0  0
   22.7072   -3.0680  -17.3647 O   0  0  0  0  0  0  0  0  0  0  0  0
   21.6538   -7.7607  -14.5019 C   0  0  0  0  0  0  0  0  0  0  0  0
   20.9214   -8.8587  -14.0382 C   0  0  0  0  0  0  0  0  0  0  0  0
   21.8602   -2.3550  -15.3900 O   0  0  0  0  0  0  0  0  0  0  0  0
  1  2  1  0
  2  3  1  0
  3  5  1  0
  3  4  1  6
  5  6  2  0
  7  5  1  0
  7  8  1  0
  8 11  1  0
  8  9  1  6
 10  9  1  0
 11 20  1  0
 11 12  2  0
 14 13  1  0
 15 14  2  0
 16 15  1  0
 17 16  2  0
 17 23  1  0
 18 17  1  0
 19 18  1  1
 19 21  1  0
 20 19  1  0
 21 25  2  0
 21 22  1  0
 23 24  2  0
 24 14  1  0
M  END
$$$$
