SCY.pdb
     RDKit          3D

 25 25  0  0  1  0  0  0  0  0999 V2000
   15.6420  -14.9500  -14.6925 O   0  0  0  0  0  0  0  0  0  0  0  0
   16.8132  -14.2214  -14.8185 C   0  0  0  0  0  0  0  0  0  0  0  0
   17.5945  -14.7899  -15.9882 C   0  0  2  0  0  0  0  0  0  0  0  0
   18.4565  -15.8329  -15.4355 N   0  0  0  0  0  0  0  0  0  0  0  0
   18.4966  -13.7631  -16.5650 C   0  0  0  0  0  0  0  0  0  0  0  0
   19.7465  -13.9838  -16.5296 O   0  0  0  0  0  0  0  0  0  0  0  0
   18.0370  -12.5526  -17.1517 N   0  0  0  0  0  0  0  0  0  0  0  0
   18.9669  -11.6634  -17.8483 C   0  0  1  0  0  0  0  0  0  0  0  0
   18.3377  -11.3323  -19.1853 C   0  0  0  0  0  0  0  0  0  0  0  0
   19.3506  -10.0585  -19.9856 S   0  0  0  0  0  0  0  0  0  0  0  0
   19.0186  -10.3879  -17.0677 C   0  0  0  0  0  0  0  0  0  0  0  0
   17.9772   -9.8582  -16.5789 O   0  0  0  0  0  0  0  0  0  0  0  0
   22.9219   -3.0805  -13.6391 O   0  0  0  0  0  0  0  0  0  0  0  0
   22.6354   -4.3660  -14.1249 C   0  0  0  0  0  0  0  0  0  0  0  0
   22.7921   -4.6378  -15.4674 C   0  0  0  0  0  0  0  0  0  0  0  0
   22.5183   -5.8874  -15.9659 C   0  0  0  0  0  0  0  0  0  0  0  0
   22.0756   -6.9266  -15.1530 C   0  0  0  0  0  0  0  0  0  0  0  0
   21.7813   -8.2671  -15.7130 C   0  0  0  0  0  0  0  0  0  0  0  0
   20.3352   -8.4409  -16.1202 C   0  0  2  0  0  0  0  0  0  0  0  0
   20.2406   -9.7018  -16.8327 N   0  0  0  0  0  0  0  0  0  0  0  0
   19.8616   -7.3722  -17.0281 C   0  0  0  0  0  0  0  0  0  0  0  0
   19.0886   -6.3256  -16.5545 O   0  0  0  0  0  0  0  0  0  0  0  0
   21.9233   -6.6408  -13.8132 C   0  0  0  0  0  0  0  0  0  0  0  0
   22.1998   -5.3707  -13.2959 C   0  0  0  0  0  0  0  0  0  0  0  0
   20.1481   -7.3866  -18.2507 O   0  0  0  0  0  0  0  0  0  0  0  0
  1  2  1  0
  2  3  1  0
  3  5  1  0
  3  4  1  1
  5  6  2  0
  7  5  1  0
  7  8  1  0
  8 11  1  0
  8  9  1  6
 10  9  1  0
 11 20  1  0
 11 12  2  0
 14 13  1  0
 15 14  2  0
 16 15  1  0
 17 16  2  0
 17 23  1  0
 18 17  1  0
 19 18  1  6
 19 21  1  0
 20 19  1  0
 21 25  2  0
 21 22  1  0
 23 24  2  0
 24 14  1  0
M  END
$$$$
