SCY.pdb
     RDKit          3D

 25 25  0  0  1  0  0  0  0  0999 V2000
   18.5648  -16.2074  -14.3029 O   0  0  0  0  0  0  0  0  0  0  0  0
   18.8142  -14.9349  -14.7897 C   0  0  0  0  0  0  0  0  0  0  0  0
   18.1610  -14.8196  -16.1542 C   0  0  2  0  0  0  0  0  0  0  0  0
   18.9899  -15.5995  -17.0713 N   0  0  0  0  0  0  0  0  0  0  0  0
   18.2040  -13.4184  -16.6396 C   0  0  0  0  0  0  0  0  0  0  0  0
   18.9974  -13.1444  -17.5924 O   0  0  0  0  0  0  0  0  0  0  0  0
   17.4081  -12.3732  -16.0966 N   0  0  0  0  0  0  0  0  0  0  0  0
   17.3150  -11.0800  -16.7746 C   0  0  1  0  0  0  0  0  0  0  0  0
   15.8428  -10.7356  -16.8602 C   0  0  0  0  0  0  0  0  0  0  0  0
   15.1154  -11.6997  -18.2131 S   0  0  0  0  0  0  0  0  0  0  0  0
   17.9435  -10.0669  -15.8705 C   0  0  0  0  0  0  0  0  0  0  0  0
   17.7890  -10.1021  -14.6140 O   0  0  0  0  0  0  0  0  0  0  0  0
   22.6178   -2.6661  -13.9160 O   0  0  0  0  0  0  0  0  0  0  0  0
   22.1056   -3.8375  -14.4957 C   0  0  0  0  0  0  0  0  0  0  0  0
   21.1697   -3.7459  -15.5039 C   0  0  0  0  0  0  0  0  0  0  0  0
   20.6543   -4.8774  -16.0863 C   0  0  0  0  0  0  0  0  0  0  0  0
   21.0451   -6.1541  -15.6937 C   0  0  0  0  0  0  0  0  0  0  0  0
   20.4721   -7.3626  -16.3330 C   0  0  0  0  0  0  0  0  0  0  0  0
   19.3385   -7.9769  -15.5424 C   0  0  2  0  0  0  0  0  0  0  0  0
   18.7485   -9.0097  -16.3740 N   0  0  0  0  0  0  0  0  0  0  0  0
   18.2755   -7.0021  -15.2101 C   0  0  0  0  0  0  0  0  0  0  0  0
   18.2804   -6.3269  -14.0014 O   0  0  0  0  0  0  0  0  0  0  0  0
   21.9811   -6.2306  -14.6848 C   0  0  0  0  0  0  0  0  0  0  0  0
   22.5121   -5.0836  -14.0854 C   0  0  0  0  0  0  0  0  0  0  0  0
   17.3420   -6.7620  -16.0152 O   0  0  0  0  0  0  0  0  0  0  0  0
  1  2  1  0
  2  3  1  0
  3  5  1  0
  3  4  1  6
  5  6  2  0
  7  5  1  0
  7  8  1  0
  8 11  1  0
  8  9  1  1
 10  9  1  0
 11 20  1  0
 11 12  2  0
 14 13  1  0
 15 14  2  0
 16 15  1  0
 17 16  2  0
 17 23  1  0
 18 17  1  0
 19 18  1  6
 19 21  1  0
 20 19  1  0
 21 25  2  0
 21 22  1  0
 23 24  2  0
 24 14  1  0
M  END
$$$$
