SCY.pdb
     RDKit          3D

 25 25  0  0  1  0  0  0  0  0999 V2000
   23.8744   -9.7029  -20.4093 O   0  0  0  0  0  0  0  0  0  0  0  0
   24.7227  -10.6060  -19.7901 C   0  0  0  0  0  0  0  0  0  0  0  0
   23.8711  -11.5815  -18.9995 C   0  0  2  0  0  0  0  0  0  0  0  0
   22.9240  -12.1607  -19.9501 N   0  0  0  0  0  0  0  0  0  0  0  0
   23.0604  -10.8662  -17.9837 C   0  0  0  0  0  0  0  0  0  0  0  0
   21.8902  -10.4971  -18.3107 O   0  0  0  0  0  0  0  0  0  0  0  0
   23.5229  -10.5743  -16.6715 N   0  0  0  0  0  0  0  0  0  0  0  0
   22.6292   -9.9653  -15.6861 C   0  0  1  0  0  0  0  0  0  0  0  0
   22.8145  -10.7326  -14.3938 C   0  0  0  0  0  0  0  0  0  0  0  0
   21.6749  -12.1434  -14.4068 S   0  0  0  0  0  0  0  0  0  0  0  0
   23.1318   -8.5776  -15.4400 C   0  0  0  0  0  0  0  0  0  0  0  0
   24.3607   -8.2840  -15.5279 O   0  0  0  0  0  0  0  0  0  0  0  0
   23.9449   -0.1012  -16.9936 O   0  0  0  0  0  0  0  0  0  0  0  0
   23.7121   -1.4765  -16.8358 C   0  0  0  0  0  0  0  0  0  0  0  0
   24.6265   -2.3834  -17.3278 C   0  0  0  0  0  0  0  0  0  0  0  0
   24.4207   -3.7333  -17.1855 C   0  0  0  0  0  0  0  0  0  0  0  0
   23.2955   -4.2459  -16.5470 C   0  0  0  0  0  0  0  0  0  0  0  0
   23.0908   -5.7076  -16.4085 C   0  0  0  0  0  0  0  0  0  0  0  0
   22.6648   -6.1228  -15.0181 C   0  0  2  0  0  0  0  0  0  0  0  0
   22.2560   -7.5133  -15.0940 N   0  0  0  0  0  0  0  0  0  0  0  0
   21.5146   -5.3407  -14.5121 C   0  0  0  0  0  0  0  0  0  0  0  0
   21.7050   -4.2511  -13.6793 O   0  0  0  0  0  0  0  0  0  0  0  0
   22.3897   -3.3281  -16.0601 C   0  0  0  0  0  0  0  0  0  0  0  0
   22.5907   -1.9508  -16.2002 C   0  0  0  0  0  0  0  0  0  0  0  0
   20.3368   -5.6446  -14.8246 O   0  0  0  0  0  0  0  0  0  0  0  0
  1  2  1  0
  2  3  1  0
  3  5  1  0
  3  4  1  6
  5  6  2  0
  7  5  1  0
  7  8  1  0
  8 11  1  0
  8  9  1  1
 10  9  1  0
 11 20  1  0
 11 12  2  0
 14 13  1  0
 15 14  2  0
 16 15  1  0
 17 16  2  0
 17 23  1  0
 18 17  1  0
 19 18  1  6
 19 21  1  0
 20 19  1  0
 21 25  2  0
 21 22  1  0
 23 24  2  0
 24 14  1  0
M  END
$$$$
