SCY.pdb
     RDKit          3D

 25 25  0  0  1  0  0  0  0  0999 V2000
   18.2597  -14.4364  -18.5005 O   0  0  0  0  0  0  0  0  0  0  0  0
   18.9021  -13.5654  -17.6360 C   0  0  0  0  0  0  0  0  0  0  0  0
   19.9677  -14.3470  -16.8907 C   0  0  2  0  0  0  0  0  0  0  0  0
   19.2611  -15.1677  -15.9092 N   0  0  0  0  0  0  0  0  0  0  0  0
   20.8447  -13.4330  -16.1186 C   0  0  0  0  0  0  0  0  0  0  0  0
   20.4116  -12.9904  -15.0100 O   0  0  0  0  0  0  0  0  0  0  0  0
   22.1368  -13.0294  -16.5529 N   0  0  0  0  0  0  0  0  0  0  0  0
   22.9618  -12.1539  -15.7201 C   0  0  1  0  0  0  0  0  0  0  0  0
   24.4054  -12.4566  -16.0628 C   0  0  0  0  0  0  0  0  0  0  0  0
   25.0842  -13.5189  -14.7591 S   0  0  0  0  0  0  0  0  0  0  0  0
   22.6971  -10.7505  -16.1666 C   0  0  0  0  0  0  0  0  0  0  0  0
   22.5382  -10.4540  -17.3876 O   0  0  0  0  0  0  0  0  0  0  0  0
   20.9606   -2.0088  -15.3103 O   0  0  0  0  0  0  0  0  0  0  0  0
   21.2667   -3.3587  -15.0764 C   0  0  0  0  0  0  0  0  0  0  0  0
   20.2604   -4.3005  -15.1047 C   0  0  0  0  0  0  0  0  0  0  0  0
   20.5353   -5.6266  -14.8790 C   0  0  0  0  0  0  0  0  0  0  0  0
   21.8243   -6.0794  -14.6144 C   0  0  0  0  0  0  0  0  0  0  0  0
   22.0980   -7.5155  -14.3688 C   0  0  0  0  0  0  0  0  0  0  0  0
   22.3981   -8.2915  -15.6317 C   0  0  2  0  0  0  0  0  0  0  0  0
   22.6098   -9.6739  -15.2433 N   0  0  0  0  0  0  0  0  0  0  0  0
   23.6231   -7.8221  -16.3171 C   0  0  0  0  0  0  0  0  0  0  0  0
   24.8786   -8.1890  -15.8632 O   0  0  0  0  0  0  0  0  0  0  0  0
   22.8204   -5.1271  -14.5890 C   0  0  0  0  0  0  0  0  0  0  0  0
   22.5502   -3.7737  -14.8178 C   0  0  0  0  0  0  0  0  0  0  0  0
   23.5559   -7.0792  -17.3274 O   0  0  0  0  0  0  0  0  0  0  0  0
  1  2  1  0
  2  3  1  0
  3  5  1  0
  3  4  1  1
  5  6  2  0
  7  5  1  0
  7  8  1  0
  8 11  1  0
  8  9  1  6
 10  9  1  0
 11 20  1  0
 11 12  2  0
 14 13  1  0
 15 14  2  0
 16 15  1  0
 17 16  2  0
 17 23  1  0
 18 17  1  0
 19 18  1  1
 19 21  1  0
 20 19  1  0
 21 25  2  0
 21 22  1  0
 23 24  2  0
 24 14  1  0
M  END
$$$$
