SCY.pdb
     RDKit          3D

 25 25  0  0  1  0  0  0  0  0999 V2000
   26.2383  -17.2557  -15.5871 O   0  0  0  0  0  0  0  0  0  0  0  0
   26.5305  -17.9564  -16.7456 C   0  0  0  0  0  0  0  0  0  0  0  0
   27.4036  -19.1389  -16.3698 C   0  0  2  0  0  0  0  0  0  0  0  0
   27.6762  -19.8571  -17.6133 N   0  0  0  0  0  0  0  0  0  0  0  0
   26.6626  -20.0811  -15.4958 C   0  0  0  0  0  0  0  0  0  0  0  0
   25.9247  -20.9517  -16.0525 O   0  0  0  0  0  0  0  0  0  0  0  0
   26.7355  -20.0600  -14.0763 N   0  0  0  0  0  0  0  0  0  0  0  0
   25.9186  -20.9724  -13.2757 C   0  0  1  0  0  0  0  0  0  0  0  0
   26.6495  -21.1792  -11.9656 C   0  0  0  0  0  0  0  0  0  0  0  0
   25.5749  -22.1408  -10.8657 S   0  0  0  0  0  0  0  0  0  0  0  0
   24.6482  -20.2511  -12.9521 C   0  0  0  0  0  0  0  0  0  0  0  0
   24.6397  -19.1737  -12.2865 O   0  0  0  0  0  0  0  0  0  0  0  0
   17.2259  -15.8859  -13.3183 O   0  0  0  0  0  0  0  0  0  0  0  0
   18.3673  -16.6727  -13.5394 C   0  0  0  0  0  0  0  0  0  0  0  0
   19.5135  -16.4299  -12.8128 C   0  0  0  0  0  0  0  0  0  0  0  0
   20.6422  -17.1860  -13.0114 C   0  0  0  0  0  0  0  0  0  0  0  0
   20.6848  -18.2197  -13.9421 C   0  0  0  0  0  0  0  0  0  0  0  0
   21.9158  -19.0206  -14.1437 C   0  0  0  0  0  0  0  0  0  0  0  0
   22.1234  -20.0762  -13.0807 C   0  0  2  0  0  0  0  0  0  0  0  0
   23.3816  -20.7370  -13.3750 N   0  0  0  0  0  0  0  0  0  0  0  0
   21.0611  -21.1069  -13.0794 C   0  0  0  0  0  0  0  0  0  0  0  0
   19.9347  -20.9681  -12.2864 O   0  0  0  0  0  0  0  0  0  0  0  0
   19.5320  -18.4512  -14.6614 C   0  0  0  0  0  0  0  0  0  0  0  0
   18.3771  -17.6863  -14.4662 C   0  0  0  0  0  0  0  0  0  0  0  0
   21.1536  -22.1334  -13.7969 O   0  0  0  0  0  0  0  0  0  0  0  0
  1  2  1  0
  2  3  1  0
  3  5  1  0
  3  4  1  6
  5  6  2  0
  7  5  1  0
  7  8  1  0
  8 11  1  0
  8  9  1  1
 10  9  1  0
 11 20  1  0
 11 12  2  0
 14 13  1  0
 15 14  2  0
 16 15  1  0
 17 16  2  0
 17 23  1  0
 18 17  1  0
 19 18  1  6
 19 21  1  0
 20 19  1  0
 21 25  2  0
 21 22  1  0
 23 24  2  0
 24 14  1  0
M  END
$$$$
