SCY.pdb
     RDKit          3D

 25 25  0  0  1  0  0  0  0  0999 V2000
   32.7802  -13.5921  -21.6115 O   0  0  0  0  0  0  0  0  0  0  0  0
   32.8812  -12.6113  -20.6387 C   0  0  0  0  0  0  0  0  0  0  0  0
   33.1391  -13.2955  -19.3094 C   0  0  2  0  0  0  0  0  0  0  0  0
   31.9354  -14.0675  -19.0068 N   0  0  0  0  0  0  0  0  0  0  0  0
   33.2791  -12.2951  -18.2230 C   0  0  0  0  0  0  0  0  0  0  0  0
   32.2276  -11.9343  -17.6093 O   0  0  0  0  0  0  0  0  0  0  0  0
   34.5215  -11.7231  -17.8359 N   0  0  0  0  0  0  0  0  0  0  0  0
   34.5801  -10.7233  -16.7692 C   0  0  1  0  0  0  0  0  0  0  0  0
   36.0392  -10.5667  -16.3956 C   0  0  0  0  0  0  0  0  0  0  0  0
   36.1632   -9.2662  -15.1377 S   0  0  0  0  0  0  0  0  0  0  0  0
   34.1453   -9.4220  -17.3663 C   0  0  0  0  0  0  0  0  0  0  0  0
   34.3445   -9.1440  -18.5858 O   0  0  0  0  0  0  0  0  0  0  0  0
   29.0761   -3.0711  -20.2435 O   0  0  0  0  0  0  0  0  0  0  0  0
   29.7262   -4.1815  -19.6822 C   0  0  0  0  0  0  0  0  0  0  0  0
   29.4341   -4.5605  -18.3893 C   0  0  0  0  0  0  0  0  0  0  0  0
   30.0569   -5.6429  -17.8188 C   0  0  0  0  0  0  0  0  0  0  0  0
   31.0001   -6.4002  -18.5069 C   0  0  0  0  0  0  0  0  0  0  0  0
   31.6640   -7.5624  -17.8699 C   0  0  0  0  0  0  0  0  0  0  0  0
   32.9453   -7.2002  -17.1528 C   0  0  2  0  0  0  0  0  0  0  0  0
   33.4847   -8.4273  -16.5961 N   0  0  0  0  0  0  0  0  0  0  0  0
   32.7305   -6.2533  -16.0357 C   0  0  0  0  0  0  0  0  0  0  0  0
   32.7538   -4.8852  -16.2468 O   0  0  0  0  0  0  0  0  0  0  0  0
   31.2824   -6.0099  -19.7984 C   0  0  0  0  0  0  0  0  0  0  0  0
   30.6531   -4.9086  -20.3883 C   0  0  0  0  0  0  0  0  0  0  0  0
   32.5216   -6.6657  -14.8680 O   0  0  0  0  0  0  0  0  0  0  0  0
  1  2  1  0
  2  3  1  0
  3  5  1  0
  3  4  1  1
  5  6  2  0
  7  5  1  0
  7  8  1  0
  8 11  1  0
  8  9  1  6
 10  9  1  0
 11 20  1  0
 11 12  2  0
 14 13  1  0
 15 14  2  0
 16 15  1  0
 17 16  2  0
 17 23  1  0
 18 17  1  0
 19 18  1  1
 19 21  1  0
 20 19  1  0
 21 25  2  0
 21 22  1  0
 23 24  2  0
 24 14  1  0
M  END
$$$$
