SCY.pdb
     RDKit          3D

 25 25  0  0  1  0  0  0  0  0999 V2000
   23.5595  -12.4923  -19.2351 O   0  0  0  0  0  0  0  0  0  0  0  0
   22.7460  -11.3879  -19.0423 C   0  0  0  0  0  0  0  0  0  0  0  0
   21.7779  -11.7101  -17.9195 C   0  0  2  0  0  0  0  0  0  0  0  0
   20.7839  -12.6201  -18.4855 N   0  0  0  0  0  0  0  0  0  0  0  0
   21.0403  -10.4940  -17.4979 C   0  0  0  0  0  0  0  0  0  0  0  0
   19.8713  -10.3183  -17.9615 O   0  0  0  0  0  0  0  0  0  0  0  0
   21.5710   -9.5215  -16.6072 N   0  0  0  0  0  0  0  0  0  0  0  0
   20.7689   -8.3667  -16.2027 C   0  0  1  0  0  0  0  0  0  0  0  0
   19.6514   -8.8948  -15.3277 C   0  0  0  0  0  0  0  0  0  0  0  0
   20.3867   -9.9494  -14.0485 S   0  0  0  0  0  0  0  0  0  0  0  0
   21.6367   -7.5170  -15.3288 C   0  0  0  0  0  0  0  0  0  0  0  0
   22.4983   -8.0192  -14.5481 O   0  0  0  0  0  0  0  0  0  0  0  0
   21.4460   -1.6656  -19.8469 O   0  0  0  0  0  0  0  0  0  0  0  0
   21.9505   -2.3997  -18.7618 C   0  0  0  0  0  0  0  0  0  0  0  0
   22.1965   -3.7484  -18.9070 C   0  0  0  0  0  0  0  0  0  0  0  0
   22.6899   -4.4872  -17.8602 C   0  0  0  0  0  0  0  0  0  0  0  0
   22.9622   -3.9199  -16.6189 C   0  0  0  0  0  0  0  0  0  0  0  0
   23.4902   -4.7374  -15.5007 C   0  0  0  0  0  0  0  0  0  0  0  0
   22.4135   -5.2306  -14.5601 C   0  0  2  0  0  0  0  0  0  0  0  0
   21.5406   -6.0993  -15.3281 N   0  0  0  0  0  0  0  0  0  0  0  0
   21.5873   -4.1341  -14.0072 C   0  0  0  0  0  0  0  0  0  0  0  0
   22.1089   -3.2456  -13.0824 O   0  0  0  0  0  0  0  0  0  0  0  0
   22.7114   -2.5709  -16.4880 C   0  0  0  0  0  0  0  0  0  0  0  0
   22.2088   -1.8098  -17.5486 C   0  0  0  0  0  0  0  0  0  0  0  0
   20.3924   -3.9811  -14.3621 O   0  0  0  0  0  0  0  0  0  0  0  0
  1  2  1  0
  2  3  1  0
  3  5  1  0
  3  4  1  6
  5  6  2  0
  7  5  1  0
  7  8  1  0
  8 11  1  0
  8  9  1  1
 10  9  1  0
 11 20  1  0
 11 12  2  0
 14 13  1  0
 15 14  2  0
 16 15  1  0
 17 16  2  0
 17 23  1  0
 18 17  1  0
 19 18  1  6
 19 21  1  0
 20 19  1  0
 21 25  2  0
 21 22  1  0
 23 24  2  0
 24 14  1  0
M  END
$$$$
