SCY.pdb
     RDKit          3D

 25 25  0  0  1  0  0  0  0  0999 V2000
   16.9523   -6.2991   -8.8626 O   0  0  0  0  0  0  0  0  0  0  0  0
   17.1984   -6.7531  -10.1478 C   0  0  0  0  0  0  0  0  0  0  0  0
   16.7517   -5.6757  -11.1182 C   0  0  2  0  0  0  0  0  0  0  0  0
   15.2954   -5.6093  -11.0129 N   0  0  0  0  0  0  0  0  0  0  0  0
   17.0529   -6.0712  -12.5159 C   0  0  0  0  0  0  0  0  0  0  0  0
   16.0808   -6.1732  -13.3265 O   0  0  0  0  0  0  0  0  0  0  0  0
   18.3651   -6.3403  -12.9917 N   0  0  0  0  0  0  0  0  0  0  0  0
   18.6051   -6.5853  -14.4141 C   0  0  1  0  0  0  0  0  0  0  0  0
   18.2460   -5.3086  -15.1450 C   0  0  0  0  0  0  0  0  0  0  0  0
   18.8071   -5.4648  -16.8625 S   0  0  0  0  0  0  0  0  0  0  0  0
   20.0794   -6.7783  -14.5810 C   0  0  0  0  0  0  0  0  0  0  0  0
   20.9199   -5.9432  -14.1336 O   0  0  0  0  0  0  0  0  0  0  0  0
   27.5503  -11.3979  -16.1302 O   0  0  0  0  0  0  0  0  0  0  0  0
   26.2763  -10.9167  -15.7893 C   0  0  0  0  0  0  0  0  0  0  0  0
   26.1601   -9.7496  -15.0649 C   0  0  0  0  0  0  0  0  0  0  0  0
   24.9250   -9.2592  -14.7197 C   0  0  0  0  0  0  0  0  0  0  0  0
   23.7464   -9.9064  -15.0786 C   0  0  0  0  0  0  0  0  0  0  0  0
   22.4232   -9.3618  -14.6913 C   0  0  0  0  0  0  0  0  0  0  0  0
   22.0354   -8.1234  -15.4680 C   0  0  2  0  0  0  0  0  0  0  0  0
   20.6162   -7.9104  -15.2515 N   0  0  0  0  0  0  0  0  0  0  0  0
   22.2537   -8.2673  -16.9249 C   0  0  0  0  0  0  0  0  0  0  0  0
   23.4287   -7.8344  -17.5155 O   0  0  0  0  0  0  0  0  0  0  0  0
   23.8775  -11.0720  -15.8025 C   0  0  0  0  0  0  0  0  0  0  0  0
   25.1315  -11.5795  -16.1589 C   0  0  0  0  0  0  0  0  0  0  0  0
   21.3795   -8.7853  -17.6628 O   0  0  0  0  0  0  0  0  0  0  0  0
  1  2  1  0
  2  3  1  0
  3  5  1  0
  3  4  1  6
  5  6  2  0
  7  5  1  0
  7  8  1  0
  8 11  1  0
  8  9  1  6
 10  9  1  0
 11 20  1  0
 11 12  2  0
 14 13  1  0
 15 14  2  0
 16 15  1  0
 17 16  2  0
 17 23  1  0
 18 17  1  0
 19 18  1  1
 19 21  1  0
 20 19  1  0
 21 25  2  0
 21 22  1  0
 23 24  2  0
 24 14  1  0
M  END
$$$$
