IVV.pdb
     RDKit          3D

 23 22  0  0  1  0  0  0  0  0999 V2000
    5.6238  -10.5188   27.1251 C   0  0  0  0  0  0  0  0  0  0  0  0
    5.3342  -11.7226   26.3011 C   0  0  0  0  0  0  0  0  0  0  0  0
    6.4874  -12.6788   26.1184 C   0  0  2  0  0  0  0  0  0  0  0  0
    7.6796  -11.9012   25.6881 C   0  0  0  0  0  0  0  0  0  0  0  0
    6.0488  -13.7918   25.2280 C   0  0  2  0  0  0  0  0  0  0  0  0
    4.9113  -14.4325   25.9429 N   0  0  0  0  0  0  0  0  0  0  0  0
    6.9893  -14.8584   24.9525 C   0  0  0  0  0  0  0  0  0  0  0  0
    7.2536  -15.6874   25.8648 O   0  0  0  0  0  0  0  0  0  0  0  0
   10.2372  -15.0199   21.8494 C   0  0  0  0  0  0  0  0  0  0  0  0
    9.1614  -16.0261   22.0888 C   0  0  2  0  0  0  0  0  0  0  0  0
    7.9173  -15.7210   21.2722 C   0  0  0  0  0  0  0  0  0  0  0  0
    8.7418  -16.0466   23.5698 C   0  0  2  0  0  0  0  0  0  0  0  0
    7.6770  -15.0989   23.7293 N   0  0  0  0  0  0  0  0  0  0  0  0
    9.9032  -15.8477   24.4165 C   0  0  0  0  0  0  0  0  0  0  0  0
   10.8866  -15.2219   23.9415 O   0  0  0  0  0  0  0  0  0  0  0  0
    9.9810  -15.8844   28.6433 C   0  0  0  0  0  0  0  0  0  0  0  0
   11.0702  -15.3124   27.7706 C   0  0  2  0  0  0  0  0  0  0  0  0
   10.6301  -13.9357   27.3240 C   0  0  0  0  0  0  0  0  0  0  0  0
   11.2343  -16.1590   26.5419 C   0  0  2  0  0  0  0  0  0  0  0  0
   10.0404  -16.2977   25.7575 N   0  0  0  0  0  0  0  0  0  0  0  0
   11.7707  -17.4787   26.9609 C   0  0  0  0  0  0  0  0  0  0  0  0
   11.0082  -18.4951   26.8320 O   0  0  0  0  0  0  0  0  0  0  0  0
   13.0155  -17.6795   27.4715 O   0  0  0  0  0  0  0  0  0  0  0  0
  2  3  1  0
  2  1  1  0
  3  4  1  6
  5  7  1  0
  5  3  1  0
  5  6  1  1
  7 13  1  0
  8  7  2  0
 10  9  1  1
 10 11  1  0
 10 12  1  0
 12 14  1  0
 12 13  1  6
 14 20  1  0
 14 15  2  0
 17 16  1  1
 17 19  1  0
 18 17  1  0
 19 21  1  0
 19 20  1  1
 21 22  2  0
 21 23  1  0
M  END
$$$$
