IVV.pdb
     RDKit          3D

 23 22  0  0  1  0  0  0  0  0999 V2000
    5.4210  -10.1999   26.4656 C   0  0  0  0  0  0  0  0  0  0  0  0
    5.1764  -11.5664   25.9319 C   0  0  0  0  0  0  0  0  0  0  0  0
    6.3996  -12.4394   25.7934 C   0  0  2  0  0  0  0  0  0  0  0  0
    7.4570  -11.6606   25.0956 C   0  0  0  0  0  0  0  0  0  0  0  0
    5.9948  -13.7346   25.1751 C   0  0  2  0  0  0  0  0  0  0  0  0
    5.0396  -14.3418   26.1417 N   0  0  0  0  0  0  0  0  0  0  0  0
    7.0177  -14.7359   24.9534 C   0  0  0  0  0  0  0  0  0  0  0  0
    7.3487  -15.4895   25.9083 O   0  0  0  0  0  0  0  0  0  0  0  0
    8.2953  -15.8346   21.1745 C   0  0  0  0  0  0  0  0  0  0  0  0
    9.3848  -15.7507   22.1908 C   0  0  2  0  0  0  0  0  0  0  0  0
   10.4164  -16.8491   21.9980 C   0  0  0  0  0  0  0  0  0  0  0  0
    8.8243  -15.8960   23.6171 C   0  0  2  0  0  0  0  0  0  0  0  0
    7.7213  -14.9875   23.7415 N   0  0  0  0  0  0  0  0  0  0  0  0
    9.8915  -15.7383   24.5873 C   0  0  0  0  0  0  0  0  0  0  0  0
   10.7821  -14.8786   24.3587 O   0  0  0  0  0  0  0  0  0  0  0  0
    9.6546  -14.2731   27.7522 C   0  0  0  0  0  0  0  0  0  0  0  0
   10.3284  -15.5829   28.0770 C   0  0  2  0  0  0  0  0  0  0  0  0
   11.4340  -15.3009   29.0702 C   0  0  0  0  0  0  0  0  0  0  0  0
   10.9616  -16.1495   26.8394 C   0  0  2  0  0  0  0  0  0  0  0  0
   10.0308  -16.4728   25.7959 N   0  0  0  0  0  0  0  0  0  0  0  0
   11.7713  -17.3293   27.2360 C   0  0  0  0  0  0  0  0  0  0  0  0
   11.2000  -18.4714   27.2199 O   0  0  0  0  0  0  0  0  0  0  0  0
   13.0770  -17.2779   27.6143 O   0  0  0  0  0  0  0  0  0  0  0  0
  2  3  1  0
  2  1  1  0
  3  4  1  6
  5  7  1  0
  5  3  1  0
  5  6  1  1
  7 13  1  0
  8  7  2  0
 10  9  1  6
 10 11  1  0
 10 12  1  0
 12 14  1  0
 12 13  1  1
 14 20  1  0
 14 15  2  0
 17 16  1  6
 17 19  1  0
 18 17  1  0
 19 21  1  0
 19 20  1  6
 21 22  2  0
 21 23  1  0
M  END
$$$$
