IVV.pdb
     RDKit          3D

 23 22  0  0  1  0  0  0  0  0999 V2000
    7.3245  -18.6044   19.7065 C   0  0  0  0  0  0  0  0  0  0  0  0
    7.3621  -17.1570   20.0465 C   0  0  0  0  0  0  0  0  0  0  0  0
    7.9012  -16.8241   21.4162 C   0  0  2  0  0  0  0  0  0  0  0  0
    7.2701  -17.7381   22.4051 C   0  0  0  0  0  0  0  0  0  0  0  0
    7.7406  -15.3602   21.6502 C   0  0  2  0  0  0  0  0  0  0  0  0
    8.5397  -14.7079   20.5772 N   0  0  0  0  0  0  0  0  0  0  0  0
    8.2329  -14.8086   22.8958 C   0  0  0  0  0  0  0  0  0  0  0  0
    9.4781  -14.7311   23.0769 O   0  0  0  0  0  0  0  0  0  0  0  0
    6.5834  -11.8759   25.1942 C   0  0  0  0  0  0  0  0  0  0  0  0
    6.9196  -13.1003   25.9782 C   0  0  2  0  0  0  0  0  0  0  0  0
    7.4681  -12.7529   27.3517 C   0  0  0  0  0  0  0  0  0  0  0  0
    7.9891  -13.9422   25.2591 C   0  0  2  0  0  0  0  0  0  0  0  0
    7.4542  -14.3199   23.9829 N   0  0  0  0  0  0  0  0  0  0  0  0
    8.4213  -15.0306   26.1155 C   0  0  0  0  0  0  0  0  0  0  0  0
    7.5521  -15.8363   26.5395 O   0  0  0  0  0  0  0  0  0  0  0  0
   12.5582  -16.0503   26.8908 C   0  0  0  0  0  0  0  0  0  0  0  0
   11.4344  -17.0563   26.8825 C   0  0  2  0  0  0  0  0  0  0  0  0
   11.2341  -17.5145   25.4547 C   0  0  0  0  0  0  0  0  0  0  0  0
   10.1615  -16.4003   27.3330 C   0  0  2  0  0  0  0  0  0  0  0  0
    9.7576  -15.2822   26.5288 N   0  0  0  0  0  0  0  0  0  0  0  0
   10.3200  -16.0199   28.7595 C   0  0  0  0  0  0  0  0  0  0  0  0
   10.3084  -14.7751   29.0447 O   0  0  0  0  0  0  0  0  0  0  0  0
   10.4765  -16.9039   29.7817 O   0  0  0  0  0  0  0  0  0  0  0  0
  2  3  1  0
  2  1  1  0
  3  4  1  1
  5  7  1  0
  5  3  1  0
  5  6  1  6
  7 13  1  0
  8  7  2  0
 10  9  1  6
 10 11  1  0
 10 12  1  0
 12 14  1  0
 12 13  1  6
 14 20  1  0
 14 15  2  0
 17 16  1  6
 17 19  1  0
 18 17  1  0
 19 21  1  0
 19 20  1  6
 21 22  2  0
 21 23  1  0
M  END
$$$$
