IVV.pdb
     RDKit          3D

 23 22  0  0  1  0  0  0  0  0999 V2000
    7.4403  -11.1547   27.4946 C   0  0  0  0  0  0  0  0  0  0  0  0
    6.8816  -12.4211   26.9504 C   0  0  0  0  0  0  0  0  0  0  0  0
    6.3894  -12.3558   25.5253 C   0  0  2  0  0  0  0  0  0  0  0  0
    5.3766  -11.2715   25.4265 C   0  0  0  0  0  0  0  0  0  0  0  0
    5.9615  -13.7209   25.1044 C   0  0  2  0  0  0  0  0  0  0  0  0
    5.0634  -14.1962   26.1921 N   0  0  0  0  0  0  0  0  0  0  0  0
    6.9781  -14.7426   24.9611 C   0  0  0  0  0  0  0  0  0  0  0  0
    7.1819  -15.5369   25.9186 O   0  0  0  0  0  0  0  0  0  0  0  0
    9.8560  -14.7929   21.8215 C   0  0  0  0  0  0  0  0  0  0  0  0
    9.2661  -16.0845   22.2808 C   0  0  2  0  0  0  0  0  0  0  0  0
    8.0510  -16.4704   21.4545 C   0  0  0  0  0  0  0  0  0  0  0  0
    8.8104  -15.9945   23.7484 C   0  0  2  0  0  0  0  0  0  0  0  0
    7.8064  -14.9730   23.8262 N   0  0  0  0  0  0  0  0  0  0  0  0
    9.9614  -15.8231   24.6149 C   0  0  0  0  0  0  0  0  0  0  0  0
   10.9984  -15.2986   24.1311 O   0  0  0  0  0  0  0  0  0  0  0  0
   10.0761  -15.5757   28.8423 C   0  0  0  0  0  0  0  0  0  0  0  0
   11.2258  -15.2456   27.9235 C   0  0  2  0  0  0  0  0  0  0  0  0
   10.9944  -13.8552   27.3739 C   0  0  0  0  0  0  0  0  0  0  0  0
   11.2387  -16.1977   26.7630 C   0  0  2  0  0  0  0  0  0  0  0  0
   10.0329  -16.1950   25.9846 N   0  0  0  0  0  0  0  0  0  0  0  0
   11.5518  -17.5527   27.2833 C   0  0  0  0  0  0  0  0  0  0  0  0
   12.6962  -17.7299   27.8217 O   0  0  0  0  0  0  0  0  0  0  0  0
   10.7055  -18.6163   27.2263 O   0  0  0  0  0  0  0  0  0  0  0  0
  2  3  1  0
  2  1  1  0
  3  4  1  1
  5  7  1  0
  5  3  1  0
  5  6  1  1
  7 13  1  0
  8  7  2  0
 10  9  1  6
 10 11  1  0
 10 12  1  0
 12 14  1  0
 12 13  1  6
 14 20  1  0
 14 15  2  0
 17 16  1  1
 17 19  1  0
 18 17  1  0
 19 21  1  0
 19 20  1  1
 21 22  2  0
 21 23  1  0
M  END
$$$$
