IVV.pdb
     RDKit          3D

 23 22  0  0  1  0  0  0  0  0999 V2000
    9.4524  -18.8163   19.2188 C   0  0  0  0  0  0  0  0  0  0  0  0
    8.8694  -17.4906   19.5577 C   0  0  0  0  0  0  0  0  0  0  0  0
    9.2475  -16.9404   20.9111 C   0  0  2  0  0  0  0  0  0  0  0  0
    9.1316  -18.0335   21.9126 C   0  0  0  0  0  0  0  0  0  0  0  0
    8.4517  -15.7048   21.1640 C   0  0  2  0  0  0  0  0  0  0  0  0
    8.8526  -14.7602   20.0857 N   0  0  0  0  0  0  0  0  0  0  0  0
    8.6680  -14.9945   22.4076 C   0  0  0  0  0  0  0  0  0  0  0  0
    9.7373  -14.3441   22.5589 O   0  0  0  0  0  0  0  0  0  0  0  0
    6.3124  -12.5106   24.5118 C   0  0  0  0  0  0  0  0  0  0  0  0
    6.7576  -13.6956   25.3021 C   0  0  2  0  0  0  0  0  0  0  0  0
    6.9875  -13.3413   26.7614 C   0  0  0  0  0  0  0  0  0  0  0  0
    8.0810  -14.2606   24.7554 C   0  0  2  0  0  0  0  0  0  0  0  0
    7.7861  -14.9340   23.5237 N   0  0  0  0  0  0  0  0  0  0  0  0
    8.7385  -15.0568   25.7747 C   0  0  0  0  0  0  0  0  0  0  0  0
    8.4433  -16.2774   25.8596 O   0  0  0  0  0  0  0  0  0  0  0  0
   11.0587  -13.3868   28.8873 C   0  0  0  0  0  0  0  0  0  0  0  0
   10.5293  -14.7930   29.0187 C   0  0  2  0  0  0  0  0  0  0  0  0
   11.5520  -15.6028   29.7849 C   0  0  0  0  0  0  0  0  0  0  0  0
   10.3854  -15.4112   27.6584 C   0  0  2  0  0  0  0  0  0  0  0  0
    9.7043  -14.5837   26.7037 N   0  0  0  0  0  0  0  0  0  0  0  0
    9.7156  -16.7266   27.8195 C   0  0  0  0  0  0  0  0  0  0  0  0
    8.4795  -16.7257   28.1406 O   0  0  0  0  0  0  0  0  0  0  0  0
   10.3263  -17.9302   27.6490 O   0  0  0  0  0  0  0  0  0  0  0  0
  2  3  1  0
  2  1  1  0
  3  4  1  1
  5  7  1  0
  5  3  1  0
  5  6  1  6
  7 13  1  0
  8  7  2  0
 10  9  1  6
 10 11  1  0
 10 12  1  0
 12 14  1  0
 12 13  1  6
 14 20  1  0
 14 15  2  0
 17 16  1  6
 17 19  1  0
 18 17  1  0
 19 21  1  0
 19 20  1  6
 21 22  2  0
 21 23  1  0
M  END
$$$$
