IVV.pdb
     RDKit          3D

 23 22  0  0  1  0  0  0  0  0999 V2000
    5.7153  -21.5345   24.2662 C   0  0  0  0  0  0  0  0  0  0  0  0
    5.5716  -20.1357   23.7816 C   0  0  0  0  0  0  0  0  0  0  0  0
    6.6003  -19.1595   24.2976 C   0  0  2  0  0  0  0  0  0  0  0  0
    6.6576  -19.2755   25.7790 C   0  0  0  0  0  0  0  0  0  0  0  0
    6.3026  -17.8104   23.7363 C   0  0  2  0  0  0  0  0  0  0  0  0
    6.4123  -17.9735   22.2609 N   0  0  0  0  0  0  0  0  0  0  0  0
    7.1894  -16.7170   24.0768 C   0  0  0  0  0  0  0  0  0  0  0  0
    8.3374  -16.6802   23.5569 O   0  0  0  0  0  0  0  0  0  0  0  0
    6.0513  -13.4360   26.5405 C   0  0  0  0  0  0  0  0  0  0  0  0
    7.2224  -13.3483   25.6197 C   0  0  2  0  0  0  0  0  0  0  0  0
    6.8117  -12.8796   24.2342 C   0  0  0  0  0  0  0  0  0  0  0  0
    7.9015  -14.7200   25.4551 C   0  0  2  0  0  0  0  0  0  0  0  0
    6.9135  -15.6332   24.9578 N   0  0  0  0  0  0  0  0  0  0  0  0
    8.5548  -15.1011   26.6933 C   0  0  0  0  0  0  0  0  0  0  0  0
    7.8445  -15.5640   27.6236 O   0  0  0  0  0  0  0  0  0  0  0  0
   12.8405  -14.9635   27.3062 C   0  0  0  0  0  0  0  0  0  0  0  0
   11.9830  -16.0844   27.8387 C   0  0  2  0  0  0  0  0  0  0  0  0
   11.8868  -17.1443   26.7635 C   0  0  0  0  0  0  0  0  0  0  0  0
   10.5948  -15.5795   28.1059 C   0  0  2  0  0  0  0  0  0  0  0  0
    9.9467  -15.0028   26.9625 N   0  0  0  0  0  0  0  0  0  0  0  0
   10.6640  -14.6208   29.2377 C   0  0  0  0  0  0  0  0  0  0  0  0
   10.4120  -13.3936   28.9897 O   0  0  0  0  0  0  0  0  0  0  0  0
   10.9766  -14.9586   30.5179 O   0  0  0  0  0  0  0  0  0  0  0  0
  2  3  1  0
  2  1  1  0
  3  4  1  1
  5  7  1  0
  5  3  1  0
  5  6  1  6
  7 13  1  0
  8  7  2  0
 10  9  1  1
 10 11  1  0
 10 12  1  0
 12 14  1  0
 12 13  1  1
 14 20  1  0
 14 15  2  0
 17 16  1  6
 17 19  1  0
 18 17  1  0
 19 21  1  0
 19 20  1  6
 21 22  2  0
 21 23  1  0
M  END
$$$$
