IVV.pdb
     RDKit          3D

 23 22  0  0  1  0  0  0  0  0999 V2000
    5.6921  -21.3606   23.8281 C   0  0  0  0  0  0  0  0  0  0  0  0
    5.6463  -19.9685   23.3068 C   0  0  0  0  0  0  0  0  0  0  0  0
    6.6435  -19.0129   23.9150 C   0  0  2  0  0  0  0  0  0  0  0  0
    6.5864  -19.1518   25.3944 C   0  0  0  0  0  0  0  0  0  0  0  0
    6.4046  -17.6519   23.3541 C   0  0  2  0  0  0  0  0  0  0  0  0
    6.7307  -17.7684   21.9065 N   0  0  0  0  0  0  0  0  0  0  0  0
    7.2114  -16.5562   23.8507 C   0  0  0  0  0  0  0  0  0  0  0  0
    8.4443  -16.5405   23.5879 O   0  0  0  0  0  0  0  0  0  0  0  0
    7.6365  -12.2159   26.2677 C   0  0  0  0  0  0  0  0  0  0  0  0
    6.7891  -13.2852   25.6632 C   0  0  2  0  0  0  0  0  0  0  0  0
    5.7195  -13.7654   26.6293 C   0  0  0  0  0  0  0  0  0  0  0  0
    7.6367  -14.5102   25.2747 C   0  0  2  0  0  0  0  0  0  0  0  0
    6.7666  -15.4483   24.6264 N   0  0  0  0  0  0  0  0  0  0  0  0
    8.3543  -15.0041   26.4349 C   0  0  0  0  0  0  0  0  0  0  0  0
    7.6986  -15.5878   27.3370 O   0  0  0  0  0  0  0  0  0  0  0  0
   12.6408  -14.5725   27.1118 C   0  0  0  0  0  0  0  0  0  0  0  0
   11.8966  -15.8485   27.4167 C   0  0  2  0  0  0  0  0  0  0  0  0
   11.9233  -16.7084   26.1723 C   0  0  0  0  0  0  0  0  0  0  0  0
   10.4606  -15.5382   27.7250 C   0  0  2  0  0  0  0  0  0  0  0  0
    9.7538  -14.8930   26.6554 N   0  0  0  0  0  0  0  0  0  0  0  0
   10.4217  -14.7324   28.9716 C   0  0  0  0  0  0  0  0  0  0  0  0
   10.7962  -15.2981   30.0536 O   0  0  0  0  0  0  0  0  0  0  0  0
   10.0154  -13.4360   29.0407 O   0  0  0  0  0  0  0  0  0  0  0  0
  2  3  1  0
  2  1  1  0
  3  4  1  1
  5  7  1  0
  5  3  1  0
  5  6  1  6
  7 13  1  0
  8  7  2  0
 10  9  1  1
 10 11  1  0
 10 12  1  0
 12 14  1  0
 12 13  1  1
 14 20  1  0
 14 15  2  0
 17 16  1  6
 17 19  1  0
 18 17  1  0
 19 21  1  0
 19 20  1  6
 21 22  2  0
 21 23  1  0
M  END
$$$$
