IVV.pdb
     RDKit          3D

 23 22  0  0  1  0  0  0  0  0999 V2000
    5.7211  -10.5678   26.7127 C   0  0  0  0  0  0  0  0  0  0  0  0
    5.4866  -11.8294   25.9607 C   0  0  0  0  0  0  0  0  0  0  0  0
    6.6575  -12.7797   25.9031 C   0  0  2  0  0  0  0  0  0  0  0  0
    7.8406  -12.0383   25.3915 C   0  0  0  0  0  0  0  0  0  0  0  0
    6.2465  -13.9993   25.1498 C   0  0  2  0  0  0  0  0  0  0  0  0
    5.0399  -14.5036   25.8607 N   0  0  0  0  0  0  0  0  0  0  0  0
    7.1678  -15.1159   25.1010 C   0  0  0  0  0  0  0  0  0  0  0  0
    7.3746  -15.7807   26.1520 O   0  0  0  0  0  0  0  0  0  0  0  0
   10.6239  -17.6880   22.5529 C   0  0  0  0  0  0  0  0  0  0  0  0
    9.5419  -16.6614   22.6009 C   0  0  2  0  0  0  0  0  0  0  0  0
   10.0524  -15.2900   22.1925 C   0  0  0  0  0  0  0  0  0  0  0  0
    8.9661  -16.5295   24.0225 C   0  0  2  0  0  0  0  0  0  0  0  0
    7.8951  -15.5770   23.9671 N   0  0  0  0  0  0  0  0  0  0  0  0
   10.0311  -16.2361   24.9631 C   0  0  0  0  0  0  0  0  0  0  0  0
   10.8568  -15.3339   24.6656 O   0  0  0  0  0  0  0  0  0  0  0  0
   10.1916  -14.2423   27.6576 C   0  0  0  0  0  0  0  0  0  0  0  0
   10.6057  -15.5596   28.2644 C   0  0  2  0  0  0  0  0  0  0  0  0
   11.6978  -15.2814   29.2736 C   0  0  0  0  0  0  0  0  0  0  0  0
   11.1831  -16.4494   27.2022 C   0  0  2  0  0  0  0  0  0  0  0  0
   10.2355  -16.8793   26.2137 N   0  0  0  0  0  0  0  0  0  0  0  0
   11.8361  -17.6021   27.8727 C   0  0  0  0  0  0  0  0  0  0  0  0
   11.1956  -18.7065   27.9078 O   0  0  0  0  0  0  0  0  0  0  0  0
   13.0668  -17.5633   28.4511 O   0  0  0  0  0  0  0  0  0  0  0  0
  2  3  1  0
  2  1  1  0
  3  4  1  6
  5  7  1  0
  5  3  1  0
  5  6  1  1
  7 13  1  0
  8  7  2  0
 10  9  1  1
 10 11  1  0
 10 12  1  0
 12 14  1  0
 12 13  1  6
 14 20  1  0
 14 15  2  0
 17 16  1  6
 17 19  1  0
 18 17  1  0
 19 21  1  0
 19 20  1  6
 21 22  2  0
 21 23  1  0
M  END
$$$$
