IVV.pdb
     RDKit          3D

 23 22  0  0  1  0  0  0  0  0999 V2000
    7.0018  -18.2745   19.5340 C   0  0  0  0  0  0  0  0  0  0  0  0
    6.9834  -16.8486   19.9565 C   0  0  0  0  0  0  0  0  0  0  0  0
    7.6194  -16.5580   21.2939 C   0  0  2  0  0  0  0  0  0  0  0  0
    7.1065  -17.5432   22.2827 C   0  0  0  0  0  0  0  0  0  0  0  0
    7.4226  -15.1147   21.6132 C   0  0  2  0  0  0  0  0  0  0  0  0
    8.1305  -14.3797   20.5296 N   0  0  0  0  0  0  0  0  0  0  0  0
    7.9714  -14.6077   22.8540 C   0  0  0  0  0  0  0  0  0  0  0  0
    9.2207  -14.4727   22.9567 O   0  0  0  0  0  0  0  0  0  0  0  0
    6.4469  -11.8196   25.4000 C   0  0  0  0  0  0  0  0  0  0  0  0
    6.8090  -13.0935   26.0877 C   0  0  2  0  0  0  0  0  0  0  0  0
    7.4094  -12.8383   27.4597 C   0  0  0  0  0  0  0  0  0  0  0  0
    7.8486  -13.8859   25.2746 C   0  0  2  0  0  0  0  0  0  0  0  0
    7.2461  -14.2238   24.0175 N   0  0  0  0  0  0  0  0  0  0  0  0
    8.3489  -14.9983   26.0602 C   0  0  0  0  0  0  0  0  0  0  0  0
    7.5190  -15.8314   26.5091 O   0  0  0  0  0  0  0  0  0  0  0  0
   12.5634  -15.9271   26.6965 C   0  0  0  0  0  0  0  0  0  0  0  0
   11.4689  -16.9611   26.6076 C   0  0  2  0  0  0  0  0  0  0  0  0
   11.2732  -17.3034   25.1471 C   0  0  0  0  0  0  0  0  0  0  0  0
   10.1805  -16.3826   27.1162 C   0  0  2  0  0  0  0  0  0  0  0  0
    9.7121  -15.2452   26.3767 N   0  0  0  0  0  0  0  0  0  0  0  0
   10.3556  -16.0653   28.5562 C   0  0  0  0  0  0  0  0  0  0  0  0
   10.3798  -14.8333   28.8918 O   0  0  0  0  0  0  0  0  0  0  0  0
   10.4917  -16.9942   29.5407 O   0  0  0  0  0  0  0  0  0  0  0  0
  2  3  1  0
  2  1  1  0
  3  4  1  1
  5  7  1  0
  5  3  1  0
  5  6  1  6
  7 13  1  0
  8  7  2  0
 10  9  1  6
 10 11  1  0
 10 12  1  0
 12 14  1  0
 12 13  1  6
 14 20  1  0
 14 15  2  0
 17 16  1  6
 17 19  1  0
 18 17  1  0
 19 21  1  0
 19 20  1  6
 21 22  2  0
 21 23  1  0
M  END
$$$$
