IVV.pdb
     RDKit          3D

 23 22  0  0  1  0  0  0  0  0999 V2000
    8.4663  -19.4844   20.1321 C   0  0  0  0  0  0  0  0  0  0  0  0
    8.2422  -18.0236   20.2990 C   0  0  0  0  0  0  0  0  0  0  0  0
    8.6916  -17.4429   21.6174 C   0  0  2  0  0  0  0  0  0  0  0  0
    8.2623  -18.3601   22.7063 C   0  0  0  0  0  0  0  0  0  0  0  0
    8.2243  -16.0292   21.7010 C   0  0  2  0  0  0  0  0  0  0  0  0
    8.9015  -15.3317   20.5738 N   0  0  0  0  0  0  0  0  0  0  0  0
    8.5556  -15.2684   22.8882 C   0  0  0  0  0  0  0  0  0  0  0  0
    9.7569  -14.9409   23.0857 O   0  0  0  0  0  0  0  0  0  0  0  0
    6.5522  -12.2512   24.7760 C   0  0  0  0  0  0  0  0  0  0  0  0
    6.8601  -13.4095   25.6652 C   0  0  2  0  0  0  0  0  0  0  0  0
    7.2097  -12.9575   27.0728 C   0  0  0  0  0  0  0  0  0  0  0  0
    8.0600  -14.2132   25.1324 C   0  0  2  0  0  0  0  0  0  0  0  0
    7.6565  -14.8234   23.8986 N   0  0  0  0  0  0  0  0  0  0  0  0
    8.5473  -15.1151   26.1591 C   0  0  0  0  0  0  0  0  0  0  0  0
    7.7816  -16.0298   26.5609 O   0  0  0  0  0  0  0  0  0  0  0  0
   12.6076  -15.0846   27.6770 C   0  0  0  0  0  0  0  0  0  0  0  0
   11.8206  -16.3522   27.4556 C   0  0  2  0  0  0  0  0  0  0  0  0
   12.0323  -16.7836   26.0211 C   0  0  0  0  0  0  0  0  0  0  0  0
   10.3557  -16.0794   27.6377 C   0  0  2  0  0  0  0  0  0  0  0  0
    9.8315  -15.0669   26.7658 N   0  0  0  0  0  0  0  0  0  0  0  0
   10.1240  -15.7458   29.0659 C   0  0  0  0  0  0  0  0  0  0  0  0
    9.7882  -14.5460   29.3462 O   0  0  0  0  0  0  0  0  0  0  0  0
   10.2445  -16.6281   30.0944 O   0  0  0  0  0  0  0  0  0  0  0  0
  2  3  1  0
  2  1  1  0
  3  4  1  1
  5  7  1  0
  5  3  1  0
  5  6  1  6
  7 13  1  0
  8  7  2  0
 10  9  1  6
 10 11  1  0
 10 12  1  0
 12 14  1  0
 12 13  1  6
 14 20  1  0
 14 15  2  0
 17 16  1  6
 17 19  1  0
 18 17  1  0
 19 21  1  0
 19 20  1  6
 21 22  2  0
 21 23  1  0
M  END
$$$$
