IVV.pdb
     RDKit          3D

 23 22  0  0  1  0  0  0  0  0999 V2000
    6.6340  -11.9523   25.4015 C   0  0  0  0  0  0  0  0  0  0  0  0
    6.6584  -13.0834   24.4362 C   0  0  0  0  0  0  0  0  0  0  0  0
    7.5543  -12.8957   23.2363 C   0  0  2  0  0  0  0  0  0  0  0  0
    7.0375  -11.7528   22.4375 C   0  0  0  0  0  0  0  0  0  0  0  0
    7.6926  -14.2038   22.5338 C   0  0  2  0  0  0  0  0  0  0  0  0
    6.2973  -14.6454   22.2623 N   0  0  0  0  0  0  0  0  0  0  0  0
    8.3190  -15.2992   23.2448 C   0  0  0  0  0  0  0  0  0  0  0  0
    7.5961  -16.0737   23.9281 O   0  0  0  0  0  0  0  0  0  0  0  0
   10.8051  -17.8565   21.9150 C   0  0  0  0  0  0  0  0  0  0  0  0
   11.3674  -17.3532   23.2025 C   0  0  2  0  0  0  0  0  0  0  0  0
   11.9564  -18.4795   24.0348 C   0  0  0  0  0  0  0  0  0  0  0  0
   10.2792  -16.6763   24.0552 C   0  0  2  0  0  0  0  0  0  0  0  0
    9.7047  -15.6253   23.2659 N   0  0  0  0  0  0  0  0  0  0  0  0
   10.8295  -16.2809   25.3381 C   0  0  0  0  0  0  0  0  0  0  0  0
   11.8499  -15.5439   25.3469 O   0  0  0  0  0  0  0  0  0  0  0  0
    9.4182  -14.1906   27.8257 C   0  0  0  0  0  0  0  0  0  0  0  0
    9.9028  -15.3470   28.6641 C   0  0  2  0  0  0  0  0  0  0  0  0
   10.6737  -14.7787   29.8351 C   0  0  0  0  0  0  0  0  0  0  0  0
   10.8493  -16.1937   27.8636 C   0  0  2  0  0  0  0  0  0  0  0  0
   10.3172  -16.6501   26.6112 N   0  0  0  0  0  0  0  0  0  0  0  0
   11.2878  -17.3265   28.7177 C   0  0  0  0  0  0  0  0  0  0  0  0
   10.5831  -18.3913   28.6957 O   0  0  0  0  0  0  0  0  0  0  0  0
   12.3860  -17.3084   29.5203 O   0  0  0  0  0  0  0  0  0  0  0  0
  2  3  1  0
  2  1  1  0
  3  4  1  6
  5  7  1  0
  5  3  1  0
  5  6  1  1
  7 13  1  0
  8  7  2  0
 10  9  1  6
 10 11  1  0
 10 12  1  0
 12 14  1  0
 12 13  1  6
 14 20  1  0
 14 15  2  0
 17 16  1  6
 17 19  1  0
 18 17  1  0
 19 21  1  0
 19 20  1  6
 21 22  2  0
 21 23  1  0
M  END
$$$$
