IVV.pdb
     RDKit          3D

 23 22  0  0  1  0  0  0  0  0999 V2000
    5.6652  -10.4963   26.9746 C   0  0  0  0  0  0  0  0  0  0  0  0
    5.3881  -11.7699   26.2583 C   0  0  0  0  0  0  0  0  0  0  0  0
    6.5798  -12.6723   26.0507 C   0  0  2  0  0  0  0  0  0  0  0  0
    7.6785  -11.8700   25.4502 C   0  0  0  0  0  0  0  0  0  0  0  0
    6.1379  -13.8824   25.2996 C   0  0  2  0  0  0  0  0  0  0  0  0
    5.1181  -14.5268   26.1716 N   0  0  0  0  0  0  0  0  0  0  0  0
    7.1196  -14.9098   25.0194 C   0  0  0  0  0  0  0  0  0  0  0  0
    7.4492  -15.7042   25.9412 O   0  0  0  0  0  0  0  0  0  0  0  0
    8.2367  -16.0965   21.2045 C   0  0  0  0  0  0  0  0  0  0  0  0
    9.3717  -15.9099   22.1553 C   0  0  2  0  0  0  0  0  0  0  0  0
   10.4562  -16.9527   21.9446 C   0  0  0  0  0  0  0  0  0  0  0  0
    8.8977  -16.0326   23.6147 C   0  0  2  0  0  0  0  0  0  0  0  0
    7.7825  -15.1461   23.7817 N   0  0  0  0  0  0  0  0  0  0  0  0
   10.0148  -15.8273   24.5174 C   0  0  0  0  0  0  0  0  0  0  0  0
   10.9254  -15.0320   24.1671 O   0  0  0  0  0  0  0  0  0  0  0  0
   11.7587  -14.6663   28.7098 C   0  0  0  0  0  0  0  0  0  0  0  0
   10.6541  -15.0339   27.7508 C   0  0  2  0  0  0  0  0  0  0  0  0
    9.5449  -15.6826   28.5493 C   0  0  0  0  0  0  0  0  0  0  0  0
   11.1552  -16.0460   26.7619 C   0  0  2  0  0  0  0  0  0  0  0  0
   10.1834  -16.4474   25.7849 N   0  0  0  0  0  0  0  0  0  0  0  0
   11.6815  -17.2089   27.5207 C   0  0  0  0  0  0  0  0  0  0  0  0
   12.7191  -17.0240   28.2419 O   0  0  0  0  0  0  0  0  0  0  0  0
   11.1360  -18.4549   27.5007 O   0  0  0  0  0  0  0  0  0  0  0  0
  2  3  1  0
  2  1  1  0
  3  4  1  6
  5  7  1  0
  5  3  1  0
  5  6  1  1
  7 13  1  0
  8  7  2  0
 10  9  1  6
 10 11  1  0
 10 12  1  0
 12 14  1  0
 12 13  1  1
 14 20  1  0
 14 15  2  0
 17 16  1  1
 17 19  1  0
 18 17  1  0
 19 21  1  0
 19 20  1  6
 21 22  2  0
 21 23  1  0
M  END
$$$$
