NFV.pdb
     RDKit          3D

 27 27  0  0  1  0  0  0  0  0999 V2000
   22.8016  -21.0023  -14.2151 N   0  0  0  0  0  0  0  0  0  0  0  0
   23.5280  -20.1901  -13.3143 C   0  0  0  0  0  0  0  0  0  0  0  0
   23.8355  -19.0232  -13.6951 O   0  0  0  0  0  0  0  0  0  0  0  0
   23.9336  -20.6546  -11.9621 C   0  0  0  0  0  0  0  0  0  0  0  0
   25.4498  -20.6480  -11.8917 C   0  0  2  0  0  0  0  0  0  0  0  0
   26.0124  -21.5285  -12.8724 N   0  0  0  0  0  0  0  0  0  0  0  0
   25.9436  -20.9788  -10.5305 C   0  0  0  0  0  0  0  0  0  0  0  0
   25.7833  -22.1706  -10.1292 O   0  0  0  0  0  0  0  0  0  0  0  0
   26.5521  -19.9761   -9.7679 N   0  0  0  0  0  0  0  0  0  0  0  0
   27.0344  -20.2670   -8.4231 C   0  0  1  0  0  0  0  0  0  0  0  0
   28.1014  -19.2664   -8.0458 C   0  0  0  0  0  0  0  0  0  0  0  0
   28.5672  -19.3324   -6.6595 C   0  0  0  0  0  0  0  0  0  0  0  0
   29.1893  -20.5025   -6.2094 C   0  0  0  0  0  0  0  0  0  0  0  0
   29.6811  -20.6414   -4.9415 C   0  0  0  0  0  0  0  0  0  0  0  0
   29.5817  -19.6179   -4.0432 C   0  0  0  0  0  0  0  0  0  0  0  0
   28.9715  -18.4555   -4.4671 C   0  0  0  0  0  0  0  0  0  0  0  0
   28.4736  -18.3028   -5.7367 C   0  0  0  0  0  0  0  0  0  0  0  0
   25.8559  -20.2890   -7.5580 C   0  0  0  0  0  0  0  0  0  0  0  0
   24.8616  -19.5013   -7.7733 O   0  0  0  0  0  0  0  0  0  0  0  0
   22.3254  -22.0953   -5.0415 C   0  0  0  0  0  0  0  0  0  0  0  0
   23.6045  -22.1880   -5.8447 C   0  0  2  0  0  0  0  0  0  0  0  0
   24.3735  -23.4499   -5.5911 C   0  0  0  0  0  0  0  0  0  0  0  0
   24.5178  -20.9900   -5.5400 C   0  0  2  0  0  0  0  0  0  0  0  0
   25.6501  -21.1345   -6.4282 N   0  0  0  0  0  0  0  0  0  0  0  0
   24.8496  -20.9192   -4.1203 C   0  0  0  0  0  0  0  0  0  0  0  0
   23.8822  -20.6634   -3.3238 O   0  0  0  0  0  0  0  0  0  0  0  0
   26.0709  -21.0929   -3.5332 O   0  0  0  0  0  0  0  0  0  0  0  0
  2  1  1  0
  3  2  2  0
  4  2  1  0
  5  4  1  0
  5  6  1  6
  7  8  2  0
  7  5  1  0
  9  7  1  0
 10  9  1  0
 10 11  1  1
 11 12  1  0
 12 13  2  0
 12 17  1  0
 13 14  1  0
 14 15  2  0
 16 15  1  0
 17 16  2  0
 18 10  1  0
 19 18  2  0
 21 23  1  0
 21 20  1  1
 22 21  1  0
 23 24  1  6
 24 18  1  0
 25 27  1  0
 25 23  1  0
 26 25  2  0
M  END
$$$$
