NFV.pdb
     RDKit          3D

 27 27  0  0  1  0  0  0  0  0999 V2000
   28.9666  -22.1353  -18.5158 N   0  0  0  0  0  0  0  0  0  0  0  0
   27.5924  -22.2765  -18.8163 C   0  0  0  0  0  0  0  0  0  0  0  0
   27.2180  -21.9958  -19.9919 O   0  0  0  0  0  0  0  0  0  0  0  0
   26.5943  -22.7347  -17.8149 C   0  0  0  0  0  0  0  0  0  0  0  0
   27.3231  -23.0254  -16.5156 C   0  0  2  0  0  0  0  0  0  0  0  0
   27.8159  -24.3709  -16.4941 N   0  0  0  0  0  0  0  0  0  0  0  0
   26.4738  -22.7485  -15.3290 C   0  0  0  0  0  0  0  0  0  0  0  0
   25.3981  -23.4100  -15.2186 O   0  0  0  0  0  0  0  0  0  0  0  0
   26.8939  -21.7862  -14.4044 N   0  0  0  0  0  0  0  0  0  0  0  0
   26.1036  -21.5234  -13.2077 C   0  0  1  0  0  0  0  0  0  0  0  0
   26.9570  -20.8006  -12.1921 C   0  0  0  0  0  0  0  0  0  0  0  0
   26.3236  -20.5549  -10.8953 C   0  0  0  0  0  0  0  0  0  0  0  0
   24.9958  -20.9540  -10.7042 C   0  0  0  0  0  0  0  0  0  0  0  0
   24.3350  -20.7916   -9.5185 C   0  0  0  0  0  0  0  0  0  0  0  0
   24.9612  -20.2195   -8.4485 C   0  0  0  0  0  0  0  0  0  0  0  0
   26.2707  -19.8190   -8.6162 C   0  0  0  0  0  0  0  0  0  0  0  0
   26.9456  -19.9761   -9.8006 C   0  0  0  0  0  0  0  0  0  0  0  0
   24.9085  -20.8075  -13.6515 C   0  0  0  0  0  0  0  0  0  0  0  0
   25.0024  -19.6977  -14.2957 O   0  0  0  0  0  0  0  0  0  0  0  0
   21.1652  -22.3770  -14.5379 C   0  0  0  0  0  0  0  0  0  0  0  0
   21.7232  -21.0319  -14.9498 C   0  0  2  0  0  0  0  0  0  0  0  0
   22.6878  -21.1159  -16.0946 C   0  0  0  0  0  0  0  0  0  0  0  0
   22.4307  -20.3581  -13.7635 C   0  0  2  0  0  0  0  0  0  0  0  0
   23.5558  -21.2119  -13.4518 N   0  0  0  0  0  0  0  0  0  0  0  0
   21.5087  -20.1202  -12.6571 C   0  0  0  0  0  0  0  0  0  0  0  0
   21.6471  -20.8720  -11.6318 O   0  0  0  0  0  0  0  0  0  0  0  0
   20.5111  -19.1899  -12.5799 O   0  0  0  0  0  0  0  0  0  0  0  0
  2  1  1  0
  3  2  2  0
  4  2  1  0
  5  4  1  0
  5  6  1  6
  7  8  2  0
  7  5  1  0
  9  7  1  0
 10  9  1  0
 10 11  1  1
 11 12  1  0
 12 13  2  0
 12 17  1  0
 13 14  1  0
 14 15  2  0
 16 15  1  0
 17 16  2  0
 18 10  1  0
 19 18  2  0
 21 23  1  0
 21 20  1  1
 22 21  1  0
 23 24  1  1
 24 18  1  0
 25 27  1  0
 25 23  1  0
 26 25  2  0
M  END
$$$$
