NFV.pdb
     RDKit          3D

 27 27  0  0  1  0  0  0  0  0999 V2000
   43.9996  -13.8212  -12.4893 N   0  0  0  0  0  0  0  0  0  0  0  0
   43.2609  -13.5347  -11.3184 C   0  0  0  0  0  0  0  0  0  0  0  0
   42.4884  -14.4350  -10.8781 O   0  0  0  0  0  0  0  0  0  0  0  0
   43.3611  -12.2355  -10.6035 C   0  0  0  0  0  0  0  0  0  0  0  0
   41.9632  -11.6614  -10.4618 C   0  0  2  0  0  0  0  0  0  0  0  0
   41.3940  -11.3751  -11.7454 N   0  0  0  0  0  0  0  0  0  0  0  0
   41.9425  -10.4604   -9.5882 C   0  0  0  0  0  0  0  0  0  0  0  0
   42.0352   -9.3299  -10.1541 O   0  0  0  0  0  0  0  0  0  0  0  0
   41.8237  -10.6307   -8.2046 N   0  0  0  0  0  0  0  0  0  0  0  0
   41.7372   -9.4698   -7.3266 C   0  0  1  0  0  0  0  0  0  0  0  0
   40.6002   -9.6630   -6.3509 C   0  0  0  0  0  0  0  0  0  0  0  0
   39.2554   -9.5260   -6.9131 C   0  0  0  0  0  0  0  0  0  0  0  0
   38.2736  -10.4565   -6.5538 C   0  0  0  0  0  0  0  0  0  0  0  0
   36.9854  -10.3887   -7.0062 C   0  0  0  0  0  0  0  0  0  0  0  0
   36.5978   -9.3852   -7.8472 C   0  0  0  0  0  0  0  0  0  0  0  0
   37.5508   -8.4575   -8.2136 C   0  0  0  0  0  0  0  0  0  0  0  0
   38.8470   -8.5138   -7.7669 C   0  0  0  0  0  0  0  0  0  0  0  0
   43.0611   -9.3055   -6.7284 C   0  0  0  0  0  0  0  0  0  0  0  0
   43.6121  -10.2616   -6.0667 O   0  0  0  0  0  0  0  0  0  0  0  0
   45.7246   -6.2215   -7.7415 C   0  0  0  0  0  0  0  0  0  0  0  0
   46.1488   -7.5667   -7.1932 C   0  0  2  0  0  0  0  0  0  0  0  0
   46.2601   -8.6277   -8.2468 C   0  0  0  0  0  0  0  0  0  0  0  0
   45.1581   -8.0458   -6.1204 C   0  0  2  0  0  0  0  0  0  0  0  0
   43.8806   -8.1403   -6.7919 N   0  0  0  0  0  0  0  0  0  0  0  0
   45.1787   -7.1761   -4.9483 C   0  0  0  0  0  0  0  0  0  0  0  0
   46.2546   -7.1813   -4.2569 O   0  0  0  0  0  0  0  0  0  0  0  0
   44.1868   -6.3529   -4.4953 O   0  0  0  0  0  0  0  0  0  0  0  0
  2  1  1  0
  3  2  2  0
  4  2  1  0
  5  4  1  0
  5  6  1  6
  7  8  2  0
  7  5  1  0
  9  7  1  0
 10  9  1  0
 10 11  1  1
 11 12  1  0
 12 13  2  0
 12 17  1  0
 13 14  1  0
 14 15  2  0
 16 15  1  0
 17 16  2  0
 18 10  1  0
 19 18  2  0
 21 23  1  0
 21 20  1  6
 22 21  1  0
 23 24  1  6
 24 18  1  0
 25 27  1  0
 25 23  1  0
 26 25  2  0
M  END
$$$$
