NFV.pdb
     RDKit          3D

 27 27  0  0  1  0  0  0  0  0999 V2000
   32.6320  -24.8873  -16.0122 N   0  0  0  0  0  0  0  0  0  0  0  0
   31.2319  -24.7040  -16.0840 C   0  0  0  0  0  0  0  0  0  0  0  0
   30.5277  -25.6989  -16.4238 O   0  0  0  0  0  0  0  0  0  0  0  0
   30.5752  -23.4060  -15.7794 C   0  0  0  0  0  0  0  0  0  0  0  0
   29.5709  -23.1114  -16.8788 C   0  0  2  0  0  0  0  0  0  0  0  0
   30.2351  -22.7851  -18.1059 N   0  0  0  0  0  0  0  0  0  0  0  0
   28.6168  -22.0427  -16.4869 C   0  0  0  0  0  0  0  0  0  0  0  0
   28.9787  -20.8432  -16.6790 O   0  0  0  0  0  0  0  0  0  0  0  0
   27.3840  -22.4045  -15.9331 N   0  0  0  0  0  0  0  0  0  0  0  0
   26.4231  -21.3781  -15.5469 C   0  0  1  0  0  0  0  0  0  0  0  0
   25.4658  -21.1324  -16.6894 C   0  0  0  0  0  0  0  0  0  0  0  0
   24.2879  -20.3261  -16.3641 C   0  0  0  0  0  0  0  0  0  0  0  0
   24.4190  -18.9345  -16.2927 C   0  0  0  0  0  0  0  0  0  0  0  0
   23.3679  -18.1026  -16.0249 C   0  0  0  0  0  0  0  0  0  0  0  0
   22.1185  -18.6104  -15.8117 C   0  0  0  0  0  0  0  0  0  0  0  0
   21.9679  -19.9801  -15.8777 C   0  0  0  0  0  0  0  0  0  0  0  0
   23.0144  -20.8265  -16.1455 C   0  0  0  0  0  0  0  0  0  0  0  0
   25.8124  -21.8334  -14.2989 C   0  0  0  0  0  0  0  0  0  0  0  0
   25.3110  -23.0141  -14.1993 O   0  0  0  0  0  0  0  0  0  0  0  0
   25.6787  -19.6756  -10.4847 C   0  0  0  0  0  0  0  0  0  0  0  0
   25.6685  -21.1707  -10.7183 C   0  0  2  0  0  0  0  0  0  0  0  0
   27.0412  -21.7592  -10.8512 C   0  0  0  0  0  0  0  0  0  0  0  0
   24.8668  -21.5108  -11.9847 C   0  0  2  0  0  0  0  0  0  0  0  0
   25.6966  -21.0855  -13.0904 N   0  0  0  0  0  0  0  0  0  0  0  0
   23.5333  -20.9181  -11.9475 C   0  0  0  0  0  0  0  0  0  0  0  0
   22.7175  -21.4102  -11.0944 O   0  0  0  0  0  0  0  0  0  0  0  0
   23.0456  -19.8980  -12.7143 O   0  0  0  0  0  0  0  0  0  0  0  0
  2  1  1  0
  3  2  2  0
  4  2  1  0
  5  4  1  0
  5  6  1  6
  7  8  2  0
  7  5  1  0
  9  7  1  0
 10  9  1  0
 10 11  1  6
 11 12  1  0
 12 13  2  0
 12 17  1  0
 13 14  1  0
 14 15  2  0
 16 15  1  0
 17 16  2  0
 18 10  1  0
 19 18  2  0
 21 23  1  0
 21 20  1  6
 22 21  1  0
 23 24  1  6
 24 18  1  0
 25 27  1  0
 25 23  1  0
 26 25  2  0
M  END
$$$$
