NFV.pdb
     RDKit          3D

 27 27  0  0  1  0  0  0  0  0999 V2000
   22.6899  -36.6895  -15.8128 N   0  0  0  0  0  0  0  0  0  0  0  0
   23.8384  -37.0735  -15.0833 C   0  0  0  0  0  0  0  0  0  0  0  0
   23.9147  -38.2776  -14.7021 O   0  0  0  0  0  0  0  0  0  0  0  0
   24.9360  -36.1262  -14.7565 C   0  0  0  0  0  0  0  0  0  0  0  0
   24.5832  -34.7699  -15.3393 C   0  0  2  0  0  0  0  0  0  0  0  0
   25.5204  -34.3883  -16.3539 N   0  0  0  0  0  0  0  0  0  0  0  0
   24.4777  -33.7251  -14.2889 C   0  0  0  0  0  0  0  0  0  0  0  0
   25.5605  -33.2388  -13.8439 O   0  0  0  0  0  0  0  0  0  0  0  0
   23.2092  -33.3335  -13.8473 N   0  0  0  0  0  0  0  0  0  0  0  0
   23.0697  -32.2456  -12.8866 C   0  0  1  0  0  0  0  0  0  0  0  0
   21.7821  -31.5023  -13.1547 C   0  0  0  0  0  0  0  0  0  0  0  0
   21.4018  -30.5133  -12.1445 C   0  0  0  0  0  0  0  0  0  0  0  0
   20.4444  -30.8603  -11.1843 C   0  0  0  0  0  0  0  0  0  0  0  0
   20.0513  -30.0117  -10.1873 C   0  0  0  0  0  0  0  0  0  0  0  0
   20.5915  -28.7615  -10.0877 C   0  0  0  0  0  0  0  0  0  0  0  0
   21.5371  -28.3998  -11.0248 C   0  0  0  0  0  0  0  0  0  0  0  0
   21.9407  -29.2418  -12.0304 C   0  0  0  0  0  0  0  0  0  0  0  0
   23.1853  -32.8493  -11.5600 C   0  0  0  0  0  0  0  0  0  0  0  0
   22.6561  -33.9941  -11.3051 O   0  0  0  0  0  0  0  0  0  0  0  0
   26.3531  -32.3848   -9.1387 C   0  0  0  0  0  0  0  0  0  0  0  0
   25.0497  -32.2675   -8.3788 C   0  0  2  0  0  0  0  0  0  0  0  0
   25.1136  -32.8510   -6.9990 C   0  0  0  0  0  0  0  0  0  0  0  0
   23.9146  -32.9598   -9.1497 C   0  0  2  0  0  0  0  0  0  0  0  0
   23.8609  -32.2952  -10.4332 N   0  0  0  0  0  0  0  0  0  0  0  0
   22.6673  -32.9439   -8.3916 C   0  0  0  0  0  0  0  0  0  0  0  0
   21.9770  -31.8694   -8.4576 O   0  0  0  0  0  0  0  0  0  0  0  0
   22.1427  -33.9390   -7.6162 O   0  0  0  0  0  0  0  0  0  0  0  0
  2  1  1  0
  3  2  2  0
  4  2  1  0
  5  4  1  0
  5  6  1  6
  7  8  2  0
  7  5  1  0
  9  7  1  0
 10  9  1  0
 10 11  1  1
 11 12  1  0
 12 13  2  0
 12 17  1  0
 13 14  1  0
 14 15  2  0
 16 15  1  0
 17 16  2  0
 18 10  1  0
 19 18  2  0
 21 23  1  0
 21 20  1  6
 22 21  1  0
 23 24  1  6
 24 18  1  0
 25 27  1  0
 25 23  1  0
 26 25  2  0
M  END
$$$$
