NFV.pdb
     RDKit          3D

 27 27  0  0  1  0  0  0  0  0999 V2000
   26.3380  -19.4389  -20.8257 N   0  0  0  0  0  0  0  0  0  0  0  0
   26.0923  -20.8055  -20.5591 C   0  0  0  0  0  0  0  0  0  0  0  0
   26.4332  -21.6450  -21.4423 O   0  0  0  0  0  0  0  0  0  0  0  0
   25.4589  -21.2768  -19.3000 C   0  0  0  0  0  0  0  0  0  0  0  0
   26.4261  -21.0251  -18.1576 C   0  0  2  0  0  0  0  0  0  0  0  0
   27.6881  -21.6570  -18.4057 N   0  0  0  0  0  0  0  0  0  0  0  0
   25.8635  -21.4501  -16.8504 C   0  0  0  0  0  0  0  0  0  0  0  0
   25.0081  -22.3855  -16.8637 O   0  0  0  0  0  0  0  0  0  0  0  0
   26.2968  -20.8083  -15.6852 N   0  0  0  0  0  0  0  0  0  0  0  0
   25.6517  -21.0902  -14.4083 C   0  0  1  0  0  0  0  0  0  0  0  0
   26.4868  -20.5171  -13.2875 C   0  0  0  0  0  0  0  0  0  0  0  0
   25.8865  -20.5859  -11.9539 C   0  0  0  0  0  0  0  0  0  0  0  0
   26.2015  -21.6686  -11.1249 C   0  0  0  0  0  0  0  0  0  0  0  0
   25.7116  -21.7988   -9.8554 C   0  0  0  0  0  0  0  0  0  0  0  0
   24.8750  -20.8536   -9.3347 C   0  0  0  0  0  0  0  0  0  0  0  0
   24.5519  -19.7781  -10.1359 C   0  0  0  0  0  0  0  0  0  0  0  0
   25.0366  -19.6351  -11.4117 C   0  0  0  0  0  0  0  0  0  0  0  0
   24.2895  -20.5690  -14.5104 C   0  0  0  0  0  0  0  0  0  0  0  0
   24.0680  -19.3725  -14.9285 O   0  0  0  0  0  0  0  0  0  0  0  0
   20.7181  -22.6121  -14.9743 C   0  0  0  0  0  0  0  0  0  0  0  0
   20.9012  -21.1148  -15.0958 C   0  0  2  0  0  0  0  0  0  0  0  0
   21.4653  -20.6922  -16.4192 C   0  0  0  0  0  0  0  0  0  0  0  0
   21.8248  -20.5948  -13.9827 C   0  0  2  0  0  0  0  0  0  0  0  0
   23.0889  -21.2672  -14.1872 N   0  0  0  0  0  0  0  0  0  0  0  0
   21.2294  -20.7835  -12.6634 C   0  0  0  0  0  0  0  0  0  0  0  0
   21.6137  -21.8132  -12.0097 O   0  0  0  0  0  0  0  0  0  0  0  0
   20.3079  -19.9931  -12.0367 O   0  0  0  0  0  0  0  0  0  0  0  0
  2  1  1  0
  3  2  2  0
  4  2  1  0
  5  4  1  0
  5  6  1  6
  7  8  2  0
  7  5  1  0
  9  7  1  0
 10  9  1  0
 10 11  1  1
 11 12  1  0
 12 13  2  0
 12 17  1  0
 13 14  1  0
 14 15  2  0
 16 15  1  0
 17 16  2  0
 18 10  1  0
 19 18  2  0
 21 23  1  0
 21 20  1  6
 22 21  1  0
 23 24  1  1
 24 18  1  0
 25 27  1  0
 25 23  1  0
 26 25  2  0
M  END
$$$$
