NFV.pdb
     RDKit          3D

 27 27  0  0  1  0  0  0  0  0999 V2000
   29.0795  -17.8036  -18.3298 N   0  0  0  0  0  0  0  0  0  0  0  0
   27.9290  -18.4842  -18.7902 C   0  0  0  0  0  0  0  0  0  0  0  0
   27.6952  -18.4647  -20.0336 O   0  0  0  0  0  0  0  0  0  0  0  0
   27.0045  -19.2066  -17.8779 C   0  0  0  0  0  0  0  0  0  0  0  0
   27.7680  -20.3498  -17.2344 C   0  0  2  0  0  0  0  0  0  0  0  0
   28.0141  -21.3982  -18.1798 N   0  0  0  0  0  0  0  0  0  0  0  0
   27.0754  -20.8699  -16.0278 C   0  0  0  0  0  0  0  0  0  0  0  0
   26.1827  -21.7519  -16.2066 O   0  0  0  0  0  0  0  0  0  0  0  0
   27.4349  -20.3698  -14.7716 N   0  0  0  0  0  0  0  0  0  0  0  0
   26.6746  -20.7472  -13.5861 C   0  0  1  0  0  0  0  0  0  0  0  0
   27.4248  -20.3108  -12.3496 C   0  0  0  0  0  0  0  0  0  0  0  0
   26.6908  -20.4348  -11.0890 C   0  0  0  0  0  0  0  0  0  0  0  0
   26.2117  -21.6927  -10.7056 C   0  0  0  0  0  0  0  0  0  0  0  0
   25.5429  -21.9066   -9.5327 C   0  0  0  0  0  0  0  0  0  0  0  0
   25.3110  -20.8751   -8.6687 C   0  0  0  0  0  0  0  0  0  0  0  0
   25.7753  -19.6266   -9.0280 C   0  0  0  0  0  0  0  0  0  0  0  0
   26.4479  -19.3981  -10.2021 C   0  0  0  0  0  0  0  0  0  0  0  0
   25.3408  -20.1716  -13.7509 C   0  0  0  0  0  0  0  0  0  0  0  0
   25.1861  -18.9797  -14.2102 O   0  0  0  0  0  0  0  0  0  0  0  0
   21.1304  -19.4292  -15.2342 C   0  0  0  0  0  0  0  0  0  0  0  0
   22.4174  -20.1923  -15.0072 C   0  0  2  0  0  0  0  0  0  0  0  0
   22.3297  -21.6345  -15.4079 C   0  0  0  0  0  0  0  0  0  0  0  0
   22.8304  -20.1205  -13.5286 C   0  0  2  0  0  0  0  0  0  0  0  0
   24.1005  -20.8080  -13.4507 N   0  0  0  0  0  0  0  0  0  0  0  0
   21.7859  -20.6486  -12.6563 C   0  0  0  0  0  0  0  0  0  0  0  0
   21.9922  -21.8106  -12.1636 O   0  0  0  0  0  0  0  0  0  0  0  0
   20.6094  -20.0532  -12.2987 O   0  0  0  0  0  0  0  0  0  0  0  0
  2  1  1  0
  3  2  2  0
  4  2  1  0
  5  4  1  0
  5  6  1  6
  7  8  2  0
  7  5  1  0
  9  7  1  0
 10  9  1  0
 10 11  1  1
 11 12  1  0
 12 13  2  0
 12 17  1  0
 13 14  1  0
 14 15  2  0
 16 15  1  0
 17 16  2  0
 18 10  1  0
 19 18  2  0
 21 23  1  0
 21 20  1  1
 22 21  1  0
 23 24  1  6
 24 18  1  0
 25 27  1  0
 25 23  1  0
 26 25  2  0
M  END
$$$$
