NFV.pdb
     RDKit          3D

 27 27  0  0  1  0  0  0  0  0999 V2000
   20.8929  -12.4830  -21.6442 N   0  0  0  0  0  0  0  0  0  0  0  0
   21.6504  -11.4603  -21.0283 C   0  0  0  0  0  0  0  0  0  0  0  0
   22.4339  -10.7895  -21.7612 O   0  0  0  0  0  0  0  0  0  0  0  0
   21.5571  -11.1552  -19.5767 C   0  0  0  0  0  0  0  0  0  0  0  0
   22.9655  -11.0139  -19.0288 C   0  0  2  0  0  0  0  0  0  0  0  0
   23.5171  -12.2940  -18.6963 N   0  0  0  0  0  0  0  0  0  0  0  0
   23.0187  -10.0909  -17.8664 C   0  0  0  0  0  0  0  0  0  0  0  0
   22.4836  -10.4859  -16.7872 O   0  0  0  0  0  0  0  0  0  0  0  0
   23.6462   -8.8493  -18.0149 N   0  0  0  0  0  0  0  0  0  0  0  0
   23.8136   -7.9689  -16.8648 C   0  0  1  0  0  0  0  0  0  0  0  0
   25.2842   -7.6969  -16.6515 C   0  0  0  0  0  0  0  0  0  0  0  0
   26.0893   -8.8536  -16.2553 C   0  0  0  0  0  0  0  0  0  0  0  0
   27.1738   -9.2298  -17.0562 C   0  0  0  0  0  0  0  0  0  0  0  0
   27.9967  -10.2768  -16.7476 C   0  0  0  0  0  0  0  0  0  0  0  0
   27.7868  -11.0141  -15.6176 C   0  0  0  0  0  0  0  0  0  0  0  0
   26.7227  -10.6596  -14.8144 C   0  0  0  0  0  0  0  0  0  0  0  0
   25.8890   -9.6111  -15.1123 C   0  0  0  0  0  0  0  0  0  0  0  0
   22.9850   -6.7920  -17.1221 C   0  0  0  0  0  0  0  0  0  0  0  0
   23.1696   -6.0686  -18.1700 O   0  0  0  0  0  0  0  0  0  0  0  0
   19.3324   -6.6886  -17.4136 C   0  0  0  0  0  0  0  0  0  0  0  0
   19.6752   -5.5569  -16.4693 C   0  0  2  0  0  0  0  0  0  0  0  0
   18.8096   -4.3468  -16.6556 C   0  0  0  0  0  0  0  0  0  0  0  0
   21.1437   -5.1384  -16.6437 C   0  0  2  0  0  0  0  0  0  0  0  0
   21.9200   -6.3108  -16.3051 N   0  0  0  0  0  0  0  0  0  0  0  0
   21.4545   -3.9438  -15.8646 C   0  0  0  0  0  0  0  0  0  0  0  0
   21.6494   -4.1179  -14.6127 O   0  0  0  0  0  0  0  0  0  0  0  0
   21.5636   -2.6562  -16.3082 O   0  0  0  0  0  0  0  0  0  0  0  0
  2  1  1  0
  3  2  2  0
  4  2  1  0
  5  4  1  0
  5  6  1  1
  7  8  2  0
  7  5  1  0
  9  7  1  0
 10  9  1  0
 10 11  1  6
 11 12  1  0
 12 13  2  0
 12 17  1  0
 13 14  1  0
 14 15  2  0
 16 15  1  0
 17 16  2  0
 18 10  1  0
 19 18  2  0
 21 23  1  0
 21 20  1  6
 22 21  1  0
 23 24  1  1
 24 18  1  0
 25 27  1  0
 25 23  1  0
 26 25  2  0
M  END
$$$$
