VQL.pdb
     RDKit          3D

 25 24  0  0  1  0  0  0  0  0999 V2000
    8.2969  -12.4531   17.8147 C   0  0  0  0  0  0  0  0  0  0  0  0
    7.9385  -13.3485   19.0075 C   0  0  2  0  0  0  0  0  0  0  0  0
    8.3836  -12.6445   20.2557 C   0  0  0  0  0  0  0  0  0  0  0  0
    8.5732  -14.7117   18.8391 C   0  0  2  0  0  0  0  0  0  0  0  0
    8.1601  -15.3632   17.6298 N   0  0  0  0  0  0  0  0  0  0  0  0
    8.2952  -15.5086   20.0501 C   0  0  0  0  0  0  0  0  0  0  0  0
    7.1670  -16.0587   20.1433 O   0  0  0  0  0  0  0  0  0  0  0  0
   11.3799  -19.9576   22.8191 N   0  0  0  0  0  0  0  0  0  0  0  0
   11.9495  -18.7450   22.3976 C   0  0  0  0  0  0  0  0  0  0  0  0
   13.1805  -18.7078   22.1988 O   0  0  0  0  0  0  0  0  0  0  0  0
   11.1445  -17.5235   22.1835 C   0  0  0  0  0  0  0  0  0  0  0  0
    9.6934  -17.6844   22.4542 C   0  0  0  0  0  0  0  0  0  0  0  0
    8.8604  -16.4389   22.2674 C   0  0  2  0  0  0  0  0  0  0  0  0
    9.2174  -15.6904   21.1083 N   0  0  0  0  0  0  0  0  0  0  0  0
    9.1503  -15.5901   23.4786 C   0  0  0  0  0  0  0  0  0  0  0  0
   10.1682  -14.8651   23.4434 O   0  0  0  0  0  0  0  0  0  0  0  0
    5.9789  -12.2465   27.0265 C   0  0  0  0  0  0  0  0  0  0  0  0
    7.3522  -12.9416   26.9511 C   0  0  2  0  0  0  0  0  0  0  0  0
    8.4124  -11.9074   26.7628 C   0  0  0  0  0  0  0  0  0  0  0  0
    7.2889  -13.8554   25.7683 C   0  0  0  0  0  0  0  0  0  0  0  0
    8.5308  -14.6991   25.6895 C   0  0  2  0  0  0  0  0  0  0  0  0
    8.2907  -15.6357   24.5857 N   0  0  0  0  0  0  0  0  0  0  0  0
    8.7976  -15.4410   26.9385 C   0  0  0  0  0  0  0  0  0  0  0  0
    8.4568  -16.8100   26.9680 O   0  0  0  0  0  0  0  0  0  0  0  0
    9.2956  -14.9888   27.9811 O   0  0  0  0  0  0  0  0  0  0  0  0
  2  1  1  6
  2  4  1  0
  3  2  1  0
  4  5  1  6
  6 14  1  0
  6  4  1  0
  7  6  2  0
  9  8  1  0
  9 11  1  0
 10  9  2  0
 12 11  1  0
 13 12  1  1
 13 14  1  0
 15 13  1  0
 16 15  2  0
 18 20  1  0
 18 17  1  6
 19 18  1  0
 21 20  1  1
 21 22  1  0
 21 23  1  0
 22 15  1  0
 23 24  1  0
 25 23  2  0
M  END
$$$$
