VQL.pdb
     RDKit          3D

 25 24  0  0  1  0  0  0  0  0999 V2000
    7.6165  -12.7865   18.4255 C   0  0  0  0  0  0  0  0  0  0  0  0
    7.6281  -13.5021   19.7823 C   0  0  2  0  0  0  0  0  0  0  0  0
    8.4769  -12.6918   20.7176 C   0  0  0  0  0  0  0  0  0  0  0  0
    8.1238  -14.9216   19.6133 C   0  0  2  0  0  0  0  0  0  0  0  0
    7.3329  -15.6712   18.6804 N   0  0  0  0  0  0  0  0  0  0  0  0
    8.1986  -15.5515   20.9461 C   0  0  0  0  0  0  0  0  0  0  0  0
    7.1434  -16.0480   21.4196 O   0  0  0  0  0  0  0  0  0  0  0  0
   12.4115  -19.5493   23.0688 N   0  0  0  0  0  0  0  0  0  0  0  0
   11.6961  -19.2087   24.2285 C   0  0  0  0  0  0  0  0  0  0  0  0
   11.9317  -19.8436   25.2761 O   0  0  0  0  0  0  0  0  0  0  0  0
   10.6833  -18.1317   24.2469 C   0  0  0  0  0  0  0  0  0  0  0  0
   10.5006  -17.4328   22.9496 C   0  0  0  0  0  0  0  0  0  0  0  0
    9.4134  -16.3853   22.9287 C   0  0  2  0  0  0  0  0  0  0  0  0
    9.3808  -15.6303   21.7204 N   0  0  0  0  0  0  0  0  0  0  0  0
    9.7546  -15.4460   24.0569 C   0  0  0  0  0  0  0  0  0  0  0  0
   10.5631  -14.5239   23.8138 O   0  0  0  0  0  0  0  0  0  0  0  0
    6.9522  -12.7266   24.7048 C   0  0  0  0  0  0  0  0  0  0  0  0
    7.4224  -13.4663   25.9723 C   0  0  2  0  0  0  0  0  0  0  0  0
    6.8501  -12.7880   27.1730 C   0  0  0  0  0  0  0  0  0  0  0  0
    8.9156  -13.3745   25.9747 C   0  0  0  0  0  0  0  0  0  0  0  0
    9.5216  -14.6868   26.3883 C   0  0  2  0  0  0  0  0  0  0  0  0
    9.1697  -15.6276   25.3185 N   0  0  0  0  0  0  0  0  0  0  0  0
    9.0044  -15.1719   27.6839 C   0  0  0  0  0  0  0  0  0  0  0  0
    8.2448  -16.3612   27.6777 O   0  0  0  0  0  0  0  0  0  0  0  0
    9.1652  -14.6431   28.7948 O   0  0  0  0  0  0  0  0  0  0  0  0
  2  1  1  6
  2  4  1  0
  3  2  1  0
  4  5  1  6
  6 14  1  0
  6  4  1  0
  7  6  2  0
  9  8  1  0
  9 11  1  0
 10  9  2  0
 12 11  1  0
 13 12  1  6
 13 14  1  0
 15 13  1  0
 16 15  2  0
 18 20  1  0
 18 17  1  6
 19 18  1  0
 21 20  1  6
 21 22  1  0
 21 23  1  0
 22 15  1  0
 23 24  1  0
 25 23  2  0
M  END
$$$$
