VQL.pdb
     RDKit          3D

 25 24  0  0  1  0  0  0  0  0999 V2000
    7.0794  -13.1379   20.5649 C   0  0  0  0  0  0  0  0  0  0  0  0
    8.3656  -13.2850   19.7420 C   0  0  2  0  0  0  0  0  0  0  0  0
    8.2660  -12.3529   18.5703 C   0  0  0  0  0  0  0  0  0  0  0  0
    8.5553  -14.7297   19.3340 C   0  0  2  0  0  0  0  0  0  0  0  0
    7.5637  -15.1690   18.3952 N   0  0  0  0  0  0  0  0  0  0  0  0
    8.6028  -15.5571   20.5555 C   0  0  0  0  0  0  0  0  0  0  0  0
    7.5297  -16.0844   20.9481 O   0  0  0  0  0  0  0  0  0  0  0  0
   10.1896  -20.7915   22.6338 N   0  0  0  0  0  0  0  0  0  0  0  0
   11.2621  -19.9293   22.3528 C   0  0  0  0  0  0  0  0  0  0  0  0
   12.4124  -20.2947   22.6680 O   0  0  0  0  0  0  0  0  0  0  0  0
   11.0729  -18.6159   21.7009 C   0  0  0  0  0  0  0  0  0  0  0  0
   10.9749  -17.4689   22.6388 C   0  0  0  0  0  0  0  0  0  0  0  0
    9.7458  -16.6068   22.4773 C   0  0  2  0  0  0  0  0  0  0  0  0
    9.7781  -15.7919   21.3084 N   0  0  0  0  0  0  0  0  0  0  0  0
    9.7455  -15.6981   23.6798 C   0  0  0  0  0  0  0  0  0  0  0  0
   10.3297  -14.5982   23.5704 O   0  0  0  0  0  0  0  0  0  0  0  0
    6.0763  -12.7900   26.4722 C   0  0  0  0  0  0  0  0  0  0  0  0
    7.4540  -13.4036   26.7891 C   0  0  2  0  0  0  0  0  0  0  0  0
    8.4671  -12.3101   26.8722 C   0  0  0  0  0  0  0  0  0  0  0  0
    7.7657  -14.3281   25.6549 C   0  0  0  0  0  0  0  0  0  0  0  0
    8.9987  -15.1334   25.9577 C   0  0  2  0  0  0  0  0  0  0  0  0
    9.1053  -16.1017   24.8604 N   0  0  0  0  0  0  0  0  0  0  0  0
    8.9169  -15.8382   27.2531 C   0  0  0  0  0  0  0  0  0  0  0  0
    8.3405  -17.1262   27.2583 O   0  0  0  0  0  0  0  0  0  0  0  0
    9.3041  -15.4185   28.3547 O   0  0  0  0  0  0  0  0  0  0  0  0
  2  1  1  6
  2  4  1  0
  3  2  1  0
  4  5  1  6
  6 14  1  0
  6  4  1  0
  7  6  2  0
  9  8  1  0
  9 11  1  0
 10  9  2  0
 12 11  1  0
 13 12  1  1
 13 14  1  0
 15 13  1  0
 16 15  2  0
 18 20  1  0
 18 17  1  6
 19 18  1  0
 21 20  1  6
 21 22  1  0
 21 23  1  0
 22 15  1  0
 23 24  1  0
 25 23  2  0
M  END
$$$$
