VQL.pdb
     RDKit          3D

 25 24  0  0  1  0  0  0  0  0999 V2000
    7.9154  -12.4048   18.5600 C   0  0  0  0  0  0  0  0  0  0  0  0
    7.8605  -13.2809   19.8181 C   0  0  2  0  0  0  0  0  0  0  0  0
    8.5310  -12.5263   20.9283 C   0  0  0  0  0  0  0  0  0  0  0  0
    8.5038  -14.6223   19.5419 C   0  0  2  0  0  0  0  0  0  0  0  0
    7.9290  -15.2824   18.4055 N   0  0  0  0  0  0  0  0  0  0  0  0
    8.4418  -15.4320   20.7744 C   0  0  0  0  0  0  0  0  0  0  0  0
    7.3985  -16.1049   20.9816 O   0  0  0  0  0  0  0  0  0  0  0  0
    9.1244  -20.6725   23.9396 N   0  0  0  0  0  0  0  0  0  0  0  0
   10.0727  -19.8480   23.3124 C   0  0  0  0  0  0  0  0  0  0  0  0
   10.6335  -20.2706   22.2813 O   0  0  0  0  0  0  0  0  0  0  0  0
   10.4232  -18.5080   23.8296 C   0  0  0  0  0  0  0  0  0  0  0  0
   10.5190  -17.4505   22.7917 C   0  0  0  0  0  0  0  0  0  0  0  0
    9.4167  -16.4189   22.8182 C   0  0  2  0  0  0  0  0  0  0  0  0
    9.4809  -15.4970   21.7332 N   0  0  0  0  0  0  0  0  0  0  0  0
    9.6318  -15.6506   24.0969 C   0  0  0  0  0  0  0  0  0  0  0  0
   10.7581  -15.1393   24.2788 O   0  0  0  0  0  0  0  0  0  0  0  0
    8.2568  -12.1600   25.8588 C   0  0  0  0  0  0  0  0  0  0  0  0
    7.1705  -13.2519   25.8110 C   0  0  2  0  0  0  0  0  0  0  0  0
    5.8635  -12.6574   26.2203 C   0  0  0  0  0  0  0  0  0  0  0  0
    7.5997  -14.3052   26.7829 C   0  0  0  0  0  0  0  0  0  0  0  0
    8.8864  -14.9405   26.3343 C   0  0  2  0  0  0  0  0  0  0  0  0
    8.5876  -15.5330   25.0255 N   0  0  0  0  0  0  0  0  0  0  0  0
    9.3657  -15.9805   27.2670 C   0  0  0  0  0  0  0  0  0  0  0  0
    9.9703  -15.5502   28.4672 O   0  0  0  0  0  0  0  0  0  0  0  0
    9.2956  -17.2095   27.1114 O   0  0  0  0  0  0  0  0  0  0  0  0
  2  1  1  6
  2  4  1  0
  3  2  1  0
  4  5  1  6
  6 14  1  0
  6  4  1  0
  7  6  2  0
  9  8  1  0
  9 11  1  0
 10  9  2  0
 12 11  1  0
 13 12  1  6
 13 14  1  0
 15 13  1  0
 16 15  2  0
 18 20  1  0
 18 17  1  1
 19 18  1  0
 21 20  1  1
 21 22  1  0
 21 23  1  0
 22 15  1  0
 23 24  1  0
 25 23  2  0
M  END
$$$$
