VQL.pdb
     RDKit          3D

 25 24  0  0  1  0  0  0  0  0999 V2000
    7.1770  -12.8948   20.0436 C   0  0  0  0  0  0  0  0  0  0  0  0
    8.6320  -13.0895   19.5983 C   0  0  2  0  0  0  0  0  0  0  0  0
    8.8776  -12.1772   18.4325 C   0  0  0  0  0  0  0  0  0  0  0  0
    8.8819  -14.5458   19.2725 C   0  0  2  0  0  0  0  0  0  0  0  0
    8.1303  -14.9898   18.1342 N   0  0  0  0  0  0  0  0  0  0  0  0
    8.6230  -15.3463   20.4852 C   0  0  0  0  0  0  0  0  0  0  0  0
    7.4815  -15.8602   20.6154 O   0  0  0  0  0  0  0  0  0  0  0  0
   12.3073  -19.5823   22.8580 N   0  0  0  0  0  0  0  0  0  0  0  0
   11.1409  -19.7707   22.0985 C   0  0  0  0  0  0  0  0  0  0  0  0
   10.9410  -20.8925   21.5908 O   0  0  0  0  0  0  0  0  0  0  0  0
   10.1519  -18.6927   21.8847 C   0  0  0  0  0  0  0  0  0  0  0  0
   10.3014  -17.5277   22.7932 C   0  0  0  0  0  0  0  0  0  0  0  0
    9.2837  -16.4283   22.6052 C   0  0  2  0  0  0  0  0  0  0  0  0
    9.5774  -15.5698   21.5062 N   0  0  0  0  0  0  0  0  0  0  0  0
    9.3552  -15.6099   23.8689 C   0  0  0  0  0  0  0  0  0  0  0  0
   10.3884  -14.9320   24.0580 O   0  0  0  0  0  0  0  0  0  0  0  0
    5.9423  -12.4351   27.2442 C   0  0  0  0  0  0  0  0  0  0  0  0
    7.3486  -12.9709   26.9124 C   0  0  2  0  0  0  0  0  0  0  0  0
    7.9579  -12.1162   25.8506 C   0  0  0  0  0  0  0  0  0  0  0  0
    7.1524  -14.3691   26.4177 C   0  0  0  0  0  0  0  0  0  0  0  0
    8.4766  -14.9998   26.0873 C   0  0  2  0  0  0  0  0  0  0  0  0
    8.2862  -15.6308   24.7763 N   0  0  0  0  0  0  0  0  0  0  0  0
    8.8932  -16.0084   27.0826 C   0  0  0  0  0  0  0  0  0  0  0  0
    9.7517  -15.5843   28.1191 O   0  0  0  0  0  0  0  0  0  0  0  0
    8.5681  -17.2055   27.1103 O   0  0  0  0  0  0  0  0  0  0  0  0
  2  1  1  6
  2  4  1  0
  3  2  1  0
  4  5  1  6
  6 14  1  0
  6  4  1  0
  7  6  2  0
  9  8  1  0
  9 11  1  0
 10  9  2  0
 12 11  1  0
 13 12  1  1
 13 14  1  0
 15 13  1  0
 16 15  2  0
 18 20  1  0
 18 17  1  6
 19 18  1  0
 21 20  1  1
 21 22  1  0
 21 23  1  0
 22 15  1  0
 23 24  1  0
 25 23  2  0
M  END
$$$$
