VQL.pdb
     RDKit          3D

 25 24  0  0  1  0  0  0  0  0999 V2000
    7.8439  -12.5724   18.1544 C   0  0  0  0  0  0  0  0  0  0  0  0
    7.8656  -13.4177   19.4343 C   0  0  2  0  0  0  0  0  0  0  0  0
    8.6068  -12.6398   20.4817 C   0  0  0  0  0  0  0  0  0  0  0  0
    8.4863  -14.7682   19.1508 C   0  0  2  0  0  0  0  0  0  0  0  0
    7.8518  -15.4445   18.0564 N   0  0  0  0  0  0  0  0  0  0  0  0
    8.4807  -15.5556   20.3993 C   0  0  0  0  0  0  0  0  0  0  0  0
    7.3964  -16.0894   20.7506 O   0  0  0  0  0  0  0  0  0  0  0  0
   12.9171  -19.2227   22.9824 N   0  0  0  0  0  0  0  0  0  0  0  0
   12.0335  -19.4226   21.9092 C   0  0  0  0  0  0  0  0  0  0  0  0
   12.2441  -20.3828   21.1411 O   0  0  0  0  0  0  0  0  0  0  0  0
   10.8727  -18.5405   21.6638 C   0  0  0  0  0  0  0  0  0  0  0  0
   10.7365  -17.4166   22.6246 C   0  0  0  0  0  0  0  0  0  0  0  0
    9.5353  -16.5271   22.4107 C   0  0  2  0  0  0  0  0  0  0  0  0
    9.6169  -15.7455   21.2217 N   0  0  0  0  0  0  0  0  0  0  0  0
    9.5316  -15.5862   23.5882 C   0  0  0  0  0  0  0  0  0  0  0  0
   10.5636  -14.9090   23.7873 O   0  0  0  0  0  0  0  0  0  0  0  0
    5.8227  -12.1968   26.7040 C   0  0  0  0  0  0  0  0  0  0  0  0
    7.1936  -12.8984   26.7624 C   0  0  2  0  0  0  0  0  0  0  0  0
    8.2714  -11.8656   26.7341 C   0  0  0  0  0  0  0  0  0  0  0  0
    7.2642  -13.7697   25.5483 C   0  0  0  0  0  0  0  0  0  0  0  0
    8.4744  -14.6596   25.6104 C   0  0  2  0  0  0  0  0  0  0  0  0
    8.3979  -15.4983   24.4088 N   0  0  0  0  0  0  0  0  0  0  0  0
    8.5003  -15.5051   26.8212 C   0  0  0  0  0  0  0  0  0  0  0  0
    9.2508  -15.0420   27.9228 O   0  0  0  0  0  0  0  0  0  0  0  0
    7.9274  -16.5940   26.9811 O   0  0  0  0  0  0  0  0  0  0  0  0
  2  1  1  6
  2  4  1  0
  3  2  1  0
  4  5  1  6
  6 14  1  0
  6  4  1  0
  7  6  2  0
  9  8  1  0
  9 11  1  0
 10  9  2  0
 12 11  1  0
 13 12  1  1
 13 14  1  0
 15 13  1  0
 16 15  2  0
 18 20  1  0
 18 17  1  6
 19 18  1  0
 21 20  1  1
 21 22  1  0
 21 23  1  0
 22 15  1  0
 23 24  1  0
 25 23  2  0
M  END
$$$$
