SGW.pdb
     RDKit          3D

 25 26  0  0  1  0  0  0  0  0999 V2000
   28.9739  -19.6943  -18.8018 O   0  0  0  0  0  0  0  0  0  0  0  0
   29.9605  -20.5174  -18.3109 C   0  0  0  0  0  0  0  0  0  0  0  0
   29.3125  -21.5007  -17.3573 C   0  0  2  0  0  0  0  0  0  0  0  0
   28.5993  -22.5314  -18.0667 N   0  0  0  0  0  0  0  0  0  0  0  0
   28.4172  -20.8036  -16.4090 C   0  0  0  0  0  0  0  0  0  0  0  0
   27.2457  -20.4682  -16.7736 O   0  0  0  0  0  0  0  0  0  0  0  0
   28.8742  -20.5140  -15.0971 N   0  0  0  0  0  0  0  0  0  0  0  0
   28.0646  -19.8565  -14.1064 C   0  0  0  0  0  0  0  0  0  0  0  0
   27.0429  -20.7713  -13.5806 C   0  0  0  0  0  0  0  0  0  0  0  0
   26.7925  -21.8840  -14.1774 O   0  0  0  0  0  0  0  0  0  0  0  0
   26.3147  -20.4663  -12.4131 N   0  0  0  0  0  0  0  0  0  0  0  0
   25.3501  -21.4649  -11.9089 C   0  0  1  0  0  0  0  0  0  0  0  0
   25.9456  -22.1551  -10.6825 C   0  0  0  0  0  0  0  0  0  0  0  0
   26.2196  -21.1255   -9.6543 C   0  0  0  0  0  0  0  0  0  0  0  0
   25.3822  -20.1201   -9.1784 C   0  0  0  0  0  0  0  0  0  0  0  0
   26.0165  -19.3926   -8.2441 N   0  0  0  0  0  0  0  0  0  0  0  0
   27.2599  -19.8928   -8.0875 C   0  0  0  0  0  0  0  0  0  0  0  0
   28.3200  -19.5435   -7.2779 C   0  0  0  0  0  0  0  0  0  0  0  0
   29.5126  -20.2339   -7.3093 C   0  0  0  0  0  0  0  0  0  0  0  0
   29.6400  -21.2991   -8.1758 C   0  0  0  0  0  0  0  0  0  0  0  0
   28.6045  -21.6610   -8.9848 C   0  0  0  0  0  0  0  0  0  0  0  0
   27.4045  -20.9609   -8.9477 C   0  0  0  0  0  0  0  0  0  0  0  0
   24.1478  -20.7411  -11.4516 C   0  0  0  0  0  0  0  0  0  0  0  0
   24.1226  -19.4944  -11.3557 O   0  0  0  0  0  0  0  0  0  0  0  0
   23.0004  -21.4306  -11.1125 O   0  0  0  0  0  0  0  0  0  0  0  0
  2  1  1  0
  3  2  1  0
  3  4  1  6
  5  3  1  0
  5  6  2  0
  7  5  1  0
  8  7  1  0
  8  9  1  0
  9 11  1  0
  9 10  2  0
 11 12  1  0
 12 13  1  1
 13 14  1  0
 14 15  2  0
 14 22  1  0
 15 16  1  0
 16 17  1  0
 17 18  2  0
 19 18  1  0
 20 19  2  0
 21 22  2  0
 21 20  1  0
 22 17  1  0
 23 25  1  0
 23 12  1  0
 24 23  2  0
M  END
$$$$
