SGW.pdb
     RDKit          3D

 25 26  0  0  1  0  0  0  0  0999 V2000
   27.6484  -23.3370  -17.1920 O   0  0  0  0  0  0  0  0  0  0  0  0
   28.4722  -22.6936  -18.0860 C   0  0  0  0  0  0  0  0  0  0  0  0
   29.2895  -21.6770  -17.3150 C   0  0  2  0  0  0  0  0  0  0  0  0
   30.1707  -22.3149  -16.3712 N   0  0  0  0  0  0  0  0  0  0  0  0
   28.4112  -20.7019  -16.6332 C   0  0  0  0  0  0  0  0  0  0  0  0
   27.4779  -20.1292  -17.2805 O   0  0  0  0  0  0  0  0  0  0  0  0
   28.6180  -20.4128  -15.2594 N   0  0  0  0  0  0  0  0  0  0  0  0
   27.7951  -19.4995  -14.5125 C   0  0  0  0  0  0  0  0  0  0  0  0
   26.6814  -20.2102  -13.8708 C   0  0  0  0  0  0  0  0  0  0  0  0
   25.6283  -20.5181  -14.5438 O   0  0  0  0  0  0  0  0  0  0  0  0
   26.7317  -20.5801  -12.5117 N   0  0  0  0  0  0  0  0  0  0  0  0
   25.7539  -21.5717  -12.0195 C   0  0  1  0  0  0  0  0  0  0  0  0
   26.2677  -22.1676  -10.7096 C   0  0  0  0  0  0  0  0  0  0  0  0
   26.3748  -21.0789   -9.7116 C   0  0  0  0  0  0  0  0  0  0  0  0
   25.4827  -20.0428   -9.4487 C   0  0  0  0  0  0  0  0  0  0  0  0
   25.9563  -19.2631   -8.4625 N   0  0  0  0  0  0  0  0  0  0  0  0
   27.1461  -19.7586   -8.0629 C   0  0  0  0  0  0  0  0  0  0  0  0
   28.0549  -19.3659   -7.1031 C   0  0  0  0  0  0  0  0  0  0  0  0
   29.2243  -20.0625   -6.8860 C   0  0  0  0  0  0  0  0  0  0  0  0
   29.4840  -21.1787   -7.6530 C   0  0  0  0  0  0  0  0  0  0  0  0
   28.5991  -21.5841   -8.6072 C   0  0  0  0  0  0  0  0  0  0  0  0
   27.4215  -20.8774   -8.8206 C   0  0  0  0  0  0  0  0  0  0  0  0
   24.5034  -20.8545  -11.7025 C   0  0  0  0  0  0  0  0  0  0  0  0
   23.4197  -21.4561  -11.5355 O   0  0  0  0  0  0  0  0  0  0  0  0
   24.4954  -19.4791  -11.5793 O   0  0  0  0  0  0  0  0  0  0  0  0
  2  1  1  0
  3  2  1  0
  3  4  1  1
  5  3  1  0
  5  6  2  0
  7  5  1  0
  8  7  1  0
  8  9  1  0
  9 11  1  0
  9 10  2  0
 11 12  1  0
 12 13  1  1
 13 14  1  0
 14 15  2  0
 14 22  1  0
 15 16  1  0
 16 17  1  0
 17 18  2  0
 19 18  1  0
 20 19  2  0
 21 22  2  0
 21 20  1  0
 22 17  1  0
 23 25  1  0
 23 12  1  0
 24 23  2  0
M  END
$$$$
