SGW.pdb
     RDKit          3D

 25 26  0  0  1  0  0  0  0  0999 V2000
   25.3219  -19.7430  -17.6132 O   0  0  0  0  0  0  0  0  0  0  0  0
   25.5932  -18.4139  -17.8406 C   0  0  0  0  0  0  0  0  0  0  0  0
   27.0275  -18.1556  -17.4260 C   0  0  2  0  0  0  0  0  0  0  0  0
   27.9516  -18.9341  -18.2097 N   0  0  0  0  0  0  0  0  0  0  0  0
   27.2149  -18.4191  -15.9829 C   0  0  0  0  0  0  0  0  0  0  0  0
   26.5014  -17.8033  -15.1286 O   0  0  0  0  0  0  0  0  0  0  0  0
   28.1916  -19.3587  -15.5627 N   0  0  0  0  0  0  0  0  0  0  0  0
   28.4739  -19.6393  -14.1804 C   0  0  0  0  0  0  0  0  0  0  0  0
   27.5622  -20.6678  -13.6629 C   0  0  0  0  0  0  0  0  0  0  0  0
   27.4543  -21.8045  -14.2572 O   0  0  0  0  0  0  0  0  0  0  0  0
   26.7876  -20.4481  -12.5061 N   0  0  0  0  0  0  0  0  0  0  0  0
   26.0133  -21.5797  -11.9567 C   0  0  1  0  0  0  0  0  0  0  0  0
   26.6807  -22.0588  -10.6682 C   0  0  0  0  0  0  0  0  0  0  0  0
   26.5731  -20.9813   -9.6582 C   0  0  0  0  0  0  0  0  0  0  0  0
   25.5294  -20.0854   -9.4429 C   0  0  0  0  0  0  0  0  0  0  0  0
   25.8286  -19.2619   -8.4245 N   0  0  0  0  0  0  0  0  0  0  0  0
   27.0507  -19.5909   -7.9567 C   0  0  0  0  0  0  0  0  0  0  0  0
   27.8362  -19.0889   -6.9407 C   0  0  0  0  0  0  0  0  0  0  0  0
   29.0776  -19.6169   -6.6577 C   0  0  0  0  0  0  0  0  0  0  0  0
   29.5377  -20.6735   -7.4150 C   0  0  0  0  0  0  0  0  0  0  0  0
   28.7772  -21.1848   -8.4240 C   0  0  0  0  0  0  0  0  0  0  0  0
   27.5262  -20.6480   -8.7038 C   0  0  0  0  0  0  0  0  0  0  0  0
   24.6771  -21.0748  -11.5851 C   0  0  0  0  0  0  0  0  0  0  0  0
   24.4412  -19.8523  -11.4662 O   0  0  0  0  0  0  0  0  0  0  0  0
   23.6349  -21.9512  -11.3554 O   0  0  0  0  0  0  0  0  0  0  0  0
  2  1  1  0
  3  2  1  0
  3  4  1  6
  5  3  1  0
  5  6  2  0
  7  5  1  0
  8  7  1  0
  8  9  1  0
  9 11  1  0
  9 10  2  0
 11 12  1  0
 12 13  1  1
 13 14  1  0
 14 15  2  0
 14 22  1  0
 15 16  1  0
 16 17  1  0
 17 18  2  0
 19 18  1  0
 20 19  2  0
 21 22  2  0
 21 20  1  0
 22 17  1  0
 23 25  1  0
 23 12  1  0
 24 23  2  0
M  END
$$$$
