SGW.pdb
     RDKit          3D

 25 26  0  0  1  0  0  0  0  0999 V2000
   26.7818  -18.8179  -18.0136 O   0  0  0  0  0  0  0  0  0  0  0  0
   27.8889  -19.2857  -17.3448 C   0  0  0  0  0  0  0  0  0  0  0  0
   27.4467  -20.4355  -16.4626 C   0  0  2  0  0  0  0  0  0  0  0  0
   26.2265  -21.0305  -16.9438 N   0  0  0  0  0  0  0  0  0  0  0  0
   27.2953  -19.9952  -15.0590 C   0  0  0  0  0  0  0  0  0  0  0  0
   26.2131  -19.4436  -14.6813 O   0  0  0  0  0  0  0  0  0  0  0  0
   28.3614  -20.1922  -14.1434 N   0  0  0  0  0  0  0  0  0  0  0  0
   28.2949  -19.8059  -12.7594 C   0  0  0  0  0  0  0  0  0  0  0  0
   27.3007  -20.6145  -12.0420 C   0  0  0  0  0  0  0  0  0  0  0  0
   26.5660  -21.4604  -12.6756 O   0  0  0  0  0  0  0  0  0  0  0  0
   27.1246  -20.4960  -10.6486 N   0  0  0  0  0  0  0  0  0  0  0  0
   26.2110  -21.4416   -9.9756 C   0  0  1  0  0  0  0  0  0  0  0  0
   26.7923  -21.8069   -8.6104 C   0  0  0  0  0  0  0  0  0  0  0  0
   26.9809  -20.5599   -7.8345 C   0  0  0  0  0  0  0  0  0  0  0  0
   26.4807  -19.2862   -8.0908 C   0  0  0  0  0  0  0  0  0  0  0  0
   26.8882  -18.4286   -7.1404 N   0  0  0  0  0  0  0  0  0  0  0  0
   27.6501  -19.1052   -6.2557 C   0  0  0  0  0  0  0  0  0  0  0  0
   28.3137  -18.7319   -5.1062 C   0  0  0  0  0  0  0  0  0  0  0  0
   29.0398  -19.6380   -4.3634 C   0  0  0  0  0  0  0  0  0  0  0  0
   29.0988  -20.9486   -4.7883 C   0  0  0  0  0  0  0  0  0  0  0  0
   28.4501  -21.3386   -5.9218 C   0  0  0  0  0  0  0  0  0  0  0  0
   27.7193  -20.4199   -6.6660 C   0  0  0  0  0  0  0  0  0  0  0  0
   24.9375  -20.7388   -9.7249 C   0  0  0  0  0  0  0  0  0  0  0  0
   24.7949  -19.5205   -9.9694 O   0  0  0  0  0  0  0  0  0  0  0  0
   23.8522  -21.4170   -9.2063 O   0  0  0  0  0  0  0  0  0  0  0  0
  2  1  1  0
  3  2  1  0
  3  4  1  6
  5  3  1  0
  5  6  2  0
  7  5  1  0
  8  7  1  0
  8  9  1  0
  9 11  1  0
  9 10  2  0
 11 12  1  0
 12 13  1  1
 13 14  1  0
 14 15  2  0
 14 22  1  0
 15 16  1  0
 16 17  1  0
 17 18  2  0
 19 18  1  0
 20 19  2  0
 21 22  2  0
 21 20  1  0
 22 17  1  0
 23 25  1  0
 23 12  1  0
 24 23  2  0
M  END
$$$$
