SGW.pdb
     RDKit          3D

 25 26  0  0  1  0  0  0  0  0999 V2000
   28.6293  -20.8089  -19.0507 O   0  0  0  0  0  0  0  0  0  0  0  0
   28.1049  -19.9819  -18.0848 C   0  0  0  0  0  0  0  0  0  0  0  0
   28.6647  -20.4186  -16.7462 C   0  0  2  0  0  0  0  0  0  0  0  0
   28.4066  -21.8133  -16.4962 N   0  0  0  0  0  0  0  0  0  0  0  0
   28.1261  -19.5830  -15.6515 C   0  0  0  0  0  0  0  0  0  0  0  0
   28.2199  -18.3161  -15.7165 O   0  0  0  0  0  0  0  0  0  0  0  0
   27.5078  -20.2034  -14.5350 N   0  0  0  0  0  0  0  0  0  0  0  0
   26.9859  -19.4698  -13.4131 C   0  0  0  0  0  0  0  0  0  0  0  0
   26.3267  -20.3747  -12.4625 C   0  0  0  0  0  0  0  0  0  0  0  0
   25.8682  -21.5122  -12.8536 O   0  0  0  0  0  0  0  0  0  0  0  0
   26.1815  -20.0331  -11.1029 N   0  0  0  0  0  0  0  0  0  0  0  0
   25.3936  -20.9323  -10.2354 C   0  0  1  0  0  0  0  0  0  0  0  0
   25.6432  -20.5576   -8.7751 C   0  0  0  0  0  0  0  0  0  0  0  0
   27.0972  -20.6512   -8.5110 C   0  0  0  0  0  0  0  0  0  0  0  0
   28.0924  -21.2319   -9.2926 C   0  0  0  0  0  0  0  0  0  0  0  0
   29.2869  -21.1047   -8.6911 N   0  0  0  0  0  0  0  0  0  0  0  0
   29.1079  -20.4509   -7.5243 C   0  0  0  0  0  0  0  0  0  0  0  0
   29.9715  -20.0553   -6.5248 C   0  0  0  0  0  0  0  0  0  0  0  0
   29.5253  -19.3830   -5.4073 C   0  0  0  0  0  0  0  0  0  0  0  0
   28.1797  -19.1037   -5.2941 C   0  0  0  0  0  0  0  0  0  0  0  0
   27.3089  -19.4858   -6.2706 C   0  0  0  0  0  0  0  0  0  0  0  0
   27.7654  -20.1630   -7.3951 C   0  0  0  0  0  0  0  0  0  0  0  0
   23.9642  -20.6811  -10.5039 C   0  0  0  0  0  0  0  0  0  0  0  0
   23.5823  -19.7244  -11.2132 O   0  0  0  0  0  0  0  0  0  0  0  0
   22.9946  -21.5080   -9.9719 O   0  0  0  0  0  0  0  0  0  0  0  0
  2  1  1  0
  3  2  1  0
  3  4  1  1
  5  3  1  0
  5  6  2  0
  7  5  1  0
  8  7  1  0
  8  9  1  0
  9 11  1  0
  9 10  2  0
 11 12  1  0
 12 13  1  1
 13 14  1  0
 14 15  2  0
 14 22  1  0
 15 16  1  0
 16 17  1  0
 17 18  2  0
 19 18  1  0
 20 19  2  0
 21 22  2  0
 21 20  1  0
 22 17  1  0
 23 25  1  0
 23 12  1  0
 24 23  2  0
M  END
$$$$
