SGW.pdb
     RDKit          3D

 25 26  0  0  1  0  0  0  0  0999 V2000
   31.4976  -24.8667  -16.9045 O   0  0  0  0  0  0  0  0  0  0  0  0
   30.3595  -24.2300  -17.3420 C   0  0  0  0  0  0  0  0  0  0  0  0
   30.1587  -22.9971  -16.4843 C   0  0  2  0  0  0  0  0  0  0  0  0
   30.3103  -23.2983  -15.0841 N   0  0  0  0  0  0  0  0  0  0  0  0
   28.8400  -22.3814  -16.7466 C   0  0  0  0  0  0  0  0  0  0  0  0
   28.5730  -21.9245  -17.9033 O   0  0  0  0  0  0  0  0  0  0  0  0
   27.8817  -22.3051  -15.7028 N   0  0  0  0  0  0  0  0  0  0  0  0
   26.5687  -21.7437  -15.8762 C   0  0  0  0  0  0  0  0  0  0  0  0
   25.7950  -21.8390  -14.6315 C   0  0  0  0  0  0  0  0  0  0  0  0
   24.5956  -21.3756  -14.5704 O   0  0  0  0  0  0  0  0  0  0  0  0
   26.3331  -22.4408  -13.4762 N   0  0  0  0  0  0  0  0  0  0  0  0
   25.9920  -21.8608  -12.1612 C   0  0  1  0  0  0  0  0  0  0  0  0
   27.2076  -21.1097  -11.6196 C   0  0  0  0  0  0  0  0  0  0  0  0
   26.8825  -20.6114  -10.2637 C   0  0  0  0  0  0  0  0  0  0  0  0
   25.6669  -20.1433   -9.7721 C   0  0  0  0  0  0  0  0  0  0  0  0
   25.7961  -19.7827   -8.4844 N   0  0  0  0  0  0  0  0  0  0  0  0
   27.0733  -20.0010   -8.1078 C   0  0  0  0  0  0  0  0  0  0  0  0
   27.7495  -19.8154   -6.9206 C   0  0  0  0  0  0  0  0  0  0  0  0
   29.0861  -20.1266   -6.7929 C   0  0  0  0  0  0  0  0  0  0  0  0
   29.7562  -20.6357   -7.8854 C   0  0  0  0  0  0  0  0  0  0  0  0
   29.1068  -20.8270   -9.0683 C   0  0  0  0  0  0  0  0  0  0  0  0
   27.7587  -20.5114   -9.1902 C   0  0  0  0  0  0  0  0  0  0  0  0
   24.9282  -20.8595  -12.3712 C   0  0  0  0  0  0  0  0  0  0  0  0
   23.8726  -20.8651  -11.7005 O   0  0  0  0  0  0  0  0  0  0  0  0
   25.0713  -19.8739  -13.3278 O   0  0  0  0  0  0  0  0  0  0  0  0
  2  1  1  0
  3  2  1  0
  3  4  1  1
  5  3  1  0
  5  6  2  0
  7  5  1  0
  8  7  1  0
  8  9  1  0
  9 11  1  0
  9 10  2  0
 11 12  1  0
 12 13  1  6
 13 14  1  0
 14 15  2  0
 14 22  1  0
 15 16  1  0
 16 17  1  0
 17 18  2  0
 19 18  1  0
 20 19  2  0
 21 22  2  0
 21 20  1  0
 22 17  1  0
 23 25  1  0
 23 12  1  0
 24 23  2  0
M  END
$$$$
