SGW.pdb
     RDKit          3D

 25 26  0  0  1  0  0  0  0  0999 V2000
   24.4680  -16.8069  -14.4728 O   0  0  0  0  0  0  0  0  0  0  0  0
   25.0469  -17.9707  -14.0229 C   0  0  0  0  0  0  0  0  0  0  0  0
   26.2602  -18.2495  -14.8867 C   0  0  2  0  0  0  0  0  0  0  0  0
   25.8983  -18.3964  -16.2729 N   0  0  0  0  0  0  0  0  0  0  0  0
   26.9859  -19.4452  -14.4065 C   0  0  0  0  0  0  0  0  0  0  0  0
   26.6987  -20.5918  -14.8766 O   0  0  0  0  0  0  0  0  0  0  0  0
   27.9986  -19.3027  -13.4227 N   0  0  0  0  0  0  0  0  0  0  0  0
   28.8351  -20.3891  -12.9879 C   0  0  0  0  0  0  0  0  0  0  0  0
   28.1499  -21.1969  -11.9706 C   0  0  0  0  0  0  0  0  0  0  0  0
   28.7666  -22.1561  -11.3734 O   0  0  0  0  0  0  0  0  0  0  0  0
   26.8095  -20.9466  -11.6142 N   0  0  0  0  0  0  0  0  0  0  0  0
   26.4101  -21.1489  -10.2065 C   0  0  1  0  0  0  0  0  0  0  0  0
   27.2548  -20.2394   -9.3152 C   0  0  0  0  0  0  0  0  0  0  0  0
   26.8462  -20.4542   -7.9083 C   0  0  0  0  0  0  0  0  0  0  0  0
   25.7477  -21.1519   -7.4134 C   0  0  0  0  0  0  0  0  0  0  0  0
   25.7372  -21.1073   -6.0708 N   0  0  0  0  0  0  0  0  0  0  0  0
   26.8068  -20.3940   -5.6608 C   0  0  0  0  0  0  0  0  0  0  0  0
   27.2802  -20.0390   -4.4153 C   0  0  0  0  0  0  0  0  0  0  0  0
   28.4256  -19.2874   -4.2639 C   0  0  0  0  0  0  0  0  0  0  0  0
   29.1087  -18.8843   -5.3920 C   0  0  0  0  0  0  0  0  0  0  0  0
   28.6580  -19.2243   -6.6326 C   0  0  0  0  0  0  0  0  0  0  0  0
   27.5025  -19.9827   -6.7782 C   0  0  0  0  0  0  0  0  0  0  0  0
   25.0093  -20.7054  -10.0661 C   0  0  0  0  0  0  0  0  0  0  0  0
   24.5410  -19.7667  -10.7471 O   0  0  0  0  0  0  0  0  0  0  0  0
   24.1644  -21.3241   -9.1659 O   0  0  0  0  0  0  0  0  0  0  0  0
  2  1  1  0
  3  2  1  0
  3  4  1  6
  5  3  1  0
  5  6  2  0
  7  5  1  0
  8  7  1  0
  8  9  1  0
  9 11  1  0
  9 10  2  0
 11 12  1  0
 12 13  1  1
 13 14  1  0
 14 15  2  0
 14 22  1  0
 15 16  1  0
 16 17  1  0
 17 18  2  0
 19 18  1  0
 20 19  2  0
 21 22  2  0
 21 20  1  0
 22 17  1  0
 23 25  1  0
 23 12  1  0
 24 23  2  0
M  END
$$$$
