SGW.pdb
     RDKit          3D

 25 26  0  0  1  0  0  0  0  0999 V2000
   26.5091  -22.5377  -17.9259 O   0  0  0  0  0  0  0  0  0  0  0  0
   27.7660  -22.1357  -18.3138 C   0  0  0  0  0  0  0  0  0  0  0  0
   28.5954  -21.9335  -17.0619 C   0  0  2  0  0  0  0  0  0  0  0  0
   28.7537  -23.1636  -16.3297 N   0  0  0  0  0  0  0  0  0  0  0  0
   28.0050  -20.8856  -16.2017 C   0  0  0  0  0  0  0  0  0  0  0  0
   27.7324  -19.7435  -16.6910 O   0  0  0  0  0  0  0  0  0  0  0  0
   27.7472  -21.1637  -14.8343 N   0  0  0  0  0  0  0  0  0  0  0  0
   27.1579  -20.2107  -13.9323 C   0  0  0  0  0  0  0  0  0  0  0  0
   26.2643  -20.8817  -12.9793 C   0  0  0  0  0  0  0  0  0  0  0  0
   25.8404  -22.0751  -13.2099 O   0  0  0  0  0  0  0  0  0  0  0  0
   25.8505  -20.2492  -11.7898 N   0  0  0  0  0  0  0  0  0  0  0  0
   24.9628  -20.9935  -10.8733 C   0  0  1  0  0  0  0  0  0  0  0  0
   25.2056  -20.5090   -9.4445 C   0  0  0  0  0  0  0  0  0  0  0  0
   26.6431  -20.6776   -9.1322 C   0  0  0  0  0  0  0  0  0  0  0  0
   27.6067  -21.4126   -9.8177 C   0  0  0  0  0  0  0  0  0  0  0  0
   28.7957  -21.3058   -9.2015 N   0  0  0  0  0  0  0  0  0  0  0  0
   28.6440  -20.5145   -8.1191 C   0  0  0  0  0  0  0  0  0  0  0  0
   29.5157  -20.0733   -7.1461 C   0  0  0  0  0  0  0  0  0  0  0  0
   29.1000  -19.2498   -6.1219 C   0  0  0  0  0  0  0  0  0  0  0  0
   27.7772  -18.8628   -6.0768 C   0  0  0  0  0  0  0  0  0  0  0  0
   26.8990  -19.2875   -7.0287 C   0  0  0  0  0  0  0  0  0  0  0  0
   27.3248  -20.1174   -8.0590 C   0  0  0  0  0  0  0  0  0  0  0  0
   23.5691  -20.6459  -11.2127 C   0  0  0  0  0  0  0  0  0  0  0  0
   22.5955  -21.1688  -10.6270 O   0  0  0  0  0  0  0  0  0  0  0  0
   23.2975  -19.7199  -12.2004 O   0  0  0  0  0  0  0  0  0  0  0  0
  2  1  1  0
  3  2  1  0
  3  4  1  1
  5  3  1  0
  5  6  2  0
  7  5  1  0
  8  7  1  0
  8  9  1  0
  9 11  1  0
  9 10  2  0
 11 12  1  0
 12 13  1  1
 13 14  1  0
 14 15  2  0
 14 22  1  0
 15 16  1  0
 16 17  1  0
 17 18  2  0
 19 18  1  0
 20 19  2  0
 21 22  2  0
 21 20  1  0
 22 17  1  0
 23 25  1  0
 23 12  1  0
 24 23  2  0
M  END
$$$$
