SGW.pdb
     RDKit          3D

 25 26  0  0  1  0  0  0  0  0999 V2000
   26.9489  -21.2773  -18.7356 O   0  0  0  0  0  0  0  0  0  0  0  0
   28.1354  -21.8884  -18.4026 C   0  0  0  0  0  0  0  0  0  0  0  0
   28.0079  -22.4076  -16.9848 C   0  0  2  0  0  0  0  0  0  0  0  0
   26.8996  -23.3180  -16.8541 N   0  0  0  0  0  0  0  0  0  0  0  0
   27.8830  -21.2908  -16.0235 C   0  0  0  0  0  0  0  0  0  0  0  0
   28.8044  -20.4175  -15.9438 O   0  0  0  0  0  0  0  0  0  0  0  0
   26.7336  -21.2031  -15.1961 N   0  0  0  0  0  0  0  0  0  0  0  0
   26.5497  -20.1751  -14.2068 C   0  0  0  0  0  0  0  0  0  0  0  0
   26.2793  -20.7652  -12.8893 C   0  0  0  0  0  0  0  0  0  0  0  0
   25.7938  -21.9534  -12.7925 O   0  0  0  0  0  0  0  0  0  0  0  0
   26.5459  -20.0586  -11.6993 N   0  0  0  0  0  0  0  0  0  0  0  0
   26.3040  -20.7403  -10.4113 C   0  0  1  0  0  0  0  0  0  0  0  0
   27.4383  -20.3961   -9.4469 C   0  0  0  0  0  0  0  0  0  0  0  0
   26.9157  -20.4766   -8.0638 C   0  0  0  0  0  0  0  0  0  0  0  0
   25.7334  -21.0533   -7.6078 C   0  0  0  0  0  0  0  0  0  0  0  0
   25.6317  -20.9099   -6.2759 N   0  0  0  0  0  0  0  0  0  0  0  0
   26.7225  -20.2492   -5.8350 C   0  0  0  0  0  0  0  0  0  0  0  0
   27.1333  -19.8399   -4.5840 C   0  0  0  0  0  0  0  0  0  0  0  0
   28.3209  -19.1656   -4.3971 C   0  0  0  0  0  0  0  0  0  0  0  0
   29.1116  -18.8976   -5.4947 C   0  0  0  0  0  0  0  0  0  0  0  0
   28.7242  -19.2934   -6.7401 C   0  0  0  0  0  0  0  0  0  0  0  0
   27.5257  -19.9733   -6.9215 C   0  0  0  0  0  0  0  0  0  0  0  0
   25.0654  -20.1849   -9.8317 C   0  0  0  0  0  0  0  0  0  0  0  0
   24.5981  -19.0847  -10.1997 O   0  0  0  0  0  0  0  0  0  0  0  0
   24.3779  -20.8751   -8.8531 O   0  0  0  0  0  0  0  0  0  0  0  0
  2  1  1  0
  3  2  1  0
  3  4  1  6
  5  3  1  0
  5  6  2  0
  7  5  1  0
  8  7  1  0
  8  9  1  0
  9 11  1  0
  9 10  2  0
 11 12  1  0
 12 13  1  1
 13 14  1  0
 14 15  2  0
 14 22  1  0
 15 16  1  0
 16 17  1  0
 17 18  2  0
 19 18  1  0
 20 19  2  0
 21 22  2  0
 21 20  1  0
 22 17  1  0
 23 25  1  0
 23 12  1  0
 24 23  2  0
M  END
$$$$
