SGW.pdb
     RDKit          3D

 25 26  0  0  1  0  0  0  0  0999 V2000
   28.8455  -16.4526  -16.8922 O   0  0  0  0  0  0  0  0  0  0  0  0
   28.5807  -17.6186  -17.5721 C   0  0  0  0  0  0  0  0  0  0  0  0
   28.8518  -18.7757  -16.6321 C   0  0  2  0  0  0  0  0  0  0  0  0
   28.7578  -20.0414  -17.3127 N   0  0  0  0  0  0  0  0  0  0  0  0
   27.9366  -18.7374  -15.4711 C   0  0  0  0  0  0  0  0  0  0  0  0
   26.6866  -18.8969  -15.6442 O   0  0  0  0  0  0  0  0  0  0  0  0
   28.4623  -18.5223  -14.1707 N   0  0  0  0  0  0  0  0  0  0  0  0
   27.6395  -18.3971  -12.9974 C   0  0  0  0  0  0  0  0  0  0  0  0
   27.3680  -19.7158  -12.4107 C   0  0  0  0  0  0  0  0  0  0  0  0
   27.5805  -20.7891  -13.0888 O   0  0  0  0  0  0  0  0  0  0  0  0
   26.8765  -19.8480  -11.0964 N   0  0  0  0  0  0  0  0  0  0  0  0
   26.6387  -21.2081  -10.5714 C   0  0  1  0  0  0  0  0  0  0  0  0
   27.6308  -21.4849   -9.4426 C   0  0  0  0  0  0  0  0  0  0  0  0
   27.3557  -20.5392   -8.3369 C   0  0  0  0  0  0  0  0  0  0  0  0
   26.3804  -19.5490   -8.2552 C   0  0  0  0  0  0  0  0  0  0  0  0
   26.4693  -18.9073   -7.0784 N   0  0  0  0  0  0  0  0  0  0  0  0
   27.4844  -19.4498   -6.3740 C   0  0  0  0  0  0  0  0  0  0  0  0
   28.0104  -19.1874   -5.1267 C   0  0  0  0  0  0  0  0  0  0  0  0
   29.0751  -19.9047   -4.6250 C   0  0  0  0  0  0  0  0  0  0  0  0
   29.6220  -20.9079   -5.3970 C   0  0  0  0  0  0  0  0  0  0  0  0
   29.1173  -21.1836   -6.6327 C   0  0  0  0  0  0  0  0  0  0  0  0
   28.0432  -20.4568   -7.1324 C   0  0  0  0  0  0  0  0  0  0  0  0
   25.2901  -21.2318   -9.9721 C   0  0  0  0  0  0  0  0  0  0  0  0
   24.5695  -20.2107   -9.9239 O   0  0  0  0  0  0  0  0  0  0  0  0
   24.7790  -22.3993   -9.4406 O   0  0  0  0  0  0  0  0  0  0  0  0
  2  1  1  0
  3  2  1  0
  3  4  1  6
  5  3  1  0
  5  6  2  0
  7  5  1  0
  8  7  1  0
  8  9  1  0
  9 11  1  0
  9 10  2  0
 11 12  1  0
 12 13  1  1
 13 14  1  0
 14 15  2  0
 14 22  1  0
 15 16  1  0
 16 17  1  0
 17 18  2  0
 19 18  1  0
 20 19  2  0
 21 22  2  0
 21 20  1  0
 22 17  1  0
 23 25  1  0
 23 12  1  0
 24 23  2  0
M  END
$$$$
