SGW.pdb
     RDKit          3D

 25 26  0  0  1  0  0  0  0  0999 V2000
   28.2666  -18.0628  -17.2295 O   0  0  0  0  0  0  0  0  0  0  0  0
   28.0072  -19.3595  -17.6080 C   0  0  0  0  0  0  0  0  0  0  0  0
   26.9342  -19.9056  -16.6880 C   0  0  2  0  0  0  0  0  0  0  0  0
   25.7299  -19.1187  -16.7568 N   0  0  0  0  0  0  0  0  0  0  0  0
   27.4255  -19.9884  -15.2956 C   0  0  0  0  0  0  0  0  0  0  0  0
   28.3661  -20.7929  -15.0025 O   0  0  0  0  0  0  0  0  0  0  0  0
   26.8416  -19.1677  -14.2961 N   0  0  0  0  0  0  0  0  0  0  0  0
   27.3552  -19.0695  -12.9560 C   0  0  0  0  0  0  0  0  0  0  0  0
   26.8411  -20.1634  -12.1217 C   0  0  0  0  0  0  0  0  0  0  0  0
   26.3037  -21.2006  -12.6623 O   0  0  0  0  0  0  0  0  0  0  0  0
   26.9243  -20.1162  -10.7155 N   0  0  0  0  0  0  0  0  0  0  0  0
   26.4390  -21.2801   -9.9462 C   0  0  1  0  0  0  0  0  0  0  0  0
   27.4685  -21.6295   -8.8723 C   0  0  0  0  0  0  0  0  0  0  0  0
   27.5906  -20.4773   -7.9502 C   0  0  0  0  0  0  0  0  0  0  0  0
   27.0520  -19.1992   -8.0714 C   0  0  0  0  0  0  0  0  0  0  0  0
   27.4020  -18.4470   -7.0147 N   0  0  0  0  0  0  0  0  0  0  0  0
   28.1631  -19.1981   -6.1917 C   0  0  0  0  0  0  0  0  0  0  0  0
   28.7810  -18.9418   -4.9860 C   0  0  0  0  0  0  0  0  0  0  0  0
   29.5186  -19.9051   -4.3318 C   0  0  0  0  0  0  0  0  0  0  0  0
   29.6364  -21.1537   -4.9051 C   0  0  0  0  0  0  0  0  0  0  0  0
   29.0337  -21.4280   -6.0964 C   0  0  0  0  0  0  0  0  0  0  0  0
   28.2910  -20.4523   -6.7506 C   0  0  0  0  0  0  0  0  0  0  0  0
   25.2065  -20.8746   -9.2425 C   0  0  0  0  0  0  0  0  0  0  0  0
   24.7631  -19.7068   -9.3042 O   0  0  0  0  0  0  0  0  0  0  0  0
   24.4983  -21.7870   -8.4857 O   0  0  0  0  0  0  0  0  0  0  0  0
  2  1  1  0
  3  2  1  0
  3  4  1  1
  5  3  1  0
  5  6  2  0
  7  5  1  0
  8  7  1  0
  8  9  1  0
  9 11  1  0
  9 10  2  0
 11 12  1  0
 12 13  1  1
 13 14  1  0
 14 15  2  0
 14 22  1  0
 15 16  1  0
 16 17  1  0
 17 18  2  0
 19 18  1  0
 20 19  2  0
 21 22  2  0
 21 20  1  0
 22 17  1  0
 23 25  1  0
 23 12  1  0
 24 23  2  0
M  END
$$$$
