SGW.pdb
     RDKit          3D

 25 26  0  0  1  0  0  0  0  0999 V2000
   28.0836  -16.3007  -15.7148 O   0  0  0  0  0  0  0  0  0  0  0  0
   27.3464  -17.3183  -16.2741 C   0  0  0  0  0  0  0  0  0  0  0  0
   28.0647  -18.6219  -15.9900 C   0  0  2  0  0  0  0  0  0  0  0  0
   29.3714  -18.6469  -16.5951 N   0  0  0  0  0  0  0  0  0  0  0  0
   27.2583  -19.7771  -16.4397 C   0  0  0  0  0  0  0  0  0  0  0  0
   27.3557  -20.1892  -17.6392 O   0  0  0  0  0  0  0  0  0  0  0  0
   26.3805  -20.4174  -15.5270 N   0  0  0  0  0  0  0  0  0  0  0  0
   25.4584  -21.4520  -15.9122 C   0  0  0  0  0  0  0  0  0  0  0  0
   24.6303  -21.8608  -14.7703 C   0  0  0  0  0  0  0  0  0  0  0  0
   23.5378  -22.5157  -14.9565 O   0  0  0  0  0  0  0  0  0  0  0  0
   25.0043  -21.5576  -13.4457 N   0  0  0  0  0  0  0  0  0  0  0  0
   24.0554  -21.8775  -12.3598 C   0  0  1  0  0  0  0  0  0  0  0  0
   24.8431  -22.1844  -11.0868 C   0  0  0  0  0  0  0  0  0  0  0  0
   25.7896  -21.0720  -10.8437 C   0  0  0  0  0  0  0  0  0  0  0  0
   25.5841  -19.8857  -10.1445 C   0  0  0  0  0  0  0  0  0  0  0  0
   26.7014  -19.1400  -10.1589 N   0  0  0  0  0  0  0  0  0  0  0  0
   27.6477  -19.8054  -10.8537 C   0  0  0  0  0  0  0  0  0  0  0  0
   28.9566  -19.5159  -11.1765 C   0  0  0  0  0  0  0  0  0  0  0  0
   29.7292  -20.3865  -11.9148 C   0  0  0  0  0  0  0  0  0  0  0  0
   29.1707  -21.5744  -12.3374 C   0  0  0  0  0  0  0  0  0  0  0  0
   27.8787  -21.8801  -12.0292 C   0  0  0  0  0  0  0  0  0  0  0  0
   27.1052  -20.9980  -11.2841 C   0  0  0  0  0  0  0  0  0  0  0  0
   23.2556  -20.6672  -12.0874 C   0  0  0  0  0  0  0  0  0  0  0  0
   23.5321  -19.5616  -12.6026 O   0  0  0  0  0  0  0  0  0  0  0  0
   22.1635  -20.7231  -11.2442 O   0  0  0  0  0  0  0  0  0  0  0  0
  2  1  1  0
  3  2  1  0
  3  4  1  6
  5  3  1  0
  5  6  2  0
  7  5  1  0
  8  7  1  0
  8  9  1  0
  9 11  1  0
  9 10  2  0
 11 12  1  0
 12 13  1  1
 13 14  1  0
 14 15  2  0
 14 22  1  0
 15 16  1  0
 16 17  1  0
 17 18  2  0
 19 18  1  0
 20 19  2  0
 21 22  2  0
 21 20  1  0
 22 17  1  0
 23 25  1  0
 23 12  1  0
 24 23  2  0
M  END
$$$$
