LLA.pdb
     RDKit          3D

 22 21  0  0  1  0  0  0  0  0999 V2000
   26.2168  -17.3878  -17.5614 C   0  0  0  0  0  0  0  0  0  0  0  0
   25.3871  -18.5852  -17.9828 C   0  0  2  0  0  0  0  0  0  0  0  0
   24.1499  -18.0141  -18.6872 C   0  0  0  0  0  0  0  0  0  0  0  0
   24.8665  -19.3464  -16.7821 C   0  0  0  0  0  0  0  0  0  0  0  0
   26.0530  -19.9749  -16.0976 C   0  0  2  0  0  0  0  0  0  0  0  0
   26.8010  -20.7692  -17.0210 N   0  0  0  0  0  0  0  0  0  0  0  0
   25.6516  -20.7874  -14.9162 C   0  0  0  0  0  0  0  0  0  0  0  0
   25.3738  -22.0108  -15.0032 O   0  0  0  0  0  0  0  0  0  0  0  0
   26.2831  -21.9076   -9.8236 C   0  0  0  0  0  0  0  0  0  0  0  0
   25.4332  -20.6619   -9.9776 C   0  0  1  0  0  0  0  0  0  0  0  0
   25.6461  -19.7504   -8.7935 C   0  0  0  0  0  0  0  0  0  0  0  0
   25.7827  -19.9996  -11.2915 C   0  0  0  0  0  0  0  0  0  0  0  0
   25.2555  -20.8537  -12.4167 C   0  0  2  0  0  0  0  0  0  0  0  0
   25.5767  -20.1800  -13.6583 N   0  0  0  0  0  0  0  0  0  0  0  0
   23.7527  -20.9439  -12.3568 C   0  0  0  0  0  0  0  0  0  0  0  0
   23.1496  -21.5061  -11.4061 O   0  0  0  0  0  0  0  0  0  0  0  0
   21.0004  -19.0900  -13.9579 C   0  0  0  0  0  0  0  0  0  0  0  0
   21.4869  -20.3718  -13.3175 C   0  0  2  0  0  0  0  0  0  0  0  0
   22.9480  -20.3862  -13.3924 N   0  0  0  0  0  0  0  0  0  0  0  0
   20.9117  -21.5313  -14.0478 C   0  0  0  0  0  0  0  0  0  0  0  0
   19.5668  -21.8397  -14.0209 O   0  0  0  0  0  0  0  0  0  0  0  0
   21.6793  -22.2616  -14.7172 O   0  0  0  0  0  0  0  0  0  0  0  0
  2  1  1  1
  2  3  1  0
  4  2  1  0
  5  4  1  0
  5  7  1  0
  5  6  1  6
  7  8  2  0
 10  9  1  1
 10 11  1  0
 13 12  1  1
 12 10  1  0
 14  7  1  0
 14 13  1  0
 15 13  1  0
 15 19  1  0
 16 15  2  0
 18 19  1  0
 18 17  1  6
 20 18  1  0
 21 20  1  0
 22 20  2  0
M  END
$$$$
