LLA.pdb
     RDKit          3D

 22 21  0  0  1  0  0  0  0  0999 V2000
   18.9710  -22.3445  -15.2583 C   0  0  0  0  0  0  0  0  0  0  0  0
   19.1812  -21.2564  -16.2936 C   0  0  2  0  0  0  0  0  0  0  0  0
   18.9468  -21.9201  -17.6565 C   0  0  0  0  0  0  0  0  0  0  0  0
   20.6174  -20.7771  -16.3070 C   0  0  0  0  0  0  0  0  0  0  0  0
   20.8109  -19.8987  -15.0978 C   0  0  2  0  0  0  0  0  0  0  0  0
   20.1014  -18.6679  -15.2542 N   0  0  0  0  0  0  0  0  0  0  0  0
   22.2505  -19.6395  -14.8194 C   0  0  0  0  0  0  0  0  0  0  0  0
   22.8729  -18.6753  -15.3336 O   0  0  0  0  0  0  0  0  0  0  0  0
   26.4864  -19.4546  -11.9364 C   0  0  0  0  0  0  0  0  0  0  0  0
   25.9369  -20.8595  -11.7874 C   0  0  1  0  0  0  0  0  0  0  0  0
   26.1741  -21.3527  -10.3807 C   0  0  0  0  0  0  0  0  0  0  0  0
   24.4710  -20.8454  -12.1591 C   0  0  0  0  0  0  0  0  0  0  0  0
   24.3385  -20.3510  -13.5774 C   0  0  2  0  0  0  0  0  0  0  0  0
   22.9474  -20.4918  -13.9563 N   0  0  0  0  0  0  0  0  0  0  0  0
   25.1277  -21.2218  -14.5201 C   0  0  0  0  0  0  0  0  0  0  0  0
   24.9848  -22.4713  -14.5612 O   0  0  0  0  0  0  0  0  0  0  0  0
   27.3278  -20.5436  -17.4691 C   0  0  0  0  0  0  0  0  0  0  0  0
   26.8237  -21.4624  -16.3776 C   0  0  2  0  0  0  0  0  0  0  0  0
   26.0799  -20.6510  -15.4137 N   0  0  0  0  0  0  0  0  0  0  0  0
   27.9821  -22.1251  -15.7236 C   0  0  0  0  0  0  0  0  0  0  0  0
   28.3630  -21.8548  -14.4249 O   0  0  0  0  0  0  0  0  0  0  0  0
   28.6425  -22.9655  -16.3777 O   0  0  0  0  0  0  0  0  0  0  0  0
  2  1  1  1
  2  3  1  0
  4  2  1  0
  5  4  1  0
  5  7  1  0
  5  6  1  6
  7  8  2  0
 10  9  1  1
 10 11  1  0
 13 12  1  1
 12 10  1  0
 14  7  1  0
 14 13  1  0
 15 13  1  0
 15 19  1  0
 16 15  2  0
 18 19  1  0
 18 17  1  6
 20 18  1  0
 21 20  1  0
 22 20  2  0
M  END
$$$$
