LLA.pdb
     RDKit          3D

 22 21  0  0  1  0  0  0  0  0999 V2000
   13.0918  -21.2269    3.0228 C   0  0  0  0  0  0  0  0  0  0  0  0
   14.4119  -21.9033    2.7074 C   0  0  2  0  0  0  0  0  0  0  0  0
   14.3370  -23.2946    3.3491 C   0  0  0  0  0  0  0  0  0  0  0  0
   15.5692  -21.1972    3.3817 C   0  0  0  0  0  0  0  0  0  0  0  0
   15.7120  -19.8446    2.7326 C   0  0  2  0  0  0  0  0  0  0  0  0
   16.0164  -19.9856    1.3432 N   0  0  0  0  0  0  0  0  0  0  0  0
   16.7389  -19.0051    3.4092 C   0  0  0  0  0  0  0  0  0  0  0  0
   17.9711  -19.2337    3.3046 O   0  0  0  0  0  0  0  0  0  0  0  0
   16.9108  -13.9353    2.7175 C   0  0  0  0  0  0  0  0  0  0  0  0
   17.3819  -15.3121    3.1421 C   0  0  1  0  0  0  0  0  0  0  0  0
   18.8898  -15.3684    3.1054 C   0  0  0  0  0  0  0  0  0  0  0  0
   16.8222  -15.6109    4.5148 C   0  0  0  0  0  0  0  0  0  0  0  0
   17.2143  -17.0150    4.8998 C   0  0  2  0  0  0  0  0  0  0  0  0
   16.3316  -17.9200    4.1924 N   0  0  0  0  0  0  0  0  0  0  0  0
   16.9773  -17.2495    6.3691 C   0  0  0  0  0  0  0  0  0  0  0  0
   15.8220  -17.3636    6.8546 O   0  0  0  0  0  0  0  0  0  0  0  0
   19.1537  -18.0444    9.3114 C   0  0  0  0  0  0  0  0  0  0  0  0
   17.8742  -17.4959    8.7184 C   0  0  2  0  0  0  0  0  0  0  0  0
   18.0719  -17.3520    7.2759 N   0  0  0  0  0  0  0  0  0  0  0  0
   17.5719  -16.1808    9.3412 C   0  0  0  0  0  0  0  0  0  0  0  0
   17.2049  -16.0468   10.6649 O   0  0  0  0  0  0  0  0  0  0  0  0
   17.6532  -15.1482    8.6358 O   0  0  0  0  0  0  0  0  0  0  0  0
  2  1  1  1
  2  3  1  0
  4  2  1  0
  5  4  1  0
  5  7  1  0
  5  6  1  6
  7  8  2  0
 10  9  1  1
 10 11  1  0
 13 12  1  6
 12 10  1  0
 14  7  1  0
 14 13  1  0
 15 13  1  0
 15 19  1  0
 16 15  2  0
 18 19  1  0
 18 17  1  1
 20 18  1  0
 21 20  1  0
 22 20  2  0
M  END
$$$$
