LLA.pdb
     RDKit          3D

 22 21  0  0  1  0  0  0  0  0999 V2000
   23.2252  -13.9093  -14.7235 C   0  0  0  0  0  0  0  0  0  0  0  0
   23.9365  -13.3856  -15.9561 C   0  0  2  0  0  0  0  0  0  0  0  0
   25.4297  -13.3663  -15.6052 C   0  0  0  0  0  0  0  0  0  0  0  0
   23.5590  -11.9476  -16.2424 C   0  0  0  0  0  0  0  0  0  0  0  0
   22.0899  -11.9254  -16.5780 C   0  0  2  0  0  0  0  0  0  0  0  0
   21.8322  -12.7020  -17.7500 N   0  0  0  0  0  0  0  0  0  0  0  0
   21.5758  -10.5383  -16.7476 C   0  0  0  0  0  0  0  0  0  0  0  0
   21.7858   -9.8649  -17.7887 O   0  0  0  0  0  0  0  0  0  0  0  0
   16.6294   -9.9947  -15.6324 C   0  0  0  0  0  0  0  0  0  0  0  0
   17.9157   -9.5280  -16.2847 C   0  0  1  0  0  0  0  0  0  0  0  0
   17.5970   -8.6168  -17.4451 C   0  0  0  0  0  0  0  0  0  0  0  0
   18.7716   -8.8550  -15.2351 C   0  0  0  0  0  0  0  0  0  0  0  0
   20.1603   -8.6694  -15.7926 C   0  0  2  0  0  0  0  0  0  0  0  0
   20.8308   -9.9515  -15.7193 N   0  0  0  0  0  0  0  0  0  0  0  0
   20.9562   -7.7220  -14.9329 C   0  0  0  0  0  0  0  0  0  0  0  0
   21.2312   -7.9733  -13.7310 O   0  0  0  0  0  0  0  0  0  0  0  0
   23.0758   -4.7458  -15.7149 C   0  0  0  0  0  0  0  0  0  0  0  0
   22.3626   -5.6338  -14.7186 C   0  0  2  0  0  0  0  0  0  0  0  0
   21.4337   -6.4870  -15.4601 N   0  0  0  0  0  0  0  0  0  0  0  0
   21.6312   -4.7840  -13.7431 C   0  0  0  0  0  0  0  0  0  0  0  0
   22.2466   -4.1891  -12.6605 O   0  0  0  0  0  0  0  0  0  0  0  0
   20.4030   -4.5985  -13.9090 O   0  0  0  0  0  0  0  0  0  0  0  0
  2  1  1  1
  2  3  1  0
  4  2  1  0
  5  4  1  0
  5  7  1  0
  5  6  1  6
  7  8  2  0
 10  9  1  1
 10 11  1  0
 13 12  1  1
 12 10  1  0
 14  7  1  0
 14 13  1  0
 15 13  1  0
 15 19  1  0
 16 15  2  0
 18 19  1  0
 18 17  1  6
 20 18  1  0
 21 20  1  0
 22 20  2  0
M  END
$$$$
