LLA.pdb
     RDKit          3D

 22 21  0  0  1  0  0  0  0  0999 V2000
   23.9783  -19.6818   -8.0816 C   0  0  0  0  0  0  0  0  0  0  0  0
   24.4450  -20.9023   -8.8512 C   0  0  2  0  0  0  0  0  0  0  0  0
   24.9200  -21.9099   -7.7966 C   0  0  0  0  0  0  0  0  0  0  0  0
   25.6580  -20.5885   -9.7012 C   0  0  0  0  0  0  0  0  0  0  0  0
   25.2271  -20.6549  -11.1439 C   0  0  2  0  0  0  0  0  0  0  0  0
   24.9611  -22.0064  -11.5254 N   0  0  0  0  0  0  0  0  0  0  0  0
   26.2321  -20.0432  -12.0565 C   0  0  0  0  0  0  0  0  0  0  0  0
   26.5785  -18.8377  -11.9658 O   0  0  0  0  0  0  0  0  0  0  0  0
   30.6175  -22.0573  -12.0121 C   0  0  0  0  0  0  0  0  0  0  0  0
   29.5560  -21.0221  -12.3277 C   0  0  1  0  0  0  0  0  0  0  0  0
   30.1211  -19.6365  -12.1301 C   0  0  0  0  0  0  0  0  0  0  0  0
   29.0622  -21.2529  -13.7383 C   0  0  0  0  0  0  0  0  0  0  0  0
   27.8508  -20.3862  -13.9724 C   0  0  2  0  0  0  0  0  0  0  0  0
   26.8198  -20.8269  -13.0552 N   0  0  0  0  0  0  0  0  0  0  0  0
   27.3055  -20.5982  -15.3609 C   0  0  0  0  0  0  0  0  0  0  0  0
   27.9954  -20.3944  -16.3933 O   0  0  0  0  0  0  0  0  0  0  0  0
   25.1356  -22.6117  -17.1839 C   0  0  0  0  0  0  0  0  0  0  0  0
   25.3687  -21.1460  -16.8884 C   0  0  2  0  0  0  0  0  0  0  0  0
   25.9663  -21.0446  -15.5567 N   0  0  0  0  0  0  0  0  0  0  0  0
   24.0699  -20.4254  -16.9379 C   0  0  0  0  0  0  0  0  0  0  0  0
   23.3451  -20.2692  -18.1020 O   0  0  0  0  0  0  0  0  0  0  0  0
   23.6116  -19.9379  -15.8783 O   0  0  0  0  0  0  0  0  0  0  0  0
  2  1  1  1
  2  3  1  0
  4  2  1  0
  5  4  1  0
  5  7  1  0
  5  6  1  6
  7  8  2  0
 10  9  1  6
 10 11  1  0
 13 12  1  6
 12 10  1  0
 14  7  1  0
 14 13  1  0
 15 13  1  0
 15 19  1  0
 16 15  2  0
 18 19  1  0
 18 17  1  1
 20 18  1  0
 21 20  1  0
 22 20  2  0
M  END
$$$$
