LLA.pdb
     RDKit          3D

 22 21  0  0  1  0  0  0  0  0999 V2000
   19.0078   -9.4556  -13.2240 C   0  0  0  0  0  0  0  0  0  0  0  0
   17.8475  -10.3071  -13.7020 C   0  0  2  0  0  0  0  0  0  0  0  0
   17.9136  -10.2882  -15.2344 C   0  0  0  0  0  0  0  0  0  0  0  0
   16.5173   -9.6831  -13.3364 C   0  0  0  0  0  0  0  0  0  0  0  0
   16.4475   -9.6189  -11.8323 C   0  0  2  0  0  0  0  0  0  0  0  0
   16.1270  -10.9022  -11.2907 N   0  0  0  0  0  0  0  0  0  0  0  0
   15.4743   -8.5955  -11.3606 C   0  0  0  0  0  0  0  0  0  0  0  0
   14.2353   -8.7101  -11.5427 O   0  0  0  0  0  0  0  0  0  0  0  0
   14.5762   -6.8271   -6.5819 C   0  0  0  0  0  0  0  0  0  0  0  0
   14.3372   -6.9858   -8.0704 C   0  0  1  0  0  0  0  0  0  0  0  0
   12.9069   -6.6315   -8.3973 C   0  0  0  0  0  0  0  0  0  0  0  0
   15.3339   -6.1244   -8.8130 C   0  0  0  0  0  0  0  0  0  0  0  0
   15.1346   -6.3249  -10.2941 C   0  0  2  0  0  0  0  0  0  0  0  0
   15.9421   -7.4609  -10.6893 N   0  0  0  0  0  0  0  0  0  0  0  0
   15.6568   -5.1412  -11.0661 C   0  0  0  0  0  0  0  0  0  0  0  0
   16.8673   -4.7988  -11.0359 O   0  0  0  0  0  0  0  0  0  0  0  0
   14.1375   -2.8369  -13.6247 C   0  0  0  0  0  0  0  0  0  0  0  0
   15.2785   -3.2838  -12.7369 C   0  0  2  0  0  0  0  0  0  0  0  0
   14.7830   -4.3543  -11.8713 N   0  0  0  0  0  0  0  0  0  0  0  0
   15.7488   -2.1292  -11.9279 C   0  0  0  0  0  0  0  0  0  0  0  0
   16.6501   -1.1993  -12.4051 O   0  0  0  0  0  0  0  0  0  0  0  0
   15.3092   -1.9923  -10.7624 O   0  0  0  0  0  0  0  0  0  0  0  0
  2  1  1  1
  2  3  1  0
  4  2  1  0
  5  4  1  0
  5  7  1  0
  5  6  1  6
  7  8  2  0
 10  9  1  1
 10 11  1  0
 13 12  1  1
 12 10  1  0
 14  7  1  0
 14 13  1  0
 15 13  1  0
 15 19  1  0
 16 15  2  0
 18 19  1  0
 18 17  1  6
 20 18  1  0
 21 20  1  0
 22 20  2  0
M  END
$$$$
