LLA.pdb
     RDKit          3D

 22 21  0  0  1  0  0  0  0  0999 V2000
   27.6487  -17.1211  -18.9872 C   0  0  0  0  0  0  0  0  0  0  0  0
   28.5626  -17.2119  -17.7804 C   0  0  2  0  0  0  0  0  0  0  0  0
   29.9665  -17.4866  -18.3342 C   0  0  0  0  0  0  0  0  0  0  0  0
   28.2172  -18.4051  -16.9148 C   0  0  0  0  0  0  0  0  0  0  0  0
   26.7861  -18.2415  -16.4716 C   0  0  2  0  0  0  0  0  0  0  0  0
   26.6213  -17.0168  -15.7533 N   0  0  0  0  0  0  0  0  0  0  0  0
   26.3190  -19.3938  -15.6524 C   0  0  0  0  0  0  0  0  0  0  0  0
   26.4144  -20.5838  -16.0479 O   0  0  0  0  0  0  0  0  0  0  0  0
   26.2509  -22.0637  -11.2839 C   0  0  0  0  0  0  0  0  0  0  0  0
   25.3563  -20.8519  -11.1132 C   0  0  1  0  0  0  0  0  0  0  0  0
   25.4136  -20.3739   -9.6826 C   0  0  0  0  0  0  0  0  0  0  0  0
   25.7900  -19.7901  -12.0988 C   0  0  0  0  0  0  0  0  0  0  0  0
   25.3012  -20.1784  -13.4713 C   0  0  2  0  0  0  0  0  0  0  0  0
   25.7517  -19.1580  -14.3957 N   0  0  0  0  0  0  0  0  0  0  0  0
   23.7955  -20.1659  -13.5229 C   0  0  0  0  0  0  0  0  0  0  0  0
   23.1205  -19.1447  -13.2314 O   0  0  0  0  0  0  0  0  0  0  0  0
   21.2484  -22.4675  -14.9964 C   0  0  0  0  0  0  0  0  0  0  0  0
   21.6179  -21.3184  -14.0837 C   0  0  2  0  0  0  0  0  0  0  0  0
   23.0707  -21.3303  -13.9103 N   0  0  0  0  0  0  0  0  0  0  0  0
   20.9313  -21.4924  -12.7772 C   0  0  0  0  0  0  0  0  0  0  0  0
   19.6049  -21.1656  -12.5800 O   0  0  0  0  0  0  0  0  0  0  0  0
   21.5828  -21.9554  -11.8120 O   0  0  0  0  0  0  0  0  0  0  0  0
  2  1  1  6
  2  3  1  0
  4  2  1  0
  5  4  1  0
  5  7  1  0
  5  6  1  1
  7  8  2  0
 10  9  1  1
 10 11  1  0
 13 12  1  1
 12 10  1  0
 14  7  1  0
 14 13  1  0
 15 13  1  0
 15 19  1  0
 16 15  2  0
 18 19  1  0
 18 17  1  6
 20 18  1  0
 21 20  1  0
 22 20  2  0
M  END
$$$$
