LLA.pdb
     RDKit          3D

 22 21  0  0  1  0  0  0  0  0999 V2000
   27.7265  -18.2973  -17.1097 C   0  0  0  0  0  0  0  0  0  0  0  0
   28.3719  -18.1250  -15.7483 C   0  0  2  0  0  0  0  0  0  0  0  0
   29.8836  -18.2443  -15.9800 C   0  0  0  0  0  0  0  0  0  0  0  0
   28.0044  -19.2595  -14.8154 C   0  0  0  0  0  0  0  0  0  0  0  0
   26.5086  -19.2277  -14.6342 C   0  0  2  0  0  0  0  0  0  0  0  0
   26.0963  -17.9706  -14.0933 N   0  0  0  0  0  0  0  0  0  0  0  0
   26.0247  -20.3473  -13.7801 C   0  0  0  0  0  0  0  0  0  0  0  0
   26.2748  -21.5514  -14.0428 O   0  0  0  0  0  0  0  0  0  0  0  0
   26.5302  -19.7713   -8.7409 C   0  0  0  0  0  0  0  0  0  0  0  0
   26.3375  -20.4192  -10.0977 C   0  0  1  0  0  0  0  0  0  0  0  0
   27.0758  -21.7350  -10.1433 C   0  0  0  0  0  0  0  0  0  0  0  0
   24.8548  -20.5754  -10.3508 C   0  0  0  0  0  0  0  0  0  0  0  0
   24.6553  -21.0468  -11.7692 C   0  0  2  0  0  0  0  0  0  0  0  0
   25.2634  -20.0630  -12.6415 N   0  0  0  0  0  0  0  0  0  0  0  0
   23.1899  -21.0784  -12.1180 C   0  0  0  0  0  0  0  0  0  0  0  0
   22.3467  -21.7054  -11.4256 O   0  0  0  0  0  0  0  0  0  0  0  0
   20.9969  -19.0991  -14.3751 C   0  0  0  0  0  0  0  0  0  0  0  0
   21.2787  -20.3763  -13.6142 C   0  0  2  0  0  0  0  0  0  0  0  0
   22.6992  -20.3876  -13.2638 N   0  0  0  0  0  0  0  0  0  0  0  0
   20.9400  -21.5411  -14.4728 C   0  0  0  0  0  0  0  0  0  0  0  0
   19.6423  -21.8720  -14.8065 O   0  0  0  0  0  0  0  0  0  0  0  0
   21.8711  -22.2545  -14.9138 O   0  0  0  0  0  0  0  0  0  0  0  0
  2  1  1  6
  2  3  1  0
  4  2  1  0
  5  4  1  0
  5  7  1  0
  5  6  1  1
  7  8  2  0
 10  9  1  1
 10 11  1  0
 13 12  1  1
 12 10  1  0
 14  7  1  0
 14 13  1  0
 15 13  1  0
 15 19  1  0
 16 15  2  0
 18 19  1  0
 18 17  1  6
 20 18  1  0
 21 20  1  0
 22 20  2  0
M  END
$$$$
