LLA.pdb
     RDKit          3D

 22 21  0  0  1  0  0  0  0  0999 V2000
   27.6969  -17.3539  -14.9049 C   0  0  0  0  0  0  0  0  0  0  0  0
   26.7704  -18.3974  -15.4986 C   0  0  2  0  0  0  0  0  0  0  0  0
   25.6776  -17.6178  -16.2409 C   0  0  0  0  0  0  0  0  0  0  0  0
   26.0583  -19.1827  -14.4175 C   0  0  0  0  0  0  0  0  0  0  0  0
   27.1053  -19.9569  -13.6588 C   0  0  2  0  0  0  0  0  0  0  0  0
   27.7512  -20.8996  -14.5174 N   0  0  0  0  0  0  0  0  0  0  0  0
   26.5384  -20.6419  -12.4645 C   0  0  0  0  0  0  0  0  0  0  0  0
   25.9462  -21.7487  -12.5408 O   0  0  0  0  0  0  0  0  0  0  0  0
   26.6474  -21.6521   -7.2563 C   0  0  0  0  0  0  0  0  0  0  0  0
   26.1450  -20.2492   -7.5343 C   0  0  1  0  0  0  0  0  0  0  0  0
   26.4902  -19.3455   -6.3757 C   0  0  0  0  0  0  0  0  0  0  0  0
   26.7413  -19.7739   -8.8402 C   0  0  0  0  0  0  0  0  0  0  0  0
   26.1416  -20.5792   -9.9651 C   0  0  2  0  0  0  0  0  0  0  0  0
   26.6623  -20.0434  -11.2062 N   0  0  0  0  0  0  0  0  0  0  0  0
   24.6472  -20.3936  -10.0141 C   0  0  0  0  0  0  0  0  0  0  0  0
   24.1087  -19.2568   -9.9800 O   0  0  0  0  0  0  0  0  0  0  0  0
   21.8007  -22.2781  -11.2479 C   0  0  0  0  0  0  0  0  0  0  0  0
   22.3216  -21.3715  -10.1541 C   0  0  2  0  0  0  0  0  0  0  0  0
   23.7764  -21.5183  -10.1022 N   0  0  0  0  0  0  0  0  0  0  0  0
   21.7071  -21.7656   -8.8595 C   0  0  0  0  0  0  0  0  0  0  0  0
   20.3699  -21.5734   -8.5771 O   0  0  0  0  0  0  0  0  0  0  0  0
   22.4326  -22.2951   -7.9856 O   0  0  0  0  0  0  0  0  0  0  0  0
  2  1  1  1
  2  3  1  0
  4  2  1  0
  5  4  1  0
  5  7  1  0
  5  6  1  6
  7  8  2  0
 10  9  1  1
 10 11  1  0
 13 12  1  1
 12 10  1  0
 14  7  1  0
 14 13  1  0
 15 13  1  0
 15 19  1  0
 16 15  2  0
 18 19  1  0
 18 17  1  6
 20 18  1  0
 21 20  1  0
 22 20  2  0
M  END
$$$$
