LLA.pdb
     RDKit          3D

 22 21  0  0  1  0  0  0  0  0999 V2000
   27.2227  -17.4191  -17.2436 C   0  0  0  0  0  0  0  0  0  0  0  0
   28.3311  -17.6823  -16.2426 C   0  0  2  0  0  0  0  0  0  0  0  0
   29.5071  -18.2421  -17.0530 C   0  0  0  0  0  0  0  0  0  0  0  0
   27.9449  -18.7721  -15.2651 C   0  0  0  0  0  0  0  0  0  0  0  0
   26.5334  -18.4950  -14.8154 C   0  0  2  0  0  0  0  0  0  0  0  0
   26.5045  -17.3904  -13.9087 N   0  0  0  0  0  0  0  0  0  0  0  0
   25.8972  -19.6922  -14.1998 C   0  0  0  0  0  0  0  0  0  0  0  0
   25.8631  -20.8087  -14.7776 O   0  0  0  0  0  0  0  0  0  0  0  0
   26.2617  -20.1745   -8.9174 C   0  0  0  0  0  0  0  0  0  0  0  0
   26.1291  -20.5070  -10.3903 C   0  0  1  0  0  0  0  0  0  0  0  0
   26.6883  -21.8840  -10.6540 C   0  0  0  0  0  0  0  0  0  0  0  0
   24.6736  -20.3857  -10.7825 C   0  0  0  0  0  0  0  0  0  0  0  0
   24.5533  -20.6226  -12.2668 C   0  0  2  0  0  0  0  0  0  0  0  0
   25.3127  -19.5846  -12.9335 N   0  0  0  0  0  0  0  0  0  0  0  0
   23.1245  -20.4618  -12.7170 C   0  0  0  0  0  0  0  0  0  0  0  0
   22.4627  -19.4148  -12.4950 O   0  0  0  0  0  0  0  0  0  0  0  0
   20.8726  -22.3171  -15.0391 C   0  0  0  0  0  0  0  0  0  0  0  0
   21.0709  -21.3876  -13.8615 C   0  0  2  0  0  0  0  0  0  0  0  0
   22.4613  -21.5077  -13.4221 N   0  0  0  0  0  0  0  0  0  0  0  0
   20.1395  -21.7762  -12.7705 C   0  0  0  0  0  0  0  0  0  0  0  0
   18.7949  -21.4655  -12.7889 O   0  0  0  0  0  0  0  0  0  0  0  0
   20.5925  -22.4133  -11.7911 O   0  0  0  0  0  0  0  0  0  0  0  0
  2  1  1  6
  2  3  1  0
  4  2  1  0
  5  4  1  0
  5  7  1  0
  5  6  1  1
  7  8  2  0
 10  9  1  1
 10 11  1  0
 13 12  1  1
 12 10  1  0
 14  7  1  0
 14 13  1  0
 15 13  1  0
 15 19  1  0
 16 15  2  0
 18 19  1  0
 18 17  1  6
 20 18  1  0
 21 20  1  0
 22 20  2  0
M  END
$$$$
