LLA.pdb
     RDKit          3D

 22 21  0  0  1  0  0  0  0  0999 V2000
   28.0562  -17.0933  -15.1061 C   0  0  0  0  0  0  0  0  0  0  0  0
   27.6766  -18.0832  -16.1905 C   0  0  2  0  0  0  0  0  0  0  0  0
   26.9807  -17.2638  -17.2847 C   0  0  0  0  0  0  0  0  0  0  0  0
   26.6453  -19.0753  -15.6960 C   0  0  0  0  0  0  0  0  0  0  0  0
   27.2972  -19.9043  -14.6194 C   0  0  2  0  0  0  0  0  0  0  0  0
   28.3409  -20.7101  -15.1709 N   0  0  0  0  0  0  0  0  0  0  0  0
   26.3121  -20.7520  -13.8927 C   0  0  0  0  0  0  0  0  0  0  0  0
   26.0327  -21.9228  -14.2572 O   0  0  0  0  0  0  0  0  0  0  0  0
   26.0693  -20.0005   -8.6179 C   0  0  0  0  0  0  0  0  0  0  0  0
   25.9947  -20.6820   -9.9698 C   0  0  1  0  0  0  0  0  0  0  0  0
   26.2035  -22.1676   -9.8037 C   0  0  0  0  0  0  0  0  0  0  0  0
   24.6628  -20.3495  -10.6043 C   0  0  0  0  0  0  0  0  0  0  0  0
   24.6388  -20.9187  -12.0003 C   0  0  2  0  0  0  0  0  0  0  0  0
   25.6670  -20.2396  -12.7621 N   0  0  0  0  0  0  0  0  0  0  0  0
   23.3300  -20.6081  -12.6789 C   0  0  0  0  0  0  0  0  0  0  0  0
   22.8979  -19.4326  -12.8019 O   0  0  0  0  0  0  0  0  0  0  0  0
   20.8948  -22.5783  -14.7276 C   0  0  0  0  0  0  0  0  0  0  0  0
   21.2366  -21.3858  -13.8609 C   0  0  2  0  0  0  0  0  0  0  0  0
   22.5216  -21.6526  -13.2143 N   0  0  0  0  0  0  0  0  0  0  0  0
   20.1670  -21.1970  -12.8465 C   0  0  0  0  0  0  0  0  0  0  0  0
   20.3736  -21.3942  -11.4962 O   0  0  0  0  0  0  0  0  0  0  0  0
   19.0281  -20.8436  -13.2317 O   0  0  0  0  0  0  0  0  0  0  0  0
  2  1  1  1
  2  3  1  0
  4  2  1  0
  5  4  1  0
  5  7  1  0
  5  6  1  6
  7  8  2  0
 10  9  1  1
 10 11  1  0
 13 12  1  1
 12 10  1  0
 14  7  1  0
 14 13  1  0
 15 13  1  0
 15 19  1  0
 16 15  2  0
 18 19  1  0
 18 17  1  6
 20 18  1  0
 21 20  1  0
 22 20  2  0
M  END
$$$$
