LLA.pdb
     RDKit          3D

 22 21  0  0  1  0  0  0  0  0999 V2000
   28.0579  -18.0230  -16.6370 C   0  0  0  0  0  0  0  0  0  0  0  0
   27.7241  -19.3087  -17.3688 C   0  0  2  0  0  0  0  0  0  0  0  0
   27.2188  -18.8864  -18.7542 C   0  0  0  0  0  0  0  0  0  0  0  0
   26.5705  -20.0353  -16.7102 C   0  0  0  0  0  0  0  0  0  0  0  0
   27.0053  -20.3994  -15.3139 C   0  0  2  0  0  0  0  0  0  0  0  0
   28.1789  -21.2143  -15.3512 N   0  0  0  0  0  0  0  0  0  0  0  0
   25.9225  -21.0786  -14.5501 C   0  0  0  0  0  0  0  0  0  0  0  0
   25.4496  -22.1911  -14.8969 O   0  0  0  0  0  0  0  0  0  0  0  0
   26.0320  -19.9755   -9.2862 C   0  0  0  0  0  0  0  0  0  0  0  0
   25.8796  -20.6980  -10.6101 C   0  0  1  0  0  0  0  0  0  0  0  0
   26.0674  -22.1816  -10.4053 C   0  0  0  0  0  0  0  0  0  0  0  0
   24.5255  -20.3581  -11.1914 C   0  0  0  0  0  0  0  0  0  0  0  0
   24.3938  -21.0340  -12.5328 C   0  0  2  0  0  0  0  0  0  0  0  0
   25.4037  -20.4679  -13.4035 N   0  0  0  0  0  0  0  0  0  0  0  0
   23.0618  -20.7149  -13.1606 C   0  0  0  0  0  0  0  0  0  0  0  0
   22.6911  -19.5344  -13.3894 O   0  0  0  0  0  0  0  0  0  0  0  0
   20.5107  -22.6072  -15.0568 C   0  0  0  0  0  0  0  0  0  0  0  0
   20.8467  -21.4790  -14.1059 C   0  0  2  0  0  0  0  0  0  0  0  0
   22.1598  -21.7569  -13.5236 N   0  0  0  0  0  0  0  0  0  0  0  0
   19.8066  -21.4071  -13.0467 C   0  0  0  0  0  0  0  0  0  0  0  0
   18.5486  -20.8844  -13.2680 O   0  0  0  0  0  0  0  0  0  0  0  0
   20.0818  -21.8391  -11.9030 O   0  0  0  0  0  0  0  0  0  0  0  0
  2  1  1  1
  2  3  1  0
  4  2  1  0
  5  4  1  0
  5  7  1  0
  5  6  1  6
  7  8  2  0
 10  9  1  1
 10 11  1  0
 13 12  1  1
 12 10  1  0
 14  7  1  0
 14 13  1  0
 15 13  1  0
 15 19  1  0
 16 15  2  0
 18 19  1  0
 18 17  1  6
 20 18  1  0
 21 20  1  0
 22 20  2  0
M  END
$$$$
