LLA.pdb
     RDKit          3D

 22 21  0  0  1  0  0  0  0  0999 V2000
   21.8951  -16.2959  -16.1660 C   0  0  0  0  0  0  0  0  0  0  0  0
   22.1894  -17.5285  -16.9990 C   0  0  2  0  0  0  0  0  0  0  0  0
   21.1917  -17.4983  -18.1638 C   0  0  0  0  0  0  0  0  0  0  0  0
   21.8915  -18.7984  -16.2304 C   0  0  0  0  0  0  0  0  0  0  0  0
   23.1423  -19.1740  -15.4782 C   0  0  2  0  0  0  0  0  0  0  0  0
   24.2079  -19.4566  -16.3878 N   0  0  0  0  0  0  0  0  0  0  0  0
   22.9192  -20.3262  -14.5617 C   0  0  0  0  0  0  0  0  0  0  0  0
   22.7990  -21.5060  -14.9801 O   0  0  0  0  0  0  0  0  0  0  0  0
   25.5484  -20.2789   -9.9591 C   0  0  0  0  0  0  0  0  0  0  0  0
   24.8151  -20.8022  -11.1782 C   0  0  1  0  0  0  0  0  0  0  0  0
   25.2547  -22.2166  -11.4689 C   0  0  0  0  0  0  0  0  0  0  0  0
   23.3274  -20.6954  -10.9284 C   0  0  0  0  0  0  0  0  0  0  0  0
   22.5975  -21.1171  -12.1786 C   0  0  2  0  0  0  0  0  0  0  0  0
   22.8383  -20.1017  -13.1833 N   0  0  0  0  0  0  0  0  0  0  0  0
   21.1095  -21.1402  -11.9435 C   0  0  0  0  0  0  0  0  0  0  0  0
   20.4623  -20.1089  -11.6256 O   0  0  0  0  0  0  0  0  0  0  0  0
   18.3395  -23.3846  -12.8510 C   0  0  0  0  0  0  0  0  0  0  0  0
   18.9249  -22.4067  -11.8556 C   0  0  2  0  0  0  0  0  0  0  0  0
   20.3703  -22.3515  -12.0753 N   0  0  0  0  0  0  0  0  0  0  0  0
   18.6201  -22.8716  -10.4773 C   0  0  0  0  0  0  0  0  0  0  0  0
   17.3837  -22.7035   -9.8876 O   0  0  0  0  0  0  0  0  0  0  0  0
   19.5231  -23.4410   -9.8210 O   0  0  0  0  0  0  0  0  0  0  0  0
  2  1  1  1
  2  3  1  0
  4  2  1  0
  5  4  1  0
  5  7  1  0
  5  6  1  6
  7  8  2  0
 10  9  1  1
 10 11  1  0
 13 12  1  1
 12 10  1  0
 14  7  1  0
 14 13  1  0
 15 13  1  0
 15 19  1  0
 16 15  2  0
 18 19  1  0
 18 17  1  6
 20 18  1  0
 21 20  1  0
 22 20  2  0
M  END
$$$$
