KNF.pdb
     RDKit          3D

 29 29  0  0  1  0  0  0  0  0999 V2000
   23.9874  -24.0544  -14.5565 N   0  0  0  0  0  0  0  0  0  0  0  0
   23.9637  -22.5840  -14.6926 C   0  0  1  0  0  0  0  0  0  0  0  0
   24.5052  -22.1814  -16.0215 C   0  0  0  0  0  0  0  0  0  0  0  0
   25.9861  -22.2362  -16.0868 C   0  0  0  0  0  0  0  0  0  0  0  0
   26.4611  -23.5663  -16.6751 C   0  0  0  0  0  0  0  0  0  0  0  0
   27.9897  -23.5406  -16.7853 C   0  0  0  0  0  0  0  0  0  0  0  0
   28.4644  -24.7537  -17.4043 N   0  0  0  0  0  0  0  0  0  0  0  0
   22.5567  -22.1708  -14.5483 C   0  0  0  0  0  0  0  0  0  0  0  0
   21.6536  -22.8038  -15.1859 O   0  0  0  0  0  0  0  0  0  0  0  0
   20.1823  -23.0058  -12.2687 N   0  0  0  0  0  0  0  0  0  0  0  0
   19.9086  -21.7468  -11.6279 C   0  0  0  0  0  0  0  0  0  0  0  0
   19.4304  -21.7787  -10.4880 O   0  0  0  0  0  0  0  0  0  0  0  0
   20.2170  -20.5169  -12.3736 C   0  0  0  0  0  0  0  0  0  0  0  0
   20.7461  -20.6813  -13.7503 C   0  0  2  0  0  0  0  0  0  0  0  0
   22.1530  -21.1004  -13.7346 N   0  0  0  0  0  0  0  0  0  0  0  0
   20.6612  -19.3726  -14.4856 C   0  0  0  0  0  0  0  0  0  0  0  0
   21.2931  -18.3632  -14.1253 O   0  0  0  0  0  0  0  0  0  0  0  0
   19.8340  -19.2246  -15.6520 N   0  0  0  0  0  0  0  0  0  0  0  0
   19.7584  -17.9231  -16.3354 C   0  0  1  0  0  0  0  0  0  0  0  0
   20.5163  -18.0855  -17.6161 C   0  0  0  0  0  0  0  0  0  0  0  0
   20.4253  -16.9694  -18.5543 C   0  0  0  0  0  0  0  0  0  0  0  0
   21.4395  -16.0430  -18.5983 C   0  0  0  0  0  0  0  0  0  0  0  0
   21.4443  -14.9560  -19.4662 C   0  0  0  0  0  0  0  0  0  0  0  0
   20.3912  -14.8012  -20.3150 C   0  0  0  0  0  0  0  0  0  0  0  0
   19.3612  -15.7054  -20.2990 C   0  0  0  0  0  0  0  0  0  0  0  0
   19.3756  -16.7759  -19.4312 C   0  0  0  0  0  0  0  0  0  0  0  0
   18.3423  -17.6564  -16.6332 C   0  0  0  0  0  0  0  0  0  0  0  0
   17.5448  -18.5892  -16.8258 O   0  0  0  0  0  0  0  0  0  0  0  0
   17.8919  -16.3568  -16.6984 O   0  0  0  0  0  0  0  0  0  0  0  0
  2  1  1  6
  2  3  1  0
  4  3  1  0
  5  4  1  0
  6  5  1  0
  7  6  1  0
  8  9  2  0
  8  2  1  0
 11 10  1  0
 11 13  1  0
 12 11  2  0
 14 13  1  1
 14 15  1  0
 15  8  1  0
 16 14  1  0
 16 18  1  0
 17 16  2  0
 19 20  1  6
 19 18  1  0
 19 27  1  0
 21 26  2  0
 21 20  1  0
 22 21  1  0
 23 24  1  0
 23 22  2  0
 24 25  2  0
 25 26  1  0
 27 28  2  0
 27 29  1  0
M  END
$$$$
