KNF.pdb
     RDKit          3D

 29 29  0  0  1  0  0  0  0  0999 V2000
   23.0559  -21.2393  -14.3750 N   0  0  0  0  0  0  0  0  0  0  0  0
   23.9692  -20.1632  -13.9402 C   0  0  1  0  0  0  0  0  0  0  0  0
   23.6077  -18.8806  -14.6075 C   0  0  0  0  0  0  0  0  0  0  0  0
   24.5578  -18.4947  -15.6793 C   0  0  0  0  0  0  0  0  0  0  0  0
   23.9621  -18.7612  -17.0632 C   0  0  0  0  0  0  0  0  0  0  0  0
   24.9599  -18.2951  -18.1293 C   0  0  0  0  0  0  0  0  0  0  0  0
   24.4756  -18.6321  -19.4453 N   0  0  0  0  0  0  0  0  0  0  0  0
   23.8271  -20.0563  -12.4775 C   0  0  0  0  0  0  0  0  0  0  0  0
   22.7061  -19.7042  -11.9852 O   0  0  0  0  0  0  0  0  0  0  0  0
   22.9063  -20.8111   -7.6413 N   0  0  0  0  0  0  0  0  0  0  0  0
   24.0562  -21.5497   -8.0918 C   0  0  0  0  0  0  0  0  0  0  0  0
   24.7158  -22.1551   -7.2389 O   0  0  0  0  0  0  0  0  0  0  0  0
   24.3620  -21.5310   -9.5307 C   0  0  0  0  0  0  0  0  0  0  0  0
   24.6359  -20.2067  -10.1415 C   0  0  2  0  0  0  0  0  0  0  0  0
   24.8769  -20.3244  -11.5849 N   0  0  0  0  0  0  0  0  0  0  0  0
   25.8626  -19.6036   -9.5152 C   0  0  0  0  0  0  0  0  0  0  0  0
   25.8621  -19.1390   -8.3611 O   0  0  0  0  0  0  0  0  0  0  0  0
   27.1074  -19.5328  -10.2308 N   0  0  0  0  0  0  0  0  0  0  0  0
   28.3306  -20.0876   -9.6285 C   0  0  1  0  0  0  0  0  0  0  0  0
   27.8818  -20.8814   -8.4412 C   0  0  0  0  0  0  0  0  0  0  0  0
   28.0358  -20.2272   -7.1442 C   0  0  0  0  0  0  0  0  0  0  0  0
   29.2323  -19.6279   -6.8308 C   0  0  0  0  0  0  0  0  0  0  0  0
   29.4659  -18.9722   -5.6265 C   0  0  0  0  0  0  0  0  0  0  0  0
   28.4591  -18.9214   -4.7114 C   0  0  0  0  0  0  0  0  0  0  0  0
   27.2521  -19.5086   -4.9893 C   0  0  0  0  0  0  0  0  0  0  0  0
   27.0408  -20.1535   -6.1887 C   0  0  0  0  0  0  0  0  0  0  0  0
   28.9468  -20.9873  -10.6164 C   0  0  0  0  0  0  0  0  0  0  0  0
   30.0659  -21.4868  -10.4127 O   0  0  0  0  0  0  0  0  0  0  0  0
   28.2761  -21.2824  -11.7822 O   0  0  0  0  0  0  0  0  0  0  0  0
  2  1  1  6
  2  3  1  0
  4  3  1  0
  5  4  1  0
  6  5  1  0
  7  6  1  0
  8  9  2  0
  8  2  1  0
 11 10  1  0
 11 13  1  0
 12 11  2  0
 14 13  1  1
 14 15  1  0
 15  8  1  0
 16 14  1  0
 16 18  1  0
 17 16  2  0
 19 20  1  1
 19 18  1  0
 19 27  1  0
 21 26  2  0
 21 20  1  0
 22 21  1  0
 23 24  1  0
 23 22  2  0
 24 25  2  0
 25 26  1  0
 27 28  2  0
 27 29  1  0
M  END
$$$$
