KNF.pdb
     RDKit          3D

 29 29  0  0  1  0  0  0  0  0999 V2000
   28.5736  -19.9577  -18.3134 N   0  0  0  0  0  0  0  0  0  0  0  0
   28.5795  -19.5425  -16.8961 C   0  0  1  0  0  0  0  0  0  0  0  0
   28.6086  -18.0558  -16.7955 C   0  0  0  0  0  0  0  0  0  0  0  0
   28.5623  -17.3826  -18.1165 C   0  0  0  0  0  0  0  0  0  0  0  0
   28.7022  -15.8664  -17.9654 C   0  0  0  0  0  0  0  0  0  0  0  0
   28.8028  -15.2377  -19.3597 C   0  0  0  0  0  0  0  0  0  0  0  0
   29.0120  -13.8149  -19.2499 N   0  0  0  0  0  0  0  0  0  0  0  0
   27.3513  -20.0889  -16.2926 C   0  0  0  0  0  0  0  0  0  0  0  0
   26.3650  -20.3805  -17.0443 O   0  0  0  0  0  0  0  0  0  0  0  0
   24.3121  -23.2219  -13.7323 N   0  0  0  0  0  0  0  0  0  0  0  0
   25.3978  -23.6229  -14.5874 C   0  0  0  0  0  0  0  0  0  0  0  0
   25.4246  -24.8013  -14.9612 O   0  0  0  0  0  0  0  0  0  0  0  0
   26.3940  -22.6042  -14.9536 C   0  0  0  0  0  0  0  0  0  0  0  0
   26.1695  -21.2304  -14.4395 C   0  0  2  0  0  0  0  0  0  0  0  0
   27.2080  -20.3072  -14.9133 N   0  0  0  0  0  0  0  0  0  0  0  0
   26.2086  -21.2390  -12.9365 C   0  0  0  0  0  0  0  0  0  0  0  0
   26.9800  -21.9737  -12.2938 O   0  0  0  0  0  0  0  0  0  0  0  0
   25.3440  -20.3900  -12.1630 N   0  0  0  0  0  0  0  0  0  0  0  0
   25.0478  -20.7290  -10.7616 C   0  0  1  0  0  0  0  0  0  0  0  0
   25.6996  -19.6656   -9.9337 C   0  0  0  0  0  0  0  0  0  0  0  0
   26.8966  -20.0738   -9.2026 C   0  0  0  0  0  0  0  0  0  0  0  0
   27.8322  -20.8613   -9.8297 C   0  0  0  0  0  0  0  0  0  0  0  0
   29.0060  -21.2879   -9.2172 C   0  0  0  0  0  0  0  0  0  0  0  0
   29.2403  -20.9068   -7.9313 C   0  0  0  0  0  0  0  0  0  0  0  0
   28.3290  -20.1217   -7.2739 C   0  0  0  0  0  0  0  0  0  0  0  0
   27.1720  -19.7096   -7.8988 C   0  0  0  0  0  0  0  0  0  0  0  0
   23.5885  -20.6636  -10.5848 C   0  0  0  0  0  0  0  0  0  0  0  0
   23.0600  -21.0085   -9.5147 O   0  0  0  0  0  0  0  0  0  0  0  0
   22.7957  -20.2133  -11.6167 O   0  0  0  0  0  0  0  0  0  0  0  0
  2  1  1  6
  2  3  1  0
  4  3  1  0
  5  4  1  0
  6  5  1  0
  7  6  1  0
  8  9  2  0
  8  2  1  0
 11 10  1  0
 11 13  1  0
 12 11  2  0
 14 13  1  6
 14 15  1  0
 15  8  1  0
 16 14  1  0
 16 18  1  0
 17 16  2  0
 19 20  1  1
 19 18  1  0
 19 27  1  0
 21 26  2  0
 21 20  1  0
 22 21  1  0
 23 24  1  0
 23 22  2  0
 24 25  2  0
 25 26  1  0
 27 28  2  0
 27 29  1  0
M  END
$$$$
