KNF.pdb
     RDKit          3D

 29 29  0  0  1  0  0  0  0  0999 V2000
   18.9571  -16.5984  -17.4789 N   0  0  0  0  0  0  0  0  0  0  0  0
   17.7247  -15.8091  -17.2803 C   0  0  1  0  0  0  0  0  0  0  0  0
   16.8673  -16.4466  -16.2412 C   0  0  0  0  0  0  0  0  0  0  0  0
   15.9954  -17.5172  -16.7833 C   0  0  0  0  0  0  0  0  0  0  0  0
   16.2273  -18.8390  -16.0485 C   0  0  0  0  0  0  0  0  0  0  0  0
   15.3484  -19.9205  -16.6868 C   0  0  0  0  0  0  0  0  0  0  0  0
   15.5079  -21.1700  -15.9842 N   0  0  0  0  0  0  0  0  0  0  0  0
   18.1507  -14.4625  -16.8604 C   0  0  0  0  0  0  0  0  0  0  0  0
   19.3643  -14.2704  -16.5239 O   0  0  0  0  0  0  0  0  0  0  0  0
   16.6275   -9.5659  -18.9236 N   0  0  0  0  0  0  0  0  0  0  0  0
   16.7426  -10.8556  -18.2957 C   0  0  0  0  0  0  0  0  0  0  0  0
   15.8267  -11.6651  -18.4824 O   0  0  0  0  0  0  0  0  0  0  0  0
   17.9386  -11.1163  -17.4797 C   0  0  0  0  0  0  0  0  0  0  0  0
   17.7865  -12.0665  -16.3502 C   0  0  2  0  0  0  0  0  0  0  0  0
   17.2774  -13.3646  -16.8098 N   0  0  0  0  0  0  0  0  0  0  0  0
   16.8088  -11.5135  -15.3507 C   0  0  0  0  0  0  0  0  0  0  0  0
   15.5785  -11.6510  -15.4752 O   0  0  0  0  0  0  0  0  0  0  0  0
   17.2557  -10.7893  -14.1921 N   0  0  0  0  0  0  0  0  0  0  0  0
   16.2728  -10.1299  -13.3169 C   0  0  1  0  0  0  0  0  0  0  0  0
   16.0780  -11.0481  -12.1508 C   0  0  0  0  0  0  0  0  0  0  0  0
   15.1715  -10.5699  -11.1098 C   0  0  0  0  0  0  0  0  0  0  0  0
   15.6849   -9.8929  -10.0295 C   0  0  0  0  0  0  0  0  0  0  0  0
   14.8981   -9.3914   -8.9979 C   0  0  0  0  0  0  0  0  0  0  0  0
   13.5514   -9.5807   -9.0606 C   0  0  0  0  0  0  0  0  0  0  0  0
   13.0038  -10.2519  -10.1229 C   0  0  0  0  0  0  0  0  0  0  0  0
   13.8009  -10.7409  -11.1351 C   0  0  0  0  0  0  0  0  0  0  0  0
   16.8651   -8.8654  -12.8528 C   0  0  0  0  0  0  0  0  0  0  0  0
   18.0969   -8.7043  -12.8432 O   0  0  0  0  0  0  0  0  0  0  0  0
   16.0459   -7.8450  -12.4244 O   0  0  0  0  0  0  0  0  0  0  0  0
  2  1  1  1
  2  3  1  0
  4  3  1  0
  5  4  1  0
  6  5  1  0
  7  6  1  0
  8  9  2  0
  8  2  1  0
 11 10  1  0
 11 13  1  0
 12 11  2  0
 14 13  1  6
 14 15  1  0
 15  8  1  0
 16 14  1  0
 16 18  1  0
 17 16  2  0
 19 20  1  1
 19 18  1  0
 19 27  1  0
 21 26  2  0
 21 20  1  0
 22 21  1  0
 23 24  1  0
 23 22  2  0
 24 25  2  0
 25 26  1  0
 27 28  2  0
 27 29  1  0
M  END
$$$$
