KNF.pdb
     RDKit          3D

 29 29  0  0  1  0  0  0  0  0999 V2000
   29.2645  -34.7657  -19.9648 N   0  0  0  0  0  0  0  0  0  0  0  0
   27.8344  -34.7797  -19.5962 C   0  0  1  0  0  0  0  0  0  0  0  0
   27.4686  -36.0974  -19.0039 C   0  0  0  0  0  0  0  0  0  0  0  0
   27.3285  -37.1717  -20.0172 C   0  0  0  0  0  0  0  0  0  0  0  0
   28.3365  -38.2956  -19.7690 C   0  0  0  0  0  0  0  0  0  0  0  0
   28.0987  -39.4089  -20.7954 C   0  0  0  0  0  0  0  0  0  0  0  0
   29.0438  -40.4799  -20.5957 N   0  0  0  0  0  0  0  0  0  0  0  0
   27.6402  -33.6907  -18.6228 C   0  0  0  0  0  0  0  0  0  0  0  0
   28.6071  -33.3538  -17.8647 O   0  0  0  0  0  0  0  0  0  0  0  0
   28.1756  -30.1056  -18.7290 N   0  0  0  0  0  0  0  0  0  0  0  0
   26.7827  -29.7536  -18.8100 C   0  0  0  0  0  0  0  0  0  0  0  0
   26.4914  -28.7106  -19.4070 O   0  0  0  0  0  0  0  0  0  0  0  0
   25.8094  -30.6580  -18.1785 C   0  0  0  0  0  0  0  0  0  0  0  0
   26.3494  -31.8800  -17.5326 C   0  0  2  0  0  0  0  0  0  0  0  0
   26.4286  -32.9956  -18.4836 N   0  0  0  0  0  0  0  0  0  0  0  0
   25.4479  -32.2972  -16.4039 C   0  0  0  0  0  0  0  0  0  0  0  0
   24.4381  -33.0016  -16.5827 O   0  0  0  0  0  0  0  0  0  0  0  0
   25.7131  -31.8945  -15.0496 N   0  0  0  0  0  0  0  0  0  0  0  0
   24.8051  -32.3146  -13.9698 C   0  0  1  0  0  0  0  0  0  0  0  0
   25.6081  -32.2510  -12.7080 C   0  0  0  0  0  0  0  0  0  0  0  0
   24.8764  -32.5283  -11.4744 C   0  0  0  0  0  0  0  0  0  0  0  0
   24.4813  -31.4812  -10.6767 C   0  0  0  0  0  0  0  0  0  0  0  0
   23.7715  -31.6487   -9.4923 C   0  0  0  0  0  0  0  0  0  0  0  0
   23.4518  -32.9134   -9.1028 C   0  0  0  0  0  0  0  0  0  0  0  0
   23.8298  -33.9823   -9.8731 C   0  0  0  0  0  0  0  0  0  0  0  0
   24.5327  -33.7950  -11.0435 C   0  0  0  0  0  0  0  0  0  0  0  0
   23.7074  -31.3369  -13.9033 C   0  0  0  0  0  0  0  0  0  0  0  0
   23.8683  -30.1701  -14.2982 O   0  0  0  0  0  0  0  0  0  0  0  0
   22.4842  -31.7178  -13.3985 O   0  0  0  0  0  0  0  0  0  0  0  0
  2  1  1  1
  2  3  1  0
  4  3  1  0
  5  4  1  0
  6  5  1  0
  7  6  1  0
  8  9  2  0
  8  2  1  0
 11 10  1  0
 11 13  1  0
 12 11  2  0
 14 13  1  6
 14 15  1  0
 15  8  1  0
 16 14  1  0
 16 18  1  0
 17 16  2  0
 19 20  1  1
 19 18  1  0
 19 27  1  0
 21 26  2  0
 21 20  1  0
 22 21  1  0
 23 24  1  0
 23 22  2  0
 24 25  2  0
 25 26  1  0
 27 28  2  0
 27 29  1  0
M  END
$$$$
