KNF.pdb
     RDKit          3D

 29 29  0  0  1  0  0  0  0  0999 V2000
   27.3465  -20.1577  -18.2458 N   0  0  0  0  0  0  0  0  0  0  0  0
   27.9164  -20.0329  -16.8890 C   0  0  1  0  0  0  0  0  0  0  0  0
   28.7076  -18.7749  -16.7769 C   0  0  0  0  0  0  0  0  0  0  0  0
   28.9619  -18.1291  -18.0879 C   0  0  0  0  0  0  0  0  0  0  0  0
   27.7935  -17.2277  -18.4920 C   0  0  0  0  0  0  0  0  0  0  0  0
   27.9392  -15.8793  -17.7779 C   0  0  0  0  0  0  0  0  0  0  0  0
   28.0877  -14.8184  -18.7436 N   0  0  0  0  0  0  0  0  0  0  0  0
   26.7780  -20.0262  -15.9535 C   0  0  0  0  0  0  0  0  0  0  0  0
   25.6762  -19.5006  -16.3178 O   0  0  0  0  0  0  0  0  0  0  0  0
   23.2470  -21.5198  -12.5630 N   0  0  0  0  0  0  0  0  0  0  0  0
   23.4809  -22.1211  -13.8492 C   0  0  0  0  0  0  0  0  0  0  0  0
   22.6288  -22.9101  -14.2739 O   0  0  0  0  0  0  0  0  0  0  0  0
   24.7136  -21.7540  -14.5633 C   0  0  0  0  0  0  0  0  0  0  0  0
   25.6034  -20.7671  -13.9029 C   0  0  2  0  0  0  0  0  0  0  0  0
   26.8445  -20.5752  -14.6632 N   0  0  0  0  0  0  0  0  0  0  0  0
   25.9726  -21.2566  -12.5300 C   0  0  0  0  0  0  0  0  0  0  0  0
   26.9198  -22.0389  -12.3336 O   0  0  0  0  0  0  0  0  0  0  0  0
   25.2377  -20.8400  -11.3669 N   0  0  0  0  0  0  0  0  0  0  0  0
   25.7923  -21.0820  -10.0250 C   0  0  1  0  0  0  0  0  0  0  0  0
   27.0607  -20.2902   -9.9544 C   0  0  0  0  0  0  0  0  0  0  0  0
   27.6505  -20.1521   -8.6250 C   0  0  0  0  0  0  0  0  0  0  0  0
   28.6326  -21.0288   -8.2303 C   0  0  0  0  0  0  0  0  0  0  0  0
   29.2586  -20.9666   -6.9897 C   0  0  0  0  0  0  0  0  0  0  0  0
   28.8796  -19.9883   -6.1220 C   0  0  0  0  0  0  0  0  0  0  0  0
   27.9029  -19.0963   -6.4813 C   0  0  0  0  0  0  0  0  0  0  0  0
   27.2949  -19.1750   -7.7155 C   0  0  0  0  0  0  0  0  0  0  0  0
   24.8305  -20.5575   -9.0427 C   0  0  0  0  0  0  0  0  0  0  0  0
   24.8335  -20.9633   -7.8685 O   0  0  0  0  0  0  0  0  0  0  0  0
   23.9148  -19.6035   -9.4266 O   0  0  0  0  0  0  0  0  0  0  0  0
  2  1  1  6
  2  3  1  0
  4  3  1  0
  5  4  1  0
  6  5  1  0
  7  6  1  0
  8  9  2  0
  8  2  1  0
 11 10  1  0
 11 13  1  0
 12 11  2  0
 14 13  1  6
 14 15  1  0
 15  8  1  0
 16 14  1  0
 16 18  1  0
 17 16  2  0
 19 20  1  6
 19 18  1  0
 19 27  1  0
 21 26  2  0
 21 20  1  0
 22 21  1  0
 23 24  1  0
 23 22  2  0
 24 25  2  0
 25 26  1  0
 27 28  2  0
 27 29  1  0
M  END
$$$$
