KNF.pdb
     RDKit          3D

 29 29  0  0  1  0  0  0  0  0999 V2000
   17.0027  -13.5212  -18.6371 N   0  0  0  0  0  0  0  0  0  0  0  0
   17.2185  -13.1004  -17.2380 C   0  0  1  0  0  0  0  0  0  0  0  0
   18.0824  -14.0880  -16.5311 C   0  0  0  0  0  0  0  0  0  0  0  0
   17.3798  -15.3565  -16.2188 C   0  0  0  0  0  0  0  0  0  0  0  0
   18.3396  -16.3801  -15.6088 C   0  0  0  0  0  0  0  0  0  0  0  0
   17.5513  -17.6448  -15.2500 C   0  0  0  0  0  0  0  0  0  0  0  0
   18.4484  -18.6768  -14.7914 N   0  0  0  0  0  0  0  0  0  0  0  0
   17.8640  -11.7769  -17.2916 C   0  0  0  0  0  0  0  0  0  0  0  0
   18.6053  -11.4858  -18.2858 O   0  0  0  0  0  0  0  0  0  0  0  0
   17.8278   -6.0695  -16.6417 N   0  0  0  0  0  0  0  0  0  0  0  0
   18.2351   -7.1007  -15.7244 C   0  0  0  0  0  0  0  0  0  0  0  0
   19.1096   -6.8164  -14.8977 O   0  0  0  0  0  0  0  0  0  0  0  0
   17.5828   -8.4145  -15.8366 C   0  0  0  0  0  0  0  0  0  0  0  0
   18.3830   -9.5125  -16.4331 C   0  0  2  0  0  0  0  0  0  0  0  0
   17.7038  -10.8062  -16.2901 N   0  0  0  0  0  0  0  0  0  0  0  0
   19.7118   -9.6079  -15.7360 C   0  0  0  0  0  0  0  0  0  0  0  0
   19.8604  -10.2249  -14.6659 O   0  0  0  0  0  0  0  0  0  0  0  0
   20.8858   -8.9807  -16.2791 N   0  0  0  0  0  0  0  0  0  0  0  0
   22.1652   -9.0724  -15.5570 C   0  0  1  0  0  0  0  0  0  0  0  0
   23.0909   -9.8338  -16.4537 C   0  0  0  0  0  0  0  0  0  0  0  0
   24.4729   -9.9455  -15.9933 C   0  0  0  0  0  0  0  0  0  0  0  0
   25.4571   -9.2383  -16.6414 C   0  0  0  0  0  0  0  0  0  0  0  0
   26.7961   -9.2738  -16.2665 C   0  0  0  0  0  0  0  0  0  0  0  0
   27.1504  -10.0482  -15.2042 C   0  0  0  0  0  0  0  0  0  0  0  0
   26.1956  -10.7678  -14.5339 C   0  0  0  0  0  0  0  0  0  0  0  0
   24.8740  -10.7190  -14.9213 C   0  0  0  0  0  0  0  0  0  0  0  0
   22.6740   -7.7040  -15.3737 C   0  0  0  0  0  0  0  0  0  0  0  0
   22.4511   -6.8224  -16.2201 O   0  0  0  0  0  0  0  0  0  0  0  0
   23.4058   -7.3931  -14.2495 O   0  0  0  0  0  0  0  0  0  0  0  0
  2  1  1  6
  2  3  1  0
  4  3  1  0
  5  4  1  0
  6  5  1  0
  7  6  1  0
  8  9  2  0
  8  2  1  0
 11 10  1  0
 11 13  1  0
 12 11  2  0
 14 13  1  1
 14 15  1  0
 15  8  1  0
 16 14  1  0
 16 18  1  0
 17 16  2  0
 19 20  1  6
 19 18  1  0
 19 27  1  0
 21 26  2  0
 21 20  1  0
 22 21  1  0
 23 24  1  0
 23 22  2  0
 24 25  2  0
 25 26  1  0
 27 28  2  0
 27 29  1  0
M  END
$$$$
