KNF.pdb
     RDKit          3D

 29 29  0  0  1  0  0  0  0  0999 V2000
   27.6861  -20.2213  -18.7217 N   0  0  0  0  0  0  0  0  0  0  0  0
   27.7682  -19.6430  -17.3652 C   0  0  1  0  0  0  0  0  0  0  0  0
   27.6922  -18.1562  -17.4342 C   0  0  0  0  0  0  0  0  0  0  0  0
   28.7687  -17.5566  -18.2601 C   0  0  0  0  0  0  0  0  0  0  0  0
   30.0875  -17.5000  -17.4864 C   0  0  0  0  0  0  0  0  0  0  0  0
   31.1451  -16.8176  -18.3611 C   0  0  0  0  0  0  0  0  0  0  0  0
   30.7143  -15.4879  -18.7166 N   0  0  0  0  0  0  0  0  0  0  0  0
   26.6343  -20.1952  -16.6033 C   0  0  0  0  0  0  0  0  0  0  0  0
   25.4533  -19.7989  -16.8700 O   0  0  0  0  0  0  0  0  0  0  0  0
   24.5385  -25.0245  -13.7231 N   0  0  0  0  0  0  0  0  0  0  0  0
   24.3311  -23.8100  -14.4665 C   0  0  0  0  0  0  0  0  0  0  0  0
   23.1711  -23.3938  -14.5677 O   0  0  0  0  0  0  0  0  0  0  0  0
   25.5113  -23.1536  -15.0501 C   0  0  0  0  0  0  0  0  0  0  0  0
   25.5949  -21.6784  -14.9140 C   0  0  2  0  0  0  0  0  0  0  0  0
   26.7888  -21.1476  -15.5836 N   0  0  0  0  0  0  0  0  0  0  0  0
   25.6768  -21.3074  -13.4592 C   0  0  0  0  0  0  0  0  0  0  0  0
   26.5660  -21.7469  -12.7082 O   0  0  0  0  0  0  0  0  0  0  0  0
   24.7183  -20.4187  -12.8609 N   0  0  0  0  0  0  0  0  0  0  0  0
   24.4260  -20.5188  -11.4218 C   0  0  1  0  0  0  0  0  0  0  0  0
   25.0967  -19.3432  -10.7822 C   0  0  0  0  0  0  0  0  0  0  0  0
   26.0020  -19.6511   -9.6778 C   0  0  0  0  0  0  0  0  0  0  0  0
   25.4801  -20.0617   -8.4746 C   0  0  0  0  0  0  0  0  0  0  0  0
   26.2643  -20.3873   -7.3729 C   0  0  0  0  0  0  0  0  0  0  0  0
   27.6174  -20.2944   -7.4916 C   0  0  0  0  0  0  0  0  0  0  0  0
   28.1736  -19.8878   -8.6767 C   0  0  0  0  0  0  0  0  0  0  0  0
   27.3788  -19.5698   -9.7566 C   0  0  0  0  0  0  0  0  0  0  0  0
   22.9687  -20.4047  -11.2527 C   0  0  0  0  0  0  0  0  0  0  0  0
   22.2398  -20.0829  -12.2058 O   0  0  0  0  0  0  0  0  0  0  0  0
   22.4025  -20.6589  -10.0236 O   0  0  0  0  0  0  0  0  0  0  0  0
  2  1  1  6
  2  3  1  0
  4  3  1  0
  5  4  1  0
  6  5  1  0
  7  6  1  0
  8  9  2  0
  8  2  1  0
 11 10  1  0
 11 13  1  0
 12 11  2  0
 14 13  1  1
 14 15  1  0
 15  8  1  0
 16 14  1  0
 16 18  1  0
 17 16  2  0
 19 20  1  1
 19 18  1  0
 19 27  1  0
 21 26  2  0
 21 20  1  0
 22 21  1  0
 23 24  1  0
 23 22  2  0
 24 25  2  0
 25 26  1  0
 27 28  2  0
 27 29  1  0
M  END
$$$$
