KNF.pdb
     RDKit          3D

 29 29  0  0  1  0  0  0  0  0999 V2000
   19.7159  -11.9122  -15.7826 N   0  0  0  0  0  0  0  0  0  0  0  0
   20.4060  -10.7694  -16.4142 C   0  0  1  0  0  0  0  0  0  0  0  0
   20.1990  -10.7951  -17.8899 C   0  0  0  0  0  0  0  0  0  0  0  0
   20.0278  -12.1662  -18.4293 C   0  0  0  0  0  0  0  0  0  0  0  0
   21.3796  -12.8629  -18.5976 C   0  0  0  0  0  0  0  0  0  0  0  0
   21.1614  -14.1986  -19.3172 C   0  0  0  0  0  0  0  0  0  0  0  0
   22.4277  -14.8434  -19.5641 N   0  0  0  0  0  0  0  0  0  0  0  0
   19.8297   -9.5499  -15.8210 C   0  0  0  0  0  0  0  0  0  0  0  0
   19.5094   -8.5793  -16.5815 O   0  0  0  0  0  0  0  0  0  0  0  0
   16.5081   -8.9763  -14.5601 N   0  0  0  0  0  0  0  0  0  0  0  0
   16.8015   -8.7598  -13.1681 C   0  0  0  0  0  0  0  0  0  0  0  0
   15.8924   -8.9631  -12.3549 O   0  0  0  0  0  0  0  0  0  0  0  0
   18.1581   -8.3138  -12.8150 C   0  0  0  0  0  0  0  0  0  0  0  0
   19.1121   -8.1152  -13.9341 C   0  0  2  0  0  0  0  0  0  0  0  0
   19.6128   -9.3983  -14.4423 N   0  0  0  0  0  0  0  0  0  0  0  0
   20.2919   -7.3138  -13.4583 C   0  0  0  0  0  0  0  0  0  0  0  0
   21.2269   -7.8220  -12.8139 O   0  0  0  0  0  0  0  0  0  0  0  0
   20.3942   -5.9053  -13.7273 N   0  0  0  0  0  0  0  0  0  0  0  0
   21.6602   -5.2006  -13.4681 C   0  0  1  0  0  0  0  0  0  0  0  0
   22.6755   -5.8324  -14.3686 C   0  0  0  0  0  0  0  0  0  0  0  0
   22.4173   -5.7112  -15.8014 C   0  0  0  0  0  0  0  0  0  0  0  0
   22.7579   -6.7481  -16.6365 C   0  0  0  0  0  0  0  0  0  0  0  0
   22.5392   -6.7263  -18.0100 C   0  0  0  0  0  0  0  0  0  0  0  0
   21.9588   -5.6220  -18.5553 C   0  0  0  0  0  0  0  0  0  0  0  0
   21.6062   -4.5681  -17.7531 C   0  0  0  0  0  0  0  0  0  0  0  0
   21.8314   -4.6095  -16.3941 C   0  0  0  0  0  0  0  0  0  0  0  0
   21.4739   -3.7919  -13.8501 C   0  0  0  0  0  0  0  0  0  0  0  0
   20.4001   -3.4000  -14.3365 O   0  0  0  0  0  0  0  0  0  0  0  0
   22.5010   -2.8934  -13.6658 O   0  0  0  0  0  0  0  0  0  0  0  0
  2  1  1  1
  2  3  1  0
  4  3  1  0
  5  4  1  0
  6  5  1  0
  7  6  1  0
  8  9  2  0
  8  2  1  0
 11 10  1  0
 11 13  1  0
 12 11  2  0
 14 13  1  1
 14 15  1  0
 15  8  1  0
 16 14  1  0
 16 18  1  0
 17 16  2  0
 19 20  1  6
 19 18  1  0
 19 27  1  0
 21 26  2  0
 21 20  1  0
 22 21  1  0
 23 24  1  0
 23 22  2  0
 24 25  2  0
 25 26  1  0
 27 28  2  0
 27 29  1  0
M  END
$$$$
