KNF.pdb
     RDKit          3D

 29 29  0  0  1  0  0  0  0  0999 V2000
   19.2388  -10.8611  -18.9465 N   0  0  0  0  0  0  0  0  0  0  0  0
   18.3439  -10.0165  -18.1297 C   0  0  1  0  0  0  0  0  0  0  0  0
   18.1990  -10.5922  -16.7627 C   0  0  0  0  0  0  0  0  0  0  0  0
   17.3906  -11.8357  -16.7380 C   0  0  0  0  0  0  0  0  0  0  0  0
   17.1507  -12.3063  -15.3021 C   0  0  0  0  0  0  0  0  0  0  0  0
   16.1878  -13.4987  -15.3268 C   0  0  0  0  0  0  0  0  0  0  0  0
   15.9189  -13.9489  -13.9832 N   0  0  0  0  0  0  0  0  0  0  0  0
   18.9599   -8.6790  -18.0772 C   0  0  0  0  0  0  0  0  0  0  0  0
   20.2257   -8.5726  -18.1734 O   0  0  0  0  0  0  0  0  0  0  0  0
   18.8673   -6.1578  -20.8727 N   0  0  0  0  0  0  0  0  0  0  0  0
   17.9945   -5.2314  -20.2013 C   0  0  0  0  0  0  0  0  0  0  0  0
   17.2753   -4.5125  -20.9049 O   0  0  0  0  0  0  0  0  0  0  0  0
   18.0215   -5.2073  -18.7306 C   0  0  0  0  0  0  0  0  0  0  0  0
   18.8924   -6.2034  -18.0588 C   0  0  2  0  0  0  0  0  0  0  0  0
   18.2152   -7.4990  -17.9235 N   0  0  0  0  0  0  0  0  0  0  0  0
   19.2455   -5.7196  -16.6797 C   0  0  0  0  0  0  0  0  0  0  0  0
   18.4476   -5.7805  -15.7271 O   0  0  0  0  0  0  0  0  0  0  0  0
   20.5366   -5.1551  -16.3952 N   0  0  0  0  0  0  0  0  0  0  0  0
   20.8449   -4.6809  -15.0362 C   0  0  1  0  0  0  0  0  0  0  0  0
   22.1733   -5.2743  -14.6840 C   0  0  0  0  0  0  0  0  0  0  0  0
   22.1858   -6.7183  -14.4627 C   0  0  0  0  0  0  0  0  0  0  0  0
   22.7049   -7.5430  -15.4317 C   0  0  0  0  0  0  0  0  0  0  0  0
   22.7691   -8.9266  -15.3033 C   0  0  0  0  0  0  0  0  0  0  0  0
   22.2934   -9.4931  -14.1604 C   0  0  0  0  0  0  0  0  0  0  0  0
   21.7678   -8.7017  -13.1723 C   0  0  0  0  0  0  0  0  0  0  0  0
   21.7135   -7.3325  -13.3190 C   0  0  0  0  0  0  0  0  0  0  0  0
   20.9605   -3.2149  -15.0899 C   0  0  0  0  0  0  0  0  0  0  0  0
   20.8722   -2.6078  -16.1701 O   0  0  0  0  0  0  0  0  0  0  0  0
   21.1678   -2.5040  -13.9290 O   0  0  0  0  0  0  0  0  0  0  0  0
  2  1  1  6
  2  3  1  0
  4  3  1  0
  5  4  1  0
  6  5  1  0
  7  6  1  0
  8  9  2  0
  8  2  1  0
 11 10  1  0
 11 13  1  0
 12 11  2  0
 14 13  1  1
 14 15  1  0
 15  8  1  0
 16 14  1  0
 16 18  1  0
 17 16  2  0
 19 20  1  6
 19 18  1  0
 19 27  1  0
 21 26  2  0
 21 20  1  0
 22 21  1  0
 23 24  1  0
 23 22  2  0
 24 25  2  0
 25 26  1  0
 27 28  2  0
 27 29  1  0
M  END
$$$$
