KNF.pdb
     RDKit          3D

 29 29  0  0  1  0  0  0  0  0999 V2000
   28.6472  -21.7580  -16.0833 N   0  0  0  0  0  0  0  0  0  0  0  0
   27.4028  -20.9767  -15.9342 C   0  0  1  0  0  0  0  0  0  0  0  0
   26.7048  -20.8655  -17.2463 C   0  0  0  0  0  0  0  0  0  0  0  0
   26.5281  -19.4623  -17.6939 C   0  0  0  0  0  0  0  0  0  0  0  0
   25.8735  -19.4050  -19.0757 C   0  0  0  0  0  0  0  0  0  0  0  0
   25.8120  -17.9435  -19.5336 C   0  0  0  0  0  0  0  0  0  0  0  0
   25.1609  -17.8512  -20.8172 N   0  0  0  0  0  0  0  0  0  0  0  0
   26.5708  -21.6940  -14.9522 C   0  0  0  0  0  0  0  0  0  0  0  0
   26.8820  -22.8852  -14.6248 O   0  0  0  0  0  0  0  0  0  0  0  0
   25.2956  -21.3050  -10.0808 N   0  0  0  0  0  0  0  0  0  0  0  0
   26.3843  -20.6112  -10.7166 C   0  0  0  0  0  0  0  0  0  0  0  0
   27.2649  -20.1406   -9.9871 O   0  0  0  0  0  0  0  0  0  0  0  0
   26.3703  -20.5129  -12.1844 C   0  0  0  0  0  0  0  0  0  0  0  0
   25.2766  -21.2215  -12.8942 C   0  0  2  0  0  0  0  0  0  0  0  0
   25.4365  -21.1266  -14.3505 N   0  0  0  0  0  0  0  0  0  0  0  0
   23.9542  -20.6041  -12.5326 C   0  0  0  0  0  0  0  0  0  0  0  0
   23.8675  -19.5495  -11.8782 O   0  0  0  0  0  0  0  0  0  0  0  0
   22.7136  -21.2126  -12.9291 N   0  0  0  0  0  0  0  0  0  0  0  0
   21.4598  -20.4472  -12.8348 C   0  0  1  0  0  0  0  0  0  0  0  0
   21.6562  -19.2285  -13.6817 C   0  0  0  0  0  0  0  0  0  0  0  0
   21.7533  -19.4632  -15.1203 C   0  0  0  0  0  0  0  0  0  0  0  0
   20.6337  -19.3145  -15.9034 C   0  0  0  0  0  0  0  0  0  0  0  0
   20.6343  -19.5052  -17.2812 C   0  0  0  0  0  0  0  0  0  0  0  0
   21.8025  -19.8573  -17.8853 C   0  0  0  0  0  0  0  0  0  0  0  0
   22.9393  -20.0152  -17.1359 C   0  0  0  0  0  0  0  0  0  0  0  0
   22.9177  -19.8214  -15.7717 C   0  0  0  0  0  0  0  0  0  0  0  0
   20.3866  -21.2753  -13.4070 C   0  0  0  0  0  0  0  0  0  0  0  0
   19.2105  -20.8752  -13.4192 O   0  0  0  0  0  0  0  0  0  0  0  0
   20.6868  -22.5098  -13.9380 O   0  0  0  0  0  0  0  0  0  0  0  0
  2  1  1  6
  2  3  1  0
  4  3  1  0
  5  4  1  0
  6  5  1  0
  7  6  1  0
  8  9  2  0
  8  2  1  0
 11 10  1  0
 11 13  1  0
 12 11  2  0
 14 13  1  1
 14 15  1  0
 15  8  1  0
 16 14  1  0
 16 18  1  0
 17 16  2  0
 19 20  1  6
 19 18  1  0
 19 27  1  0
 21 26  2  0
 21 20  1  0
 22 21  1  0
 23 24  1  0
 23 22  2  0
 24 25  2  0
 25 26  1  0
 27 28  2  0
 27 29  1  0
M  END
$$$$
