KNF.pdb
     RDKit          3D

 29 29  0  0  1  0  0  0  0  0999 V2000
   25.1798  -20.6793  -18.3737 N   0  0  0  0  0  0  0  0  0  0  0  0
   24.4461  -21.1751  -17.1917 C   0  0  1  0  0  0  0  0  0  0  0  0
   24.9556  -22.5187  -16.7961 C   0  0  0  0  0  0  0  0  0  0  0  0
   26.1037  -22.9708  -17.6194 C   0  0  0  0  0  0  0  0  0  0  0  0
   27.4260  -22.4544  -17.0487 C   0  0  0  0  0  0  0  0  0  0  0  0
   28.1623  -23.6181  -16.3756 C   0  0  0  0  0  0  0  0  0  0  0  0
   29.5565  -23.2916  -16.2032 N   0  0  0  0  0  0  0  0  0  0  0  0
   24.6639  -20.1902  -16.1177 C   0  0  0  0  0  0  0  0  0  0  0  0
   24.7883  -18.9585  -16.4187 O   0  0  0  0  0  0  0  0  0  0  0  0
   20.9801  -18.6557  -13.2136 N   0  0  0  0  0  0  0  0  0  0  0  0
   21.2986  -20.0585  -13.2536 C   0  0  0  0  0  0  0  0  0  0  0  0
   20.6361  -20.8149  -12.5339 O   0  0  0  0  0  0  0  0  0  0  0  0
   22.3861  -20.4891  -14.1458 C   0  0  0  0  0  0  0  0  0  0  0  0
   23.7509  -20.0042  -13.8231 C   0  0  2  0  0  0  0  0  0  0  0  0
   24.7439  -20.5422  -14.7611 N   0  0  0  0  0  0  0  0  0  0  0  0
   24.1330  -20.4498  -12.4388 C   0  0  0  0  0  0  0  0  0  0  0  0
   23.4610  -20.1548  -11.4342 O   0  0  0  0  0  0  0  0  0  0  0  0
   25.3083  -21.2451  -12.2090 N   0  0  0  0  0  0  0  0  0  0  0  0
   25.8788  -21.3339  -10.8550 C   0  0  1  0  0  0  0  0  0  0  0  0
   26.8269  -20.1821  -10.7309 C   0  0  0  0  0  0  0  0  0  0  0  0
   27.4675  -20.0237   -9.4276 C   0  0  0  0  0  0  0  0  0  0  0  0
   26.8850  -19.2095   -8.4861 C   0  0  0  0  0  0  0  0  0  0  0  0
   27.4162  -19.0083   -7.2164 C   0  0  0  0  0  0  0  0  0  0  0  0
   28.5717  -19.6497   -6.8892 C   0  0  0  0  0  0  0  0  0  0  0  0
   29.1812  -20.4694   -7.8032 C   0  0  0  0  0  0  0  0  0  0  0  0
   28.6386  -20.6555   -9.0562 C   0  0  0  0  0  0  0  0  0  0  0  0
   24.7769  -21.1688   -9.8940 C   0  0  0  0  0  0  0  0  0  0  0  0
   24.4930  -22.0711   -9.0886 O   0  0  0  0  0  0  0  0  0  0  0  0
   24.0499  -19.9994   -9.8838 O   0  0  0  0  0  0  0  0  0  0  0  0
  2  1  1  6
  2  3  1  0
  4  3  1  0
  5  4  1  0
  6  5  1  0
  7  6  1  0
  8  9  2  0
  8  2  1  0
 11 10  1  0
 11 13  1  0
 12 11  2  0
 14 13  1  6
 14 15  1  0
 15  8  1  0
 16 14  1  0
 16 18  1  0
 17 16  2  0
 19 20  1  1
 19 18  1  0
 19 27  1  0
 21 26  2  0
 21 20  1  0
 22 21  1  0
 23 24  1  0
 23 22  2  0
 24 25  2  0
 25 26  1  0
 27 28  2  0
 27 29  1  0
M  END
$$$$
