KNF.pdb
     RDKit          3D

 29 29  0  0  1  0  0  0  0  0999 V2000
   24.0401  -25.9487  -16.0463 N   0  0  0  0  0  0  0  0  0  0  0  0
   24.1210  -24.4904  -16.2655 C   0  0  1  0  0  0  0  0  0  0  0  0
   24.9893  -24.1939  -17.4399 C   0  0  0  0  0  0  0  0  0  0  0  0
   26.4147  -24.5339  -17.2099 C   0  0  0  0  0  0  0  0  0  0  0  0
   26.7103  -25.9752  -17.6298 C   0  0  0  0  0  0  0  0  0  0  0  0
   28.2235  -26.2097  -17.5620 C   0  0  0  0  0  0  0  0  0  0  0  0
   28.5387  -27.5510  -17.9882 N   0  0  0  0  0  0  0  0  0  0  0  0
   22.7429  -24.0226  -16.4957 C   0  0  0  0  0  0  0  0  0  0  0  0
   22.5391  -22.7935  -16.7615 O   0  0  0  0  0  0  0  0  0  0  0  0
   18.0747  -24.2911  -19.6656 N   0  0  0  0  0  0  0  0  0  0  0  0
   18.3245  -24.5274  -18.2683 C   0  0  0  0  0  0  0  0  0  0  0  0
   17.3927  -24.3281  -17.4802 O   0  0  0  0  0  0  0  0  0  0  0  0
   19.6668  -24.9880  -17.8804 C   0  0  0  0  0  0  0  0  0  0  0  0
   20.2939  -24.3209  -16.7126 C   0  0  2  0  0  0  0  0  0  0  0  0
   21.6264  -24.8715  -16.4358 N   0  0  0  0  0  0  0  0  0  0  0  0
   19.4430  -24.5321  -15.4911 C   0  0  0  0  0  0  0  0  0  0  0  0
   19.0032  -25.6508  -15.1702 O   0  0  0  0  0  0  0  0  0  0  0  0
   19.0921  -23.4373  -14.6281 N   0  0  0  0  0  0  0  0  0  0  0  0
   18.3076  -23.6890  -13.4083 C   0  0  1  0  0  0  0  0  0  0  0  0
   19.2696  -23.5688  -12.2676 C   0  0  0  0  0  0  0  0  0  0  0  0
   20.0649  -22.3439  -12.2332 C   0  0  0  0  0  0  0  0  0  0  0  0
   21.3375  -22.3533  -12.7519 C   0  0  0  0  0  0  0  0  0  0  0  0
   22.1621  -21.2332  -12.7732 C   0  0  0  0  0  0  0  0  0  0  0  0
   21.6852  -20.0686  -12.2538 C   0  0  0  0  0  0  0  0  0  0  0  0
   20.4205  -20.0220  -11.7272 C   0  0  0  0  0  0  0  0  0  0  0  0
   19.6192  -21.1431  -11.7158 C   0  0  0  0  0  0  0  0  0  0  0  0
   17.2894  -22.6318  -13.3056 C   0  0  0  0  0  0  0  0  0  0  0  0
   16.4288  -22.6605  -12.4102 O   0  0  0  0  0  0  0  0  0  0  0  0
   17.2887  -21.5949  -14.2116 O   0  0  0  0  0  0  0  0  0  0  0  0
  2  1  1  6
  2  3  1  0
  4  3  1  0
  5  4  1  0
  6  5  1  0
  7  6  1  0
  8  9  2  0
  8  2  1  0
 11 10  1  0
 11 13  1  0
 12 11  2  0
 14 13  1  6
 14 15  1  0
 15  8  1  0
 16 14  1  0
 16 18  1  0
 17 16  2  0
 19 20  1  1
 19 18  1  0
 19 27  1  0
 21 26  2  0
 21 20  1  0
 22 21  1  0
 23 24  1  0
 23 22  2  0
 24 25  2  0
 25 26  1  0
 27 28  2  0
 27 29  1  0
M  END
$$$$
