KNF.pdb
     RDKit          3D

 29 29  0  0  1  0  0  0  0  0999 V2000
   26.2095  -18.9816  -14.7682 N   0  0  0  0  0  0  0  0  0  0  0  0
   26.2797  -17.9634  -15.8358 C   0  0  1  0  0  0  0  0  0  0  0  0
   26.1438  -18.6089  -17.1722 C   0  0  0  0  0  0  0  0  0  0  0  0
   27.2688  -19.5203  -17.4950 C   0  0  0  0  0  0  0  0  0  0  0  0
   28.0615  -19.0091  -18.6997 C   0  0  0  0  0  0  0  0  0  0  0  0
   29.1124  -20.0576  -19.0812 C   0  0  0  0  0  0  0  0  0  0  0  0
   28.4802  -21.3318  -19.3200 N   0  0  0  0  0  0  0  0  0  0  0  0
   25.1753  -17.0195  -15.5902 C   0  0  0  0  0  0  0  0  0  0  0  0
   24.0816  -17.4544  -15.1028 O   0  0  0  0  0  0  0  0  0  0  0  0
   22.0940  -12.8567  -15.2072 N   0  0  0  0  0  0  0  0  0  0  0  0
   23.4499  -12.3764  -15.2471 C   0  0  0  0  0  0  0  0  0  0  0  0
   23.6331  -11.1679  -15.0605 O   0  0  0  0  0  0  0  0  0  0  0  0
   24.5165  -13.3559  -15.5062 C   0  0  0  0  0  0  0  0  0  0  0  0
   24.1137  -14.7819  -15.5850 C   0  0  2  0  0  0  0  0  0  0  0  0
   25.2654  -15.6467  -15.8698 N   0  0  0  0  0  0  0  0  0  0  0  0
   23.1125  -14.9653  -16.6917 C   0  0  0  0  0  0  0  0  0  0  0  0
   23.4407  -14.9827  -17.8916 O   0  0  0  0  0  0  0  0  0  0  0  0
   21.7120  -15.1287  -16.4111 N   0  0  0  0  0  0  0  0  0  0  0  0
   20.7686  -15.3763  -17.5134 C   0  0  1  0  0  0  0  0  0  0  0  0
   19.5791  -16.0433  -16.8959 C   0  0  0  0  0  0  0  0  0  0  0  0
   18.4271  -15.1814  -16.6433 C   0  0  0  0  0  0  0  0  0  0  0  0
   17.4131  -15.1249  -17.5693 C   0  0  0  0  0  0  0  0  0  0  0  0
   16.2741  -14.3428  -17.4083 C   0  0  0  0  0  0  0  0  0  0  0  0
   16.1574  -13.5948  -16.2767 C   0  0  0  0  0  0  0  0  0  0  0  0
   17.1494  -13.6256  -15.3313 C   0  0  0  0  0  0  0  0  0  0  0  0
   18.2702  -14.4074  -15.5098 C   0  0  0  0  0  0  0  0  0  0  0  0
   20.3697  -14.0706  -18.0622 C   0  0  0  0  0  0  0  0  0  0  0  0
   20.6518  -13.0166  -17.4682 O   0  0  0  0  0  0  0  0  0  0  0  0
   19.6759  -14.0129  -19.2501 O   0  0  0  0  0  0  0  0  0  0  0  0
  2  1  1  1
  2  3  1  0
  4  3  1  0
  5  4  1  0
  6  5  1  0
  7  6  1  0
  8  9  2  0
  8  2  1  0
 11 10  1  0
 11 13  1  0
 12 11  2  0
 14 13  1  6
 14 15  1  0
 15  8  1  0
 16 14  1  0
 16 18  1  0
 17 16  2  0
 19 20  1  1
 19 18  1  0
 19 27  1  0
 21 26  2  0
 21 20  1  0
 22 21  1  0
 23 24  1  0
 23 22  2  0
 24 25  2  0
 25 26  1  0
 27 28  2  0
 27 29  1  0
M  END
$$$$
