KTV.pdb
     RDKit          3D

 24 23  0  0  1  0  0  0  0  0999 V2000
   22.6105  -15.8041  -18.2968 N   0  0  0  0  0  0  0  0  0  0  0  0
   21.6068  -14.7288  -18.2834 C   0  0  1  0  0  0  0  0  0  0  0  0
   20.2838  -15.3863  -18.1943 C   0  0  0  0  0  0  0  0  0  0  0  0
   19.9475  -16.2792  -19.3128 C   0  0  0  0  0  0  0  0  0  0  0  0
   18.6629  -16.9758  -19.4128 C   0  0  0  0  0  0  0  0  0  0  0  0
   18.3144  -17.7989  -20.5845 C   0  0  0  0  0  0  0  0  0  0  0  0
   17.0114  -18.4752  -20.2649 N   0  0  0  0  0  0  0  0  0  0  0  0
   21.8866  -13.9453  -17.0102 C   0  0  0  0  0  0  0  0  0  0  0  0
   22.2341  -14.5364  -15.9530 O   0  0  0  0  0  0  0  0  0  0  0  0
   23.9136  -13.4452  -15.4118 C   0  0  0  0  0  0  0  0  0  0  0  0
   23.6099  -11.9759  -15.5761 C   0  0  1  0  0  0  0  0  0  0  0  0
   24.3390  -11.4642  -16.6758 O   0  0  0  0  0  0  0  0  0  0  0  0
   22.1566  -11.7181  -15.8440 C   0  0  2  0  0  0  0  0  0  0  0  0
   21.7584  -12.5667  -17.0111 N   0  0  0  0  0  0  0  0  0  0  0  0
   21.7848  -10.3331  -16.1247 C   0  0  0  0  0  0  0  0  0  0  0  0
   22.0667   -9.8208  -17.2786 O   0  0  0  0  0  0  0  0  0  0  0  0
   18.6689   -8.1946  -14.4647 C   0  0  0  0  0  0  0  0  0  0  0  0
   19.3459   -7.8283  -15.7702 C   0  0  2  0  0  0  0  0  0  0  0  0
   18.7030   -8.6621  -16.8497 C   0  0  0  0  0  0  0  0  0  0  0  0
   20.8092   -8.0779  -15.6051 C   0  0  2  0  0  0  0  0  0  0  0  0
   21.1305   -9.4475  -15.2734 N   0  0  0  0  0  0  0  0  0  0  0  0
   21.3976   -7.2065  -14.5717 C   0  0  0  0  0  0  0  0  0  0  0  0
   21.8669   -7.6847  -13.3658 O   0  0  0  0  0  0  0  0  0  0  0  0
   21.4807   -5.9756  -14.7859 O   0  0  0  0  0  0  0  0  0  0  0  0
  2  1  1  1
  3  2  1  0
  4  3  1  0
  5  6  1  0
  5  4  1  0
  6  7  1  0
  8  2  1  0
  8  9  2  0
 11 10  1  6
 11 13  1  0
 12 11  1  0
 13 14  1  6
 14  8  1  0
 15 13  1  0
 16 15  2  0
 18 17  1  1
 19 18  1  0
 20 21  1  1
 20 18  1  0
 21 15  1  0
 22 20  1  0
 23 22  1  0
 24 22  2  0
M  END
$$$$
