KTV.pdb
     RDKit          3D

 24 23  0  0  1  0  0  0  0  0999 V2000
   25.6232  -22.9445  -12.0984 N   0  0  0  0  0  0  0  0  0  0  0  0
   25.2474  -21.5260  -11.9958 C   0  0  1  0  0  0  0  0  0  0  0  0
   26.1171  -20.9324  -10.9556 C   0  0  0  0  0  0  0  0  0  0  0  0
   25.4403  -20.5638   -9.7037 C   0  0  0  0  0  0  0  0  0  0  0  0
   24.2268  -21.2343   -9.2312 C   0  0  0  0  0  0  0  0  0  0  0  0
   23.4302  -20.7013   -8.1116 C   0  0  0  0  0  0  0  0  0  0  0  0
   22.2538  -21.6206   -7.9426 N   0  0  0  0  0  0  0  0  0  0  0  0
   25.5802  -20.9315  -13.3555 C   0  0  0  0  0  0  0  0  0  0  0  0
   26.7076  -21.1237  -13.8844 O   0  0  0  0  0  0  0  0  0  0  0  0
   24.1032  -21.8289  -16.4038 C   0  0  0  0  0  0  0  0  0  0  0  0
   23.8514  -20.3444  -16.2996 C   0  0  1  0  0  0  0  0  0  0  0  0
   22.5671  -20.1219  -15.7484 O   0  0  0  0  0  0  0  0  0  0  0  0
   24.8449  -19.6561  -15.4112 C   0  0  2  0  0  0  0  0  0  0  0  0
   24.6347  -20.1699  -14.0210 N   0  0  0  0  0  0  0  0  0  0  0  0
   24.7878  -18.1962  -15.3836 C   0  0  0  0  0  0  0  0  0  0  0  0
   24.0334  -17.6061  -14.5142 O   0  0  0  0  0  0  0  0  0  0  0  0
   26.9657  -14.3719  -15.1791 C   0  0  0  0  0  0  0  0  0  0  0  0
   26.6033  -15.1359  -16.4367 C   0  0  2  0  0  0  0  0  0  0  0  0
   26.4971  -14.1258  -17.5514 C   0  0  0  0  0  0  0  0  0  0  0  0
   25.3327  -15.8729  -16.1665 C   0  0  2  0  0  0  0  0  0  0  0  0
   25.4756  -17.3105  -16.2080 N   0  0  0  0  0  0  0  0  0  0  0  0
   24.2692  -15.4910  -17.1133 C   0  0  0  0  0  0  0  0  0  0  0  0
   23.8692  -16.2988  -18.1576 O   0  0  0  0  0  0  0  0  0  0  0  0
   23.6955  -14.3866  -16.9743 O   0  0  0  0  0  0  0  0  0  0  0  0
  2  1  1  6
  3  2  1  0
  4  3  1  0
  5  6  1  0
  5  4  1  0
  6  7  1  0
  8  2  1  0
  8  9  2  0
 11 10  1  1
 11 13  1  0
 12 11  1  0
 13 14  1  1
 14  8  1  0
 15 13  1  0
 16 15  2  0
 18 17  1  1
 19 18  1  0
 20 21  1  6
 20 18  1  0
 21 15  1  0
 22 20  1  0
 23 22  1  0
 24 22  2  0
M  END
$$$$
