KTV.pdb
     RDKit          3D

 24 23  0  0  1  0  0  0  0  0999 V2000
   16.2889  -14.3471  -17.9400 N   0  0  0  0  0  0  0  0  0  0  0  0
   17.3741  -14.4003  -16.9483 C   0  0  1  0  0  0  0  0  0  0  0  0
   18.0864  -15.6787  -17.1691 C   0  0  0  0  0  0  0  0  0  0  0  0
   17.3502  -16.8871  -16.7703 C   0  0  0  0  0  0  0  0  0  0  0  0
   17.1985  -17.2980  -15.3725 C   0  0  0  0  0  0  0  0  0  0  0  0
   16.3485  -18.4381  -14.9856 C   0  0  0  0  0  0  0  0  0  0  0  0
   16.3741  -18.5060  -13.4848 N   0  0  0  0  0  0  0  0  0  0  0  0
   18.2820  -13.2306  -17.2954 C   0  0  0  0  0  0  0  0  0  0  0  0
   19.1811  -13.3501  -18.1700 O   0  0  0  0  0  0  0  0  0  0  0  0
   17.3884  -10.3521  -18.9790 C   0  0  0  0  0  0  0  0  0  0  0  0
   17.9172   -9.8385  -17.6619 C   0  0  1  0  0  0  0  0  0  0  0  0
   16.8416   -9.6609  -16.7595 O   0  0  0  0  0  0  0  0  0  0  0  0
   18.8848  -10.7901  -17.0230 C   0  0  2  0  0  0  0  0  0  0  0  0
   18.1200  -12.0198  -16.6437 N   0  0  0  0  0  0  0  0  0  0  0  0
   19.5947  -10.2989  -15.8440 C   0  0  0  0  0  0  0  0  0  0  0  0
   19.0488  -10.4196  -14.6775 O   0  0  0  0  0  0  0  0  0  0  0  0
   23.6597   -9.1537  -15.6719 C   0  0  0  0  0  0  0  0  0  0  0  0
   22.8972   -9.6245  -14.4498 C   0  0  2  0  0  0  0  0  0  0  0  0
   23.0700  -11.1204  -14.3711 C   0  0  0  0  0  0  0  0  0  0  0  0
   21.4776   -9.1880  -14.6080 C   0  0  2  0  0  0  0  0  0  0  0  0
   20.8460   -9.6908  -15.8068 N   0  0  0  0  0  0  0  0  0  0  0  0
   21.3560   -7.7187  -14.6082 C   0  0  0  0  0  0  0  0  0  0  0  0
   21.5654   -6.9487  -13.4828 O   0  0  0  0  0  0  0  0  0  0  0  0
   21.0493   -7.1316  -15.6708 O   0  0  0  0  0  0  0  0  0  0  0  0
  2  1  1  6
  3  2  1  0
  4  3  1  0
  5  6  1  0
  5  4  1  0
  6  7  1  0
  8  2  1  0
  8  9  2  0
 11 10  1  6
 11 13  1  0
 12 11  1  0
 13 14  1  1
 14  8  1  0
 15 13  1  0
 16 15  2  0
 18 17  1  6
 19 18  1  0
 20 21  1  6
 20 18  1  0
 21 15  1  0
 22 20  1  0
 23 22  1  0
 24 22  2  0
M  END
$$$$
