KTV.pdb
     RDKit          3D

 24 23  0  0  1  0  0  0  0  0999 V2000
   25.5247  -21.4359  -10.9662 N   0  0  0  0  0  0  0  0  0  0  0  0
   25.2469  -21.4059  -12.4105 C   0  0  1  0  0  0  0  0  0  0  0  0
   23.7743  -21.3916  -12.5577 C   0  0  0  0  0  0  0  0  0  0  0  0
   23.2134  -22.4698  -13.3849 C   0  0  0  0  0  0  0  0  0  0  0  0
   24.0481  -23.4559  -14.0748 C   0  0  0  0  0  0  0  0  0  0  0  0
   23.4638  -24.6047  -14.7897 C   0  0  0  0  0  0  0  0  0  0  0  0
   24.1834  -24.7063  -16.1047 N   0  0  0  0  0  0  0  0  0  0  0  0
   25.8326  -20.0892  -12.8965 C   0  0  0  0  0  0  0  0  0  0  0  0
   26.8275  -19.5744  -12.3195 O   0  0  0  0  0  0  0  0  0  0  0  0
   28.0892  -19.0113  -13.7040 C   0  0  0  0  0  0  0  0  0  0  0  0
   27.3208  -18.6037  -14.9375 C   0  0  1  0  0  0  0  0  0  0  0  0
   27.3042  -19.6780  -15.8586 O   0  0  0  0  0  0  0  0  0  0  0  0
   25.8944  -18.2528  -14.6336 C   0  0  2  0  0  0  0  0  0  0  0  0
   25.2671  -19.4474  -13.9852 N   0  0  0  0  0  0  0  0  0  0  0  0
   25.0691  -17.8508  -15.7705 C   0  0  0  0  0  0  0  0  0  0  0  0
   24.4770  -18.7576  -16.4780 O   0  0  0  0  0  0  0  0  0  0  0  0
   23.0978  -13.9362  -17.7218 C   0  0  0  0  0  0  0  0  0  0  0  0
   22.9408  -15.0420  -16.6975 C   0  0  2  0  0  0  0  0  0  0  0  0
   23.3563  -14.4712  -15.3649 C   0  0  0  0  0  0  0  0  0  0  0  0
   23.7762  -16.1955  -17.1473 C   0  0  2  0  0  0  0  0  0  0  0  0
   24.8193  -16.5555  -16.2139 N   0  0  0  0  0  0  0  0  0  0  0  0
   24.4027  -15.9369  -18.4566 C   0  0  0  0  0  0  0  0  0  0  0  0
   25.7627  -15.7713  -18.6176 O   0  0  0  0  0  0  0  0  0  0  0  0
   23.6788  -15.8618  -19.4756 O   0  0  0  0  0  0  0  0  0  0  0  0
  2  1  1  1
  3  2  1  0
  4  3  1  0
  5  6  1  0
  5  4  1  0
  6  7  1  0
  8  2  1  0
  8  9  2  0
 11 10  1  1
 11 13  1  0
 12 11  1  0
 13 14  1  6
 14  8  1  0
 15 13  1  0
 16 15  2  0
 18 17  1  6
 19 18  1  0
 20 21  1  1
 20 18  1  0
 21 15  1  0
 22 20  1  0
 23 22  1  0
 24 22  2  0
M  END
$$$$
