KTV.pdb
     RDKit          3D

 24 23  0  0  1  0  0  0  0  0999 V2000
   23.6580  -21.8321  -11.7347 N   0  0  0  0  0  0  0  0  0  0  0  0
   24.5395  -20.6837  -11.9957 C   0  0  1  0  0  0  0  0  0  0  0  0
   25.7701  -20.9069  -11.2043 C   0  0  0  0  0  0  0  0  0  0  0  0
   25.6590  -20.6081   -9.7691 C   0  0  0  0  0  0  0  0  0  0  0  0
   24.4907  -20.9832   -8.9692 C   0  0  0  0  0  0  0  0  0  0  0  0
   24.3439  -20.5637   -7.5640 C   0  0  0  0  0  0  0  0  0  0  0  0
   22.9664  -20.9793   -7.1311 N   0  0  0  0  0  0  0  0  0  0  0  0
   24.8542  -20.7590  -13.4817 C   0  0  0  0  0  0  0  0  0  0  0  0
   24.7983  -21.8569  -14.0975 O   0  0  0  0  0  0  0  0  0  0  0  0
   23.2167  -21.0979  -15.6142 C   0  0  0  0  0  0  0  0  0  0  0  0
   23.7256  -19.7523  -16.0705 C   0  0  1  0  0  0  0  0  0  0  0  0
   22.9375  -18.7294  -15.4913 O   0  0  0  0  0  0  0  0  0  0  0  0
   25.1475  -19.5084  -15.6597 C   0  0  2  0  0  0  0  0  0  0  0  0
   25.2065  -19.6088  -14.1673 N   0  0  0  0  0  0  0  0  0  0  0  0
   25.7298  -18.2311  -16.0656 C   0  0  0  0  0  0  0  0  0  0  0  0
   25.4536  -17.1634  -15.3895 O   0  0  0  0  0  0  0  0  0  0  0  0
   28.8146  -17.7391  -18.9464 C   0  0  0  0  0  0  0  0  0  0  0  0
   28.6735  -16.8378  -17.7362 C   0  0  2  0  0  0  0  0  0  0  0  0
   29.4921  -17.4537  -16.6296 C   0  0  0  0  0  0  0  0  0  0  0  0
   27.2174  -16.7294  -17.4217 C   0  0  2  0  0  0  0  0  0  0  0  0
   26.5895  -17.9992  -17.1352 N   0  0  0  0  0  0  0  0  0  0  0  0
   26.4698  -16.0857  -18.5172 C   0  0  0  0  0  0  0  0  0  0  0  0
   26.6841  -14.7794  -18.9053 O   0  0  0  0  0  0  0  0  0  0  0  0
   25.5984  -16.7434  -19.1307 O   0  0  0  0  0  0  0  0  0  0  0  0
  2  1  1  1
  3  2  1  0
  4  3  1  0
  5  6  1  0
  5  4  1  0
  6  7  1  0
  8  2  1  0
  8  9  2  0
 11 10  1  1
 11 13  1  0
 12 11  1  0
 13 14  1  1
 14  8  1  0
 15 13  1  0
 16 15  2  0
 18 17  1  6
 19 18  1  0
 20 21  1  6
 20 18  1  0
 21 15  1  0
 22 20  1  0
 23 22  1  0
 24 22  2  0
M  END
$$$$
