KTV.pdb
     RDKit          3D

 24 23  0  0  1  0  0  0  0  0999 V2000
   24.5741  -20.8512   -9.2095 N   0  0  0  0  0  0  0  0  0  0  0  0
   23.8910  -20.8792  -10.5120 C   0  0  1  0  0  0  0  0  0  0  0  0
   22.6977  -20.0132  -10.3824 C   0  0  0  0  0  0  0  0  0  0  0  0
   21.5142  -20.6557   -9.7925 C   0  0  0  0  0  0  0  0  0  0  0  0
   21.1175  -22.0297  -10.1087 C   0  0  0  0  0  0  0  0  0  0  0  0
   19.8825  -22.6258   -9.5689 C   0  0  0  0  0  0  0  0  0  0  0  0
   19.7956  -24.0183  -10.1265 N   0  0  0  0  0  0  0  0  0  0  0  0
   24.8801  -20.2617  -11.4884 C   0  0  0  0  0  0  0  0  0  0  0  0
   25.4509  -19.1700  -11.2234 O   0  0  0  0  0  0  0  0  0  0  0  0
   28.0759  -20.9593  -12.6197 C   0  0  0  0  0  0  0  0  0  0  0  0
   27.2508  -21.0366  -13.8812 C   0  0  1  0  0  0  0  0  0  0  0  0
   26.9177  -22.3867  -14.1442 O   0  0  0  0  0  0  0  0  0  0  0  0
   25.9651  -20.2716  -13.7722 C   0  0  2  0  0  0  0  0  0  0  0  0
   25.1574  -20.9050  -12.6826 N   0  0  0  0  0  0  0  0  0  0  0  0
   25.1470  -20.2031  -14.9810 C   0  0  0  0  0  0  0  0  0  0  0  0
   24.1066  -20.9643  -15.0881 O   0  0  0  0  0  0  0  0  0  0  0  0
   24.3134  -17.3510  -18.5627 C   0  0  0  0  0  0  0  0  0  0  0  0
   23.6932  -18.1740  -17.4515 C   0  0  2  0  0  0  0  0  0  0  0  0
   23.6412  -17.2946  -16.2276 C   0  0  0  0  0  0  0  0  0  0  0  0
   24.5278  -19.4006  -17.2788 C   0  0  2  0  0  0  0  0  0  0  0  0
   25.3460  -19.3828  -16.0876 N   0  0  0  0  0  0  0  0  0  0  0  0
   25.4109  -19.6264  -18.4375 C   0  0  0  0  0  0  0  0  0  0  0  0
   24.9353  -19.9550  -19.6901 O   0  0  0  0  0  0  0  0  0  0  0  0
   26.6498  -19.5183  -18.2912 O   0  0  0  0  0  0  0  0  0  0  0  0
  2  1  1  1
  3  2  1  0
  4  3  1  0
  5  6  1  0
  5  4  1  0
  6  7  1  0
  8  2  1  0
  8  9  2  0
 11 10  1  1
 11 13  1  0
 12 11  1  0
 13 14  1  1
 14  8  1  0
 15 13  1  0
 16 15  2  0
 18 17  1  6
 19 18  1  0
 20 21  1  1
 20 18  1  0
 21 15  1  0
 22 20  1  0
 23 22  1  0
 24 22  2  0
M  END
$$$$
