KTV.pdb
     RDKit          3D

 24 23  0  0  1  0  0  0  0  0999 V2000
   25.7458  -22.5332  -11.0675 N   0  0  0  0  0  0  0  0  0  0  0  0
   25.3533  -21.1235  -11.2178 C   0  0  1  0  0  0  0  0  0  0  0  0
   25.8518  -20.4155  -10.0174 C   0  0  0  0  0  0  0  0  0  0  0  0
   24.9100  -20.3458   -8.8907 C   0  0  0  0  0  0  0  0  0  0  0  0
   23.6728  -21.1284   -8.8418 C   0  0  0  0  0  0  0  0  0  0  0  0
   22.6441  -20.8922   -7.8132 C   0  0  0  0  0  0  0  0  0  0  0  0
   22.9599  -21.8117   -6.6676 N   0  0  0  0  0  0  0  0  0  0  0  0
   26.0938  -20.6386  -12.4545 C   0  0  0  0  0  0  0  0  0  0  0  0
   27.1502  -21.2086  -12.8379 O   0  0  0  0  0  0  0  0  0  0  0  0
   26.2363  -21.7463  -14.9063 C   0  0  0  0  0  0  0  0  0  0  0  0
   25.6096  -20.4676  -15.4065 C   0  0  1  0  0  0  0  0  0  0  0  0
   24.2001  -20.5776  -15.3433 O   0  0  0  0  0  0  0  0  0  0  0  0
   26.0029  -19.2770  -14.5831 C   0  0  2  0  0  0  0  0  0  0  0  0
   25.6032  -19.5585  -13.1682 N   0  0  0  0  0  0  0  0  0  0  0  0
   25.4304  -17.9937  -14.9841 C   0  0  0  0  0  0  0  0  0  0  0  0
   24.2261  -17.6935  -14.6195 O   0  0  0  0  0  0  0  0  0  0  0  0
   27.0903  -15.1466  -17.7453 C   0  0  0  0  0  0  0  0  0  0  0  0
   26.4192  -14.6791  -16.4694 C   0  0  2  0  0  0  0  0  0  0  0  0
   27.5113  -14.4470  -15.4559 C   0  0  0  0  0  0  0  0  0  0  0  0
   25.4347  -15.7278  -16.0671 C   0  0  2  0  0  0  0  0  0  0  0  0
   26.0412  -16.9987  -15.7415 N   0  0  0  0  0  0  0  0  0  0  0  0
   24.4244  -15.9579  -17.1158 C   0  0  0  0  0  0  0  0  0  0  0  0
   23.3811  -15.0879  -17.3559 O   0  0  0  0  0  0  0  0  0  0  0  0
   24.5058  -16.9853  -17.8272 O   0  0  0  0  0  0  0  0  0  0  0  0
  2  1  1  1
  3  2  1  0
  4  3  1  0
  5  6  1  0
  5  4  1  0
  6  7  1  0
  8  2  1  0
  8  9  2  0
 11 10  1  1
 11 13  1  0
 12 11  1  0
 13 14  1  1
 14  8  1  0
 15 13  1  0
 16 15  2  0
 18 17  1  6
 19 18  1  0
 20 21  1  6
 20 18  1  0
 21 15  1  0
 22 20  1  0
 23 22  1  0
 24 22  2  0
M  END
$$$$
