KTV.pdb
     RDKit          3D

 24 23  0  0  1  0  0  0  0  0999 V2000
   15.8694  -13.7830  -17.6560 N   0  0  0  0  0  0  0  0  0  0  0  0
   15.9614  -12.3686  -17.2621 C   0  0  1  0  0  0  0  0  0  0  0  0
   15.4397  -12.2799  -15.8799 C   0  0  0  0  0  0  0  0  0  0  0  0
   13.9765  -12.1988  -15.7629 C   0  0  0  0  0  0  0  0  0  0  0  0
   13.2317  -12.8338  -14.6731 C   0  0  0  0  0  0  0  0  0  0  0  0
   11.7588  -12.8160  -14.6248 C   0  0  0  0  0  0  0  0  0  0  0  0
   11.3608  -13.4892  -13.3419 N   0  0  0  0  0  0  0  0  0  0  0  0
   17.4486  -12.0512  -17.2797 C   0  0  0  0  0  0  0  0  0  0  0  0
   18.3051  -12.9729  -17.2105 O   0  0  0  0  0  0  0  0  0  0  0  0
   19.0293  -10.6778  -20.0636 C   0  0  0  0  0  0  0  0  0  0  0  0
   19.3879   -9.7209  -18.9529 C   0  0  1  0  0  0  0  0  0  0  0  0
   18.4901   -8.6270  -18.9651 O   0  0  0  0  0  0  0  0  0  0  0  0
   19.2990  -10.3575  -17.5976 C   0  0  2  0  0  0  0  0  0  0  0  0
   17.8680  -10.7350  -17.3725 N   0  0  0  0  0  0  0  0  0  0  0  0
   19.7514   -9.5467  -16.4693 C   0  0  0  0  0  0  0  0  0  0  0  0
   18.8774   -8.9597  -15.7177 O   0  0  0  0  0  0  0  0  0  0  0  0
   23.5390   -9.7175  -14.7024 C   0  0  0  0  0  0  0  0  0  0  0  0
   22.3150   -9.2271  -13.9555 C   0  0  2  0  0  0  0  0  0  0  0  0
   21.6621  -10.4370  -13.3358 C   0  0  0  0  0  0  0  0  0  0  0  0
   21.4468   -8.5077  -14.9351 C   0  0  2  0  0  0  0  0  0  0  0  0
   21.0649   -9.3131  -16.0729 N   0  0  0  0  0  0  0  0  0  0  0  0
   22.0928   -7.2817  -15.4382 C   0  0  0  0  0  0  0  0  0  0  0  0
   22.3312   -6.1795  -14.6436 O   0  0  0  0  0  0  0  0  0  0  0  0
   22.4454   -7.2257  -16.6384 O   0  0  0  0  0  0  0  0  0  0  0  0
  2  1  1  1
  3  2  1  0
  4  3  1  0
  5  6  1  0
  5  4  1  0
  6  7  1  0
  8  2  1  0
  8  9  2  0
 11 10  1  6
 11 13  1  0
 12 11  1  0
 13 14  1  1
 14  8  1  0
 15 13  1  0
 16 15  2  0
 18 17  1  6
 19 18  1  0
 20 21  1  6
 20 18  1  0
 21 15  1  0
 22 20  1  0
 23 22  1  0
 24 22  2  0
M  END
$$$$
