KTV.pdb
     RDKit          3D

 24 23  0  0  1  0  0  0  0  0999 V2000
   15.9916  -12.9509  -13.5715 N   0  0  0  0  0  0  0  0  0  0  0  0
   15.2491  -11.6811  -13.5498 C   0  0  1  0  0  0  0  0  0  0  0  0
   13.8714  -12.0042  -13.1162 C   0  0  0  0  0  0  0  0  0  0  0  0
   13.0397  -12.6873  -14.1177 C   0  0  0  0  0  0  0  0  0  0  0  0
   12.8502  -14.1396  -14.1337 C   0  0  0  0  0  0  0  0  0  0  0  0
   11.8523  -14.7836  -15.0064 C   0  0  0  0  0  0  0  0  0  0  0  0
   11.8516  -16.2447  -14.6565 N   0  0  0  0  0  0  0  0  0  0  0  0
   15.9442  -10.8369  -12.4928 C   0  0  0  0  0  0  0  0  0  0  0  0
   16.4570  -11.3733  -11.4744 O   0  0  0  0  0  0  0  0  0  0  0  0
   18.9065   -9.1578  -12.9250 C   0  0  0  0  0  0  0  0  0  0  0  0
   17.9731   -8.0583  -12.4801 C   0  0  1  0  0  0  0  0  0  0  0  0
   17.4754   -7.3748  -13.6150 O   0  0  0  0  0  0  0  0  0  0  0  0
   16.7912   -8.5833  -11.7200 C   0  0  2  0  0  0  0  0  0  0  0  0
   16.0150   -9.4632  -12.6497 N   0  0  0  0  0  0  0  0  0  0  0  0
   15.8859   -7.5836  -11.1577 C   0  0  0  0  0  0  0  0  0  0  0  0
   14.8661   -7.1894  -11.8491 O   0  0  0  0  0  0  0  0  0  0  0  0
   15.9130   -6.1441   -7.1475 C   0  0  0  0  0  0  0  0  0  0  0  0
   14.6500   -6.2165   -7.9819 C   0  0  2  0  0  0  0  0  0  0  0  0
   14.0263   -7.5646   -7.7222 C   0  0  0  0  0  0  0  0  0  0  0  0
   15.0377   -5.9950   -9.4072 C   0  0  2  0  0  0  0  0  0  0  0  0
   15.9771   -6.9706   -9.9115 N   0  0  0  0  0  0  0  0  0  0  0  0
   15.6154   -4.6543   -9.6128 C   0  0  0  0  0  0  0  0  0  0  0  0
   14.8517   -3.5059   -9.6479 O   0  0  0  0  0  0  0  0  0  0  0  0
   16.8532   -4.5393   -9.7636 O   0  0  0  0  0  0  0  0  0  0  0  0
  2  1  1  1
  3  2  1  0
  4  3  1  0
  5  6  1  0
  5  4  1  0
  6  7  1  0
  8  2  1  0
  8  9  2  0
 11 10  1  6
 11 13  1  0
 12 11  1  0
 13 14  1  6
 14  8  1  0
 15 13  1  0
 16 15  2  0
 18 17  1  1
 19 18  1  0
 20 21  1  1
 20 18  1  0
 21 15  1  0
 22 20  1  0
 23 22  1  0
 24 22  2  0
M  END
$$$$
