KTV.pdb
     RDKit          3D

 24 23  0  0  1  0  0  0  0  0999 V2000
   19.8312  -14.0324  -20.2479 N   0  0  0  0  0  0  0  0  0  0  0  0
   19.2006  -12.8662  -19.6104 C   0  0  1  0  0  0  0  0  0  0  0  0
   18.1910  -13.3949  -18.6660 C   0  0  0  0  0  0  0  0  0  0  0  0
   17.0138  -14.0193  -19.2869 C   0  0  0  0  0  0  0  0  0  0  0  0
   15.8806  -14.5241  -18.5081 C   0  0  0  0  0  0  0  0  0  0  0  0
   14.6737  -15.0685  -19.1555 C   0  0  0  0  0  0  0  0  0  0  0  0
   13.7798  -15.5648  -18.0545 N   0  0  0  0  0  0  0  0  0  0  0  0
   20.3226  -12.1816  -18.8452 C   0  0  0  0  0  0  0  0  0  0  0  0
   21.2434  -12.8559  -18.3113 O   0  0  0  0  0  0  0  0  0  0  0  0
   22.8341  -10.1556  -20.0998 C   0  0  0  0  0  0  0  0  0  0  0  0
   22.1715   -9.2708  -19.0721 C   0  0  1  0  0  0  0  0  0  0  0  0
   21.2344   -8.4253  -19.7123 O   0  0  0  0  0  0  0  0  0  0  0  0
   21.4280  -10.0573  -18.0335 C   0  0  2  0  0  0  0  0  0  0  0  0
   20.3337  -10.8017  -18.7329 N   0  0  0  0  0  0  0  0  0  0  0  0
   20.8440   -9.2911  -16.9348 C   0  0  0  0  0  0  0  0  0  0  0  0
   19.6569   -8.7943  -17.0672 O   0  0  0  0  0  0  0  0  0  0  0  0
   22.2078   -9.3758  -12.9997 C   0  0  0  0  0  0  0  0  0  0  0  0
   20.7693   -9.0300  -13.3282 C   0  0  2  0  0  0  0  0  0  0  0  0
   19.9994  -10.3263  -13.3571 C   0  0  0  0  0  0  0  0  0  0  0  0
   20.7674   -8.2972  -14.6297 C   0  0  2  0  0  0  0  0  0  0  0  0
   21.4230   -9.0137  -15.7000 N   0  0  0  0  0  0  0  0  0  0  0  0
   21.4020   -6.9720  -14.5099 C   0  0  0  0  0  0  0  0  0  0  0  0
   22.5638   -6.6341  -15.1726 O   0  0  0  0  0  0  0  0  0  0  0  0
   20.8728   -6.1055  -13.7768 O   0  0  0  0  0  0  0  0  0  0  0  0
  2  1  1  1
  3  2  1  0
  4  3  1  0
  5  6  1  0
  5  4  1  0
  6  7  1  0
  8  2  1  0
  8  9  2  0
 11 10  1  6
 11 13  1  0
 12 11  1  0
 13 14  1  6
 14  8  1  0
 15 13  1  0
 16 15  2  0
 18 17  1  6
 19 18  1  0
 20 21  1  6
 20 18  1  0
 21 15  1  0
 22 20  1  0
 23 22  1  0
 24 22  2  0
M  END
$$$$
