KTV.pdb
     RDKit          3D

 24 23  0  0  1  0  0  0  0  0999 V2000
   29.6055  -22.1565  -17.0747 N   0  0  0  0  0  0  0  0  0  0  0  0
   28.1873  -22.4580  -17.3233 C   0  0  1  0  0  0  0  0  0  0  0  0
   27.8497  -23.6278  -16.4818 C   0  0  0  0  0  0  0  0  0  0  0  0
   27.6703  -24.8943  -17.2063 C   0  0  0  0  0  0  0  0  0  0  0  0
   28.0382  -26.1927  -16.6368 C   0  0  0  0  0  0  0  0  0  0  0  0
   27.7917  -27.4549  -17.3566 C   0  0  0  0  0  0  0  0  0  0  0  0
   28.3303  -28.5581  -16.4903 N   0  0  0  0  0  0  0  0  0  0  0  0
   27.4329  -21.2303  -16.8368 C   0  0  0  0  0  0  0  0  0  0  0  0
   27.8284  -20.5894  -15.8265 O   0  0  0  0  0  0  0  0  0  0  0  0
   27.5425  -18.2405  -18.2532 C   0  0  0  0  0  0  0  0  0  0  0  0
   26.0647  -18.5426  -18.3086 C   0  0  1  0  0  0  0  0  0  0  0  0
   25.7521  -19.1389  -19.5534 O   0  0  0  0  0  0  0  0  0  0  0  0
   25.6349  -19.4976  -17.2346 C   0  0  2  0  0  0  0  0  0  0  0  0
   26.2984  -20.8108  -17.5104 N   0  0  0  0  0  0  0  0  0  0  0  0
   24.1967  -19.7193  -17.1017 C   0  0  0  0  0  0  0  0  0  0  0  0
   23.6297  -20.6484  -17.8008 O   0  0  0  0  0  0  0  0  0  0  0  0
   21.2197  -17.4305  -14.7981 C   0  0  0  0  0  0  0  0  0  0  0  0
   21.2934  -18.9423  -14.8723 C   0  0  2  0  0  0  0  0  0  0  0  0
   22.1055  -19.4031  -13.6882 C   0  0  0  0  0  0  0  0  0  0  0  0
   21.8934  -19.3005  -16.1924 C   0  0  2  0  0  0  0  0  0  0  0  0
   23.3108  -19.0313  -16.2778 N   0  0  0  0  0  0  0  0  0  0  0  0
   21.2261  -18.5973  -17.3031 C   0  0  0  0  0  0  0  0  0  0  0  0
   20.0150  -19.0005  -17.8262 O   0  0  0  0  0  0  0  0  0  0  0  0
   21.7729  -17.5876  -17.8028 O   0  0  0  0  0  0  0  0  0  0  0  0
  2  1  1  1
  3  2  1  0
  4  3  1  0
  5  6  1  0
  5  4  1  0
  6  7  1  0
  8  2  1  0
  8  9  2  0
 11 10  1  6
 11 13  1  0
 12 11  1  0
 13 14  1  6
 14  8  1  0
 15 13  1  0
 16 15  2  0
 18 17  1  6
 19 18  1  0
 20 21  1  1
 20 18  1  0
 21 15  1  0
 22 20  1  0
 23 22  1  0
 24 22  2  0
M  END
$$$$
