KTV.pdb
     RDKit          3D

 24 23  0  0  1  0  0  0  0  0999 V2000
   20.5842  -17.2071  -17.4629 N   0  0  0  0  0  0  0  0  0  0  0  0
   21.6031  -16.4934  -16.6778 C   0  0  1  0  0  0  0  0  0  0  0  0
   22.8659  -17.2486  -16.8379 C   0  0  0  0  0  0  0  0  0  0  0  0
   22.9276  -18.5316  -16.1229 C   0  0  0  0  0  0  0  0  0  0  0  0
   22.0640  -19.6671  -16.4554 C   0  0  0  0  0  0  0  0  0  0  0  0
   22.2500  -20.9920  -15.8374 C   0  0  0  0  0  0  0  0  0  0  0  0
   21.2434  -21.9095  -16.4718 N   0  0  0  0  0  0  0  0  0  0  0  0
   21.7240  -15.1287  -17.3382 C   0  0  0  0  0  0  0  0  0  0  0  0
   21.4272  -14.9720  -18.5527 O   0  0  0  0  0  0  0  0  0  0  0  0
   20.0602  -13.2650  -18.4002 C   0  0  0  0  0  0  0  0  0  0  0  0
   20.6731  -12.3207  -17.3948 C   0  0  1  0  0  0  0  0  0  0  0  0
   19.9704  -12.4158  -16.1700 O   0  0  0  0  0  0  0  0  0  0  0  0
   22.1111  -12.6403  -17.1116 C   0  0  2  0  0  0  0  0  0  0  0  0
   22.1654  -14.0453  -16.5978 N   0  0  0  0  0  0  0  0  0  0  0  0
   22.7939  -11.7675  -16.1591 C   0  0  0  0  0  0  0  0  0  0  0  0
   22.6842  -12.0012  -14.8915 O   0  0  0  0  0  0  0  0  0  0  0  0
   26.3940  -11.0453  -15.7411 C   0  0  0  0  0  0  0  0  0  0  0  0
   25.7373   -9.6796  -15.7588 C   0  0  2  0  0  0  0  0  0  0  0  0
   26.4607   -8.8291  -14.7453 C   0  0  0  0  0  0  0  0  0  0  0  0
   24.2867   -9.8728  -15.4599 C   0  0  2  0  0  0  0  0  0  0  0  0
   23.5907  -10.6639  -16.4491 N   0  0  0  0  0  0  0  0  0  0  0  0
   23.5819   -8.5849  -15.3251 C   0  0  0  0  0  0  0  0  0  0  0  0
   23.4578   -7.9202  -14.1227 O   0  0  0  0  0  0  0  0  0  0  0  0
   23.0685   -8.0607  -16.3399 O   0  0  0  0  0  0  0  0  0  0  0  0
  2  1  1  6
  3  2  1  0
  4  3  1  0
  5  6  1  0
  5  4  1  0
  6  7  1  0
  8  2  1  0
  8  9  2  0
 11 10  1  6
 11 13  1  0
 12 11  1  0
 13 14  1  1
 14  8  1  0
 15 13  1  0
 16 15  2  0
 18 17  1  1
 19 18  1  0
 20 21  1  6
 20 18  1  0
 21 15  1  0
 22 20  1  0
 23 22  1  0
 24 22  2  0
M  END
$$$$
