KTV.pdb
     RDKit          3D

 24 23  0  0  1  0  0  0  0  0999 V2000
   24.0973  -20.5517  -15.0125 N   0  0  0  0  0  0  0  0  0  0  0  0
   23.8668  -20.2292  -13.5959 C   0  0  1  0  0  0  0  0  0  0  0  0
   22.4812  -20.6476  -13.2870 C   0  0  0  0  0  0  0  0  0  0  0  0
   21.8117  -21.4321  -14.3347 C   0  0  0  0  0  0  0  0  0  0  0  0
   21.3698  -22.8136  -14.1305 C   0  0  0  0  0  0  0  0  0  0  0  0
   20.5684  -23.5302  -15.1387 C   0  0  0  0  0  0  0  0  0  0  0  0
   20.2871  -24.8948  -14.5763 N   0  0  0  0  0  0  0  0  0  0  0  0
   24.8559  -21.0938  -12.8296 C   0  0  0  0  0  0  0  0  0  0  0  0
   25.3624  -22.1183  -13.3603 O   0  0  0  0  0  0  0  0  0  0  0  0
   27.5973  -21.3903  -13.0122 C   0  0  0  0  0  0  0  0  0  0  0  0
   27.6130  -20.9403  -11.5716 C   0  0  1  0  0  0  0  0  0  0  0  0
   27.6802  -19.5277  -11.5200 O   0  0  0  0  0  0  0  0  0  0  0  0
   26.3785  -21.3569  -10.8281 C   0  0  2  0  0  0  0  0  0  0  0  0
   25.2047  -20.7527  -11.5338 N   0  0  0  0  0  0  0  0  0  0  0  0
   26.3162  -20.9867   -9.4159 C   0  0  0  0  0  0  0  0  0  0  0  0
   25.2145  -20.5124   -8.9314 O   0  0  0  0  0  0  0  0  0  0  0  0
   28.1095  -20.5504   -4.8438 C   0  0  0  0  0  0  0  0  0  0  0  0
   28.4081  -20.9966   -6.2610 C   0  0  2  0  0  0  0  0  0  0  0  0
   29.6979  -20.3313   -6.6706 C   0  0  0  0  0  0  0  0  0  0  0  0
   27.2379  -20.6189   -7.1089 C   0  0  2  0  0  0  0  0  0  0  0  0
   27.3354  -21.0852   -8.4734 N   0  0  0  0  0  0  0  0  0  0  0  0
   27.0340  -19.1591   -7.1373 C   0  0  0  0  0  0  0  0  0  0  0  0
   26.3143  -18.4835   -6.1737 O   0  0  0  0  0  0  0  0  0  0  0  0
   27.5312  -18.4913   -8.0727 O   0  0  0  0  0  0  0  0  0  0  0  0
  2  1  1  6
  3  2  1  0
  4  3  1  0
  5  6  1  0
  5  4  1  0
  6  7  1  0
  8  2  1  0
  8  9  2  0
 11 10  1  6
 11 13  1  0
 12 11  1  0
 13 14  1  6
 14  8  1  0
 15 13  1  0
 16 15  2  0
 18 17  1  1
 19 18  1  0
 20 21  1  6
 20 18  1  0
 21 15  1  0
 22 20  1  0
 23 22  1  0
 24 22  2  0
M  END
$$$$
