KTV.pdb
     RDKit          3D

 24 23  0  0  1  0  0  0  0  0999 V2000
   19.9225  -12.8523  -16.1538 N   0  0  0  0  0  0  0  0  0  0  0  0
   19.8109  -11.7390  -17.1088 C   0  0  1  0  0  0  0  0  0  0  0  0
   18.5769  -11.9751  -17.8912 C   0  0  0  0  0  0  0  0  0  0  0  0
   18.3819  -13.3552  -18.3588 C   0  0  0  0  0  0  0  0  0  0  0  0
   17.2753  -13.7466  -19.2350 C   0  0  0  0  0  0  0  0  0  0  0  0
   17.1015  -15.1364  -19.6938 C   0  0  0  0  0  0  0  0  0  0  0  0
   18.4329  -15.5850  -20.2263 N   0  0  0  0  0  0  0  0  0  0  0  0
   19.6524  -10.4959  -16.2471 C   0  0  0  0  0  0  0  0  0  0  0  0
   19.2965  -10.5883  -15.0419 O   0  0  0  0  0  0  0  0  0  0  0  0
   20.7219   -9.3576  -14.0324 C   0  0  0  0  0  0  0  0  0  0  0  0
   20.9727   -8.1617  -14.9184 C   0  0  1  0  0  0  0  0  0  0  0  0
   22.2105   -8.3210  -15.5856 O   0  0  0  0  0  0  0  0  0  0  0  0
   19.9157   -7.9965  -15.9699 C   0  0  2  0  0  0  0  0  0  0  0  0
   19.9013   -9.2475  -16.7918 N   0  0  0  0  0  0  0  0  0  0  0  0
   20.0650   -6.8510  -16.8649 C   0  0  0  0  0  0  0  0  0  0  0  0
   20.8333   -6.9499  -17.9009 O   0  0  0  0  0  0  0  0  0  0  0  0
   18.4960   -3.0265  -19.2772 C   0  0  0  0  0  0  0  0  0  0  0  0
   18.3590   -4.3545  -18.5600 C   0  0  2  0  0  0  0  0  0  0  0  0
   17.0739   -4.3004  -17.7730 C   0  0  0  0  0  0  0  0  0  0  0  0
   19.5771   -4.5389  -17.7155 C   0  0  2  0  0  0  0  0  0  0  0  0
   19.4560   -5.6051  -16.7473 N   0  0  0  0  0  0  0  0  0  0  0  0
   19.9321   -3.3033  -16.9940 C   0  0  0  0  0  0  0  0  0  0  0  0
   20.7192   -2.3131  -17.5446 O   0  0  0  0  0  0  0  0  0  0  0  0
   19.5067   -3.1331  -15.8286 O   0  0  0  0  0  0  0  0  0  0  0  0
  2  1  1  1
  3  2  1  0
  4  3  1  0
  5  6  1  0
  5  4  1  0
  6  7  1  0
  8  2  1  0
  8  9  2  0
 11 10  1  6
 11 13  1  0
 12 11  1  0
 13 14  1  6
 14  8  1  0
 15 13  1  0
 16 15  2  0
 18 17  1  1
 19 18  1  0
 20 21  1  1
 20 18  1  0
 21 15  1  0
 22 20  1  0
 23 22  1  0
 24 22  2  0
M  END
$$$$
