FLC.pdb
     RDKit          3D

 26 26  0  0  1  0  0  0  0  0999 V2000
   24.6354  -20.4872   -9.2742 N   0  0  0  0  0  0  0  0  0  0  0  0
   24.8100  -21.0016  -10.6161 C   0  0  1  0  0  0  0  0  0  0  0  0
   23.7207  -20.5319  -11.5403 C   0  0  0  0  0  0  0  0  0  0  0  0
   22.4092  -21.1085  -11.2821 C   0  0  0  0  0  0  0  0  0  0  0  0
   22.0153  -22.1925  -12.0420 C   0  0  0  0  0  0  0  0  0  0  0  0
   20.8072  -22.7966  -11.8713 C   0  0  0  0  0  0  0  0  0  0  0  0
   19.9371  -22.3429  -10.9312 C   0  0  0  0  0  0  0  0  0  0  0  0
   20.2778  -21.2666  -10.1464 C   0  0  0  0  0  0  0  0  0  0  0  0
   21.5038  -20.6734  -10.3380 C   0  0  0  0  0  0  0  0  0  0  0  0
   26.0892  -20.4562  -11.1347 C   0  0  0  0  0  0  0  0  0  0  0  0
   26.3754  -19.2503  -10.9391 O   0  0  0  0  0  0  0  0  0  0  0  0
   29.0433  -20.7966   -9.2951 C   0  0  0  0  0  0  0  0  0  0  0  0
   29.9352  -21.1351  -10.4257 C   0  0  1  0  0  0  0  0  0  0  0  0
   30.9197  -22.2562  -10.0120 C   0  0  0  0  0  0  0  0  0  0  0  0
   29.3535  -21.4804  -11.7297 C   0  0  0  0  0  0  0  0  0  0  0  0
   28.3014  -20.6470  -12.3485 C   0  0  2  0  0  0  0  0  0  0  0  0
   27.0243  -21.2419  -11.8539 N   0  0  0  0  0  0  0  0  0  0  0  0
   28.1889  -20.6223  -13.8004 C   0  0  0  0  0  0  0  0  0  0  0  0
   29.1205  -20.2813  -14.6061 O   0  0  0  0  0  0  0  0  0  0  0  0
   26.9652  -20.9978  -14.4345 N   0  0  0  0  0  0  0  0  0  0  0  0
   26.8699  -21.0027  -15.8929 C   0  0  1  0  0  0  0  0  0  0  0  0
   25.9229  -22.0904  -16.3503 C   0  0  0  0  0  0  0  0  0  0  0  0
   24.3458  -22.0278  -15.5028 S   0  0  0  0  0  0  0  0  0  0  0  0
   26.4532  -19.6671  -16.3309 C   0  0  0  0  0  0  0  0  0  0  0  0
   26.4880  -19.3298  -17.6708 O   0  0  0  0  0  0  0  0  0  0  0  0
   26.0490  -18.7650  -15.5488 O   0  0  0  0  0  0  0  0  0  0  0  0
  2  1  1  1
  3  2  1  0
  4  3  1  0
  5  4  2  0
  6  7  2  0
  6  5  1  0
  7  8  1  0
  8  9  2  0
  9  4  1  0
 10  2  1  0
 10 17  1  0
 11 10  2  0
 13 14  1  1
 13 12  1  0
 15 13  1  0
 16 15  1  6
 16 17  1  0
 18 16  1  0
 19 18  2  0
 20 18  1  0
 21 20  1  0
 21 22  1  1
 23 22  1  0
 24 21  1  0
 24 25  1  0
 26 24  2  0
M  END
$$$$
