FLC.pdb
     RDKit          3D

 26 26  0  0  1  0  0  0  0  0999 V2000
   26.8293  -21.3430  -13.6683 N   0  0  0  0  0  0  0  0  0  0  0  0
   26.0934  -20.4312  -12.8181 C   0  0  1  0  0  0  0  0  0  0  0  0
   24.7333  -20.1195  -13.3788 C   0  0  0  0  0  0  0  0  0  0  0  0
   24.7440  -19.4313  -14.6615 C   0  0  0  0  0  0  0  0  0  0  0  0
   24.1017  -20.0323  -15.7264 C   0  0  0  0  0  0  0  0  0  0  0  0
   24.0598  -19.4630  -16.9624 C   0  0  0  0  0  0  0  0  0  0  0  0
   24.6595  -18.2648  -17.1894 C   0  0  0  0  0  0  0  0  0  0  0  0
   25.3133  -17.6220  -16.1649 C   0  0  0  0  0  0  0  0  0  0  0  0
   25.3417  -18.2174  -14.9253 C   0  0  0  0  0  0  0  0  0  0  0  0
   25.8843  -21.1131  -11.5166 C   0  0  0  0  0  0  0  0  0  0  0  0
   25.7071  -22.3549  -11.4869 O   0  0  0  0  0  0  0  0  0  0  0  0
   28.0382  -19.4975   -6.3499 C   0  0  0  0  0  0  0  0  0  0  0  0
   26.8153  -19.8157   -7.1191 C   0  0  1  0  0  0  0  0  0  0  0  0
   26.1866  -18.5181   -7.6833 C   0  0  0  0  0  0  0  0  0  0  0  0
   26.8752  -20.8135   -8.1956 C   0  0  0  0  0  0  0  0  0  0  0  0
   25.6802  -21.1570   -8.9946 C   0  0  2  0  0  0  0  0  0  0  0  0
   25.8744  -20.4213  -10.2794 N   0  0  0  0  0  0  0  0  0  0  0  0
   24.3688  -20.7554   -8.5044 C   0  0  0  0  0  0  0  0  0  0  0  0
   23.8756  -19.5800   -8.5970 O   0  0  0  0  0  0  0  0  0  0  0  0
   23.5193  -21.7052   -7.8591 N   0  0  0  0  0  0  0  0  0  0  0  0
   22.0954  -21.4188   -7.6954 C   0  0  1  0  0  0  0  0  0  0  0  0
   21.3002  -22.0779   -8.8011 C   0  0  0  0  0  0  0  0  0  0  0  0
   19.5344  -22.0190   -8.5048 S   0  0  0  0  0  0  0  0  0  0  0  0
   21.6872  -21.8649   -6.3599 C   0  0  0  0  0  0  0  0  0  0  0  0
   22.2498  -22.9964   -5.8000 O   0  0  0  0  0  0  0  0  0  0  0  0
   20.8277  -21.2728   -5.6531 O   0  0  0  0  0  0  0  0  0  0  0  0
  2  1  1  6
  3  2  1  0
  4  3  1  0
  5  4  2  0
  6  7  2  0
  6  5  1  0
  7  8  1  0
  8  9  2  0
  9  4  1  0
 10  2  1  0
 10 17  1  0
 11 10  2  0
 13 14  1  6
 13 12  1  0
 15 13  1  0
 16 15  1  1
 16 17  1  0
 18 16  1  0
 19 18  2  0
 20 18  1  0
 21 20  1  0
 21 22  1  6
 23 22  1  0
 24 21  1  0
 24 25  1  0
 26 24  2  0
M  END
$$$$
