FLC.pdb
     RDKit          3D

 26 26  0  0  1  0  0  0  0  0999 V2000
   24.4646  -10.7091  -18.4199 N   0  0  0  0  0  0  0  0  0  0  0  0
   24.1318  -10.3222  -17.0651 C   0  0  1  0  0  0  0  0  0  0  0  0
   25.2636   -9.5888  -16.3999 C   0  0  0  0  0  0  0  0  0  0  0  0
   26.4949  -10.3543  -16.2692 C   0  0  0  0  0  0  0  0  0  0  0  0
   27.6176   -9.8967  -16.9310 C   0  0  0  0  0  0  0  0  0  0  0  0
   28.8121  -10.5467  -16.8668 C   0  0  0  0  0  0  0  0  0  0  0  0
   28.9378  -11.6858  -16.1363 C   0  0  0  0  0  0  0  0  0  0  0  0
   27.8522  -12.1863  -15.4571 C   0  0  0  0  0  0  0  0  0  0  0  0
   26.6563  -11.5115  -15.5377 C   0  0  0  0  0  0  0  0  0  0  0  0
   22.9869   -9.3811  -17.1437 C   0  0  0  0  0  0  0  0  0  0  0  0
   22.8580   -8.6416  -18.1491 O   0  0  0  0  0  0  0  0  0  0  0  0
   17.9432   -7.9070  -17.4545 C   0  0  0  0  0  0  0  0  0  0  0  0
   18.3134   -8.6215  -16.2132 C   0  0  1  0  0  0  0  0  0  0  0  0
   17.2921   -9.7478  -15.9206 C   0  0  0  0  0  0  0  0  0  0  0  0
   19.6688   -9.1692  -16.0687 C   0  0  0  0  0  0  0  0  0  0  0  0
   20.8656   -8.3229  -16.2582 C   0  0  2  0  0  0  0  0  0  0  0  0
   22.0107   -9.2713  -16.1218 N   0  0  0  0  0  0  0  0  0  0  0  0
   21.1254   -7.2513  -15.3065 C   0  0  0  0  0  0  0  0  0  0  0  0
   21.6573   -7.4019  -14.1543 O   0  0  0  0  0  0  0  0  0  0  0  0
   20.7803   -5.9031  -15.6281 N   0  0  0  0  0  0  0  0  0  0  0  0
   21.0449   -4.8327  -14.6687 C   0  0  1  0  0  0  0  0  0  0  0  0
   22.5030   -4.4326  -14.7223 C   0  0  0  0  0  0  0  0  0  0  0  0
   22.8307   -2.9136  -13.8309 S   0  0  0  0  0  0  0  0  0  0  0  0
   20.1397   -3.7176  -14.9626 C   0  0  0  0  0  0  0  0  0  0  0  0
   19.8944   -2.7481  -14.0086 O   0  0  0  0  0  0  0  0  0  0  0  0
   19.5429   -3.5678  -16.0626 O   0  0  0  0  0  0  0  0  0  0  0  0
  2  1  1  6
  3  2  1  0
  4  3  1  0
  5  4  2  0
  6  7  2  0
  6  5  1  0
  7  8  1  0
  8  9  2  0
  9  4  1  0
 10  2  1  0
 10 17  1  0
 11 10  2  0
 13 14  1  6
 13 12  1  0
 15 13  1  0
 16 15  1  1
 16 17  1  0
 18 16  1  0
 19 18  2  0
 20 18  1  0
 21 20  1  0
 21 22  1  6
 23 22  1  0
 24 21  1  0
 24 25  1  0
 26 24  2  0
M  END
$$$$
