FLC.pdb
     RDKit          3D

 26 26  0  0  1  0  0  0  0  0999 V2000
   25.2377  -19.0892  -17.8493 N   0  0  0  0  0  0  0  0  0  0  0  0
   25.1342  -18.7663  -16.4418 C   0  0  1  0  0  0  0  0  0  0  0  0
   23.7050  -18.7597  -15.9741 C   0  0  0  0  0  0  0  0  0  0  0  0
   22.8867  -17.6889  -16.5245 C   0  0  0  0  0  0  0  0  0  0  0  0
   21.8945  -18.0264  -17.4241 C   0  0  0  0  0  0  0  0  0  0  0  0
   21.0810  -17.0927  -17.9898 C   0  0  0  0  0  0  0  0  0  0  0  0
   21.2235  -15.7771  -17.6807 C   0  0  0  0  0  0  0  0  0  0  0  0
   22.1953  -15.3848  -16.7908 C   0  0  0  0  0  0  0  0  0  0  0  0
   23.0046  -16.3467  -16.2327 C   0  0  0  0  0  0  0  0  0  0  0  0
   25.8353  -19.8374  -15.6908 C   0  0  0  0  0  0  0  0  0  0  0  0
   25.8151  -21.0151  -16.1232 O   0  0  0  0  0  0  0  0  0  0  0  0
   30.1422  -21.9406  -13.2372 C   0  0  0  0  0  0  0  0  0  0  0  0
   29.4655  -20.8522  -12.4984 C   0  0  1  0  0  0  0  0  0  0  0  0
   30.5129  -19.8813  -11.9003 C   0  0  0  0  0  0  0  0  0  0  0  0
   28.4223  -20.0623  -13.1660 C   0  0  0  0  0  0  0  0  0  0  0  0
   27.2384  -20.7065  -13.7725 C   0  0  2  0  0  0  0  0  0  0  0  0
   26.5415  -19.5952  -14.4859 N   0  0  0  0  0  0  0  0  0  0  0  0
   26.2380  -21.3022  -12.8975 C   0  0  0  0  0  0  0  0  0  0  0  0
   26.2649  -22.5015  -12.4566 O   0  0  0  0  0  0  0  0  0  0  0  0
   25.1134  -20.5363  -12.4630 N   0  0  0  0  0  0  0  0  0  0  0  0
   24.1384  -21.1254  -11.5472 C   0  0  1  0  0  0  0  0  0  0  0  0
   24.3327  -20.5728  -10.1522 C   0  0  0  0  0  0  0  0  0  0  0  0
   23.0882  -21.1570   -9.0036 S   0  0  0  0  0  0  0  0  0  0  0  0
   22.7959  -20.8682  -12.0772 C   0  0  0  0  0  0  0  0  0  0  0  0
   21.6964  -21.5014  -11.5292 O   0  0  0  0  0  0  0  0  0  0  0  0
   22.5561  -20.0822  -13.0329 O   0  0  0  0  0  0  0  0  0  0  0  0
  2  1  1  6
  3  2  1  0
  4  3  1  0
  5  4  2  0
  6  7  2  0
  6  5  1  0
  7  8  1  0
  8  9  2  0
  9  4  1  0
 10  2  1  0
 10 17  1  0
 11 10  2  0
 13 14  1  6
 13 12  1  0
 15 13  1  0
 16 15  1  1
 16 17  1  0
 18 16  1  0
 19 18  2  0
 20 18  1  0
 21 20  1  0
 21 22  1  1
 23 22  1  0
 24 21  1  0
 24 25  1  0
 26 24  2  0
M  END
$$$$
