FLC.pdb
     RDKit          3D

 26 26  0  0  1  0  0  0  0  0999 V2000
   19.1912  -13.5069  -16.0328 N   0  0  0  0  0  0  0  0  0  0  0  0
   19.6697  -12.5146  -16.9720 C   0  0  1  0  0  0  0  0  0  0  0  0
   18.5903  -12.0817  -17.9252 C   0  0  0  0  0  0  0  0  0  0  0  0
   18.1497  -13.1094  -18.8574 C   0  0  0  0  0  0  0  0  0  0  0  0
   19.0678  -13.5992  -19.7656 C   0  0  0  0  0  0  0  0  0  0  0  0
   18.7461  -14.5604  -20.6746 C   0  0  0  0  0  0  0  0  0  0  0  0
   17.4894  -15.0759  -20.7161 C   0  0  0  0  0  0  0  0  0  0  0  0
   16.5354  -14.6248  -19.8349 C   0  0  0  0  0  0  0  0  0  0  0  0
   16.8848  -13.6532  -18.9261 C   0  0  0  0  0  0  0  0  0  0  0  0
   20.0656  -11.3189  -16.1870 C   0  0  0  0  0  0  0  0  0  0  0  0
   19.3825  -10.9742  -15.1925 O   0  0  0  0  0  0  0  0  0  0  0  0
   25.2743  -10.3583  -15.0069 C   0  0  0  0  0  0  0  0  0  0  0  0
   23.7984  -10.3351  -14.9084 C   0  0  1  0  0  0  0  0  0  0  0  0
   23.3635  -10.2580  -13.4245 C   0  0  0  0  0  0  0  0  0  0  0  0
   23.0366   -9.3379  -15.6721 C   0  0  0  0  0  0  0  0  0  0  0  0
   21.5587   -9.3394  -15.6810 C   0  0  2  0  0  0  0  0  0  0  0  0
   21.1982  -10.5293  -16.5078 N   0  0  0  0  0  0  0  0  0  0  0  0
   20.8592   -8.2133  -16.2842 C   0  0  0  0  0  0  0  0  0  0  0  0
   20.9081   -7.8918  -17.5202 O   0  0  0  0  0  0  0  0  0  0  0  0
   20.0378   -7.3627  -15.4829 N   0  0  0  0  0  0  0  0  0  0  0  0
   19.3497   -6.2264  -16.0924 C   0  0  1  0  0  0  0  0  0  0  0  0
   17.8561   -6.4675  -16.1070 C   0  0  0  0  0  0  0  0  0  0  0  0
   17.3555   -7.7402  -14.9499 S   0  0  0  0  0  0  0  0  0  0  0  0
   19.7213   -5.0147  -15.3556 C   0  0  0  0  0  0  0  0  0  0  0  0
   19.2276   -3.7834  -15.7434 O   0  0  0  0  0  0  0  0  0  0  0  0
   20.4876   -5.0077  -14.3549 O   0  0  0  0  0  0  0  0  0  0  0  0
  2  1  1  1
  3  2  1  0
  4  3  1  0
  5  4  2  0
  6  7  2  0
  6  5  1  0
  7  8  1  0
  8  9  2  0
  9  4  1  0
 10  2  1  0
 10 17  1  0
 11 10  2  0
 13 14  1  1
 13 12  1  0
 15 13  1  0
 16 15  1  6
 16 17  1  0
 18 16  1  0
 19 18  2  0
 20 18  1  0
 21 20  1  0
 21 22  1  1
 23 22  1  0
 24 21  1  0
 24 25  1  0
 26 24  2  0
M  END
$$$$
