FLC.pdb
     RDKit          3D

 26 26  0  0  1  0  0  0  0  0999 V2000
   25.0052  -18.1050  -21.1052 N   0  0  0  0  0  0  0  0  0  0  0  0
   24.1458  -17.3157  -20.2483 C   0  0  1  0  0  0  0  0  0  0  0  0
   22.7054  -17.4000  -20.6719 C   0  0  0  0  0  0  0  0  0  0  0  0
   22.3844  -16.6774  -21.8941 C   0  0  0  0  0  0  0  0  0  0  0  0
   21.1269  -16.8492  -22.4390 C   0  0  0  0  0  0  0  0  0  0  0  0
   20.7382  -16.2147  -23.5792 C   0  0  0  0  0  0  0  0  0  0  0  0
   21.5913  -15.3783  -24.2268 C   0  0  0  0  0  0  0  0  0  0  0  0
   22.8557  -15.1705  -23.7285 C   0  0  0  0  0  0  0  0  0  0  0  0
   23.2248  -15.8229  -22.5753 C   0  0  0  0  0  0  0  0  0  0  0  0
   24.2349  -17.8915  -18.8833 C   0  0  0  0  0  0  0  0  0  0  0  0
   24.7162  -19.0391  -18.7230 O   0  0  0  0  0  0  0  0  0  0  0  0
   26.3640  -14.6528  -15.3806 C   0  0  0  0  0  0  0  0  0  0  0  0
   25.9419  -15.9190  -16.0184 C   0  0  1  0  0  0  0  0  0  0  0  0
   27.0486  -16.9905  -15.8619 C   0  0  0  0  0  0  0  0  0  0  0  0
   24.6527  -16.5205  -15.6525 C   0  0  0  0  0  0  0  0  0  0  0  0
   24.1268  -17.7057  -16.3618 C   0  0  2  0  0  0  0  0  0  0  0  0
   23.7960  -17.1991  -17.7269 N   0  0  0  0  0  0  0  0  0  0  0  0
   22.9096  -18.3358  -15.8692 C   0  0  0  0  0  0  0  0  0  0  0  0
   22.7640  -18.8505  -14.7085 O   0  0  0  0  0  0  0  0  0  0  0  0
   21.7523  -18.4165  -16.7025 N   0  0  0  0  0  0  0  0  0  0  0  0
   20.5294  -19.0363  -16.1960 C   0  0  1  0  0  0  0  0  0  0  0  0
   20.0184  -18.2750  -14.9924 C   0  0  0  0  0  0  0  0  0  0  0  0
   18.3918  -18.8199  -14.4762 S   0  0  0  0  0  0  0  0  0  0  0  0
   19.5541  -19.0896  -17.2892 C   0  0  0  0  0  0  0  0  0  0  0  0
   19.4309  -18.0288  -18.1665 O   0  0  0  0  0  0  0  0  0  0  0  0
   18.7875  -20.0676  -17.5004 O   0  0  0  0  0  0  0  0  0  0  0  0
  2  1  1  6
  3  2  1  0
  4  3  1  0
  5  4  2  0
  6  7  2  0
  6  5  1  0
  7  8  1  0
  8  9  2  0
  9  4  1  0
 10  2  1  0
 10 17  1  0
 11 10  2  0
 13 14  1  1
 13 12  1  0
 15 13  1  0
 16 15  1  1
 16 17  1  0
 18 16  1  0
 19 18  2  0
 20 18  1  0
 21 20  1  0
 21 22  1  1
 23 22  1  0
 24 21  1  0
 24 25  1  0
 26 24  2  0
M  END
$$$$
