FLC.pdb
     RDKit          3D

 26 26  0  0  1  0  0  0  0  0999 V2000
   27.8158  -31.2732  -16.6783 N   0  0  0  0  0  0  0  0  0  0  0  0
   26.7756  -30.4245  -17.2203 C   0  0  1  0  0  0  0  0  0  0  0  0
   25.4198  -30.7903  -16.6827 C   0  0  0  0  0  0  0  0  0  0  0  0
   24.8867  -32.0520  -17.1759 C   0  0  0  0  0  0  0  0  0  0  0  0
   24.3429  -32.0754  -18.4453 C   0  0  0  0  0  0  0  0  0  0  0  0
   23.8212  -33.2091  -18.9895 C   0  0  0  0  0  0  0  0  0  0  0  0
   23.8199  -34.3725  -18.2872 C   0  0  0  0  0  0  0  0  0  0  0  0
   24.3486  -34.4064  -17.0185 C   0  0  0  0  0  0  0  0  0  0  0  0
   24.8698  -33.2481  -16.4908 C   0  0  0  0  0  0  0  0  0  0  0  0
   27.0624  -29.0374  -16.7769 C   0  0  0  0  0  0  0  0  0  0  0  0
   27.7824  -28.8438  -15.7677 O   0  0  0  0  0  0  0  0  0  0  0  0
   30.4046  -26.0534  -18.7990 C   0  0  0  0  0  0  0  0  0  0  0  0
   29.3941  -26.5083  -17.8190 C   0  0  1  0  0  0  0  0  0  0  0  0
   29.8335  -26.1288  -16.3837 C   0  0  0  0  0  0  0  0  0  0  0  0
   27.9878  -26.1223  -17.9957 C   0  0  0  0  0  0  0  0  0  0  0  0
   26.9514  -26.5210  -17.0204 C   0  0  2  0  0  0  0  0  0  0  0  0
   26.5557  -27.8960  -17.4474 N   0  0  0  0  0  0  0  0  0  0  0  0
   25.7139  -25.7555  -16.9588 C   0  0  0  0  0  0  0  0  0  0  0  0
   24.8580  -25.6610  -17.9031 O   0  0  0  0  0  0  0  0  0  0  0  0
   25.3735  -25.0307  -15.7759 N   0  0  0  0  0  0  0  0  0  0  0  0
   24.0991  -24.3193  -15.6966 C   0  0  1  0  0  0  0  0  0  0  0  0
   23.7870  -23.9667  -14.2587 C   0  0  0  0  0  0  0  0  0  0  0  0
   23.8048  -25.3984  -13.1821 S   0  0  0  0  0  0  0  0  0  0  0  0
   24.1754  -23.1411  -16.5657 C   0  0  0  0  0  0  0  0  0  0  0  0
   25.3937  -22.7190  -17.0634 O   0  0  0  0  0  0  0  0  0  0  0  0
   23.1754  -22.4547  -16.9086 O   0  0  0  0  0  0  0  0  0  0  0  0
  2  1  1  1
  3  2  1  0
  4  3  1  0
  5  4  2  0
  6  7  2  0
  6  5  1  0
  7  8  1  0
  8  9  2  0
  9  4  1  0
 10  2  1  0
 10 17  1  0
 11 10  2  0
 13 14  1  1
 13 12  1  0
 15 13  1  0
 16 15  1  6
 16 17  1  0
 18 16  1  0
 19 18  2  0
 20 18  1  0
 21 20  1  0
 21 22  1  1
 23 22  1  0
 24 21  1  0
 24 25  1  0
 26 24  2  0
M  END
$$$$
