FLC.pdb
     RDKit          3D

 26 26  0  0  1  0  0  0  0  0999 V2000
   27.4989  -25.0683  -16.4542 N   0  0  0  0  0  0  0  0  0  0  0  0
   26.2846  -24.2800  -16.4551 C   0  0  1  0  0  0  0  0  0  0  0  0
   25.0793  -25.1108  -16.1110 C   0  0  0  0  0  0  0  0  0  0  0  0
   24.6512  -26.0291  -17.1563 C   0  0  0  0  0  0  0  0  0  0  0  0
   23.9276  -25.5161  -18.2150 C   0  0  0  0  0  0  0  0  0  0  0  0
   23.4856  -26.2988  -19.2376 C   0  0  0  0  0  0  0  0  0  0  0  0
   23.7479  -27.6321  -19.2473 C   0  0  0  0  0  0  0  0  0  0  0  0
   24.4644  -28.1959  -18.2181 C   0  0  0  0  0  0  0  0  0  0  0  0
   24.9000  -27.3844  -17.1967 C   0  0  0  0  0  0  0  0  0  0  0  0
   26.4251  -23.2523  -15.3935 C   0  0  0  0  0  0  0  0  0  0  0  0
   27.1393  -23.4894  -14.3895 O   0  0  0  0  0  0  0  0  0  0  0  0
   27.1503  -18.0086  -16.6751 C   0  0  0  0  0  0  0  0  0  0  0  0
   27.1870  -19.2831  -15.9249 C   0  0  1  0  0  0  0  0  0  0  0  0
   28.4515  -19.3416  -15.0333 C   0  0  0  0  0  0  0  0  0  0  0  0
   26.0263  -19.6832  -15.1183 C   0  0  0  0  0  0  0  0  0  0  0  0
   26.0014  -20.9685  -14.3892 C   0  0  2  0  0  0  0  0  0  0  0  0
   25.7820  -21.9906  -15.4553 N   0  0  0  0  0  0  0  0  0  0  0  0
   24.9540  -21.1960  -13.4030 C   0  0  0  0  0  0  0  0  0  0  0  0
   23.8173  -21.7279  -13.6446 O   0  0  0  0  0  0  0  0  0  0  0  0
   25.1527  -20.8157  -12.0406 N   0  0  0  0  0  0  0  0  0  0  0  0
   24.0481  -20.9083  -11.0880 C   0  0  1  0  0  0  0  0  0  0  0  0
   24.5631  -20.7469   -9.6745 C   0  0  0  0  0  0  0  0  0  0  0  0
   26.2784  -21.2366   -9.5095 S   0  0  0  0  0  0  0  0  0  0  0  0
   23.0468  -19.8988  -11.4454 C   0  0  0  0  0  0  0  0  0  0  0  0
   21.8234  -19.8717  -10.8031 O   0  0  0  0  0  0  0  0  0  0  0  0
   23.2217  -19.0173  -12.3292 O   0  0  0  0  0  0  0  0  0  0  0  0
  2  1  1  1
  3  2  1  0
  4  3  1  0
  5  4  2  0
  6  7  2  0
  6  5  1  0
  7  8  1  0
  8  9  2  0
  9  4  1  0
 10  2  1  0
 10 17  1  0
 11 10  2  0
 13 14  1  1
 13 12  1  0
 15 13  1  0
 16 15  1  6
 16 17  1  0
 18 16  1  0
 19 18  2  0
 20 18  1  0
 21 20  1  0
 21 22  1  1
 23 22  1  0
 24 21  1  0
 24 25  1  0
 26 24  2  0
M  END
$$$$
