FLC.pdb
     RDKit          3D

 26 26  0  0  1  0  0  0  0  0999 V2000
   23.3553  -18.7236  -18.6904 N   0  0  0  0  0  0  0  0  0  0  0  0
   23.3569  -18.2812  -17.3120 C   0  0  1  0  0  0  0  0  0  0  0  0
   21.9623  -18.0589  -16.7953 C   0  0  0  0  0  0  0  0  0  0  0  0
   21.2847  -16.8943  -17.3465 C   0  0  0  0  0  0  0  0  0  0  0  0
   21.0756  -15.8109  -16.5157 C   0  0  0  0  0  0  0  0  0  0  0  0
   20.4510  -14.6794  -16.9436 C   0  0  0  0  0  0  0  0  0  0  0  0
   20.0065  -14.5804  -18.2240 C   0  0  0  0  0  0  0  0  0  0  0  0
   20.1882  -15.6291  -19.0943 C   0  0  0  0  0  0  0  0  0  0  0  0
   20.8220  -16.7615  -18.6383 C   0  0  0  0  0  0  0  0  0  0  0  0
   23.9560  -19.3696  -16.5000 C   0  0  0  0  0  0  0  0  0  0  0  0
   23.8793  -20.5568  -16.8987 O   0  0  0  0  0  0  0  0  0  0  0  0
   28.2714  -21.4392  -14.4214 C   0  0  0  0  0  0  0  0  0  0  0  0
   27.6552  -20.4412  -13.5199 C   0  0  1  0  0  0  0  0  0  0  0  0
   28.7406  -19.4976  -12.9465 C   0  0  0  0  0  0  0  0  0  0  0  0
   26.5322  -19.6255  -14.0011 C   0  0  0  0  0  0  0  0  0  0  0  0
   25.3084  -20.2469  -14.5494 C   0  0  2  0  0  0  0  0  0  0  0  0
   24.6245  -19.1339  -15.2725 N   0  0  0  0  0  0  0  0  0  0  0  0
   24.3191  -20.7836  -13.6249 C   0  0  0  0  0  0  0  0  0  0  0  0
   24.5119  -21.7615  -12.8251 O   0  0  0  0  0  0  0  0  0  0  0  0
   23.0105  -20.2146  -13.5604 N   0  0  0  0  0  0  0  0  0  0  0  0
   22.0126  -20.7790  -12.6538 C   0  0  1  0  0  0  0  0  0  0  0  0
   21.9722  -19.9879  -11.3647 C   0  0  0  0  0  0  0  0  0  0  0  0
   20.4476  -19.0670  -11.1726 S   0  0  0  0  0  0  0  0  0  0  0  0
   20.7210  -20.7998  -13.3471 C   0  0  0  0  0  0  0  0  0  0  0  0
   20.5588  -20.1218  -14.5405 O   0  0  0  0  0  0  0  0  0  0  0  0
   19.7050  -21.4130  -12.9224 O   0  0  0  0  0  0  0  0  0  0  0  0
  2  1  1  6
  3  2  1  0
  4  3  1  0
  5  4  2  0
  6  7  2  0
  6  5  1  0
  7  8  1  0
  8  9  2  0
  9  4  1  0
 10  2  1  0
 10 17  1  0
 11 10  2  0
 13 14  1  6
 13 12  1  0
 15 13  1  0
 16 15  1  1
 16 17  1  0
 18 16  1  0
 19 18  2  0
 20 18  1  0
 21 20  1  0
 21 22  1  1
 23 22  1  0
 24 21  1  0
 24 25  1  0
 26 24  2  0
M  END
$$$$
