FLC.pdb
     RDKit          3D

 26 26  0  0  1  0  0  0  0  0999 V2000
   28.0616  -20.9134  -18.0508 N   0  0  0  0  0  0  0  0  0  0  0  0
   27.4938  -19.9604  -17.1206 C   0  0  1  0  0  0  0  0  0  0  0  0
   26.1286  -19.5025  -17.5541 C   0  0  0  0  0  0  0  0  0  0  0  0
   26.1246  -18.5453  -18.6508 C   0  0  0  0  0  0  0  0  0  0  0  0
   25.8797  -17.2187  -18.3542 C   0  0  0  0  0  0  0  0  0  0  0  0
   25.8565  -16.2537  -19.3143 C   0  0  0  0  0  0  0  0  0  0  0  0
   26.0776  -16.5726  -20.6166 C   0  0  0  0  0  0  0  0  0  0  0  0
   26.3266  -17.8782  -20.9685 C   0  0  0  0  0  0  0  0  0  0  0  0
   26.3448  -18.8348  -19.9805 C   0  0  0  0  0  0  0  0  0  0  0  0
   27.3291  -20.6573  -15.8205 C   0  0  0  0  0  0  0  0  0  0  0  0
   26.7793  -21.7846  -15.7849 O   0  0  0  0  0  0  0  0  0  0  0  0
   30.5731  -21.0741  -10.7314 C   0  0  0  0  0  0  0  0  0  0  0  0
   29.2578  -21.3125  -11.3651 C   0  0  1  0  0  0  0  0  0  0  0  0
   28.1214  -21.0859  -10.3382 C   0  0  0  0  0  0  0  0  0  0  0  0
   28.9135  -20.6085  -12.6075 C   0  0  0  0  0  0  0  0  0  0  0  0
   27.6468  -20.8781  -13.3197 C   0  0  2  0  0  0  0  0  0  0  0  0
   27.7696  -20.1054  -14.5915 N   0  0  0  0  0  0  0  0  0  0  0  0
   26.3951  -20.4447  -12.7141 C   0  0  0  0  0  0  0  0  0  0  0  0
   26.0982  -19.2371  -12.4195 O   0  0  0  0  0  0  0  0  0  0  0  0
   25.3788  -21.3981  -12.4004 N   0  0  0  0  0  0  0  0  0  0  0  0
   24.1150  -20.9530  -11.8164 C   0  0  1  0  0  0  0  0  0  0  0  0
   22.9687  -21.7734  -12.3660 C   0  0  0  0  0  0  0  0  0  0  0  0
   22.8051  -21.6192  -14.1432 S   0  0  0  0  0  0  0  0  0  0  0  0
   24.2266  -21.0406  -10.3573 C   0  0  0  0  0  0  0  0  0  0  0  0
   23.3536  -20.3389   -9.5475 O   0  0  0  0  0  0  0  0  0  0  0  0
   25.0922  -21.7343   -9.7588 O   0  0  0  0  0  0  0  0  0  0  0  0
  2  1  1  6
  3  2  1  0
  4  3  1  0
  5  4  2  0
  6  7  2  0
  6  5  1  0
  7  8  1  0
  8  9  2  0
  9  4  1  0
 10  2  1  0
 10 17  1  0
 11 10  2  0
 13 14  1  1
 13 12  1  0
 15 13  1  0
 16 15  1  1
 16 17  1  0
 18 16  1  0
 19 18  2  0
 20 18  1  0
 21 20  1  0
 21 22  1  6
 23 22  1  0
 24 21  1  0
 24 25  1  0
 26 24  2  0
M  END
$$$$
