FLC.pdb
     RDKit          3D

 26 26  0  0  1  0  0  0  0  0999 V2000
   23.1236   -9.1203  -17.3964 N   0  0  0  0  0  0  0  0  0  0  0  0
   22.7198   -9.4598  -16.0482 C   0  0  1  0  0  0  0  0  0  0  0  0
   23.8402   -9.2658  -15.0642 C   0  0  0  0  0  0  0  0  0  0  0  0
   25.0272  -10.0677  -15.3235 C   0  0  0  0  0  0  0  0  0  0  0  0
   24.9724  -11.4188  -15.0421 C   0  0  0  0  0  0  0  0  0  0  0  0
   26.0328  -12.2464  -15.2523 C   0  0  0  0  0  0  0  0  0  0  0  0
   27.1978  -11.7590  -15.7542 C   0  0  0  0  0  0  0  0  0  0  0  0
   27.3079  -10.4214  -16.0523 C   0  0  0  0  0  0  0  0  0  0  0  0
   26.2227   -9.6057  -15.8312 C   0  0  0  0  0  0  0  0  0  0  0  0
   21.6334   -8.5242  -15.6643 C   0  0  0  0  0  0  0  0  0  0  0  0
   21.4470   -7.4797  -16.3342 O   0  0  0  0  0  0  0  0  0  0  0  0
   16.9854   -6.5855  -15.6052 C   0  0  0  0  0  0  0  0  0  0  0  0
   17.1425   -7.9404  -15.0324 C   0  0  1  0  0  0  0  0  0  0  0  0
   16.1814   -8.9312  -15.7337 C   0  0  0  0  0  0  0  0  0  0  0  0
   18.4776   -8.5495  -14.9674 C   0  0  0  0  0  0  0  0  0  0  0  0
   19.6054   -7.8638  -14.3024 C   0  0  2  0  0  0  0  0  0  0  0  0
   20.7773   -8.7530  -14.5580 N   0  0  0  0  0  0  0  0  0  0  0  0
   19.5600   -7.6761  -12.8588 C   0  0  0  0  0  0  0  0  0  0  0  0
   19.5926   -8.6148  -11.9922 O   0  0  0  0  0  0  0  0  0  0  0  0
   19.4714   -6.3621  -12.3058 N   0  0  0  0  0  0  0  0  0  0  0  0
   19.5820   -6.1686  -10.8612 C   0  0  1  0  0  0  0  0  0  0  0  0
   20.4828   -4.9910  -10.5599 C   0  0  0  0  0  0  0  0  0  0  0  0
   21.9816   -5.0053  -11.5410 S   0  0  0  0  0  0  0  0  0  0  0  0
   18.2316   -6.0041  -10.3147 C   0  0  0  0  0  0  0  0  0  0  0  0
   18.0036   -6.1580   -8.9603 O   0  0  0  0  0  0  0  0  0  0  0  0
   17.2205   -5.7217  -11.0123 O   0  0  0  0  0  0  0  0  0  0  0  0
  2  1  1  6
  3  2  1  0
  4  3  1  0
  5  4  2  0
  6  7  2  0
  6  5  1  0
  7  8  1  0
  8  9  2  0
  9  4  1  0
 10  2  1  0
 10 17  1  0
 11 10  2  0
 13 14  1  6
 13 12  1  0
 15 13  1  0
 16 15  1  1
 16 17  1  0
 18 16  1  0
 19 18  2  0
 20 18  1  0
 21 20  1  0
 21 22  1  6
 23 22  1  0
 24 21  1  0
 24 25  1  0
 26 24  2  0
M  END
$$$$
