FLC.pdb
     RDKit          3D

 26 26  0  0  1  0  0  0  0  0999 V2000
   22.7128  -18.1684  -18.5397 N   0  0  0  0  0  0  0  0  0  0  0  0
   23.1340  -17.5681  -17.2914 C   0  0  1  0  0  0  0  0  0  0  0  0
   21.9683  -17.0258  -16.5115 C   0  0  0  0  0  0  0  0  0  0  0  0
   21.3188  -15.8679  -17.1087 C   0  0  0  0  0  0  0  0  0  0  0  0
   21.8834  -14.6253  -16.8969 C   0  0  0  0  0  0  0  0  0  0  0  0
   21.3460  -13.4871  -17.4157 C   0  0  0  0  0  0  0  0  0  0  0  0
   20.2177  -13.5406  -18.1712 C   0  0  0  0  0  0  0  0  0  0  0  0
   19.6137  -14.7516  -18.4141 C   0  0  0  0  0  0  0  0  0  0  0  0
   20.1757  -15.8872  -17.8790 C   0  0  0  0  0  0  0  0  0  0  0  0
   23.7481  -18.6415  -16.4708 C   0  0  0  0  0  0  0  0  0  0  0  0
   23.3249  -19.8186  -16.5696 O   0  0  0  0  0  0  0  0  0  0  0  0
   28.0273  -21.5275  -14.8885 C   0  0  0  0  0  0  0  0  0  0  0  0
   27.9427  -20.1282  -14.4160 C   0  0  1  0  0  0  0  0  0  0  0  0
   29.3245  -19.4400  -14.5354 C   0  0  0  0  0  0  0  0  0  0  0  0
   26.9234  -19.2331  -14.9798 C   0  0  0  0  0  0  0  0  0  0  0  0
   25.4816  -19.5344  -14.8579 C   0  0  2  0  0  0  0  0  0  0  0  0
   24.8097  -18.4024  -15.5625 N   0  0  0  0  0  0  0  0  0  0  0  0
   24.8844  -19.5831  -13.5304 C   0  0  0  0  0  0  0  0  0  0  0  0
   24.8104  -18.5985  -12.7191 O   0  0  0  0  0  0  0  0  0  0  0  0
   24.3199  -20.7996  -13.0388 N   0  0  0  0  0  0  0  0  0  0  0  0
   23.7870  -20.8604  -11.6792 C   0  0  1  0  0  0  0  0  0  0  0  0
   22.5238  -21.6928  -11.6507 C   0  0  0  0  0  0  0  0  0  0  0  0
   21.1057  -20.8096  -12.2972 S   0  0  0  0  0  0  0  0  0  0  0  0
   24.8335  -21.3876  -10.7982 C   0  0  0  0  0  0  0  0  0  0  0  0
   25.9009  -22.0897  -11.3254 O   0  0  0  0  0  0  0  0  0  0  0  0
   24.8361  -21.2446   -9.5459 O   0  0  0  0  0  0  0  0  0  0  0  0
  2  1  1  6
  3  2  1  0
  4  3  1  0
  5  4  2  0
  6  7  2  0
  6  5  1  0
  7  8  1  0
  8  9  2  0
  9  4  1  0
 10  2  1  0
 10 17  1  0
 11 10  2  0
 13 14  1  6
 13 12  1  0
 15 13  1  0
 16 15  1  1
 16 17  1  0
 18 16  1  0
 19 18  2  0
 20 18  1  0
 21 20  1  0
 21 22  1  6
 23 22  1  0
 24 21  1  0
 24 25  1  0
 26 24  2  0
M  END
$$$$
