FLC.pdb
     RDKit          3D

 26 26  0  0  1  0  0  0  0  0999 V2000
   17.8059  -10.4540  -16.7971 N   0  0  0  0  0  0  0  0  0  0  0  0
   17.4139   -9.0639  -16.6972 C   0  0  1  0  0  0  0  0  0  0  0  0
   15.9223   -8.8965  -16.7889 C   0  0  0  0  0  0  0  0  0  0  0  0
   15.3942   -8.8540  -18.1448 C   0  0  0  0  0  0  0  0  0  0  0  0
   14.7608   -9.9810  -18.6309 C   0  0  0  0  0  0  0  0  0  0  0  0
   14.2363  -10.0331  -19.8861 C   0  0  0  0  0  0  0  0  0  0  0  0
   14.3219   -8.9584  -20.7133 C   0  0  0  0  0  0  0  0  0  0  0  0
   14.9421   -7.8100  -20.2810 C   0  0  0  0  0  0  0  0  0  0  0  0
   15.4640   -7.7820  -19.0088 C   0  0  0  0  0  0  0  0  0  0  0  0
   17.8262   -8.5847  -15.3544 C   0  0  0  0  0  0  0  0  0  0  0  0
   17.8089   -9.3751  -14.3800 O   0  0  0  0  0  0  0  0  0  0  0  0
   21.5412   -6.5865  -12.0119 C   0  0  0  0  0  0  0  0  0  0  0  0
   21.0404   -5.7336  -13.1120 C   0  0  1  0  0  0  0  0  0  0  0  0
   22.2218   -5.0235  -13.8172 C   0  0  0  0  0  0  0  0  0  0  0  0
   20.1634   -6.3141  -14.1376 C   0  0  0  0  0  0  0  0  0  0  0  0
   18.8380   -6.8697  -13.7928 C   0  0  2  0  0  0  0  0  0  0  0  0
   18.2476   -7.2537  -15.1094 N   0  0  0  0  0  0  0  0  0  0  0  0
   17.8561   -6.0009  -13.1584 C   0  0  0  0  0  0  0  0  0  0  0  0
   17.1646   -5.1090  -13.7582 O   0  0  0  0  0  0  0  0  0  0  0  0
   17.6008   -6.1054  -11.7569 N   0  0  0  0  0  0  0  0  0  0  0  0
   16.6420   -5.2047  -11.1201 C   0  0  1  0  0  0  0  0  0  0  0  0
   16.2542   -5.7345   -9.7570 C   0  0  0  0  0  0  0  0  0  0  0  0
   17.6776   -6.0894   -8.7287 S   0  0  0  0  0  0  0  0  0  0  0  0
   17.2380   -3.8666  -11.0598 C   0  0  0  0  0  0  0  0  0  0  0  0
   16.4608   -2.7707  -10.7356 O   0  0  0  0  0  0  0  0  0  0  0  0
   18.4540   -3.6276  -11.2901 O   0  0  0  0  0  0  0  0  0  0  0  0
  2  1  1  1
  3  2  1  0
  4  3  1  0
  5  4  2  0
  6  7  2  0
  6  5  1  0
  7  8  1  0
  8  9  2  0
  9  4  1  0
 10  2  1  0
 10 17  1  0
 11 10  2  0
 13 14  1  6
 13 12  1  0
 15 13  1  0
 16 15  1  6
 16 17  1  0
 18 16  1  0
 19 18  2  0
 20 18  1  0
 21 20  1  0
 21 22  1  1
 23 22  1  0
 24 21  1  0
 24 25  1  0
 26 24  2  0
M  END
$$$$
