VTW.pdb
     RDKit          3D

 29 30  0  0  1  0  0  0  0  0999 V2000
   25.0519  -25.0362  -15.2496 C   0  0  0  0  0  0  0  0  0  0  0  0
   24.3993  -23.9500  -16.1342 C   0  0  2  0  0  0  0  0  0  0  0  0
   23.6550  -24.7220  -17.1981 C   0  0  0  0  0  0  0  0  0  0  0  0
   25.5195  -23.1082  -16.6269 C   0  0  2  0  0  0  0  0  0  0  0  0
   26.3343  -23.9755  -17.4889 N   0  0  0  0  0  0  0  0  0  0  0  0
   26.3420  -22.4373  -15.6250 C   0  0  0  0  0  0  0  0  0  0  0  0
   27.5608  -22.8331  -15.5304 O   0  0  0  0  0  0  0  0  0  0  0  0
   27.7161  -19.1015  -15.1745 C   0  0  0  0  0  0  0  0  0  0  0  0
   27.0645  -19.4324  -13.8485 C   0  0  1  0  0  0  0  0  0  0  0  0
   25.8927  -18.7240  -13.7663 O   0  0  0  0  0  0  0  0  0  0  0  0
   26.8537  -20.9295  -13.7192 C   0  0  2  0  0  0  0  0  0  0  0  0
   25.9535  -21.3987  -14.7465 N   0  0  0  0  0  0  0  0  0  0  0  0
   26.4515  -21.2415  -12.3467 C   0  0  0  0  0  0  0  0  0  0  0  0
   25.3045  -21.7497  -12.1705 O   0  0  0  0  0  0  0  0  0  0  0  0
   27.2297  -21.0267  -11.1910 N   0  0  0  0  0  0  0  0  0  0  0  0
   26.7203  -21.3274   -9.8457 C   0  0  1  0  0  0  0  0  0  0  0  0
   27.8360  -21.4433   -8.8546 C   0  0  0  0  0  0  0  0  0  0  0  0
   27.7322  -20.3403   -7.8732 C   0  0  0  0  0  0  0  0  0  0  0  0
   26.9385  -19.2004   -8.0153 C   0  0  0  0  0  0  0  0  0  0  0  0
   27.0991  -18.4259   -6.9287 N   0  0  0  0  0  0  0  0  0  0  0  0
   27.9648  -18.9929   -6.0621 C   0  0  0  0  0  0  0  0  0  0  0  0
   28.4425  -18.5932   -4.8354 C   0  0  0  0  0  0  0  0  0  0  0  0
   29.3428  -19.4170   -4.1826 C   0  0  0  0  0  0  0  0  0  0  0  0
   29.7305  -20.5989   -4.7714 C   0  0  0  0  0  0  0  0  0  0  0  0
   29.2559  -20.9995   -5.9934 C   0  0  0  0  0  0  0  0  0  0  0  0
   28.3531  -20.1879   -6.6632 C   0  0  0  0  0  0  0  0  0  0  0  0
   25.7569  -20.2377   -9.4649 C   0  0  0  0  0  0  0  0  0  0  0  0
   24.7990  -20.4367   -8.4971 O   0  0  0  0  0  0  0  0  0  0  0  0
   25.8035  -19.1083  -10.0265 O   0  0  0  0  0  0  0  0  0  0  0  0
  2  1  1  1
  2  3  1  0
  4  2  1  0
  4  5  1  1
  6  4  1  0
  7  6  2  0
  9 11  1  0
  9  8  1  6
 10  9  1  0
 11 12  1  6
 12  6  1  0
 13 15  1  0
 13 11  1  0
 14 13  2  0
 16 15  1  0
 16 17  1  1
 17 18  1  0
 18 26  1  0
 18 19  2  0
 19 20  1  0
 21 20  1  0
 21 22  2  0
 23 22  1  0
 24 23  2  0
 25 26  2  0
 25 24  1  0
 26 21  1  0
 27 28  1  0
 27 16  1  0
 29 27  2  0
M  END
$$$$
