VTW.pdb
     RDKit          3D

 29 30  0  0  1  0  0  0  0  0999 V2000
   20.2854  -19.6669  -15.2784 C   0  0  0  0  0  0  0  0  0  0  0  0
   20.0036  -20.9215  -16.1354 C   0  0  2  0  0  0  0  0  0  0  0  0
   18.7179  -20.6048  -16.8626 C   0  0  0  0  0  0  0  0  0  0  0  0
   19.9287  -22.0533  -15.1765 C   0  0  2  0  0  0  0  0  0  0  0  0
   18.7430  -21.8066  -14.3445 N   0  0  0  0  0  0  0  0  0  0  0  0
   21.1064  -22.3108  -14.3535 C   0  0  0  0  0  0  0  0  0  0  0  0
   21.0096  -22.0058  -13.1090 O   0  0  0  0  0  0  0  0  0  0  0  0
   23.2859  -25.4970  -14.1139 C   0  0  0  0  0  0  0  0  0  0  0  0
   24.2025  -24.2922  -14.1362 C   0  0  1  0  0  0  0  0  0  0  0  0
   24.8127  -24.2494  -15.3641 O   0  0  0  0  0  0  0  0  0  0  0  0
   23.4247  -23.0271  -13.8248 C   0  0  2  0  0  0  0  0  0  0  0  0
   22.3428  -22.8602  -14.7668 N   0  0  0  0  0  0  0  0  0  0  0  0
   24.3550  -21.9003  -13.7366 C   0  0  0  0  0  0  0  0  0  0  0  0
   24.2467  -20.9787  -14.5990 O   0  0  0  0  0  0  0  0  0  0  0  0
   25.3706  -21.7440  -12.7715 N   0  0  0  0  0  0  0  0  0  0  0  0
   26.2608  -20.5746  -12.7645 C   0  0  1  0  0  0  0  0  0  0  0  0
   26.3216  -19.9450  -11.4080 C   0  0  0  0  0  0  0  0  0  0  0  0
   27.5561  -20.3862  -10.7210 C   0  0  0  0  0  0  0  0  0  0  0  0
   28.6625  -20.9725  -11.3388 C   0  0  0  0  0  0  0  0  0  0  0  0
   29.5892  -21.2362  -10.4017 N   0  0  0  0  0  0  0  0  0  0  0  0
   29.1564  -20.8540   -9.1816 C   0  0  0  0  0  0  0  0  0  0  0  0
   29.7325  -20.9149   -7.9338 C   0  0  0  0  0  0  0  0  0  0  0  0
   29.0133  -20.4292   -6.8556 C   0  0  0  0  0  0  0  0  0  0  0  0
   27.7573  -19.9052   -7.0592 C   0  0  0  0  0  0  0  0  0  0  0  0
   27.1811  -19.8433   -8.3014 C   0  0  0  0  0  0  0  0  0  0  0  0
   27.8856  -20.3247   -9.3942 C   0  0  0  0  0  0  0  0  0  0  0  0
   27.6193  -21.0285  -13.2219 C   0  0  0  0  0  0  0  0  0  0  0  0
   27.9200  -22.3652  -13.3513 O   0  0  0  0  0  0  0  0  0  0  0  0
   28.5213  -20.1906  -13.4996 O   0  0  0  0  0  0  0  0  0  0  0  0
  2  1  1  1
  2  3  1  0
  4  2  1  0
  4  5  1  1
  6  4  1  0
  7  6  2  0
  9 11  1  0
  9  8  1  6
 10  9  1  0
 11 12  1  6
 12  6  1  0
 13 15  1  0
 13 11  1  0
 14 13  2  0
 16 15  1  0
 16 17  1  1
 17 18  1  0
 18 26  1  0
 18 19  2  0
 19 20  1  0
 21 20  1  0
 21 22  2  0
 23 22  1  0
 24 23  2  0
 25 26  2  0
 25 24  1  0
 26 21  1  0
 27 28  1  0
 27 16  1  0
 29 27  2  0
M  END
$$$$
