VTW.pdb
     RDKit          3D

 29 30  0  0  1  0  0  0  0  0999 V2000
   48.8205   -9.6331  -13.0553 C   0  0  0  0  0  0  0  0  0  0  0  0
   48.9274   -8.1899  -12.5135 C   0  0  2  0  0  0  0  0  0  0  0  0
   50.3902   -8.0162  -12.1788 C   0  0  0  0  0  0  0  0  0  0  0  0
   47.9991   -8.1268  -11.3557 C   0  0  2  0  0  0  0  0  0  0  0  0
   48.6905   -8.7886  -10.2408 N   0  0  0  0  0  0  0  0  0  0  0  0
   46.6584   -8.6725  -11.5436 C   0  0  0  0  0  0  0  0  0  0  0  0
   45.8847   -8.0224  -12.3373 O   0  0  0  0  0  0  0  0  0  0  0  0
   45.2289  -11.5945  -13.2447 C   0  0  0  0  0  0  0  0  0  0  0  0
   44.7030  -11.6158  -11.8251 C   0  0  1  0  0  0  0  0  0  0  0  0
   45.4453  -12.5243  -11.1142 O   0  0  0  0  0  0  0  0  0  0  0  0
   44.7465  -10.2243  -11.2216 C   0  0  2  0  0  0  0  0  0  0  0  0
   46.1120   -9.8370  -10.9548 N   0  0  0  0  0  0  0  0  0  0  0  0
   43.8461  -10.1721  -10.0685 C   0  0  0  0  0  0  0  0  0  0  0  0
   44.3512  -10.3416   -8.9192 O   0  0  0  0  0  0  0  0  0  0  0  0
   42.4551   -9.9487  -10.1188 N   0  0  0  0  0  0  0  0  0  0  0  0
   41.5996  -10.1134   -8.9351 C   0  0  1  0  0  0  0  0  0  0  0  0
   40.1913   -9.6933   -9.2188 C   0  0  0  0  0  0  0  0  0  0  0  0
   39.3309  -10.0696   -8.0747 C   0  0  0  0  0  0  0  0  0  0  0  0
   39.2586   -9.3907   -6.8568 C   0  0  0  0  0  0  0  0  0  0  0  0
   38.3727  -10.0196   -6.0655 N   0  0  0  0  0  0  0  0  0  0  0  0
   37.8460  -11.0907   -6.6957 C   0  0  0  0  0  0  0  0  0  0  0  0
   36.9183  -12.0297   -6.3077 C   0  0  0  0  0  0  0  0  0  0  0  0
   36.5822  -13.0285   -7.2050 C   0  0  0  0  0  0  0  0  0  0  0  0
   37.1778  -13.0542   -8.4452 C   0  0  0  0  0  0  0  0  0  0  0  0
   38.1022  -12.1198   -8.8343 C   0  0  0  0  0  0  0  0  0  0  0  0
   38.4523  -11.1113   -7.9496 C   0  0  0  0  0  0  0  0  0  0  0  0
   41.6698  -11.5552   -8.5146 C   0  0  0  0  0  0  0  0  0  0  0  0
   41.9081  -11.9070   -7.2056 O   0  0  0  0  0  0  0  0  0  0  0  0
   41.5113  -12.4825   -9.3559 O   0  0  0  0  0  0  0  0  0  0  0  0
  2  1  1  1
  2  3  1  0
  4  2  1  0
  4  5  1  1
  6  4  1  0
  7  6  2  0
  9 11  1  0
  9  8  1  6
 10  9  1  0
 11 12  1  1
 12  6  1  0
 13 15  1  0
 13 11  1  0
 14 13  2  0
 16 15  1  0
 16 17  1  6
 17 18  1  0
 18 26  1  0
 18 19  2  0
 19 20  1  0
 21 20  1  0
 21 22  2  0
 23 22  1  0
 24 23  2  0
 25 26  2  0
 25 24  1  0
 26 21  1  0
 27 28  1  0
 27 16  1  0
 29 27  2  0
M  END
$$$$
