VTW.pdb
     RDKit          3D

 29 30  0  0  1  0  0  0  0  0999 V2000
   35.1746  -28.6461  -19.5501 C   0  0  0  0  0  0  0  0  0  0  0  0
   33.7850  -29.3210  -19.5885 C   0  0  2  0  0  0  0  0  0  0  0  0
   33.0320  -28.7081  -18.4312 C   0  0  0  0  0  0  0  0  0  0  0  0
   34.0445  -30.7792  -19.4765 C   0  0  2  0  0  0  0  0  0  0  0  0
   34.6174  -31.1926  -20.7649 N   0  0  0  0  0  0  0  0  0  0  0  0
   32.9202  -31.6311  -19.1012 C   0  0  0  0  0  0  0  0  0  0  0  0
   32.0369  -31.8421  -20.0103 O   0  0  0  0  0  0  0  0  0  0  0  0
   32.6079  -35.0697  -18.5558 C   0  0  0  0  0  0  0  0  0  0  0  0
   31.8667  -34.4894  -17.3700 C   0  0  1  0  0  0  0  0  0  0  0  0
   32.6592  -34.6436  -16.2610 O   0  0  0  0  0  0  0  0  0  0  0  0
   31.4999  -33.0402  -17.6302 C   0  0  2  0  0  0  0  0  0  0  0  0
   32.6911  -32.2546  -17.8522 N   0  0  0  0  0  0  0  0  0  0  0  0
   30.6295  -32.5639  -16.5538 C   0  0  0  0  0  0  0  0  0  0  0  0
   31.1691  -31.9368  -15.5944 O   0  0  0  0  0  0  0  0  0  0  0  0
   29.2326  -32.7403  -16.4847 N   0  0  0  0  0  0  0  0  0  0  0  0
   28.4371  -32.2047  -15.3711 C   0  0  1  0  0  0  0  0  0  0  0  0
   27.7095  -30.9594  -15.7715 C   0  0  0  0  0  0  0  0  0  0  0  0
   26.8096  -31.2646  -16.9062 C   0  0  0  0  0  0  0  0  0  0  0  0
   25.6053  -31.9659  -16.8202 C   0  0  0  0  0  0  0  0  0  0  0  0
   25.0656  -32.0466  -18.0485 N   0  0  0  0  0  0  0  0  0  0  0  0
   25.8520  -31.4315  -18.9568 C   0  0  0  0  0  0  0  0  0  0  0  0
   25.7310  -31.2507  -20.3152 C   0  0  0  0  0  0  0  0  0  0  0  0
   26.7319  -30.5602  -20.9762 C   0  0  0  0  0  0  0  0  0  0  0  0
   27.8073  -30.0793  -20.2649 C   0  0  0  0  0  0  0  0  0  0  0  0
   27.9303  -30.2580  -18.9114 C   0  0  0  0  0  0  0  0  0  0  0  0
   26.9379  -30.9471  -18.2312 C   0  0  0  0  0  0  0  0  0  0  0  0
   27.4845  -33.2802  -14.9279 C   0  0  0  0  0  0  0  0  0  0  0  0
   26.7503  -33.1524  -13.7710 O   0  0  0  0  0  0  0  0  0  0  0  0
   27.3342  -34.3318  -15.6096 O   0  0  0  0  0  0  0  0  0  0  0  0
  2  1  1  1
  2  3  1  0
  4  2  1  0
  4  5  1  6
  6  4  1  0
  7  6  2  0
  9 11  1  0
  9  8  1  6
 10  9  1  0
 11 12  1  1
 12  6  1  0
 13 15  1  0
 13 11  1  0
 14 13  2  0
 16 15  1  0
 16 17  1  6
 17 18  1  0
 18 26  1  0
 18 19  2  0
 19 20  1  0
 21 20  1  0
 21 22  2  0
 23 22  1  0
 24 23  2  0
 25 26  2  0
 25 24  1  0
 26 21  1  0
 27 28  1  0
 27 16  1  0
 29 27  2  0
M  END
$$$$
