VTW.pdb
     RDKit          3D

 29 30  0  0  1  0  0  0  0  0999 V2000
   30.1341  -21.4800  -18.9159 C   0  0  0  0  0  0  0  0  0  0  0  0
   30.4042  -22.8478  -18.2495 C   0  0  2  0  0  0  0  0  0  0  0  0
   30.5653  -23.8086  -19.4040 C   0  0  0  0  0  0  0  0  0  0  0  0
   29.2351  -23.1026  -17.3695 C   0  0  2  0  0  0  0  0  0  0  0  0
   28.0691  -23.2043  -18.2578 N   0  0  0  0  0  0  0  0  0  0  0  0
   28.9931  -22.1526  -16.2880 C   0  0  0  0  0  0  0  0  0  0  0  0
   29.8686  -22.1243  -15.3479 O   0  0  0  0  0  0  0  0  0  0  0  0
   27.4103  -18.2594  -13.9322 C   0  0  0  0  0  0  0  0  0  0  0  0
   27.5295  -19.0447  -15.2211 C   0  0  1  0  0  0  0  0  0  0  0  0
   28.5747  -18.5210  -15.9387 O   0  0  0  0  0  0  0  0  0  0  0  0
   27.7035  -20.5233  -14.9281 C   0  0  2  0  0  0  0  0  0  0  0  0
   27.9066  -21.2563  -16.1557 N   0  0  0  0  0  0  0  0  0  0  0  0
   26.5856  -20.9846  -14.1032 C   0  0  0  0  0  0  0  0  0  0  0  0
   25.5872  -21.4920  -14.6954 O   0  0  0  0  0  0  0  0  0  0  0  0
   26.5160  -20.9159  -12.6969 N   0  0  0  0  0  0  0  0  0  0  0  0
   25.4227  -21.5448  -11.9425 C   0  0  1  0  0  0  0  0  0  0  0  0
   25.9252  -22.1815  -10.6846 C   0  0  0  0  0  0  0  0  0  0  0  0
   26.3646  -21.1250   -9.7458 C   0  0  0  0  0  0  0  0  0  0  0  0
   25.5678  -20.0832   -9.2668 C   0  0  0  0  0  0  0  0  0  0  0  0
   26.3042  -19.3245   -8.4371 N   0  0  0  0  0  0  0  0  0  0  0  0
   27.5602  -19.8085   -8.3362 C   0  0  0  0  0  0  0  0  0  0  0  0
   28.6602  -19.3882   -7.6248 C   0  0  0  0  0  0  0  0  0  0  0  0
   29.8312  -20.1173   -7.7373 C   0  0  0  0  0  0  0  0  0  0  0  0
   29.8624  -21.2291   -8.5477 C   0  0  0  0  0  0  0  0  0  0  0  0
   28.7679  -21.6500   -9.2575 C   0  0  0  0  0  0  0  0  0  0  0  0
   27.5854  -20.9329   -9.1580 C   0  0  0  0  0  0  0  0  0  0  0  0
   24.3966  -20.4851  -11.6511 C   0  0  0  0  0  0  0  0  0  0  0  0
   23.0991  -20.8150  -11.3325 O   0  0  0  0  0  0  0  0  0  0  0  0
   24.7018  -19.2611  -11.6917 O   0  0  0  0  0  0  0  0  0  0  0  0
  2  1  1  6
  2  3  1  0
  4  2  1  0
  4  5  1  6
  6  4  1  0
  7  6  2  0
  9 11  1  0
  9  8  1  1
 10  9  1  0
 11 12  1  6
 12  6  1  0
 13 15  1  0
 13 11  1  0
 14 13  2  0
 16 15  1  0
 16 17  1  1
 17 18  1  0
 18 26  1  0
 18 19  2  0
 19 20  1  0
 21 20  1  0
 21 22  2  0
 23 22  1  0
 24 23  2  0
 25 26  2  0
 25 24  1  0
 26 21  1  0
 27 28  1  0
 27 16  1  0
 29 27  2  0
M  END
$$$$
