VTW.pdb
     RDKit          3D

 29 30  0  0  1  0  0  0  0  0999 V2000
   25.9772  -20.0279  -18.2030 C   0  0  0  0  0  0  0  0  0  0  0  0
   26.1519  -21.5248  -18.5450 C   0  0  2  0  0  0  0  0  0  0  0  0
   25.0379  -21.8251  -19.5201 C   0  0  0  0  0  0  0  0  0  0  0  0
   26.0719  -22.2441  -17.2480 C   0  0  2  0  0  0  0  0  0  0  0  0
   24.6406  -22.4054  -16.9575 N   0  0  0  0  0  0  0  0  0  0  0  0
   26.7776  -21.6565  -16.1133 C   0  0  0  0  0  0  0  0  0  0  0  0
   28.0603  -21.7265  -16.1419 O   0  0  0  0  0  0  0  0  0  0  0  0
   28.1666  -18.7395  -15.1977 C   0  0  0  0  0  0  0  0  0  0  0  0
   27.2752  -19.0570  -14.0157 C   0  0  1  0  0  0  0  0  0  0  0  0
   26.1052  -18.3578  -14.1704 O   0  0  0  0  0  0  0  0  0  0  0  0
   27.0524  -20.5538  -13.9053 C   0  0  2  0  0  0  0  0  0  0  0  0
   26.2127  -21.0158  -14.9856 N   0  0  0  0  0  0  0  0  0  0  0  0
   26.5693  -20.8699  -12.5601 C   0  0  0  0  0  0  0  0  0  0  0  0
   25.3458  -21.1714  -12.4298 O   0  0  0  0  0  0  0  0  0  0  0  0
   27.3469  -20.8697  -11.3842 N   0  0  0  0  0  0  0  0  0  0  0  0
   26.7473  -21.0713  -10.0576 C   0  0  1  0  0  0  0  0  0  0  0  0
   27.7879  -21.0546   -8.9818 C   0  0  0  0  0  0  0  0  0  0  0  0
   27.1261  -20.9053   -7.6663 C   0  0  0  0  0  0  0  0  0  0  0  0
   25.8025  -21.2460   -7.3811 C   0  0  0  0  0  0  0  0  0  0  0  0
   25.5569  -20.9734   -6.0881 N   0  0  0  0  0  0  0  0  0  0  0  0
   26.6551  -20.4649   -5.4906 C   0  0  0  0  0  0  0  0  0  0  0  0
   26.8966  -20.0396   -4.2047 C   0  0  0  0  0  0  0  0  0  0  0  0
   28.1577  -19.5578   -3.8997 C   0  0  0  0  0  0  0  0  0  0  0  0
   29.1234  -19.5180   -4.8793 C   0  0  0  0  0  0  0  0  0  0  0  0
   28.8854  -19.9412   -6.1612 C   0  0  0  0  0  0  0  0  0  0  0  0
   27.6283  -20.4273   -6.4864 C   0  0  0  0  0  0  0  0  0  0  0  0
   25.7218  -19.9919   -9.8481 C   0  0  0  0  0  0  0  0  0  0  0  0
   24.4732  -20.2801   -9.3463 O   0  0  0  0  0  0  0  0  0  0  0  0
   25.9823  -18.7893  -10.1288 O   0  0  0  0  0  0  0  0  0  0  0  0
  2  1  1  1
  2  3  1  0
  4  2  1  0
  4  5  1  1
  6  4  1  0
  7  6  2  0
  9 11  1  0
  9  8  1  6
 10  9  1  0
 11 12  1  6
 12  6  1  0
 13 15  1  0
 13 11  1  0
 14 13  2  0
 16 15  1  0
 16 17  1  1
 17 18  1  0
 18 26  1  0
 18 19  2  0
 19 20  1  0
 21 20  1  0
 21 22  2  0
 23 22  1  0
 24 23  2  0
 25 26  2  0
 25 24  1  0
 26 21  1  0
 27 28  1  0
 27 16  1  0
 29 27  2  0
M  END
$$$$
