VTW.pdb
     RDKit          3D

 29 30  0  0  1  0  0  0  0  0999 V2000
   28.6451  -19.0296  -15.4931 C   0  0  0  0  0  0  0  0  0  0  0  0
   28.7465  -20.5152  -15.0800 C   0  0  2  0  0  0  0  0  0  0  0  0
   29.4935  -21.1757  -16.2147 C   0  0  0  0  0  0  0  0  0  0  0  0
   27.3470  -20.9743  -14.8885 C   0  0  2  0  0  0  0  0  0  0  0  0
   26.6668  -20.7594  -16.1731 N   0  0  0  0  0  0  0  0  0  0  0  0
   26.5941  -20.3817  -13.7873 C   0  0  0  0  0  0  0  0  0  0  0  0
   26.1463  -19.1925  -13.9780 O   0  0  0  0  0  0  0  0  0  0  0  0
   24.1044  -19.3649  -13.5101 C   0  0  0  0  0  0  0  0  0  0  0  0
   24.0272  -20.1569  -12.2220 C   0  0  1  0  0  0  0  0  0  0  0  0
   23.4387  -21.3635  -12.5036 O   0  0  0  0  0  0  0  0  0  0  0  0
   25.4064  -20.3075  -11.6076 C   0  0  2  0  0  0  0  0  0  0  0  0
   26.2974  -20.9664  -12.5336 N   0  0  0  0  0  0  0  0  0  0  0  0
   25.2817  -20.9490  -10.2977 C   0  0  0  0  0  0  0  0  0  0  0  0
   25.4499  -22.2032  -10.2381 O   0  0  0  0  0  0  0  0  0  0  0  0
   24.9885  -20.2943   -9.0842 N   0  0  0  0  0  0  0  0  0  0  0  0
   24.9828  -21.0078   -7.7993 C   0  0  1  0  0  0  0  0  0  0  0  0
   25.2903  -20.0840   -6.6624 C   0  0  0  0  0  0  0  0  0  0  0  0
   26.7142  -19.6858   -6.7298 C   0  0  0  0  0  0  0  0  0  0  0  0
   27.3320  -19.0646   -7.8170 C   0  0  0  0  0  0  0  0  0  0  0  0
   28.6248  -18.8547   -7.5153 N   0  0  0  0  0  0  0  0  0  0  0  0
   28.9048  -19.3064   -6.2746 C   0  0  0  0  0  0  0  0  0  0  0  0
   30.0635  -19.3184   -5.5330 C   0  0  0  0  0  0  0  0  0  0  0  0
   30.0232  -19.8672   -4.2631 C   0  0  0  0  0  0  0  0  0  0  0  0
   28.8396  -20.3794   -3.7831 C   0  0  0  0  0  0  0  0  0  0  0  0
   27.6837  -20.3686   -4.5199 C   0  0  0  0  0  0  0  0  0  0  0  0
   27.7037  -19.8231   -5.7944 C   0  0  0  0  0  0  0  0  0  0  0  0
   23.6334  -21.6505   -7.6366 C   0  0  0  0  0  0  0  0  0  0  0  0
   23.4154  -22.6248   -6.6894 O   0  0  0  0  0  0  0  0  0  0  0  0
   22.6629  -21.3106   -8.3684 O   0  0  0  0  0  0  0  0  0  0  0  0
  2  1  1  6
  2  3  1  0
  4  2  1  0
  4  5  1  6
  6  4  1  0
  7  6  2  0
  9 11  1  0
  9  8  1  6
 10  9  1  0
 11 12  1  6
 12  6  1  0
 13 15  1  0
 13 11  1  0
 14 13  2  0
 16 15  1  0
 16 17  1  1
 17 18  1  0
 18 26  1  0
 18 19  2  0
 19 20  1  0
 21 20  1  0
 21 22  2  0
 23 22  1  0
 24 23  2  0
 25 26  2  0
 25 24  1  0
 26 21  1  0
 27 28  1  0
 27 16  1  0
 29 27  2  0
M  END
$$$$
