VTW.pdb
     RDKit          3D

 29 30  0  0  1  0  0  0  0  0999 V2000
   21.3667  -27.0934  -13.9721 C   0  0  0  0  0  0  0  0  0  0  0  0
   20.2333  -26.6439  -14.9215 C   0  0  2  0  0  0  0  0  0  0  0  0
   20.9323  -25.8493  -15.9994 C   0  0  0  0  0  0  0  0  0  0  0  0
   19.2857  -25.8725  -14.0772 C   0  0  2  0  0  0  0  0  0  0  0  0
   19.9161  -24.5659  -13.8441 N   0  0  0  0  0  0  0  0  0  0  0  0
   18.8588  -26.4837  -12.8222 C   0  0  0  0  0  0  0  0  0  0  0  0
   18.1420  -27.5456  -12.9205 O   0  0  0  0  0  0  0  0  0  0  0  0
   20.2449  -28.7155  -10.7548 C   0  0  0  0  0  0  0  0  0  0  0  0
   19.8430  -27.6174   -9.7930 C   0  0  1  0  0  0  0  0  0  0  0  0
   20.9546  -26.8567   -9.5334 O   0  0  0  0  0  0  0  0  0  0  0  0
   18.6973  -26.8034  -10.3648 C   0  0  2  0  0  0  0  0  0  0  0  0
   19.1452  -26.0437  -11.5085 N   0  0  0  0  0  0  0  0  0  0  0  0
   18.0853  -26.0159   -9.2932 C   0  0  0  0  0  0  0  0  0  0  0  0
   18.3755  -24.7845   -9.2283 O   0  0  0  0  0  0  0  0  0  0  0  0
   17.1942  -26.5056   -8.3168 N   0  0  0  0  0  0  0  0  0  0  0  0
   16.5931  -25.6262   -7.3042 C   0  0  1  0  0  0  0  0  0  0  0  0
   15.4303  -26.2862   -6.6313 C   0  0  0  0  0  0  0  0  0  0  0  0
   14.8175  -25.3367   -5.6755 C   0  0  0  0  0  0  0  0  0  0  0  0
   14.4735  -24.0128   -5.9555 C   0  0  0  0  0  0  0  0  0  0  0  0
   13.9418  -23.4633   -4.8501 N   0  0  0  0  0  0  0  0  0  0  0  0
   13.9126  -24.3573   -3.8393 C   0  0  0  0  0  0  0  0  0  0  0  0
   13.4714  -24.2708   -2.5391 C   0  0  0  0  0  0  0  0  0  0  0  0
   13.5825  -25.3908   -1.7335 C   0  0  0  0  0  0  0  0  0  0  0  0
   14.1246  -26.5457   -2.2492 C   0  0  0  0  0  0  0  0  0  0  0  0
   14.5649  -26.6345   -3.5443 C   0  0  0  0  0  0  0  0  0  0  0  0
   14.4622  -25.5233   -4.3672 C   0  0  0  0  0  0  0  0  0  0  0  0
   17.6665  -25.2621   -6.3164 C   0  0  0  0  0  0  0  0  0  0  0  0
   17.7341  -24.0024   -5.7664 O   0  0  0  0  0  0  0  0  0  0  0  0
   18.5361  -26.1071   -5.9657 O   0  0  0  0  0  0  0  0  0  0  0  0
  2  1  1  1
  2  3  1  0
  4  2  1  0
  4  5  1  1
  6  4  1  0
  7  6  2  0
  9 11  1  0
  9  8  1  6
 10  9  1  0
 11 12  1  6
 12  6  1  0
 13 15  1  0
 13 11  1  0
 14 13  2  0
 16 15  1  0
 16 17  1  1
 17 18  1  0
 18 26  1  0
 18 19  2  0
 19 20  1  0
 21 20  1  0
 21 22  2  0
 23 22  1  0
 24 23  2  0
 25 26  2  0
 25 24  1  0
 26 21  1  0
 27 28  1  0
 27 16  1  0
 29 27  2  0
M  END
$$$$
