VTW.pdb
     RDKit          3D

 29 30  0  0  1  0  0  0  0  0999 V2000
   20.4527  -13.3540  -19.3161 C   0  0  0  0  0  0  0  0  0  0  0  0
   20.4536  -13.4295  -17.7726 C   0  0  2  0  0  0  0  0  0  0  0  0
   20.6063  -14.9002  -17.4634 C   0  0  0  0  0  0  0  0  0  0  0  0
   19.1699  -12.8196  -17.3409 C   0  0  2  0  0  0  0  0  0  0  0  0
   18.1076  -13.6022  -17.9875 N   0  0  0  0  0  0  0  0  0  0  0  0
   18.9942  -11.3908  -17.5825 C   0  0  0  0  0  0  0  0  0  0  0  0
   19.7602  -10.8647  -18.4700 O   0  0  0  0  0  0  0  0  0  0  0  0
   17.0947   -9.3178  -19.5627 C   0  0  0  0  0  0  0  0  0  0  0  0
   16.8729   -8.7856  -18.1627 C   0  0  1  0  0  0  0  0  0  0  0  0
   15.7000   -9.3174  -17.6905 O   0  0  0  0  0  0  0  0  0  0  0  0
   18.0612   -9.1098  -17.2767 C   0  0  2  0  0  0  0  0  0  0  0  0
   18.0756  -10.5175  -16.9542 N   0  0  0  0  0  0  0  0  0  0  0  0
   18.0634   -8.2056  -16.1255 C   0  0  0  0  0  0  0  0  0  0  0  0
   17.4613   -8.5854  -15.0776 O   0  0  0  0  0  0  0  0  0  0  0  0
   18.6792   -6.9385  -16.0742 N   0  0  0  0  0  0  0  0  0  0  0  0
   18.5821   -6.0762  -14.8880 C   0  0  1  0  0  0  0  0  0  0  0  0
   19.9000   -5.9638  -14.1875 C   0  0  0  0  0  0  0  0  0  0  0  0
   20.2016   -7.2439  -13.5086 C   0  0  0  0  0  0  0  0  0  0  0  0
   19.4829   -7.7842  -12.4403 C   0  0  0  0  0  0  0  0  0  0  0  0
   20.0464   -8.9530  -12.0898 N   0  0  0  0  0  0  0  0  0  0  0  0
   21.1114   -9.2235  -12.8736 C   0  0  0  0  0  0  0  0  0  0  0  0
   21.9950  -10.2775  -12.9038 C   0  0  0  0  0  0  0  0  0  0  0  0
   23.0047  -10.2593  -13.8502 C   0  0  0  0  0  0  0  0  0  0  0  0
   23.0956   -9.2003  -14.7243 C   0  0  0  0  0  0  0  0  0  0  0  0
   22.2165   -8.1490  -14.6964 C   0  0  0  0  0  0  0  0  0  0  0  0
   21.1980   -8.1488  -13.7556 C   0  0  0  0  0  0  0  0  0  0  0  0
   18.0811   -4.7316  -15.3373 C   0  0  0  0  0  0  0  0  0  0  0  0
   17.8602   -4.4594  -16.6681 O   0  0  0  0  0  0  0  0  0  0  0  0
   17.8500   -3.8153  -14.5007 O   0  0  0  0  0  0  0  0  0  0  0  0
  2  1  1  6
  2  3  1  0
  4  2  1  0
  4  5  1  6
  6  4  1  0
  7  6  2  0
  9 11  1  0
  9  8  1  6
 10  9  1  0
 11 12  1  1
 12  6  1  0
 13 15  1  0
 13 11  1  0
 14 13  2  0
 16 15  1  0
 16 17  1  6
 17 18  1  0
 18 26  1  0
 18 19  2  0
 19 20  1  0
 21 20  1  0
 21 22  2  0
 23 22  1  0
 24 23  2  0
 25 26  2  0
 25 24  1  0
 26 21  1  0
 27 28  1  0
 27 16  1  0
 29 27  2  0
M  END
$$$$
