VTW.pdb
     RDKit          3D

 29 30  0  0  1  0  0  0  0  0999 V2000
   19.0529  -15.3599  -17.4671 C   0  0  0  0  0  0  0  0  0  0  0  0
   18.3591  -15.6685  -18.8130 C   0  0  2  0  0  0  0  0  0  0  0  0
   18.1591  -17.1658  -18.8038 C   0  0  0  0  0  0  0  0  0  0  0  0
   19.2764  -15.1567  -19.8631 C   0  0  2  0  0  0  0  0  0  0  0  0
   20.3612  -16.1415  -19.9739 N   0  0  0  0  0  0  0  0  0  0  0  0
   19.8047  -13.8071  -19.6891 C   0  0  0  0  0  0  0  0  0  0  0  0
   20.9772  -13.7166  -19.1714 O   0  0  0  0  0  0  0  0  0  0  0  0
   20.1605   -9.0335  -20.7874 C   0  0  0  0  0  0  0  0  0  0  0  0
   19.3496  -10.3099  -20.8621 C   0  0  1  0  0  0  0  0  0  0  0  0
   19.3906  -10.7602  -22.1572 O   0  0  0  0  0  0  0  0  0  0  0  0
   19.8743  -11.3314  -19.8704 C   0  0  2  0  0  0  0  0  0  0  0  0
   19.1760  -12.5857  -20.0272 N   0  0  0  0  0  0  0  0  0  0  0  0
   19.8341  -10.7587  -18.5237 C   0  0  0  0  0  0  0  0  0  0  0  0
   18.7280  -10.7825  -17.9067 O   0  0  0  0  0  0  0  0  0  0  0  0
   20.9229  -10.1768  -17.8430 N   0  0  0  0  0  0  0  0  0  0  0  0
   20.7711   -9.5681  -16.5140 C   0  0  1  0  0  0  0  0  0  0  0  0
   22.0992   -9.3599  -15.8558 C   0  0  0  0  0  0  0  0  0  0  0  0
   21.9299   -8.4648  -14.6893 C   0  0  0  0  0  0  0  0  0  0  0  0
   21.5441   -8.8658  -13.4087 C   0  0  0  0  0  0  0  0  0  0  0  0
   21.4990   -7.7829  -12.6139 N   0  0  0  0  0  0  0  0  0  0  0  0
   21.8369   -6.6717  -13.3016 C   0  0  0  0  0  0  0  0  0  0  0  0
   21.9353   -5.3495  -12.9343 C   0  0  0  0  0  0  0  0  0  0  0  0
   22.3143   -4.4288  -13.8956 C   0  0  0  0  0  0  0  0  0  0  0  0
   22.5791   -4.8562  -15.1766 C   0  0  0  0  0  0  0  0  0  0  0  0
   22.4820   -6.1729  -15.5451 C   0  0  0  0  0  0  0  0  0  0  0  0
   22.1037   -7.1106  -14.5963 C   0  0  0  0  0  0  0  0  0  0  0  0
   20.0322   -8.2698  -16.6849 C   0  0  0  0  0  0  0  0  0  0  0  0
   19.0620   -7.8767  -15.7915 O   0  0  0  0  0  0  0  0  0  0  0  0
   20.2847   -7.5053  -17.6568 O   0  0  0  0  0  0  0  0  0  0  0  0
  2  1  1  1
  2  3  1  0
  4  2  1  0
  4  5  1  1
  6  4  1  0
  7  6  2  0
  9 11  1  0
  9  8  1  6
 10  9  1  0
 11 12  1  1
 12  6  1  0
 13 15  1  0
 13 11  1  0
 14 13  2  0
 16 15  1  0
 16 17  1  6
 17 18  1  0
 18 26  1  0
 18 19  2  0
 19 20  1  0
 21 20  1  0
 21 22  2  0
 23 22  1  0
 24 23  2  0
 25 26  2  0
 25 24  1  0
 26 21  1  0
 27 28  1  0
 27 16  1  0
 29 27  2  0
M  END
$$$$
