VTW.pdb
     RDKit          3D

 29 30  0  0  1  0  0  0  0  0999 V2000
   22.7932  -11.9499  -20.0128 C   0  0  0  0  0  0  0  0  0  0  0  0
   22.3005  -13.2850  -19.4105 C   0  0  2  0  0  0  0  0  0  0  0  0
   23.1443  -14.3412  -20.0846 C   0  0  0  0  0  0  0  0  0  0  0  0
   20.8469  -13.3471  -19.7093 C   0  0  2  0  0  0  0  0  0  0  0  0
   20.7365  -13.5889  -21.1545 N   0  0  0  0  0  0  0  0  0  0  0  0
   20.0315  -12.2072  -19.3013 C   0  0  0  0  0  0  0  0  0  0  0  0
   20.1522  -11.1392  -20.0053 O   0  0  0  0  0  0  0  0  0  0  0  0
   16.2909  -12.1048  -18.7273 C   0  0  0  0  0  0  0  0  0  0  0  0
   16.9254  -11.2903  -17.6198 C   0  0  1  0  0  0  0  0  0  0  0  0
   16.8268  -12.0112  -16.4569 O   0  0  0  0  0  0  0  0  0  0  0  0
   18.3592  -10.9408  -17.9721 C   0  0  2  0  0  0  0  0  0  0  0  0
   19.1206  -12.1425  -18.2208 N   0  0  0  0  0  0  0  0  0  0  0  0
   18.9060  -10.0576  -16.9406 C   0  0  0  0  0  0  0  0  0  0  0  0
   19.9563  -10.4335  -16.3402 O   0  0  0  0  0  0  0  0  0  0  0  0
   18.3669   -8.8153  -16.5492 N   0  0  0  0  0  0  0  0  0  0  0  0
   19.0715   -7.9223  -15.6186 C   0  0  1  0  0  0  0  0  0  0  0  0
   20.4653   -7.6398  -16.0855 C   0  0  0  0  0  0  0  0  0  0  0  0
   21.0824   -6.6316  -15.1947 C   0  0  0  0  0  0  0  0  0  0  0  0
   21.3778   -6.8166  -13.8426 C   0  0  0  0  0  0  0  0  0  0  0  0
   21.9306   -5.6886  -13.3646 N   0  0  0  0  0  0  0  0  0  0  0  0
   22.0205   -4.7533  -14.3336 C   0  0  0  0  0  0  0  0  0  0  0  0
   22.5033   -3.4651  -14.3352 C   0  0  0  0  0  0  0  0  0  0  0  0
   22.4525   -2.7477  -15.5178 C   0  0  0  0  0  0  0  0  0  0  0  0
   21.9271   -3.3358  -16.6455 C   0  0  0  0  0  0  0  0  0  0  0  0
   21.4455   -4.6191  -16.6466 C   0  0  0  0  0  0  0  0  0  0  0  0
   21.4876   -5.3542  -15.4717 C   0  0  0  0  0  0  0  0  0  0  0  0
   18.2657   -6.6590  -15.4951 C   0  0  0  0  0  0  0  0  0  0  0  0
   17.6252   -6.1106  -16.5828 O   0  0  0  0  0  0  0  0  0  0  0  0
   18.1566   -6.0676  -14.3855 O   0  0  0  0  0  0  0  0  0  0  0  0
  2  1  1  6
  2  3  1  0
  4  2  1  0
  4  5  1  6
  6  4  1  0
  7  6  2  0
  9 11  1  0
  9  8  1  6
 10  9  1  0
 11 12  1  1
 12  6  1  0
 13 15  1  0
 13 11  1  0
 14 13  2  0
 16 15  1  0
 16 17  1  6
 17 18  1  0
 18 26  1  0
 18 19  2  0
 19 20  1  0
 21 20  1  0
 21 22  2  0
 23 22  1  0
 24 23  2  0
 25 26  2  0
 25 24  1  0
 26 21  1  0
 27 28  1  0
 27 16  1  0
 29 27  2  0
M  END
$$$$
