VTW.pdb
     RDKit          3D

 29 30  0  0  1  0  0  0  0  0999 V2000
   29.2984  -22.8188  -15.8938 C   0  0  0  0  0  0  0  0  0  0  0  0
   28.1319  -22.5988  -16.8832 C   0  0  2  0  0  0  0  0  0  0  0  0
   28.5945  -23.2464  -18.1672 C   0  0  0  0  0  0  0  0  0  0  0  0
   27.9341  -21.1282  -16.9489 C   0  0  2  0  0  0  0  0  0  0  0  0
   29.1336  -20.5829  -17.5993 N   0  0  0  0  0  0  0  0  0  0  0  0
   27.6524  -20.4352  -15.6955 C   0  0  0  0  0  0  0  0  0  0  0  0
   28.5386  -19.5939  -15.2979 O   0  0  0  0  0  0  0  0  0  0  0  0
   25.3994  -17.9182  -14.7191 C   0  0  0  0  0  0  0  0  0  0  0  0
   25.2579  -18.9298  -13.6015 C   0  0  1  0  0  0  0  0  0  0  0  0
   24.0537  -19.5673  -13.7601 O   0  0  0  0  0  0  0  0  0  0  0  0
   26.4329  -19.8898  -13.6021 C   0  0  2  0  0  0  0  0  0  0  0  0
   26.5143  -20.5804  -14.8678 N   0  0  0  0  0  0  0  0  0  0  0  0
   26.3480  -20.7542  -12.4237 C   0  0  0  0  0  0  0  0  0  0  0  0
   26.1929  -21.9968  -12.6151 O   0  0  0  0  0  0  0  0  0  0  0  0
   26.4231  -20.3280  -11.0820 N   0  0  0  0  0  0  0  0  0  0  0  0
   26.2393  -21.2598   -9.9605 C   0  0  1  0  0  0  0  0  0  0  0  0
   27.4690  -21.3383   -9.1109 C   0  0  0  0  0  0  0  0  0  0  0  0
   27.4445  -20.2427   -8.1160 C   0  0  0  0  0  0  0  0  0  0  0  0
   26.8605  -18.9886   -8.3050 C   0  0  0  0  0  0  0  0  0  0  0  0
   27.0328  -18.2609   -7.1882 N   0  0  0  0  0  0  0  0  0  0  0  0
   27.7061  -18.9684   -6.2566 C   0  0  0  0  0  0  0  0  0  0  0  0
   28.1162  -18.6630   -4.9794 C   0  0  0  0  0  0  0  0  0  0  0  0
   28.8042  -19.6274   -4.2637 C   0  0  0  0  0  0  0  0  0  0  0  0
   29.0557  -20.8503   -4.8425 C   0  0  0  0  0  0  0  0  0  0  0  0
   28.6482  -21.1572   -6.1147 C   0  0  0  0  0  0  0  0  0  0  0  0
   27.9575  -20.2043   -6.8479 C   0  0  0  0  0  0  0  0  0  0  0  0
   25.0505  -20.7941   -9.1664 C   0  0  0  0  0  0  0  0  0  0  0  0
   24.3689  -19.6478   -9.5059 O   0  0  0  0  0  0  0  0  0  0  0  0
   24.6469  -21.4462   -8.1640 O   0  0  0  0  0  0  0  0  0  0  0  0
  2  1  1  1
  2  3  1  0
  4  2  1  0
  4  5  1  1
  6  4  1  0
  7  6  2  0
  9 11  1  0
  9  8  1  6
 10  9  1  0
 11 12  1  6
 12  6  1  0
 13 15  1  0
 13 11  1  0
 14 13  2  0
 16 15  1  0
 16 17  1  1
 17 18  1  0
 18 26  1  0
 18 19  2  0
 19 20  1  0
 21 20  1  0
 21 22  2  0
 23 22  1  0
 24 23  2  0
 25 26  2  0
 25 24  1  0
 26 21  1  0
 27 28  1  0
 27 16  1  0
 29 27  2  0
M  END
$$$$
