GTE.pdb
     RDKit          3D

 21 20  0  0  1  0  0  0  0  0999 V2000
   15.4622  -14.0115  -14.8424 N   0  0  0  0  0  0  0  0  0  0  0  0
   15.6768  -12.7217  -15.4382 C   0  0  0  0  0  0  0  0  0  0  0  0
   17.0920  -12.3829  -15.6065 C   0  0  0  0  0  0  0  0  0  0  0  0
   17.8892  -12.7010  -14.6705 O   0  0  0  0  0  0  0  0  0  0  0  0
   18.9411  -11.7541  -19.2739 C   0  0  0  0  0  0  0  0  0  0  0  0
   19.6680  -12.0578  -17.9616 C   0  0  1  0  0  0  0  0  0  0  0  0
   21.0323  -11.9210  -18.0668 O   0  0  0  0  0  0  0  0  0  0  0  0
   19.0486  -11.3535  -16.8025 C   0  0  2  0  0  0  0  0  0  0  0  0
   17.6478  -11.7193  -16.7469 N   0  0  0  0  0  0  0  0  0  0  0  0
   19.2396   -9.8947  -16.7873 C   0  0  0  0  0  0  0  0  0  0  0  0
   18.4017   -9.1897  -17.4001 O   0  0  0  0  0  0  0  0  0  0  0  0
   20.3051   -9.2410  -16.1263 N   0  0  0  0  0  0  0  0  0  0  0  0
   20.4673   -7.7709  -16.1323 C   0  0  1  0  0  0  0  0  0  0  0  0
   21.2471   -7.3521  -14.9504 C   0  0  0  0  0  0  0  0  0  0  0  0
   21.4351   -5.8901  -14.7981 C   0  0  0  0  0  0  0  0  0  0  0  0
   22.1249   -5.4460  -13.5781 C   0  0  0  0  0  0  0  0  0  0  0  0
   23.0506   -4.5896  -13.6495 O   0  0  0  0  0  0  0  0  0  0  0  0
   20.8622   -7.2262  -17.3892 C   0  0  0  0  0  0  0  0  0  0  0  0
   21.6015   -7.8787  -18.1932 O   0  0  0  0  0  0  0  0  0  0  0  0
   21.8104   -5.9240  -12.3167 O   0  0  0  0  0  0  0  0  0  0  0  0
   20.4639   -5.9549  -17.8085 O   0  0  0  0  0  0  0  0  0  0  0  0
  1  2  1  0
  2  3  1  0
  3  4  2  0
  6  5  1  6
  6  7  1  0
  6  8  1  0
  8  9  1  6
  9  3  1  0
 10  8  1  0
 10 11  2  0
 12 10  1  0
 13 12  1  0
 13 14  1  1
 14 15  1  0
 16 15  1  0
 16 20  1  0
 17 16  2  0
 18 13  1  0
 19 18  2  0
 21 18  1  0
M  END
$$$$
