GTE.pdb
     RDKit          3D

 21 20  0  0  1  0  0  0  0  0999 V2000
   12.7582  -10.1412   -9.2566 N   0  0  0  0  0  0  0  0  0  0  0  0
   14.1169   -9.8544   -8.8878 C   0  0  0  0  0  0  0  0  0  0  0  0
   14.7157   -8.7638   -9.6612 C   0  0  0  0  0  0  0  0  0  0  0  0
   14.1020   -8.3742  -10.7025 O   0  0  0  0  0  0  0  0  0  0  0  0
   15.0012   -5.3662   -8.7654 C   0  0  0  0  0  0  0  0  0  0  0  0
   16.4153   -5.7721   -9.1874 C   0  0  1  0  0  0  0  0  0  0  0  0
   17.2844   -5.8504   -8.1245 O   0  0  0  0  0  0  0  0  0  0  0  0
   16.4112   -6.9586  -10.0906 C   0  0  2  0  0  0  0  0  0  0  0  0
   15.9420   -8.1015   -9.3338 N   0  0  0  0  0  0  0  0  0  0  0  0
   17.6900   -7.2302  -10.7656 C   0  0  0  0  0  0  0  0  0  0  0  0
   18.4879   -8.0222  -10.2080 O   0  0  0  0  0  0  0  0  0  0  0  0
   18.0732   -6.6562  -11.9998 N   0  0  0  0  0  0  0  0  0  0  0  0
   19.3460   -6.9897  -12.6752 C   0  0  1  0  0  0  0  0  0  0  0  0
   19.1611   -8.1853  -13.5217 C   0  0  0  0  0  0  0  0  0  0  0  0
   20.3574   -8.6173  -14.2820 C   0  0  0  0  0  0  0  0  0  0  0  0
   20.2060   -9.8286  -15.1013 C   0  0  0  0  0  0  0  0  0  0  0  0
   19.6202  -10.8435  -14.6298 O   0  0  0  0  0  0  0  0  0  0  0  0
   20.0069   -5.8758  -13.2710 C   0  0  0  0  0  0  0  0  0  0  0  0
   19.3589   -4.8620  -13.6841 O   0  0  0  0  0  0  0  0  0  0  0  0
   20.6806   -9.9264  -16.3988 O   0  0  0  0  0  0  0  0  0  0  0  0
   21.3933   -5.8324  -13.4348 O   0  0  0  0  0  0  0  0  0  0  0  0
  1  2  1  0
  2  3  1  0
  3  4  2  0
  6  5  1  1
  6  7  1  0
  6  8  1  0
  8  9  1  1
  9  3  1  0
 10  8  1  0
 10 11  2  0
 12 10  1  0
 13 12  1  0
 13 14  1  6
 14 15  1  0
 16 15  1  0
 16 20  1  0
 17 16  2  0
 18 13  1  0
 19 18  2  0
 21 18  1  0
M  END
$$$$
