GTE.pdb
     RDKit          3D

 21 20  0  0  1  0  0  0  0  0999 V2000
   17.1636  -13.3311  -14.1281 N   0  0  0  0  0  0  0  0  0  0  0  0
   17.6897  -13.0342  -15.4318 C   0  0  0  0  0  0  0  0  0  0  0  0
   17.5745  -11.6214  -15.8018 C   0  0  0  0  0  0  0  0  0  0  0  0
   18.5729  -11.0773  -16.3672 O   0  0  0  0  0  0  0  0  0  0  0  0
   14.7858   -7.6297  -16.7573 C   0  0  0  0  0  0  0  0  0  0  0  0
   14.9501   -9.0899  -16.3289 C   0  0  1  0  0  0  0  0  0  0  0  0
   14.3136   -9.9663  -17.1761 O   0  0  0  0  0  0  0  0  0  0  0  0
   16.3693   -9.4263  -16.0193 C   0  0  2  0  0  0  0  0  0  0  0  0
   16.4209  -10.8043  -15.5749 N   0  0  0  0  0  0  0  0  0  0  0  0
   17.0318   -8.5154  -15.0727 C   0  0  0  0  0  0  0  0  0  0  0  0
   16.7531   -8.6350  -13.8550 O   0  0  0  0  0  0  0  0  0  0  0  0
   17.9603   -7.5177  -15.4495 N   0  0  0  0  0  0  0  0  0  0  0  0
   18.5752   -6.5897  -14.4758 C   0  0  1  0  0  0  0  0  0  0  0  0
   20.0365   -6.5481  -14.6835 C   0  0  0  0  0  0  0  0  0  0  0  0
   20.7848   -5.6621  -13.7609 C   0  0  0  0  0  0  0  0  0  0  0  0
   22.2263   -5.5253  -14.0156 C   0  0  0  0  0  0  0  0  0  0  0  0
   22.9311   -6.5501  -14.2358 O   0  0  0  0  0  0  0  0  0  0  0  0
   17.9072   -5.3363  -14.3527 C   0  0  0  0  0  0  0  0  0  0  0  0
   17.2903   -4.8130  -15.3347 O   0  0  0  0  0  0  0  0  0  0  0  0
   22.8776   -4.3030  -14.0298 O   0  0  0  0  0  0  0  0  0  0  0  0
   17.8907   -4.6150  -13.1568 O   0  0  0  0  0  0  0  0  0  0  0  0
  1  2  1  0
  2  3  1  0
  3  4  2  0
  6  5  1  6
  6  7  1  0
  6  8  1  0
  8  9  1  1
  9  3  1  0
 10  8  1  0
 10 11  2  0
 12 10  1  0
 13 12  1  0
 13 14  1  6
 14 15  1  0
 16 15  1  0
 16 20  1  0
 17 16  2  0
 18 13  1  0
 19 18  2  0
 21 18  1  0
M  END
$$$$
