GTE.pdb
     RDKit          3D

 21 20  0  0  1  0  0  0  0  0999 V2000
   17.7189  -15.1287  -16.0207 N   0  0  0  0  0  0  0  0  0  0  0  0
   18.0232  -13.9868  -16.8381 C   0  0  0  0  0  0  0  0  0  0  0  0
   19.0523  -13.1151  -16.2662 C   0  0  0  0  0  0  0  0  0  0  0  0
   19.0271  -12.9183  -15.0118 O   0  0  0  0  0  0  0  0  0  0  0  0
   23.4738  -11.0198  -16.2492 C   0  0  0  0  0  0  0  0  0  0  0  0
   22.3893  -11.8641  -16.9226 C   0  0  1  0  0  0  0  0  0  0  0  0
   22.7177  -13.1980  -16.9853 O   0  0  0  0  0  0  0  0  0  0  0  0
   21.0326  -11.5710  -16.3778 C   0  0  2  0  0  0  0  0  0  0  0  0
   20.0870  -12.4660  -17.0133 N   0  0  0  0  0  0  0  0  0  0  0  0
   20.6139  -10.1641  -16.4766 C   0  0  0  0  0  0  0  0  0  0  0  0
   20.3864   -9.7015  -17.6208 O   0  0  0  0  0  0  0  0  0  0  0  0
   20.4519   -9.3045  -15.3655 N   0  0  0  0  0  0  0  0  0  0  0  0
   20.1122   -7.8720  -15.5062 C   0  0  1  0  0  0  0  0  0  0  0  0
   18.7958   -7.6106  -14.8906 C   0  0  0  0  0  0  0  0  0  0  0  0
   18.3273   -6.2066  -14.9636 C   0  0  0  0  0  0  0  0  0  0  0  0
   17.0063   -5.9299  -14.3805 C   0  0  0  0  0  0  0  0  0  0  0  0
   16.3586   -6.8530  -13.8116 O   0  0  0  0  0  0  0  0  0  0  0  0
   21.1700   -6.9789  -15.1659 C   0  0  0  0  0  0  0  0  0  0  0  0
   22.1356   -7.3452  -14.4230 O   0  0  0  0  0  0  0  0  0  0  0  0
   16.4118   -4.6794  -14.4180 O   0  0  0  0  0  0  0  0  0  0  0  0
   21.2083   -5.6602  -15.6244 O   0  0  0  0  0  0  0  0  0  0  0  0
  1  2  1  0
  2  3  1  0
  3  4  2  0
  6  5  1  1
  6  7  1  0
  6  8  1  0
  8  9  1  6
  9  3  1  0
 10  8  1  0
 10 11  2  0
 12 10  1  0
 13 12  1  0
 13 14  1  1
 14 15  1  0
 16 15  1  0
 16 20  1  0
 17 16  2  0
 18 13  1  0
 19 18  2  0
 21 18  1  0
M  END
$$$$
