GTE.pdb
     RDKit          3D

 21 20  0  0  1  0  0  0  0  0999 V2000
   20.4237  -13.4920  -16.6332 N   0  0  0  0  0  0  0  0  0  0  0  0
   19.2890  -12.9713  -15.9219 C   0  0  0  0  0  0  0  0  0  0  0  0
   19.0980  -11.5298  -16.0993 C   0  0  0  0  0  0  0  0  0  0  0  0
   18.9051  -11.1019  -17.2793 O   0  0  0  0  0  0  0  0  0  0  0  0
   16.3864   -9.5008  -15.2865 C   0  0  0  0  0  0  0  0  0  0  0  0
   17.5795   -8.7832  -14.6506 C   0  0  1  0  0  0  0  0  0  0  0  0
   17.5731   -8.8576  -13.2774 O   0  0  0  0  0  0  0  0  0  0  0  0
   18.8688   -9.1580  -15.2989 C   0  0  2  0  0  0  0  0  0  0  0  0
   19.1120  -10.5632  -15.0431 N   0  0  0  0  0  0  0  0  0  0  0  0
   20.0193   -8.3210  -14.9241 C   0  0  0  0  0  0  0  0  0  0  0  0
   20.7793   -8.7443  -14.0196 O   0  0  0  0  0  0  0  0  0  0  0  0
   20.3204   -7.0740  -15.5188 N   0  0  0  0  0  0  0  0  0  0  0  0
   21.5062   -6.2745  -15.1420 C   0  0  1  0  0  0  0  0  0  0  0  0
   21.7925   -5.2821  -16.1973 C   0  0  0  0  0  0  0  0  0  0  0  0
   22.9540   -4.3983  -15.9408 C   0  0  0  0  0  0  0  0  0  0  0  0
   23.2199   -3.3632  -16.9503 C   0  0  0  0  0  0  0  0  0  0  0  0
   22.5909   -3.3695  -18.0456 O   0  0  0  0  0  0  0  0  0  0  0  0
   21.4939   -5.7987  -13.7981 C   0  0  0  0  0  0  0  0  0  0  0  0
   22.5700   -5.6510  -13.1357 O   0  0  0  0  0  0  0  0  0  0  0  0
   24.1465   -2.3501  -16.7666 O   0  0  0  0  0  0  0  0  0  0  0  0
   20.3096   -5.4692  -13.1352 O   0  0  0  0  0  0  0  0  0  0  0  0
  1  2  1  0
  2  3  1  0
  3  4  2  0
  6  5  1  6
  6  7  1  0
  6  8  1  0
  8  9  1  1
  9  3  1  0
 10  8  1  0
 10 11  2  0
 12 10  1  0
 13 12  1  0
 13 14  1  6
 14 15  1  0
 16 15  1  0
 16 20  1  0
 17 16  2  0
 18 13  1  0
 19 18  2  0
 21 18  1  0
M  END
$$$$
