GTE.pdb
     RDKit          3D

 21 20  0  0  1  0  0  0  0  0999 V2000
   13.6676  -13.5224  -14.8090 N   0  0  0  0  0  0  0  0  0  0  0  0
   13.5082  -12.3578  -13.9826 C   0  0  0  0  0  0  0  0  0  0  0  0
   13.9747  -11.1221  -14.6163 C   0  0  0  0  0  0  0  0  0  0  0  0
   14.4498  -11.2056  -15.7911 O   0  0  0  0  0  0  0  0  0  0  0  0
   13.6173   -6.3823  -15.4969 C   0  0  0  0  0  0  0  0  0  0  0  0
   13.2407   -7.6780  -14.7744 C   0  0  1  0  0  0  0  0  0  0  0  0
   12.0467   -8.2017  -15.2119 O   0  0  0  0  0  0  0  0  0  0  0  0
   14.3762   -8.6433  -14.7275 C   0  0  2  0  0  0  0  0  0  0  0  0
   13.9365   -9.8243  -14.0128 N   0  0  0  0  0  0  0  0  0  0  0  0
   15.6301   -8.1016  -14.1809 C   0  0  0  0  0  0  0  0  0  0  0  0
   15.6803   -7.8763  -12.9474 O   0  0  0  0  0  0  0  0  0  0  0  0
   16.7782   -7.8211  -14.9573 N   0  0  0  0  0  0  0  0  0  0  0  0
   17.9963   -7.2043  -14.3886 C   0  0  1  0  0  0  0  0  0  0  0  0
   19.1872   -7.9572  -14.8305 C   0  0  0  0  0  0  0  0  0  0  0  0
   20.4888   -7.4081  -14.3826 C   0  0  0  0  0  0  0  0  0  0  0  0
   21.6849   -8.1696  -14.7708 C   0  0  0  0  0  0  0  0  0  0  0  0
   22.8341   -7.7445  -14.4642 O   0  0  0  0  0  0  0  0  0  0  0  0
   18.0508   -5.7850  -14.5109 C   0  0  0  0  0  0  0  0  0  0  0  0
   17.4883   -5.1795  -15.4781 O   0  0  0  0  0  0  0  0  0  0  0  0
   21.6256   -9.3620  -15.4732 O   0  0  0  0  0  0  0  0  0  0  0  0
   18.7191   -4.9824  -13.5836 O   0  0  0  0  0  0  0  0  0  0  0  0
  1  2  1  0
  2  3  1  0
  3  4  2  0
  6  5  1  6
  6  7  1  0
  6  8  1  0
  8  9  1  1
  9  3  1  0
 10  8  1  0
 10 11  2  0
 12 10  1  0
 13 12  1  0
 13 14  1  6
 14 15  1  0
 16 15  1  0
 16 20  1  0
 17 16  2  0
 18 13  1  0
 19 18  2  0
 21 18  1  0
M  END
$$$$
