GTE.pdb
     RDKit          3D

 21 20  0  0  1  0  0  0  0  0999 V2000
   24.9488  -20.4946  -15.6680 N   0  0  0  0  0  0  0  0  0  0  0  0
   24.6586  -19.4008  -16.5535 C   0  0  0  0  0  0  0  0  0  0  0  0
   24.4712  -18.1225  -15.8629 C   0  0  0  0  0  0  0  0  0  0  0  0
   24.9880  -17.9945  -14.7099 O   0  0  0  0  0  0  0  0  0  0  0  0
   26.1256  -16.2666  -14.9536 C   0  0  0  0  0  0  0  0  0  0  0  0
   25.2589  -15.2799  -15.7396 C   0  0  1  0  0  0  0  0  0  0  0  0
   25.8000  -14.9547  -16.9613 O   0  0  0  0  0  0  0  0  0  0  0  0
   23.8270  -15.6946  -15.7715 C   0  0  2  0  0  0  0  0  0  0  0  0
   23.7488  -17.0034  -16.3879 N   0  0  0  0  0  0  0  0  0  0  0  0
   22.9146  -14.7300  -16.4054 C   0  0  0  0  0  0  0  0  0  0  0  0
   22.7837  -14.7826  -17.6524 O   0  0  0  0  0  0  0  0  0  0  0  0
   22.1784  -13.7515  -15.6983 N   0  0  0  0  0  0  0  0  0  0  0  0
   21.2874  -12.7812  -16.3706 C   0  0  1  0  0  0  0  0  0  0  0  0
   19.9233  -12.8922  -15.8162 C   0  0  0  0  0  0  0  0  0  0  0  0
   19.2250  -14.1688  -16.0964 C   0  0  0  0  0  0  0  0  0  0  0  0
   17.8210  -14.2506  -15.6681 C   0  0  0  0  0  0  0  0  0  0  0  0
   17.2958  -13.2945  -15.0314 O   0  0  0  0  0  0  0  0  0  0  0  0
   21.8285  -11.4676  -16.4892 C   0  0  0  0  0  0  0  0  0  0  0  0
   22.9245  -11.1474  -15.9281 O   0  0  0  0  0  0  0  0  0  0  0  0
   17.0147  -15.3461  -15.9295 O   0  0  0  0  0  0  0  0  0  0  0  0
   21.1926  -10.4633  -17.2225 O   0  0  0  0  0  0  0  0  0  0  0  0
  1  2  1  0
  2  3  1  0
  3  4  2  0
  6  5  1  6
  6  7  1  0
  6  8  1  0
  8  9  1  6
  9  3  1  0
 10  8  1  0
 10 11  2  0
 12 10  1  0
 13 12  1  0
 13 14  1  1
 14 15  1  0
 16 15  1  0
 16 20  1  0
 17 16  2  0
 18 13  1  0
 19 18  2  0
 21 18  1  0
M  END
$$$$
