GTE.pdb
     RDKit          3D

 21 20  0  0  1  0  0  0  0  0999 V2000
   20.8363  -13.4232  -19.2332 N   0  0  0  0  0  0  0  0  0  0  0  0
   21.7407  -12.3675  -18.8699 C   0  0  0  0  0  0  0  0  0  0  0  0
   21.0777  -11.2137  -18.2572 C   0  0  0  0  0  0  0  0  0  0  0  0
   20.3038  -10.5220  -18.9889 O   0  0  0  0  0  0  0  0  0  0  0  0
   18.6759  -11.2307  -15.5609 C   0  0  0  0  0  0  0  0  0  0  0  0
   19.7167  -10.1790  -15.1694 C   0  0  1  0  0  0  0  0  0  0  0  0
   20.4785  -10.5622  -14.0906 O   0  0  0  0  0  0  0  0  0  0  0  0
   20.4884   -9.6893  -16.3475 C   0  0  2  0  0  0  0  0  0  0  0  0
   21.2348  -10.8042  -16.8943 N   0  0  0  0  0  0  0  0  0  0  0  0
   21.3478   -8.5240  -16.0867 C   0  0  0  0  0  0  0  0  0  0  0  0
   22.5898   -8.6845  -16.1677 O   0  0  0  0  0  0  0  0  0  0  0  0
   20.8619   -7.2388  -15.7524 N   0  0  0  0  0  0  0  0  0  0  0  0
   21.7560   -6.1017  -15.4441 C   0  0  1  0  0  0  0  0  0  0  0  0
   21.5752   -5.0394  -16.4537 C   0  0  0  0  0  0  0  0  0  0  0  0
   22.3443   -3.7958  -16.2128 C   0  0  0  0  0  0  0  0  0  0  0  0
   22.1215   -2.6978  -17.1646 C   0  0  0  0  0  0  0  0  0  0  0  0
   21.3449   -2.8589  -18.1477 O   0  0  0  0  0  0  0  0  0  0  0  0
   21.7465   -5.6978  -14.0768 C   0  0  0  0  0  0  0  0  0  0  0  0
   22.6381   -4.9211  -13.6074 O   0  0  0  0  0  0  0  0  0  0  0  0
   22.7299   -1.4593  -17.0441 O   0  0  0  0  0  0  0  0  0  0  0  0
   20.7659   -6.1274  -13.1799 O   0  0  0  0  0  0  0  0  0  0  0  0
  1  2  1  0
  2  3  1  0
  3  4  2  0
  6  5  1  6
  6  7  1  0
  6  8  1  0
  8  9  1  1
  9  3  1  0
 10  8  1  0
 10 11  2  0
 12 10  1  0
 13 12  1  0
 13 14  1  6
 14 15  1  0
 16 15  1  0
 16 20  1  0
 17 16  2  0
 18 13  1  0
 19 18  2  0
 21 18  1  0
M  END
$$$$
