GTE.pdb
     RDKit          3D

 21 20  0  0  1  0  0  0  0  0999 V2000
   23.5299  -14.8280  -19.0107 N   0  0  0  0  0  0  0  0  0  0  0  0
   24.2071  -13.5761  -19.2074 C   0  0  0  0  0  0  0  0  0  0  0  0
   24.2715  -12.7494  -17.9997 C   0  0  0  0  0  0  0  0  0  0  0  0
   23.3977  -12.9510  -17.1005 O   0  0  0  0  0  0  0  0  0  0  0  0
   27.2489   -9.7212  -17.3755 C   0  0  0  0  0  0  0  0  0  0  0  0
   26.5900  -10.4901  -16.2278 C   0  0  1  0  0  0  0  0  0  0  0  0
   26.7359   -9.8601  -15.0142 O   0  0  0  0  0  0  0  0  0  0  0  0
   25.1980  -10.9086  -16.5606 C   0  0  2  0  0  0  0  0  0  0  0  0
   25.2455  -11.7292  -17.7536 N   0  0  0  0  0  0  0  0  0  0  0  0
   24.2311   -9.8068  -16.6860 C   0  0  0  0  0  0  0  0  0  0  0  0
   24.0657   -9.3016  -17.8227 O   0  0  0  0  0  0  0  0  0  0  0  0
   23.4789   -9.2848  -15.6083 N   0  0  0  0  0  0  0  0  0  0  0  0
   22.4691   -8.2182  -15.7812 C   0  0  1  0  0  0  0  0  0  0  0  0
   21.4105   -8.6804  -16.7010 C   0  0  0  0  0  0  0  0  0  0  0  0
   20.3337   -7.7000  -16.9752 C   0  0  0  0  0  0  0  0  0  0  0  0
   19.2493   -8.1536  -17.8582 C   0  0  0  0  0  0  0  0  0  0  0  0
   19.2524   -9.3325  -18.3116 O   0  0  0  0  0  0  0  0  0  0  0  0
   22.0431   -7.6067  -14.5659 C   0  0  0  0  0  0  0  0  0  0  0  0
   22.3449   -8.0999  -13.4327 O   0  0  0  0  0  0  0  0  0  0  0  0
   18.1918   -7.3416  -18.2334 O   0  0  0  0  0  0  0  0  0  0  0  0
   21.2759   -6.4398  -14.5479 O   0  0  0  0  0  0  0  0  0  0  0  0
  1  2  1  0
  2  3  1  0
  3  4  2  0
  6  5  1  6
  6  7  1  0
  6  8  1  0
  8  9  1  6
  9  3  1  0
 10  8  1  0
 10 11  2  0
 12 10  1  0
 13 12  1  0
 13 14  1  1
 14 15  1  0
 16 15  1  0
 16 20  1  0
 17 16  2  0
 18 13  1  0
 19 18  2  0
 21 18  1  0
M  END
$$$$
