GTE.pdb
     RDKit          3D

 21 20  0  0  1  0  0  0  0  0999 V2000
   16.9757  -14.0018  -14.7225 N   0  0  0  0  0  0  0  0  0  0  0  0
   16.2335  -12.8304  -14.3464 C   0  0  0  0  0  0  0  0  0  0  0  0
   16.6037  -11.6339  -15.1063 C   0  0  0  0  0  0  0  0  0  0  0  0
   17.6467  -11.6940  -15.8284 O   0  0  0  0  0  0  0  0  0  0  0  0
   15.5782   -7.5577  -17.5454 C   0  0  0  0  0  0  0  0  0  0  0  0
   15.1911   -8.7652  -16.6882 C   0  0  1  0  0  0  0  0  0  0  0  0
   14.5355   -9.7375  -17.4064 O   0  0  0  0  0  0  0  0  0  0  0  0
   16.3307   -9.2510  -15.8583 C   0  0  2  0  0  0  0  0  0  0  0  0
   15.8795  -10.3989  -15.0981 N   0  0  0  0  0  0  0  0  0  0  0  0
   16.9544   -8.2310  -15.0009 C   0  0  0  0  0  0  0  0  0  0  0  0
   16.3830   -7.9479  -13.9201 O   0  0  0  0  0  0  0  0  0  0  0  0
   18.1540   -7.5531  -15.3185 N   0  0  0  0  0  0  0  0  0  0  0  0
   18.7010   -6.4625  -14.4825 C   0  0  1  0  0  0  0  0  0  0  0  0
   20.1728   -6.5687  -14.4278 C   0  0  0  0  0  0  0  0  0  0  0  0
   20.8561   -5.5260  -13.6266 C   0  0  0  0  0  0  0  0  0  0  0  0
   22.3225   -5.4865  -13.7244 C   0  0  0  0  0  0  0  0  0  0  0  0
   22.9369   -4.3903  -13.5967 O   0  0  0  0  0  0  0  0  0  0  0  0
   18.1592   -5.1744  -14.7650 C   0  0  0  0  0  0  0  0  0  0  0  0
   17.9289   -4.7977  -15.9581 O   0  0  0  0  0  0  0  0  0  0  0  0
   23.0943   -6.6134  -13.9544 O   0  0  0  0  0  0  0  0  0  0  0  0
   17.8519   -4.2580  -13.7569 O   0  0  0  0  0  0  0  0  0  0  0  0
  1  2  1  0
  2  3  1  0
  3  4  2  0
  6  5  1  6
  6  7  1  0
  6  8  1  0
  8  9  1  1
  9  3  1  0
 10  8  1  0
 10 11  2  0
 12 10  1  0
 13 12  1  0
 13 14  1  6
 14 15  1  0
 16 15  1  0
 16 20  1  0
 17 16  2  0
 18 13  1  0
 19 18  2  0
 21 18  1  0
M  END
$$$$
