GTE.pdb
     RDKit          3D

 21 20  0  0  1  0  0  0  0  0999 V2000
   16.2881  -14.7734  -15.7927 N   0  0  0  0  0  0  0  0  0  0  0  0
   16.4119  -13.4221  -16.2653 C   0  0  0  0  0  0  0  0  0  0  0  0
   17.7188  -12.8218  -15.9863 C   0  0  0  0  0  0  0  0  0  0  0  0
   18.1716  -12.9200  -14.8039 O   0  0  0  0  0  0  0  0  0  0  0  0
   20.9570  -13.7465  -17.2394 C   0  0  0  0  0  0  0  0  0  0  0  0
   20.8442  -12.2400  -17.4849 C   0  0  1  0  0  0  0  0  0  0  0  0
   20.7312  -11.9268  -18.8192 O   0  0  0  0  0  0  0  0  0  0  0  0
   19.8302  -11.6023  -16.5968 C   0  0  2  0  0  0  0  0  0  0  0  0
   18.5272  -12.1314  -16.9452 N   0  0  0  0  0  0  0  0  0  0  0  0
   19.8458  -10.1312  -16.5919 C   0  0  0  0  0  0  0  0  0  0  0  0
   18.9907   -9.5358  -17.2913 O   0  0  0  0  0  0  0  0  0  0  0  0
   20.7614   -9.3499  -15.8496 N   0  0  0  0  0  0  0  0  0  0  0  0
   20.7681   -7.8715  -15.8916 C   0  0  1  0  0  0  0  0  0  0  0  0
   21.5100   -7.3447  -14.7286 C   0  0  0  0  0  0  0  0  0  0  0  0
   21.5598   -5.8675  -14.6224 C   0  0  0  0  0  0  0  0  0  0  0  0
   22.3626   -5.3208  -13.5187 C   0  0  0  0  0  0  0  0  0  0  0  0
   22.4354   -5.9405  -12.4204 O   0  0  0  0  0  0  0  0  0  0  0  0
   21.0923   -7.3191  -17.1652 C   0  0  0  0  0  0  0  0  0  0  0  0
   22.0599   -7.7695  -17.8578 O   0  0  0  0  0  0  0  0  0  0  0  0
   23.0659   -4.1313  -13.6140 O   0  0  0  0  0  0  0  0  0  0  0  0
   20.3728   -6.2600  -17.7230 O   0  0  0  0  0  0  0  0  0  0  0  0
  1  2  1  0
  2  3  1  0
  3  4  2  0
  6  5  1  6
  6  7  1  0
  6  8  1  0
  8  9  1  6
  9  3  1  0
 10  8  1  0
 10 11  2  0
 12 10  1  0
 13 12  1  0
 13 14  1  1
 14 15  1  0
 16 15  1  0
 16 20  1  0
 17 16  2  0
 18 13  1  0
 19 18  2  0
 21 18  1  0
M  END
$$$$
