GTE.pdb
     RDKit          3D

 21 20  0  0  1  0  0  0  0  0999 V2000
   14.6561  -13.4799  -13.2101 N   0  0  0  0  0  0  0  0  0  0  0  0
   15.3364  -12.9035  -12.0833 C   0  0  0  0  0  0  0  0  0  0  0  0
   15.1851  -11.4494  -11.9893 C   0  0  0  0  0  0  0  0  0  0  0  0
   15.0054  -10.8049  -13.0687 O   0  0  0  0  0  0  0  0  0  0  0  0
   13.8603   -9.6440   -8.6052 C   0  0  0  0  0  0  0  0  0  0  0  0
   13.8618   -8.9223   -9.9550 C   0  0  1  0  0  0  0  0  0  0  0  0
   13.5895   -7.5794   -9.8390 O   0  0  0  0  0  0  0  0  0  0  0  0
   15.0670   -9.2562  -10.7670 C   0  0  2  0  0  0  0  0  0  0  0  0
   15.2241  -10.6965  -10.7722 N   0  0  0  0  0  0  0  0  0  0  0  0
   16.3014   -8.5673  -10.3594 C   0  0  0  0  0  0  0  0  0  0  0  0
   17.0077   -9.1091   -9.4749 O   0  0  0  0  0  0  0  0  0  0  0  0
   16.7394   -7.3370  -10.9017 N   0  0  0  0  0  0  0  0  0  0  0  0
   17.9596   -6.6458  -10.4318 C   0  0  1  0  0  0  0  0  0  0  0  0
   18.9902   -6.6831  -11.4887 C   0  0  0  0  0  0  0  0  0  0  0  0
   20.3105   -6.1274  -11.1092 C   0  0  0  0  0  0  0  0  0  0  0  0
   21.3375   -6.1129  -12.1611 C   0  0  0  0  0  0  0  0  0  0  0  0
   21.9493   -5.0424  -12.4349 O   0  0  0  0  0  0  0  0  0  0  0  0
   17.7211   -5.3851   -9.8104 C   0  0  0  0  0  0  0  0  0  0  0  0
   16.7890   -4.6151  -10.2065 O   0  0  0  0  0  0  0  0  0  0  0  0
   21.6856   -7.2371  -12.8916 O   0  0  0  0  0  0  0  0  0  0  0  0
   18.4901   -4.9250   -8.7392 O   0  0  0  0  0  0  0  0  0  0  0  0
  1  2  1  0
  2  3  1  0
  3  4  2  0
  6  5  1  1
  6  7  1  0
  6  8  1  0
  8  9  1  1
  9  3  1  0
 10  8  1  0
 10 11  2  0
 12 10  1  0
 13 12  1  0
 13 14  1  6
 14 15  1  0
 16 15  1  0
 16 20  1  0
 17 16  2  0
 18 13  1  0
 19 18  2  0
 21 18  1  0
M  END
$$$$
