GTE.pdb
     RDKit          3D

 21 20  0  0  1  0  0  0  0  0999 V2000
   24.9542  -20.3375   -8.6368 N   0  0  0  0  0  0  0  0  0  0  0  0
   25.0981  -21.2471   -9.7397 C   0  0  0  0  0  0  0  0  0  0  0  0
   25.3532  -20.5804  -11.0189 C   0  0  0  0  0  0  0  0  0  0  0  0
   25.4741  -19.3162  -11.0105 O   0  0  0  0  0  0  0  0  0  0  0  0
   27.2780  -20.4517  -15.4867 C   0  0  0  0  0  0  0  0  0  0  0  0
   26.8655  -21.1976  -14.2154 C   0  0  1  0  0  0  0  0  0  0  0  0
   27.9402  -21.5420  -13.4298 O   0  0  0  0  0  0  0  0  0  0  0  0
   25.7522  -20.5108  -13.4997 C   0  0  2  0  0  0  0  0  0  0  0  0
   25.4771  -21.2447  -12.2811 N   0  0  0  0  0  0  0  0  0  0  0  0
   24.5373  -20.2955  -14.3011 C   0  0  0  0  0  0  0  0  0  0  0  0
   23.8124  -21.2912  -14.5416 O   0  0  0  0  0  0  0  0  0  0  0  0
   24.1377  -19.0400  -14.8145 N   0  0  0  0  0  0  0  0  0  0  0  0
   22.8814  -18.8494  -15.5713 C   0  0  1  0  0  0  0  0  0  0  0  0
   22.5652  -17.4094  -15.6549 C   0  0  0  0  0  0  0  0  0  0  0  0
   21.3509  -17.0693  -16.4332 C   0  0  0  0  0  0  0  0  0  0  0  0
   21.0683  -15.6369  -16.6061 C   0  0  0  0  0  0  0  0  0  0  0  0
   21.6236  -14.9893  -17.5376 O   0  0  0  0  0  0  0  0  0  0  0  0
   22.8038  -19.5963  -16.7832 C   0  0  0  0  0  0  0  0  0  0  0  0
   23.7851  -19.6559  -17.5907 O   0  0  0  0  0  0  0  0  0  0  0  0
   20.2028  -14.9338  -15.7845 O   0  0  0  0  0  0  0  0  0  0  0  0
   21.6556  -20.3007  -17.1520 O   0  0  0  0  0  0  0  0  0  0  0  0
  1  2  1  0
  2  3  1  0
  3  4  2  0
  6  5  1  6
  6  7  1  0
  6  8  1  0
  8  9  1  1
  9  3  1  0
 10  8  1  0
 10 11  2  0
 12 10  1  0
 13 12  1  0
 13 14  1  6
 14 15  1  0
 16 15  1  0
 16 20  1  0
 17 16  2  0
 18 13  1  0
 19 18  2  0
 21 18  1  0
M  END
$$$$
