GTE.pdb
     RDKit          3D

 21 20  0  0  1  0  0  0  0  0999 V2000
   15.6105  -13.8816  -15.3208 N   0  0  0  0  0  0  0  0  0  0  0  0
   15.8697  -12.5347  -15.7487 C   0  0  0  0  0  0  0  0  0  0  0  0
   17.2582  -12.1133  -15.5472 C   0  0  0  0  0  0  0  0  0  0  0  0
   17.7652  -12.2869  -14.3959 O   0  0  0  0  0  0  0  0  0  0  0  0
   20.3484  -13.3036  -17.0731 C   0  0  0  0  0  0  0  0  0  0  0  0
   20.3553  -11.7818  -17.2363 C   0  0  1  0  0  0  0  0  0  0  0  0
   20.2000  -11.3877  -18.5446 O   0  0  0  0  0  0  0  0  0  0  0  0
   19.4495  -11.1099  -16.2609 C   0  0  2  0  0  0  0  0  0  0  0  0
   18.0901  -11.5195  -16.5497 N   0  0  0  0  0  0  0  0  0  0  0  0
   19.5833   -9.6462  -16.1949 C   0  0  0  0  0  0  0  0  0  0  0  0
   18.7445   -8.9544  -16.8215 O   0  0  0  0  0  0  0  0  0  0  0  0
   20.5948   -8.9738  -15.4708 N   0  0  0  0  0  0  0  0  0  0  0  0
   20.7660   -7.5054  -15.5130 C   0  0  1  0  0  0  0  0  0  0  0  0
   21.4180   -7.0451  -14.2707 C   0  0  0  0  0  0  0  0  0  0  0  0
   21.7309   -5.5977  -14.2154 C   0  0  0  0  0  0  0  0  0  0  0  0
   22.3481   -5.1120  -12.9726 C   0  0  0  0  0  0  0  0  0  0  0  0
   22.9305   -3.9914  -12.9500 O   0  0  0  0  0  0  0  0  0  0  0  0
   21.2960   -7.0084  -16.7396 C   0  0  0  0  0  0  0  0  0  0  0  0
   20.8991   -5.9066  -17.2368 O   0  0  0  0  0  0  0  0  0  0  0  0
   22.3280   -5.8308  -11.7888 O   0  0  0  0  0  0  0  0  0  0  0  0
   22.2740   -7.6961  -17.4616 O   0  0  0  0  0  0  0  0  0  0  0  0
  1  2  1  0
  2  3  1  0
  3  4  2  0
  6  5  1  6
  6  7  1  0
  6  8  1  0
  8  9  1  6
  9  3  1  0
 10  8  1  0
 10 11  2  0
 12 10  1  0
 13 12  1  0
 13 14  1  1
 14 15  1  0
 16 15  1  0
 16 20  1  0
 17 16  2  0
 18 13  1  0
 19 18  2  0
 21 18  1  0
M  END
$$$$
