GQW.pdb
     RDKit          3D

 28 29  0  0  1  0  0  0  0  0999 V2000
    6.9107  -20.2320   21.3683 N   0  0  0  0  0  0  0  0  0  0  0  0
    6.4221  -18.9988   21.9405 C   0  0  0  0  0  0  0  0  0  0  0  0
    7.2448  -17.8636   21.4568 C   0  0  0  0  0  0  0  0  0  0  0  0
    8.3139  -18.1364   20.8299 O   0  0  0  0  0  0  0  0  0  0  0  0
    7.2412  -13.6108   18.3217 N   0  0  0  0  0  0  0  0  0  0  0  0
    8.3503  -13.2990   19.1350 C   0  0  0  0  0  0  0  0  0  0  0  0
    9.5134  -13.1953   18.6994 O   0  0  0  0  0  0  0  0  0  0  0  0
    8.0276  -13.0931   20.6100 C   0  0  0  0  0  0  0  0  0  0  0  0
    7.1358  -14.1941   21.0387 C   0  0  0  0  0  0  0  0  0  0  0  0
    7.8870  -15.4876   21.2599 C   0  0  2  0  0  0  0  0  0  0  0  0
    6.8916  -16.5113   21.6624 N   0  0  0  0  0  0  0  0  0  0  0  0
    8.8220  -15.3538   22.3712 C   0  0  0  0  0  0  0  0  0  0  0  0
    9.8423  -14.5911   22.2115 O   0  0  0  0  0  0  0  0  0  0  0  0
    8.7437  -15.9681   23.6400 N   0  0  0  0  0  0  0  0  0  0  0  0
    9.7579  -15.7289   24.6685 C   0  0  1  0  0  0  0  0  0  0  0  0
    9.1259  -15.7343   26.0275 C   0  0  0  0  0  0  0  0  0  0  0  0
    7.8247  -15.0440   26.0342 C   0  0  0  0  0  0  0  0  0  0  0  0
    6.5628  -15.6200   25.8282 C   0  0  0  0  0  0  0  0  0  0  0  0
    5.6015  -14.6875   25.8645 N   0  0  0  0  0  0  0  0  0  0  0  0
    6.1838  -13.4834   26.0926 C   0  0  0  0  0  0  0  0  0  0  0  0
    5.6299  -12.2171   26.2350 C   0  0  0  0  0  0  0  0  0  0  0  0
    6.4874  -11.1774   26.4869 C   0  0  0  0  0  0  0  0  0  0  0  0
    7.8560  -11.3577   26.5992 C   0  0  0  0  0  0  0  0  0  0  0  0
    8.3828  -12.6060   26.4560 C   0  0  0  0  0  0  0  0  0  0  0  0
    7.5448  -13.6846   26.1992 C   0  0  0  0  0  0  0  0  0  0  0  0
   10.8830  -16.6196   24.4599 C   0  0  0  0  0  0  0  0  0  0  0  0
   10.9511  -17.6130   23.4683 O   0  0  0  0  0  0  0  0  0  0  0  0
   11.9137  -16.5546   25.1966 O   0  0  0  0  0  0  0  0  0  0  0  0
  1  2  1  0
  2  3  1  0
  3  4  2  0
  5  6  1  0
  6  8  1  0
  7  6  2  0
  8  9  1  0
 10  9  1  1
 11 10  1  0
 11  3  1  0
 12 14  1  0
 12 10  1  0
 13 12  2  0
 15 14  1  0
 15 16  1  1
 17 18  2  0
 17 16  1  0
 19 18  1  0
 20 25  2  0
 20 19  1  0
 21 20  1  0
 22 21  2  0
 22 23  1  0
 23 24  2  0
 24 25  1  0
 25 17  1  0
 26 27  1  0
 26 15  1  0
 28 26  2  0
M  END
$$$$
