GQW.pdb
     RDKit          3D

 28 29  0  0  1  0  0  0  0  0999 V2000
    6.8741  -20.0269   20.3797 N   0  0  0  0  0  0  0  0  0  0  0  0
    6.6956  -18.9787   21.3576 C   0  0  0  0  0  0  0  0  0  0  0  0
    7.8079  -18.0032   21.2525 C   0  0  0  0  0  0  0  0  0  0  0  0
    8.9453  -18.4431   20.9016 O   0  0  0  0  0  0  0  0  0  0  0  0
    8.3591  -12.1774   19.6038 N   0  0  0  0  0  0  0  0  0  0  0  0
    7.7792  -13.2076   18.8349 C   0  0  0  0  0  0  0  0  0  0  0  0
    7.2650  -13.0219   17.7149 O   0  0  0  0  0  0  0  0  0  0  0  0
    7.8229  -14.5897   19.4754 C   0  0  0  0  0  0  0  0  0  0  0  0
    8.4215  -14.4485   20.8219 C   0  0  0  0  0  0  0  0  0  0  0  0
    8.8641  -15.7760   21.3948 C   0  0  2  0  0  0  0  0  0  0  0  0
    7.6544  -16.6253   21.5229 N   0  0  0  0  0  0  0  0  0  0  0  0
    9.3969  -15.6013   22.7411 C   0  0  0  0  0  0  0  0  0  0  0  0
   10.2050  -14.6251   22.9471 O   0  0  0  0  0  0  0  0  0  0  0  0
    9.1254  -16.3868   23.8824 N   0  0  0  0  0  0  0  0  0  0  0  0
    9.8234  -16.1604   25.1494 C   0  0  1  0  0  0  0  0  0  0  0  0
    8.8566  -16.2379   26.2921 C   0  0  0  0  0  0  0  0  0  0  0  0
    7.6983  -15.3493   26.0967 C   0  0  0  0  0  0  0  0  0  0  0  0
    6.4176  -15.7163   25.6587 C   0  0  0  0  0  0  0  0  0  0  0  0
    5.6222  -14.6428   25.5584 N   0  0  0  0  0  0  0  0  0  0  0  0
    6.3364  -13.5476   25.9211 C   0  0  0  0  0  0  0  0  0  0  0  0
    5.9706  -12.2098   26.0061 C   0  0  0  0  0  0  0  0  0  0  0  0
    6.9225  -11.3209   26.4343 C   0  0  0  0  0  0  0  0  0  0  0  0
    8.2052  -11.7171   26.7745 C   0  0  0  0  0  0  0  0  0  0  0  0
    8.5476  -13.0328   26.6847 C   0  0  0  0  0  0  0  0  0  0  0  0
    7.6094  -13.9633   26.2538 C   0  0  0  0  0  0  0  0  0  0  0  0
   10.9965  -17.0100   25.2180 C   0  0  0  0  0  0  0  0  0  0  0  0
   11.3476  -17.9775   24.2614 O   0  0  0  0  0  0  0  0  0  0  0  0
   11.8060  -16.9295   26.1915 O   0  0  0  0  0  0  0  0  0  0  0  0
  1  2  1  0
  2  3  1  0
  3  4  2  0
  5  6  1  0
  6  8  1  0
  7  6  2  0
  8  9  1  0
 10  9  1  1
 11 10  1  0
 11  3  1  0
 12 14  1  0
 12 10  1  0
 13 12  2  0
 15 14  1  0
 15 16  1  1
 17 18  2  0
 17 16  1  0
 19 18  1  0
 20 25  2  0
 20 19  1  0
 21 20  1  0
 22 21  2  0
 22 23  1  0
 23 24  2  0
 24 25  1  0
 25 17  1  0
 26 27  1  0
 26 15  1  0
 28 26  2  0
M  END
$$$$
