GQW.pdb
     RDKit          3D

 28 29  0  0  1  0  0  0  0  0999 V2000
    5.6151  -15.5964   19.3018 N   0  0  0  0  0  0  0  0  0  0  0  0
    6.7436  -15.0137   19.9903 C   0  0  0  0  0  0  0  0  0  0  0  0
    7.3784  -16.0335   20.8601 C   0  0  0  0  0  0  0  0  0  0  0  0
    6.7651  -17.1325   21.0229 O   0  0  0  0  0  0  0  0  0  0  0  0
   13.0179  -17.8761   20.6092 N   0  0  0  0  0  0  0  0  0  0  0  0
   12.4162  -16.6124   20.7817 C   0  0  0  0  0  0  0  0  0  0  0  0
   13.0535  -15.5836   21.0797 O   0  0  0  0  0  0  0  0  0  0  0  0
   10.9065  -16.5863   20.5761 C   0  0  0  0  0  0  0  0  0  0  0  0
   10.3029  -17.5614   21.5120 C   0  0  0  0  0  0  0  0  0  0  0  0
    9.1553  -16.9676   22.2976 C   0  0  2  0  0  0  0  0  0  0  0  0
    8.6193  -15.8340   21.5048 N   0  0  0  0  0  0  0  0  0  0  0  0
    9.6315  -16.4086   23.5576 C   0  0  0  0  0  0  0  0  0  0  0  0
   10.2935  -15.3093   23.5168 O   0  0  0  0  0  0  0  0  0  0  0  0
    9.4472  -16.9326   24.8555 N   0  0  0  0  0  0  0  0  0  0  0  0
   10.0401  -16.2904   26.0301 C   0  0  1  0  0  0  0  0  0  0  0  0
    9.0058  -16.1178   27.1010 C   0  0  0  0  0  0  0  0  0  0  0  0
    7.8322  -15.3691   26.6199 C   0  0  0  0  0  0  0  0  0  0  0  0
    6.6807  -15.8993   26.0202 C   0  0  0  0  0  0  0  0  0  0  0  0
    5.8320  -14.9230   25.6716 N   0  0  0  0  0  0  0  0  0  0  0  0
    6.3826  -13.7338   26.0232 C   0  0  0  0  0  0  0  0  0  0  0  0
    5.9024  -12.4360   25.8975 C   0  0  0  0  0  0  0  0  0  0  0  0
    6.6913  -11.4216   26.3754 C   0  0  0  0  0  0  0  0  0  0  0  0
    7.9225  -11.6567   26.9643 C   0  0  0  0  0  0  0  0  0  0  0  0
    8.3790  -12.9352   27.0789 C   0  0  0  0  0  0  0  0  0  0  0  0
    7.6073  -13.9897   26.6052 C   0  0  0  0  0  0  0  0  0  0  0  0
   11.2623  -16.9790   26.3971 C   0  0  0  0  0  0  0  0  0  0  0  0
   12.2418  -16.4728   27.2683 O   0  0  0  0  0  0  0  0  0  0  0  0
   11.5326  -18.1262   25.9277 O   0  0  0  0  0  0  0  0  0  0  0  0
  1  2  1  0
  2  3  1  0
  3  4  2  0
  5  6  1  0
  6  8  1  0
  7  6  2  0
  8  9  1  0
 10  9  1  6
 11 10  1  0
 11  3  1  0
 12 14  1  0
 12 10  1  0
 13 12  2  0
 15 14  1  0
 15 16  1  1
 17 18  2  0
 17 16  1  0
 19 18  1  0
 20 25  2  0
 20 19  1  0
 21 20  1  0
 22 21  2  0
 22 23  1  0
 23 24  2  0
 24 25  1  0
 25 17  1  0
 26 27  1  0
 26 15  1  0
 28 26  2  0
M  END
$$$$
