GQW.pdb
     RDKit          3D

 28 29  0  0  1  0  0  0  0  0999 V2000
    7.2526  -13.0976   18.3076 N   0  0  0  0  0  0  0  0  0  0  0  0
    8.5179  -13.3647   18.9517 C   0  0  0  0  0  0  0  0  0  0  0  0
    8.3861  -14.5444   19.8408 C   0  0  0  0  0  0  0  0  0  0  0  0
    7.2210  -14.8582   20.2337 O   0  0  0  0  0  0  0  0  0  0  0  0
   11.0469  -19.9638   20.3223 N   0  0  0  0  0  0  0  0  0  0  0  0
   11.9091  -18.8758   20.0741 C   0  0  0  0  0  0  0  0  0  0  0  0
   13.1245  -19.0049   19.8302 O   0  0  0  0  0  0  0  0  0  0  0  0
   11.2449  -17.5052   20.1245 C   0  0  0  0  0  0  0  0  0  0  0  0
    9.8101  -17.7058   20.4284 C   0  0  0  0  0  0  0  0  0  0  0  0
    9.1942  -16.5035   21.1078 C   0  0  2  0  0  0  0  0  0  0  0  0
    9.4885  -15.3211   20.2615 N   0  0  0  0  0  0  0  0  0  0  0  0
    9.8295  -16.2626   22.3983 C   0  0  0  0  0  0  0  0  0  0  0  0
   11.0111  -15.7605   22.4037 O   0  0  0  0  0  0  0  0  0  0  0  0
    9.2939  -16.5116   23.6807 N   0  0  0  0  0  0  0  0  0  0  0  0
   10.0276  -16.1572   24.8971 C   0  0  1  0  0  0  0  0  0  0  0  0
    9.7255  -14.7421   25.2880 C   0  0  0  0  0  0  0  0  0  0  0  0
    8.2870  -14.5289   25.5222 C   0  0  0  0  0  0  0  0  0  0  0  0
    7.2513  -15.4492   25.3057 C   0  0  0  0  0  0  0  0  0  0  0  0
    6.0612  -14.9030   25.5893 N   0  0  0  0  0  0  0  0  0  0  0  0
    6.2649  -13.6250   25.9970 C   0  0  0  0  0  0  0  0  0  0  0  0
    5.3685  -12.6501   26.4174 C   0  0  0  0  0  0  0  0  0  0  0  0
    5.8855  -11.4382   26.7968 C   0  0  0  0  0  0  0  0  0  0  0  0
    7.2445  -11.1727   26.7705 C   0  0  0  0  0  0  0  0  0  0  0  0
    8.1097  -12.1396   26.3548 C   0  0  0  0  0  0  0  0  0  0  0  0
    7.6225  -13.3805   25.9618 C   0  0  0  0  0  0  0  0  0  0  0  0
    9.8223  -17.1790   25.9053 C   0  0  0  0  0  0  0  0  0  0  0  0
    9.0000  -18.3082   25.7521 O   0  0  0  0  0  0  0  0  0  0  0  0
   10.3935  -17.1063   27.0357 O   0  0  0  0  0  0  0  0  0  0  0  0
  1  2  1  0
  2  3  1  0
  3  4  2  0
  5  6  1  0
  6  8  1  0
  7  6  2  0
  8  9  1  0
 10  9  1  6
 11 10  1  0
 11  3  1  0
 12 14  1  0
 12 10  1  0
 13 12  2  0
 15 14  1  0
 15 16  1  1
 17 18  2  0
 17 16  1  0
 19 18  1  0
 20 25  2  0
 20 19  1  0
 21 20  1  0
 22 21  2  0
 22 23  1  0
 23 24  2  0
 24 25  1  0
 25 17  1  0
 26 27  1  0
 26 15  1  0
 28 26  2  0
M  END
$$$$
