GQW.pdb
     RDKit          3D

 28 29  0  0  1  0  0  0  0  0999 V2000
    8.2902  -20.2269   19.5190 N   0  0  0  0  0  0  0  0  0  0  0  0
    7.7578  -19.1023   20.2531 C   0  0  0  0  0  0  0  0  0  0  0  0
    8.6620  -17.9361   20.1045 C   0  0  0  0  0  0  0  0  0  0  0  0
    9.7838  -18.1287   19.5433 O   0  0  0  0  0  0  0  0  0  0  0  0
    8.8340  -12.4133   18.1541 N   0  0  0  0  0  0  0  0  0  0  0  0
    8.0075  -13.4225   17.6181 C   0  0  0  0  0  0  0  0  0  0  0  0
    7.5450  -13.3884   16.4612 O   0  0  0  0  0  0  0  0  0  0  0  0
    7.7109  -14.5798   18.5640 C   0  0  0  0  0  0  0  0  0  0  0  0
    8.4619  -14.3463   19.8181 C   0  0  0  0  0  0  0  0  0  0  0  0
    9.2814  -15.5491   20.2282 C   0  0  2  0  0  0  0  0  0  0  0  0
    8.3297  -16.6392   20.5554 N   0  0  0  0  0  0  0  0  0  0  0  0
   10.0302  -15.2677   21.4477 C   0  0  0  0  0  0  0  0  0  0  0  0
   10.7590  -14.2112   21.4768 O   0  0  0  0  0  0  0  0  0  0  0  0
   10.0523  -16.0265   22.6380 N   0  0  0  0  0  0  0  0  0  0  0  0
    9.3658  -15.5700   23.8480 C   0  0  1  0  0  0  0  0  0  0  0  0
    7.9721  -15.1301   23.5156 C   0  0  0  0  0  0  0  0  0  0  0  0
    7.2357  -14.6797   24.7091 C   0  0  0  0  0  0  0  0  0  0  0  0
    6.3683  -15.4432   25.5036 C   0  0  0  0  0  0  0  0  0  0  0  0
    5.8425  -14.6993   26.4860 N   0  0  0  0  0  0  0  0  0  0  0  0
    6.3358  -13.4399   26.3779 C   0  0  0  0  0  0  0  0  0  0  0  0
    6.1203  -12.3083   27.1549 C   0  0  0  0  0  0  0  0  0  0  0  0
    6.7905  -11.1647   26.8046 C   0  0  0  0  0  0  0  0  0  0  0  0
    7.6539  -11.1150   25.7228 C   0  0  0  0  0  0  0  0  0  0  0  0
    7.8533  -12.2335   24.9710 C   0  0  0  0  0  0  0  0  0  0  0  0
    7.1906  -13.4114   25.2950 C   0  0  0  0  0  0  0  0  0  0  0  0
    9.5132  -16.5618   24.8955 C   0  0  0  0  0  0  0  0  0  0  0  0
    9.4773  -16.2895   26.2736 O   0  0  0  0  0  0  0  0  0  0  0  0
    9.6970  -17.7855   24.6161 O   0  0  0  0  0  0  0  0  0  0  0  0
  1  2  1  0
  2  3  1  0
  3  4  2  0
  5  6  1  0
  6  8  1  0
  7  6  2  0
  8  9  1  0
 10  9  1  1
 11 10  1  0
 11  3  1  0
 12 14  1  0
 12 10  1  0
 13 12  2  0
 15 14  1  0
 15 16  1  6
 17 18  2  0
 17 16  1  0
 19 18  1  0
 20 25  2  0
 20 19  1  0
 21 20  1  0
 22 21  2  0
 22 23  1  0
 23 24  2  0
 24 25  1  0
 25 17  1  0
 26 27  1  0
 26 15  1  0
 28 26  2  0
M  END
$$$$
