GQW.pdb
     RDKit          3D

 28 29  0  0  1  0  0  0  0  0999 V2000
    6.4799  -19.7690   20.0766 N   0  0  0  0  0  0  0  0  0  0  0  0
    6.5125  -18.6516   20.9917 C   0  0  0  0  0  0  0  0  0  0  0  0
    7.7826  -17.9047   20.8224 C   0  0  0  0  0  0  0  0  0  0  0  0
    8.6509  -18.3909   20.0351 O   0  0  0  0  0  0  0  0  0  0  0  0
    7.0270  -13.5679   18.2874 N   0  0  0  0  0  0  0  0  0  0  0  0
    7.8945  -13.2402   19.3499 C   0  0  0  0  0  0  0  0  0  0  0  0
    8.5528  -12.1829   19.3974 O   0  0  0  0  0  0  0  0  0  0  0  0
    7.9763  -14.2835   20.4576 C   0  0  0  0  0  0  0  0  0  0  0  0
    9.2892  -14.9587   20.3507 C   0  0  0  0  0  0  0  0  0  0  0  0
    9.4170  -16.1197   21.3111 C   0  0  2  0  0  0  0  0  0  0  0  0
    8.0604  -16.6924   21.4921 N   0  0  0  0  0  0  0  0  0  0  0  0
    9.8529  -15.6544   22.6227 C   0  0  0  0  0  0  0  0  0  0  0  0
   11.0279  -15.1466   22.7218 O   0  0  0  0  0  0  0  0  0  0  0  0
    9.1251  -15.6852   23.8321 N   0  0  0  0  0  0  0  0  0  0  0  0
    9.7961  -15.8429   25.1238 C   0  0  1  0  0  0  0  0  0  0  0  0
    8.7937  -16.1678   26.1897 C   0  0  0  0  0  0  0  0  0  0  0  0
    7.6012  -15.3072   26.1072 C   0  0  0  0  0  0  0  0  0  0  0  0
    6.2684  -15.7225   25.9741 C   0  0  0  0  0  0  0  0  0  0  0  0
    5.4465  -14.6677   25.8907 N   0  0  0  0  0  0  0  0  0  0  0  0
    6.1939  -13.5378   25.9653 C   0  0  0  0  0  0  0  0  0  0  0  0
    5.8235  -12.1987   25.9455 C   0  0  0  0  0  0  0  0  0  0  0  0
    6.8210  -11.2657   26.0649 C   0  0  0  0  0  0  0  0  0  0  0  0
    8.1529  -11.6199   26.2009 C   0  0  0  0  0  0  0  0  0  0  0  0
    8.4991  -12.9376   26.2176 C   0  0  0  0  0  0  0  0  0  0  0  0
    7.5154  -13.9121   26.0983 C   0  0  0  0  0  0  0  0  0  0  0  0
   10.9234  -16.7438   24.9806 C   0  0  0  0  0  0  0  0  0  0  0  0
   12.0845  -16.7132   25.7714 O   0  0  0  0  0  0  0  0  0  0  0  0
   10.9292  -17.6473   24.0902 O   0  0  0  0  0  0  0  0  0  0  0  0
  1  2  1  0
  2  3  1  0
  3  4  2  0
  5  6  1  0
  6  8  1  0
  7  6  2  0
  8  9  1  0
 10  9  1  6
 11 10  1  0
 11  3  1  0
 12 14  1  0
 12 10  1  0
 13 12  2  0
 15 14  1  0
 15 16  1  1
 17 18  2  0
 17 16  1  0
 19 18  1  0
 20 25  2  0
 20 19  1  0
 21 20  1  0
 22 21  2  0
 22 23  1  0
 23 24  2  0
 24 25  1  0
 25 17  1  0
 26 27  1  0
 26 15  1  0
 28 26  2  0
M  END
$$$$
