GQW.pdb
     RDKit          3D

 28 29  0  0  1  0  0  0  0  0999 V2000
    6.6975  -19.5842   20.1586 N   0  0  0  0  0  0  0  0  0  0  0  0
    6.3739  -18.4565   21.0016 C   0  0  0  0  0  0  0  0  0  0  0  0
    7.4313  -17.4236   20.8812 C   0  0  0  0  0  0  0  0  0  0  0  0
    8.5161  -17.7552   20.3122 O   0  0  0  0  0  0  0  0  0  0  0  0
    9.4048  -12.5985   19.0639 N   0  0  0  0  0  0  0  0  0  0  0  0
    8.2488  -13.1971   18.5215 C   0  0  0  0  0  0  0  0  0  0  0  0
    7.9389  -13.1240   17.3164 O   0  0  0  0  0  0  0  0  0  0  0  0
    7.3864  -13.9538   19.5243 C   0  0  0  0  0  0  0  0  0  0  0  0
    8.0526  -13.8803   20.8441 C   0  0  0  0  0  0  0  0  0  0  0  0
    8.4865  -15.2398   21.3440 C   0  0  2  0  0  0  0  0  0  0  0  0
    7.2819  -16.1055   21.3667 N   0  0  0  0  0  0  0  0  0  0  0  0
    8.9642  -15.1520   22.7192 C   0  0  0  0  0  0  0  0  0  0  0  0
    9.2097  -13.9864   23.1982 O   0  0  0  0  0  0  0  0  0  0  0  0
    9.1920  -16.2146   23.6203 N   0  0  0  0  0  0  0  0  0  0  0  0
    9.9201  -16.0104   24.8741 C   0  0  1  0  0  0  0  0  0  0  0  0
    9.0001  -16.2008   26.0419 C   0  0  0  0  0  0  0  0  0  0  0  0
    7.7939  -15.3619   25.9373 C   0  0  0  0  0  0  0  0  0  0  0  0
    6.5002  -15.7827   25.5972 C   0  0  0  0  0  0  0  0  0  0  0  0
    5.6551  -14.7437   25.5602 N   0  0  0  0  0  0  0  0  0  0  0  0
    6.3482  -13.6191   25.8700 C   0  0  0  0  0  0  0  0  0  0  0  0
    5.9342  -12.2978   25.9856 C   0  0  0  0  0  0  0  0  0  0  0  0
    6.8778  -11.3692   26.3422 C   0  0  0  0  0  0  0  0  0  0  0  0
    8.1982  -11.7110   26.5829 C   0  0  0  0  0  0  0  0  0  0  0  0
    8.5876  -13.0112   26.4643 C   0  0  0  0  0  0  0  0  0  0  0  0
    7.6592  -13.9806   26.1039 C   0  0  0  0  0  0  0  0  0  0  0  0
   11.1414  -16.7920   24.8612 C   0  0  0  0  0  0  0  0  0  0  0  0
   11.5061  -17.7002   23.8528 O   0  0  0  0  0  0  0  0  0  0  0  0
   11.9854  -16.7016   25.8040 O   0  0  0  0  0  0  0  0  0  0  0  0
  1  2  1  0
  2  3  1  0
  3  4  2  0
  5  6  1  0
  6  8  1  0
  7  6  2  0
  8  9  1  0
 10  9  1  1
 11 10  1  0
 11  3  1  0
 12 14  1  0
 12 10  1  0
 13 12  2  0
 15 14  1  0
 15 16  1  1
 17 18  2  0
 17 16  1  0
 19 18  1  0
 20 25  2  0
 20 19  1  0
 21 20  1  0
 22 21  2  0
 22 23  1  0
 23 24  2  0
 24 25  1  0
 25 17  1  0
 26 27  1  0
 26 15  1  0
 28 26  2  0
M  END
$$$$
