GQW.pdb
     RDKit          3D

 28 29  0  0  1  0  0  0  0  0999 V2000
   10.3504  -20.2918   19.8462 N   0  0  0  0  0  0  0  0  0  0  0  0
    9.4104  -19.5165   20.6223 C   0  0  0  0  0  0  0  0  0  0  0  0
    9.9656  -18.1643   20.8731 C   0  0  0  0  0  0  0  0  0  0  0  0
   11.1578  -17.9391   20.5011 O   0  0  0  0  0  0  0  0  0  0  0  0
    7.8354  -12.8047   20.1308 N   0  0  0  0  0  0  0  0  0  0  0  0
    6.9885  -13.8475   20.5599 C   0  0  0  0  0  0  0  0  0  0  0  0
    5.7464  -13.8058   20.4656 O   0  0  0  0  0  0  0  0  0  0  0  0
    7.7050  -15.0520   21.1581 C   0  0  0  0  0  0  0  0  0  0  0  0
    9.1504  -14.7383   21.2176 C   0  0  0  0  0  0  0  0  0  0  0  0
    9.9605  -15.8752   21.7987 C   0  0  2  0  0  0  0  0  0  0  0  0
    9.2319  -17.1325   21.4997 N   0  0  0  0  0  0  0  0  0  0  0  0
   10.0282  -15.7664   23.2514 C   0  0  0  0  0  0  0  0  0  0  0  0
   10.6433  -14.7567   23.7519 O   0  0  0  0  0  0  0  0  0  0  0  0
    9.4825  -16.6512   24.2067 N   0  0  0  0  0  0  0  0  0  0  0  0
    9.7724  -16.5074   25.6346 C   0  0  1  0  0  0  0  0  0  0  0  0
    8.5142  -16.6609   26.4346 C   0  0  0  0  0  0  0  0  0  0  0  0
    7.5064  -15.6474   26.0788 C   0  0  0  0  0  0  0  0  0  0  0  0
    6.3415  -15.8445   25.3235 C   0  0  0  0  0  0  0  0  0  0  0  0
    5.6769  -14.6923   25.1626 N   0  0  0  0  0  0  0  0  0  0  0  0
    6.3667  -13.7103   25.7956 C   0  0  0  0  0  0  0  0  0  0  0  0
    6.0948  -12.3554   25.9406 C   0  0  0  0  0  0  0  0  0  0  0  0
    6.9835  -11.6072   26.6687 C   0  0  0  0  0  0  0  0  0  0  0  0
    8.1152  -12.1581   27.2466 C   0  0  0  0  0  0  0  0  0  0  0  0
    8.3673  -13.4883   27.0941 C   0  0  0  0  0  0  0  0  0  0  0  0
    7.4893  -14.2787   26.3619 C   0  0  0  0  0  0  0  0  0  0  0  0
   10.8907  -17.3581   25.9930 C   0  0  0  0  0  0  0  0  0  0  0  0
   11.5761  -18.2043   25.1049 O   0  0  0  0  0  0  0  0  0  0  0  0
   11.3304  -17.3934   27.1824 O   0  0  0  0  0  0  0  0  0  0  0  0
  1  2  1  0
  2  3  1  0
  3  4  2  0
  5  6  1  0
  6  8  1  0
  7  6  2  0
  8  9  1  0
 10  9  1  1
 11 10  1  0
 11  3  1  0
 12 14  1  0
 12 10  1  0
 13 12  2  0
 15 14  1  0
 15 16  1  1
 17 18  2  0
 17 16  1  0
 19 18  1  0
 20 25  2  0
 20 19  1  0
 21 20  1  0
 22 21  2  0
 22 23  1  0
 23 24  2  0
 24 25  1  0
 25 17  1  0
 26 27  1  0
 26 15  1  0
 28 26  2  0
M  END
$$$$
