GQW.pdb
     RDKit          3D

 28 29  0  0  1  0  0  0  0  0999 V2000
    7.3856  -13.1278   17.8221 N   0  0  0  0  0  0  0  0  0  0  0  0
    8.3971  -13.0900   18.8529 C   0  0  0  0  0  0  0  0  0  0  0  0
    8.2493  -14.2690   19.7405 C   0  0  0  0  0  0  0  0  0  0  0  0
    7.0973  -14.5066   20.2167 O   0  0  0  0  0  0  0  0  0  0  0  0
   10.5299  -19.5723   18.9216 N   0  0  0  0  0  0  0  0  0  0  0  0
   11.4696  -18.5233   18.9964 C   0  0  0  0  0  0  0  0  0  0  0  0
   12.6105  -18.5870   18.4986 O   0  0  0  0  0  0  0  0  0  0  0  0
   10.9899  -17.2829   19.7402 C   0  0  0  0  0  0  0  0  0  0  0  0
    9.5924  -17.5202   20.1668 C   0  0  0  0  0  0  0  0  0  0  0  0
    9.0002  -16.3262   20.8810 C   0  0  2  0  0  0  0  0  0  0  0  0
    9.3229  -15.1250   20.0722 N   0  0  0  0  0  0  0  0  0  0  0  0
    9.6358  -16.1387   22.1801 C   0  0  0  0  0  0  0  0  0  0  0  0
   10.7037  -15.4277   22.2312 O   0  0  0  0  0  0  0  0  0  0  0  0
    9.2119  -16.6479   23.4268 N   0  0  0  0  0  0  0  0  0  0  0  0
    9.9038  -16.3001   24.6694 C   0  0  1  0  0  0  0  0  0  0  0  0
    9.6847  -14.8535   24.9945 C   0  0  0  0  0  0  0  0  0  0  0  0
    8.2626  -14.5492   25.2281 C   0  0  0  0  0  0  0  0  0  0  0  0
    7.1668  -15.3841   24.9659 C   0  0  0  0  0  0  0  0  0  0  0  0
    6.0154  -14.7675   25.2646 N   0  0  0  0  0  0  0  0  0  0  0  0
    6.3046  -13.5254   25.7277 C   0  0  0  0  0  0  0  0  0  0  0  0
    5.4750  -12.5081   26.1833 C   0  0  0  0  0  0  0  0  0  0  0  0
    6.0722  -11.3528   26.6173 C   0  0  0  0  0  0  0  0  0  0  0  0
    7.4467  -11.1831   26.6112 C   0  0  0  0  0  0  0  0  0  0  0  0
    8.2457  -12.1904   26.1605 C   0  0  0  0  0  0  0  0  0  0  0  0
    7.6763  -13.3762   25.7118 C   0  0  0  0  0  0  0  0  0  0  0  0
    9.5718  -17.2660   25.6987 C   0  0  0  0  0  0  0  0  0  0  0  0
   10.0210  -17.2120   27.0291 O   0  0  0  0  0  0  0  0  0  0  0  0
    8.8289  -18.2626   25.4451 O   0  0  0  0  0  0  0  0  0  0  0  0
  1  2  1  0
  2  3  1  0
  3  4  2  0
  5  6  1  0
  6  8  1  0
  7  6  2  0
  8  9  1  0
 10  9  1  6
 11 10  1  0
 11  3  1  0
 12 14  1  0
 12 10  1  0
 13 12  2  0
 15 14  1  0
 15 16  1  1
 17 18  2  0
 17 16  1  0
 19 18  1  0
 20 25  2  0
 20 19  1  0
 21 20  1  0
 22 21  2  0
 22 23  1  0
 23 24  2  0
 24 25  1  0
 25 17  1  0
 26 27  1  0
 26 15  1  0
 28 26  2  0
M  END
$$$$
