GQW.pdb
     RDKit          3D

 28 29  0  0  1  0  0  0  0  0999 V2000
    7.4944  -12.6760   18.5048 N   0  0  0  0  0  0  0  0  0  0  0  0
    8.7474  -13.2565   18.9290 C   0  0  0  0  0  0  0  0  0  0  0  0
    8.4855  -14.4495   19.7703 C   0  0  0  0  0  0  0  0  0  0  0  0
    7.2803  -14.6977   20.0807 O   0  0  0  0  0  0  0  0  0  0  0  0
   11.6594  -20.0388   20.2840 N   0  0  0  0  0  0  0  0  0  0  0  0
   11.3473  -18.9520   19.4413 C   0  0  0  0  0  0  0  0  0  0  0  0
   11.3421  -19.0275   18.1972 O   0  0  0  0  0  0  0  0  0  0  0  0
   11.0103  -17.6540   20.1650 C   0  0  0  0  0  0  0  0  0  0  0  0
    9.5785  -17.6993   20.5377 C   0  0  0  0  0  0  0  0  0  0  0  0
    9.1040  -16.4010   21.1506 C   0  0  2  0  0  0  0  0  0  0  0  0
    9.5078  -15.3076   20.2328 N   0  0  0  0  0  0  0  0  0  0  0  0
    9.7819  -16.1546   22.4182 C   0  0  0  0  0  0  0  0  0  0  0  0
   10.9863  -15.7113   22.3810 O   0  0  0  0  0  0  0  0  0  0  0  0
    9.2668  -16.3400   23.7196 N   0  0  0  0  0  0  0  0  0  0  0  0
   10.0907  -16.1087   24.9075 C   0  0  1  0  0  0  0  0  0  0  0  0
    9.8232  -14.7425   25.4629 C   0  0  0  0  0  0  0  0  0  0  0  0
    8.3862  -14.5086   25.6858 C   0  0  0  0  0  0  0  0  0  0  0  0
    7.3510  -15.4479   25.5739 C   0  0  0  0  0  0  0  0  0  0  0  0
    6.1619  -14.8773   25.8095 N   0  0  0  0  0  0  0  0  0  0  0  0
    6.3658  -13.5637   26.0816 C   0  0  0  0  0  0  0  0  0  0  0  0
    5.4704  -12.5521   26.4066 C   0  0  0  0  0  0  0  0  0  0  0  0
    5.9874  -11.3068   26.6548 C   0  0  0  0  0  0  0  0  0  0  0  0
    7.3455  -11.0432   26.5899 C   0  0  0  0  0  0  0  0  0  0  0  0
    8.2097  -12.0464   26.2690 C   0  0  0  0  0  0  0  0  0  0  0  0
    7.7224  -13.3220   26.0101 C   0  0  0  0  0  0  0  0  0  0  0  0
    9.9583  -17.2293   25.8182 C   0  0  0  0  0  0  0  0  0  0  0  0
    9.1049  -18.3287   25.6241 O   0  0  0  0  0  0  0  0  0  0  0  0
   10.6304  -17.2814   26.8929 O   0  0  0  0  0  0  0  0  0  0  0  0
  1  2  1  0
  2  3  1  0
  3  4  2  0
  5  6  1  0
  6  8  1  0
  7  6  2  0
  8  9  1  0
 10  9  1  6
 11 10  1  0
 11  3  1  0
 12 14  1  0
 12 10  1  0
 13 12  2  0
 15 14  1  0
 15 16  1  1
 17 18  2  0
 17 16  1  0
 19 18  1  0
 20 25  2  0
 20 19  1  0
 21 20  1  0
 22 21  2  0
 22 23  1  0
 23 24  2  0
 24 25  1  0
 25 17  1  0
 26 27  1  0
 26 15  1  0
 28 26  2  0
M  END
$$$$
