GQW.pdb
     RDKit          3D

 28 29  0  0  1  0  0  0  0  0999 V2000
    6.3396  -15.3119   19.2123 N   0  0  0  0  0  0  0  0  0  0  0  0
    7.3181  -14.6634   20.0543 C   0  0  0  0  0  0  0  0  0  0  0  0
    7.9117  -15.6546   20.9843 C   0  0  0  0  0  0  0  0  0  0  0  0
    7.1221  -16.2976   21.7415 O   0  0  0  0  0  0  0  0  0  0  0  0
   12.5935  -19.6390   20.0561 N   0  0  0  0  0  0  0  0  0  0  0  0
   12.1615  -18.4828   19.3739 C   0  0  0  0  0  0  0  0  0  0  0  0
   12.7935  -17.9645   18.4330 O   0  0  0  0  0  0  0  0  0  0  0  0
   10.8459  -17.8968   19.8720 C   0  0  0  0  0  0  0  0  0  0  0  0
   10.9960  -17.6033   21.3151 C   0  0  0  0  0  0  0  0  0  0  0  0
    9.7310  -17.0371   21.9198 C   0  0  2  0  0  0  0  0  0  0  0  0
    9.2993  -15.9078   21.0599 N   0  0  0  0  0  0  0  0  0  0  0  0
    9.9992  -16.4786   23.2401 C   0  0  0  0  0  0  0  0  0  0  0  0
   10.7275  -15.4237   23.3112 O   0  0  0  0  0  0  0  0  0  0  0  0
    9.5421  -16.9591   24.4864 N   0  0  0  0  0  0  0  0  0  0  0  0
   10.0964  -16.4614   25.7469 C   0  0  1  0  0  0  0  0  0  0  0  0
    9.0112  -16.3332   26.7728 C   0  0  0  0  0  0  0  0  0  0  0  0
    7.8858  -15.5164   26.2871 C   0  0  0  0  0  0  0  0  0  0  0  0
    6.7410  -15.9707   25.6166 C   0  0  0  0  0  0  0  0  0  0  0  0
    5.9430  -14.9459   25.2877 N   0  0  0  0  0  0  0  0  0  0  0  0
    6.5217  -13.7983   25.7223 C   0  0  0  0  0  0  0  0  0  0  0  0
    6.0943  -12.4783   25.6470 C   0  0  0  0  0  0  0  0  0  0  0  0
    6.8996  -11.5207   26.2076 C   0  0  0  0  0  0  0  0  0  0  0  0
    8.0968  -11.8327   26.8301 C   0  0  0  0  0  0  0  0  0  0  0  0
    8.5016  -13.1320   26.8945 C   0  0  0  0  0  0  0  0  0  0  0  0
    7.7119  -14.1304   26.3367 C   0  0  0  0  0  0  0  0  0  0  0  0
   11.2601  -17.2463   26.1111 C   0  0  0  0  0  0  0  0  0  0  0  0
   12.1668  -16.9162   27.1326 O   0  0  0  0  0  0  0  0  0  0  0  0
   11.5425  -18.3202   25.4977 O   0  0  0  0  0  0  0  0  0  0  0  0
  1  2  1  0
  2  3  1  0
  3  4  2  0
  5  6  1  0
  6  8  1  0
  7  6  2  0
  8  9  1  0
 10  9  1  6
 11 10  1  0
 11  3  1  0
 12 14  1  0
 12 10  1  0
 13 12  2  0
 15 14  1  0
 15 16  1  1
 17 18  2  0
 17 16  1  0
 19 18  1  0
 20 25  2  0
 20 19  1  0
 21 20  1  0
 22 21  2  0
 22 23  1  0
 23 24  2  0
 24 25  1  0
 25 17  1  0
 26 27  1  0
 26 15  1  0
 28 26  2  0
M  END
$$$$
