GQW.pdb
     RDKit          3D

 28 29  0  0  1  0  0  0  0  0999 V2000
    6.5421  -19.0806   19.1223 N   0  0  0  0  0  0  0  0  0  0  0  0
    6.0962  -18.0303   20.0084 C   0  0  0  0  0  0  0  0  0  0  0  0
    7.1886  -17.0471   20.2066 C   0  0  0  0  0  0  0  0  0  0  0  0
    8.3731  -17.4236   19.9506 O   0  0  0  0  0  0  0  0  0  0  0  0
    8.0433  -14.1476   17.0296 N   0  0  0  0  0  0  0  0  0  0  0  0
    8.3742  -13.4692   18.2208 C   0  0  0  0  0  0  0  0  0  0  0  0
    9.4941  -12.9663   18.4360 O   0  0  0  0  0  0  0  0  0  0  0  0
    7.2513  -13.3895   19.2479 C   0  0  0  0  0  0  0  0  0  0  0  0
    7.8583  -13.4879   20.5944 C   0  0  0  0  0  0  0  0  0  0  0  0
    8.1673  -14.9166   20.9811 C   0  0  2  0  0  0  0  0  0  0  0  0
    6.9672  -15.7283   20.6619 N   0  0  0  0  0  0  0  0  0  0  0  0
    8.3744  -15.0247   22.4207 C   0  0  0  0  0  0  0  0  0  0  0  0
    7.4099  -15.4800   23.1355 O   0  0  0  0  0  0  0  0  0  0  0  0
    9.5355  -14.6894   23.1504 N   0  0  0  0  0  0  0  0  0  0  0  0
    9.7834  -15.2366   24.4856 C   0  0  1  0  0  0  0  0  0  0  0  0
    8.6240  -16.0811   24.9206 C   0  0  0  0  0  0  0  0  0  0  0  0
    7.4979  -15.2652   25.4060 C   0  0  0  0  0  0  0  0  0  0  0  0
    6.1310  -15.5184   25.2214 C   0  0  0  0  0  0  0  0  0  0  0  0
    5.3881  -14.5451   25.7651 N   0  0  0  0  0  0  0  0  0  0  0  0
    6.2231  -13.6305   26.3195 C   0  0  0  0  0  0  0  0  0  0  0  0
    5.9556  -12.4571   27.0140 C   0  0  0  0  0  0  0  0  0  0  0  0
    7.0275  -11.7418   27.4819 C   0  0  0  0  0  0  0  0  0  0  0  0
    8.3350  -12.1527   27.2824 C   0  0  0  0  0  0  0  0  0  0  0  0
    8.5798  -13.3054   26.5986 C   0  0  0  0  0  0  0  0  0  0  0  0
    7.5183  -14.0569   26.1085 C   0  0  0  0  0  0  0  0  0  0  0  0
   11.0975  -15.8483   24.5254 C   0  0  0  0  0  0  0  0  0  0  0  0
   11.6984  -16.3926   25.6731 O   0  0  0  0  0  0  0  0  0  0  0  0
   11.8147  -15.9253   23.4818 O   0  0  0  0  0  0  0  0  0  0  0  0
  1  2  1  0
  2  3  1  0
  3  4  2  0
  5  6  1  0
  6  8  1  0
  7  6  2  0
  8  9  1  0
 10  9  1  1
 11 10  1  0
 11  3  1  0
 12 14  1  0
 12 10  1  0
 13 12  2  0
 15 14  1  0
 15 16  1  6
 17 18  2  0
 17 16  1  0
 19 18  1  0
 20 25  2  0
 20 19  1  0
 21 20  1  0
 22 21  2  0
 22 23  1  0
 23 24  2  0
 24 25  1  0
 25 17  1  0
 26 27  1  0
 26 15  1  0
 28 26  2  0
M  END
$$$$
