GQW.pdb
     RDKit          3D

 28 29  0  0  1  0  0  0  0  0999 V2000
    7.0611  -14.4986   18.9158 N   0  0  0  0  0  0  0  0  0  0  0  0
    8.1121  -14.1134   19.8291 C   0  0  0  0  0  0  0  0  0  0  0  0
    8.5129  -15.2817   20.6501 C   0  0  0  0  0  0  0  0  0  0  0  0
    7.7714  -16.3108   20.6111 O   0  0  0  0  0  0  0  0  0  0  0  0
   11.1755  -20.2641   20.3650 N   0  0  0  0  0  0  0  0  0  0  0  0
   11.9389  -19.0784   20.3657 C   0  0  0  0  0  0  0  0  0  0  0  0
   13.1837  -19.0634   20.4250 O   0  0  0  0  0  0  0  0  0  0  0  0
   11.1266  -17.7914   20.2879 C   0  0  0  0  0  0  0  0  0  0  0  0
   11.3115  -17.0589   21.5609 C   0  0  0  0  0  0  0  0  0  0  0  0
   10.0013  -16.5727   22.1383 C   0  0  2  0  0  0  0  0  0  0  0  0
    9.6693  -15.2949   21.4614 N   0  0  0  0  0  0  0  0  0  0  0  0
   10.1478  -16.2685   23.5571 C   0  0  0  0  0  0  0  0  0  0  0  0
   10.9215  -15.2990   23.8885 O   0  0  0  0  0  0  0  0  0  0  0  0
    9.5247  -16.9178   24.6449 N   0  0  0  0  0  0  0  0  0  0  0  0
    9.8072  -16.5318   26.0287 C   0  0  1  0  0  0  0  0  0  0  0  0
    8.5312  -16.4398   26.8095 C   0  0  0  0  0  0  0  0  0  0  0  0
    7.5497  -15.5533   26.1612 C   0  0  0  0  0  0  0  0  0  0  0  0
    6.5055  -15.9329   25.3056 C   0  0  0  0  0  0  0  0  0  0  0  0
    5.8329  -14.8597   24.8688 N   0  0  0  0  0  0  0  0  0  0  0  0
    6.3984  -13.7521   25.4115 C   0  0  0  0  0  0  0  0  0  0  0  0
    6.0664  -12.4083   25.2903 C   0  0  0  0  0  0  0  0  0  0  0  0
    6.8234  -11.5051   25.9909 C   0  0  0  0  0  0  0  0  0  0  0  0
    7.8826  -11.8930   26.7945 C   0  0  0  0  0  0  0  0  0  0  0  0
    8.1952  -13.2148   26.9016 C   0  0  0  0  0  0  0  0  0  0  0  0
    7.4508  -14.1598   26.2056 C   0  0  0  0  0  0  0  0  0  0  0  0
   10.8517  -17.3809   26.5680 C   0  0  0  0  0  0  0  0  0  0  0  0
   11.4787  -18.4279   25.8713 O   0  0  0  0  0  0  0  0  0  0  0  0
   11.2742  -17.2245   27.7539 O   0  0  0  0  0  0  0  0  0  0  0  0
  1  2  1  0
  2  3  1  0
  3  4  2  0
  5  6  1  0
  6  8  1  0
  7  6  2  0
  8  9  1  0
 10  9  1  6
 11 10  1  0
 11  3  1  0
 12 14  1  0
 12 10  1  0
 13 12  2  0
 15 14  1  0
 15 16  1  1
 17 18  2  0
 17 16  1  0
 19 18  1  0
 20 25  2  0
 20 19  1  0
 21 20  1  0
 22 21  2  0
 22 23  1  0
 23 24  2  0
 24 25  1  0
 25 17  1  0
 26 27  1  0
 26 15  1  0
 28 26  2  0
M  END
$$$$
