WYM.pdb
     RDKit          3D

 35 37  0  0  1  0  0  0  0  0999 V2000
    6.3102  -19.3006   24.9285 N   0  0  0  0  0  0  0  0  0  0  0  0
    6.3756  -17.8683   24.7711 C   0  0  1  0  0  0  0  0  0  0  0  0
    6.8710  -17.2705   26.0657 C   0  0  0  0  0  0  0  0  0  0  0  0
    6.2156  -15.9653   26.3336 C   0  0  0  0  0  0  0  0  0  0  0  0
    4.8828  -15.6765   26.4860 C   0  0  0  0  0  0  0  0  0  0  0  0
    4.7435  -14.3511   26.7176 N   0  0  0  0  0  0  0  0  0  0  0  0
    5.9439  -13.7428   26.7248 C   0  0  0  0  0  0  0  0  0  0  0  0
    6.3570  -12.4225   26.9125 C   0  0  0  0  0  0  0  0  0  0  0  0
    7.7066  -12.0966   26.8611 C   0  0  0  0  0  0  0  0  0  0  0  0
    8.6302  -13.0835   26.6246 C   0  0  0  0  0  0  0  0  0  0  0  0
    8.2031  -14.3938   26.4397 C   0  0  0  0  0  0  0  0  0  0  0  0
    6.8615  -14.7413   26.4868 C   0  0  0  0  0  0  0  0  0  0  0  0
    7.2440  -17.5154   23.6247 C   0  0  0  0  0  0  0  0  0  0  0  0
    8.1807  -18.2580   23.2260 O   0  0  0  0  0  0  0  0  0  0  0  0
    9.5618  -13.2828   16.3021 O   0  0  0  0  0  0  0  0  0  0  0  0
    9.0010  -13.5961   17.5292 C   0  0  0  0  0  0  0  0  0  0  0  0
    8.5272  -14.8738   17.7666 C   0  0  0  0  0  0  0  0  0  0  0  0
    7.9748  -15.1781   18.9787 C   0  0  0  0  0  0  0  0  0  0  0  0
    7.8946  -14.2094   19.9538 C   0  0  0  0  0  0  0  0  0  0  0  0
    7.2892  -14.5784   21.2578 C   0  0  0  0  0  0  0  0  0  0  0  0
    7.7984  -15.8913   21.7896 C   0  0  2  0  0  0  0  0  0  0  0  0
    7.0358  -16.2975   22.9284 N   0  0  0  0  0  0  0  0  0  0  0  0
    9.2469  -15.7145   22.0966 C   0  0  0  0  0  0  0  0  0  0  0  0
    9.9855  -15.3847   21.1282 O   0  0  0  0  0  0  0  0  0  0  0  0
    8.3542  -12.9424   19.7451 C   0  0  0  0  0  0  0  0  0  0  0  0
    8.9111  -12.6392   18.5206 C   0  0  0  0  0  0  0  0  0  0  0  0
   11.8962  -14.3382   28.3798 C   0  0  0  0  0  0  0  0  0  0  0  0
   10.4765  -15.0813   27.5343 S   0  0  0  0  0  0  0  0  0  0  0  0
   10.5269  -14.6478   25.7423 C   0  0  0  0  0  0  0  0  0  0  0  0
   11.5336  -15.5078   25.0356 C   0  0  0  0  0  0  0  0  0  0  0  0
   11.2081  -15.6591   23.5963 C   0  0  2  0  0  0  0  0  0  0  0  0
    9.7866  -15.8984   23.3838 N   0  0  0  0  0  0  0  0  0  0  0  0
   11.9822  -16.7005   22.9324 C   0  0  0  0  0  0  0  0  0  0  0  0
   13.3541  -16.7975   22.8731 O   0  0  0  0  0  0  0  0  0  0  0  0
   11.3565  -17.6437   22.3254 O   0  0  0  0  0  0  0  0  0  0  0  0
  2  1  1  1
  3  2  1  0
  4  3  1  0
  4  5  2  0
  6  5  1  0
  7  6  1  0
  8  7  2  0
  9  8  1  0
 10  9  2  0
 10 11  1  0
 11 12  2  0
 12  7  1  0
 12  4  1  0
 13  2  1  0
 14 13  2  0
 16 15  1  0
 17 16  2  0
 18 17  1  0
 19 25  1  0
 19 18  2  0
 20 19  1  0
 21 20  1  1
 21 23  1  0
 21 22  1  0
 22 13  1  0
 23 32  1  0
 24 23  2  0
 25 26  2  0
 26 16  1  0
 27 28  1  0
 28 29  1  0
 29 30  1  0
 31 33  1  0
 31 30  1  1
 32 31  1  0
 33 34  1  0
 35 33  2  0
M  END
$$$$
