WYM.pdb
     RDKit          3D

 35 37  0  0  1  0  0  0  0  0999 V2000
    7.0700  -17.3628   23.9410 N   0  0  0  0  0  0  0  0  0  0  0  0
    8.2717  -16.5657   23.9745 C   0  0  1  0  0  0  0  0  0  0  0  0
    8.4954  -16.1034   25.3939 C   0  0  0  0  0  0  0  0  0  0  0  0
    7.4003  -15.2047   25.8390 C   0  0  0  0  0  0  0  0  0  0  0  0
    6.3470  -15.4670   26.6783 C   0  0  0  0  0  0  0  0  0  0  0  0
    5.5946  -14.3497   26.8026 N   0  0  0  0  0  0  0  0  0  0  0  0
    6.1128  -13.3461   26.0711 C   0  0  0  0  0  0  0  0  0  0  0  0
    5.7402  -12.0187   25.8508 C   0  0  0  0  0  0  0  0  0  0  0  0
    6.5003  -11.2066   25.0183 C   0  0  0  0  0  0  0  0  0  0  0  0
    7.6204  -11.7201   24.4145 C   0  0  0  0  0  0  0  0  0  0  0  0
    7.9784  -13.0441   24.6438 C   0  0  0  0  0  0  0  0  0  0  0  0
    7.2345  -13.8721   25.4706 C   0  0  0  0  0  0  0  0  0  0  0  0
    9.4194  -17.3426   23.4527 C   0  0  0  0  0  0  0  0  0  0  0  0
    9.5531  -18.5791   23.6548 O   0  0  0  0  0  0  0  0  0  0  0  0
   17.9562  -17.1285   21.4101 O   0  0  0  0  0  0  0  0  0  0  0  0
   16.6312  -16.7802   21.6141 C   0  0  0  0  0  0  0  0  0  0  0  0
   15.6302  -17.4301   20.9149 C   0  0  0  0  0  0  0  0  0  0  0  0
   14.3246  -17.0829   21.1196 C   0  0  0  0  0  0  0  0  0  0  0  0
   14.0168  -16.0885   22.0207 C   0  0  0  0  0  0  0  0  0  0  0  0
   12.5873  -15.7405   22.2166 C   0  0  0  0  0  0  0  0  0  0  0  0
   11.8237  -16.7995   22.9656 C   0  0  2  0  0  0  0  0  0  0  0  0
   10.4249  -16.6938   22.6913 N   0  0  0  0  0  0  0  0  0  0  0  0
   12.1432  -16.6375   24.4132 C   0  0  0  0  0  0  0  0  0  0  0  0
   12.9506  -15.7130   24.7055 O   0  0  0  0  0  0  0  0  0  0  0  0
   14.9848  -15.4325   22.7226 C   0  0  0  0  0  0  0  0  0  0  0  0
   16.3012  -15.7857   22.5134 C   0  0  0  0  0  0  0  0  0  0  0  0
   10.2878  -14.2307   27.3740 C   0  0  0  0  0  0  0  0  0  0  0  0
   11.3485  -14.5087   28.8162 S   0  0  0  0  0  0  0  0  0  0  0  0
   12.3635  -16.0264   28.5548 C   0  0  0  0  0  0  0  0  0  0  0  0
   11.5598  -17.0596   27.8206 C   0  0  0  0  0  0  0  0  0  0  0  0
   12.3118  -17.6214   26.6720 C   0  0  2  0  0  0  0  0  0  0  0  0
   11.5899  -17.4547   25.4173 N   0  0  0  0  0  0  0  0  0  0  0  0
   12.6729  -19.0230   26.8441 C   0  0  0  0  0  0  0  0  0  0  0  0
   11.8385  -20.1109   26.7213 O   0  0  0  0  0  0  0  0  0  0  0  0
   13.8867  -19.3161   27.1445 O   0  0  0  0  0  0  0  0  0  0  0  0
  2  1  1  1
  3  2  1  0
  4  3  1  0
  4  5  2  0
  6  5  1  0
  7  6  1  0
  8  7  2  0
  9  8  1  0
 10  9  2  0
 10 11  1  0
 11 12  2  0
 12  7  1  0
 12  4  1  0
 13  2  1  0
 14 13  2  0
 16 15  1  0
 17 16  2  0
 18 17  1  0
 19 25  1  0
 19 18  2  0
 20 19  1  0
 21 20  1  6
 21 23  1  0
 21 22  1  0
 22 13  1  0
 23 32  1  0
 24 23  2  0
 25 26  2  0
 26 16  1  0
 27 28  1  0
 28 29  1  0
 29 30  1  0
 31 33  1  0
 31 30  1  1
 32 31  1  0
 33 34  1  0
 35 33  2  0
M  END
$$$$
