WYM.pdb
     RDKit          3D

 35 37  0  0  1  0  0  0  0  0999 V2000
    6.2946  -18.1989   25.2723 N   0  0  0  0  0  0  0  0  0  0  0  0
    6.6263  -16.8252   24.9831 C   0  0  1  0  0  0  0  0  0  0  0  0
    7.3774  -16.2596   26.1640 C   0  0  0  0  0  0  0  0  0  0  0  0
    6.5965  -15.1831   26.8246 C   0  0  0  0  0  0  0  0  0  0  0  0
    5.6428  -15.2780   27.8066 C   0  0  0  0  0  0  0  0  0  0  0  0
    5.1962  -14.0371   28.1075 N   0  0  0  0  0  0  0  0  0  0  0  0
    5.8226  -13.1131   27.3560 C   0  0  0  0  0  0  0  0  0  0  0  0
    5.7407  -11.7222   27.2676 C   0  0  0  0  0  0  0  0  0  0  0  0
    6.5409  -11.0290   26.3678 C   0  0  0  0  0  0  0  0  0  0  0  0
    7.4125  -11.7230   25.5669 C   0  0  0  0  0  0  0  0  0  0  0  0
    7.4825  -13.1082   25.6667 C   0  0  0  0  0  0  0  0  0  0  0  0
    6.6934  -13.8200   26.5574 C   0  0  0  0  0  0  0  0  0  0  0  0
    7.4093  -16.7376   23.7293 C   0  0  0  0  0  0  0  0  0  0  0  0
    8.1612  -17.6664   23.3296 O   0  0  0  0  0  0  0  0  0  0  0  0
    9.5856  -14.1080   15.7198 O   0  0  0  0  0  0  0  0  0  0  0  0
    9.0676  -14.1358   17.0041 C   0  0  0  0  0  0  0  0  0  0  0  0
    9.4866  -15.1050   17.8976 C   0  0  0  0  0  0  0  0  0  0  0  0
    8.9727  -15.1283   19.1635 C   0  0  0  0  0  0  0  0  0  0  0  0
    8.0415  -14.1861   19.5386 C   0  0  0  0  0  0  0  0  0  0  0  0
    7.5074  -14.2431   20.9223 C   0  0  0  0  0  0  0  0  0  0  0  0
    8.0819  -15.3788   21.7257 C   0  0  2  0  0  0  0  0  0  0  0  0
    7.3290  -15.5718   22.9255 N   0  0  0  0  0  0  0  0  0  0  0  0
    9.5146  -15.0579   21.9872 C   0  0  0  0  0  0  0  0  0  0  0  0
    9.7689  -13.8640   22.3063 O   0  0  0  0  0  0  0  0  0  0  0  0
    7.6117  -13.2202   18.6768 C   0  0  0  0  0  0  0  0  0  0  0  0
    8.1327  -13.1999   17.4003 C   0  0  0  0  0  0  0  0  0  0  0  0
    9.9362  -15.3920   26.9567 C   0  0  0  0  0  0  0  0  0  0  0  0
   11.6428  -16.0003   26.9515 S   0  0  0  0  0  0  0  0  0  0  0  0
   12.2968  -15.9946   25.2270 C   0  0  0  0  0  0  0  0  0  0  0  0
   11.1596  -16.0247   24.2480 C   0  0  0  0  0  0  0  0  0  0  0  0
   11.6435  -15.9672   22.8470 C   0  0  2  0  0  0  0  0  0  0  0  0
   10.5447  -16.0127   21.8911 N   0  0  0  0  0  0  0  0  0  0  0  0
   12.6134  -17.0064   22.5246 C   0  0  0  0  0  0  0  0  0  0  0  0
   12.3617  -18.2009   21.8884 O   0  0  0  0  0  0  0  0  0  0  0  0
   13.8421  -16.8287   22.8536 O   0  0  0  0  0  0  0  0  0  0  0  0
  2  1  1  1
  3  2  1  0
  4  3  1  0
  4  5  2  0
  6  5  1  0
  7  6  1  0
  8  7  2  0
  9  8  1  0
 10  9  2  0
 10 11  1  0
 11 12  2  0
 12  7  1  0
 12  4  1  0
 13  2  1  0
 14 13  2  0
 16 15  1  0
 17 16  2  0
 18 17  1  0
 19 25  1  0
 19 18  2  0
 20 19  1  0
 21 20  1  1
 21 23  1  0
 21 22  1  0
 22 13  1  0
 23 32  1  0
 24 23  2  0
 25 26  2  0
 26 16  1  0
 27 28  1  0
 28 29  1  0
 29 30  1  0
 31 33  1  0
 31 30  1  1
 32 31  1  0
 33 34  1  0
 35 33  2  0
M  END
$$$$
