WYM.pdb
     RDKit          3D

 35 37  0  0  1  0  0  0  0  0999 V2000
   10.1727  -16.3093   20.3818 N   0  0  0  0  0  0  0  0  0  0  0  0
    9.2116  -16.0340   21.4215 C   0  0  1  0  0  0  0  0  0  0  0  0
    7.8303  -16.2992   20.8735 C   0  0  0  0  0  0  0  0  0  0  0  0
    7.5583  -15.4519   19.6847 C   0  0  0  0  0  0  0  0  0  0  0  0
    7.1774  -15.8243   18.4202 C   0  0  0  0  0  0  0  0  0  0  0  0
    7.0427  -14.7157   17.6569 N   0  0  0  0  0  0  0  0  0  0  0  0
    7.3222  -13.6110   18.3727 C   0  0  0  0  0  0  0  0  0  0  0  0
    7.3368  -12.2464   18.0777 C   0  0  0  0  0  0  0  0  0  0  0  0
    7.6772  -11.3215   19.0569 C   0  0  0  0  0  0  0  0  0  0  0  0
    7.9988  -11.7605   20.3166 C   0  0  0  0  0  0  0  0  0  0  0  0
    7.9797  -13.1227   20.5949 C   0  0  0  0  0  0  0  0  0  0  0  0
    7.6431  -14.0630   19.6330 C   0  0  0  0  0  0  0  0  0  0  0  0
    9.5028  -16.8514   22.6214 C   0  0  0  0  0  0  0  0  0  0  0  0
    8.6629  -17.0309   23.5435 O   0  0  0  0  0  0  0  0  0  0  0  0
   14.1007  -21.9964   28.0577 O   0  0  0  0  0  0  0  0  0  0  0  0
   13.7203  -21.1955   26.9935 C   0  0  0  0  0  0  0  0  0  0  0  0
   12.8487  -21.6847   26.0373 C   0  0  0  0  0  0  0  0  0  0  0  0
   12.4765  -20.8909   24.9893 C   0  0  0  0  0  0  0  0  0  0  0  0
   12.9727  -19.6101   24.8943 C   0  0  0  0  0  0  0  0  0  0  0  0
   12.5442  -18.7778   23.7425 C   0  0  0  0  0  0  0  0  0  0  0  0
   11.2112  -18.1143   23.9628 C   0  0  2  0  0  0  0  0  0  0  0  0
   10.7713  -17.4692   22.7654 N   0  0  0  0  0  0  0  0  0  0  0  0
   11.3690  -17.1685   25.1049 C   0  0  0  0  0  0  0  0  0  0  0  0
   11.9670  -16.0862   24.8535 O   0  0  0  0  0  0  0  0  0  0  0  0
   13.8332  -19.1040   25.8236 C   0  0  0  0  0  0  0  0  0  0  0  0
   14.2065  -19.9081   26.8798 C   0  0  0  0  0  0  0  0  0  0  0  0
    6.8840  -13.5587   27.1845 C   0  0  0  0  0  0  0  0  0  0  0  0
    8.5672  -12.9178   27.3803 S   0  0  0  0  0  0  0  0  0  0  0  0
    9.6718  -14.2583   28.0004 C   0  0  0  0  0  0  0  0  0  0  0  0
    9.8631  -15.2980   26.9351 C   0  0  0  0  0  0  0  0  0  0  0  0
   10.8077  -16.3564   27.3684 C   0  0  2  0  0  0  0  0  0  0  0  0
   10.8881  -17.4417   26.3995 N   0  0  0  0  0  0  0  0  0  0  0  0
   10.5048  -16.9009   28.6861 C   0  0  0  0  0  0  0  0  0  0  0  0
   10.5821  -16.2383   29.8902 O   0  0  0  0  0  0  0  0  0  0  0  0
   10.1244  -18.1243   28.7768 O   0  0  0  0  0  0  0  0  0  0  0  0
  2  1  1  6
  3  2  1  0
  4  3  1  0
  4  5  2  0
  6  5  1  0
  7  6  1  0
  8  7  2  0
  9  8  1  0
 10  9  2  0
 10 11  1  0
 11 12  2  0
 12  7  1  0
 12  4  1  0
 13  2  1  0
 14 13  2  0
 16 15  1  0
 17 16  2  0
 18 17  1  0
 19 25  1  0
 19 18  2  0
 20 19  1  0
 21 20  1  6
 21 23  1  0
 21 22  1  0
 22 13  1  0
 23 32  1  0
 24 23  2  0
 25 26  2  0
 26 16  1  0
 27 28  1  0
 28 29  1  0
 29 30  1  0
 31 33  1  0
 31 30  1  6
 32 31  1  0
 33 34  1  0
 35 33  2  0
M  END
$$$$
