WYM.pdb
     RDKit          3D

 35 37  0  0  1  0  0  0  0  0999 V2000
   11.9708  -28.4369   39.4456 N   0  0  0  0  0  0  0  0  0  0  0  0
   12.4887  -27.3987   40.3028 C   0  0  1  0  0  0  0  0  0  0  0  0
   12.4351  -27.8901   41.7291 C   0  0  0  0  0  0  0  0  0  0  0  0
   11.0507  -27.8248   42.2621 C   0  0  0  0  0  0  0  0  0  0  0  0
    9.8616  -27.7272   41.5844 C   0  0  0  0  0  0  0  0  0  0  0  0
    8.8467  -27.6984   42.4783 N   0  0  0  0  0  0  0  0  0  0  0  0
    9.3207  -27.7740   43.7355 C   0  0  0  0  0  0  0  0  0  0  0  0
    8.7199  -27.7843   44.9957 C   0  0  0  0  0  0  0  0  0  0  0  0
    9.4989  -27.8745   46.1425 C   0  0  0  0  0  0  0  0  0  0  0  0
   10.8639  -27.9534   46.0262 C   0  0  0  0  0  0  0  0  0  0  0  0
   11.4474  -27.9420   44.7641 C   0  0  0  0  0  0  0  0  0  0  0  0
   10.6892  -27.8527   43.6066 C   0  0  0  0  0  0  0  0  0  0  0  0
   13.8620  -27.0283   39.8910 C   0  0  0  0  0  0  0  0  0  0  0  0
   14.7266  -27.8821   39.5574 O   0  0  0  0  0  0  0  0  0  0  0  0
   14.7177  -26.6753   33.4362 O   0  0  0  0  0  0  0  0  0  0  0  0
   14.9158  -26.0749   34.6687 C   0  0  0  0  0  0  0  0  0  0  0  0
   16.1500  -25.5362   34.9847 C   0  0  0  0  0  0  0  0  0  0  0  0
   16.3405  -24.9450   36.2018 C   0  0  0  0  0  0  0  0  0  0  0  0
   15.3014  -24.8909   37.1035 C   0  0  0  0  0  0  0  0  0  0  0  0
   15.5466  -24.2396   38.4145 C   0  0  0  0  0  0  0  0  0  0  0  0
   15.5713  -25.2171   39.5588 C   0  0  2  0  0  0  0  0  0  0  0  0
   14.2477  -25.6638   39.8618 N   0  0  0  0  0  0  0  0  0  0  0  0
   16.2298  -24.5362   40.7106 C   0  0  0  0  0  0  0  0  0  0  0  0
   15.5311  -23.6873   41.3296 O   0  0  0  0  0  0  0  0  0  0  0  0
   14.0752  -25.4145   36.8164 C   0  0  0  0  0  0  0  0  0  0  0  0
   13.8868  -26.0102   35.5872 C   0  0  0  0  0  0  0  0  0  0  0  0
   20.7088  -20.3339   39.1651 C   0  0  0  0  0  0  0  0  0  0  0  0
   19.6440  -20.6004   40.6065 S   0  0  0  0  0  0  0  0  0  0  0  0
   19.2596  -22.3970   40.7685 C   0  0  0  0  0  0  0  0  0  0  0  0
   18.2747  -22.6116   41.8804 C   0  0  0  0  0  0  0  0  0  0  0  0
   18.1299  -24.0503   42.2113 C   0  0  2  0  0  0  0  0  0  0  0  0
   17.5536  -24.8058   41.1067 N   0  0  0  0  0  0  0  0  0  0  0  0
   17.3567  -24.2923   43.4230 C   0  0  0  0  0  0  0  0  0  0  0  0
   16.3075  -25.1712   43.5704 O   0  0  0  0  0  0  0  0  0  0  0  0
   17.6522  -23.6352   44.4863 O   0  0  0  0  0  0  0  0  0  0  0  0
  2  1  1  6
  3  2  1  0
  4  3  1  0
  4  5  2  0
  6  5  1  0
  7  6  1  0
  8  7  2  0
  9  8  1  0
 10  9  2  0
 10 11  1  0
 11 12  2  0
 12  7  1  0
 12  4  1  0
 13  2  1  0
 14 13  2  0
 16 15  1  0
 17 16  2  0
 18 17  1  0
 19 25  1  0
 19 18  2  0
 20 19  1  0
 21 20  1  6
 21 23  1  0
 21 22  1  0
 22 13  1  0
 23 32  1  0
 24 23  2  0
 25 26  2  0
 26 16  1  0
 27 28  1  0
 28 29  1  0
 29 30  1  0
 31 33  1  0
 31 30  1  6
 32 31  1  0
 33 34  1  0
 35 33  2  0
M  END
$$$$
