WYM.pdb
     RDKit          3D

 35 37  0  0  1  0  0  0  0  0999 V2000
    5.9500  -18.8184   25.4858 N   0  0  0  0  0  0  0  0  0  0  0  0
    6.4872  -17.5167   25.1737 C   0  0  1  0  0  0  0  0  0  0  0  0
    7.6471  -17.2469   26.1013 C   0  0  0  0  0  0  0  0  0  0  0  0
    7.2946  -16.2118   27.1059 C   0  0  0  0  0  0  0  0  0  0  0  0
    6.9513  -16.3623   28.4259 C   0  0  0  0  0  0  0  0  0  0  0  0
    6.7115  -15.1429   28.9600 N   0  0  0  0  0  0  0  0  0  0  0  0
    6.8840  -14.1792   28.0367 C   0  0  0  0  0  0  0  0  0  0  0  0
    6.7686  -12.7880   28.0588 C   0  0  0  0  0  0  0  0  0  0  0  0
    7.0190  -12.0459   26.9113 C   0  0  0  0  0  0  0  0  0  0  0  0
    7.3808  -12.6919   25.7559 C   0  0  0  0  0  0  0  0  0  0  0  0
    7.4915  -14.0779   25.7498 C   0  0  0  0  0  0  0  0  0  0  0  0
    7.2462  -14.8381   26.8833 C   0  0  0  0  0  0  0  0  0  0  0  0
    6.8850  -17.4521   23.7487 C   0  0  0  0  0  0  0  0  0  0  0  0
    7.3367  -18.4476   23.1219 O   0  0  0  0  0  0  0  0  0  0  0  0
    9.2460  -13.4787   16.2550 O   0  0  0  0  0  0  0  0  0  0  0  0
    8.7138  -13.7566   17.5032 C   0  0  0  0  0  0  0  0  0  0  0  0
    8.9625  -12.9064   18.5655 C   0  0  0  0  0  0  0  0  0  0  0  0
    8.4354  -13.1848   19.7950 C   0  0  0  0  0  0  0  0  0  0  0  0
    7.6607  -14.3102   19.9657 C   0  0  0  0  0  0  0  0  0  0  0  0
    7.1047  -14.5782   21.3155 C   0  0  0  0  0  0  0  0  0  0  0  0
    7.5236  -15.9145   21.8670 C   0  0  2  0  0  0  0  0  0  0  0  0
    6.7636  -16.2324   23.0352 N   0  0  0  0  0  0  0  0  0  0  0  0
    8.9896  -15.8461   22.1316 C   0  0  0  0  0  0  0  0  0  0  0  0
    9.7239  -15.5908   21.1378 O   0  0  0  0  0  0  0  0  0  0  0  0
    7.4006  -15.1644   18.9347 C   0  0  0  0  0  0  0  0  0  0  0  0
    7.9342  -14.8800   17.6955 C   0  0  0  0  0  0  0  0  0  0  0  0
    9.5680  -13.5604   28.3527 C   0  0  0  0  0  0  0  0  0  0  0  0
   10.7149  -14.7030   27.5393 S   0  0  0  0  0  0  0  0  0  0  0  0
   10.4790  -14.6206   25.7119 C   0  0  0  0  0  0  0  0  0  0  0  0
   11.3165  -15.6690   25.0398 C   0  0  0  0  0  0  0  0  0  0  0  0
   10.9723  -15.8047   23.6033 C   0  0  2  0  0  0  0  0  0  0  0  0
    9.5495  -16.0502   23.4072 N   0  0  0  0  0  0  0  0  0  0  0  0
   11.7436  -16.8329   22.9160 C   0  0  0  0  0  0  0  0  0  0  0  0
   13.1118  -16.8794   22.7716 O   0  0  0  0  0  0  0  0  0  0  0  0
   11.1187  -17.8147   22.3727 O   0  0  0  0  0  0  0  0  0  0  0  0
  2  1  1  1
  3  2  1  0
  4  3  1  0
  4  5  2  0
  6  5  1  0
  7  6  1  0
  8  7  2  0
  9  8  1  0
 10  9  2  0
 10 11  1  0
 11 12  2  0
 12  7  1  0
 12  4  1  0
 13  2  1  0
 14 13  2  0
 16 15  1  0
 17 16  2  0
 18 17  1  0
 19 25  1  0
 19 18  2  0
 20 19  1  0
 21 20  1  1
 21 23  1  0
 21 22  1  0
 22 13  1  0
 23 32  1  0
 24 23  2  0
 25 26  2  0
 26 16  1  0
 27 28  1  0
 28 29  1  0
 29 30  1  0
 31 33  1  0
 31 30  1  1
 32 31  1  0
 33 34  1  0
 35 33  2  0
M  END
$$$$
