WYM.pdb
     RDKit          3D

 35 37  0  0  1  0  0  0  0  0999 V2000
    7.5388  -17.6069   24.7492 N   0  0  0  0  0  0  0  0  0  0  0  0
    7.1301  -17.6352   23.3662 C   0  0  1  0  0  0  0  0  0  0  0  0
    6.0249  -16.6246   23.1769 C   0  0  0  0  0  0  0  0  0  0  0  0
    5.9444  -15.7015   24.3372 C   0  0  0  0  0  0  0  0  0  0  0  0
    5.3708  -15.8997   25.5679 C   0  0  0  0  0  0  0  0  0  0  0  0
    5.5358  -14.7842   26.3150 N   0  0  0  0  0  0  0  0  0  0  0  0
    6.2031  -13.8439   25.6212 C   0  0  0  0  0  0  0  0  0  0  0  0
    6.6258  -12.5457   25.9130 C   0  0  0  0  0  0  0  0  0  0  0  0
    7.3140  -11.8026   24.9619 C   0  0  0  0  0  0  0  0  0  0  0  0
    7.5749  -12.3554   23.7334 C   0  0  0  0  0  0  0  0  0  0  0  0
    7.1474  -13.6496   23.4579 C   0  0  0  0  0  0  0  0  0  0  0  0
    6.4591  -14.4089   24.3920 C   0  0  0  0  0  0  0  0  0  0  0  0
    8.2876  -17.3693   22.4817 C   0  0  0  0  0  0  0  0  0  0  0  0
    8.6117  -18.1354   21.5352 O   0  0  0  0  0  0  0  0  0  0  0  0
    7.0235  -13.4768   17.5396 O   0  0  0  0  0  0  0  0  0  0  0  0
    7.9143  -13.7739   18.5579 C   0  0  0  0  0  0  0  0  0  0  0  0
    8.8806  -14.7455   18.3693 C   0  0  0  0  0  0  0  0  0  0  0  0
    9.7570  -15.0351   19.3769 C   0  0  0  0  0  0  0  0  0  0  0  0
    9.6703  -14.3567   20.5718 C   0  0  0  0  0  0  0  0  0  0  0  0
   10.6406  -14.6983   21.6417 C   0  0  0  0  0  0  0  0  0  0  0  0
   10.4238  -16.0743   22.2118 C   0  0  2  0  0  0  0  0  0  0  0  0
    9.0821  -16.2122   22.6854 N   0  0  0  0  0  0  0  0  0  0  0  0
   11.4395  -16.2758   23.2849 C   0  0  0  0  0  0  0  0  0  0  0  0
   12.6296  -15.9796   22.9883 O   0  0  0  0  0  0  0  0  0  0  0  0
    8.7269  -13.3946   20.7831 C   0  0  0  0  0  0  0  0  0  0  0  0
    7.8443  -13.1052   19.7640 C   0  0  0  0  0  0  0  0  0  0  0  0
    8.6093  -14.0961   28.6448 C   0  0  0  0  0  0  0  0  0  0  0  0
    9.9568  -15.3070   28.6672 S   0  0  0  0  0  0  0  0  0  0  0  0
   10.6438  -15.5002   26.9665 C   0  0  0  0  0  0  0  0  0  0  0  0
   11.6364  -16.6256   26.9401 C   0  0  0  0  0  0  0  0  0  0  0  0
   12.1647  -16.8557   25.5732 C   0  0  2  0  0  0  0  0  0  0  0  0
   11.1170  -16.7666   24.5645 N   0  0  0  0  0  0  0  0  0  0  0  0
   12.8728  -18.1217   25.4300 C   0  0  0  0  0  0  0  0  0  0  0  0
   14.0541  -18.4797   26.0391 O   0  0  0  0  0  0  0  0  0  0  0  0
   12.3767  -19.0239   24.6621 O   0  0  0  0  0  0  0  0  0  0  0  0
  2  1  1  1
  3  2  1  0
  4  3  1  0
  4  5  2  0
  6  5  1  0
  7  6  1  0
  8  7  2  0
  9  8  1  0
 10  9  2  0
 10 11  1  0
 11 12  2  0
 12  7  1  0
 12  4  1  0
 13  2  1  0
 14 13  2  0
 16 15  1  0
 17 16  2  0
 18 17  1  0
 19 25  1  0
 19 18  2  0
 20 19  1  0
 21 20  1  1
 21 23  1  0
 21 22  1  0
 22 13  1  0
 23 32  1  0
 24 23  2  0
 25 26  2  0
 26 16  1  0
 27 28  1  0
 28 29  1  0
 29 30  1  0
 31 33  1  0
 31 30  1  1
 32 31  1  0
 33 34  1  0
 35 33  2  0
M  END
$$$$
