WYM.pdb
     RDKit          3D

 35 37  0  0  1  0  0  0  0  0999 V2000
    6.8292  -18.9324   25.5564 N   0  0  0  0  0  0  0  0  0  0  0  0
    6.7429  -17.5396   25.1911 C   0  0  1  0  0  0  0  0  0  0  0  0
    7.3876  -16.7214   26.2837 C   0  0  0  0  0  0  0  0  0  0  0  0
    6.6110  -15.4840   26.5496 C   0  0  0  0  0  0  0  0  0  0  0  0
    5.2596  -15.3270   26.7280 C   0  0  0  0  0  0  0  0  0  0  0  0
    4.9936  -14.0187   26.9458 N   0  0  0  0  0  0  0  0  0  0  0  0
    6.1272  -13.2941   26.9187 C   0  0  0  0  0  0  0  0  0  0  0  0
    6.4104  -11.9365   27.0804 C   0  0  0  0  0  0  0  0  0  0  0  0
    7.7194  -11.4789   26.9949 C   0  0  0  0  0  0  0  0  0  0  0  0
    8.7317  -12.3725   26.7503 C   0  0  0  0  0  0  0  0  0  0  0  0
    8.4336  -13.7213   26.5916 C   0  0  0  0  0  0  0  0  0  0  0  0
    7.1347  -14.1997   26.6729 C   0  0  0  0  0  0  0  0  0  0  0  0
    7.3798  -17.3125   23.8737 C   0  0  0  0  0  0  0  0  0  0  0  0
    8.2810  -18.0639   23.4143 O   0  0  0  0  0  0  0  0  0  0  0  0
    9.1283  -13.1554   16.3250 O   0  0  0  0  0  0  0  0  0  0  0  0
    8.6190  -13.4888   17.5692 C   0  0  0  0  0  0  0  0  0  0  0  0
    8.0402  -14.7290   17.7694 C   0  0  0  0  0  0  0  0  0  0  0  0
    7.5391  -15.0533   18.9986 C   0  0  0  0  0  0  0  0  0  0  0  0
    7.6148  -14.1418   20.0277 C   0  0  0  0  0  0  0  0  0  0  0  0
    7.0608  -14.5310   21.3486 C   0  0  0  0  0  0  0  0  0  0  0  0
    7.6443  -15.8154   21.8733 C   0  0  2  0  0  0  0  0  0  0  0  0
    6.9787  -16.2114   23.0747 N   0  0  0  0  0  0  0  0  0  0  0  0
    9.1058  -15.5924   22.0683 C   0  0  0  0  0  0  0  0  0  0  0  0
    9.8211  -15.6467   21.0303 O   0  0  0  0  0  0  0  0  0  0  0  0
    8.1804  -12.9126   19.8564 C   0  0  0  0  0  0  0  0  0  0  0  0
    8.6850  -12.5891   18.6147 C   0  0  0  0  0  0  0  0  0  0  0  0
   10.4612  -15.4926   28.7891 C   0  0  0  0  0  0  0  0  0  0  0  0
   11.1619  -14.5031   27.4429 S   0  0  0  0  0  0  0  0  0  0  0  0
   11.1587  -15.4884   25.8837 C   0  0  0  0  0  0  0  0  0  0  0  0
   11.5417  -14.6146   24.7251 C   0  0  0  0  0  0  0  0  0  0  0  0
   11.1297  -15.2118   23.4313 C   0  0  2  0  0  0  0  0  0  0  0  0
    9.6815  -15.3340   23.3268 N   0  0  0  0  0  0  0  0  0  0  0  0
   11.7483  -16.5045   23.1653 C   0  0  0  0  0  0  0  0  0  0  0  0
   11.6959  -17.6242   23.9644 O   0  0  0  0  0  0  0  0  0  0  0  0
   12.4239  -16.6555   22.0835 O   0  0  0  0  0  0  0  0  0  0  0  0
  2  1  1  1
  3  2  1  0
  4  3  1  0
  4  5  2  0
  6  5  1  0
  7  6  1  0
  8  7  2  0
  9  8  1  0
 10  9  2  0
 10 11  1  0
 11 12  2  0
 12  7  1  0
 12  4  1  0
 13  2  1  0
 14 13  2  0
 16 15  1  0
 17 16  2  0
 18 17  1  0
 19 25  1  0
 19 18  2  0
 20 19  1  0
 21 20  1  1
 21 23  1  0
 21 22  1  0
 22 13  1  0
 23 32  1  0
 24 23  2  0
 25 26  2  0
 26 16  1  0
 27 28  1  0
 28 29  1  0
 29 30  1  0
 31 33  1  0
 31 30  1  1
 32 31  1  0
 33 34  1  0
 35 33  2  0
M  END
$$$$
