WYM.pdb
     RDKit          3D

 35 37  0  0  1  0  0  0  0  0999 V2000
    9.7579  -16.0698   21.4844 N   0  0  0  0  0  0  0  0  0  0  0  0
    8.6154  -16.1212   22.3635 C   0  0  1  0  0  0  0  0  0  0  0  0
    7.3854  -16.3831   21.5285 C   0  0  0  0  0  0  0  0  0  0  0  0
    7.3640  -15.5122   20.3259 C   0  0  0  0  0  0  0  0  0  0  0  0
    7.0220  -15.8223   19.0338 C   0  0  0  0  0  0  0  0  0  0  0  0
    7.1491  -14.7150   18.2672 N   0  0  0  0  0  0  0  0  0  0  0  0
    7.5663  -13.6717   19.0077 C   0  0  0  0  0  0  0  0  0  0  0  0
    7.8494  -12.3350   18.7209 C   0  0  0  0  0  0  0  0  0  0  0  0
    8.2735  -11.4769   19.7280 C   0  0  0  0  0  0  0  0  0  0  0  0
    8.4115  -11.9544   21.0071 C   0  0  0  0  0  0  0  0  0  0  0  0
    8.1257  -13.2882   21.2769 C   0  0  0  0  0  0  0  0  0  0  0  0
    7.7013  -14.1618   20.2873 C   0  0  0  0  0  0  0  0  0  0  0  0
    8.8135  -17.1547   23.4054 C   0  0  0  0  0  0  0  0  0  0  0  0
    7.8539  -17.7333   23.9819 O   0  0  0  0  0  0  0  0  0  0  0  0
   15.5644  -18.5235   21.1724 O   0  0  0  0  0  0  0  0  0  0  0  0
   14.4597  -18.8003   21.9608 C   0  0  0  0  0  0  0  0  0  0  0  0
   14.6221  -19.0717   23.3074 C   0  0  0  0  0  0  0  0  0  0  0  0
   13.5292  -19.3443   24.0810 C   0  0  0  0  0  0  0  0  0  0  0  0
   12.2751  -19.3464   23.5128 C   0  0  0  0  0  0  0  0  0  0  0  0
   11.1125  -19.6456   24.3856 C   0  0  0  0  0  0  0  0  0  0  0  0
   10.4170  -18.4060   24.8805 C   0  0  2  0  0  0  0  0  0  0  0  0
   10.1265  -17.5282   23.7903 N   0  0  0  0  0  0  0  0  0  0  0  0
   11.2999  -17.7808   25.9068 C   0  0  0  0  0  0  0  0  0  0  0  0
   12.2634  -17.0936   25.4691 O   0  0  0  0  0  0  0  0  0  0  0  0
   12.0880  -19.0821   22.1879 C   0  0  0  0  0  0  0  0  0  0  0  0
   13.1933  -18.8074   21.4105 C   0  0  0  0  0  0  0  0  0  0  0  0
    7.3618  -14.0345   27.3158 C   0  0  0  0  0  0  0  0  0  0  0  0
    8.9348  -13.2480   27.7512 S   0  0  0  0  0  0  0  0  0  0  0  0
   10.0748  -14.5034   28.4766 C   0  0  0  0  0  0  0  0  0  0  0  0
   10.1092  -15.7265   27.6076 C   0  0  0  0  0  0  0  0  0  0  0  0
   11.0509  -16.7443   28.1344 C   0  0  2  0  0  0  0  0  0  0  0  0
   11.0937  -17.9319   27.2913 N   0  0  0  0  0  0  0  0  0  0  0  0
   10.7740  -17.1339   29.5114 C   0  0  0  0  0  0  0  0  0  0  0  0
   11.0778  -16.4191   30.6479 O   0  0  0  0  0  0  0  0  0  0  0  0
   10.1882  -18.2557   29.7305 O   0  0  0  0  0  0  0  0  0  0  0  0
  2  1  1  6
  3  2  1  0
  4  3  1  0
  4  5  2  0
  6  5  1  0
  7  6  1  0
  8  7  2  0
  9  8  1  0
 10  9  2  0
 10 11  1  0
 11 12  2  0
 12  7  1  0
 12  4  1  0
 13  2  1  0
 14 13  2  0
 16 15  1  0
 17 16  2  0
 18 17  1  0
 19 25  1  0
 19 18  2  0
 20 19  1  0
 21 20  1  6
 21 23  1  0
 21 22  1  0
 22 13  1  0
 23 32  1  0
 24 23  2  0
 25 26  2  0
 26 16  1  0
 27 28  1  0
 28 29  1  0
 29 30  1  0
 31 33  1  0
 31 30  1  6
 32 31  1  0
 33 34  1  0
 35 33  2  0
M  END
$$$$
