WYM.pdb
     RDKit          3D

 35 37  0  0  1  0  0  0  0  0999 V2000
    6.1613  -18.1632   23.6537 N   0  0  0  0  0  0  0  0  0  0  0  0
    6.9750  -16.9741   23.7216 C   0  0  1  0  0  0  0  0  0  0  0  0
    7.3273  -16.7219   25.1676 C   0  0  0  0  0  0  0  0  0  0  0  0
    6.5622  -15.5696   25.7079 C   0  0  0  0  0  0  0  0  0  0  0  0
    5.4182  -15.5638   26.4655 C   0  0  0  0  0  0  0  0  0  0  0  0
    5.0735  -14.2832   26.7320 N   0  0  0  0  0  0  0  0  0  0  0  0
    5.9530  -13.4303   26.1752 C   0  0  0  0  0  0  0  0  0  0  0  0
    6.0626  -12.0388   26.1445 C   0  0  0  0  0  0  0  0  0  0  0  0
    7.1137  -11.4337   25.4668 C   0  0  0  0  0  0  0  0  0  0  0  0
    8.0433  -12.2153   24.8280 C   0  0  0  0  0  0  0  0  0  0  0  0
    7.9204  -13.5997   24.8677 C   0  0  0  0  0  0  0  0  0  0  0  0
    6.8796  -14.2245   25.5379 C   0  0  0  0  0  0  0  0  0  0  0  0
    8.1783  -17.1245   22.8717 C   0  0  0  0  0  0  0  0  0  0  0  0
    8.6185  -18.2475   22.5069 O   0  0  0  0  0  0  0  0  0  0  0  0
    6.7328  -13.7849   16.8989 O   0  0  0  0  0  0  0  0  0  0  0  0
    7.6406  -14.0265   17.9168 C   0  0  0  0  0  0  0  0  0  0  0  0
    7.8851  -13.0545   18.8701 C   0  0  0  0  0  0  0  0  0  0  0  0
    8.7816  -13.2976   19.8722 C   0  0  0  0  0  0  0  0  0  0  0  0
    9.4342  -14.5088   19.9242 C   0  0  0  0  0  0  0  0  0  0  0  0
   10.3996  -14.7360   21.0284 C   0  0  0  0  0  0  0  0  0  0  0  0
   10.1489  -16.0211   21.7708 C   0  0  2  0  0  0  0  0  0  0  0  0
    8.8844  -15.9743   22.4358 N   0  0  0  0  0  0  0  0  0  0  0  0
   11.2895  -16.2213   22.7103 C   0  0  0  0  0  0  0  0  0  0  0  0
   12.4301  -16.3417   22.1842 O   0  0  0  0  0  0  0  0  0  0  0  0
    9.2111  -15.4836   18.9967 C   0  0  0  0  0  0  0  0  0  0  0  0
    8.3057  -15.2346   17.9870 C   0  0  0  0  0  0  0  0  0  0  0  0
    9.1593  -14.0469   28.6849 C   0  0  0  0  0  0  0  0  0  0  0  0
   10.8631  -14.4222   28.1964 S   0  0  0  0  0  0  0  0  0  0  0  0
   10.8575  -15.3998   26.6324 C   0  0  0  0  0  0  0  0  0  0  0  0
   12.2654  -15.6213   26.1620 C   0  0  0  0  0  0  0  0  0  0  0  0
   12.3078  -16.4701   24.9462 C   0  0  2  0  0  0  0  0  0  0  0  0
   11.1317  -16.2765   24.1082 N   0  0  0  0  0  0  0  0  0  0  0  0
   12.4726  -17.8894   25.2346 C   0  0  0  0  0  0  0  0  0  0  0  0
   13.5637  -18.4910   25.8197 O   0  0  0  0  0  0  0  0  0  0  0  0
   11.5240  -18.6975   24.9235 O   0  0  0  0  0  0  0  0  0  0  0  0
  2  1  1  1
  3  2  1  0
  4  3  1  0
  4  5  2  0
  6  5  1  0
  7  6  1  0
  8  7  2  0
  9  8  1  0
 10  9  2  0
 10 11  1  0
 11 12  2  0
 12  7  1  0
 12  4  1  0
 13  2  1  0
 14 13  2  0
 16 15  1  0
 17 16  2  0
 18 17  1  0
 19 25  1  0
 19 18  2  0
 20 19  1  0
 21 20  1  1
 21 23  1  0
 21 22  1  0
 22 13  1  0
 23 32  1  0
 24 23  2  0
 25 26  2  0
 26 16  1  0
 27 28  1  0
 28 29  1  0
 29 30  1  0
 31 33  1  0
 31 30  1  1
 32 31  1  0
 33 34  1  0
 35 33  2  0
M  END
$$$$
