WYM.pdb
     RDKit          3D

 35 37  0  0  1  0  0  0  0  0999 V2000
    5.9655  -18.3120   25.5687 N   0  0  0  0  0  0  0  0  0  0  0  0
    6.3447  -16.9961   25.1154 C   0  0  1  0  0  0  0  0  0  0  0  0
    7.2648  -16.3861   26.1449 C   0  0  0  0  0  0  0  0  0  0  0  0
    6.6882  -15.1344   26.6979 C   0  0  0  0  0  0  0  0  0  0  0  0
    5.6528  -14.9709   27.5833 C   0  0  0  0  0  0  0  0  0  0  0  0
    5.4700  -13.6494   27.8073 N   0  0  0  0  0  0  0  0  0  0  0  0
    6.3526  -12.9223   27.0979 C   0  0  0  0  0  0  0  0  0  0  0  0
    6.5925  -11.5532   26.9667 C   0  0  0  0  0  0  0  0  0  0  0  0
    7.6055  -11.0961   26.1329 C   0  0  0  0  0  0  0  0  0  0  0  0
    8.3684  -12.0018   25.4395 C   0  0  0  0  0  0  0  0  0  0  0  0
    8.1172  -13.3621   25.5807 C   0  0  0  0  0  0  0  0  0  0  0  0
    7.1116  -13.8401   26.4072 C   0  0  0  0  0  0  0  0  0  0  0  0
    6.9764  -17.0743   23.7783 C   0  0  0  0  0  0  0  0  0  0  0  0
    7.7688  -17.9983   23.4525 O   0  0  0  0  0  0  0  0  0  0  0  0
    9.7283  -13.8541   16.1053 O   0  0  0  0  0  0  0  0  0  0  0  0
    9.0666  -14.0192   17.3109 C   0  0  0  0  0  0  0  0  0  0  0  0
    8.5297  -15.2503   17.6418 C   0  0  0  0  0  0  0  0  0  0  0  0
    7.8778  -15.4081   18.8322 C   0  0  0  0  0  0  0  0  0  0  0  0
    7.7610  -14.3395   19.6925 C   0  0  0  0  0  0  0  0  0  0  0  0
    7.0472  -14.5505   20.9766 C   0  0  0  0  0  0  0  0  0  0  0  0
    7.6145  -15.6882   21.7823 C   0  0  2  0  0  0  0  0  0  0  0  0
    6.6963  -16.0817   22.8047 N   0  0  0  0  0  0  0  0  0  0  0  0
    8.9272  -15.2360   22.3266 C   0  0  0  0  0  0  0  0  0  0  0  0
    8.9912  -14.0320   22.6985 O   0  0  0  0  0  0  0  0  0  0  0  0
    8.2813  -13.1156   19.3900 C   0  0  0  0  0  0  0  0  0  0  0  0
    8.9385  -12.9602   18.1878 C   0  0  0  0  0  0  0  0  0  0  0  0
    9.3934  -14.2297   27.8837 C   0  0  0  0  0  0  0  0  0  0  0  0
   10.6494  -15.1711   26.9787 S   0  0  0  0  0  0  0  0  0  0  0  0
   10.3963  -14.9562   25.1645 C   0  0  0  0  0  0  0  0  0  0  0  0
   11.4292  -15.7385   24.4072 C   0  0  0  0  0  0  0  0  0  0  0  0
   11.2991  -15.5403   22.9429 C   0  0  2  0  0  0  0  0  0  0  0  0
   10.0473  -16.0825   22.4311 N   0  0  0  0  0  0  0  0  0  0  0  0
   12.4149  -16.0879   22.1815 C   0  0  0  0  0  0  0  0  0  0  0  0
   12.3551  -17.0770   21.2260 O   0  0  0  0  0  0  0  0  0  0  0  0
   13.5947  -15.6279   22.3964 O   0  0  0  0  0  0  0  0  0  0  0  0
  2  1  1  1
  3  2  1  0
  4  3  1  0
  4  5  2  0
  6  5  1  0
  7  6  1  0
  8  7  2  0
  9  8  1  0
 10  9  2  0
 10 11  1  0
 11 12  2  0
 12  7  1  0
 12  4  1  0
 13  2  1  0
 14 13  2  0
 16 15  1  0
 17 16  2  0
 18 17  1  0
 19 25  1  0
 19 18  2  0
 20 19  1  0
 21 20  1  1
 21 23  1  0
 21 22  1  0
 22 13  1  0
 23 32  1  0
 24 23  2  0
 25 26  2  0
 26 16  1  0
 27 28  1  0
 28 29  1  0
 29 30  1  0
 31 33  1  0
 31 30  1  1
 32 31  1  0
 33 34  1  0
 35 33  2  0
M  END
$$$$
