WYM.pdb
     RDKit          3D

 35 37  0  0  1  0  0  0  0  0999 V2000
    6.2950  -17.5327   24.3955 N   0  0  0  0  0  0  0  0  0  0  0  0
    7.1012  -16.3551   24.1859 C   0  0  1  0  0  0  0  0  0  0  0  0
    7.4931  -15.8018   25.5346 C   0  0  0  0  0  0  0  0  0  0  0  0
    6.4880  -14.8221   26.0195 C   0  0  0  0  0  0  0  0  0  0  0  0
    5.2854  -15.0456   26.6413 C   0  0  0  0  0  0  0  0  0  0  0  0
    4.6994  -13.8556   26.9065 N   0  0  0  0  0  0  0  0  0  0  0  0
    5.4740  -12.8409   26.4807 C   0  0  0  0  0  0  0  0  0  0  0  0
    5.3458  -11.4509   26.5061 C   0  0  0  0  0  0  0  0  0  0  0  0
    6.3439  -10.6454   25.9721 C   0  0  0  0  0  0  0  0  0  0  0  0
    7.4570  -11.2275   25.4197 C   0  0  0  0  0  0  0  0  0  0  0  0
    7.5700  -12.6133   25.4019 C   0  0  0  0  0  0  0  0  0  0  0  0
    6.5862  -13.4361   25.9290 C   0  0  0  0  0  0  0  0  0  0  0  0
    8.2807  -16.6804   23.3517 C   0  0  0  0  0  0  0  0  0  0  0  0
    8.7231  -17.8536   23.2257 O   0  0  0  0  0  0  0  0  0  0  0  0
    6.8482  -14.0940   16.8853 O   0  0  0  0  0  0  0  0  0  0  0  0
    7.7544  -14.2386   17.9229 C   0  0  0  0  0  0  0  0  0  0  0  0
    7.8525  -13.2607   18.8962 C   0  0  0  0  0  0  0  0  0  0  0  0
    8.7480  -13.4078   19.9177 C   0  0  0  0  0  0  0  0  0  0  0  0
    9.5454  -14.5290   19.9692 C   0  0  0  0  0  0  0  0  0  0  0  0
   10.5048  -14.6536   21.0947 C   0  0  0  0  0  0  0  0  0  0  0  0
   10.2113  -15.8295   21.9874 C   0  0  2  0  0  0  0  0  0  0  0  0
    8.9601  -15.6489   22.6547 N   0  0  0  0  0  0  0  0  0  0  0  0
   11.3565  -15.9665   22.9326 C   0  0  0  0  0  0  0  0  0  0  0  0
   12.0621  -14.9349   23.1063 O   0  0  0  0  0  0  0  0  0  0  0  0
    9.4682  -15.5075   19.0221 C   0  0  0  0  0  0  0  0  0  0  0  0
    8.5633  -15.3555   17.9929 C   0  0  0  0  0  0  0  0  0  0  0  0
   11.4328  -13.8045   28.2843 C   0  0  0  0  0  0  0  0  0  0  0  0
   12.2173  -15.3988   27.9306 S   0  0  0  0  0  0  0  0  0  0  0  0
   12.3395  -15.6373   26.1058 C   0  0  0  0  0  0  0  0  0  0  0  0
   12.7115  -17.0586   25.7990 C   0  0  0  0  0  0  0  0  0  0  0  0
   12.9085  -17.2695   24.3440 C   0  0  2  0  0  0  0  0  0  0  0  0
   11.6562  -17.1658   23.6063 N   0  0  0  0  0  0  0  0  0  0  0  0
   13.5597  -18.5335   24.0235 C   0  0  0  0  0  0  0  0  0  0  0  0
   13.0520  -19.5490   23.2451 O   0  0  0  0  0  0  0  0  0  0  0  0
   14.7301  -18.7639   24.4996 O   0  0  0  0  0  0  0  0  0  0  0  0
  2  1  1  1
  3  2  1  0
  4  3  1  0
  4  5  2  0
  6  5  1  0
  7  6  1  0
  8  7  2  0
  9  8  1  0
 10  9  2  0
 10 11  1  0
 11 12  2  0
 12  7  1  0
 12  4  1  0
 13  2  1  0
 14 13  2  0
 16 15  1  0
 17 16  2  0
 18 17  1  0
 19 25  1  0
 19 18  2  0
 20 19  1  0
 21 20  1  6
 21 23  1  0
 21 22  1  0
 22 13  1  0
 23 32  1  0
 24 23  2  0
 25 26  2  0
 26 16  1  0
 27 28  1  0
 28 29  1  0
 29 30  1  0
 31 33  1  0
 31 30  1  1
 32 31  1  0
 33 34  1  0
 35 33  2  0
M  END
$$$$
