TVA.pdb
     RDKit          3D

 20 19  0  0  1  0  0  0  0  0999 V2000
   10.6189  -19.0725   20.2416 C   0  0  0  0  0  0  0  0  0  0  0  0
   10.3486  -17.7277   20.8986 C   0  0  1  0  0  0  0  0  0  0  0  0
    9.1390  -17.2002   20.4488 O   0  0  0  0  0  0  0  0  0  0  0  0
   10.3451  -17.8868   22.4144 C   0  0  2  0  0  0  0  0  0  0  0  0
    9.2139  -18.7270   22.7597 N   0  0  0  0  0  0  0  0  0  0  0  0
   10.2325  -16.5369   23.0082 C   0  0  0  0  0  0  0  0  0  0  0  0
   11.1178  -15.6731   22.7921 O   0  0  0  0  0  0  0  0  0  0  0  0
    7.4490  -14.1571   22.7497 C   0  0  0  0  0  0  0  0  0  0  0  0
    7.6808  -14.3094   24.2180 C   0  0  2  0  0  0  0  0  0  0  0  0
    7.3869  -13.0621   25.0062 C   0  0  0  0  0  0  0  0  0  0  0  0
    9.0971  -14.8252   24.4858 C   0  0  2  0  0  0  0  0  0  0  0  0
    9.1467  -16.1416   23.8377 N   0  0  0  0  0  0  0  0  0  0  0  0
    9.3234  -14.9308   25.9372 C   0  0  0  0  0  0  0  0  0  0  0  0
    8.5861  -15.6830   26.6211 O   0  0  0  0  0  0  0  0  0  0  0  0
    9.3630  -13.3755   28.7089 C   0  0  0  0  0  0  0  0  0  0  0  0
   10.4597  -14.1954   28.0647 C   0  0  2  0  0  0  0  0  0  0  0  0
   10.3465  -14.2174   26.6193 N   0  0  0  0  0  0  0  0  0  0  0  0
   10.4298  -15.5885   28.5777 C   0  0  0  0  0  0  0  0  0  0  0  0
   10.4413  -15.8736   29.8072 O   0  0  0  0  0  0  0  0  0  0  0  0
   10.3868  -16.6529   27.6832 O   0  0  0  0  0  0  0  0  0  0  0  0
  2  1  1  6
  2  4  1  0
  3  2  1  0
  4  5  1  6
  6 12  1  0
  6  4  1  0
  7  6  2  0
  9  8  1  6
  9 11  1  0
 10  9  1  0
 11 12  1  6
 11 13  1  0
 13 17  1  0
 14 13  2  0
 16 18  1  0
 16 15  1  1
 17 16  1  0
 18 20  1  0
 19 18  2  0
M  END
$$$$
