TVA.pdb
     RDKit          3D

 20 19  0  0  1  0  0  0  0  0999 V2000
    5.9827  -15.7789   19.9269 C   0  0  0  0  0  0  0  0  0  0  0  0
    6.7485  -15.5862   21.2268 C   0  0  1  0  0  0  0  0  0  0  0  0
    7.8905  -16.3859   21.2425 O   0  0  0  0  0  0  0  0  0  0  0  0
    7.1092  -14.1155   21.3987 C   0  0  2  0  0  0  0  0  0  0  0  0
    7.9619  -13.7450   20.2849 N   0  0  0  0  0  0  0  0  0  0  0  0
    7.8023  -13.9709   22.6972 C   0  0  0  0  0  0  0  0  0  0  0  0
    9.0559  -14.0118   22.7551 O   0  0  0  0  0  0  0  0  0  0  0  0
    6.3096  -11.7427   25.5595 C   0  0  0  0  0  0  0  0  0  0  0  0
    6.8230  -13.0121   26.1578 C   0  0  2  0  0  0  0  0  0  0  0  0
    7.3986  -12.8377   27.5368 C   0  0  0  0  0  0  0  0  0  0  0  0
    7.8204  -13.6851   25.2112 C   0  0  2  0  0  0  0  0  0  0  0  0
    7.1142  -13.7818   23.9277 N   0  0  0  0  0  0  0  0  0  0  0  0
    8.1798  -15.0159   25.7294 C   0  0  0  0  0  0  0  0  0  0  0  0
    7.2791  -15.8754   25.8938 O   0  0  0  0  0  0  0  0  0  0  0  0
   11.1748  -17.1842   25.8301 C   0  0  0  0  0  0  0  0  0  0  0  0
    9.8743  -16.7345   26.4599 C   0  0  2  0  0  0  0  0  0  0  0  0
    9.5113  -15.3889   26.0597 N   0  0  0  0  0  0  0  0  0  0  0  0
    9.9718  -16.7936   27.9403 C   0  0  0  0  0  0  0  0  0  0  0  0
    9.9571  -15.7684   28.6763 O   0  0  0  0  0  0  0  0  0  0  0  0
   10.0860  -18.0256   28.5761 O   0  0  0  0  0  0  0  0  0  0  0  0
  2  1  1  6
  2  4  1  0
  3  2  1  0
  4  5  1  6
  6 12  1  0
  6  4  1  0
  7  6  2  0
  9  8  1  6
  9 11  1  0
 10  9  1  0
 11 12  1  6
 11 13  1  0
 13 17  1  0
 14 13  2  0
 16 18  1  0
 16 15  1  6
 17 16  1  0
 18 20  1  0
 19 18  2  0
M  END
$$$$
