TVA.pdb
     RDKit          3D

 20 19  0  0  1  0  0  0  0  0999 V2000
    6.9392  -19.3162   19.7120 C   0  0  0  0  0  0  0  0  0  0  0  0
    7.4392  -19.2875   18.2759 C   0  0  1  0  0  0  0  0  0  0  0  0
    6.7596  -20.2294   17.5046 O   0  0  0  0  0  0  0  0  0  0  0  0
    7.2713  -17.8864   17.7002 C   0  0  2  0  0  0  0  0  0  0  0  0
    7.6612  -17.9417   16.3038 N   0  0  0  0  0  0  0  0  0  0  0  0
    8.1352  -16.9732   18.4794 C   0  0  0  0  0  0  0  0  0  0  0  0
    9.3781  -17.1488   18.5110 O   0  0  0  0  0  0  0  0  0  0  0  0
    8.4461  -12.7827   21.1308 C   0  0  0  0  0  0  0  0  0  0  0  0
    7.6519  -13.7765   20.3468 C   0  0  2  0  0  0  0  0  0  0  0  0
    6.3426  -14.1430   20.9909 C   0  0  0  0  0  0  0  0  0  0  0  0
    8.4970  -15.0161   20.0417 C   0  0  2  0  0  0  0  0  0  0  0  0
    7.6293  -15.8700   19.2212 N   0  0  0  0  0  0  0  0  0  0  0  0
    8.8757  -15.6833   21.2988 C   0  0  0  0  0  0  0  0  0  0  0  0
    8.0057  -16.3191   21.9436 O   0  0  0  0  0  0  0  0  0  0  0  0
   10.6100  -17.8889   22.7522 C   0  0  0  0  0  0  0  0  0  0  0  0
   10.5843  -16.3980   23.0100 C   0  0  2  0  0  0  0  0  0  0  0  0
   10.1929  -15.6477   21.8326 N   0  0  0  0  0  0  0  0  0  0  0  0
   11.9185  -15.9312   23.4647 C   0  0  0  0  0  0  0  0  0  0  0  0
   12.6486  -15.1563   22.7868 O   0  0  0  0  0  0  0  0  0  0  0  0
   12.4151  -16.3516   24.6942 O   0  0  0  0  0  0  0  0  0  0  0  0
  2  1  1  1
  2  4  1  0
  3  2  1  0
  4  5  1  6
  6 12  1  0
  6  4  1  0
  7  6  2  0
  9  8  1  1
  9 11  1  0
 10  9  1  0
 11 12  1  6
 11 13  1  0
 13 17  1  0
 14 13  2  0
 16 18  1  0
 16 15  1  6
 17 16  1  0
 18 20  1  0
 19 18  2  0
M  END
$$$$
