TVA.pdb
     RDKit          3D

 20 19  0  0  1  0  0  0  0  0999 V2000
    6.7062  -19.2043   16.6208 C   0  0  0  0  0  0  0  0  0  0  0  0
    7.5175  -18.4520   17.6644 C   0  0  1  0  0  0  0  0  0  0  0  0
    8.6124  -19.2131   18.0716 O   0  0  0  0  0  0  0  0  0  0  0  0
    7.9655  -17.1096   17.0988 C   0  0  2  0  0  0  0  0  0  0  0  0
    8.8828  -17.3827   16.0085 N   0  0  0  0  0  0  0  0  0  0  0  0
    8.6156  -16.3550   18.1921 C   0  0  0  0  0  0  0  0  0  0  0  0
    9.8635  -16.3843   18.3283 O   0  0  0  0  0  0  0  0  0  0  0  0
    7.3247  -12.8482   19.6189 C   0  0  0  0  0  0  0  0  0  0  0  0
    7.5575  -13.8325   20.7188 C   0  0  2  0  0  0  0  0  0  0  0  0
    7.9821  -13.1974   22.0148 C   0  0  0  0  0  0  0  0  0  0  0  0
    8.5449  -14.9131   20.2701 C   0  0  2  0  0  0  0  0  0  0  0  0
    7.8911  -15.5706   19.1319 N   0  0  0  0  0  0  0  0  0  0  0  0
    8.7845  -15.8588   21.3733 C   0  0  0  0  0  0  0  0  0  0  0  0
    7.8162  -16.4926   21.8609 O   0  0  0  0  0  0  0  0  0  0  0  0
   11.3044  -18.1286   22.5624 C   0  0  0  0  0  0  0  0  0  0  0  0
   10.3067  -17.0695   22.9781 C   0  0  2  0  0  0  0  0  0  0  0  0
   10.0718  -16.0990   21.9267 N   0  0  0  0  0  0  0  0  0  0  0  0
   10.7816  -16.3645   24.1956 C   0  0  0  0  0  0  0  0  0  0  0  0
   11.1869  -15.1692   24.1893 O   0  0  0  0  0  0  0  0  0  0  0  0
   10.7919  -17.0282   25.4181 O   0  0  0  0  0  0  0  0  0  0  0  0
  2  1  1  6
  2  4  1  0
  3  2  1  0
  4  5  1  6
  6 12  1  0
  6  4  1  0
  7  6  2  0
  9  8  1  6
  9 11  1  0
 10  9  1  0
 11 12  1  6
 11 13  1  0
 13 17  1  0
 14 13  2  0
 16 18  1  0
 16 15  1  6
 17 16  1  0
 18 20  1  0
 19 18  2  0
M  END
$$$$
