TVA.pdb
     RDKit          3D

 20 19  0  0  1  0  0  0  0  0999 V2000
    6.1341  -18.7985   24.4497 C   0  0  0  0  0  0  0  0  0  0  0  0
    5.5001  -19.2858   23.1559 C   0  0  1  0  0  0  0  0  0  0  0  0
    4.3203  -19.9792   23.4226 O   0  0  0  0  0  0  0  0  0  0  0  0
    5.2408  -18.1018   22.2319 C   0  0  2  0  0  0  0  0  0  0  0  0
    4.5718  -18.6124   21.0501 N   0  0  0  0  0  0  0  0  0  0  0  0
    6.5476  -17.4904   21.9065 C   0  0  0  0  0  0  0  0  0  0  0  0
    7.3420  -18.0696   21.1254 O   0  0  0  0  0  0  0  0  0  0  0  0
    7.4958  -13.5487   23.1705 C   0  0  0  0  0  0  0  0  0  0  0  0
    7.9831  -14.1604   21.8973 C   0  0  2  0  0  0  0  0  0  0  0  0
    7.0665  -13.9258   20.7275 C   0  0  0  0  0  0  0  0  0  0  0  0
    8.2739  -15.6503   22.0960 C   0  0  2  0  0  0  0  0  0  0  0  0
    6.9762  -16.2439   22.4411 N   0  0  0  0  0  0  0  0  0  0  0  0
    9.2526  -15.8268   23.1823 C   0  0  0  0  0  0  0  0  0  0  0  0
    8.8493  -15.8795   24.3704 O   0  0  0  0  0  0  0  0  0  0  0  0
   11.2003  -17.8597   24.3963 C   0  0  0  0  0  0  0  0  0  0  0  0
   11.5675  -16.4589   23.9568 C   0  0  2  0  0  0  0  0  0  0  0  0
   10.6516  -15.9431   22.9581 N   0  0  0  0  0  0  0  0  0  0  0  0
   12.9481  -16.4361   23.4108 C   0  0  0  0  0  0  0  0  0  0  0  0
   13.2073  -16.2285   22.1932 O   0  0  0  0  0  0  0  0  0  0  0  0
   14.0297  -16.6507   24.2589 O   0  0  0  0  0  0  0  0  0  0  0  0
  2  1  1  1
  2  4  1  0
  3  2  1  0
  4  5  1  6
  6 12  1  0
  6  4  1  0
  7  6  2  0
  9  8  1  1
  9 11  1  0
 10  9  1  0
 11 12  1  1
 11 13  1  0
 13 17  1  0
 14 13  2  0
 16 18  1  0
 16 15  1  6
 17 16  1  0
 18 20  1  0
 19 18  2  0
M  END
$$$$
