TVA.pdb
     RDKit          3D

 20 19  0  0  1  0  0  0  0  0999 V2000
    6.3535  -19.5117   17.1189 C   0  0  0  0  0  0  0  0  0  0  0  0
    7.2412  -18.7066   18.0554 C   0  0  1  0  0  0  0  0  0  0  0  0
    8.3885  -19.4292   18.3802 O   0  0  0  0  0  0  0  0  0  0  0  0
    7.5998  -17.3749   17.4068 C   0  0  2  0  0  0  0  0  0  0  0  0
    8.3976  -17.6663   16.2306 N   0  0  0  0  0  0  0  0  0  0  0  0
    8.3513  -16.5782   18.4007 C   0  0  0  0  0  0  0  0  0  0  0  0
    9.6067  -16.5970   18.4104 O   0  0  0  0  0  0  0  0  0  0  0  0
    7.1785  -13.0145   19.6405 C   0  0  0  0  0  0  0  0  0  0  0  0
    7.5450  -13.8711   20.8087 C   0  0  2  0  0  0  0  0  0  0  0  0
    8.1088  -13.0971   21.9691 C   0  0  0  0  0  0  0  0  0  0  0  0
    8.4850  -14.9980   20.3723 C   0  0  2  0  0  0  0  0  0  0  0  0
    7.7194  -15.7634   19.3807 N   0  0  0  0  0  0  0  0  0  0  0  0
    8.8415  -15.8285   21.5351 C   0  0  0  0  0  0  0  0  0  0  0  0
    7.9367  -16.4425   22.1526 O   0  0  0  0  0  0  0  0  0  0  0  0
   10.9668  -18.1786   22.7593 C   0  0  0  0  0  0  0  0  0  0  0  0
   10.5157  -16.7900   23.1571 C   0  0  2  0  0  0  0  0  0  0  0  0
   10.1747  -15.9769   22.0061 N   0  0  0  0  0  0  0  0  0  0  0  0
   11.5779  -16.1079   23.9389 C   0  0  0  0  0  0  0  0  0  0  0  0
   12.2400  -15.1278   23.4984 O   0  0  0  0  0  0  0  0  0  0  0  0
   11.8808  -16.5483   25.2231 O   0  0  0  0  0  0  0  0  0  0  0  0
  2  1  1  6
  2  4  1  0
  3  2  1  0
  4  5  1  6
  6 12  1  0
  6  4  1  0
  7  6  2  0
  9  8  1  6
  9 11  1  0
 10  9  1  0
 11 12  1  6
 11 13  1  0
 13 17  1  0
 14 13  2  0
 16 18  1  0
 16 15  1  6
 17 16  1  0
 18 20  1  0
 19 18  2  0
M  END
$$$$
