TVA.pdb
     RDKit          3D

 20 19  0  0  1  0  0  0  0  0999 V2000
    7.0868  -18.6947   19.2905 C   0  0  0  0  0  0  0  0  0  0  0  0
    7.7756  -18.5599   17.9412 C   0  0  1  0  0  0  0  0  0  0  0  0
    7.1363  -19.3503   16.9869 O   0  0  0  0  0  0  0  0  0  0  0  0
    7.7926  -17.0965   17.5157 C   0  0  2  0  0  0  0  0  0  0  0  0
    8.3428  -17.0412   16.1745 N   0  0  0  0  0  0  0  0  0  0  0  0
    8.6270  -16.3554   18.4863 C   0  0  0  0  0  0  0  0  0  0  0  0
    9.8769  -16.4730   18.4680 O   0  0  0  0  0  0  0  0  0  0  0  0
    6.8306  -14.0423   21.5695 C   0  0  0  0  0  0  0  0  0  0  0  0
    8.1130  -13.6123   20.9343 C   0  0  2  0  0  0  0  0  0  0  0  0
    7.9284  -12.6252   19.8141 C   0  0  0  0  0  0  0  0  0  0  0  0
    8.9225  -14.8313   20.4843 C   0  0  2  0  0  0  0  0  0  0  0  0
    8.0837  -15.4875   19.4737 N   0  0  0  0  0  0  0  0  0  0  0  0
    9.1719  -15.7168   21.6344 C   0  0  0  0  0  0  0  0  0  0  0  0
    8.1973  -16.1723   22.2821 O   0  0  0  0  0  0  0  0  0  0  0  0
   11.2983  -18.3174   22.7006 C   0  0  0  0  0  0  0  0  0  0  0  0
   10.7109  -17.0019   23.1636 C   0  0  2  0  0  0  0  0  0  0  0  0
   10.4756  -16.0913   22.0599 N   0  0  0  0  0  0  0  0  0  0  0  0
   11.6138  -16.3528   24.1476 C   0  0  0  0  0  0  0  0  0  0  0  0
   11.8826  -16.8527   25.2749 O   0  0  0  0  0  0  0  0  0  0  0  0
   12.2076  -15.1330   23.8401 O   0  0  0  0  0  0  0  0  0  0  0  0
  2  1  1  1
  2  4  1  0
  3  2  1  0
  4  5  1  6
  6 12  1  0
  6  4  1  0
  7  6  2  0
  9  8  1  6
  9 11  1  0
 10  9  1  0
 11 12  1  6
 11 13  1  0
 13 17  1  0
 14 13  2  0
 16 18  1  0
 16 15  1  6
 17 16  1  0
 18 20  1  0
 19 18  2  0
M  END
$$$$
