TVA.pdb
     RDKit          3D

 20 19  0  0  1  0  0  0  0  0999 V2000
    7.2677  -19.0062   19.3747 C   0  0  0  0  0  0  0  0  0  0  0  0
    7.9015  -18.7664   18.0130 C   0  0  1  0  0  0  0  0  0  0  0  0
    7.2895  -19.5606   17.0442 O   0  0  0  0  0  0  0  0  0  0  0  0
    7.8013  -17.2893   17.6515 C   0  0  2  0  0  0  0  0  0  0  0  0
    8.2831  -17.1421   16.2910 N   0  0  0  0  0  0  0  0  0  0  0  0
    8.6291  -16.5328   18.6158 C   0  0  0  0  0  0  0  0  0  0  0  0
    9.8799  -16.6415   18.6001 O   0  0  0  0  0  0  0  0  0  0  0  0
    6.7789  -14.2504   21.6296 C   0  0  0  0  0  0  0  0  0  0  0  0
    8.0657  -13.7722   21.0395 C   0  0  2  0  0  0  0  0  0  0  0  0
    7.8848  -12.7576   19.9434 C   0  0  0  0  0  0  0  0  0  0  0  0
    8.9155  -14.9582   20.5756 C   0  0  2  0  0  0  0  0  0  0  0  0
    8.0785  -15.6594   19.5942 N   0  0  0  0  0  0  0  0  0  0  0  0
    9.2360  -15.8218   21.7246 C   0  0  0  0  0  0  0  0  0  0  0  0
    8.3333  -16.5348   22.2283 O   0  0  0  0  0  0  0  0  0  0  0  0
   11.2643  -18.1648   22.9008 C   0  0  0  0  0  0  0  0  0  0  0  0
   10.8540  -16.7949   23.3959 C   0  0  2  0  0  0  0  0  0  0  0  0
   10.5314  -15.8951   22.3057 N   0  0  0  0  0  0  0  0  0  0  0  0
   11.9382  -16.1981   24.2165 C   0  0  0  0  0  0  0  0  0  0  0  0
   12.5845  -15.1715   23.8681 O   0  0  0  0  0  0  0  0  0  0  0  0
   12.2809  -16.7768   25.4341 O   0  0  0  0  0  0  0  0  0  0  0  0
  2  1  1  1
  2  4  1  0
  3  2  1  0
  4  5  1  6
  6 12  1  0
  6  4  1  0
  7  6  2  0
  9  8  1  6
  9 11  1  0
 10  9  1  0
 11 12  1  6
 11 13  1  0
 13 17  1  0
 14 13  2  0
 16 18  1  0
 16 15  1  6
 17 16  1  0
 18 20  1  0
 19 18  2  0
M  END
$$$$
