TVA.pdb
     RDKit          3D

 20 19  0  0  1  0  0  0  0  0999 V2000
    6.4108  -19.2875   17.3524 C   0  0  0  0  0  0  0  0  0  0  0  0
    7.6840  -18.7158   17.9568 C   0  0  1  0  0  0  0  0  0  0  0  0
    8.7374  -19.6185   17.8173 O   0  0  0  0  0  0  0  0  0  0  0  0
    8.0151  -17.3835   17.2948 C   0  0  2  0  0  0  0  0  0  0  0  0
    8.9156  -17.6595   16.1913 N   0  0  0  0  0  0  0  0  0  0  0  0
    8.6421  -16.5170   18.3163 C   0  0  0  0  0  0  0  0  0  0  0  0
    9.8859  -16.5362   18.4875 O   0  0  0  0  0  0  0  0  0  0  0  0
    7.1358  -12.9479   19.5985 C   0  0  0  0  0  0  0  0  0  0  0  0
    7.4532  -13.8969   20.7082 C   0  0  2  0  0  0  0  0  0  0  0  0
    7.8407  -13.2141   21.9916 C   0  0  0  0  0  0  0  0  0  0  0  0
    8.5155  -14.9054   20.2628 C   0  0  2  0  0  0  0  0  0  0  0  0
    7.8991  -15.6322   19.1460 N   0  0  0  0  0  0  0  0  0  0  0  0
    8.8434  -15.8097   21.3780 C   0  0  0  0  0  0  0  0  0  0  0  0
    7.9447  -16.5429   21.8595 O   0  0  0  0  0  0  0  0  0  0  0  0
   10.8937  -18.2019   22.3779 C   0  0  0  0  0  0  0  0  0  0  0  0
   10.4841  -16.8716   22.9714 C   0  0  2  0  0  0  0  0  0  0  0  0
   10.1417  -15.9010   21.9500 N   0  0  0  0  0  0  0  0  0  0  0  0
   11.5769  -16.3262   23.8158 C   0  0  0  0  0  0  0  0  0  0  0  0
   12.2005  -15.2642   23.5396 O   0  0  0  0  0  0  0  0  0  0  0  0
   11.9545  -16.9968   24.9746 O   0  0  0  0  0  0  0  0  0  0  0  0
  2  1  1  6
  2  4  1  0
  3  2  1  0
  4  5  1  6
  6 12  1  0
  6  4  1  0
  7  6  2  0
  9  8  1  6
  9 11  1  0
 10  9  1  0
 11 12  1  6
 11 13  1  0
 13 17  1  0
 14 13  2  0
 16 18  1  0
 16 15  1  6
 17 16  1  0
 18 20  1  0
 19 18  2  0
M  END
$$$$
