TVA.pdb
     RDKit          3D

 20 19  0  0  1  0  0  0  0  0999 V2000
    6.3327  -16.7437   22.4625 C   0  0  0  0  0  0  0  0  0  0  0  0
    7.2576  -16.2523   21.3596 C   0  0  1  0  0  0  0  0  0  0  0  0
    6.7694  -16.6310   20.1098 O   0  0  0  0  0  0  0  0  0  0  0  0
    7.4089  -14.7385   21.4511 C   0  0  2  0  0  0  0  0  0  0  0  0
    8.1610  -14.3067   20.2880 N   0  0  0  0  0  0  0  0  0  0  0  0
    8.1180  -14.4326   22.7125 C   0  0  0  0  0  0  0  0  0  0  0  0
    9.3523  -14.6405   22.8127 O   0  0  0  0  0  0  0  0  0  0  0  0
    7.9662  -12.4085   27.2324 C   0  0  0  0  0  0  0  0  0  0  0  0
    7.3457  -12.6903   25.9025 C   0  0  2  0  0  0  0  0  0  0  0  0
    5.8890  -13.0575   25.9838 C   0  0  0  0  0  0  0  0  0  0  0  0
    8.1534  -13.7501   25.1487 C   0  0  2  0  0  0  0  0  0  0  0  0
    7.4673  -13.8991   23.8594 N   0  0  0  0  0  0  0  0  0  0  0  0
    8.1520  -15.0119   25.9082 C   0  0  0  0  0  0  0  0  0  0  0  0
    7.2224  -15.8367   25.7281 O   0  0  0  0  0  0  0  0  0  0  0  0
   10.0859  -17.4936   26.0674 C   0  0  0  0  0  0  0  0  0  0  0  0
    9.4634  -16.7254   27.2130 C   0  0  2  0  0  0  0  0  0  0  0  0
    9.1606  -15.3547   26.8497 N   0  0  0  0  0  0  0  0  0  0  0  0
   10.3706  -16.7294   28.3885 C   0  0  0  0  0  0  0  0  0  0  0  0
   10.8789  -15.6811   28.8740 O   0  0  0  0  0  0  0  0  0  0  0  0
   10.6945  -17.9328   29.0066 O   0  0  0  0  0  0  0  0  0  0  0  0
  2  1  1  1
  2  4  1  0
  3  2  1  0
  4  5  1  6
  6 12  1  0
  6  4  1  0
  7  6  2  0
  9  8  1  1
  9 11  1  0
 10  9  1  0
 11 12  1  6
 11 13  1  0
 13 17  1  0
 14 13  2  0
 16 18  1  0
 16 15  1  6
 17 16  1  0
 18 20  1  0
 19 18  2  0
M  END
$$$$
