TVA.pdb
     RDKit          3D

 20 19  0  0  1  0  0  0  0  0999 V2000
    6.4556  -18.8734   16.2414 C   0  0  0  0  0  0  0  0  0  0  0  0
    7.2310  -18.2171   17.3734 C   0  0  1  0  0  0  0  0  0  0  0  0
    8.1658  -19.1058   17.9027 O   0  0  0  0  0  0  0  0  0  0  0  0
    7.9087  -16.9497   16.8661 C   0  0  2  0  0  0  0  0  0  0  0  0
    8.8810  -17.3483   15.8659 N   0  0  0  0  0  0  0  0  0  0  0  0
    8.5468  -16.2865   18.0238 C   0  0  0  0  0  0  0  0  0  0  0  0
    9.7711  -16.4475   18.2515 O   0  0  0  0  0  0  0  0  0  0  0  0
    7.3380  -12.7161   19.4724 C   0  0  0  0  0  0  0  0  0  0  0  0
    7.5103  -13.7397   20.5473 C   0  0  2  0  0  0  0  0  0  0  0  0
    7.9125  -13.1566   21.8746 C   0  0  0  0  0  0  0  0  0  0  0  0
    8.4809  -14.8336   20.0943 C   0  0  2  0  0  0  0  0  0  0  0  0
    7.8364  -15.4484   18.9273 N   0  0  0  0  0  0  0  0  0  0  0  0
    8.6736  -15.8101   21.1797 C   0  0  0  0  0  0  0  0  0  0  0  0
    7.6890  -16.4698   21.5949 O   0  0  0  0  0  0  0  0  0  0  0  0
   10.9919  -18.1634   22.4750 C   0  0  0  0  0  0  0  0  0  0  0  0
   10.1093  -17.0015   22.8761 C   0  0  2  0  0  0  0  0  0  0  0  0
    9.9324  -16.0523   21.7944 N   0  0  0  0  0  0  0  0  0  0  0  0
   10.6845  -16.2999   24.0516 C   0  0  0  0  0  0  0  0  0  0  0  0
   11.1837  -15.1423   23.9905 O   0  0  0  0  0  0  0  0  0  0  0  0
   10.6874  -16.9240   25.2948 O   0  0  0  0  0  0  0  0  0  0  0  0
  2  1  1  6
  2  4  1  0
  3  2  1  0
  4  5  1  6
  6 12  1  0
  6  4  1  0
  7  6  2  0
  9  8  1  6
  9 11  1  0
 10  9  1  0
 11 12  1  6
 11 13  1  0
 13 17  1  0
 14 13  2  0
 16 18  1  0
 16 15  1  6
 17 16  1  0
 18 20  1  0
 19 18  2  0
M  END
$$$$
