TVA.pdb
     RDKit          3D

 20 19  0  0  1  0  0  0  0  0999 V2000
    7.1269  -19.5358   17.1035 C   0  0  0  0  0  0  0  0  0  0  0  0
    7.8939  -18.6140   18.0391 C   0  0  1  0  0  0  0  0  0  0  0  0
    9.0961  -19.2042   18.4268 O   0  0  0  0  0  0  0  0  0  0  0  0
    8.1388  -17.2742   17.3552 C   0  0  2  0  0  0  0  0  0  0  0  0
    9.0090  -17.5191   16.2205 N   0  0  0  0  0  0  0  0  0  0  0  0
    8.7635  -16.3709   18.3458 C   0  0  0  0  0  0  0  0  0  0  0  0
   10.0081  -16.2057   18.3573 O   0  0  0  0  0  0  0  0  0  0  0  0
    7.4388  -12.8896   19.8326 C   0  0  0  0  0  0  0  0  0  0  0  0
    7.6415  -13.9158   20.8997 C   0  0  2  0  0  0  0  0  0  0  0  0
    8.0061  -13.3299   22.2366 C   0  0  0  0  0  0  0  0  0  0  0  0
    8.6605  -14.9649   20.4469 C   0  0  2  0  0  0  0  0  0  0  0  0
    8.0171  -15.6523   19.3204 N   0  0  0  0  0  0  0  0  0  0  0  0
    8.9446  -15.8943   21.5534 C   0  0  0  0  0  0  0  0  0  0  0  0
    8.0150  -16.5990   22.0184 O   0  0  0  0  0  0  0  0  0  0  0  0
   11.9475  -17.4918   23.1356 C   0  0  0  0  0  0  0  0  0  0  0  0
   10.5174  -16.9997   23.1853 C   0  0  2  0  0  0  0  0  0  0  0  0
   10.2336  -16.0414   22.1347 N   0  0  0  0  0  0  0  0  0  0  0  0
   10.2326  -16.3775   24.5031 C   0  0  0  0  0  0  0  0  0  0  0  0
    9.9579  -15.1539   24.6457 O   0  0  0  0  0  0  0  0  0  0  0  0
   10.2626  -17.1562   25.6553 O   0  0  0  0  0  0  0  0  0  0  0  0
  2  1  1  6
  2  4  1  0
  3  2  1  0
  4  5  1  6
  6 12  1  0
  6  4  1  0
  7  6  2  0
  9  8  1  6
  9 11  1  0
 10  9  1  0
 11 12  1  6
 11 13  1  0
 13 17  1  0
 14 13  2  0
 16 18  1  0
 16 15  1  1
 17 16  1  0
 18 20  1  0
 19 18  2  0
M  END
$$$$
