TVA.pdb
     RDKit          3D

 20 19  0  0  1  0  0  0  0  0999 V2000
    6.3425  -17.6612   21.0159 C   0  0  0  0  0  0  0  0  0  0  0  0
    7.4800  -17.3937   20.0423 C   0  0  1  0  0  0  0  0  0  0  0  0
    7.1276  -17.8033   18.7571 O   0  0  0  0  0  0  0  0  0  0  0  0
    7.8389  -15.9126   20.0644 C   0  0  2  0  0  0  0  0  0  0  0  0
    8.7943  -15.6820   18.9972 N   0  0  0  0  0  0  0  0  0  0  0  0
    8.4111  -15.6081   21.3938 C   0  0  0  0  0  0  0  0  0  0  0  0
    9.6210  -15.8441   21.6327 O   0  0  0  0  0  0  0  0  0  0  0  0
    7.2554  -12.4783   23.5413 C   0  0  0  0  0  0  0  0  0  0  0  0
    7.3073  -13.7069   24.3903 C   0  0  2  0  0  0  0  0  0  0  0  0
    7.6635  -13.4317   25.8259 C   0  0  0  0  0  0  0  0  0  0  0  0
    8.2400  -14.7490   23.7676 C   0  0  2  0  0  0  0  0  0  0  0  0
    7.6507  -15.0449   22.4559 N   0  0  0  0  0  0  0  0  0  0  0  0
    8.2868  -15.9492   24.6198 C   0  0  0  0  0  0  0  0  0  0  0  0
    7.2161  -16.5347   24.9162 O   0  0  0  0  0  0  0  0  0  0  0  0
   10.1542  -18.8592   25.0777 C   0  0  0  0  0  0  0  0  0  0  0  0
    9.5447  -17.7324   25.8831 C   0  0  2  0  0  0  0  0  0  0  0  0
    9.4958  -16.4915   25.1346 N   0  0  0  0  0  0  0  0  0  0  0  0
   10.3161  -17.5178   27.1336 C   0  0  0  0  0  0  0  0  0  0  0  0
   10.4339  -18.3952   28.0332 O   0  0  0  0  0  0  0  0  0  0  0  0
   10.9512  -16.2998   27.3527 O   0  0  0  0  0  0  0  0  0  0  0  0
  2  1  1  1
  2  4  1  0
  3  2  1  0
  4  5  1  6
  6 12  1  0
  6  4  1  0
  7  6  2  0
  9  8  1  6
  9 11  1  0
 10  9  1  0
 11 12  1  6
 11 13  1  0
 13 17  1  0
 14 13  2  0
 16 18  1  0
 16 15  1  6
 17 16  1  0
 18 20  1  0
 19 18  2  0
M  END
$$$$
