CRI.pdb
     RDKit          3D

 26 25  0  0  1  0  0  0  0  0999 V2000
   28.5600  -20.9904  -17.1761 N   0  0  0  0  0  0  0  0  0  0  0  0
   28.3893  -21.7255  -15.9508 C   0  0  1  0  0  0  0  0  0  0  0  0
   29.7938  -21.9837  -15.3883 C   0  0  0  0  0  0  0  0  0  0  0  0
   30.5508  -23.4143  -16.1725 S   0  0  0  0  0  0  0  0  0  0  0  0
   27.6262  -20.9199  -14.9729 C   0  0  0  0  0  0  0  0  0  0  0  0
   27.7791  -19.6877  -14.7885 O   0  0  0  0  0  0  0  0  0  0  0  0
   19.7725  -21.6187  -13.2755 N   0  0  0  0  0  0  0  0  0  0  0  0
   19.8301  -20.2881  -12.7991 C   0  0  0  0  0  0  0  0  0  0  0  0
   18.8225  -19.8039  -12.1613 N   0  0  0  0  0  0  0  0  0  0  0  0
   21.0119  -19.5168  -13.0415 N   0  0  0  0  0  0  0  0  0  0  0  0
   22.0707  -20.1288  -13.7926 C   0  0  0  0  0  0  0  0  0  0  0  0
   23.3763  -20.2103  -13.0477 C   0  0  0  0  0  0  0  0  0  0  0  0
   24.4303  -20.7490  -13.9557 C   0  0  0  0  0  0  0  0  0  0  0  0
   25.7800  -20.8762  -13.2782 C   0  0  2  0  0  0  0  0  0  0  0  0
   26.6500  -21.5776  -14.1827 N   0  0  0  0  0  0  0  0  0  0  0  0
   25.6972  -21.4829  -11.9511 C   0  0  0  0  0  0  0  0  0  0  0  0
   25.4112  -22.7007  -11.7649 O   0  0  0  0  0  0  0  0  0  0  0  0
   18.8768  -18.8277  -11.8116 C   0  0  0  0  0  0  0  0  0  0  0  0
   27.4554  -18.7182   -7.2215 C   0  0  0  0  0  0  0  0  0  0  0  0
   26.6256  -19.1594   -8.4020 C   0  0  2  0  0  0  0  0  0  0  0  0
   26.7835  -20.6520   -8.5687 C   0  0  0  0  0  0  0  0  0  0  0  0
   28.1797  -20.8910   -9.1401 C   0  0  1  0  0  0  0  0  0  0  0  0
   25.7229  -21.2674   -9.4402 N   0  0  0  0  0  0  0  0  0  0  0  0
   25.9416  -20.7064  -10.7848 C   0  0  0  0  0  0  0  0  0  0  0  0
   24.3614  -20.9436   -8.9623 O   0  0  0  0  0  0  0  0  0  0  0  0
   23.5218  -20.1273   -9.6937 O   0  0  0  0  0  0  0  0  0  0  0  0
  2  1  1  6
  3  2  1  0
  3  4  1  0
  5  2  1  0
  5  6  2  0
  7  8  1  0
  8  9  2  0
  8 10  1  0
 10 11  1  0
 12 11  1  0
 13 12  1  0
 14 13  1  6
 14 15  1  0
 15  5  1  0
 16 14  1  0
 17 16  2  0
 19 18  1  0
 20 19  1  0
 20 22  1  0
 20 21  1  1
 22 23  1  6
 22 24  1  0
 23 16  1  0
 24 25  1  0
 26 24  2  0
M  END
$$$$
