CRI.pdb
     RDKit          3D

 26 25  0  0  1  0  0  0  0  0999 V2000
   27.5081  -19.8507  -16.2728 N   0  0  0  0  0  0  0  0  0  0  0  0
   28.0359  -20.1431  -14.9663 C   0  0  1  0  0  0  0  0  0  0  0  0
   29.1923  -19.1632  -14.7248 C   0  0  0  0  0  0  0  0  0  0  0  0
   29.9289  -19.4200  -13.1043 S   0  0  0  0  0  0  0  0  0  0  0  0
   27.0002  -19.9198  -13.9343 C   0  0  0  0  0  0  0  0  0  0  0  0
   26.3733  -18.8443  -13.7726 O   0  0  0  0  0  0  0  0  0  0  0  0
   23.7922  -24.4391  -13.5115 N   0  0  0  0  0  0  0  0  0  0  0  0
   23.0844  -24.1845  -14.7093 C   0  0  0  0  0  0  0  0  0  0  0  0
   22.9877  -25.1152  -15.5930 N   0  0  0  0  0  0  0  0  0  0  0  0
   22.4945  -22.8944  -14.9037 N   0  0  0  0  0  0  0  0  0  0  0  0
   22.6766  -21.9109  -13.8745 C   0  0  0  0  0  0  0  0  0  0  0  0
   24.1018  -21.4523  -13.7169 C   0  0  0  0  0  0  0  0  0  0  0  0
   24.5246  -21.6326  -12.2976 C   0  0  0  0  0  0  0  0  0  0  0  0
   25.7777  -20.8522  -11.9547 C   0  0  2  0  0  0  0  0  0  0  0  0
   26.6861  -20.9911  -13.0605 N   0  0  0  0  0  0  0  0  0  0  0  0
   26.3540  -21.2353  -10.6674 C   0  0  0  0  0  0  0  0  0  0  0  0
   26.8448  -22.3792  -10.4432 O   0  0  0  0  0  0  0  0  0  0  0  0
   22.4694  -24.9167  -16.4707 C   0  0  0  0  0  0  0  0  0  0  0  0
   28.7280  -18.3380   -6.7730 C   0  0  0  0  0  0  0  0  0  0  0  0
   28.2292  -19.4659   -7.6423 C   0  0  2  0  0  0  0  0  0  0  0  0
   26.7724  -19.7075   -7.3261 C   0  0  0  0  0  0  0  0  0  0  0  0
   26.6957  -20.0980   -5.8515 C   0  0  2  0  0  0  0  0  0  0  0  0
   26.1403  -20.7539   -8.2028 N   0  0  0  0  0  0  0  0  0  0  0  0
   26.3865  -20.3116   -9.5864 C   0  0  0  0  0  0  0  0  0  0  0  0
   24.6880  -20.8777   -7.9525 O   0  0  0  0  0  0  0  0  0  0  0  0
   24.1971  -21.7613   -7.0120 O   0  0  0  0  0  0  0  0  0  0  0  0
  2  1  1  6
  3  2  1  0
  3  4  1  0
  5  2  1  0
  5  6  2  0
  7  8  1  0
  8  9  2  0
  8 10  1  0
 10 11  1  0
 12 11  1  0
 13 12  1  0
 14 13  1  6
 14 15  1  0
 15  5  1  0
 16 14  1  0
 17 16  2  0
 19 18  1  0
 20 19  1  0
 20 22  1  0
 20 21  1  6
 22 23  1  1
 22 24  1  0
 23 16  1  0
 24 25  1  0
 26 24  2  0
M  END
$$$$
