CRI.pdb
     RDKit          3D

 26 25  0  0  1  0  0  0  0  0999 V2000
   27.0154  -18.3373  -16.4667 N   0  0  0  0  0  0  0  0  0  0  0  0
   27.6112  -18.6312  -15.1901 C   0  0  1  0  0  0  0  0  0  0  0  0
   28.5280  -17.4496  -14.8451 C   0  0  0  0  0  0  0  0  0  0  0  0
   30.0529  -17.5159  -15.7964 S   0  0  0  0  0  0  0  0  0  0  0  0
   26.5651  -18.7407  -14.1502 C   0  0  0  0  0  0  0  0  0  0  0  0
   25.6266  -17.9220  -13.9924 O   0  0  0  0  0  0  0  0  0  0  0  0
   20.3734  -20.9535  -10.8745 N   0  0  0  0  0  0  0  0  0  0  0  0
   20.1721  -21.7095  -12.0528 C   0  0  0  0  0  0  0  0  0  0  0  0
   19.1603  -22.5015  -12.1272 N   0  0  0  0  0  0  0  0  0  0  0  0
   21.1033  -21.5707  -13.1316 N   0  0  0  0  0  0  0  0  0  0  0  0
   22.3997  -22.1676  -12.9804 C   0  0  0  0  0  0  0  0  0  0  0  0
   23.3675  -21.3277  -12.1903 C   0  0  0  0  0  0  0  0  0  0  0  0
   24.5379  -20.9833  -13.0489 C   0  0  0  0  0  0  0  0  0  0  0  0
   25.5690  -20.1406  -12.3253 C   0  0  2  0  0  0  0  0  0  0  0  0
   26.6176  -19.8457  -13.2638 N   0  0  0  0  0  0  0  0  0  0  0  0
   26.0425  -20.7568  -11.0875 C   0  0  0  0  0  0  0  0  0  0  0  0
   26.7077  -21.8322  -11.0616 O   0  0  0  0  0  0  0  0  0  0  0  0
   19.0196  -23.0493  -12.9980 C   0  0  0  0  0  0  0  0  0  0  0  0
   28.6940  -18.5640   -7.2846 C   0  0  0  0  0  0  0  0  0  0  0  0
   28.1071  -19.6401   -8.1645 C   0  0  2  0  0  0  0  0  0  0  0  0
   26.7190  -19.9639   -7.6658 C   0  0  0  0  0  0  0  0  0  0  0  0
   26.8753  -20.5541   -6.2657 C   0  0  2  0  0  0  0  0  0  0  0  0
   25.9654  -20.8984   -8.5724 N   0  0  0  0  0  0  0  0  0  0  0  0
   25.7662  -20.1550   -9.8288 C   0  0  0  0  0  0  0  0  0  0  0  0
   24.6622  -21.2933   -7.9956 O   0  0  0  0  0  0  0  0  0  0  0  0
   23.4848  -20.7137   -8.4248 O   0  0  0  0  0  0  0  0  0  0  0  0
  2  1  1  6
  3  2  1  0
  3  4  1  0
  5  2  1  0
  5  6  2  0
  7  8  1  0
  8  9  2  0
  8 10  1  0
 10 11  1  0
 12 11  1  0
 13 12  1  0
 14 13  1  6
 14 15  1  0
 15  5  1  0
 16 14  1  0
 17 16  2  0
 19 18  1  0
 20 19  1  0
 20 22  1  0
 20 21  1  6
 22 23  1  6
 22 24  1  0
 23 16  1  0
 24 25  1  0
 26 24  2  0
M  END
$$$$
