CRI.pdb
     RDKit          3D

 26 25  0  0  1  0  0  0  0  0999 V2000
   21.7242  -20.6818   -6.9603 N   0  0  0  0  0  0  0  0  0  0  0  0
   21.9197  -21.6060   -8.0460 C   0  0  1  0  0  0  0  0  0  0  0  0
   20.5623  -22.2703   -8.3138 C   0  0  0  0  0  0  0  0  0  0  0  0
   20.1302  -23.4122   -6.9931 S   0  0  0  0  0  0  0  0  0  0  0  0
   22.3433  -20.8819   -9.2642 C   0  0  0  0  0  0  0  0  0  0  0  0
   21.8803  -19.7755   -9.6346 O   0  0  0  0  0  0  0  0  0  0  0  0
   26.5779  -22.7004  -15.5786 N   0  0  0  0  0  0  0  0  0  0  0  0
   27.3685  -21.5283  -15.5393 C   0  0  0  0  0  0  0  0  0  0  0  0
   27.7055  -20.9592  -16.6435 N   0  0  0  0  0  0  0  0  0  0  0  0
   27.7718  -21.0078  -14.2678 N   0  0  0  0  0  0  0  0  0  0  0  0
   27.1039  -21.5020  -13.0977 C   0  0  0  0  0  0  0  0  0  0  0  0
   25.7300  -20.9224  -12.8912 C   0  0  0  0  0  0  0  0  0  0  0  0
   25.1641  -21.4372  -11.6104 C   0  0  0  0  0  0  0  0  0  0  0  0
   23.7825  -20.8880  -11.3163 C   0  0  2  0  0  0  0  0  0  0  0  0
   23.3431  -21.4718  -10.0780 N   0  0  0  0  0  0  0  0  0  0  0  0
   22.8458  -21.0778  -12.4221 C   0  0  0  0  0  0  0  0  0  0  0  0
   22.2835  -22.1835  -12.6691 O   0  0  0  0  0  0  0  0  0  0  0  0
   28.3079  -20.1144  -16.6048 C   0  0  0  0  0  0  0  0  0  0  0  0
   18.2289  -18.3952  -14.2476 C   0  0  0  0  0  0  0  0  0  0  0  0
   19.1585  -19.5650  -14.4573 C   0  0  2  0  0  0  0  0  0  0  0  0
   20.5807  -19.0826  -14.2987 C   0  0  0  0  0  0  0  0  0  0  0  0
   20.8038  -18.0004  -15.3532 C   0  0  2  0  0  0  0  0  0  0  0  0
   21.5982  -20.1838  -14.4210 N   0  0  0  0  0  0  0  0  0  0  0  0
   22.5209  -19.9971  -13.2877 C   0  0  0  0  0  0  0  0  0  0  0  0
   22.3346  -20.1132  -15.7016 O   0  0  0  0  0  0  0  0  0  0  0  0
   21.8784  -20.7712  -16.8264 O   0  0  0  0  0  0  0  0  0  0  0  0
  2  1  1  1
  3  2  1  0
  3  4  1  0
  5  2  1  0
  5  6  2  0
  7  8  1  0
  8  9  2  0
  8 10  1  0
 10 11  1  0
 12 11  1  0
 13 12  1  0
 14 13  1  6
 14 15  1  0
 15  5  1  0
 16 14  1  0
 17 16  2  0
 19 18  1  0
 20 19  1  0
 20 22  1  0
 20 21  1  1
 22 23  1  6
 22 24  1  0
 23 16  1  0
 24 25  1  0
 26 24  2  0
M  END
$$$$
