CRI.pdb
     RDKit          3D

 26 25  0  0  1  0  0  0  0  0999 V2000
   24.0340   -4.4128  -18.2451 N   0  0  0  0  0  0  0  0  0  0  0  0
   23.7575   -5.2244  -17.0893 C   0  0  1  0  0  0  0  0  0  0  0  0
   23.7470   -4.2828  -15.8774 C   0  0  0  0  0  0  0  0  0  0  0  0
   25.4088   -3.7192  -15.4827 S   0  0  0  0  0  0  0  0  0  0  0  0
   22.4251   -5.8545  -17.2134 C   0  0  0  0  0  0  0  0  0  0  0  0
   21.4272   -5.3147  -17.7506 O   0  0  0  0  0  0  0  0  0  0  0  0
   19.8905  -13.6087  -14.7567 N   0  0  0  0  0  0  0  0  0  0  0  0
   18.9923  -13.2781  -15.7982 C   0  0  0  0  0  0  0  0  0  0  0  0
   17.7478  -13.5826  -15.6761 N   0  0  0  0  0  0  0  0  0  0  0  0
   19.4963  -12.6123  -16.9614 N   0  0  0  0  0  0  0  0  0  0  0  0
   20.5753  -11.6822  -16.7879 C   0  0  0  0  0  0  0  0  0  0  0  0
   20.1543  -10.2394  -16.8739 C   0  0  0  0  0  0  0  0  0  0  0  0
   21.3559   -9.3654  -16.7404 C   0  0  0  0  0  0  0  0  0  0  0  0
   21.0188   -7.8894  -16.8087 C   0  0  2  0  0  0  0  0  0  0  0  0
   22.2530   -7.1612  -16.6914 N   0  0  0  0  0  0  0  0  0  0  0  0
   20.0046   -7.4902  -15.8351 C   0  0  0  0  0  0  0  0  0  0  0  0
   20.2187   -7.4563  -14.5890 O   0  0  0  0  0  0  0  0  0  0  0  0
   17.1046  -13.3751  -16.4645 C   0  0  0  0  0  0  0  0  0  0  0  0
   15.3999   -3.6641  -15.6426 C   0  0  0  0  0  0  0  0  0  0  0  0
   15.9125   -4.9344  -15.0099 C   0  0  2  0  0  0  0  0  0  0  0  0
   17.0736   -5.4445  -15.8298 C   0  0  0  0  0  0  0  0  0  0  0  0
   16.5620   -5.6341  -17.2564 C   0  0  2  0  0  0  0  0  0  0  0  0
   17.6695   -6.7154  -15.2887 N   0  0  0  0  0  0  0  0  0  0  0  0
   18.7012   -7.1139  -16.2621 C   0  0  0  0  0  0  0  0  0  0  0  0
   16.6553   -7.7824  -15.1474 O   0  0  0  0  0  0  0  0  0  0  0  0
   15.8378   -7.8497  -14.0367 O   0  0  0  0  0  0  0  0  0  0  0  0
  2  1  1  6
  3  2  1  0
  3  4  1  0
  5  2  1  0
  5  6  2  0
  7  8  1  0
  8  9  2  0
  8 10  1  0
 10 11  1  0
 12 11  1  0
 13 12  1  0
 14 13  1  1
 14 15  1  0
 15  5  1  0
 16 14  1  0
 17 16  2  0
 19 18  1  0
 20 19  1  0
 20 22  1  0
 20 21  1  1
 22 23  1  1
 22 24  1  0
 23 16  1  0
 24 25  1  0
 26 24  2  0
M  END
$$$$
