CRI.pdb
     RDKit          3D

 26 25  0  0  1  0  0  0  0  0999 V2000
   25.8196  -22.9543  -17.0358 N   0  0  0  0  0  0  0  0  0  0  0  0
   25.2459  -23.6043  -15.8871 C   0  0  1  0  0  0  0  0  0  0  0  0
   24.0806  -22.7242  -15.4145 C   0  0  0  0  0  0  0  0  0  0  0  0
   23.2383  -23.4674  -14.0099 S   0  0  0  0  0  0  0  0  0  0  0  0
   24.7160  -24.9332  -16.2628 C   0  0  0  0  0  0  0  0  0  0  0  0
   23.9440  -25.1470  -17.2292 O   0  0  0  0  0  0  0  0  0  0  0  0
   28.6622  -32.4606  -15.2951 N   0  0  0  0  0  0  0  0  0  0  0  0
   27.4151  -32.9464  -15.7527 C   0  0  0  0  0  0  0  0  0  0  0  0
   27.2873  -34.1989  -16.0198 N   0  0  0  0  0  0  0  0  0  0  0  0
   26.3282  -32.0269  -15.9058 N   0  0  0  0  0  0  0  0  0  0  0  0
   26.5809  -30.6389  -15.6430 C   0  0  0  0  0  0  0  0  0  0  0  0
   25.3830  -29.7520  -15.8542 C   0  0  0  0  0  0  0  0  0  0  0  0
   25.7702  -28.3323  -15.6095 C   0  0  0  0  0  0  0  0  0  0  0  0
   24.5986  -27.3770  -15.7186 C   0  0  2  0  0  0  0  0  0  0  0  0
   25.1021  -26.0513  -15.4814 N   0  0  0  0  0  0  0  0  0  0  0  0
   23.4796  -27.7456  -14.8538 C   0  0  0  0  0  0  0  0  0  0  0  0
   23.4163  -27.4256  -13.6318 O   0  0  0  0  0  0  0  0  0  0  0  0
   26.3889  -34.5341  -16.4183 C   0  0  0  0  0  0  0  0  0  0  0  0
   18.7030  -26.7216  -16.2536 C   0  0  0  0  0  0  0  0  0  0  0  0
   19.8728  -27.0088  -15.3449 C   0  0  2  0  0  0  0  0  0  0  0  0
   20.0215  -28.5058  -15.2123 C   0  0  0  0  0  0  0  0  0  0  0  0
   18.7756  -29.0147  -14.4901 C   0  0  2  0  0  0  0  0  0  0  0  0
   21.2771  -28.9162  -14.4925 N   0  0  0  0  0  0  0  0  0  0  0  0
   22.3877  -28.4993  -15.3663 C   0  0  0  0  0  0  0  0  0  0  0  0
   21.3256  -30.3757  -14.2588 O   0  0  0  0  0  0  0  0  0  0  0  0
   21.0455  -30.9110  -13.0173 O   0  0  0  0  0  0  0  0  0  0  0  0
  2  1  1  6
  3  2  1  0
  3  4  1  0
  5  2  1  0
  5  6  2  0
  7  8  1  0
  8  9  2  0
  8 10  1  0
 10 11  1  0
 12 11  1  0
 13 12  1  0
 14 13  1  1
 14 15  1  0
 15  5  1  0
 16 14  1  0
 17 16  2  0
 19 18  1  0
 20 19  1  0
 20 22  1  0
 20 21  1  6
 22 23  1  1
 22 24  1  0
 23 16  1  0
 24 25  1  0
 26 24  2  0
M  END
$$$$
