CRI.pdb
     RDKit          3D

 26 25  0  0  1  0  0  0  0  0999 V2000
   16.8401  -24.0370  -11.5896 N   0  0  0  0  0  0  0  0  0  0  0  0
   17.3219  -24.4610  -12.8777 C   0  0  1  0  0  0  0  0  0  0  0  0
   16.1693  -24.2603  -13.8712 C   0  0  0  0  0  0  0  0  0  0  0  0
   14.8324  -25.4204  -13.5525 S   0  0  0  0  0  0  0  0  0  0  0  0
   18.4641  -23.6208  -13.2987 C   0  0  0  0  0  0  0  0  0  0  0  0
   18.4833  -22.3666  -13.2525 O   0  0  0  0  0  0  0  0  0  0  0  0
   24.8921  -24.3734  -17.2892 N   0  0  0  0  0  0  0  0  0  0  0  0
   25.8764  -23.9932  -16.3473 C   0  0  0  0  0  0  0  0  0  0  0  0
   26.9704  -23.4567  -16.7620 N   0  0  0  0  0  0  0  0  0  0  0  0
   25.6256  -24.2173  -14.9555 N   0  0  0  0  0  0  0  0  0  0  0  0
   24.3554  -24.7717  -14.5830 C   0  0  0  0  0  0  0  0  0  0  0  0
   23.2083  -23.8057  -14.7140 C   0  0  0  0  0  0  0  0  0  0  0  0
   21.9554  -24.4586  -14.2347 C   0  0  0  0  0  0  0  0  0  0  0  0
   20.7454  -23.5516  -14.3347 C   0  0  2  0  0  0  0  0  0  0  0  0
   19.6246  -24.2694  -13.7909 N   0  0  0  0  0  0  0  0  0  0  0  0
   20.5211  -23.0468  -15.6878 C   0  0  0  0  0  0  0  0  0  0  0  0
   20.1161  -23.7757  -16.6388 O   0  0  0  0  0  0  0  0  0  0  0  0
   27.6844  -23.1766  -16.0620 C   0  0  0  0  0  0  0  0  0  0  0  0
   18.0897  -18.4148  -18.3270 C   0  0  0  0  0  0  0  0  0  0  0  0
   19.1476  -19.4631  -18.5683 C   0  0  2  0  0  0  0  0  0  0  0  0
   19.4763  -20.1255  -17.2516 C   0  0  0  0  0  0  0  0  0  0  0  0
   19.8715  -19.0146  -16.2808 C   0  0  2  0  0  0  0  0  0  0  0  0
   20.5582  -21.1648  -17.3636 N   0  0  0  0  0  0  0  0  0  0  0  0
   20.7558  -21.6785  -15.9970 C   0  0  0  0  0  0  0  0  0  0  0  0
   21.8182  -20.5936  -17.8863 O   0  0  0  0  0  0  0  0  0  0  0  0
   22.0460  -20.4862  -19.2438 O   0  0  0  0  0  0  0  0  0  0  0  0
  2  1  1  1
  3  2  1  0
  3  4  1  0
  5  2  1  0
  5  6  2  0
  7  8  1  0
  8  9  2  0
  8 10  1  0
 10 11  1  0
 12 11  1  0
 13 12  1  0
 14 13  1  6
 14 15  1  0
 15  5  1  0
 16 14  1  0
 17 16  2  0
 19 18  1  0
 20 19  1  0
 20 22  1  0
 20 21  1  1
 22 23  1  6
 22 24  1  0
 23 16  1  0
 24 25  1  0
 26 24  2  0
M  END
$$$$
