CRI.pdb
     RDKit          3D

 26 25  0  0  1  0  0  0  0  0999 V2000
   25.6261  -18.6401  -16.0937 N   0  0  0  0  0  0  0  0  0  0  0  0
   26.5315  -19.1994  -15.1250 C   0  0  1  0  0  0  0  0  0  0  0  0
   27.6176  -18.1449  -14.8714 C   0  0  0  0  0  0  0  0  0  0  0  0
   28.7930  -18.7129  -13.6343 S   0  0  0  0  0  0  0  0  0  0  0  0
   25.8216  -19.4656  -13.8550 C   0  0  0  0  0  0  0  0  0  0  0  0
   25.0293  -18.6666  -13.2987 O   0  0  0  0  0  0  0  0  0  0  0  0
   21.3335  -23.1317  -14.1467 N   0  0  0  0  0  0  0  0  0  0  0  0
   22.0158  -23.9711  -15.0580 C   0  0  0  0  0  0  0  0  0  0  0  0
   21.5042  -24.1865  -16.2193 N   0  0  0  0  0  0  0  0  0  0  0  0
   23.2596  -24.5583  -14.6601 N   0  0  0  0  0  0  0  0  0  0  0  0
   23.8150  -24.1630  -13.3972 C   0  0  0  0  0  0  0  0  0  0  0  0
   24.2624  -22.7263  -13.3526 C   0  0  0  0  0  0  0  0  0  0  0  0
   24.9277  -22.4565  -12.0449 C   0  0  0  0  0  0  0  0  0  0  0  0
   25.4655  -21.0434  -11.9403 C   0  0  2  0  0  0  0  0  0  0  0  0
   26.0455  -20.7095  -13.2128 N   0  0  0  0  0  0  0  0  0  0  0  0
   26.3764  -20.8617  -10.8119 C   0  0  0  0  0  0  0  0  0  0  0  0
   27.5710  -21.2770  -10.8147 O   0  0  0  0  0  0  0  0  0  0  0  0
   22.0554  -24.7268  -16.9139 C   0  0  0  0  0  0  0  0  0  0  0  0
   28.4929  -17.8363   -7.3204 C   0  0  0  0  0  0  0  0  0  0  0  0
   28.0846  -19.0592   -8.1042 C   0  0  2  0  0  0  0  0  0  0  0  0
   26.8123  -19.6103   -7.5058 C   0  0  0  0  0  0  0  0  0  0  0  0
   27.1419  -20.0408   -6.0780 C   0  0  2  0  0  0  0  0  0  0  0  0
   26.2270  -20.7468   -8.2987 N   0  0  0  0  0  0  0  0  0  0  0  0
   25.9434  -20.1925   -9.6340 C   0  0  0  0  0  0  0  0  0  0  0  0
   24.9869  -21.2665   -7.6829 O   0  0  0  0  0  0  0  0  0  0  0  0
   25.0151  -22.3376   -6.8121 O   0  0  0  0  0  0  0  0  0  0  0  0
  2  1  1  6
  3  2  1  0
  3  4  1  0
  5  2  1  0
  5  6  2  0
  7  8  1  0
  8  9  2  0
  8 10  1  0
 10 11  1  0
 12 11  1  0
 13 12  1  0
 14 13  1  6
 14 15  1  0
 15  5  1  0
 16 14  1  0
 17 16  2  0
 19 18  1  0
 20 19  1  0
 20 22  1  0
 20 21  1  6
 22 23  1  6
 22 24  1  0
 23 16  1  0
 24 25  1  0
 26 24  2  0
M  END
$$$$
