CRI.pdb
     RDKit          3D

 26 25  0  0  1  0  0  0  0  0999 V2000
   25.3785  -13.8401  -17.5072 N   0  0  0  0  0  0  0  0  0  0  0  0
   25.4865  -14.5076  -16.2368 C   0  0  1  0  0  0  0  0  0  0  0  0
   24.8581  -13.5766  -15.1909 C   0  0  0  0  0  0  0  0  0  0  0  0
   25.9858  -12.2471  -14.7489 S   0  0  0  0  0  0  0  0  0  0  0  0
   24.7281  -15.7773  -16.2600 C   0  0  0  0  0  0  0  0  0  0  0  0
   23.5797  -15.9143  -16.7480 O   0  0  0  0  0  0  0  0  0  0  0  0
   25.2669  -22.4166  -12.3583 N   0  0  0  0  0  0  0  0  0  0  0  0
   25.1205  -23.2864  -13.4641 C   0  0  0  0  0  0  0  0  0  0  0  0
   24.4254  -24.3614  -13.3313 N   0  0  0  0  0  0  0  0  0  0  0  0
   25.7522  -22.9437  -14.7025 N   0  0  0  0  0  0  0  0  0  0  0  0
   26.2162  -21.5959  -14.8691 C   0  0  0  0  0  0  0  0  0  0  0  0
   25.1101  -20.5872  -15.0278 C   0  0  0  0  0  0  0  0  0  0  0  0
   25.7000  -19.2509  -15.3309 C   0  0  0  0  0  0  0  0  0  0  0  0
   24.6488  -18.1856  -15.5698 C   0  0  2  0  0  0  0  0  0  0  0  0
   25.3331  -16.9271  -15.6928 N   0  0  0  0  0  0  0  0  0  0  0  0
   23.5952  -18.1865  -14.5570 C   0  0  0  0  0  0  0  0  0  0  0  0
   23.8090  -17.9291  -13.3374 O   0  0  0  0  0  0  0  0  0  0  0  0
   24.4226  -25.0517  -14.1071 C   0  0  0  0  0  0  0  0  0  0  0  0
   18.4745  -15.9673  -13.3192 C   0  0  0  0  0  0  0  0  0  0  0  0
   19.1958  -17.2738  -13.0965 C   0  0  2  0  0  0  0  0  0  0  0  0
   20.3072  -17.3879  -14.1125 C   0  0  0  0  0  0  0  0  0  0  0  0
   19.6481  -17.4394  -15.4893 C   0  0  2  0  0  0  0  0  0  0  0  0
   21.1976  -18.5793  -13.8871 N   0  0  0  0  0  0  0  0  0  0  0  0
   22.2509  -18.4852  -14.9128 C   0  0  0  0  0  0  0  0  0  0  0  0
   20.4581  -19.8528  -14.0234 O   0  0  0  0  0  0  0  0  0  0  0  0
   19.7189  -20.3663  -12.9764 O   0  0  0  0  0  0  0  0  0  0  0  0
  2  1  1  6
  3  2  1  0
  3  4  1  0
  5  2  1  0
  5  6  2  0
  7  8  1  0
  8  9  2  0
  8 10  1  0
 10 11  1  0
 12 11  1  0
 13 12  1  0
 14 13  1  1
 14 15  1  0
 15  5  1  0
 16 14  1  0
 17 16  2  0
 19 18  1  0
 20 19  1  0
 20 22  1  0
 20 21  1  1
 22 23  1  6
 22 24  1  0
 23 16  1  0
 24 25  1  0
 26 24  2  0
M  END
$$$$
