CRI.pdb
     RDKit          3D

 26 25  0  0  1  0  0  0  0  0999 V2000
   27.0816  -17.4780  -17.2258 N   0  0  0  0  0  0  0  0  0  0  0  0
   27.6557  -17.1284  -15.9533 C   0  0  1  0  0  0  0  0  0  0  0  0
   28.0737  -15.6544  -16.0443 C   0  0  0  0  0  0  0  0  0  0  0  0
   29.2053  -15.3875  -17.4166 S   0  0  0  0  0  0  0  0  0  0  0  0
   26.6475  -17.2712  -14.8805 C   0  0  0  0  0  0  0  0  0  0  0  0
   25.6070  -16.5760  -14.7813 O   0  0  0  0  0  0  0  0  0  0  0  0
   23.2839  -23.5428  -13.1867 N   0  0  0  0  0  0  0  0  0  0  0  0
   21.9957  -22.9636  -13.2607 C   0  0  0  0  0  0  0  0  0  0  0  0
   20.9931  -23.5921  -12.7543 N   0  0  0  0  0  0  0  0  0  0  0  0
   21.8447  -21.6908  -13.8991 N   0  0  0  0  0  0  0  0  0  0  0  0
   23.0265  -21.0420  -14.3909 C   0  0  0  0  0  0  0  0  0  0  0  0
   23.6535  -20.0921  -13.4055 C   0  0  0  0  0  0  0  0  0  0  0  0
   24.7448  -19.3304  -14.0797 C   0  0  0  0  0  0  0  0  0  0  0  0
   25.7952  -18.8271  -13.1099 C   0  0  2  0  0  0  0  0  0  0  0  0
   26.8629  -18.2613  -13.8890 N   0  0  0  0  0  0  0  0  0  0  0  0
   26.2348  -19.8504  -12.1636 C   0  0  0  0  0  0  0  0  0  0  0  0
   26.8538  -20.8960  -12.5148 O   0  0  0  0  0  0  0  0  0  0  0  0
   20.0480  -23.1697  -12.8352 C   0  0  0  0  0  0  0  0  0  0  0  0
   27.3504  -18.1553   -7.2524 C   0  0  0  0  0  0  0  0  0  0  0  0
   27.5534  -19.0231   -8.4699 C   0  0  2  0  0  0  0  0  0  0  0  0
   26.4807  -20.0859   -8.4863 C   0  0  0  0  0  0  0  0  0  0  0  0
   26.8263  -21.0843   -7.3833 C   0  0  2  0  0  0  0  0  0  0  0  0
   26.3425  -20.7694   -9.8193 N   0  0  0  0  0  0  0  0  0  0  0  0
   25.9770  -19.7069  -10.7722 C   0  0  0  0  0  0  0  0  0  0  0  0
   25.3012  -21.8192   -9.7943 O   0  0  0  0  0  0  0  0  0  0  0  0
   25.6249  -23.1426   -9.5700 O   0  0  0  0  0  0  0  0  0  0  0  0
  2  1  1  6
  3  2  1  0
  3  4  1  0
  5  2  1  0
  5  6  2  0
  7  8  1  0
  8  9  2  0
  8 10  1  0
 10 11  1  0
 12 11  1  0
 13 12  1  0
 14 13  1  6
 14 15  1  0
 15  5  1  0
 16 14  1  0
 17 16  2  0
 19 18  1  0
 20 19  1  0
 20 22  1  0
 20 21  1  6
 22 23  1  6
 22 24  1  0
 23 16  1  0
 24 25  1  0
 26 24  2  0
M  END
$$$$
