CRI.pdb
     RDKit          3D

 26 25  0  0  1  0  0  0  0  0999 V2000
   28.8495  -21.1437  -16.5609 N   0  0  0  0  0  0  0  0  0  0  0  0
   28.2905  -20.2353  -15.5947 C   0  0  1  0  0  0  0  0  0  0  0  0
   28.2337  -18.8550  -16.2634 C   0  0  0  0  0  0  0  0  0  0  0  0
   27.7330  -17.5883  -15.0889 S   0  0  0  0  0  0  0  0  0  0  0  0
   26.9154  -20.6486  -15.2397 C   0  0  0  0  0  0  0  0  0  0  0  0
   26.0046  -20.8868  -16.0699 O   0  0  0  0  0  0  0  0  0  0  0  0
   25.0889  -21.9246   -7.7591 N   0  0  0  0  0  0  0  0  0  0  0  0
   23.9818  -21.1802   -8.2290 C   0  0  0  0  0  0  0  0  0  0  0  0
   22.8083  -21.4388   -7.7680 N   0  0  0  0  0  0  0  0  0  0  0  0
   24.2004  -20.1576   -9.2071 N   0  0  0  0  0  0  0  0  0  0  0  0
   25.5247  -20.0106   -9.7403 C   0  0  0  0  0  0  0  0  0  0  0  0
   25.5626  -19.8370  -11.2352 C   0  0  0  0  0  0  0  0  0  0  0  0
   25.3152  -21.1535  -11.8918 C   0  0  0  0  0  0  0  0  0  0  0  0
   25.2587  -21.0544  -13.4031 C   0  0  2  0  0  0  0  0  0  0  0  0
   26.5936  -20.7881  -13.8661 N   0  0  0  0  0  0  0  0  0  0  0  0
   24.2681  -20.0889  -13.8748 C   0  0  0  0  0  0  0  0  0  0  0  0
   24.4465  -18.8376  -13.8287 O   0  0  0  0  0  0  0  0  0  0  0  0
   21.9961  -20.9193   -8.1536 C   0  0  0  0  0  0  0  0  0  0  0  0
   20.8273  -18.8502  -18.3582 C   0  0  0  0  0  0  0  0  0  0  0  0
   20.7994  -18.7421  -16.8535 C   0  0  2  0  0  0  0  0  0  0  0  0
   21.8855  -19.6262  -16.2885 C   0  0  0  0  0  0  0  0  0  0  0  0
   21.6005  -21.0464  -16.7731 C   0  0  2  0  0  0  0  0  0  0  0  0
   21.9776  -19.5682  -14.7881 N   0  0  0  0  0  0  0  0  0  0  0  0
   23.0305  -20.5304  -14.4192 C   0  0  0  0  0  0  0  0  0  0  0  0
   20.6976  -19.9333  -14.1435 O   0  0  0  0  0  0  0  0  0  0  0  0
   20.5159  -21.1741  -13.5659 O   0  0  0  0  0  0  0  0  0  0  0  0
  2  1  1  6
  3  2  1  0
  3  4  1  0
  5  2  1  0
  5  6  2  0
  7  8  1  0
  8  9  2  0
  8 10  1  0
 10 11  1  0
 12 11  1  0
 13 12  1  0
 14 13  1  1
 14 15  1  0
 15  5  1  0
 16 14  1  0
 17 16  2  0
 19 18  1  0
 20 19  1  0
 20 22  1  0
 20 21  1  6
 22 23  1  1
 22 24  1  0
 23 16  1  0
 24 25  1  0
 26 24  2  0
M  END
$$$$
