CRI.pdb
     RDKit          3D

 26 25  0  0  1  0  0  0  0  0999 V2000
   24.1474  -14.1328  -17.5520 N   0  0  0  0  0  0  0  0  0  0  0  0
   24.1573  -14.7433  -16.2488 C   0  0  1  0  0  0  0  0  0  0  0  0
   23.2661  -13.8788  -15.3464 C   0  0  0  0  0  0  0  0  0  0  0  0
   24.2545  -12.7594  -14.3440 S   0  0  0  0  0  0  0  0  0  0  0  0
   23.5851  -16.1055  -16.3176 C   0  0  0  0  0  0  0  0  0  0  0  0
   22.4427  -16.3787  -16.7604 O   0  0  0  0  0  0  0  0  0  0  0  0
   25.3344  -22.7466  -12.6094 N   0  0  0  0  0  0  0  0  0  0  0  0
   25.1026  -23.5877  -13.7227 C   0  0  0  0  0  0  0  0  0  0  0  0
   24.5493  -24.7353  -13.5400 N   0  0  0  0  0  0  0  0  0  0  0  0
   25.4918  -23.1357  -15.0244 N   0  0  0  0  0  0  0  0  0  0  0  0
   25.8038  -21.7443  -15.1866 C   0  0  0  0  0  0  0  0  0  0  0  0
   24.5980  -20.8434  -15.1579 C   0  0  0  0  0  0  0  0  0  0  0  0
   25.0172  -19.4471  -15.4744 C   0  0  0  0  0  0  0  0  0  0  0  0
   23.8421  -18.5036  -15.6355 C   0  0  2  0  0  0  0  0  0  0  0  0
   24.3758  -17.1863  -15.8524 N   0  0  0  0  0  0  0  0  0  0  0  0
   22.8934  -18.5795  -14.5263 C   0  0  0  0  0  0  0  0  0  0  0  0
   23.0272  -17.9186  -13.4563 O   0  0  0  0  0  0  0  0  0  0  0  0
   24.4652  -25.3820  -14.3480 C   0  0  0  0  0  0  0  0  0  0  0  0
   19.8937  -15.6554  -13.5837 C   0  0  0  0  0  0  0  0  0  0  0  0
   20.7401  -16.8807  -13.3413 C   0  0  2  0  0  0  0  0  0  0  0  0
   19.9643  -18.0964  -13.7893 C   0  0  0  0  0  0  0  0  0  0  0  0
   18.6382  -18.0824  -13.0315 C   0  0  2  0  0  0  0  0  0  0  0  0
   20.7054  -19.3872  -13.5713 N   0  0  0  0  0  0  0  0  0  0  0  0
   21.7510  -19.4227  -14.6087 C   0  0  0  0  0  0  0  0  0  0  0  0
   19.8150  -20.5613  -13.6972 O   0  0  0  0  0  0  0  0  0  0  0  0
   19.1905  -21.1070  -12.5934 O   0  0  0  0  0  0  0  0  0  0  0  0
  2  1  1  6
  3  2  1  0
  3  4  1  0
  5  2  1  0
  5  6  2  0
  7  8  1  0
  8  9  2  0
  8 10  1  0
 10 11  1  0
 12 11  1  0
 13 12  1  0
 14 13  1  1
 14 15  1  0
 15  5  1  0
 16 14  1  0
 17 16  2  0
 19 18  1  0
 20 19  1  0
 20 22  1  0
 20 21  1  6
 22 23  1  1
 22 24  1  0
 23 16  1  0
 24 25  1  0
 26 24  2  0
M  END
$$$$
