CRI.pdb
     RDKit          3D

 26 25  0  0  1  0  0  0  0  0999 V2000
   23.5410  -12.1385  -18.8137 N   0  0  0  0  0  0  0  0  0  0  0  0
   22.4967  -11.1497  -18.7614 C   0  0  1  0  0  0  0  0  0  0  0  0
   21.2934  -11.8102  -18.0748 C   0  0  0  0  0  0  0  0  0  0  0  0
   19.8985  -10.6784  -17.9867 S   0  0  0  0  0  0  0  0  0  0  0  0
   22.9296   -9.9909  -17.9505 C   0  0  0  0  0  0  0  0  0  0  0  0
   23.3532  -10.0629  -16.7710 O   0  0  0  0  0  0  0  0  0  0  0  0
   24.6475   -2.3892  -21.4485 N   0  0  0  0  0  0  0  0  0  0  0  0
   25.4994   -3.5000  -21.2459 C   0  0  0  0  0  0  0  0  0  0  0  0
   26.5304   -3.6485  -22.0019 N   0  0  0  0  0  0  0  0  0  0  0  0
   25.1884   -4.4294  -20.2020 N   0  0  0  0  0  0  0  0  0  0  0  0
   24.1037   -4.1086  -19.3187 C   0  0  0  0  0  0  0  0  0  0  0  0
   23.8812   -5.1282  -18.2337 C   0  0  0  0  0  0  0  0  0  0  0  0
   23.4239   -6.4094  -18.8460 C   0  0  0  0  0  0  0  0  0  0  0  0
   23.1968   -7.5021  -17.8206 C   0  0  2  0  0  0  0  0  0  0  0  0
   22.8652   -8.7027  -18.5388 N   0  0  0  0  0  0  0  0  0  0  0  0
   22.2145   -7.1342  -16.8030 C   0  0  0  0  0  0  0  0  0  0  0  0
   20.9678   -7.1293  -17.0160 O   0  0  0  0  0  0  0  0  0  0  0  0
   27.1531   -4.4636  -21.8405 C   0  0  0  0  0  0  0  0  0  0  0  0
   21.6756   -9.9133  -12.8986 C   0  0  0  0  0  0  0  0  0  0  0  0
   21.3621   -8.8777  -13.9502 C   0  0  2  0  0  0  0  0  0  0  0  0
   21.7699   -7.5217  -13.4253 C   0  0  0  0  0  0  0  0  0  0  0  0
   20.8983   -7.2366  -12.2039 C   0  0  2  0  0  0  0  0  0  0  0  0
   21.6498   -6.4275  -14.4507 N   0  0  0  0  0  0  0  0  0  0  0  0
   22.6332   -6.7568  -15.4971 C   0  0  0  0  0  0  0  0  0  0  0  0
   21.9388   -5.0973  -13.8726 O   0  0  0  0  0  0  0  0  0  0  0  0
   20.9238   -4.2788  -13.4187 O   0  0  0  0  0  0  0  0  0  0  0  0
  2  1  1  1
  3  2  1  0
  3  4  1  0
  5  2  1  0
  5  6  2  0
  7  8  1  0
  8  9  2  0
  8 10  1  0
 10 11  1  0
 12 11  1  0
 13 12  1  0
 14 13  1  6
 14 15  1  0
 15  5  1  0
 16 14  1  0
 17 16  2  0
 19 18  1  0
 20 19  1  0
 20 22  1  0
 20 21  1  6
 22 23  1  6
 22 24  1  0
 23 16  1  0
 24 25  1  0
 26 24  2  0
M  END
$$$$
