CRI.pdb
     RDKit          3D

 26 25  0  0  1  0  0  0  0  0999 V2000
   18.1974  -22.9724  -12.9823 N   0  0  0  0  0  0  0  0  0  0  0  0
   18.2571  -22.6300  -11.5858 C   0  0  1  0  0  0  0  0  0  0  0  0
   17.4287  -21.3505  -11.4063 C   0  0  0  0  0  0  0  0  0  0  0  0
   18.3822  -19.8946  -11.8600 S   0  0  0  0  0  0  0  0  0  0  0  0
   17.6538  -23.7055  -10.7691 C   0  0  0  0  0  0  0  0  0  0  0  0
   16.4883  -24.1470  -10.9181 O   0  0  0  0  0  0  0  0  0  0  0  0
   21.5855  -30.1001  -11.4355 N   0  0  0  0  0  0  0  0  0  0  0  0
   20.3292  -29.7203  -11.9626 C   0  0  0  0  0  0  0  0  0  0  0  0
   19.7625  -30.4707  -12.8414 N   0  0  0  0  0  0  0  0  0  0  0  0
   19.7230  -28.5079  -11.5012 N   0  0  0  0  0  0  0  0  0  0  0  0
   20.4839  -27.6707  -10.6180 C   0  0  0  0  0  0  0  0  0  0  0  0
   19.8083  -26.3679  -10.2828 C   0  0  0  0  0  0  0  0  0  0  0  0
   18.6370  -26.6323   -9.3975 C   0  0  0  0  0  0  0  0  0  0  0  0
   17.9679  -25.3614   -8.9138 C   0  0  2  0  0  0  0  0  0  0  0  0
   18.4405  -24.2854   -9.7421 N   0  0  0  0  0  0  0  0  0  0  0  0
   18.1528  -25.1282   -7.4830 C   0  0  0  0  0  0  0  0  0  0  0  0
   19.1818  -24.5730   -7.0008 O   0  0  0  0  0  0  0  0  0  0  0  0
   18.8746  -30.1490  -13.2730 C   0  0  0  0  0  0  0  0  0  0  0  0
   13.7383  -24.3448   -4.4607 C   0  0  0  0  0  0  0  0  0  0  0  0
   15.1379  -24.1815   -5.0002 C   0  0  2  0  0  0  0  0  0  0  0  0
   15.9823  -25.3291   -4.4996 C   0  0  0  0  0  0  0  0  0  0  0  0
   16.0429  -25.2068   -2.9784 C   0  0  2  0  0  0  0  0  0  0  0  0
   17.3606  -25.3587   -5.1016 N   0  0  0  0  0  0  0  0  0  0  0  0
   17.1555  -25.5274   -6.5507 C   0  0  0  0  0  0  0  0  0  0  0  0
   18.1726  -26.4714   -4.5634 O   0  0  0  0  0  0  0  0  0  0  0  0
   19.1236  -26.2554   -3.5860 O   0  0  0  0  0  0  0  0  0  0  0  0
  2  1  1  6
  3  2  1  0
  3  4  1  0
  5  2  1  0
  5  6  2  0
  7  8  1  0
  8  9  2  0
  8 10  1  0
 10 11  1  0
 12 11  1  0
 13 12  1  0
 14 13  1  6
 14 15  1  0
 15  5  1  0
 16 14  1  0
 17 16  2  0
 19 18  1  0
 20 19  1  0
 20 22  1  0
 20 21  1  6
 22 23  1  1
 22 24  1  0
 23 16  1  0
 24 25  1  0
 26 24  2  0
M  END
$$$$
