NKG.pdb
     RDKit          3D

 22 21  0  0  1  0  0  0  0  0999 V2000
    7.3941  -13.0314   16.5777 N   0  0  0  0  0  0  0  0  0  0  0  0
    7.7845  -14.0009   17.5350 C   0  0  0  0  0  0  0  0  0  0  0  0
    7.6701  -15.2061   17.1924 O   0  0  0  0  0  0  0  0  0  0  0  0
    8.3041  -13.6386   18.8782 C   0  0  0  0  0  0  0  0  0  0  0  0
    8.5209  -14.8898   19.6622 C   0  0  2  0  0  0  0  0  0  0  0  0
    7.2453  -15.5525   19.8151 N   0  0  0  0  0  0  0  0  0  0  0  0
    9.0850  -14.6230   21.0172 C   0  0  0  0  0  0  0  0  0  0  0  0
   10.1821  -14.0307   21.0824 O   0  0  0  0  0  0  0  0  0  0  0  0
    8.4305  -15.0113   22.1998 N   0  0  0  0  0  0  0  0  0  0  0  0
    8.9944  -14.9197   23.5241 C   0  0  1  0  0  0  0  0  0  0  0  0
    7.9193  -14.6790   24.5297 C   0  0  0  0  0  0  0  0  0  0  0  0
    7.5780  -13.2203   24.7213 C   0  0  0  0  0  0  0  0  0  0  0  0
    6.5074  -13.0584   25.7976 C   0  0  0  0  0  0  0  0  0  0  0  0
    6.1471  -11.6288   26.0345 C   0  0  0  0  0  0  0  0  0  0  0  0
    5.1338  -11.6253   27.0979 N   0  0  0  0  0  0  0  0  0  0  0  0
    9.8491  -16.0994   23.7641 C   0  0  0  0  0  0  0  0  0  0  0  0
    9.3836  -17.2525   24.0254 O   0  0  0  0  0  0  0  0  0  0  0  0
   11.2867  -16.0660   23.7291 N   0  0  0  0  0  0  0  0  0  0  0  0
   12.0937  -17.0669   24.3673 C   0  0  0  0  0  0  0  0  0  0  0  0
   13.5137  -16.9762   24.0530 C   0  0  0  0  0  0  0  0  0  0  0  0
   13.9446  -16.0767   23.3011 O   0  0  0  0  0  0  0  0  0  0  0  0
   14.4071  -17.8840   24.5816 O   0  0  0  0  0  0  0  0  0  0  0  0
  2  1  1  0
  3  2  2  0
  4  5  1  0
  4  2  1  0
  5  6  1  1
  7  9  1  0
  7  5  1  0
  8  7  2  0
 10  9  1  0
 10 11  1  1
 11 12  1  0
 12 13  1  0
 13 14  1  0
 14 15  1  0
 16 10  1  0
 17 16  2  0
 18 16  1  0
 19 18  1  0
 20 22  1  0
 20 19  1  0
 21 20  2  0
M  END
$$$$
