NKG.pdb
     RDKit          3D

 22 21  0  0  1  0  0  0  0  0999 V2000
    9.8515  -17.0132   16.8233 N   0  0  0  0  0  0  0  0  0  0  0  0
    8.8607  -16.5936   17.7458 C   0  0  0  0  0  0  0  0  0  0  0  0
    7.6871  -16.9918   17.5291 O   0  0  0  0  0  0  0  0  0  0  0  0
    9.1666  -15.7295   18.9142 C   0  0  0  0  0  0  0  0  0  0  0  0
    9.0576  -16.5477   20.1575 C   0  0  2  0  0  0  0  0  0  0  0  0
    7.7181  -17.0870   20.2262 N   0  0  0  0  0  0  0  0  0  0  0  0
    9.3135  -15.7479   21.3906 C   0  0  0  0  0  0  0  0  0  0  0  0
   10.4266  -15.1939   21.5020 O   0  0  0  0  0  0  0  0  0  0  0  0
    8.3566  -15.6025   22.4109 N   0  0  0  0  0  0  0  0  0  0  0  0
    8.6100  -15.0138   23.7029 C   0  0  1  0  0  0  0  0  0  0  0  0
    7.4297  -14.2195   24.1510 C   0  0  0  0  0  0  0  0  0  0  0  0
    7.7074  -13.3313   25.3406 C   0  0  0  0  0  0  0  0  0  0  0  0
    6.4387  -12.5968   25.7673 C   0  0  0  0  0  0  0  0  0  0  0  0
    6.6719  -11.6766   26.9200 C   0  0  0  0  0  0  0  0  0  0  0  0
    5.3762  -11.0559   27.2260 N   0  0  0  0  0  0  0  0  0  0  0  0
    9.0664  -16.0687   24.6296 C   0  0  0  0  0  0  0  0  0  0  0  0
    8.2749  -16.8859   25.1954 O   0  0  0  0  0  0  0  0  0  0  0  0
   10.4439  -16.2784   24.9867 N   0  0  0  0  0  0  0  0  0  0  0  0
   10.9073  -16.1917   26.3426 C   0  0  0  0  0  0  0  0  0  0  0  0
   10.8368  -17.4482   27.0773 C   0  0  0  0  0  0  0  0  0  0  0  0
   10.2283  -18.4308   26.6038 O   0  0  0  0  0  0  0  0  0  0  0  0
   11.4421  -17.5732   28.3100 O   0  0  0  0  0  0  0  0  0  0  0  0
  2  1  1  0
  3  2  2  0
  4  5  1  0
  4  2  1  0
  5  6  1  1
  7  9  1  0
  7  5  1  0
  8  7  2  0
 10  9  1  0
 10 11  1  1
 11 12  1  0
 12 13  1  0
 13 14  1  0
 14 15  1  0
 16 10  1  0
 17 16  2  0
 18 16  1  0
 19 18  1  0
 20 22  1  0
 20 19  1  0
 21 20  2  0
M  END
$$$$
