NKG.pdb
     RDKit          3D

 22 21  0  0  1  0  0  0  0  0999 V2000
    4.1607  -21.1835   23.7929 N   0  0  0  0  0  0  0  0  0  0  0  0
    5.4445  -20.9112   23.2575 C   0  0  0  0  0  0  0  0  0  0  0  0
    5.9534  -21.8073   22.5358 O   0  0  0  0  0  0  0  0  0  0  0  0
    6.1709  -19.6428   23.5200 C   0  0  0  0  0  0  0  0  0  0  0  0
    6.0270  -18.7527   22.3308 C   0  0  2  0  0  0  0  0  0  0  0  0
    5.9594  -19.5848   21.1506 N   0  0  0  0  0  0  0  0  0  0  0  0
    7.1726  -17.8085   22.1835 C   0  0  0  0  0  0  0  0  0  0  0  0
    8.2424  -18.2613   21.7264 O   0  0  0  0  0  0  0  0  0  0  0  0
    7.0846  -16.4502   22.5374 N   0  0  0  0  0  0  0  0  0  0  0  0
    8.1594  -15.4955   22.4220 C   0  0  1  0  0  0  0  0  0  0  0  0
    7.6137  -14.1118   22.3101 C   0  0  0  0  0  0  0  0  0  0  0  0
    6.8514  -13.8576   21.0313 C   0  0  0  0  0  0  0  0  0  0  0  0
    7.8102  -13.4911   19.9010 C   0  0  0  0  0  0  0  0  0  0  0  0
    7.1184  -13.3643   18.5838 C   0  0  0  0  0  0  0  0  0  0  0  0
    8.1738  -13.2546   17.5680 N   0  0  0  0  0  0  0  0  0  0  0  0
    9.1221  -15.7220   23.5181 C   0  0  0  0  0  0  0  0  0  0  0  0
    8.7813  -15.7786   24.7409 O   0  0  0  0  0  0  0  0  0  0  0  0
   10.5355  -15.8991   23.3175 N   0  0  0  0  0  0  0  0  0  0  0  0
   11.4432  -16.1242   24.4065 C   0  0  0  0  0  0  0  0  0  0  0  0
   12.8466  -16.1533   24.0153 C   0  0  0  0  0  0  0  0  0  0  0  0
   13.1804  -15.9857   22.8235 O   0  0  0  0  0  0  0  0  0  0  0  0
   13.8314  -16.3667   24.9568 O   0  0  0  0  0  0  0  0  0  0  0  0
  2  1  1  0
  3  2  2  0
  4  5  1  0
  4  2  1  0
  5  6  1  6
  7  9  1  0
  7  5  1  0
  8  7  2  0
 10  9  1  0
 10 11  1  1
 11 12  1  0
 12 13  1  0
 13 14  1  0
 14 15  1  0
 16 10  1  0
 17 16  2  0
 18 16  1  0
 19 18  1  0
 20 22  1  0
 20 19  1  0
 21 20  2  0
M  END
$$$$
