NKG.pdb
     RDKit          3D

 22 21  0  0  1  0  0  0  0  0999 V2000
   13.4201  -13.6074   19.6622 N   0  0  0  0  0  0  0  0  0  0  0  0
   12.3991  -14.4917   19.2327 C   0  0  0  0  0  0  0  0  0  0  0  0
   12.5701  -15.0468   18.1166 O   0  0  0  0  0  0  0  0  0  0  0  0
   11.1826  -14.7652   20.0392 C   0  0  0  0  0  0  0  0  0  0  0  0
   11.3317  -16.0971   20.6957 C   0  0  2  0  0  0  0  0  0  0  0  0
   11.2270  -17.1164   19.6759 N   0  0  0  0  0  0  0  0  0  0  0  0
   10.2826  -16.3449   21.7270 C   0  0  0  0  0  0  0  0  0  0  0  0
   10.2013  -15.5390   22.6770 O   0  0  0  0  0  0  0  0  0  0  0  0
    9.4001  -17.4380   21.6620 N   0  0  0  0  0  0  0  0  0  0  0  0
    8.4876  -17.8260   22.7093 C   0  0  1  0  0  0  0  0  0  0  0  0
    7.6077  -18.9373   22.2445 C   0  0  0  0  0  0  0  0  0  0  0  0
    6.5517  -19.3398   23.2465 C   0  0  0  0  0  0  0  0  0  0  0  0
    5.7262  -20.5081   22.7132 C   0  0  0  0  0  0  0  0  0  0  0  0
    4.6460  -20.9222   23.6574 C   0  0  0  0  0  0  0  0  0  0  0  0
    4.0778  -22.1658   23.1206 N   0  0  0  0  0  0  0  0  0  0  0  0
    9.2556  -18.0850   23.9433 C   0  0  0  0  0  0  0  0  0  0  0  0
   10.1881  -18.9454   24.0130 O   0  0  0  0  0  0  0  0  0  0  0  0
    9.0289  -17.3968   25.1858 N   0  0  0  0  0  0  0  0  0  0  0  0
    8.7573  -18.0937   26.4110 C   0  0  0  0  0  0  0  0  0  0  0  0
    9.9449  -18.3979   27.1987 C   0  0  0  0  0  0  0  0  0  0  0  0
   11.0811  -18.3570   26.6817 O   0  0  0  0  0  0  0  0  0  0  0  0
    9.8334  -18.7368   28.5308 O   0  0  0  0  0  0  0  0  0  0  0  0
  2  1  1  0
  3  2  2  0
  4  5  1  0
  4  2  1  0
  5  6  1  6
  7  9  1  0
  7  5  1  0
  8  7  2  0
 10  9  1  0
 10 11  1  6
 11 12  1  0
 12 13  1  0
 13 14  1  0
 14 15  1  0
 16 10  1  0
 17 16  2  0
 18 16  1  0
 19 18  1  0
 20 22  1  0
 20 19  1  0
 21 20  2  0
M  END
$$$$
