NKG.pdb
     RDKit          3D

 22 21  0  0  1  0  0  0  0  0999 V2000
    7.0987  -14.0750   16.5130 N   0  0  0  0  0  0  0  0  0  0  0  0
    7.8212  -15.1406   17.1057 C   0  0  0  0  0  0  0  0  0  0  0  0
    7.9023  -16.2038   16.4379 O   0  0  0  0  0  0  0  0  0  0  0  0
    8.4580  -15.0325   18.4429 C   0  0  0  0  0  0  0  0  0  0  0  0
    7.9898  -13.7755   19.0970 C   0  0  2  0  0  0  0  0  0  0  0  0
    8.5212  -12.6555   18.3534 N   0  0  0  0  0  0  0  0  0  0  0  0
    8.4449  -13.6663   20.5136 C   0  0  0  0  0  0  0  0  0  0  0  0
    9.6143  -13.2807   20.7190 O   0  0  0  0  0  0  0  0  0  0  0  0
    7.6119  -13.9788   21.6027 N   0  0  0  0  0  0  0  0  0  0  0  0
    7.9949  -13.8818   22.9898 C   0  0  1  0  0  0  0  0  0  0  0  0
    6.9851  -13.0919   23.7523 C   0  0  0  0  0  0  0  0  0  0  0  0
    7.3247  -12.9149   25.2132 C   0  0  0  0  0  0  0  0  0  0  0  0
    6.2692  -12.0579   25.9076 C   0  0  0  0  0  0  0  0  0  0  0  0
    6.5419  -11.8859   27.3657 C   0  0  0  0  0  0  0  0  0  0  0  0
    5.3832  -11.1775   27.9254 N   0  0  0  0  0  0  0  0  0  0  0  0
    8.2769  -15.2362   23.5054 C   0  0  0  0  0  0  0  0  0  0  0  0
    7.3887  -16.1390   23.6079 O   0  0  0  0  0  0  0  0  0  0  0  0
    9.5763  -15.6707   23.9436 N   0  0  0  0  0  0  0  0  0  0  0  0
    9.7980  -16.9655   24.5224 C   0  0  0  0  0  0  0  0  0  0  0  0
   11.1664  -17.1911   24.9696 C   0  0  0  0  0  0  0  0  0  0  0  0
   12.0535  -16.3358   24.7658 O   0  0  0  0  0  0  0  0  0  0  0  0
   11.5051  -18.3553   25.6267 O   0  0  0  0  0  0  0  0  0  0  0  0
  2  1  1  0
  3  2  2  0
  4  5  1  0
  4  2  1  0
  5  6  1  6
  7  9  1  0
  7  5  1  0
  8  7  2  0
 10  9  1  0
 10 11  1  1
 11 12  1  0
 12 13  1  0
 13 14  1  0
 14 15  1  0
 16 10  1  0
 17 16  2  0
 18 16  1  0
 19 18  1  0
 20 22  1  0
 20 19  1  0
 21 20  2  0
M  END
$$$$
