NKG.pdb
     RDKit          3D

 22 21  0  0  1  0  0  0  0  0999 V2000
   11.5811  -23.1810   18.4566 N   0  0  0  0  0  0  0  0  0  0  0  0
   10.6710  -22.1074   18.2898 C   0  0  0  0  0  0  0  0  0  0  0  0
    9.6722  -22.3268   17.5568 O   0  0  0  0  0  0  0  0  0  0  0  0
   10.8639  -20.7840   18.9354 C   0  0  0  0  0  0  0  0  0  0  0  0
    9.8776  -19.8221   18.3618 C   0  0  2  0  0  0  0  0  0  0  0  0
   10.1787  -19.6511   16.9583 N   0  0  0  0  0  0  0  0  0  0  0  0
    9.9299  -18.4877   19.0267 C   0  0  0  0  0  0  0  0  0  0  0  0
   10.9892  -17.8339   18.9327 O   0  0  0  0  0  0  0  0  0  0  0  0
    8.8425  -17.9550   19.7421 N   0  0  0  0  0  0  0  0  0  0  0  0
    8.8472  -16.6863   20.4280 C   0  0  1  0  0  0  0  0  0  0  0  0
    7.4548  -16.1725   20.5769 C   0  0  0  0  0  0  0  0  0  0  0  0
    7.3719  -14.8141   21.2317 C   0  0  0  0  0  0  0  0  0  0  0  0
    7.8454  -13.7270   20.2699 C   0  0  0  0  0  0  0  0  0  0  0  0
    7.6777  -12.3540   20.8325 C   0  0  0  0  0  0  0  0  0  0  0  0
    8.2770  -11.4297   19.8609 N   0  0  0  0  0  0  0  0  0  0  0  0
    9.6221  -16.8195   21.6776 C   0  0  0  0  0  0  0  0  0  0  0  0
    9.4248  -17.7489   22.5213 O   0  0  0  0  0  0  0  0  0  0  0  0
   10.6720  -15.9169   22.0677 N   0  0  0  0  0  0  0  0  0  0  0  0
   11.3369  -16.0150   23.3361 C   0  0  0  0  0  0  0  0  0  0  0  0
   12.6906  -16.5489   23.2589 C   0  0  0  0  0  0  0  0  0  0  0  0
   13.1326  -17.0146   22.1875 O   0  0  0  0  0  0  0  0  0  0  0  0
   13.5076  -16.5486   24.3698 O   0  0  0  0  0  0  0  0  0  0  0  0
  2  1  1  0
  3  2  2  0
  4  5  1  0
  4  2  1  0
  5  6  1  6
  7  9  1  0
  7  5  1  0
  8  7  2  0
 10  9  1  0
 10 11  1  1
 11 12  1  0
 12 13  1  0
 13 14  1  0
 14 15  1  0
 16 10  1  0
 17 16  2  0
 18 16  1  0
 19 18  1  0
 20 22  1  0
 20 19  1  0
 21 20  2  0
M  END
$$$$
