NKG.pdb
     RDKit          3D

 22 21  0  0  1  0  0  0  0  0999 V2000
    7.8559  -15.3356   17.1685 N   0  0  0  0  0  0  0  0  0  0  0  0
    8.1019  -13.9929   17.5503 C   0  0  0  0  0  0  0  0  0  0  0  0
    8.1422  -13.1439   16.6227 O   0  0  0  0  0  0  0  0  0  0  0  0
    8.3047  -13.5848   18.9637 C   0  0  0  0  0  0  0  0  0  0  0  0
    8.3252  -14.8082   19.8180 C   0  0  2  0  0  0  0  0  0  0  0  0
    6.9806  -15.3353   19.8828 N   0  0  0  0  0  0  0  0  0  0  0  0
    8.7943  -14.5266   21.2059 C   0  0  0  0  0  0  0  0  0  0  0  0
    9.9407  -14.0525   21.3457 O   0  0  0  0  0  0  0  0  0  0  0  0
    7.9989  -14.7744   22.3390 N   0  0  0  0  0  0  0  0  0  0  0  0
    8.4231  -14.5815   23.7039 C   0  0  1  0  0  0  0  0  0  0  0  0
    7.2533  -14.2501   24.5681 C   0  0  0  0  0  0  0  0  0  0  0  0
    7.2288  -12.8151   25.0385 C   0  0  0  0  0  0  0  0  0  0  0  0
    6.0345  -12.5743   25.9586 C   0  0  0  0  0  0  0  0  0  0  0  0
    5.9557  -11.1610   26.4341 C   0  0  0  0  0  0  0  0  0  0  0  0
    4.8089  -11.0929   27.3495 N   0  0  0  0  0  0  0  0  0  0  0  0
    9.2267  -15.7460   24.1257 C   0  0  0  0  0  0  0  0  0  0  0  0
    8.8682  -16.9478   23.9214 O   0  0  0  0  0  0  0  0  0  0  0  0
   10.4888  -15.6419   24.8080 N   0  0  0  0  0  0  0  0  0  0  0  0
   11.1685  -16.7870   25.3440 C   0  0  0  0  0  0  0  0  0  0  0  0
   12.1522  -17.3716   24.4418 C   0  0  0  0  0  0  0  0  0  0  0  0
   12.1725  -17.0611   23.2322 O   0  0  0  0  0  0  0  0  0  0  0  0
   13.0789  -18.2793   24.9098 O   0  0  0  0  0  0  0  0  0  0  0  0
  2  1  1  0
  3  2  2  0
  4  5  1  0
  4  2  1  0
  5  6  1  1
  7  9  1  0
  7  5  1  0
  8  7  2  0
 10  9  1  0
 10 11  1  1
 11 12  1  0
 12 13  1  0
 13 14  1  0
 14 15  1  0
 16 10  1  0
 17 16  2  0
 18 16  1  0
 19 18  1  0
 20 22  1  0
 20 19  1  0
 21 20  2  0
M  END
$$$$
