NKG.pdb
     RDKit          3D

 22 21  0  0  1  0  0  0  0  0999 V2000
   16.2900  -13.2163   16.5424 N   0  0  0  0  0  0  0  0  0  0  0  0
   16.0356  -14.1208   17.6036 C   0  0  0  0  0  0  0  0  0  0  0  0
   16.7919  -15.1234   17.6802 O   0  0  0  0  0  0  0  0  0  0  0  0
   14.9405  -13.9180   18.5859 C   0  0  0  0  0  0  0  0  0  0  0  0
   14.3551  -15.2463   18.9327 C   0  0  2  0  0  0  0  0  0  0  0  0
   13.5711  -15.7011   17.8066 N   0  0  0  0  0  0  0  0  0  0  0  0
   13.4727  -15.1842   20.1340 C   0  0  0  0  0  0  0  0  0  0  0  0
   13.9970  -14.8729   21.2234 O   0  0  0  0  0  0  0  0  0  0  0  0
   12.0950  -15.4606   20.0766 N   0  0  0  0  0  0  0  0  0  0  0  0
   11.1838  -15.3514   21.1892 C   0  0  1  0  0  0  0  0  0  0  0  0
    9.7937  -15.1208   20.6999 C   0  0  0  0  0  0  0  0  0  0  0  0
    9.6341  -13.8579   19.8871 C   0  0  0  0  0  0  0  0  0  0  0  0
    8.1908  -13.7059   19.4129 C   0  0  0  0  0  0  0  0  0  0  0  0
    8.0200  -12.5711   18.4576 C   0  0  0  0  0  0  0  0  0  0  0  0
    6.5945  -12.5342   18.1052 N   0  0  0  0  0  0  0  0  0  0  0  0
   11.3695  -16.5160   22.0775 C   0  0  0  0  0  0  0  0  0  0  0  0
   11.7458  -17.6553   21.6591 O   0  0  0  0  0  0  0  0  0  0  0  0
   11.1441  -16.4826   23.4977 N   0  0  0  0  0  0  0  0  0  0  0  0
   11.2632  -17.6520   24.3216 C   0  0  0  0  0  0  0  0  0  0  0  0
   10.9770  -17.4187   25.7313 C   0  0  0  0  0  0  0  0  0  0  0  0
   10.5988  -16.2965   26.1283 O   0  0  0  0  0  0  0  0  0  0  0  0
   11.1195  -18.4353   26.6521 O   0  0  0  0  0  0  0  0  0  0  0  0
  2  1  1  0
  3  2  2  0
  4  5  1  0
  4  2  1  0
  5  6  1  6
  7  9  1  0
  7  5  1  0
  8  7  2  0
 10  9  1  0
 10 11  1  6
 11 12  1  0
 12 13  1  0
 13 14  1  0
 14 15  1  0
 16 10  1  0
 17 16  2  0
 18 16  1  0
 19 18  1  0
 20 22  1  0
 20 19  1  0
 21 20  2  0
M  END
$$$$
