NKG.pdb
     RDKit          3D

 22 21  0  0  1  0  0  0  0  0999 V2000
   15.4981  -15.5134   16.7093 N   0  0  0  0  0  0  0  0  0  0  0  0
   15.9994  -14.6483   17.7138 C   0  0  0  0  0  0  0  0  0  0  0  0
   17.0909  -14.0735   17.4662 O   0  0  0  0  0  0  0  0  0  0  0  0
   15.2925  -14.4161   18.9990 C   0  0  0  0  0  0  0  0  0  0  0  0
   14.1094  -15.3232   19.0664 C   0  0  2  0  0  0  0  0  0  0  0  0
   13.2737  -15.0601   17.9165 N   0  0  0  0  0  0  0  0  0  0  0  0
   13.3000  -15.1137   20.3019 C   0  0  0  0  0  0  0  0  0  0  0  0
   13.8178  -14.4593   21.2305 O   0  0  0  0  0  0  0  0  0  0  0  0
   11.9967  -15.6214   20.4486 N   0  0  0  0  0  0  0  0  0  0  0  0
   11.1691  -15.4471   21.6168 C   0  0  1  0  0  0  0  0  0  0  0  0
    9.7648  -15.1430   21.2164 C   0  0  0  0  0  0  0  0  0  0  0  0
    9.6383  -13.9645   20.2803 C   0  0  0  0  0  0  0  0  0  0  0  0
    8.1828  -13.7656   19.8646 C   0  0  0  0  0  0  0  0  0  0  0  0
    8.0102  -12.6241   18.9174 C   0  0  0  0  0  0  0  0  0  0  0  0
    6.5958  -12.6218   18.5214 N   0  0  0  0  0  0  0  0  0  0  0  0
   11.3476  -16.6098   22.5090 C   0  0  0  0  0  0  0  0  0  0  0  0
   11.4484  -17.8027   22.0832 O   0  0  0  0  0  0  0  0  0  0  0  0
   11.4238  -16.5139   23.9422 N   0  0  0  0  0  0  0  0  0  0  0  0
   10.9363  -17.5499   24.8080 C   0  0  0  0  0  0  0  0  0  0  0  0
   11.7521  -17.7659   25.9959 C   0  0  0  0  0  0  0  0  0  0  0  0
   12.8479  -17.1823   26.1321 O   0  0  0  0  0  0  0  0  0  0  0  0
   11.3267  -18.6201   26.9914 O   0  0  0  0  0  0  0  0  0  0  0  0
  2  1  1  0
  3  2  2  0
  4  5  1  0
  4  2  1  0
  5  6  1  6
  7  9  1  0
  7  5  1  0
  8  7  2  0
 10  9  1  0
 10 11  1  6
 11 12  1  0
 12 13  1  0
 13 14  1  0
 14 15  1  0
 16 10  1  0
 17 16  2  0
 18 16  1  0
 19 18  1  0
 20 22  1  0
 20 19  1  0
 21 20  2  0
M  END
$$$$
