NKG.pdb
     RDKit          3D

 22 21  0  0  1  0  0  0  0  0999 V2000
   10.1684  -18.6366   16.9987 N   0  0  0  0  0  0  0  0  0  0  0  0
    9.9105  -18.8285   18.3792 C   0  0  0  0  0  0  0  0  0  0  0  0
   10.7721  -19.4780   19.0262 O   0  0  0  0  0  0  0  0  0  0  0  0
    8.6951  -18.3006   19.0495 C   0  0  0  0  0  0  0  0  0  0  0  0
    8.7605  -18.6432   20.5006 C   0  0  2  0  0  0  0  0  0  0  0  0
    8.9666  -20.0692   20.6181 N   0  0  0  0  0  0  0  0  0  0  0  0
    7.5101  -18.2805   21.2289 C   0  0  0  0  0  0  0  0  0  0  0  0
    7.2489  -17.0673   21.3643 O   0  0  0  0  0  0  0  0  0  0  0  0
    6.6343  -19.2459   21.7569 N   0  0  0  0  0  0  0  0  0  0  0  0
    5.4062  -18.9533   22.4543 C   0  0  1  0  0  0  0  0  0  0  0  0
    4.2735  -19.7130   21.8501 C   0  0  0  0  0  0  0  0  0  0  0  0
    2.9295  -19.3935   22.4605 C   0  0  0  0  0  0  0  0  0  0  0  0
    1.8228  -20.1738   21.7554 C   0  0  0  0  0  0  0  0  0  0  0  0
    0.4649  -19.8369   22.2772 C   0  0  0  0  0  0  0  0  0  0  0  0
   -0.4943  -20.5920   21.4603 N   0  0  0  0  0  0  0  0  0  0  0  0
    5.6171  -19.1533   23.9018 C   0  0  0  0  0  0  0  0  0  0  0  0
    4.7757  -19.7403   24.6515 O   0  0  0  0  0  0  0  0  0  0  0  0
    6.7873  -18.7063   24.6088 N   0  0  0  0  0  0  0  0  0  0  0  0
    6.9340  -18.8645   26.0280 C   0  0  0  0  0  0  0  0  0  0  0  0
    8.1859  -18.3410   26.5591 C   0  0  0  0  0  0  0  0  0  0  0  0
    8.4585  -18.4485   27.7732 O   0  0  0  0  0  0  0  0  0  0  0  0
    9.0923  -17.7170   25.7280 O   0  0  0  0  0  0  0  0  0  0  0  0
  2  1  1  0
  3  2  2  0
  4  5  1  0
  4  2  1  0
  5  6  1  6
  7  9  1  0
  7  5  1  0
  8  7  2  0
 10  9  1  0
 10 11  1  6
 11 12  1  0
 12 13  1  0
 13 14  1  0
 14 15  1  0
 16 10  1  0
 17 16  2  0
 18 16  1  0
 19 18  1  0
 20 22  1  0
 20 19  1  0
 21 20  2  0
M  END
$$$$
