NKG.pdb
     RDKit          3D

 22 21  0  0  1  0  0  0  0  0999 V2000
    7.3783  -12.1514   19.2581 N   0  0  0  0  0  0  0  0  0  0  0  0
    7.9369  -13.3159   19.8418 C   0  0  0  0  0  0  0  0  0  0  0  0
    8.6146  -14.0550   19.0818 O   0  0  0  0  0  0  0  0  0  0  0  0
    7.7468  -13.6671   21.2721 C   0  0  0  0  0  0  0  0  0  0  0  0
    8.5976  -14.8505   21.5928 C   0  0  2  0  0  0  0  0  0  0  0  0
    8.2866  -15.8987   20.6471 N   0  0  0  0  0  0  0  0  0  0  0  0
    8.3598  -15.3666   22.9721 C   0  0  0  0  0  0  0  0  0  0  0  0
    8.4777  -14.5633   23.9204 O   0  0  0  0  0  0  0  0  0  0  0  0
    8.0136  -16.7050   23.2305 N   0  0  0  0  0  0  0  0  0  0  0  0
    7.9589  -17.3057   24.5406 C   0  0  1  0  0  0  0  0  0  0  0  0
    7.1273  -18.5436   24.5088 C   0  0  0  0  0  0  0  0  0  0  0  0
    7.0484  -19.2604   25.8358 C   0  0  0  0  0  0  0  0  0  0  0  0
    6.2244  -20.5390   25.7048 C   0  0  0  0  0  0  0  0  0  0  0  0
    6.0792  -21.2605   27.0041 C   0  0  0  0  0  0  0  0  0  0  0  0
    5.2491  -22.4418   26.7339 N   0  0  0  0  0  0  0  0  0  0  0  0
    9.3344  -17.4661   25.0525 C   0  0  0  0  0  0  0  0  0  0  0  0
   10.3660  -17.3479   24.3202 O   0  0  0  0  0  0  0  0  0  0  0  0
    9.6471  -17.7723   26.4228 N   0  0  0  0  0  0  0  0  0  0  0  0
   10.9944  -17.9693   26.8772 C   0  0  0  0  0  0  0  0  0  0  0  0
   11.1007  -18.3370   28.2832 C   0  0  0  0  0  0  0  0  0  0  0  0
   10.0853  -18.3837   29.0090 O   0  0  0  0  0  0  0  0  0  0  0  0
   12.3268  -18.6402   28.8367 O   0  0  0  0  0  0  0  0  0  0  0  0
  2  1  1  0
  3  2  2  0
  4  5  1  0
  4  2  1  0
  5  6  1  6
  7  9  1  0
  7  5  1  0
  8  7  2  0
 10  9  1  0
 10 11  1  6
 11 12  1  0
 12 13  1  0
 13 14  1  0
 14 15  1  0
 16 10  1  0
 17 16  2  0
 18 16  1  0
 19 18  1  0
 20 22  1  0
 20 19  1  0
 21 20  2  0
M  END
$$$$
