PQT.pdb
     RDKit          3D

 24 24  0  0  1  0  0  0  0  0999 V2000
    8.6355  -14.9387   19.6189 N   0  0  0  0  0  0  0  0  0  0  0  0
    8.3615  -14.3874   18.3105 C   0  0  0  0  0  0  0  0  0  0  0  0
    7.4341  -13.2123   18.5688 C   0  0  0  0  0  0  0  0  0  0  0  0
    7.5363  -12.9023   20.0286 C   0  0  0  0  0  0  0  0  0  0  0  0
    8.5291  -13.8777   20.5712 C   0  0  1  0  0  0  0  0  0  0  0  0
    8.0936  -14.3811   21.9037 C   0  0  0  0  0  0  0  0  0  0  0  0
    7.8732  -13.6156   22.8755 O   0  0  0  0  0  0  0  0  0  0  0  0
    5.8269  -19.9904   25.9281 N   0  0  0  0  0  0  0  0  0  0  0  0
    6.6279  -19.6745   24.8010 C   0  0  0  0  0  0  0  0  0  0  0  0
    6.7165  -20.4278   23.8058 O   0  0  0  0  0  0  0  0  0  0  0  0
    7.3943  -18.4134   24.7822 C   0  0  0  0  0  0  0  0  0  0  0  0
    7.5424  -17.8630   23.3782 C   0  0  0  0  0  0  0  0  0  0  0  0
    7.7085  -16.3642   23.4229 C   0  0  2  0  0  0  0  0  0  0  0  0
    7.9052  -15.7751   22.1373 N   0  0  0  0  0  0  0  0  0  0  0  0
    8.8142  -16.0107   24.3672 C   0  0  0  0  0  0  0  0  0  0  0  0
   10.0154  -16.0392   24.0159 O   0  0  0  0  0  0  0  0  0  0  0  0
    7.9816  -13.8157   27.8464 C   0  0  0  0  0  0  0  0  0  0  0  0
    9.3502  -13.8812   27.2073 C   0  0  1  0  0  0  0  0  0  0  0  0
   10.3454  -13.5223   28.1126 O   0  0  0  0  0  0  0  0  0  0  0  0
    9.6234  -15.2596   26.6318 C   0  0  2  0  0  0  0  0  0  0  0  0
    8.5578  -15.6226   25.7174 N   0  0  0  0  0  0  0  0  0  0  0  0
    9.7101  -16.2955   27.6996 C   0  0  0  0  0  0  0  0  0  0  0  0
   10.7209  -16.2745   28.6513 O   0  0  0  0  0  0  0  0  0  0  0  0
    8.8700  -17.2290   27.7792 O   0  0  0  0  0  0  0  0  0  0  0  0
  1  2  1  0
  1  5  1  0
  2  3  1  0
  3  4  1  0
  5  6  1  1
  5  4  1  0
  6  7  2  0
  8  9  1  0
  9 11  1  0
 10  9  2  0
 11 12  1  0
 13 12  1  6
 14 13  1  0
 14  6  1  0
 15 21  1  0
 15 13  1  0
 16 15  2  0
 18 17  1  1
 18 19  1  0
 20 18  1  0
 20 21  1  6
 22 20  1  0
 22 23  1  0
 24 22  2  0
M  END
$$$$
