PQT.pdb
     RDKit          3D

 24 24  0  0  1  0  0  0  0  0999 V2000
    9.1892  -14.4472   19.1627 N   0  0  0  0  0  0  0  0  0  0  0  0
    8.9359  -14.2302   17.7558 C   0  0  0  0  0  0  0  0  0  0  0  0
    7.5842  -13.5390   17.7048 C   0  0  0  0  0  0  0  0  0  0  0  0
    7.3100  -13.0380   19.0873 C   0  0  0  0  0  0  0  0  0  0  0  0
    8.5077  -13.4238   19.8923 C   0  0  1  0  0  0  0  0  0  0  0  0
    8.0992  -13.8965   21.2444 C   0  0  0  0  0  0  0  0  0  0  0  0
    7.3580  -13.2199   22.0007 O   0  0  0  0  0  0  0  0  0  0  0  0
    9.7348  -19.6019   23.6516 N   0  0  0  0  0  0  0  0  0  0  0  0
   10.6496  -18.5231   23.5468 C   0  0  0  0  0  0  0  0  0  0  0  0
   11.8848  -18.6725   23.6800 O   0  0  0  0  0  0  0  0  0  0  0  0
   10.1449  -17.1640   23.2703 C   0  0  0  0  0  0  0  0  0  0  0  0
    8.6313  -17.1239   23.2137 C   0  0  0  0  0  0  0  0  0  0  0  0
    8.1568  -15.7068   23.0076 C   0  0  2  0  0  0  0  0  0  0  0  0
    8.5386  -15.1567   21.7466 N   0  0  0  0  0  0  0  0  0  0  0  0
    8.6204  -14.8528   24.1456 C   0  0  0  0  0  0  0  0  0  0  0  0
    9.7164  -14.2487   24.1125 O   0  0  0  0  0  0  0  0  0  0  0  0
    6.8351  -11.8024   25.5843 C   0  0  0  0  0  0  0  0  0  0  0  0
    7.0280  -12.8339   26.6728 C   0  0  1  0  0  0  0  0  0  0  0  0
    5.8703  -13.5831   26.8660 O   0  0  0  0  0  0  0  0  0  0  0  0
    8.2069  -13.7412   26.3684 C   0  0  2  0  0  0  0  0  0  0  0  0
    7.8380  -14.6820   25.3280 N   0  0  0  0  0  0  0  0  0  0  0  0
    8.6394  -14.5057   27.5722 C   0  0  0  0  0  0  0  0  0  0  0  0
    9.1179  -13.8640   28.7067 O   0  0  0  0  0  0  0  0  0  0  0  0
    8.5872  -15.7625   27.6061 O   0  0  0  0  0  0  0  0  0  0  0  0
  1  2  1  0
  1  5  1  0
  2  3  1  0
  3  4  1  0
  5  6  1  1
  5  4  1  0
  6  7  2  0
  8  9  1  0
  9 11  1  0
 10  9  2  0
 11 12  1  0
 13 12  1  1
 14 13  1  0
 14  6  1  0
 15 21  1  0
 15 13  1  0
 16 15  2  0
 18 17  1  6
 18 19  1  0
 20 18  1  0
 20 21  1  6
 22 20  1  0
 22 23  1  0
 24 22  2  0
M  END
$$$$
