PQT.pdb
     RDKit          3D

 24 24  0  0  1  0  0  0  0  0999 V2000
    9.1656  -14.4681   19.1439 N   0  0  0  0  0  0  0  0  0  0  0  0
    8.7621  -14.2615   17.7709 C   0  0  0  0  0  0  0  0  0  0  0  0
    7.3450  -13.7215   17.8578 C   0  0  0  0  0  0  0  0  0  0  0  0
    7.1467  -13.2718   19.2706 C   0  0  0  0  0  0  0  0  0  0  0  0
    8.4480  -13.5350   19.9554 C   0  0  1  0  0  0  0  0  0  0  0  0
    8.2189  -14.0673   21.3275 C   0  0  0  0  0  0  0  0  0  0  0  0
    7.4433  -13.5126   22.1460 O   0  0  0  0  0  0  0  0  0  0  0  0
    8.9713  -20.2774   25.1994 N   0  0  0  0  0  0  0  0  0  0  0  0
    9.6644  -19.1576   24.6728 C   0  0  0  0  0  0  0  0  0  0  0  0
   10.8780  -19.1983   24.3706 O   0  0  0  0  0  0  0  0  0  0  0  0
    8.9441  -17.8863   24.4657 C   0  0  0  0  0  0  0  0  0  0  0  0
    9.3938  -17.1812   23.2022 C   0  0  0  0  0  0  0  0  0  0  0  0
    8.6324  -15.8904   23.0287 C   0  0  2  0  0  0  0  0  0  0  0  0
    8.8801  -15.2475   21.7782 N   0  0  0  0  0  0  0  0  0  0  0  0
    8.9177  -14.9816   24.1828 C   0  0  0  0  0  0  0  0  0  0  0  0
    9.9608  -14.2916   24.2362 O   0  0  0  0  0  0  0  0  0  0  0  0
    6.7127  -12.0936   25.4577 C   0  0  0  0  0  0  0  0  0  0  0  0
    6.9407  -13.0983   26.5643 C   0  0  1  0  0  0  0  0  0  0  0  0
    5.8546  -13.9603   26.6921 O   0  0  0  0  0  0  0  0  0  0  0  0
    8.2215  -13.8825   26.3402 C   0  0  2  0  0  0  0  0  0  0  0  0
    8.0161  -14.8537   25.2829 N   0  0  0  0  0  0  0  0  0  0  0  0
    8.6503  -14.6018   27.5729 C   0  0  0  0  0  0  0  0  0  0  0  0
    9.0418  -13.9158   28.7149 O   0  0  0  0  0  0  0  0  0  0  0  0
    8.6739  -15.8588   27.6254 O   0  0  0  0  0  0  0  0  0  0  0  0
  1  2  1  0
  1  5  1  0
  2  3  1  0
  3  4  1  0
  5  6  1  1
  5  4  1  0
  6  7  2  0
  8  9  1  0
  9 11  1  0
 10  9  2  0
 11 12  1  0
 13 12  1  1
 14 13  1  0
 14  6  1  0
 15 21  1  0
 15 13  1  0
 16 15  2  0
 18 17  1  6
 18 19  1  0
 20 18  1  0
 20 21  1  6
 22 20  1  0
 22 23  1  0
 24 22  2  0
M  END
$$$$
