PQT.pdb
     RDKit          3D

 24 24  0  0  1  0  0  0  0  0999 V2000
    7.4528  -14.8632   18.7950 N   0  0  0  0  0  0  0  0  0  0  0  0
    7.1695  -13.8425   17.8108 C   0  0  0  0  0  0  0  0  0  0  0  0
    7.2407  -12.5323   18.5760 C   0  0  0  0  0  0  0  0  0  0  0  0
    7.9458  -12.8280   19.8617 C   0  0  0  0  0  0  0  0  0  0  0  0
    8.2859  -14.2813   19.8007 C   0  0  1  0  0  0  0  0  0  0  0  0
    8.0721  -14.9248   21.1269 C   0  0  0  0  0  0  0  0  0  0  0  0
    6.9587  -15.3875   21.4811 O   0  0  0  0  0  0  0  0  0  0  0  0
   11.5977  -18.9415   24.1514 N   0  0  0  0  0  0  0  0  0  0  0  0
   10.7419  -18.5019   25.1935 C   0  0  0  0  0  0  0  0  0  0  0  0
   10.7119  -19.0518   26.3171 O   0  0  0  0  0  0  0  0  0  0  0  0
    9.8445  -17.3530   24.9636 C   0  0  0  0  0  0  0  0  0  0  0  0
   10.0355  -16.7535   23.5852 C   0  0  0  0  0  0  0  0  0  0  0  0
    9.0243  -15.6589   23.3503 C   0  0  2  0  0  0  0  0  0  0  0  0
    9.1382  -15.0453   22.0661 N   0  0  0  0  0  0  0  0  0  0  0  0
    9.1113  -14.6514   24.4532 C   0  0  0  0  0  0  0  0  0  0  0  0
    9.2807  -13.4330   24.2211 O   0  0  0  0  0  0  0  0  0  0  0  0
    7.5246  -12.5146   25.3524 C   0  0  0  0  0  0  0  0  0  0  0  0
    7.4628  -13.3330   26.6222 C   0  0  1  0  0  0  0  0  0  0  0  0
    6.4063  -14.2392   26.5851 O   0  0  0  0  0  0  0  0  0  0  0  0
    8.7753  -14.0527   26.8773 C   0  0  2  0  0  0  0  0  0  0  0  0
    9.0058  -15.0262   25.8272 N   0  0  0  0  0  0  0  0  0  0  0  0
    8.7711  -14.7581   28.1900 C   0  0  0  0  0  0  0  0  0  0  0  0
    8.9532  -14.0722   29.3835 O   0  0  0  0  0  0  0  0  0  0  0  0
    8.6023  -16.0027   28.2665 O   0  0  0  0  0  0  0  0  0  0  0  0
  1  2  1  0
  1  5  1  0
  2  3  1  0
  3  4  1  0
  5  6  1  1
  5  4  1  0
  6  7  2  0
  8  9  1  0
  9 11  1  0
 10  9  2  0
 11 12  1  0
 13 12  1  1
 14 13  1  0
 14  6  1  0
 15 21  1  0
 15 13  1  0
 16 15  2  0
 18 17  1  6
 18 19  1  0
 20 18  1  0
 20 21  1  6
 22 20  1  0
 22 23  1  0
 24 22  2  0
M  END
$$$$
