PQT.pdb
     RDKit          3D

 24 24  0  0  1  0  0  0  0  0999 V2000
    9.3698  -14.3927   19.3333 N   0  0  0  0  0  0  0  0  0  0  0  0
    9.1634  -14.1253   17.9274 C   0  0  0  0  0  0  0  0  0  0  0  0
    7.6917  -13.7674   17.8104 C   0  0  0  0  0  0  0  0  0  0  0  0
    7.2169  -13.4605   19.1953 C   0  0  0  0  0  0  0  0  0  0  0  0
    8.4176  -13.6209   20.0693 C   0  0  1  0  0  0  0  0  0  0  0  0
    8.0477  -14.2861   21.3496 C   0  0  0  0  0  0  0  0  0  0  0  0
    7.0310  -13.9584   22.0116 O   0  0  0  0  0  0  0  0  0  0  0  0
   11.1588  -19.3001   23.8109 N   0  0  0  0  0  0  0  0  0  0  0  0
   10.2529  -19.3414   22.7203 C   0  0  0  0  0  0  0  0  0  0  0  0
   10.1645  -20.3280   21.9557 O   0  0  0  0  0  0  0  0  0  0  0  0
    9.3721  -18.1860   22.4605 C   0  0  0  0  0  0  0  0  0  0  0  0
    9.5943  -17.0697   23.4607 C   0  0  0  0  0  0  0  0  0  0  0  0
    8.6553  -15.9236   23.1768 C   0  0  2  0  0  0  0  0  0  0  0  0
    8.8436  -15.3399   21.8875 N   0  0  0  0  0  0  0  0  0  0  0  0
    8.7661  -14.9037   24.2661 C   0  0  0  0  0  0  0  0  0  0  0  0
    9.8483  -14.3296   24.5240 O   0  0  0  0  0  0  0  0  0  0  0  0
    6.4633  -11.8283   27.4096 C   0  0  0  0  0  0  0  0  0  0  0  0
    6.3768  -12.9676   26.4195 C   0  0  1  0  0  0  0  0  0  0  0  0
    5.7621  -12.5611   25.2380 O   0  0  0  0  0  0  0  0  0  0  0  0
    7.7482  -13.5537   26.1340 C   0  0  2  0  0  0  0  0  0  0  0  0
    7.6445  -14.5318   25.0681 N   0  0  0  0  0  0  0  0  0  0  0  0
    8.3253  -14.2175   27.3369 C   0  0  0  0  0  0  0  0  0  0  0  0
    9.0047  -13.4954   28.3089 O   0  0  0  0  0  0  0  0  0  0  0  0
    8.2186  -15.4583   27.5173 O   0  0  0  0  0  0  0  0  0  0  0  0
  1  2  1  0
  1  5  1  0
  2  3  1  0
  3  4  1  0
  5  6  1  1
  5  4  1  0
  6  7  2  0
  8  9  1  0
  9 11  1  0
 10  9  2  0
 11 12  1  0
 13 12  1  1
 14 13  1  0
 14  6  1  0
 15 21  1  0
 15 13  1  0
 16 15  2  0
 18 17  1  1
 18 19  1  0
 20 18  1  0
 20 21  1  6
 22 20  1  0
 22 23  1  0
 24 22  2  0
M  END
$$$$
