PQT.pdb
     RDKit          3D

 24 24  0  0  1  0  0  0  0  0999 V2000
    9.2651  -14.4630   19.2996 N   0  0  0  0  0  0  0  0  0  0  0  0
    8.7461  -13.9508   18.0510 C   0  0  0  0  0  0  0  0  0  0  0  0
    7.4163  -13.3126   18.4138 C   0  0  0  0  0  0  0  0  0  0  0  0
    7.4193  -13.1378   19.8994 C   0  0  0  0  0  0  0  0  0  0  0  0
    8.7468  -13.6494   20.3548 C   0  0  1  0  0  0  0  0  0  0  0  0
    8.6038  -14.4219   21.6203 C   0  0  0  0  0  0  0  0  0  0  0  0
    7.9782  -13.9775   22.6154 O   0  0  0  0  0  0  0  0  0  0  0  0
   10.8961  -20.3259   22.3557 N   0  0  0  0  0  0  0  0  0  0  0  0
    9.6179  -20.0834   21.7909 C   0  0  0  0  0  0  0  0  0  0  0  0
    9.0012  -20.9456   21.1260 O   0  0  0  0  0  0  0  0  0  0  0  0
    8.9735  -18.7697   21.9835 C   0  0  0  0  0  0  0  0  0  0  0  0
    9.8285  -17.8376   22.8177 C   0  0  0  0  0  0  0  0  0  0  0  0
    9.1517  -16.4965   22.9562 C   0  0  2  0  0  0  0  0  0  0  0  0
    9.1795  -15.7190   21.7591 N   0  0  0  0  0  0  0  0  0  0  0  0
    9.7449  -15.7530   24.1114 C   0  0  0  0  0  0  0  0  0  0  0  0
   10.7712  -15.0476   23.9842 O   0  0  0  0  0  0  0  0  0  0  0  0
    8.9851  -13.1082   28.0421 C   0  0  0  0  0  0  0  0  0  0  0  0
    8.5245  -14.0353   26.9402 C   0  0  1  0  0  0  0  0  0  0  0  0
    8.0314  -13.3179   25.8533 O   0  0  0  0  0  0  0  0  0  0  0  0
    9.6406  -14.9674   26.5030 C   0  0  2  0  0  0  0  0  0  0  0  0
    9.1720  -15.8087   25.4184 N   0  0  0  0  0  0  0  0  0  0  0  0
   10.0994  -15.8401   27.6204 C   0  0  0  0  0  0  0  0  0  0  0  0
   10.8001  -15.3255   28.7030 O   0  0  0  0  0  0  0  0  0  0  0  0
    9.8692  -17.0772   27.6250 O   0  0  0  0  0  0  0  0  0  0  0  0
  1  2  1  0
  1  5  1  0
  2  3  1  0
  3  4  1  0
  5  6  1  1
  5  4  1  0
  6  7  2  0
  8  9  1  0
  9 11  1  0
 10  9  2  0
 11 12  1  0
 13 12  1  6
 14 13  1  0
 14  6  1  0
 15 21  1  0
 15 13  1  0
 16 15  2  0
 18 17  1  1
 18 19  1  0
 20 18  1  0
 20 21  1  6
 22 20  1  0
 22 23  1  0
 24 22  2  0
M  END
$$$$
