PQT.pdb
     RDKit          3D

 24 24  0  0  1  0  0  0  0  0999 V2000
    8.2429  -15.3216   20.3291 N   0  0  0  0  0  0  0  0  0  0  0  0
    7.8663  -14.9200   18.9921 C   0  0  0  0  0  0  0  0  0  0  0  0
    7.2347  -13.5488   19.1599 C   0  0  0  0  0  0  0  0  0  0  0  0
    7.6337  -13.0595   20.5160 C   0  0  0  0  0  0  0  0  0  0  0  0
    8.4989  -14.1357   21.0857 C   0  0  1  0  0  0  0  0  0  0  0  0
    8.2019  -14.3354   22.5315 C   0  0  0  0  0  0  0  0  0  0  0  0
    8.2774  -13.4035   23.3712 O   0  0  0  0  0  0  0  0  0  0  0  0
    5.8965  -19.7765   24.9174 N   0  0  0  0  0  0  0  0  0  0  0  0
    6.6130  -19.5174   23.7211 C   0  0  0  0  0  0  0  0  0  0  0  0
    6.7646  -20.3797   22.8270 O   0  0  0  0  0  0  0  0  0  0  0  0
    7.2104  -18.1855   23.5034 C   0  0  0  0  0  0  0  0  0  0  0  0
    6.8834  -17.2282   24.6314 C   0  0  0  0  0  0  0  0  0  0  0  0
    7.5786  -15.9078   24.4098 C   0  0  2  0  0  0  0  0  0  0  0  0
    7.8132  -15.6124   23.0328 N   0  0  0  0  0  0  0  0  0  0  0  0
    8.8447  -15.8684   25.2065 C   0  0  0  0  0  0  0  0  0  0  0  0
    9.9588  -16.1014   24.6853 O   0  0  0  0  0  0  0  0  0  0  0  0
   10.1171  -13.0222   27.5387 C   0  0  0  0  0  0  0  0  0  0  0  0
   10.0376  -14.3199   28.3105 C   0  0  1  0  0  0  0  0  0  0  0  0
    8.9009  -14.3579   29.1139 O   0  0  0  0  0  0  0  0  0  0  0  0
   10.0730  -15.5177   27.3780 C   0  0  2  0  0  0  0  0  0  0  0  0
    8.8488  -15.5635   26.6016 N   0  0  0  0  0  0  0  0  0  0  0  0
   10.2102  -16.7974   28.1293 C   0  0  0  0  0  0  0  0  0  0  0  0
   11.3506  -17.0881   28.8662 O   0  0  0  0  0  0  0  0  0  0  0  0
    9.2972  -17.6633   28.1243 O   0  0  0  0  0  0  0  0  0  0  0  0
  1  2  1  0
  1  5  1  0
  2  3  1  0
  3  4  1  0
  5  6  1  1
  5  4  1  0
  6  7  2  0
  8  9  1  0
  9 11  1  0
 10  9  2  0
 11 12  1  0
 13 12  1  6
 14 13  1  0
 14  6  1  0
 15 21  1  0
 15 13  1  0
 16 15  2  0
 18 17  1  6
 18 19  1  0
 20 18  1  0
 20 21  1  1
 22 20  1  0
 22 23  1  0
 24 22  2  0
M  END
$$$$
