PQT.pdb
     RDKit          3D

 24 24  0  0  1  0  0  0  0  0999 V2000
    8.7804  -15.2459   19.4023 N   0  0  0  0  0  0  0  0  0  0  0  0
    8.6717  -14.9968   17.9821 C   0  0  0  0  0  0  0  0  0  0  0  0
    7.6148  -13.9131   17.8558 C   0  0  0  0  0  0  0  0  0  0  0  0
    7.4541  -13.3146   19.2173 C   0  0  0  0  0  0  0  0  0  0  0  0
    8.4295  -14.0400   20.0855 C   0  0  1  0  0  0  0  0  0  0  0  0
    7.8325  -14.3224   21.4206 C   0  0  0  0  0  0  0  0  0  0  0  0
    7.4003  -13.4132   22.1727 O   0  0  0  0  0  0  0  0  0  0  0  0
    7.5790  -20.0922   24.3402 N   0  0  0  0  0  0  0  0  0  0  0  0
    6.9572  -19.2003   25.2509 C   0  0  0  0  0  0  0  0  0  0  0  0
    6.4987  -19.5751   26.3533 O   0  0  0  0  0  0  0  0  0  0  0  0
    6.8364  -17.7710   24.9035 C   0  0  0  0  0  0  0  0  0  0  0  0
    7.4281  -17.4684   23.5418 C   0  0  0  0  0  0  0  0  0  0  0  0
    7.2342  -16.0111   23.2036 C   0  0  2  0  0  0  0  0  0  0  0  0
    7.7240  -15.6572   21.9101 N   0  0  0  0  0  0  0  0  0  0  0  0
    7.8429  -15.1628   24.2756 C   0  0  0  0  0  0  0  0  0  0  0  0
    9.0653  -14.8933   24.2882 O   0  0  0  0  0  0  0  0  0  0  0  0
    6.8840  -11.5589   27.5364 C   0  0  0  0  0  0  0  0  0  0  0  0
    6.4000  -12.7197   26.6971 C   0  0  1  0  0  0  0  0  0  0  0  0
    5.6232  -12.2781   25.6291 O   0  0  0  0  0  0  0  0  0  0  0  0
    7.5619  -13.5617   26.2004 C   0  0  2  0  0  0  0  0  0  0  0  0
    7.0623  -14.6165   25.3394 N   0  0  0  0  0  0  0  0  0  0  0  0
    8.3150  -14.1814   27.3272 C   0  0  0  0  0  0  0  0  0  0  0  0
    9.2063  -13.4455   28.0965 O   0  0  0  0  0  0  0  0  0  0  0  0
    8.1715  -15.3957   27.6242 O   0  0  0  0  0  0  0  0  0  0  0  0
  1  2  1  0
  1  5  1  0
  2  3  1  0
  3  4  1  0
  5  6  1  1
  5  4  1  0
  6  7  2  0
  8  9  1  0
  9 11  1  0
 10  9  2  0
 11 12  1  0
 13 12  1  1
 14 13  1  0
 14  6  1  0
 15 21  1  0
 15 13  1  0
 16 15  2  0
 18 17  1  6
 18 19  1  0
 20 18  1  0
 20 21  1  6
 22 20  1  0
 22 23  1  0
 24 22  2  0
M  END
$$$$
