PQT.pdb
     RDKit          3D

 24 24  0  0  1  0  0  0  0  0999 V2000
    8.8056  -14.9403   19.5561 N   0  0  0  0  0  0  0  0  0  0  0  0
    8.6423  -14.7176   18.1367 C   0  0  0  0  0  0  0  0  0  0  0  0
    7.5204  -13.6992   18.0282 C   0  0  0  0  0  0  0  0  0  0  0  0
    7.3635  -13.0924   19.3863 C   0  0  0  0  0  0  0  0  0  0  0  0
    8.4040  -13.7476   20.2346 C   0  0  1  0  0  0  0  0  0  0  0  0
    7.8626  -14.0459   21.5897 C   0  0  0  0  0  0  0  0  0  0  0  0
    7.2965  -13.1752   22.2972 O   0  0  0  0  0  0  0  0  0  0  0  0
    8.1380  -19.7411   24.6653 N   0  0  0  0  0  0  0  0  0  0  0  0
    7.4510  -18.8795   25.5583 C   0  0  0  0  0  0  0  0  0  0  0  0
    7.0352  -19.2605   26.6753 O   0  0  0  0  0  0  0  0  0  0  0  0
    7.2073  -17.4756   25.1737 C   0  0  0  0  0  0  0  0  0  0  0  0
    7.7751  -17.1578   23.8053 C   0  0  0  0  0  0  0  0  0  0  0  0
    7.5039  -15.7163   23.4526 C   0  0  2  0  0  0  0  0  0  0  0  0
    7.9651  -15.3526   22.1512 N   0  0  0  0  0  0  0  0  0  0  0  0
    8.0762  -14.8256   24.5101 C   0  0  0  0  0  0  0  0  0  0  0  0
    9.2792  -14.4795   24.5001 O   0  0  0  0  0  0  0  0  0  0  0  0
    6.2202  -11.5011   25.9711 C   0  0  0  0  0  0  0  0  0  0  0  0
    6.6575  -12.4828   27.0345 C   0  0  1  0  0  0  0  0  0  0  0  0
    5.5889  -13.2634   27.4678 O   0  0  0  0  0  0  0  0  0  0  0  0
    7.7939  -13.3600   26.5398 C   0  0  2  0  0  0  0  0  0  0  0  0
    7.2812  -14.3241   25.5852 N   0  0  0  0  0  0  0  0  0  0  0  0
    8.4487  -14.0965   27.6576 C   0  0  0  0  0  0  0  0  0  0  0  0
    8.5007  -15.4838   27.6811 O   0  0  0  0  0  0  0  0  0  0  0  0
    8.9796  -13.4885   28.6230 O   0  0  0  0  0  0  0  0  0  0  0  0
  1  2  1  0
  1  5  1  0
  2  3  1  0
  3  4  1  0
  5  6  1  1
  5  4  1  0
  6  7  2  0
  8  9  1  0
  9 11  1  0
 10  9  2  0
 11 12  1  0
 13 12  1  1
 14 13  1  0
 14  6  1  0
 15 21  1  0
 15 13  1  0
 16 15  2  0
 18 17  1  6
 18 19  1  0
 20 18  1  0
 20 21  1  6
 22 20  1  0
 22 23  1  0
 24 22  2  0
M  END
$$$$
