PQT.pdb
     RDKit          3D

 24 24  0  0  1  0  0  0  0  0999 V2000
    8.3430  -15.0363   19.3783 N   0  0  0  0  0  0  0  0  0  0  0  0
    7.9680  -14.5376   18.0738 C   0  0  0  0  0  0  0  0  0  0  0  0
    7.1420  -13.2941   18.3543 C   0  0  0  0  0  0  0  0  0  0  0  0
    7.4119  -12.9155   19.7760 C   0  0  0  0  0  0  0  0  0  0  0  0
    8.3971  -13.9224   20.2729 C   0  0  1  0  0  0  0  0  0  0  0  0
    8.0728  -14.3269   21.6692 C   0  0  0  0  0  0  0  0  0  0  0  0
    7.9830  -13.4973   22.6088 O   0  0  0  0  0  0  0  0  0  0  0  0
    6.6947  -20.3164   23.7122 N   0  0  0  0  0  0  0  0  0  0  0  0
    6.6483  -19.5150   24.8815 C   0  0  0  0  0  0  0  0  0  0  0  0
    6.3438  -19.9781   26.0034 O   0  0  0  0  0  0  0  0  0  0  0  0
    6.9683  -18.0770   24.7924 C   0  0  0  0  0  0  0  0  0  0  0  0
    7.2878  -17.6560   23.3724 C   0  0  0  0  0  0  0  0  0  0  0  0
    7.5220  -16.1669   23.3125 C   0  0  2  0  0  0  0  0  0  0  0  0
    7.8467  -15.6942   22.0050 N   0  0  0  0  0  0  0  0  0  0  0  0
    8.5662  -15.7833   24.3134 C   0  0  0  0  0  0  0  0  0  0  0  0
    9.7884  -15.8636   24.0545 O   0  0  0  0  0  0  0  0  0  0  0  0
    7.3590  -13.4767   27.5646 C   0  0  0  0  0  0  0  0  0  0  0  0
    8.7809  -13.4341   27.0524 C   0  0  1  0  0  0  0  0  0  0  0  0
    9.6555  -12.9774   28.0349 O   0  0  0  0  0  0  0  0  0  0  0  0
    9.2204  -14.7925   26.5355 C   0  0  2  0  0  0  0  0  0  0  0  0
    8.2241  -15.3061   25.6152 N   0  0  0  0  0  0  0  0  0  0  0  0
    9.3977  -15.7731   27.6435 C   0  0  0  0  0  0  0  0  0  0  0  0
   10.3718  -15.5998   28.6176 O   0  0  0  0  0  0  0  0  0  0  0  0
    8.6707  -16.7958   27.7383 O   0  0  0  0  0  0  0  0  0  0  0  0
  1  2  1  0
  1  5  1  0
  2  3  1  0
  3  4  1  0
  5  6  1  1
  5  4  1  0
  6  7  2  0
  8  9  1  0
  9 11  1  0
 10  9  2  0
 11 12  1  0
 13 12  1  6
 14 13  1  0
 14  6  1  0
 15 21  1  0
 15 13  1  0
 16 15  2  0
 18 17  1  1
 18 19  1  0
 20 18  1  0
 20 21  1  6
 22 20  1  0
 22 23  1  0
 24 22  2  0
M  END
$$$$
