PQT.pdb
     RDKit          3D

 24 24  0  0  1  0  0  0  0  0999 V2000
    7.6339  -15.7043   14.2184 N   0  0  0  0  0  0  0  0  0  0  0  0
    7.6459  -14.5730   13.3179 C   0  0  0  0  0  0  0  0  0  0  0  0
    7.9165  -13.3706   14.2058 C   0  0  0  0  0  0  0  0  0  0  0  0
    8.4377  -13.9068   15.5013 C   0  0  0  0  0  0  0  0  0  0  0  0
    8.4807  -15.3897   15.3266 C   0  0  1  0  0  0  0  0  0  0  0  0
    8.0315  -16.0764   16.5696 C   0  0  0  0  0  0  0  0  0  0  0  0
    7.0368  -16.8439   16.5950 O   0  0  0  0  0  0  0  0  0  0  0  0
    9.3788  -20.6607   19.2185 N   0  0  0  0  0  0  0  0  0  0  0  0
   10.3577  -19.7659   18.7157 C   0  0  0  0  0  0  0  0  0  0  0  0
   11.5146  -20.1345   18.4134 O   0  0  0  0  0  0  0  0  0  0  0  0
   10.0181  -18.3411   18.5348 C   0  0  0  0  0  0  0  0  0  0  0  0
    8.6081  -18.0331   18.9960 C   0  0  0  0  0  0  0  0  0  0  0  0
    8.3866  -16.5413   19.0287 C   0  0  2  0  0  0  0  0  0  0  0  0
    8.7216  -15.8895   17.8033 N   0  0  0  0  0  0  0  0  0  0  0  0
    9.1253  -15.9505   20.1882 C   0  0  0  0  0  0  0  0  0  0  0  0
   10.3374  -15.6472   20.1120 O   0  0  0  0  0  0  0  0  0  0  0  0
    7.5519  -13.0220   22.3228 C   0  0  0  0  0  0  0  0  0  0  0  0
    8.1015  -14.1042   23.2244 C   0  0  1  0  0  0  0  0  0  0  0  0
    7.0798  -14.9031   23.7311 O   0  0  0  0  0  0  0  0  0  0  0  0
    9.1334  -14.9515   22.5011 C   0  0  2  0  0  0  0  0  0  0  0  0
    8.4872  -15.7018   21.4414 N   0  0  0  0  0  0  0  0  0  0  0  0
    9.8047  -15.9098   23.4240 C   0  0  0  0  0  0  0  0  0  0  0  0
   10.6811  -15.4758   24.4095 O   0  0  0  0  0  0  0  0  0  0  0  0
    9.6025  -17.1493   23.3449 O   0  0  0  0  0  0  0  0  0  0  0  0
  1  2  1  0
  1  5  1  0
  2  3  1  0
  3  4  1  0
  5  6  1  1
  5  4  1  0
  6  7  2  0
  8  9  1  0
  9 11  1  0
 10  9  2  0
 11 12  1  0
 13 12  1  6
 14 13  1  0
 14  6  1  0
 15 21  1  0
 15 13  1  0
 16 15  2  0
 18 17  1  6
 18 19  1  0
 20 18  1  0
 20 21  1  6
 22 20  1  0
 22 23  1  0
 24 22  2  0
M  END
$$$$
