PQT.pdb
     RDKit          3D

 24 24  0  0  1  0  0  0  0  0999 V2000
    7.7294  -15.0495   18.3974 N   0  0  0  0  0  0  0  0  0  0  0  0
    6.9658  -14.2289   17.4840 C   0  0  0  0  0  0  0  0  0  0  0  0
    6.9632  -12.8455   18.1115 C   0  0  0  0  0  0  0  0  0  0  0  0
    8.0484  -12.8431   19.1410 C   0  0  0  0  0  0  0  0  0  0  0  0
    8.6648  -14.2018   19.0687 C   0  0  1  0  0  0  0  0  0  0  0  0
    8.9781  -14.7075   20.4342 C   0  0  0  0  0  0  0  0  0  0  0  0
    9.8742  -14.1986   21.1534 O   0  0  0  0  0  0  0  0  0  0  0  0
    5.1186  -18.6707   23.5263 N   0  0  0  0  0  0  0  0  0  0  0  0
    5.8748  -19.1041   22.4074 C   0  0  0  0  0  0  0  0  0  0  0  0
    5.5939  -20.1411   21.7659 O   0  0  0  0  0  0  0  0  0  0  0  0
    7.0416  -18.3151   21.9668 C   0  0  0  0  0  0  0  0  0  0  0  0
    7.2514  -17.0867   22.8287 C   0  0  0  0  0  0  0  0  0  0  0  0
    8.4318  -16.2941   22.3246 C   0  0  2  0  0  0  0  0  0  0  0  0
    8.2637  -15.8080   20.9927 N   0  0  0  0  0  0  0  0  0  0  0  0
    9.6785  -17.1105   22.4611 C   0  0  0  0  0  0  0  0  0  0  0  0
   10.0483  -17.9036   21.5659 O   0  0  0  0  0  0  0  0  0  0  0  0
   14.1978  -17.6739   24.0059 C   0  0  0  0  0  0  0  0  0  0  0  0
   12.9341  -16.9336   23.6304 C   0  0  1  0  0  0  0  0  0  0  0  0
   13.0216  -16.4111   22.3426 O   0  0  0  0  0  0  0  0  0  0  0  0
   11.7132  -17.8266   23.7628 C   0  0  2  0  0  0  0  0  0  0  0  0
   10.5111  -17.0281   23.6184 N   0  0  0  0  0  0  0  0  0  0  0  0
   11.6739  -18.5143   25.0843 C   0  0  0  0  0  0  0  0  0  0  0  0
   12.3267  -19.7216   25.2942 O   0  0  0  0  0  0  0  0  0  0  0  0
   11.0472  -18.0265   26.0604 O   0  0  0  0  0  0  0  0  0  0  0  0
  1  2  1  0
  1  5  1  0
  2  3  1  0
  3  4  1  0
  5  6  1  1
  5  4  1  0
  6  7  2  0
  8  9  1  0
  9 11  1  0
 10  9  2  0
 11 12  1  0
 13 12  1  6
 14 13  1  0
 14  6  1  0
 15 21  1  0
 15 13  1  0
 16 15  2  0
 18 17  1  6
 18 19  1  0
 20 18  1  0
 20 21  1  1
 22 20  1  0
 22 23  1  0
 24 22  2  0
M  END
$$$$
