PQT.pdb
     RDKit          3D

 24 24  0  0  1  0  0  0  0  0999 V2000
    8.0072  -15.1510   20.1750 N   0  0  0  0  0  0  0  0  0  0  0  0
    7.4671  -14.6376   18.9358 C   0  0  0  0  0  0  0  0  0  0  0  0
    6.9601  -13.2471   19.2776 C   0  0  0  0  0  0  0  0  0  0  0  0
    7.5847  -12.8758   20.5851 C   0  0  0  0  0  0  0  0  0  0  0  0
    8.4498  -14.0365   20.9536 C   0  0  1  0  0  0  0  0  0  0  0  0
    8.3544  -14.3176   22.4133 C   0  0  0  0  0  0  0  0  0  0  0  0
    8.6965  -13.4804   23.2857 O   0  0  0  0  0  0  0  0  0  0  0  0
    5.6612  -19.6096   24.6610 N   0  0  0  0  0  0  0  0  0  0  0  0
    7.0014  -19.6447   24.1982 C   0  0  0  0  0  0  0  0  0  0  0  0
    7.5911  -20.7138   23.9240 O   0  0  0  0  0  0  0  0  0  0  0  0
    7.7464  -18.3823   24.0266 C   0  0  0  0  0  0  0  0  0  0  0  0
    6.9447  -17.1848   24.4949 C   0  0  0  0  0  0  0  0  0  0  0  0
    7.7276  -15.9153   24.2690 C   0  0  2  0  0  0  0  0  0  0  0  0
    7.8632  -15.5682   22.8907 N   0  0  0  0  0  0  0  0  0  0  0  0
    9.0583  -16.0203   24.9453 C   0  0  0  0  0  0  0  0  0  0  0  0
   10.1210  -15.7094   24.3612 O   0  0  0  0  0  0  0  0  0  0  0  0
   10.0281  -13.7776   28.7541 C   0  0  0  0  0  0  0  0  0  0  0  0
    9.4524  -14.3945   27.4995 C   0  0  1  0  0  0  0  0  0  0  0  0
    9.6838  -13.5856   26.3899 O   0  0  0  0  0  0  0  0  0  0  0  0
   10.0058  -15.7895   27.2683 C   0  0  2  0  0  0  0  0  0  0  0  0
    9.1861  -16.4801   26.2914 N   0  0  0  0  0  0  0  0  0  0  0  0
   10.0268  -16.5896   28.5254 C   0  0  0  0  0  0  0  0  0  0  0  0
    9.2966  -17.7639   28.6509 O   0  0  0  0  0  0  0  0  0  0  0  0
   10.7073  -16.2309   29.5212 O   0  0  0  0  0  0  0  0  0  0  0  0
  1  2  1  0
  1  5  1  0
  2  3  1  0
  3  4  1  0
  5  6  1  1
  5  4  1  0
  6  7  2  0
  8  9  1  0
  9 11  1  0
 10  9  2  0
 11 12  1  0
 13 12  1  6
 14 13  1  0
 14  6  1  0
 15 21  1  0
 15 13  1  0
 16 15  2  0
 18 17  1  1
 18 19  1  0
 20 18  1  0
 20 21  1  6
 22 20  1  0
 22 23  1  0
 24 22  2  0
M  END
$$$$
