PQT.pdb
     RDKit          3D

 24 24  0  0  1  0  0  0  0  0999 V2000
    6.2796  -18.9157   18.3188 N   0  0  0  0  0  0  0  0  0  0  0  0
    5.3498  -19.3704   17.3091 C   0  0  0  0  0  0  0  0  0  0  0  0
    5.7893  -18.6746   16.0324 C   0  0  0  0  0  0  0  0  0  0  0  0
    7.1757  -18.1699   16.2783 C   0  0  0  0  0  0  0  0  0  0  0  0
    7.5133  -18.6028   17.6675 C   0  0  1  0  0  0  0  0  0  0  0  0
    8.2527  -17.5275   18.3856 C   0  0  0  0  0  0  0  0  0  0  0  0
    9.5059  -17.4373   18.3604 O   0  0  0  0  0  0  0  0  0  0  0  0
    9.2792  -12.7374   18.3897 N   0  0  0  0  0  0  0  0  0  0  0  0
    9.2997  -12.5817   19.7993 C   0  0  0  0  0  0  0  0  0  0  0  0
   10.2301  -11.9976   20.3986 O   0  0  0  0  0  0  0  0  0  0  0  0
    8.1901  -13.1223   20.6084 C   0  0  0  0  0  0  0  0  0  0  0  0
    7.4203  -14.1958   19.8662 C   0  0  0  0  0  0  0  0  0  0  0  0
    8.1896  -15.4933   19.8846 C   0  0  2  0  0  0  0  0  0  0  0  0
    7.5596  -16.5388   19.1441 N   0  0  0  0  0  0  0  0  0  0  0  0
    8.4517  -15.9002   21.3006 C   0  0  0  0  0  0  0  0  0  0  0  0
    7.5421  -15.9178   22.1604 O   0  0  0  0  0  0  0  0  0  0  0  0
    9.7836  -19.1599   22.5071 C   0  0  0  0  0  0  0  0  0  0  0  0
   10.6942  -18.0907   23.0671 C   0  0  1  0  0  0  0  0  0  0  0  0
   11.8823  -18.0136   22.3449 O   0  0  0  0  0  0  0  0  0  0  0  0
   10.0011  -16.7401   23.1010 C   0  0  2  0  0  0  0  0  0  0  0  0
    9.7519  -16.2894   21.7452 N   0  0  0  0  0  0  0  0  0  0  0  0
   10.8254  -15.7149   23.8012 C   0  0  0  0  0  0  0  0  0  0  0  0
   10.9413  -15.6975   25.1847 O   0  0  0  0  0  0  0  0  0  0  0  0
   11.4478  -14.8256   23.1646 O   0  0  0  0  0  0  0  0  0  0  0  0
  1  2  1  0
  1  5  1  0
  2  3  1  0
  3  4  1  0
  5  6  1  1
  5  4  1  0
  6  7  2  0
  8  9  1  0
  9 11  1  0
 10  9  2  0
 11 12  1  0
 13 12  1  1
 14 13  1  0
 14  6  1  0
 15 21  1  0
 15 13  1  0
 16 15  2  0
 18 17  1  6
 18 19  1  0
 20 18  1  0
 20 21  1  6
 22 20  1  0
 22 23  1  0
 24 22  2  0
M  END
$$$$
