PQT.pdb
     RDKit          3D

 24 24  0  0  1  0  0  0  0  0999 V2000
    7.5203  -14.7574   19.0671 N   0  0  0  0  0  0  0  0  0  0  0  0
    7.2525  -13.7239   18.0918 C   0  0  0  0  0  0  0  0  0  0  0  0
    7.4316  -12.4185   18.8477 C   0  0  0  0  0  0  0  0  0  0  0  0
    8.1745  -12.7517   20.1025 C   0  0  0  0  0  0  0  0  0  0  0  0
    8.4284  -14.2221   20.0329 C   0  0  1  0  0  0  0  0  0  0  0  0
    8.2368  -14.8501   21.3698 C   0  0  0  0  0  0  0  0  0  0  0  0
    7.0989  -15.0693   21.8559 O   0  0  0  0  0  0  0  0  0  0  0  0
    8.8622  -19.5873   22.5689 N   0  0  0  0  0  0  0  0  0  0  0  0
    9.9375  -19.0280   23.3055 C   0  0  0  0  0  0  0  0  0  0  0  0
   10.3869  -19.5565   24.3470 O   0  0  0  0  0  0  0  0  0  0  0  0
   10.5642  -17.7747   22.8422 C   0  0  0  0  0  0  0  0  0  0  0  0
   10.4203  -16.6611   23.8595 C   0  0  0  0  0  0  0  0  0  0  0  0
    9.2629  -15.7667   23.4902 C   0  0  2  0  0  0  0  0  0  0  0  0
    9.3537  -15.2356   22.1680 N   0  0  0  0  0  0  0  0  0  0  0  0
    9.1215  -14.6828   24.5121 C   0  0  0  0  0  0  0  0  0  0  0  0
    9.0658  -13.4748   24.1883 O   0  0  0  0  0  0  0  0  0  0  0  0
    7.1601  -12.8246   25.2732 C   0  0  0  0  0  0  0  0  0  0  0  0
    7.2866  -13.4638   26.6376 C   0  0  1  0  0  0  0  0  0  0  0  0
    6.3743  -14.5044   26.7916 O   0  0  0  0  0  0  0  0  0  0  0  0
    8.7022  -13.9532   26.8868 C   0  0  2  0  0  0  0  0  0  0  0  0
    9.0428  -14.9688   25.9091 N   0  0  0  0  0  0  0  0  0  0  0  0
    8.8526  -14.5339   28.2510 C   0  0  0  0  0  0  0  0  0  0  0  0
    9.0222  -15.8983   28.4446 O   0  0  0  0  0  0  0  0  0  0  0  0
    8.8316  -13.8093   29.2795 O   0  0  0  0  0  0  0  0  0  0  0  0
  1  2  1  0
  1  5  1  0
  2  3  1  0
  3  4  1  0
  5  6  1  1
  5  4  1  0
  6  7  2  0
  8  9  1  0
  9 11  1  0
 10  9  2  0
 11 12  1  0
 13 12  1  1
 14 13  1  0
 14  6  1  0
 15 21  1  0
 15 13  1  0
 16 15  2  0
 18 17  1  6
 18 19  1  0
 20 18  1  0
 20 21  1  6
 22 20  1  0
 22 23  1  0
 24 22  2  0
M  END
$$$$
