PQT.pdb
     RDKit          3D

 24 24  0  0  1  0  0  0  0  0999 V2000
    7.4236  -14.9942   20.1548 N   0  0  0  0  0  0  0  0  0  0  0  0
    6.8424  -14.4731   18.9376 C   0  0  0  0  0  0  0  0  0  0  0  0
    7.4643  -13.0978   18.7660 C   0  0  0  0  0  0  0  0  0  0  0  0
    8.6588  -13.0556   19.6655 C   0  0  0  0  0  0  0  0  0  0  0  0
    8.7154  -14.4017   20.3107 C   0  0  1  0  0  0  0  0  0  0  0  0
    9.0900  -14.2781   21.7470 C   0  0  0  0  0  0  0  0  0  0  0  0
   10.2620  -14.0194   22.1192 O   0  0  0  0  0  0  0  0  0  0  0  0
    5.2233  -12.5142   26.4377 N   0  0  0  0  0  0  0  0  0  0  0  0
    6.4692  -12.7241   27.0823 C   0  0  0  0  0  0  0  0  0  0  0  0
    6.6842  -12.3706   28.2632 O   0  0  0  0  0  0  0  0  0  0  0  0
    7.5672  -13.3832   26.3487 C   0  0  0  0  0  0  0  0  0  0  0  0
    7.1789  -13.7054   24.9199 C   0  0  0  0  0  0  0  0  0  0  0  0
    8.3680  -14.2516   24.1693 C   0  0  2  0  0  0  0  0  0  0  0  0
    8.1196  -14.4508   22.7775 N   0  0  0  0  0  0  0  0  0  0  0  0
    8.8443  -15.5067   24.8302 C   0  0  0  0  0  0  0  0  0  0  0  0
    8.8994  -15.6155   26.0761 O   0  0  0  0  0  0  0  0  0  0  0  0
    8.3175  -19.3619   23.2873 C   0  0  0  0  0  0  0  0  0  0  0  0
    9.7257  -18.9950   23.6974 C   0  0  1  0  0  0  0  0  0  0  0  0
   10.5011  -18.6620   22.5897 O   0  0  0  0  0  0  0  0  0  0  0  0
    9.7269  -17.8634   24.7099 C   0  0  2  0  0  0  0  0  0  0  0  0
    9.2606  -16.6454   24.0755 N   0  0  0  0  0  0  0  0  0  0  0  0
   11.0885  -17.6218   25.2651 C   0  0  0  0  0  0  0  0  0  0  0  0
   11.8384  -16.5141   24.8930 O   0  0  0  0  0  0  0  0  0  0  0  0
   11.6105  -18.4131   26.0927 O   0  0  0  0  0  0  0  0  0  0  0  0
  1  2  1  0
  1  5  1  0
  2  3  1  0
  3  4  1  0
  5  6  1  1
  5  4  1  0
  6  7  2  0
  8  9  1  0
  9 11  1  0
 10  9  2  0
 11 12  1  0
 13 12  1  1
 14 13  1  0
 14  6  1  0
 15 21  1  0
 15 13  1  0
 16 15  2  0
 18 17  1  6
 18 19  1  0
 20 18  1  0
 20 21  1  6
 22 20  1  0
 22 23  1  0
 24 22  2  0
M  END
$$$$
