FKA.pdb
     RDKit          3D

 26 26  0  0  1  0  0  0  0  0999 V2000
    6.0393  -17.7362   25.9353 N   0  0  0  0  0  0  0  0  0  0  0  0
    6.4663  -16.4300   25.5502 C   0  0  1  0  0  0  0  0  0  0  0  0
    7.1913  -15.7823   26.6892 C   0  0  0  0  0  0  0  0  0  0  0  0
    6.9411  -14.3299   26.6878 C   0  0  0  0  0  0  0  0  0  0  0  0
    5.6724  -13.8332   26.6295 C   0  0  0  0  0  0  0  0  0  0  0  0
    5.4370  -12.4539   26.6282 C   0  0  0  0  0  0  0  0  0  0  0  0
    6.5277  -11.6070   26.6876 C   0  0  0  0  0  0  0  0  0  0  0  0
    7.8112  -12.1119   26.7464 C   0  0  0  0  0  0  0  0  0  0  0  0
    8.0030  -13.4700   26.7458 C   0  0  0  0  0  0  0  0  0  0  0  0
    7.3863  -16.4439   24.3785 C   0  0  0  0  0  0  0  0  0  0  0  0
    8.1950  -17.3849   24.2635 O   0  0  0  0  0  0  0  0  0  0  0  0
    7.3887  -15.4417   23.3882 N   0  0  0  0  0  0  0  0  0  0  0  0
    8.1718  -15.5821   22.2067 C   0  0  1  0  0  0  0  0  0  0  0  0
    7.9207  -14.3825   21.3262 C   0  0  0  0  0  0  0  0  0  0  0  0
    8.5836  -14.5455   19.9945 C   0  0  0  0  0  0  0  0  0  0  0  0
    8.2994  -13.4308   19.0211 C   0  0  0  0  0  0  0  0  0  0  0  0
    8.9643  -13.7388   17.6817 C   0  0  0  0  0  0  0  0  0  0  0  0
    8.7241  -12.6589   16.7519 N   0  0  0  0  0  0  0  0  0  0  0  0
    9.6301  -15.6589   22.4838 C   0  0  0  0  0  0  0  0  0  0  0  0
   10.2240  -14.7617   23.1179 O   0  0  0  0  0  0  0  0  0  0  0  0
   12.2198  -18.3039   22.2727 C   0  0  0  0  0  0  0  0  0  0  0  0
   11.7958  -16.8410   22.2895 C   0  0  2  0  0  0  0  0  0  0  0  0
   10.3938  -16.7582   22.0342 N   0  0  0  0  0  0  0  0  0  0  0  0
   12.6299  -16.0752   21.3697 C   0  0  0  0  0  0  0  0  0  0  0  0
   12.2793  -15.8717   20.0485 O   0  0  0  0  0  0  0  0  0  0  0  0
   13.7047  -15.5784   21.7773 O   0  0  0  0  0  0  0  0  0  0  0  0
  2 10  1  0
  2  1  1  1
  3  2  1  0
  4  9  2  0
  4  3  1  0
  5  4  1  0
  6  7  1  0
  6  5  2  0
  7  8  2  0
  8  9  1  0
 10 11  2  0
 12 13  1  0
 12 10  1  0
 13 14  1  6
 14 15  1  0
 16 15  1  0
 17 16  1  0
 18 17  1  0
 19 13  1  0
 20 19  2  0
 22 21  1  6
 22 23  1  0
 23 19  1  0
 24 22  1  0
 24 25  1  0
 26 24  2  0
M  END
$$$$
