FKA.pdb
     RDKit          3D

 26 26  0  0  1  0  0  0  0  0999 V2000
    6.2631  -17.0131   25.5172 N   0  0  0  0  0  0  0  0  0  0  0  0
    6.7390  -15.7688   25.0055 C   0  0  1  0  0  0  0  0  0  0  0  0
    7.7278  -15.1772   25.9620 C   0  0  0  0  0  0  0  0  0  0  0  0
    7.2266  -13.8902   26.4763 C   0  0  0  0  0  0  0  0  0  0  0  0
    6.1039  -13.3138   25.9597 C   0  0  0  0  0  0  0  0  0  0  0  0
    5.6298  -12.0917   26.4494 C   0  0  0  0  0  0  0  0  0  0  0  0
    6.3320  -11.4837   27.4731 C   0  0  0  0  0  0  0  0  0  0  0  0
    7.4683  -12.0691   27.9945 C   0  0  0  0  0  0  0  0  0  0  0  0
    7.9029  -13.2676   27.4890 C   0  0  0  0  0  0  0  0  0  0  0  0
    7.4148  -15.9066   23.6849 C   0  0  0  0  0  0  0  0  0  0  0  0
    7.9056  -17.0095   23.3759 O   0  0  0  0  0  0  0  0  0  0  0  0
    7.5280  -14.8477   22.7624 N   0  0  0  0  0  0  0  0  0  0  0  0
    8.1646  -15.0393   21.5027 C   0  0  1  0  0  0  0  0  0  0  0  0
    8.1388  -13.7290   20.7545 C   0  0  0  0  0  0  0  0  0  0  0  0
    8.7609  -13.8712   19.4008 C   0  0  0  0  0  0  0  0  0  0  0  0
    7.8140  -13.6223   18.2553 C   0  0  0  0  0  0  0  0  0  0  0  0
    8.5173  -13.9255   16.9345 C   0  0  0  0  0  0  0  0  0  0  0  0
    8.1260  -15.2316   16.4558 N   0  0  0  0  0  0  0  0  0  0  0  0
    9.5799  -15.4753   21.6291 C   0  0  0  0  0  0  0  0  0  0  0  0
   10.3927  -14.8592   22.3501 O   0  0  0  0  0  0  0  0  0  0  0  0
   11.4634  -18.5229   21.2830 C   0  0  0  0  0  0  0  0  0  0  0  0
   11.4146  -17.0226   21.0246 C   0  0  2  0  0  0  0  0  0  0  0  0
   10.0515  -16.6088   20.9316 N   0  0  0  0  0  0  0  0  0  0  0  0
   12.2324  -16.6955   19.8618 C   0  0  0  0  0  0  0  0  0  0  0  0
   11.6891  -16.2003   18.6914 O   0  0  0  0  0  0  0  0  0  0  0  0
   13.4723  -16.8640   19.9106 O   0  0  0  0  0  0  0  0  0  0  0  0
  2 10  1  0
  2  1  1  1
  3  2  1  0
  4  9  2  0
  4  3  1  0
  5  4  1  0
  6  7  1  0
  6  5  2  0
  7  8  2  0
  8  9  1  0
 10 11  2  0
 12 13  1  0
 12 10  1  0
 13 14  1  1
 14 15  1  0
 16 15  1  0
 17 16  1  0
 18 17  1  0
 19 13  1  0
 20 19  2  0
 22 21  1  6
 22 23  1  0
 23 19  1  0
 24 22  1  0
 24 25  1  0
 26 24  2  0
M  END
$$$$
