FKA.pdb
     RDKit          3D

 26 26  0  0  1  0  0  0  0  0999 V2000
    5.7789  -17.8948   25.4631 N   0  0  0  0  0  0  0  0  0  0  0  0
    6.2370  -16.5578   25.2652 C   0  0  1  0  0  0  0  0  0  0  0  0
    6.8987  -16.0633   26.5144 C   0  0  0  0  0  0  0  0  0  0  0  0
    6.8981  -14.5898   26.5379 C   0  0  0  0  0  0  0  0  0  0  0  0
    8.0148  -13.8790   26.2098 C   0  0  0  0  0  0  0  0  0  0  0  0
    8.0121  -12.4799   26.2329 C   0  0  0  0  0  0  0  0  0  0  0  0
    6.8444  -11.8367   26.5982 C   0  0  0  0  0  0  0  0  0  0  0  0
    5.7152  -12.5583   26.9299 C   0  0  0  0  0  0  0  0  0  0  0  0
    5.7556  -13.9288   26.8958 C   0  0  0  0  0  0  0  0  0  0  0  0
    7.2240  -16.4425   24.1552 C   0  0  0  0  0  0  0  0  0  0  0  0
    8.0810  -17.3371   24.0209 O   0  0  0  0  0  0  0  0  0  0  0  0
    7.2381  -15.3676   23.2444 N   0  0  0  0  0  0  0  0  0  0  0  0
    8.1006  -15.3800   22.1109 C   0  0  1  0  0  0  0  0  0  0  0  0
    7.7404  -14.2100   21.2285 C   0  0  0  0  0  0  0  0  0  0  0  0
    8.0579  -14.5004   19.7952 C   0  0  0  0  0  0  0  0  0  0  0  0
    7.9897  -13.2976   18.8901 C   0  0  0  0  0  0  0  0  0  0  0  0
    8.3216  -13.7140   17.4592 C   0  0  0  0  0  0  0  0  0  0  0  0
    7.6126  -12.8717   16.5233 N   0  0  0  0  0  0  0  0  0  0  0  0
    9.5371  -15.2638   22.4745 C   0  0  0  0  0  0  0  0  0  0  0  0
   10.2424  -14.3193   22.0618 O   0  0  0  0  0  0  0  0  0  0  0  0
   11.7662  -16.6947   25.0239 C   0  0  0  0  0  0  0  0  0  0  0  0
   11.5433  -16.1560   23.6167 C   0  0  2  0  0  0  0  0  0  0  0  0
   10.1521  -16.2263   23.3046 N   0  0  0  0  0  0  0  0  0  0  0  0
   12.4155  -16.8530   22.6779 C   0  0  0  0  0  0  0  0  0  0  0  0
   11.9232  -17.5657   21.6009 O   0  0  0  0  0  0  0  0  0  0  0  0
   13.6565  -16.8133   22.8404 O   0  0  0  0  0  0  0  0  0  0  0  0
  2 10  1  0
  2  1  1  1
  3  2  1  0
  4  9  2  0
  4  3  1  0
  5  4  1  0
  6  7  1  0
  6  5  2  0
  7  8  2  0
  8  9  1  0
 10 11  2  0
 12 13  1  0
 12 10  1  0
 13 14  1  6
 14 15  1  0
 16 15  1  0
 17 16  1  0
 18 17  1  0
 19 13  1  0
 20 19  2  0
 22 21  1  1
 22 23  1  0
 23 19  1  0
 24 22  1  0
 24 25  1  0
 26 24  2  0
M  END
$$$$
