FKA.pdb
     RDKit          3D

 26 26  0  0  1  0  0  0  0  0999 V2000
    6.2809  -17.4036   26.0008 N   0  0  0  0  0  0  0  0  0  0  0  0
    6.7042  -16.1548   25.4549 C   0  0  1  0  0  0  0  0  0  0  0  0
    7.6048  -15.4600   26.4289 C   0  0  0  0  0  0  0  0  0  0  0  0
    7.1030  -14.1014   26.7017 C   0  0  0  0  0  0  0  0  0  0  0  0
    7.8119  -13.2300   27.4749 C   0  0  0  0  0  0  0  0  0  0  0  0
    7.3336  -11.9406   27.7327 C   0  0  0  0  0  0  0  0  0  0  0  0
    6.1204  -11.5735   27.1812 C   0  0  0  0  0  0  0  0  0  0  0  0
    5.4044  -12.4573   26.3988 C   0  0  0  0  0  0  0  0  0  0  0  0
    5.9052  -13.7131   26.1679 C   0  0  0  0  0  0  0  0  0  0  0  0
    7.4532  -16.3064   24.1760 C   0  0  0  0  0  0  0  0  0  0  0  0
    8.0906  -17.3584   23.9766 O   0  0  0  0  0  0  0  0  0  0  0  0
    7.4779  -15.3154   23.1747 N   0  0  0  0  0  0  0  0  0  0  0  0
    8.1503  -15.5398   21.9392 C   0  0  1  0  0  0  0  0  0  0  0  0
    7.9169  -14.3442   21.0486 C   0  0  0  0  0  0  0  0  0  0  0  0
    8.4880  -14.5712   19.6841 C   0  0  0  0  0  0  0  0  0  0  0  0
    8.1737  -13.4810   18.6924 C   0  0  0  0  0  0  0  0  0  0  0  0
    8.7047  -13.8728   17.3155 C   0  0  0  0  0  0  0  0  0  0  0  0
    8.4736  -12.8008   16.3744 N   0  0  0  0  0  0  0  0  0  0  0  0
    9.6168  -15.7196   22.1020 C   0  0  0  0  0  0  0  0  0  0  0  0
   10.3123  -14.8919   22.7273 O   0  0  0  0  0  0  0  0  0  0  0  0
   12.0351  -18.4576   21.3006 C   0  0  0  0  0  0  0  0  0  0  0  0
   11.6763  -17.0377   21.7194 C   0  0  2  0  0  0  0  0  0  0  0  0
   10.2726  -16.8414   21.5496 N   0  0  0  0  0  0  0  0  0  0  0  0
   12.5169  -16.0848   21.0028 C   0  0  0  0  0  0  0  0  0  0  0  0
   12.1373  -15.5239   19.7981 O   0  0  0  0  0  0  0  0  0  0  0  0
   13.6246  -15.7536   21.4838 O   0  0  0  0  0  0  0  0  0  0  0  0
  2 10  1  0
  2  1  1  1
  3  2  1  0
  4  9  2  0
  4  3  1  0
  5  4  1  0
  6  7  1  0
  6  5  2  0
  7  8  2  0
  8  9  1  0
 10 11  2  0
 12 13  1  0
 12 10  1  0
 13 14  1  6
 14 15  1  0
 16 15  1  0
 17 16  1  0
 18 17  1  0
 19 13  1  0
 20 19  2  0
 22 21  1  6
 22 23  1  0
 23 19  1  0
 24 22  1  0
 24 25  1  0
 26 24  2  0
M  END
$$$$
