FKA.pdb
     RDKit          3D

 26 26  0  0  1  0  0  0  0  0999 V2000
    6.3258  -17.9003   25.6532 N   0  0  0  0  0  0  0  0  0  0  0  0
    6.6323  -16.5328   25.3834 C   0  0  1  0  0  0  0  0  0  0  0  0
    7.5117  -15.9915   26.4680 C   0  0  0  0  0  0  0  0  0  0  0  0
    7.3693  -14.5271   26.5512 C   0  0  0  0  0  0  0  0  0  0  0  0
    6.1417  -13.9431   26.6585 C   0  0  0  0  0  0  0  0  0  0  0  0
    6.0087  -12.5524   26.7373 C   0  0  0  0  0  0  0  0  0  0  0  0
    7.1580  -11.7852   26.7034 C   0  0  0  0  0  0  0  0  0  0  0  0
    8.3997  -12.3785   26.5948 C   0  0  0  0  0  0  0  0  0  0  0  0
    8.4908  -13.7450   26.5198 C   0  0  0  0  0  0  0  0  0  0  0  0
    7.3440  -16.3439   24.0883 C   0  0  0  0  0  0  0  0  0  0  0  0
    7.9822  -17.3017   23.6107 O   0  0  0  0  0  0  0  0  0  0  0  0
    7.3324  -15.1308   23.3718 N   0  0  0  0  0  0  0  0  0  0  0  0
    7.6232  -15.1012   21.9778 C   0  0  1  0  0  0  0  0  0  0  0  0
    7.3422  -13.7103   21.4643 C   0  0  0  0  0  0  0  0  0  0  0  0
    7.2665  -13.6945   19.9699 C   0  0  0  0  0  0  0  0  0  0  0  0
    8.5824  -13.4262   19.2863 C   0  0  0  0  0  0  0  0  0  0  0  0
    8.3822  -13.4246   17.7727 C   0  0  0  0  0  0  0  0  0  0  0  0
    9.6192  -13.0763   17.1119 N   0  0  0  0  0  0  0  0  0  0  0  0
    9.0402  -15.4318   21.6743 C   0  0  0  0  0  0  0  0  0  0  0  0
    9.4357  -15.6036   20.5022 O   0  0  0  0  0  0  0  0  0  0  0  0
   12.0611  -14.6219   21.9346 C   0  0  0  0  0  0  0  0  0  0  0  0
   11.3540  -15.8756   22.4327 C   0  0  2  0  0  0  0  0  0  0  0  0
    9.9894  -15.5626   22.7115 N   0  0  0  0  0  0  0  0  0  0  0  0
   12.0913  -16.4448   23.5554 C   0  0  0  0  0  0  0  0  0  0  0  0
   13.4012  -16.8705   23.4400 O   0  0  0  0  0  0  0  0  0  0  0  0
   11.5310  -16.5581   24.6695 O   0  0  0  0  0  0  0  0  0  0  0  0
  2 10  1  0
  2  1  1  1
  3  2  1  0
  4  9  2  0
  4  3  1  0
  5  4  1  0
  6  7  1  0
  6  5  2  0
  7  8  2  0
  8  9  1  0
 10 11  2  0
 12 13  1  0
 12 10  1  0
 13 14  1  1
 14 15  1  0
 16 15  1  0
 17 16  1  0
 18 17  1  0
 19 13  1  0
 20 19  2  0
 22 21  1  1
 22 23  1  0
 23 19  1  0
 24 22  1  0
 24 25  1  0
 26 24  2  0
M  END
$$$$
