FKA.pdb
     RDKit          3D

 26 26  0  0  1  0  0  0  0  0999 V2000
    8.6449  -15.7295   26.0606 N   0  0  0  0  0  0  0  0  0  0  0  0
    7.4003  -16.2478   25.5925 C   0  0  1  0  0  0  0  0  0  0  0  0
    6.2721  -15.5494   26.2869 C   0  0  0  0  0  0  0  0  0  0  0  0
    6.5670  -14.1107   26.4102 C   0  0  0  0  0  0  0  0  0  0  0  0
    5.5693  -13.2001   26.5974 C   0  0  0  0  0  0  0  0  0  0  0  0
    5.8514  -11.8346   26.7142 C   0  0  0  0  0  0  0  0  0  0  0  0
    7.1717  -11.4331   26.6344 C   0  0  0  0  0  0  0  0  0  0  0  0
    8.1801  -12.3567   26.4448 C   0  0  0  0  0  0  0  0  0  0  0  0
    7.8652  -13.6870   26.3348 C   0  0  0  0  0  0  0  0  0  0  0  0
    7.2114  -16.0636   24.1262 C   0  0  0  0  0  0  0  0  0  0  0  0
    6.2526  -16.6329   23.5700 O   0  0  0  0  0  0  0  0  0  0  0  0
    8.0663  -15.2742   23.3318 N   0  0  0  0  0  0  0  0  0  0  0  0
    8.3339  -15.6215   21.9766 C   0  0  1  0  0  0  0  0  0  0  0  0
    8.1139  -14.3978   21.1213 C   0  0  0  0  0  0  0  0  0  0  0  0
    8.3160  -14.7119   19.6722 C   0  0  0  0  0  0  0  0  0  0  0  0
    8.2269  -13.5149   18.7612 C   0  0  0  0  0  0  0  0  0  0  0  0
    8.4277  -13.9570   17.3137 C   0  0  0  0  0  0  0  0  0  0  0  0
    8.4658  -12.8022   16.4459 N   0  0  0  0  0  0  0  0  0  0  0  0
    9.7272  -16.0937   21.7637 C   0  0  0  0  0  0  0  0  0  0  0  0
   10.0980  -16.5662   20.6686 O   0  0  0  0  0  0  0  0  0  0  0  0
   13.0355  -15.5361   22.8293 C   0  0  0  0  0  0  0  0  0  0  0  0
   11.9722  -16.6144   22.6659 C   0  0  2  0  0  0  0  0  0  0  0  0
   10.6809  -16.0213   22.8023 N   0  0  0  0  0  0  0  0  0  0  0  0
   12.2393  -17.7140   23.5866 C   0  0  0  0  0  0  0  0  0  0  0  0
   11.2889  -18.1827   24.4739 O   0  0  0  0  0  0  0  0  0  0  0  0
   13.3649  -18.2626   23.5847 O   0  0  0  0  0  0  0  0  0  0  0  0
  2 10  1  0
  2  1  1  1
  3  2  1  0
  4  9  2  0
  4  3  1  0
  5  4  1  0
  6  7  1  0
  6  5  2  0
  7  8  2  0
  8  9  1  0
 10 11  2  0
 12 13  1  0
 12 10  1  0
 13 14  1  6
 14 15  1  0
 16 15  1  0
 17 16  1  0
 18 17  1  0
 19 13  1  0
 20 19  2  0
 22 21  1  1
 22 23  1  0
 23 19  1  0
 24 22  1  0
 24 25  1  0
 26 24  2  0
M  END
$$$$
