FKA.pdb
     RDKit          3D

 26 26  0  0  1  0  0  0  0  0999 V2000
    5.9092  -17.9346   25.7001 N   0  0  0  0  0  0  0  0  0  0  0  0
    6.3042  -16.5913   25.4242 C   0  0  1  0  0  0  0  0  0  0  0  0
    6.9762  -16.0077   26.6286 C   0  0  0  0  0  0  0  0  0  0  0  0
    6.9061  -14.5363   26.5838 C   0  0  0  0  0  0  0  0  0  0  0  0
    5.7071  -13.8890   26.5287 C   0  0  0  0  0  0  0  0  0  0  0  0
    5.6428  -12.4918   26.4862 C   0  0  0  0  0  0  0  0  0  0  0  0
    6.8302  -11.7844   26.5016 C   0  0  0  0  0  0  0  0  0  0  0  0
    8.0429  -12.4417   26.5574 C   0  0  0  0  0  0  0  0  0  0  0  0
    8.0665  -13.8125   26.5980 C   0  0  0  0  0  0  0  0  0  0  0  0
    7.2562  -16.4908   24.2827 C   0  0  0  0  0  0  0  0  0  0  0  0
    8.1581  -17.3443   24.1785 O   0  0  0  0  0  0  0  0  0  0  0  0
    7.1886  -15.4743   23.3094 N   0  0  0  0  0  0  0  0  0  0  0  0
    8.0699  -15.4726   22.1904 C   0  0  1  0  0  0  0  0  0  0  0  0
    7.6690  -14.3434   21.2730 C   0  0  0  0  0  0  0  0  0  0  0  0
    8.4371  -14.3954   19.9898 C   0  0  0  0  0  0  0  0  0  0  0  0
    8.0402  -13.3423   18.9877 C   0  0  0  0  0  0  0  0  0  0  0  0
    8.8107  -13.5567   17.6871 C   0  0  0  0  0  0  0  0  0  0  0  0
    8.5270  -12.4827   16.7629 N   0  0  0  0  0  0  0  0  0  0  0  0
    9.4927  -15.2780   22.5738 C   0  0  0  0  0  0  0  0  0  0  0  0
    9.8125  -14.6580   23.6097 O   0  0  0  0  0  0  0  0  0  0  0  0
   11.9102  -16.5974   23.5708 C   0  0  0  0  0  0  0  0  0  0  0  0
   11.8791  -15.8466   22.2459 C   0  0  2  0  0  0  0  0  0  0  0  0
   10.5340  -15.7929   21.7710 N   0  0  0  0  0  0  0  0  0  0  0  0
   12.8309  -16.4459   21.3169 C   0  0  0  0  0  0  0  0  0  0  0  0
   12.4333  -17.0564   20.1424 O   0  0  0  0  0  0  0  0  0  0  0  0
   14.0549  -16.4140   21.5793 O   0  0  0  0  0  0  0  0  0  0  0  0
  2 10  1  0
  2  1  1  1
  3  2  1  0
  4  9  2  0
  4  3  1  0
  5  4  1  0
  6  7  1  0
  6  5  2  0
  7  8  2  0
  8  9  1  0
 10 11  2  0
 12 13  1  0
 12 10  1  0
 13 14  1  6
 14 15  1  0
 16 15  1  0
 17 16  1  0
 18 17  1  0
 19 13  1  0
 20 19  2  0
 22 21  1  1
 22 23  1  0
 23 19  1  0
 24 22  1  0
 24 25  1  0
 26 24  2  0
M  END
$$$$
