FKA.pdb
     RDKit          3D

 26 26  0  0  1  0  0  0  0  0999 V2000
    6.2725  -17.9979   26.0231 N   0  0  0  0  0  0  0  0  0  0  0  0
    6.6102  -16.6657   25.6383 C   0  0  1  0  0  0  0  0  0  0  0  0
    7.4705  -16.0409   26.6929 C   0  0  0  0  0  0  0  0  0  0  0  0
    7.2891  -14.5784   26.6929 C   0  0  0  0  0  0  0  0  0  0  0  0
    6.0476  -14.0220   26.7879 C   0  0  0  0  0  0  0  0  0  0  0  0
    5.8775  -12.6332   26.7876 C   0  0  0  0  0  0  0  0  0  0  0  0
    7.0045  -11.8390   26.6882 C   0  0  0  0  0  0  0  0  0  0  0  0
    8.2602  -12.4043   26.5921 C   0  0  0  0  0  0  0  0  0  0  0  0
    8.3878  -13.7698   26.5956 C   0  0  0  0  0  0  0  0  0  0  0  0
    7.3587  -16.6072   24.3515 C   0  0  0  0  0  0  0  0  0  0  0  0
    8.1159  -17.5516   24.0559 O   0  0  0  0  0  0  0  0  0  0  0  0
    7.2536  -15.5324   23.4466 N   0  0  0  0  0  0  0  0  0  0  0  0
    7.6680  -15.6736   22.0911 C   0  0  1  0  0  0  0  0  0  0  0  0
    7.3386  -14.3958   21.3591 C   0  0  0  0  0  0  0  0  0  0  0  0
    7.5330  -14.5563   19.8841 C   0  0  0  0  0  0  0  0  0  0  0  0
    7.8989  -13.2831   19.1658 C   0  0  0  0  0  0  0  0  0  0  0  0
    8.0313  -13.5589   17.6700 C   0  0  0  0  0  0  0  0  0  0  0  0
    8.4545  -12.3602   16.9829 N   0  0  0  0  0  0  0  0  0  0  0  0
    9.1265  -15.9255   21.9544 C   0  0  0  0  0  0  0  0  0  0  0  0
    9.6312  -16.2744   20.8666 O   0  0  0  0  0  0  0  0  0  0  0  0
   12.1662  -14.8885   22.5458 C   0  0  0  0  0  0  0  0  0  0  0  0
   11.3749  -16.1187   22.9706 C   0  0  2  0  0  0  0  0  0  0  0  0
    9.9919  -15.7765   23.0601 N   0  0  0  0  0  0  0  0  0  0  0  0
   11.9463  -16.6751   24.1921 C   0  0  0  0  0  0  0  0  0  0  0  0
   11.1862  -16.9153   25.3212 O   0  0  0  0  0  0  0  0  0  0  0  0
   13.1672  -16.9499   24.2344 O   0  0  0  0  0  0  0  0  0  0  0  0
  2 10  1  0
  2  1  1  1
  3  2  1  0
  4  9  2  0
  4  3  1  0
  5  4  1  0
  6  7  1  0
  6  5  2  0
  7  8  2  0
  8  9  1  0
 10 11  2  0
 12 13  1  0
 12 10  1  0
 13 14  1  6
 14 15  1  0
 16 15  1  0
 17 16  1  0
 18 17  1  0
 19 13  1  0
 20 19  2  0
 22 21  1  1
 22 23  1  0
 23 19  1  0
 24 22  1  0
 24 25  1  0
 26 24  2  0
M  END
$$$$
