FKA.pdb
     RDKit          3D

 26 26  0  0  1  0  0  0  0  0999 V2000
    5.8290  -17.9151   25.8425 N   0  0  0  0  0  0  0  0  0  0  0  0
    6.3112  -16.5908   25.6180 C   0  0  1  0  0  0  0  0  0  0  0  0
    6.9950  -16.0890   26.8523 C   0  0  0  0  0  0  0  0  0  0  0  0
    7.0421  -14.6160   26.8413 C   0  0  0  0  0  0  0  0  0  0  0  0
    5.8984  -13.8739   26.8691 C   0  0  0  0  0  0  0  0  0  0  0  0
    5.9454  -12.4754   26.8585 C   0  0  0  0  0  0  0  0  0  0  0  0
    7.1853  -11.8657   26.8189 C   0  0  0  0  0  0  0  0  0  0  0  0
    8.3418  -12.6190   26.7908 C   0  0  0  0  0  0  0  0  0  0  0  0
    8.2563  -13.9878   26.8023 C   0  0  0  0  0  0  0  0  0  0  0  0
    7.2891  -16.5132   24.4967 C   0  0  0  0  0  0  0  0  0  0  0  0
    8.1679  -17.3920   24.4070 O   0  0  0  0  0  0  0  0  0  0  0  0
    7.2708  -15.4913   23.5270 N   0  0  0  0  0  0  0  0  0  0  0  0
    8.1610  -15.5210   22.4154 C   0  0  1  0  0  0  0  0  0  0  0  0
    7.8589  -14.3336   21.5344 C   0  0  0  0  0  0  0  0  0  0  0  0
    8.4084  -14.5334   20.1568 C   0  0  0  0  0  0  0  0  0  0  0  0
    8.0658  -13.4312   19.1880 C   0  0  0  0  0  0  0  0  0  0  0  0
    8.6757  -13.7414   17.8231 C   0  0  0  0  0  0  0  0  0  0  0  0
    8.2842  -12.7312   16.8668 N   0  0  0  0  0  0  0  0  0  0  0  0
    9.5907  -15.4516   22.8160 C   0  0  0  0  0  0  0  0  0  0  0  0
   10.0385  -14.4935   23.4804 O   0  0  0  0  0  0  0  0  0  0  0  0
   12.4510  -17.7917   22.9166 C   0  0  0  0  0  0  0  0  0  0  0  0
   11.8818  -16.3864   22.7702 C   0  0  2  0  0  0  0  0  0  0  0  0
   10.4927  -16.4758   22.4539 N   0  0  0  0  0  0  0  0  0  0  0  0
   12.6787  -15.6290   21.8113 C   0  0  0  0  0  0  0  0  0  0  0  0
   13.9224  -15.1150   22.1260 O   0  0  0  0  0  0  0  0  0  0  0  0
   12.2332  -15.4292   20.6582 O   0  0  0  0  0  0  0  0  0  0  0  0
  2 10  1  0
  2  1  1  1
  3  2  1  0
  4  9  2  0
  4  3  1  0
  5  4  1  0
  6  7  1  0
  6  5  2  0
  7  8  2  0
  8  9  1  0
 10 11  2  0
 12 13  1  0
 12 10  1  0
 13 14  1  6
 14 15  1  0
 16 15  1  0
 17 16  1  0
 18 17  1  0
 19 13  1  0
 20 19  2  0
 22 21  1  6
 22 23  1  0
 23 19  1  0
 24 22  1  0
 24 25  1  0
 26 24  2  0
M  END
$$$$
