FKA.pdb
     RDKit          3D

 26 26  0  0  1  0  0  0  0  0999 V2000
    7.1233  -17.5119   26.1010 N   0  0  0  0  0  0  0  0  0  0  0  0
    6.4964  -16.9030   24.9727 C   0  0  1  0  0  0  0  0  0  0  0  0
    5.9558  -15.5616   25.3613 C   0  0  0  0  0  0  0  0  0  0  0  0
    7.0027  -14.7684   26.0295 C   0  0  0  0  0  0  0  0  0  0  0  0
    6.9004  -13.4127   26.1352 C   0  0  0  0  0  0  0  0  0  0  0  0
    7.8956  -12.6614   26.7701 C   0  0  0  0  0  0  0  0  0  0  0  0
    8.9874  -13.3323   27.2882 C   0  0  0  0  0  0  0  0  0  0  0  0
    9.0889  -14.7048   27.1800 C   0  0  0  0  0  0  0  0  0  0  0  0
    8.0935  -15.4079   26.5508 C   0  0  0  0  0  0  0  0  0  0  0  0
    7.4316  -16.6996   23.8309 C   0  0  0  0  0  0  0  0  0  0  0  0
    8.0215  -17.6895   23.3566 O   0  0  0  0  0  0  0  0  0  0  0  0
    7.6847  -15.4381   23.2567 N   0  0  0  0  0  0  0  0  0  0  0  0
    8.5264  -15.3092   22.1149 C   0  0  1  0  0  0  0  0  0  0  0  0
    8.3639  -13.9148   21.5613 C   0  0  0  0  0  0  0  0  0  0  0  0
    7.5194  -13.9224   20.3258 C   0  0  0  0  0  0  0  0  0  0  0  0
    8.2873  -13.6918   19.0499 C   0  0  0  0  0  0  0  0  0  0  0  0
    7.3412  -13.7997   17.8564 C   0  0  0  0  0  0  0  0  0  0  0  0
    8.0782  -13.6261   16.6256 N   0  0  0  0  0  0  0  0  0  0  0  0
    9.9640  -15.5210   22.4279 C   0  0  0  0  0  0  0  0  0  0  0  0
   10.8439  -14.7286   22.0307 O   0  0  0  0  0  0  0  0  0  0  0  0
   12.2149  -15.5563   24.3104 C   0  0  0  0  0  0  0  0  0  0  0  0
   11.7462  -16.8026   23.5709 C   0  0  2  0  0  0  0  0  0  0  0  0
   10.3808  -16.6340   23.1902 N   0  0  0  0  0  0  0  0  0  0  0  0
   12.0123  -17.9862   24.3811 C   0  0  0  0  0  0  0  0  0  0  0  0
   11.5637  -18.1073   25.6827 O   0  0  0  0  0  0  0  0  0  0  0  0
   12.6692  -18.9344   23.8937 O   0  0  0  0  0  0  0  0  0  0  0  0
  2 10  1  0
  2  1  1  1
  3  2  1  0
  4  9  2  0
  4  3  1  0
  5  4  1  0
  6  7  1  0
  6  5  2  0
  7  8  2  0
  8  9  1  0
 10 11  2  0
 12 13  1  0
 12 10  1  0
 13 14  1  1
 14 15  1  0
 16 15  1  0
 17 16  1  0
 18 17  1  0
 19 13  1  0
 20 19  2  0
 22 21  1  1
 22 23  1  0
 23 19  1  0
 24 22  1  0
 24 25  1  0
 26 24  2  0
M  END
$$$$
