FKA.pdb
     RDKit          3D

 26 26  0  0  1  0  0  0  0  0999 V2000
    6.2164  -17.4611   26.0215 N   0  0  0  0  0  0  0  0  0  0  0  0
    6.6916  -16.2037   25.5421 C   0  0  1  0  0  0  0  0  0  0  0  0
    7.5877  -15.5809   26.5677 C   0  0  0  0  0  0  0  0  0  0  0  0
    7.2100  -14.1725   26.7813 C   0  0  0  0  0  0  0  0  0  0  0  0
    5.9939  -13.7006   26.3835 C   0  0  0  0  0  0  0  0  0  0  0  0
    5.6373  -12.3630   26.5872 C   0  0  0  0  0  0  0  0  0  0  0  0
    6.5531  -11.5314   27.2038 C   0  0  0  0  0  0  0  0  0  0  0  0
    7.7836  -12.0112   27.6057 C   0  0  0  0  0  0  0  0  0  0  0  0
    8.0980  -13.3285   27.3893 C   0  0  0  0  0  0  0  0  0  0  0  0
    7.4682  -16.3229   24.2764 C   0  0  0  0  0  0  0  0  0  0  0  0
    8.1352  -17.3567   24.0784 O   0  0  0  0  0  0  0  0  0  0  0  0
    7.4873  -15.3209   23.2861 N   0  0  0  0  0  0  0  0  0  0  0  0
    8.2400  -15.4895   22.0886 C   0  0  1  0  0  0  0  0  0  0  0  0
    8.0224  -14.2768   21.2173 C   0  0  0  0  0  0  0  0  0  0  0  0
    8.6570  -14.4594   19.8743 C   0  0  0  0  0  0  0  0  0  0  0  0
    8.1620  -13.5027   18.8206 C   0  0  0  0  0  0  0  0  0  0  0  0
    8.7522  -13.8839   17.4650 C   0  0  0  0  0  0  0  0  0  0  0  0
    8.1169  -13.1177   16.4174 N   0  0  0  0  0  0  0  0  0  0  0  0
    9.6990  -15.6290   22.3361 C   0  0  0  0  0  0  0  0  0  0  0  0
   10.3453  -14.7543   22.9502 O   0  0  0  0  0  0  0  0  0  0  0  0
   12.1143  -18.1928   22.7824 C   0  0  0  0  0  0  0  0  0  0  0  0
   11.8143  -16.8844   22.0624 C   0  0  2  0  0  0  0  0  0  0  0  0
   10.4035  -16.7646   21.8802 N   0  0  0  0  0  0  0  0  0  0  0  0
   12.5972  -16.8066   20.8340 C   0  0  0  0  0  0  0  0  0  0  0  0
   12.0094  -16.7699   19.5837 O   0  0  0  0  0  0  0  0  0  0  0  0
   13.8473  -16.7712   20.8986 O   0  0  0  0  0  0  0  0  0  0  0  0
  2 10  1  0
  2  1  1  1
  3  2  1  0
  4  9  2  0
  4  3  1  0
  5  4  1  0
  6  7  1  0
  6  5  2  0
  7  8  2  0
  8  9  1  0
 10 11  2  0
 12 13  1  0
 12 10  1  0
 13 14  1  6
 14 15  1  0
 16 15  1  0
 17 16  1  0
 18 17  1  0
 19 13  1  0
 20 19  2  0
 22 21  1  6
 22 23  1  0
 23 19  1  0
 24 22  1  0
 24 25  1  0
 26 24  2  0
M  END
$$$$
