FKA.pdb
     RDKit          3D

 26 26  0  0  1  0  0  0  0  0999 V2000
    6.0454  -18.0432   25.6940 N   0  0  0  0  0  0  0  0  0  0  0  0
    6.4356  -16.6884   25.4725 C   0  0  1  0  0  0  0  0  0  0  0  0
    7.1271  -16.1591   26.6909 C   0  0  0  0  0  0  0  0  0  0  0  0
    7.0623  -14.6870   26.7100 C   0  0  0  0  0  0  0  0  0  0  0  0
    5.8670  -14.0348   26.7837 C   0  0  0  0  0  0  0  0  0  0  0  0
    5.8077  -12.6369   26.8016 C   0  0  0  0  0  0  0  0  0  0  0  0
    6.9962  -11.9338   26.7424 C   0  0  0  0  0  0  0  0  0  0  0  0
    8.2052  -12.5960   26.6677 C   0  0  0  0  0  0  0  0  0  0  0  0
    8.2239  -13.9673   26.6524 C   0  0  0  0  0  0  0  0  0  0  0  0
    7.3689  -16.5358   24.3214 C   0  0  0  0  0  0  0  0  0  0  0  0
    8.2394  -17.4081   24.1368 O   0  0  0  0  0  0  0  0  0  0  0  0
    7.3173  -15.4495   23.4257 N   0  0  0  0  0  0  0  0  0  0  0  0
    8.1402  -15.4193   22.2634 C   0  0  1  0  0  0  0  0  0  0  0  0
    7.7953  -14.1826   21.4704 C   0  0  0  0  0  0  0  0  0  0  0  0
    8.4757  -14.1922   20.1376 C   0  0  0  0  0  0  0  0  0  0  0  0
    7.7914  -13.3559   19.0872 C   0  0  0  0  0  0  0  0  0  0  0  0
    8.5523  -13.4672   17.7683 C   0  0  0  0  0  0  0  0  0  0  0  0
    7.8259  -12.7866   16.7208 N   0  0  0  0  0  0  0  0  0  0  0  0
    9.5915  -15.3782   22.5819 C   0  0  0  0  0  0  0  0  0  0  0  0
   10.0305  -14.7249   23.5517 O   0  0  0  0  0  0  0  0  0  0  0  0
   12.3141  -14.6109   22.4334 C   0  0  0  0  0  0  0  0  0  0  0  0
   11.9226  -16.0392   22.0773 C   0  0  2  0  0  0  0  0  0  0  0  0
   10.5248  -16.0827   21.7905 N   0  0  0  0  0  0  0  0  0  0  0  0
   12.3576  -16.9475   23.1327 C   0  0  0  0  0  0  0  0  0  0  0  0
   11.6926  -17.0509   24.3399 O   0  0  0  0  0  0  0  0  0  0  0  0
   13.3678  -17.6654   22.9533 O   0  0  0  0  0  0  0  0  0  0  0  0
  2 10  1  0
  2  1  1  1
  3  2  1  0
  4  9  2  0
  4  3  1  0
  5  4  1  0
  6  7  1  0
  6  5  2  0
  7  8  2  0
  8  9  1  0
 10 11  2  0
 12 13  1  0
 12 10  1  0
 13 14  1  1
 14 15  1  0
 16 15  1  0
 17 16  1  0
 18 17  1  0
 19 13  1  0
 20 19  2  0
 22 21  1  1
 22 23  1  0
 23 19  1  0
 24 22  1  0
 24 25  1  0
 26 24  2  0
M  END
$$$$
