FKA.pdb
     RDKit          3D

 26 26  0  0  1  0  0  0  0  0999 V2000
    5.8357  -17.8725   25.7662 N   0  0  0  0  0  0  0  0  0  0  0  0
    6.2774  -16.5323   25.5530 C   0  0  1  0  0  0  0  0  0  0  0  0
    6.9128  -16.0078   26.8035 C   0  0  0  0  0  0  0  0  0  0  0  0
    6.9250  -14.5342   26.7851 C   0  0  0  0  0  0  0  0  0  0  0  0
    8.0966  -13.8382   26.8349 C   0  0  0  0  0  0  0  0  0  0  0  0
    8.1059  -12.4391   26.8174 C   0  0  0  0  0  0  0  0  0  0  0  0
    6.8926  -11.7805   26.7482 C   0  0  0  0  0  0  0  0  0  0  0  0
    5.7077  -12.4871   26.6979 C   0  0  0  0  0  0  0  0  0  0  0  0
    5.7380  -13.8582   26.7170 C   0  0  0  0  0  0  0  0  0  0  0  0
    7.2794  -16.4208   24.4562 C   0  0  0  0  0  0  0  0  0  0  0  0
    8.2359  -17.2192   24.4357 O   0  0  0  0  0  0  0  0  0  0  0  0
    7.2004  -15.4533   23.4350 N   0  0  0  0  0  0  0  0  0  0  0  0
    8.1185  -15.4618   22.3460 C   0  0  1  0  0  0  0  0  0  0  0  0
    7.7323  -14.3583   21.3918 C   0  0  0  0  0  0  0  0  0  0  0  0
    8.4389  -14.5096   20.0814 C   0  0  0  0  0  0  0  0  0  0  0  0
    7.9380  -13.5895   18.9982 C   0  0  0  0  0  0  0  0  0  0  0  0
    8.5862  -13.9645   17.6676 C   0  0  0  0  0  0  0  0  0  0  0  0
    8.2711  -12.9698   16.6678 N   0  0  0  0  0  0  0  0  0  0  0  0
    9.5248  -15.2376   22.7720 C   0  0  0  0  0  0  0  0  0  0  0  0
    9.8009  -14.5893   23.8032 O   0  0  0  0  0  0  0  0  0  0  0  0
   11.9928  -16.4031   23.8661 C   0  0  0  0  0  0  0  0  0  0  0  0
   11.9390  -15.7147   22.5085 C   0  0  2  0  0  0  0  0  0  0  0  0
   10.5995  -15.7556   22.0168 N   0  0  0  0  0  0  0  0  0  0  0  0
   12.9343  -16.3017   21.6181 C   0  0  0  0  0  0  0  0  0  0  0  0
   12.5888  -16.9451   20.4447 O   0  0  0  0  0  0  0  0  0  0  0  0
   14.1489  -16.2281   21.9139 O   0  0  0  0  0  0  0  0  0  0  0  0
  2 10  1  0
  2  1  1  1
  3  2  1  0
  4  9  2  0
  4  3  1  0
  5  4  1  0
  6  7  1  0
  6  5  2  0
  7  8  2  0
  8  9  1  0
 10 11  2  0
 12 13  1  0
 12 10  1  0
 13 14  1  6
 14 15  1  0
 16 15  1  0
 17 16  1  0
 18 17  1  0
 19 13  1  0
 20 19  2  0
 22 21  1  1
 22 23  1  0
 23 19  1  0
 24 22  1  0
 24 25  1  0
 26 24  2  0
M  END
$$$$
