FCR.pdb
     RDKit          3D

 29 29  0  0  1  0  0  0  0  0999 V2000
    9.7356  -15.6417   21.6471 N   0  0  0  0  0  0  0  0  0  0  0  0
    9.1540  -14.7885   22.6658 C   0  0  1  0  0  0  0  0  0  0  0  0
    7.6519  -14.8895   22.4860 C   0  0  0  0  0  0  0  0  0  0  0  0
    7.2746  -14.0507   21.3183 C   0  0  0  0  0  0  0  0  0  0  0  0
    6.2834  -14.4193   20.4447 C   0  0  0  0  0  0  0  0  0  0  0  0
    5.9502  -13.6100   19.3613 C   0  0  0  0  0  0  0  0  0  0  0  0
    6.5968  -12.4152   19.1235 C   0  0  0  0  0  0  0  0  0  0  0  0
    7.5935  -12.0449   20.0022 C   0  0  0  0  0  0  0  0  0  0  0  0
    7.9206  -12.8578   21.0813 C   0  0  0  0  0  0  0  0  0  0  0  0
    9.5930  -15.2874   23.9813 C   0  0  0  0  0  0  0  0  0  0  0  0
   10.1471  -16.3881   24.0873 O   0  0  0  0  0  0  0  0  0  0  0  0
    9.4103  -14.5474   25.1913 N   0  0  0  0  0  0  0  0  0  0  0  0
   10.0566  -14.8628   26.4208 C   0  0  1  0  0  0  0  0  0  0  0  0
    9.8551  -13.8503   27.5129 C   0  0  0  0  0  0  0  0  0  0  0  0
    8.5604  -12.6562   27.1499 S   0  0  0  0  0  0  0  0  0  0  0  0
    9.7117  -16.2378   26.9093 C   0  0  0  0  0  0  0  0  0  0  0  0
    8.5205  -16.6405   26.8737 O   0  0  0  0  0  0  0  0  0  0  0  0
   14.0092  -21.7589   23.2687 N   0  0  0  0  0  0  0  0  0  0  0  0
   13.5119  -20.4779   22.9348 C   0  0  0  0  0  0  0  0  0  0  0  0
   13.7502  -19.9276   21.7734 N   0  0  0  0  0  0  0  0  0  0  0  0
   12.7250  -19.6977   23.8221 N   0  0  0  0  0  0  0  0  0  0  0  0
   12.2517  -20.1570   25.1086 C   0  0  0  0  0  0  0  0  0  0  0  0
   11.4492  -19.0692   25.8257 C   0  0  0  0  0  0  0  0  0  0  0  0
   11.0614  -19.5194   27.2053 C   0  0  0  0  0  0  0  0  0  0  0  0
   10.3040  -18.4639   27.9232 C   0  0  2  0  0  0  0  0  0  0  0  0
   10.6807  -17.1252   27.4197 N   0  0  0  0  0  0  0  0  0  0  0  0
   10.4218  -18.5061   29.3798 C   0  0  0  0  0  0  0  0  0  0  0  0
   10.0096  -19.5546   30.1479 O   0  0  0  0  0  0  0  0  0  0  0  0
   10.9341  -17.5240   30.0323 O   0  0  0  0  0  0  0  0  0  0  0  0
  2  1  1  6
  2  3  1  0
  3  4  1  0
  4  5  2  0
  4  9  1  0
  5  6  1  0
  6  7  2  0
  8  7  1  0
  9  8  2  0
 10  2  1  0
 11 10  2  0
 12 10  1  0
 13 12  1  0
 13 14  1  1
 15 14  1  0
 16 13  1  0
 16 26  1  0
 17 16  2  0
 19 18  1  0
 20 19  2  0
 21 19  1  0
 22 21  1  0
 23 22  1  0
 24 23  1  0
 25 26  1  0
 25 24  1  6
 27 25  1  0
 28 27  1  0
 29 27  2  0
M  END
$$$$
