FCR.pdb
     RDKit          3D

 29 29  0  0  1  0  0  0  0  0999 V2000
    7.3002  -15.1931   21.6739 N   0  0  0  0  0  0  0  0  0  0  0  0
    8.7314  -15.3112   21.8785 C   0  0  1  0  0  0  0  0  0  0  0  0
    9.3609  -14.1896   21.0758 C   0  0  0  0  0  0  0  0  0  0  0  0
    8.4292  -13.8399   19.9717 C   0  0  0  0  0  0  0  0  0  0  0  0
    8.1792  -14.6953   18.9290 C   0  0  0  0  0  0  0  0  0  0  0  0
    7.2980  -14.3402   17.9106 C   0  0  0  0  0  0  0  0  0  0  0  0
    6.6458  -13.1250   17.9077 C   0  0  0  0  0  0  0  0  0  0  0  0
    6.8976  -12.2650   18.9564 C   0  0  0  0  0  0  0  0  0  0  0  0
    7.7783  -12.6262   19.9692 C   0  0  0  0  0  0  0  0  0  0  0  0
    8.9963  -15.1803   23.3225 C   0  0  0  0  0  0  0  0  0  0  0  0
   10.1497  -15.0291   23.7425 O   0  0  0  0  0  0  0  0  0  0  0  0
    7.9599  -15.2188   24.3072 N   0  0  0  0  0  0  0  0  0  0  0  0
    8.1975  -15.2047   25.7116 C   0  0  1  0  0  0  0  0  0  0  0  0
    7.2847  -14.3020   26.4929 C   0  0  0  0  0  0  0  0  0  0  0  0
    6.6122  -12.9488   25.5178 S   0  0  0  0  0  0  0  0  0  0  0  0
    8.2045  -16.5830   26.3020 C   0  0  0  0  0  0  0  0  0  0  0  0
    7.4309  -17.4669   25.8520 O   0  0  0  0  0  0  0  0  0  0  0  0
   13.0519  -19.4095   22.9547 N   0  0  0  0  0  0  0  0  0  0  0  0
   11.8262  -19.0329   22.3583 C   0  0  0  0  0  0  0  0  0  0  0  0
   11.6969  -18.9184   21.0627 N   0  0  0  0  0  0  0  0  0  0  0  0
   10.6542  -18.7529   23.1088 N   0  0  0  0  0  0  0  0  0  0  0  0
   10.1980  -19.5423   24.2307 C   0  0  0  0  0  0  0  0  0  0  0  0
   11.0961  -19.3408   25.4532 C   0  0  0  0  0  0  0  0  0  0  0  0
   10.8388  -18.0024   26.0849 C   0  0  0  0  0  0  0  0  0  0  0  0
    9.9450  -18.1260   27.2633 C   0  0  2  0  0  0  0  0  0  0  0  0
    9.0571  -16.9474   27.3638 N   0  0  0  0  0  0  0  0  0  0  0  0
   10.6317  -18.3496   28.5345 C   0  0  0  0  0  0  0  0  0  0  0  0
   10.9820  -19.5803   29.0056 O   0  0  0  0  0  0  0  0  0  0  0  0
   10.9482  -17.3657   29.2991 O   0  0  0  0  0  0  0  0  0  0  0  0
  2  1  1  1
  2  3  1  0
  3  4  1  0
  4  5  2  0
  4  9  1  0
  5  6  1  0
  6  7  2  0
  8  7  1  0
  9  8  2  0
 10  2  1  0
 11 10  2  0
 12 10  1  0
 13 12  1  0
 13 14  1  1
 15 14  1  0
 16 13  1  0
 16 26  1  0
 17 16  2  0
 19 18  1  0
 20 19  2  0
 21 19  1  0
 22 21  1  0
 23 22  1  0
 24 23  1  0
 25 26  1  0
 25 24  1  6
 27 25  1  0
 28 27  1  0
 29 27  2  0
M  END
$$$$
