FCR.pdb
     RDKit          3D

 29 29  0  0  1  0  0  0  0  0999 V2000
    5.9426  -16.6736   25.3924 N   0  0  0  0  0  0  0  0  0  0  0  0
    6.9944  -15.8870   24.7768 C   0  0  1  0  0  0  0  0  0  0  0  0
    7.6628  -15.1283   25.9065 C   0  0  0  0  0  0  0  0  0  0  0  0
    7.0232  -13.7896   25.9985 C   0  0  0  0  0  0  0  0  0  0  0  0
    5.7172  -13.6297   26.3861 C   0  0  0  0  0  0  0  0  0  0  0  0
    5.1470  -12.3615   26.4659 C   0  0  0  0  0  0  0  0  0  0  0  0
    5.8648  -11.2238   26.1614 C   0  0  0  0  0  0  0  0  0  0  0  0
    7.1781  -11.3851   25.7717 C   0  0  0  0  0  0  0  0  0  0  0  0
    7.7404  -12.6539   25.6943 C   0  0  0  0  0  0  0  0  0  0  0  0
    7.9207  -16.8147   24.1034 C   0  0  0  0  0  0  0  0  0  0  0  0
    7.5025  -17.8485   23.5685 O   0  0  0  0  0  0  0  0  0  0  0  0
    9.3300  -16.5837   24.0275 N   0  0  0  0  0  0  0  0  0  0  0  0
   10.0486  -16.4511   22.8048 C   0  0  1  0  0  0  0  0  0  0  0  0
    9.3718  -15.5979   21.7691 C   0  0  0  0  0  0  0  0  0  0  0  0
    9.6534  -16.1611   20.0846 S   0  0  0  0  0  0  0  0  0  0  0  0
   11.4604  -15.9942   23.0205 C   0  0  0  0  0  0  0  0  0  0  0  0
   11.6996  -14.7905   23.2966 O   0  0  0  0  0  0  0  0  0  0  0  0
   10.2209  -17.4665   28.5131 N   0  0  0  0  0  0  0  0  0  0  0  0
   11.3992  -16.6845   28.5114 C   0  0  0  0  0  0  0  0  0  0  0  0
   11.4326  -15.4878   29.0361 N   0  0  0  0  0  0  0  0  0  0  0  0
   12.6232  -17.1304   27.9472 N   0  0  0  0  0  0  0  0  0  0  0  0
   12.7366  -18.2261   27.0109 C   0  0  0  0  0  0  0  0  0  0  0  0
   12.5237  -17.7510   25.5719 C   0  0  0  0  0  0  0  0  0  0  0  0
   13.8347  -17.6620   24.8440 C   0  0  0  0  0  0  0  0  0  0  0  0
   13.7751  -16.6632   23.7477 C   0  0  2  0  0  0  0  0  0  0  0  0
   12.5618  -16.8689   22.9272 N   0  0  0  0  0  0  0  0  0  0  0  0
   14.9601  -16.6181   22.8926 C   0  0  0  0  0  0  0  0  0  0  0  0
   16.1765  -16.1556   23.2994 O   0  0  0  0  0  0  0  0  0  0  0  0
   14.9136  -17.0228   21.6732 O   0  0  0  0  0  0  0  0  0  0  0  0
  2  1  1  1
  2  3  1  0
  3  4  1  0
  4  5  2  0
  4  9  1  0
  5  6  1  0
  6  7  2  0
  8  7  1  0
  9  8  2  0
 10  2  1  0
 11 10  2  0
 12 10  1  0
 13 12  1  0
 13 14  1  6
 15 14  1  0
 16 13  1  0
 16 26  1  0
 17 16  2  0
 19 18  1  0
 20 19  2  0
 21 19  1  0
 22 21  1  0
 23 22  1  0
 24 23  1  0
 25 26  1  0
 25 24  1  1
 27 25  1  0
 28 27  1  0
 29 27  2  0
M  END
$$$$
