FCR.pdb
     RDKit          3D

 29 29  0  0  1  0  0  0  0  0999 V2000
    6.6306  -16.2354   25.7909 N   0  0  0  0  0  0  0  0  0  0  0  0
    7.3502  -15.9248   24.5704 C   0  0  1  0  0  0  0  0  0  0  0  0
    6.7126  -14.6640   24.0203 C   0  0  0  0  0  0  0  0  0  0  0  0
    6.7361  -13.6352   25.0929 C   0  0  0  0  0  0  0  0  0  0  0  0
    5.9219  -13.7102   26.1942 C   0  0  0  0  0  0  0  0  0  0  0  0
    5.9695  -12.7320   27.1845 C   0  0  0  0  0  0  0  0  0  0  0  0
    6.8293  -11.6569   27.1001 C   0  0  0  0  0  0  0  0  0  0  0  0
    7.6479  -11.5818   25.9925 C   0  0  0  0  0  0  0  0  0  0  0  0
    7.5948  -12.5618   25.0081 C   0  0  0  0  0  0  0  0  0  0  0  0
    8.7689  -15.7265   24.9173 C   0  0  0  0  0  0  0  0  0  0  0  0
    9.5965  -15.4275   24.0481 O   0  0  0  0  0  0  0  0  0  0  0  0
    9.2673  -15.8642   26.2507 N   0  0  0  0  0  0  0  0  0  0  0  0
   10.6507  -15.8343   26.5887 C   0  0  1  0  0  0  0  0  0  0  0  0
   10.9454  -15.3553   27.9824 C   0  0  0  0  0  0  0  0  0  0  0  0
   10.0415  -13.8672   28.4323 S   0  0  0  0  0  0  0  0  0  0  0  0
   11.3287  -17.1465   26.3301 C   0  0  0  0  0  0  0  0  0  0  0  0
   11.0679  -18.1449   27.0494 O   0  0  0  0  0  0  0  0  0  0  0  0
   12.1347  -17.4677   18.5371 N   0  0  0  0  0  0  0  0  0  0  0  0
   11.8645  -18.7653   19.0301 C   0  0  0  0  0  0  0  0  0  0  0  0
   11.6802  -19.7819   18.2295 N   0  0  0  0  0  0  0  0  0  0  0  0
   11.7728  -19.0635   20.4151 N   0  0  0  0  0  0  0  0  0  0  0  0
   11.9502  -18.0916   21.4705 C   0  0  0  0  0  0  0  0  0  0  0  0
   11.7433  -18.7242   22.8484 C   0  0  0  0  0  0  0  0  0  0  0  0
   13.0523  -18.8544   23.5736 C   0  0  0  0  0  0  0  0  0  0  0  0
   12.8831  -18.6414   25.0326 C   0  0  2  0  0  0  0  0  0  0  0  0
   12.2682  -17.3218   25.2940 N   0  0  0  0  0  0  0  0  0  0  0  0
   14.1047  -18.7934   25.8215 C   0  0  0  0  0  0  0  0  0  0  0  0
   14.7916  -19.9647   25.9449 O   0  0  0  0  0  0  0  0  0  0  0  0
   14.6083  -17.7990   26.4619 O   0  0  0  0  0  0  0  0  0  0  0  0
  2  1  1  1
  2  3  1  0
  3  4  1  0
  4  5  2  0
  4  9  1  0
  5  6  1  0
  6  7  2  0
  8  7  1  0
  9  8  2  0
 10  2  1  0
 11 10  2  0
 12 10  1  0
 13 12  1  0
 13 14  1  1
 15 14  1  0
 16 13  1  0
 16 26  1  0
 17 16  2  0
 19 18  1  0
 20 19  2  0
 21 19  1  0
 22 21  1  0
 23 22  1  0
 24 23  1  0
 25 26  1  0
 25 24  1  6
 27 25  1  0
 28 27  1  0
 29 27  2  0
M  END
$$$$
