FCR.pdb
     RDKit          3D

 29 29  0  0  1  0  0  0  0  0999 V2000
    9.6288  -15.0668   21.6365 N   0  0  0  0  0  0  0  0  0  0  0  0
    8.5657  -14.3134   22.2737 C   0  0  1  0  0  0  0  0  0  0  0  0
    7.2823  -14.7455   21.5919 C   0  0  0  0  0  0  0  0  0  0  0  0
    7.2951  -14.2020   20.2084 C   0  0  0  0  0  0  0  0  0  0  0  0
    7.2395  -15.0142   19.1046 C   0  0  0  0  0  0  0  0  0  0  0  0
    7.2496  -14.4747   17.8206 C   0  0  0  0  0  0  0  0  0  0  0  0
    7.3155  -13.1137   17.6072 C   0  0  0  0  0  0  0  0  0  0  0  0
    7.3715  -12.2972   18.7175 C   0  0  0  0  0  0  0  0  0  0  0  0
    7.3609  -12.8429   19.9959 C   0  0  0  0  0  0  0  0  0  0  0  0
    8.5726  -14.6437   23.7101 C   0  0  0  0  0  0  0  0  0  0  0  0
    9.1875  -15.6319   24.1286 O   0  0  0  0  0  0  0  0  0  0  0  0
    7.8844  -13.8603   24.6888 N   0  0  0  0  0  0  0  0  0  0  0  0
    7.7386  -14.2426   26.0531 C   0  0  1  0  0  0  0  0  0  0  0  0
    6.7487  -13.4227   26.8318 C   0  0  0  0  0  0  0  0  0  0  0  0
    6.8372  -11.6633   26.4701 S   0  0  0  0  0  0  0  0  0  0  0  0
    7.4452  -15.7051   26.2066 C   0  0  0  0  0  0  0  0  0  0  0  0
    6.5217  -16.2375   25.5389 O   0  0  0  0  0  0  0  0  0  0  0  0
   11.0114  -19.0036   20.4175 N   0  0  0  0  0  0  0  0  0  0  0  0
   11.6480  -19.7488   21.4368 C   0  0  0  0  0  0  0  0  0  0  0  0
   12.5131  -20.6900   21.1643 N   0  0  0  0  0  0  0  0  0  0  0  0
   11.4018  -19.5373   22.8188 N   0  0  0  0  0  0  0  0  0  0  0  0
   10.3850  -18.6505   23.3382 C   0  0  0  0  0  0  0  0  0  0  0  0
   10.4390  -18.5781   24.8657 C   0  0  0  0  0  0  0  0  0  0  0  0
    9.6694  -17.3896   25.3674 C   0  0  0  0  0  0  0  0  0  0  0  0
    8.8970  -17.7249   26.5896 C   0  0  2  0  0  0  0  0  0  0  0  0
    8.1715  -16.5348   27.0846 N   0  0  0  0  0  0  0  0  0  0  0  0
    9.6829  -18.3212   27.6687 C   0  0  0  0  0  0  0  0  0  0  0  0
   10.3700  -17.5999   28.5997 O   0  0  0  0  0  0  0  0  0  0  0  0
    9.7712  -19.5973   27.7975 O   0  0  0  0  0  0  0  0  0  0  0  0
  2  1  1  6
  2  3  1  0
  3  4  1  0
  4  5  2  0
  4  9  1  0
  5  6  1  0
  6  7  2  0
  8  7  1  0
  9  8  2  0
 10  2  1  0
 11 10  2  0
 12 10  1  0
 13 12  1  0
 13 14  1  6
 15 14  1  0
 16 13  1  0
 16 26  1  0
 17 16  2  0
 19 18  1  0
 20 19  2  0
 21 19  1  0
 22 21  1  0
 23 22  1  0
 24 23  1  0
 25 26  1  0
 25 24  1  6
 27 25  1  0
 28 27  1  0
 29 27  2  0
M  END
$$$$
