FCR.pdb
     RDKit          3D

 29 29  0  0  1  0  0  0  0  0999 V2000
    8.2894  -15.9895   17.0574 N   0  0  0  0  0  0  0  0  0  0  0  0
    8.5542  -15.1943   18.2413 C   0  0  1  0  0  0  0  0  0  0  0  0
    7.2471  -14.5054   18.5814 C   0  0  0  0  0  0  0  0  0  0  0  0
    7.4463  -13.7459   19.8435 C   0  0  0  0  0  0  0  0  0  0  0  0
    7.0516  -14.2378   21.0615 C   0  0  0  0  0  0  0  0  0  0  0  0
    7.2552  -13.5036   22.2274 C   0  0  0  0  0  0  0  0  0  0  0  0
    7.8565  -12.2625   22.2063 C   0  0  0  0  0  0  0  0  0  0  0  0
    8.2532  -11.7681   20.9812 C   0  0  0  0  0  0  0  0  0  0  0  0
    8.0467  -12.5067   19.8219 C   0  0  0  0  0  0  0  0  0  0  0  0
    8.9989  -16.1057   19.3108 C   0  0  0  0  0  0  0  0  0  0  0  0
    8.4367  -17.1928   19.4894 O   0  0  0  0  0  0  0  0  0  0  0  0
   10.0841  -15.7979   20.1899 N   0  0  0  0  0  0  0  0  0  0  0  0
   10.6150  -16.7102   21.1463 C   0  0  1  0  0  0  0  0  0  0  0  0
   12.1085  -16.6547   21.3041 C   0  0  0  0  0  0  0  0  0  0  0  0
   12.7149  -17.6080   22.7032 S   0  0  0  0  0  0  0  0  0  0  0  0
    9.9412  -16.5927   22.4808 C   0  0  0  0  0  0  0  0  0  0  0  0
   10.1402  -15.5814   23.2019 O   0  0  0  0  0  0  0  0  0  0  0  0
    8.7943  -21.4468   27.7614 N   0  0  0  0  0  0  0  0  0  0  0  0
    7.5224  -21.2617   28.3509 C   0  0  0  0  0  0  0  0  0  0  0  0
    7.2156  -21.7886   29.5071 N   0  0  0  0  0  0  0  0  0  0  0  0
    6.4909  -20.4993   27.7425 N   0  0  0  0  0  0  0  0  0  0  0  0
    6.5043  -20.0661   26.3634 C   0  0  0  0  0  0  0  0  0  0  0  0
    7.5663  -18.9894   26.1299 C   0  0  0  0  0  0  0  0  0  0  0  0
    7.7147  -18.7008   24.6632 C   0  0  0  0  0  0  0  0  0  0  0  0
    8.7450  -17.6603   24.4207 C   0  0  2  0  0  0  0  0  0  0  0  0
    9.0732  -17.5845   22.9805 N   0  0  0  0  0  0  0  0  0  0  0  0
    9.9672  -17.8102   25.2090 C   0  0  0  0  0  0  0  0  0  0  0  0
   10.3773  -16.9196   26.1564 O   0  0  0  0  0  0  0  0  0  0  0  0
   10.7440  -18.8209   25.0419 O   0  0  0  0  0  0  0  0  0  0  0  0
  2  1  1  6
  2  3  1  0
  3  4  1  0
  4  5  2  0
  4  9  1  0
  5  6  1  0
  6  7  2  0
  8  7  1  0
  9  8  2  0
 10  2  1  0
 11 10  2  0
 12 10  1  0
 13 12  1  0
 13 14  1  1
 15 14  1  0
 16 13  1  0
 16 26  1  0
 17 16  2  0
 19 18  1  0
 20 19  2  0
 21 19  1  0
 22 21  1  0
 23 22  1  0
 24 23  1  0
 25 26  1  0
 25 24  1  6
 27 25  1  0
 28 27  1  0
 29 27  2  0
M  END
$$$$
