FCR.pdb
     RDKit          3D

 29 29  0  0  1  0  0  0  0  0999 V2000
    9.5605  -15.1090   21.7379 N   0  0  0  0  0  0  0  0  0  0  0  0
    9.1630  -14.4568   22.9710 C   0  0  1  0  0  0  0  0  0  0  0  0
    7.6661  -14.6667   23.0896 C   0  0  0  0  0  0  0  0  0  0  0  0
    7.1645  -13.7766   24.1692 C   0  0  0  0  0  0  0  0  0  0  0  0
    7.2459  -12.4100   24.0853 C   0  0  0  0  0  0  0  0  0  0  0  0
    6.7637  -11.6021   25.1123 C   0  0  0  0  0  0  0  0  0  0  0  0
    6.1893  -12.1375   26.2462 C   0  0  0  0  0  0  0  0  0  0  0  0
    6.1076  -13.5118   26.3302 C   0  0  0  0  0  0  0  0  0  0  0  0
    6.5911  -14.3116   25.3013 C   0  0  0  0  0  0  0  0  0  0  0  0
    9.9039  -15.0875   24.0780 C   0  0  0  0  0  0  0  0  0  0  0  0
   10.4519  -16.1861   23.9271 O   0  0  0  0  0  0  0  0  0  0  0  0
   10.0334  -14.4832   25.3677 N   0  0  0  0  0  0  0  0  0  0  0  0
   10.9294  -14.9438   26.3746 C   0  0  1  0  0  0  0  0  0  0  0  0
   11.0101  -14.0656   27.5915 C   0  0  0  0  0  0  0  0  0  0  0  0
    9.5175  -14.0956   28.5942 S   0  0  0  0  0  0  0  0  0  0  0  0
   10.6606  -16.3651   26.7695 C   0  0  0  0  0  0  0  0  0  0  0  0
    9.4904  -16.8240   26.7197 O   0  0  0  0  0  0  0  0  0  0  0  0
   13.9776  -21.1517   22.6454 N   0  0  0  0  0  0  0  0  0  0  0  0
   13.2993  -22.2574   23.2085 C   0  0  0  0  0  0  0  0  0  0  0  0
   12.7804  -23.1989   22.4649 N   0  0  0  0  0  0  0  0  0  0  0  0
   13.1297  -22.4309   24.6072 N   0  0  0  0  0  0  0  0  0  0  0  0
   13.5818  -21.4877   25.6052 C   0  0  0  0  0  0  0  0  0  0  0  0
   12.4012  -20.8340   26.3266 C   0  0  0  0  0  0  0  0  0  0  0  0
   12.5617  -19.3409   26.3602 C   0  0  0  0  0  0  0  0  0  0  0  0
   11.4985  -18.7032   27.1762 C   0  0  2  0  0  0  0  0  0  0  0  0
   11.6802  -17.2356   27.2050 N   0  0  0  0  0  0  0  0  0  0  0  0
   11.3739  -19.2225   28.5372 C   0  0  0  0  0  0  0  0  0  0  0  0
   11.4211  -18.4456   29.6568 O   0  0  0  0  0  0  0  0  0  0  0  0
   11.2110  -20.4790   28.7551 O   0  0  0  0  0  0  0  0  0  0  0  0
  2  1  1  6
  2  3  1  0
  3  4  1  0
  4  5  2  0
  4  9  1  0
  5  6  1  0
  6  7  2  0
  8  7  1  0
  9  8  2  0
 10  2  1  0
 11 10  2  0
 12 10  1  0
 13 12  1  0
 13 14  1  1
 15 14  1  0
 16 13  1  0
 16 26  1  0
 17 16  2  0
 19 18  1  0
 20 19  2  0
 21 19  1  0
 22 21  1  0
 23 22  1  0
 24 23  1  0
 25 26  1  0
 25 24  1  1
 27 25  1  0
 28 27  1  0
 29 27  2  0
M  END
$$$$
