FCR.pdb
     RDKit          3D

 29 29  0  0  1  0  0  0  0  0999 V2000
    6.7694  -16.6227   26.1471 N   0  0  0  0  0  0  0  0  0  0  0  0
    6.8293  -16.7277   24.7017 C   0  0  1  0  0  0  0  0  0  0  0  0
    5.9691  -15.6000   24.1660 C   0  0  0  0  0  0  0  0  0  0  0  0
    6.3201  -14.3637   24.9130 C   0  0  0  0  0  0  0  0  0  0  0  0
    5.6979  -14.0178   26.0854 C   0  0  0  0  0  0  0  0  0  0  0  0
    6.0515  -12.8542   26.7643 C   0  0  0  0  0  0  0  0  0  0  0  0
    7.0329  -12.0088   26.2906 C   0  0  0  0  0  0  0  0  0  0  0  0
    7.6584  -12.3571   25.1116 C   0  0  0  0  0  0  0  0  0  0  0  0
    7.3002  -13.5199   24.4396 C   0  0  0  0  0  0  0  0  0  0  0  0
    8.2396  -16.5950   24.2945 C   0  0  0  0  0  0  0  0  0  0  0  0
    8.6075  -16.9436   23.1663 O   0  0  0  0  0  0  0  0  0  0  0  0
    9.2493  -16.0666   25.1586 N   0  0  0  0  0  0  0  0  0  0  0  0
   10.6470  -16.1729   24.9053 C   0  0  1  0  0  0  0  0  0  0  0  0
   11.4949  -15.1715   25.6379 C   0  0  0  0  0  0  0  0  0  0  0  0
   11.4286  -15.3516   27.4260 S   0  0  0  0  0  0  0  0  0  0  0  0
   11.1627  -17.5627   25.1308 C   0  0  0  0  0  0  0  0  0  0  0  0
   10.7147  -18.2564   26.0797 O   0  0  0  0  0  0  0  0  0  0  0  0
    8.4888  -22.1713   22.7611 N   0  0  0  0  0  0  0  0  0  0  0  0
    8.5170  -20.7640   22.6252 C   0  0  0  0  0  0  0  0  0  0  0  0
    7.5382  -20.0107   23.0531 N   0  0  0  0  0  0  0  0  0  0  0  0
    9.5957  -20.0662   22.0212 N   0  0  0  0  0  0  0  0  0  0  0  0
   10.9328  -20.5979   21.8818 C   0  0  0  0  0  0  0  0  0  0  0  0
   11.5119  -21.0067   23.2379 C   0  0  0  0  0  0  0  0  0  0  0  0
   12.8308  -20.3287   23.4770 C   0  0  0  0  0  0  0  0  0  0  0  0
   12.7723  -19.4405   24.6647 C   0  0  2  0  0  0  0  0  0  0  0  0
   12.1500  -18.1461   24.3112 N   0  0  0  0  0  0  0  0  0  0  0  0
   14.0553  -19.2182   25.3295 C   0  0  0  0  0  0  0  0  0  0  0  0
   14.7164  -20.1697   26.0482 O   0  0  0  0  0  0  0  0  0  0  0  0
   14.6433  -18.0764   25.2708 O   0  0  0  0  0  0  0  0  0  0  0  0
  2  1  1  1
  2  3  1  0
  3  4  1  0
  4  5  2  0
  4  9  1  0
  5  6  1  0
  6  7  2  0
  8  7  1  0
  9  8  2  0
 10  2  1  0
 11 10  2  0
 12 10  1  0
 13 12  1  0
 13 14  1  1
 15 14  1  0
 16 13  1  0
 16 26  1  0
 17 16  2  0
 19 18  1  0
 20 19  2  0
 21 19  1  0
 22 21  1  0
 23 22  1  0
 24 23  1  0
 25 26  1  0
 25 24  1  6
 27 25  1  0
 28 27  1  0
 29 27  2  0
M  END
$$$$
