FCR.pdb
     RDKit          3D

 29 29  0  0  1  0  0  0  0  0999 V2000
    7.1862  -14.6942   22.2595 N   0  0  0  0  0  0  0  0  0  0  0  0
    8.6198  -14.7770   22.0547 C   0  0  1  0  0  0  0  0  0  0  0  0
    9.0085  -13.5125   21.3139 C   0  0  0  0  0  0  0  0  0  0  0  0
    8.3442  -13.5399   19.9844 C   0  0  0  0  0  0  0  0  0  0  0  0
    7.3384  -12.6682   19.6529 C   0  0  0  0  0  0  0  0  0  0  0  0
    6.7376  -12.7164   18.3973 C   0  0  0  0  0  0  0  0  0  0  0  0
    7.1251  -13.6341   17.4434 C   0  0  0  0  0  0  0  0  0  0  0  0
    8.1366  -14.5105   17.7772 C   0  0  0  0  0  0  0  0  0  0  0  0
    8.7315  -14.4565   19.0323 C   0  0  0  0  0  0  0  0  0  0  0  0
    9.2632  -14.8685   23.3775 C   0  0  0  0  0  0  0  0  0  0  0  0
   10.4789  -15.0737   23.4764 O   0  0  0  0  0  0  0  0  0  0  0  0
    8.5392  -14.7289   24.6029 N   0  0  0  0  0  0  0  0  0  0  0  0
    9.1418  -14.7838   25.8923 C   0  0  1  0  0  0  0  0  0  0  0  0
    8.3785  -14.0696   26.9721 C   0  0  0  0  0  0  0  0  0  0  0  0
    7.6714  -12.5066   26.4326 S   0  0  0  0  0  0  0  0  0  0  0  0
    9.4586  -16.1875   26.3138 C   0  0  0  0  0  0  0  0  0  0  0  0
    8.5318  -17.0219   26.4787 O   0  0  0  0  0  0  0  0  0  0  0  0
   15.7878  -18.0624   23.0111 N   0  0  0  0  0  0  0  0  0  0  0  0
   15.1962  -17.0106   23.7483 C   0  0  0  0  0  0  0  0  0  0  0  0
   15.6611  -15.7899   23.7013 N   0  0  0  0  0  0  0  0  0  0  0  0
   14.0657  -17.1939   24.5871 N   0  0  0  0  0  0  0  0  0  0  0  0
   12.8143  -17.7724   24.1519 C   0  0  0  0  0  0  0  0  0  0  0  0
   12.3684  -18.8989   25.0867 C   0  0  0  0  0  0  0  0  0  0  0  0
   12.4007  -18.4437   26.5178 C   0  0  0  0  0  0  0  0  0  0  0  0
   11.0558  -18.0159   26.9773 C   0  0  2  0  0  0  0  0  0  0  0  0
   10.7775  -16.6305   26.5402 N   0  0  0  0  0  0  0  0  0  0  0  0
   10.8277  -18.1461   28.4156 C   0  0  0  0  0  0  0  0  0  0  0  0
   10.6303  -19.3360   29.0514 O   0  0  0  0  0  0  0  0  0  0  0  0
   10.7978  -17.1118   29.1785 O   0  0  0  0  0  0  0  0  0  0  0  0
  2  1  1  1
  2  3  1  0
  3  4  1  0
  4  5  2  0
  4  9  1  0
  5  6  1  0
  6  7  2  0
  8  7  1  0
  9  8  2  0
 10  2  1  0
 11 10  2  0
 12 10  1  0
 13 12  1  0
 13 14  1  1
 15 14  1  0
 16 13  1  0
 16 26  1  0
 17 16  2  0
 19 18  1  0
 20 19  2  0
 21 19  1  0
 22 21  1  0
 23 22  1  0
 24 23  1  0
 25 26  1  0
 25 24  1  1
 27 25  1  0
 28 27  1  0
 29 27  2  0
M  END
$$$$
