FCR.pdb
     RDKit          3D

 29 29  0  0  1  0  0  0  0  0999 V2000
    5.5451  -17.9008   24.8054 N   0  0  0  0  0  0  0  0  0  0  0  0
    6.0802  -16.5551   24.8866 C   0  0  1  0  0  0  0  0  0  0  0  0
    6.3865  -16.3163   26.3522 C   0  0  0  0  0  0  0  0  0  0  0  0
    6.7418  -14.8824   26.5165 C   0  0  0  0  0  0  0  0  0  0  0  0
    8.0384  -14.4657   26.6796 C   0  0  0  0  0  0  0  0  0  0  0  0
    8.3401  -13.1141   26.8278 C   0  0  0  0  0  0  0  0  0  0  0  0
    7.3569  -12.1469   26.8169 C   0  0  0  0  0  0  0  0  0  0  0  0
    6.0531  -12.5663   26.6529 C   0  0  0  0  0  0  0  0  0  0  0  0
    5.7597  -13.9170   26.5057 C   0  0  0  0  0  0  0  0  0  0  0  0
    7.2902  -16.4958   24.0473 C   0  0  0  0  0  0  0  0  0  0  0  0
    8.1031  -17.4280   24.0430 O   0  0  0  0  0  0  0  0  0  0  0  0
    7.5945  -15.3818   23.2036 N   0  0  0  0  0  0  0  0  0  0  0  0
    8.6720  -15.3615   22.2723 C   0  0  1  0  0  0  0  0  0  0  0  0
    8.6763  -14.1795   21.3442 C   0  0  0  0  0  0  0  0  0  0  0  0
    7.1508  -13.9999   20.4090 S   0  0  0  0  0  0  0  0  0  0  0  0
   10.0059  -15.5088   22.9411 C   0  0  0  0  0  0  0  0  0  0  0  0
   10.3550  -14.7000   23.8391 O   0  0  0  0  0  0  0  0  0  0  0  0
   13.0673  -21.1591   23.2265 N   0  0  0  0  0  0  0  0  0  0  0  0
   13.3046  -21.5094   24.5759 C   0  0  0  0  0  0  0  0  0  0  0  0
   14.0156  -22.5570   24.9009 N   0  0  0  0  0  0  0  0  0  0  0  0
   12.7966  -20.7617   25.6704 N   0  0  0  0  0  0  0  0  0  0  0  0
   11.8857  -19.6465   25.5416 C   0  0  0  0  0  0  0  0  0  0  0  0
   12.6193  -18.3786   25.0990 C   0  0  0  0  0  0  0  0  0  0  0  0
   12.4275  -18.1415   23.6282 C   0  0  0  0  0  0  0  0  0  0  0  0
   12.1833  -16.7058   23.3416 C   0  0  2  0  0  0  0  0  0  0  0  0
   10.9117  -16.5353   22.6055 N   0  0  0  0  0  0  0  0  0  0  0  0
   13.2690  -16.0268   22.6361 C   0  0  0  0  0  0  0  0  0  0  0  0
   13.6968  -14.7656   22.9285 O   0  0  0  0  0  0  0  0  0  0  0  0
   13.8943  -16.6017   21.6711 O   0  0  0  0  0  0  0  0  0  0  0  0
  2  1  1  1
  2  3  1  0
  3  4  1  0
  4  5  2  0
  4  9  1  0
  5  6  1  0
  6  7  2  0
  8  7  1  0
  9  8  2  0
 10  2  1  0
 11 10  2  0
 12 10  1  0
 13 12  1  0
 13 14  1  1
 15 14  1  0
 16 13  1  0
 16 26  1  0
 17 16  2  0
 19 18  1  0
 20 19  2  0
 21 19  1  0
 22 21  1  0
 23 22  1  0
 24 23  1  0
 25 26  1  0
 25 24  1  6
 27 25  1  0
 28 27  1  0
 29 27  2  0
M  END
$$$$
