FCR.pdb
     RDKit          3D

 29 29  0  0  1  0  0  0  0  0999 V2000
    8.3777  -14.6212   21.4495 N   0  0  0  0  0  0  0  0  0  0  0  0
    8.3771  -14.1145   22.8086 C   0  0  1  0  0  0  0  0  0  0  0  0
    7.0108  -13.4925   23.0207 C   0  0  0  0  0  0  0  0  0  0  0  0
    7.0099  -12.8366   24.3546 C   0  0  0  0  0  0  0  0  0  0  0  0
    6.4155  -13.4101   25.4496 C   0  0  0  0  0  0  0  0  0  0  0  0
    6.4343  -12.7722   26.6875 C   0  0  0  0  0  0  0  0  0  0  0  0
    7.0458  -11.5484   26.8628 C   0  0  0  0  0  0  0  0  0  0  0  0
    7.6435  -10.9720   25.7613 C   0  0  0  0  0  0  0  0  0  0  0  0
    7.6206  -11.6146   24.5290 C   0  0  0  0  0  0  0  0  0  0  0  0
    8.6202  -15.2495   23.7168 C   0  0  0  0  0  0  0  0  0  0  0  0
    8.3356  -16.4040   23.3763 O   0  0  0  0  0  0  0  0  0  0  0  0
    9.1878  -15.0916   25.0200 N   0  0  0  0  0  0  0  0  0  0  0  0
    9.8003  -16.1482   25.7531 C   0  0  1  0  0  0  0  0  0  0  0  0
   10.8941  -15.7116   26.6866 C   0  0  0  0  0  0  0  0  0  0  0  0
   10.3135  -14.6602   28.0251 S   0  0  0  0  0  0  0  0  0  0  0  0
    8.7971  -16.9942   26.4787 C   0  0  0  0  0  0  0  0  0  0  0  0
    8.1741  -16.5275   27.4668 O   0  0  0  0  0  0  0  0  0  0  0  0
    4.2340  -20.0198   22.5271 N   0  0  0  0  0  0  0  0  0  0  0  0
    5.2873  -19.1649   22.1277 C   0  0  0  0  0  0  0  0  0  0  0  0
    5.0828  -18.1401   21.3426 N   0  0  0  0  0  0  0  0  0  0  0  0
    6.6326  -19.3489   22.5418 N   0  0  0  0  0  0  0  0  0  0  0  0
    7.0295  -20.1105   23.7048 C   0  0  0  0  0  0  0  0  0  0  0  0
    6.3768  -19.5634   24.9761 C   0  0  0  0  0  0  0  0  0  0  0  0
    6.9729  -20.2055   26.1962 C   0  0  0  0  0  0  0  0  0  0  0  0
    7.7553  -19.2270   26.9919 C   0  0  2  0  0  0  0  0  0  0  0  0
    8.5096  -18.3208   26.0989 N   0  0  0  0  0  0  0  0  0  0  0  0
    8.6519  -19.8185   27.9838 C   0  0  0  0  0  0  0  0  0  0  0  0
    9.9957  -19.5919   28.0280 O   0  0  0  0  0  0  0  0  0  0  0  0
    8.2050  -20.6102   28.8929 O   0  0  0  0  0  0  0  0  0  0  0  0
  2  1  1  6
  2  3  1  0
  3  4  1  0
  4  5  2  0
  4  9  1  0
  5  6  1  0
  6  7  2  0
  8  7  1  0
  9  8  2  0
 10  2  1  0
 11 10  2  0
 12 10  1  0
 13 12  1  0
 13 14  1  1
 15 14  1  0
 16 13  1  0
 16 26  1  0
 17 16  2  0
 19 18  1  0
 20 19  2  0
 21 19  1  0
 22 21  1  0
 23 22  1  0
 24 23  1  0
 25 26  1  0
 25 24  1  6
 27 25  1  0
 28 27  1  0
 29 27  2  0
M  END
$$$$
