FCR.pdb
     RDKit          3D

 29 29  0  0  1  0  0  0  0  0999 V2000
    4.8285  -17.6137   22.0544 N   0  0  0  0  0  0  0  0  0  0  0  0
    5.9661  -16.7725   21.7347 C   0  0  1  0  0  0  0  0  0  0  0  0
    5.3964  -15.5408   21.0586 C   0  0  0  0  0  0  0  0  0  0  0  0
    6.5321  -14.7577   20.5049 C   0  0  0  0  0  0  0  0  0  0  0  0
    7.0683  -13.6822   21.1661 C   0  0  0  0  0  0  0  0  0  0  0  0
    8.1349  -12.9701   20.6229 C   0  0  0  0  0  0  0  0  0  0  0  0
    8.6916  -13.3133   19.4086 C   0  0  0  0  0  0  0  0  0  0  0  0
    8.1521  -14.3949   18.7439 C   0  0  0  0  0  0  0  0  0  0  0  0
    7.0875  -15.1007   19.2922 C   0  0  0  0  0  0  0  0  0  0  0  0
    6.6589  -16.4471   22.9942 C   0  0  0  0  0  0  0  0  0  0  0  0
    6.1839  -15.6199   23.7816 O   0  0  0  0  0  0  0  0  0  0  0  0
    7.8962  -17.0534   23.3773 N   0  0  0  0  0  0  0  0  0  0  0  0
    8.8813  -16.4098   24.1798 C   0  0  1  0  0  0  0  0  0  0  0  0
    8.4293  -16.0649   25.5709 C   0  0  0  0  0  0  0  0  0  0  0  0
    7.6506  -17.4393   26.4304 S   0  0  0  0  0  0  0  0  0  0  0  0
   10.1707  -17.1742   24.2210 C   0  0  0  0  0  0  0  0  0  0  0  0
   10.1792  -18.3795   24.5808 O   0  0  0  0  0  0  0  0  0  0  0  0
   11.3964  -14.4711   19.1082 N   0  0  0  0  0  0  0  0  0  0  0  0
   12.7727  -14.3244   19.3979 C   0  0  0  0  0  0  0  0  0  0  0  0
   13.5009  -13.3981   18.8319 N   0  0  0  0  0  0  0  0  0  0  0  0
   13.4642  -15.1600   20.3138 N   0  0  0  0  0  0  0  0  0  0  0  0
   13.5365  -16.5999   20.2074 C   0  0  0  0  0  0  0  0  0  0  0  0
   12.8014  -17.2798   21.3646 C   0  0  0  0  0  0  0  0  0  0  0  0
   13.4871  -16.9920   22.6698 C   0  0  0  0  0  0  0  0  0  0  0  0
   12.6453  -17.4006   23.8219 C   0  0  2  0  0  0  0  0  0  0  0  0
   11.4060  -16.5946   23.8673 N   0  0  0  0  0  0  0  0  0  0  0  0
   13.3189  -17.3630   25.1189 C   0  0  0  0  0  0  0  0  0  0  0  0
   12.8778  -16.6380   26.1862 O   0  0  0  0  0  0  0  0  0  0  0  0
   14.3978  -18.0309   25.3254 O   0  0  0  0  0  0  0  0  0  0  0  0
  2  1  1  1
  2  3  1  0
  3  4  1  0
  4  5  2  0
  4  9  1  0
  5  6  1  0
  6  7  2  0
  8  7  1  0
  9  8  2  0
 10  2  1  0
 11 10  2  0
 12 10  1  0
 13 12  1  0
 13 14  1  1
 15 14  1  0
 16 13  1  0
 16 26  1  0
 17 16  2  0
 19 18  1  0
 20 19  2  0
 21 19  1  0
 22 21  1  0
 23 22  1  0
 24 23  1  0
 25 26  1  0
 25 24  1  6
 27 25  1  0
 28 27  1  0
 29 27  2  0
M  END
$$$$
