FCR.pdb
     RDKit          3D

 29 29  0  0  1  0  0  0  0  0999 V2000
    5.6913  -17.9766   24.9272 N   0  0  0  0  0  0  0  0  0  0  0  0
    6.1230  -16.5919   24.9199 C   0  0  1  0  0  0  0  0  0  0  0  0
    6.4911  -16.2627   26.3534 C   0  0  0  0  0  0  0  0  0  0  0  0
    6.6575  -14.7891   26.4550 C   0  0  0  0  0  0  0  0  0  0  0  0
    7.8674  -14.2090   26.7395 C   0  0  0  0  0  0  0  0  0  0  0  0
    7.9923  -12.8245   26.8247 C   0  0  0  0  0  0  0  0  0  0  0  0
    6.9146  -11.9864   26.6285 C   0  0  0  0  0  0  0  0  0  0  0  0
    5.6981  -12.5701   26.3424 C   0  0  0  0  0  0  0  0  0  0  0  0
    5.5811  -13.9527   26.2590 C   0  0  0  0  0  0  0  0  0  0  0  0
    7.2757  -16.4801   24.0084 C   0  0  0  0  0  0  0  0  0  0  0  0
    8.1552  -17.3496   23.9917 O   0  0  0  0  0  0  0  0  0  0  0  0
    7.4468  -15.3841   23.1058 N   0  0  0  0  0  0  0  0  0  0  0  0
    8.5411  -15.2623   22.2022 C   0  0  1  0  0  0  0  0  0  0  0  0
    8.5854  -13.9666   21.4422 C   0  0  0  0  0  0  0  0  0  0  0  0
    7.5914  -12.6667   22.1879 S   0  0  0  0  0  0  0  0  0  0  0  0
    9.8595  -15.5276   22.8653 C   0  0  0  0  0  0  0  0  0  0  0  0
    9.9509  -15.5080   24.1197 O   0  0  0  0  0  0  0  0  0  0  0  0
   12.7362  -23.1365   20.0764 N   0  0  0  0  0  0  0  0  0  0  0  0
   13.4443  -22.7949   21.2518 C   0  0  0  0  0  0  0  0  0  0  0  0
   14.1905  -23.6626   21.8833 N   0  0  0  0  0  0  0  0  0  0  0  0
   13.4018  -21.5001   21.8322 N   0  0  0  0  0  0  0  0  0  0  0  0
   12.5142  -20.4435   21.4011 C   0  0  0  0  0  0  0  0  0  0  0  0
   12.8017  -19.1383   22.1463 C   0  0  0  0  0  0  0  0  0  0  0  0
   11.8385  -18.0649   21.7259 C   0  0  0  0  0  0  0  0  0  0  0  0
   11.9782  -16.8542   22.5730 C   0  0  2  0  0  0  0  0  0  0  0  0
   11.0323  -15.8052   22.1343 N   0  0  0  0  0  0  0  0  0  0  0  0
   13.3334  -16.3109   22.6496 C   0  0  0  0  0  0  0  0  0  0  0  0
   14.3034  -16.7956   23.4762 O   0  0  0  0  0  0  0  0  0  0  0  0
   13.6904  -15.3145   21.9199 O   0  0  0  0  0  0  0  0  0  0  0  0
  2  1  1  1
  2  3  1  0
  3  4  1  0
  4  5  2  0
  4  9  1  0
  5  6  1  0
  6  7  2  0
  8  7  1  0
  9  8  2  0
 10  2  1  0
 11 10  2  0
 12 10  1  0
 13 12  1  0
 13 14  1  1
 15 14  1  0
 16 13  1  0
 16 26  1  0
 17 16  2  0
 19 18  1  0
 20 19  2  0
 21 19  1  0
 22 21  1  0
 23 22  1  0
 24 23  1  0
 25 26  1  0
 25 24  1  6
 27 25  1  0
 28 27  1  0
 29 27  2  0
M  END
$$$$
