FCR.pdb
     RDKit          3D

 29 29  0  0  1  0  0  0  0  0999 V2000
    5.7714  -17.9043   24.9659 N   0  0  0  0  0  0  0  0  0  0  0  0
    6.2892  -16.5496   24.9429 C   0  0  1  0  0  0  0  0  0  0  0  0
    6.8079  -16.2781   26.3415 C   0  0  0  0  0  0  0  0  0  0  0  0
    6.9032  -14.8049   26.5150 C   0  0  0  0  0  0  0  0  0  0  0  0
    8.1050  -14.1662   26.6855 C   0  0  0  0  0  0  0  0  0  0  0  0
    8.1622  -12.7834   26.8421 C   0  0  0  0  0  0  0  0  0  0  0  0
    7.0233  -12.0055   26.8326 C   0  0  0  0  0  0  0  0  0  0  0  0
    5.8149  -12.6482   26.6611 C   0  0  0  0  0  0  0  0  0  0  0  0
    5.7657  -14.0286   26.5054 C   0  0  0  0  0  0  0  0  0  0  0  0
    7.3583  -16.4889   23.9302 C   0  0  0  0  0  0  0  0  0  0  0  0
    8.2470  -17.3484   23.8966 O   0  0  0  0  0  0  0  0  0  0  0  0
    7.4342  -15.4557   22.9443 N   0  0  0  0  0  0  0  0  0  0  0  0
    8.5737  -15.2248   22.1215 C   0  0  1  0  0  0  0  0  0  0  0  0
    8.5434  -13.9313   21.3570 C   0  0  0  0  0  0  0  0  0  0  0  0
    6.9335  -13.5584   20.6476 S   0  0  0  0  0  0  0  0  0  0  0  0
    9.8603  -15.3561   22.8805 C   0  0  0  0  0  0  0  0  0  0  0  0
    9.8490  -15.7192   24.0848 O   0  0  0  0  0  0  0  0  0  0  0  0
    9.7257  -14.1343   17.4271 N   0  0  0  0  0  0  0  0  0  0  0  0
    9.5068  -15.3913   16.8173 C   0  0  0  0  0  0  0  0  0  0  0  0
    8.4371  -15.6355   16.1069 N   0  0  0  0  0  0  0  0  0  0  0  0
   10.4187  -16.4738   16.9264 N   0  0  0  0  0  0  0  0  0  0  0  0
   10.4393  -17.4133   18.0250 C   0  0  0  0  0  0  0  0  0  0  0  0
   11.4795  -17.0171   19.0750 C   0  0  0  0  0  0  0  0  0  0  0  0
   10.8794  -16.0874   20.0909 C   0  0  0  0  0  0  0  0  0  0  0  0
   11.7173  -16.0126   21.3137 C   0  0  2  0  0  0  0  0  0  0  0  0
   11.1145  -15.0862   22.2967 N   0  0  0  0  0  0  0  0  0  0  0  0
   13.1162  -15.6583   21.0791 C   0  0  0  0  0  0  0  0  0  0  0  0
   14.1505  -16.5430   21.1600 O   0  0  0  0  0  0  0  0  0  0  0  0
   13.4538  -14.4550   20.7776 O   0  0  0  0  0  0  0  0  0  0  0  0
  2  1  1  1
  2  3  1  0
  3  4  1  0
  4  5  2  0
  4  9  1  0
  5  6  1  0
  6  7  2  0
  8  7  1  0
  9  8  2  0
 10  2  1  0
 11 10  2  0
 12 10  1  0
 13 12  1  0
 13 14  1  1
 15 14  1  0
 16 13  1  0
 16 26  1  0
 17 16  2  0
 19 18  1  0
 20 19  2  0
 21 19  1  0
 22 21  1  0
 23 22  1  0
 24 23  1  0
 25 26  1  0
 25 24  1  6
 27 25  1  0
 28 27  1  0
 29 27  2  0
M  END
$$$$
