YYR.pdb
     RDKit          3D

 36 37  0  0  1  0  0  0  0  0999 V2000
   18.1006  -26.3195   -5.0610 O   0  0  0  0  0  0  0  0  0  0  0  0
   18.3156  -25.8642   -6.3578 C   0  0  0  0  0  0  0  0  0  0  0  0
   18.1101  -26.6857   -7.4560 C   0  0  0  0  0  0  0  0  0  0  0  0
   18.3239  -26.2274   -8.7187 C   0  0  0  0  0  0  0  0  0  0  0  0
   18.7542  -24.9145   -8.8979 C   0  0  0  0  0  0  0  0  0  0  0  0
   19.0108  -24.3701  -10.2293 C   0  0  0  0  0  0  0  0  0  0  0  0
   18.1785  -23.1772  -10.6105 C   0  0  2  0  0  0  0  0  0  0  0  0
   16.7790  -23.5831  -10.6227 N   0  0  0  0  0  0  0  0  0  0  0  0
   18.5858  -22.6905  -11.9311 C   0  0  0  0  0  0  0  0  0  0  0  0
   17.7082  -22.4085  -12.7854 O   0  0  0  0  0  0  0  0  0  0  0  0
   18.9600  -24.0911   -7.7937 C   0  0  0  0  0  0  0  0  0  0  0  0
   18.7415  -24.5633   -6.5227 C   0  0  0  0  0  0  0  0  0  0  0  0
   20.9540  -17.2187  -17.8943 O   0  0  0  0  0  0  0  0  0  0  0  0
   20.6231  -18.0424  -16.8079 C   0  0  0  0  0  0  0  0  0  0  0  0
   21.3294  -17.8678  -15.6314 C   0  0  0  0  0  0  0  0  0  0  0  0
   20.9635  -18.7033  -14.5955 C   0  0  0  0  0  0  0  0  0  0  0  0
   19.9757  -19.6522  -14.6837 C   0  0  0  0  0  0  0  0  0  0  0  0
   19.6810  -20.4772  -13.5129 C   0  0  0  0  0  0  0  0  0  0  0  0
   20.3128  -21.8408  -13.5515 C   0  0  2  0  0  0  0  0  0  0  0  0
   19.9371  -22.5151  -12.3071 N   0  0  0  0  0  0  0  0  0  0  0  0
   21.7789  -21.8362  -13.6435 C   0  0  0  0  0  0  0  0  0  0  0  0
   22.4578  -21.1570  -12.8222 O   0  0  0  0  0  0  0  0  0  0  0  0
   19.2981  -19.7944  -15.8689 C   0  0  0  0  0  0  0  0  0  0  0  0
   19.6294  -18.9824  -16.9285 C   0  0  0  0  0  0  0  0  0  0  0  0
   21.0763  -21.4968  -22.2333 N   0  0  0  0  0  0  0  0  0  0  0  0
   22.2666  -20.7679  -21.8519 C   0  0  0  0  0  0  0  0  0  0  0  0
   22.8710  -20.1014  -22.7512 N   0  0  0  0  0  0  0  0  0  0  0  0
   22.7290  -20.8048  -20.5261 N   0  0  0  0  0  0  0  0  0  0  0  0
   22.0886  -21.5435  -19.4559 C   0  0  0  0  0  0  0  0  0  0  0  0
   22.8561  -21.3874  -18.1959 C   0  0  0  0  0  0  0  0  0  0  0  0
   22.3554  -22.0189  -16.9664 C   0  0  0  0  0  0  0  0  0  0  0  0
   23.1913  -21.9684  -15.7686 C   0  0  2  0  0  0  0  0  0  0  0  0
   22.4673  -22.5664  -14.6205 N   0  0  0  0  0  0  0  0  0  0  0  0
   23.8717  -20.8017  -15.3267 C   0  0  0  0  0  0  0  0  0  0  0  0
   23.3638  -19.6510  -15.2835 O   0  0  0  0  0  0  0  0  0  0  0  0
   25.2046  -20.8607  -14.8951 O   0  0  0  0  0  0  0  0  0  0  0  0
  2  1  1  0
  2  3  2  0
  4  3  1  0
  5  4  2  0
  6  5  1  0
  7  6  1  0
  7  8  1  6
  9 20  1  0
  9  7  1  0
 10  9  2  0
 11 12  2  0
 11  5  1  0
 12  2  1  0
 13 14  1  0
 14 15  2  0
 15 16  1  0
 17 16  2  0
 17 18  1  0
 19 18  1  1
 19 20  1  0
 21 19  1  0
 21 33  1  0
 22 21  2  0
 23 17  1  0
 24 14  1  0
 24 23  2  0
 26 27  2  0
 26 25  1  0
 28 26  1  0
 29 28  1  0
 30 29  1  0
 31 30  1  0
 32 33  1  0
 32 31  1  6
 34 32  1  0
 35 34  2  0
 36 34  1  0
M  END
$$$$
