YYR.pdb
     RDKit          3D

 36 37  0  0  1  0  0  0  0  0999 V2000
   31.2168  -20.8394  -10.5193 O   0  0  0  0  0  0  0  0  0  0  0  0
   30.0273  -20.7049  -11.2280 C   0  0  0  0  0  0  0  0  0  0  0  0
   29.9103  -19.8106  -12.2815 C   0  0  0  0  0  0  0  0  0  0  0  0
   28.7413  -19.6895  -12.9661 C   0  0  0  0  0  0  0  0  0  0  0  0
   27.6552  -20.4794  -12.5951 C   0  0  0  0  0  0  0  0  0  0  0  0
   26.3714  -20.3854  -13.2862 C   0  0  0  0  0  0  0  0  0  0  0  0
   25.9954  -21.5820  -14.1154 C   0  0  2  0  0  0  0  0  0  0  0  0
   26.9533  -21.6989  -15.2074 N   0  0  0  0  0  0  0  0  0  0  0  0
   24.6363  -21.4160  -14.6372 C   0  0  0  0  0  0  0  0  0  0  0  0
   24.4398  -20.6668  -15.6269 O   0  0  0  0  0  0  0  0  0  0  0  0
   27.7748  -21.3768  -11.5368 C   0  0  0  0  0  0  0  0  0  0  0  0
   28.9595  -21.4916  -10.8516 C   0  0  0  0  0  0  0  0  0  0  0  0
   16.1370  -23.2473  -16.1716 O   0  0  0  0  0  0  0  0  0  0  0  0
   17.4449  -23.2151  -15.6649 C   0  0  0  0  0  0  0  0  0  0  0  0
   18.4741  -23.5611  -16.5220 C   0  0  0  0  0  0  0  0  0  0  0  0
   19.7394  -23.5121  -15.9726 C   0  0  0  0  0  0  0  0  0  0  0  0
   20.0019  -23.1514  -14.6746 C   0  0  0  0  0  0  0  0  0  0  0  0
   21.3885  -23.1386  -14.2108 C   0  0  0  0  0  0  0  0  0  0  0  0
   22.1770  -21.9455  -14.6743 C   0  0  2  0  0  0  0  0  0  0  0  0
   23.5103  -22.0643  -14.0805 N   0  0  0  0  0  0  0  0  0  0  0  0
   21.6154  -20.6468  -14.2792 C   0  0  0  0  0  0  0  0  0  0  0  0
   21.8077  -20.2090  -13.1095 O   0  0  0  0  0  0  0  0  0  0  0  0
   18.9528  -22.8153  -13.8557 C   0  0  0  0  0  0  0  0  0  0  0  0
   17.6740  -22.8498  -14.3613 C   0  0  0  0  0  0  0  0  0  0  0  0
   22.1133  -12.4228  -17.1535 N   0  0  0  0  0  0  0  0  0  0  0  0
   20.9553  -12.4989  -16.2892 C   0  0  0  0  0  0  0  0  0  0  0  0
   20.3411  -11.4180  -16.0193 N   0  0  0  0  0  0  0  0  0  0  0  0
   20.5342  -13.7347  -15.7714 N   0  0  0  0  0  0  0  0  0  0  0  0
   21.2498  -14.9829  -15.9478 C   0  0  0  0  0  0  0  0  0  0  0  0
   20.4996  -16.0963  -15.3165 C   0  0  0  0  0  0  0  0  0  0  0  0
   21.0064  -17.4701  -15.4479 C   0  0  0  0  0  0  0  0  0  0  0  0
   20.2543  -18.5522  -14.8160 C   0  0  2  0  0  0  0  0  0  0  0  0
   20.8631  -19.8601  -15.1605 N   0  0  0  0  0  0  0  0  0  0  0  0
   18.8397  -18.6729  -14.8754 C   0  0  0  0  0  0  0  0  0  0  0  0
   18.1851  -18.9015  -15.9257 O   0  0  0  0  0  0  0  0  0  0  0  0
   18.0526  -18.5384  -13.7227 O   0  0  0  0  0  0  0  0  0  0  0  0
  2  1  1  0
  2  3  2  0
  4  3  1  0
  5  4  2  0
  6  5  1  0
  7  6  1  0
  7  8  1  6
  9 20  1  0
  9  7  1  0
 10  9  2  0
 11 12  2  0
 11  5  1  0
 12  2  1  0
 13 14  1  0
 14 15  2  0
 15 16  1  0
 17 16  2  0
 17 18  1  0
 19 18  1  1
 19 20  1  0
 21 19  1  0
 21 33  1  0
 22 21  2  0
 23 17  1  0
 24 14  1  0
 24 23  2  0
 26 27  2  0
 26 25  1  0
 28 26  1  0
 29 28  1  0
 30 29  1  0
 31 30  1  0
 32 33  1  0
 32 31  1  6
 34 32  1  0
 35 34  2  0
 36 34  1  0
M  END
$$$$
