YYR.pdb
     RDKit          3D

 36 37  0  0  1  0  0  0  0  0999 V2000
   22.8957  -17.0521  -25.6178 O   0  0  0  0  0  0  0  0  0  0  0  0
   22.2219  -17.2879  -24.4237 C   0  0  0  0  0  0  0  0  0  0  0  0
   20.8414  -17.1854  -24.3400 C   0  0  0  0  0  0  0  0  0  0  0  0
   20.1952  -17.4191  -23.1662 C   0  0  0  0  0  0  0  0  0  0  0  0
   20.9405  -17.7652  -22.0411 C   0  0  0  0  0  0  0  0  0  0  0  0
   20.3030  -18.0173  -20.7508 C   0  0  0  0  0  0  0  0  0  0  0  0
   19.7190  -16.8093  -20.0723 C   0  0  2  0  0  0  0  0  0  0  0  0
   20.8150  -15.9332  -19.6788 N   0  0  0  0  0  0  0  0  0  0  0  0
   18.9449  -17.2254  -18.8999 C   0  0  0  0  0  0  0  0  0  0  0  0
   19.3115  -16.8612  -17.7542 O   0  0  0  0  0  0  0  0  0  0  0  0
   22.3268  -17.8675  -22.1273 C   0  0  0  0  0  0  0  0  0  0  0  0
   22.9700  -17.6295  -23.3172 C   0  0  0  0  0  0  0  0  0  0  0  0
   13.3205  -13.9870  -20.3842 O   0  0  0  0  0  0  0  0  0  0  0  0
   14.1111  -14.8189  -19.5771 C   0  0  0  0  0  0  0  0  0  0  0  0
   14.9990  -14.2129  -18.7064 C   0  0  0  0  0  0  0  0  0  0  0  0
   15.7510  -15.0771  -17.9365 C   0  0  0  0  0  0  0  0  0  0  0  0
   15.6561  -16.4450  -17.9987 C   0  0  0  0  0  0  0  0  0  0  0  0
   16.5095  -17.2533  -17.1289 C   0  0  0  0  0  0  0  0  0  0  0  0
   17.0682  -18.4818  -17.7913 C   0  0  2  0  0  0  0  0  0  0  0  0
   17.7849  -18.0285  -18.9851 N   0  0  0  0  0  0  0  0  0  0  0  0
   16.0610  -19.4660  -18.2097 C   0  0  0  0  0  0  0  0  0  0  0  0
   15.3464  -19.2398  -19.2269 O   0  0  0  0  0  0  0  0  0  0  0  0
   14.7630  -17.0076  -18.8761 C   0  0  0  0  0  0  0  0  0  0  0  0
   13.9922  -16.1841  -19.6633 C   0  0  0  0  0  0  0  0  0  0  0  0
   17.4182  -25.7265  -17.9084 N   0  0  0  0  0  0  0  0  0  0  0  0
   17.2346  -26.0556  -19.3054 C   0  0  0  0  0  0  0  0  0  0  0  0
   17.4323  -27.2597  -19.6650 N   0  0  0  0  0  0  0  0  0  0  0  0
   16.8502  -25.0658  -20.2247 N   0  0  0  0  0  0  0  0  0  0  0  0
   16.6821  -23.6639  -19.8960 C   0  0  0  0  0  0  0  0  0  0  0  0
   15.2527  -23.3685  -19.6310 C   0  0  0  0  0  0  0  0  0  0  0  0
   14.8584  -22.0024  -19.2569 C   0  0  0  0  0  0  0  0  0  0  0  0
   14.8032  -21.6586  -17.8375 C   0  0  2  0  0  0  0  0  0  0  0  0
   15.8569  -20.6654  -17.5160 N   0  0  0  0  0  0  0  0  0  0  0  0
   14.7414  -22.6191  -16.7922 C   0  0  0  0  0  0  0  0  0  0  0  0
   15.4808  -22.6160  -15.7736 O   0  0  0  0  0  0  0  0  0  0  0  0
   13.8173  -23.6732  -16.8312 O   0  0  0  0  0  0  0  0  0  0  0  0
  2  1  1  0
  2  3  2  0
  4  3  1  0
  5  4  2  0
  6  5  1  0
  7  6  1  0
  7  8  1  1
  9 20  1  0
  9  7  1  0
 10  9  2  0
 11 12  2  0
 11  5  1  0
 12  2  1  0
 13 14  1  0
 14 15  2  0
 15 16  1  0
 17 16  2  0
 17 18  1  0
 19 18  1  6
 19 20  1  0
 21 19  1  0
 21 33  1  0
 22 21  2  0
 23 17  1  0
 24 14  1  0
 24 23  2  0
 26 27  2  0
 26 25  1  0
 28 26  1  0
 29 28  1  0
 30 29  1  0
 31 30  1  0
 32 33  1  0
 32 31  1  6
 34 32  1  0
 35 34  2  0
 36 34  1  0
M  END
$$$$
