YYR.pdb
     RDKit          3D

 36 37  0  0  1  0  0  0  0  0999 V2000
   21.4656  -17.3600  -17.9383 O   0  0  0  0  0  0  0  0  0  0  0  0
   21.8725  -17.9684  -16.7553 C   0  0  0  0  0  0  0  0  0  0  0  0
   22.5074  -17.2496  -15.7537 C   0  0  0  0  0  0  0  0  0  0  0  0
   22.8997  -17.8571  -14.6017 C   0  0  0  0  0  0  0  0  0  0  0  0
   22.6547  -19.2188  -14.4377 C   0  0  0  0  0  0  0  0  0  0  0  0
   23.0627  -19.9276  -13.2269 C   0  0  0  0  0  0  0  0  0  0  0  0
   24.5254  -20.2643  -13.1378 C   0  0  2  0  0  0  0  0  0  0  0  0
   24.8161  -21.2971  -14.1239 N   0  0  0  0  0  0  0  0  0  0  0  0
   24.8438  -20.7361  -11.7877 C   0  0  0  0  0  0  0  0  0  0  0  0
   24.5703  -21.9193  -11.4642 O   0  0  0  0  0  0  0  0  0  0  0  0
   22.0169  -19.9389  -15.4448 C   0  0  0  0  0  0  0  0  0  0  0  0
   21.6247  -19.3163  -16.6045 C   0  0  0  0  0  0  0  0  0  0  0  0
   28.5192  -20.6452   -3.7049 O   0  0  0  0  0  0  0  0  0  0  0  0
   28.1254  -20.3880   -5.0266 C   0  0  0  0  0  0  0  0  0  0  0  0
   27.4894  -19.1869   -5.2848 C   0  0  0  0  0  0  0  0  0  0  0  0
   27.1241  -18.9851   -6.6004 C   0  0  0  0  0  0  0  0  0  0  0  0
   27.3561  -19.8847   -7.6108 C   0  0  0  0  0  0  0  0  0  0  0  0
   26.9199  -19.5534   -8.9665 C   0  0  0  0  0  0  0  0  0  0  0  0
   25.8237  -20.4394   -9.4895 C   0  0  2  0  0  0  0  0  0  0  0  0
   25.4547  -19.9203  -10.8081 N   0  0  0  0  0  0  0  0  0  0  0  0
   24.6132  -20.4749   -8.6578 C   0  0  0  0  0  0  0  0  0  0  0  0
   23.8177  -19.4932   -8.6641 O   0  0  0  0  0  0  0  0  0  0  0  0
   27.9898  -21.0654   -7.3135 C   0  0  0  0  0  0  0  0  0  0  0  0
   28.3722  -21.3089   -6.0148 C   0  0  0  0  0  0  0  0  0  0  0  0
   17.3865  -24.5651   -6.1472 N   0  0  0  0  0  0  0  0  0  0  0  0
   17.7812  -23.9521   -7.3971 C   0  0  0  0  0  0  0  0  0  0  0  0
   16.8648  -23.4998   -8.1546 N   0  0  0  0  0  0  0  0  0  0  0  0
   19.1380  -23.8666   -7.7501 N   0  0  0  0  0  0  0  0  0  0  0  0
   20.2355  -24.2406   -6.8801 C   0  0  0  0  0  0  0  0  0  0  0  0
   21.0605  -23.0507   -6.5568 C   0  0  0  0  0  0  0  0  0  0  0  0
   22.2938  -22.8029   -7.3177 C   0  0  0  0  0  0  0  0  0  0  0  0
   23.1155  -21.6503   -6.9539 C   0  0  2  0  0  0  0  0  0  0  0  0
   24.2988  -21.5710   -7.8447 N   0  0  0  0  0  0  0  0  0  0  0  0
   23.5195  -21.3542   -5.6241 C   0  0  0  0  0  0  0  0  0  0  0  0
   22.7872  -20.8061   -4.7596 O   0  0  0  0  0  0  0  0  0  0  0  0
   24.8105  -21.6651   -5.1734 O   0  0  0  0  0  0  0  0  0  0  0  0
  2  1  1  0
  2  3  2  0
  4  3  1  0
  5  4  2  0
  6  5  1  0
  7  6  1  0
  7  8  1  6
  9 20  1  0
  9  7  1  0
 10  9  2  0
 11 12  2  0
 11  5  1  0
 12  2  1  0
 13 14  1  0
 14 15  2  0
 15 16  1  0
 17 16  2  0
 17 18  1  0
 19 18  1  1
 19 20  1  0
 21 19  1  0
 21 33  1  0
 22 21  2  0
 23 17  1  0
 24 14  1  0
 24 23  2  0
 26 27  2  0
 26 25  1  0
 28 26  1  0
 29 28  1  0
 30 29  1  0
 31 30  1  0
 32 33  1  0
 32 31  1  1
 34 32  1  0
 35 34  2  0
 36 34  1  0
M  END
$$$$
