YYR.pdb
     RDKit          3D

 36 37  0  0  1  0  0  0  0  0999 V2000
   18.3595  -25.2048   -8.6473 O   0  0  0  0  0  0  0  0  0  0  0  0
   18.9879  -24.4735   -9.6501 C   0  0  0  0  0  0  0  0  0  0  0  0
   18.5656  -24.5435  -10.9691 C   0  0  0  0  0  0  0  0  0  0  0  0
   19.1889  -23.8227  -11.9396 C   0  0  0  0  0  0  0  0  0  0  0  0
   20.2636  -23.0072  -11.5916 C   0  0  0  0  0  0  0  0  0  0  0  0
   20.9789  -22.2184  -12.5920 C   0  0  0  0  0  0  0  0  0  0  0  0
   21.0481  -20.7411  -12.3206 C   0  0  2  0  0  0  0  0  0  0  0  0
   19.6867  -20.2254  -12.2556 N   0  0  0  0  0  0  0  0  0  0  0  0
   21.8011  -20.0762  -13.3873 C   0  0  0  0  0  0  0  0  0  0  0  0
   21.1858  -19.5872  -14.3680 O   0  0  0  0  0  0  0  0  0  0  0  0
   20.6862  -22.9383  -10.2663 C   0  0  0  0  0  0  0  0  0  0  0  0
   20.0503  -23.6701   -9.2936 C   0  0  0  0  0  0  0  0  0  0  0  0
   28.6675  -16.2950  -17.5046 O   0  0  0  0  0  0  0  0  0  0  0  0
   27.8252  -16.9519  -16.5950 C   0  0  0  0  0  0  0  0  0  0  0  0
   26.9322  -16.1795  -15.8740 C   0  0  0  0  0  0  0  0  0  0  0  0
   26.1280  -16.8758  -14.9946 C   0  0  0  0  0  0  0  0  0  0  0  0
   26.1778  -18.2360  -14.8173 C   0  0  0  0  0  0  0  0  0  0  0  0
   25.2710  -18.8571  -13.8530 C   0  0  0  0  0  0  0  0  0  0  0  0
   23.9287  -19.2218  -14.4233 C   0  0  2  0  0  0  0  0  0  0  0  0
   23.2089  -19.9494  -13.3760 N   0  0  0  0  0  0  0  0  0  0  0  0
   23.9801  -20.0744  -15.6185 C   0  0  0  0  0  0  0  0  0  0  0  0
   24.2492  -21.3036  -15.5022 O   0  0  0  0  0  0  0  0  0  0  0  0
   27.0780  -18.9669  -15.5518 C   0  0  0  0  0  0  0  0  0  0  0  0
   27.8997  -18.3143  -16.4411 C   0  0  0  0  0  0  0  0  0  0  0  0
   17.3702  -22.1959  -19.1722 N   0  0  0  0  0  0  0  0  0  0  0  0
   17.9610  -22.4650  -17.8791 C   0  0  0  0  0  0  0  0  0  0  0  0
   17.2408  -23.0419  -17.0033 N   0  0  0  0  0  0  0  0  0  0  0  0
   19.2895  -22.0949  -17.6130 N   0  0  0  0  0  0  0  0  0  0  0  0
   20.1520  -21.4076  -18.5538 C   0  0  0  0  0  0  0  0  0  0  0  0
   21.5144  -21.2602  -17.9854 C   0  0  0  0  0  0  0  0  0  0  0  0
   22.5418  -20.5459  -18.7572 C   0  0  0  0  0  0  0  0  0  0  0  0
   23.8603  -20.3602  -18.1546 C   0  0  2  0  0  0  0  0  0  0  0  0
   23.7387  -19.5728  -16.9036 N   0  0  0  0  0  0  0  0  0  0  0  0
   25.0024  -19.9122  -18.8717 C   0  0  0  0  0  0  0  0  0  0  0  0
   25.2198  -18.7152  -19.1944 O   0  0  0  0  0  0  0  0  0  0  0  0
   25.9978  -20.8104  -19.2822 O   0  0  0  0  0  0  0  0  0  0  0  0
  2  1  1  0
  2  3  2  0
  4  3  1  0
  5  4  2  0
  6  5  1  0
  7  6  1  0
  7  8  1  6
  9 20  1  0
  9  7  1  0
 10  9  2  0
 11 12  2  0
 11  5  1  0
 12  2  1  0
 13 14  1  0
 14 15  2  0
 15 16  1  0
 17 16  2  0
 17 18  1  0
 19 18  1  1
 19 20  1  0
 21 19  1  0
 21 33  1  0
 22 21  2  0
 23 17  1  0
 24 14  1  0
 24 23  2  0
 26 27  2  0
 26 25  1  0
 28 26  1  0
 29 28  1  0
 30 29  1  0
 31 30  1  0
 32 33  1  0
 32 31  1  6
 34 32  1  0
 35 34  2  0
 36 34  1  0
M  END
$$$$
