YYR.pdb
     RDKit          3D

 36 37  0  0  1  0  0  0  0  0999 V2000
   25.2311  -21.4165   -7.9769 O   0  0  0  0  0  0  0  0  0  0  0  0
   25.0404  -21.0729   -9.3114 C   0  0  0  0  0  0  0  0  0  0  0  0
   23.8969  -20.4100   -9.7311 C   0  0  0  0  0  0  0  0  0  0  0  0
   23.7234  -20.0796  -11.0391 C   0  0  0  0  0  0  0  0  0  0  0  0
   24.7141  -20.4165  -11.9589 C   0  0  0  0  0  0  0  0  0  0  0  0
   24.5785  -20.0974  -13.3783 C   0  0  0  0  0  0  0  0  0  0  0  0
   23.2669  -20.4829  -14.0043 C   0  0  2  0  0  0  0  0  0  0  0  0
   23.1686  -21.9368  -13.9975 N   0  0  0  0  0  0  0  0  0  0  0  0
   23.2016  -19.9679  -15.3745 C   0  0  0  0  0  0  0  0  0  0  0  0
   23.6249  -20.6753  -16.3231 O   0  0  0  0  0  0  0  0  0  0  0  0
   25.8617  -21.0823  -11.5354 C   0  0  0  0  0  0  0  0  0  0  0  0
   26.0275  -21.4116  -10.2124 C   0  0  0  0  0  0  0  0  0  0  0  0
   21.0568  -14.6405  -22.1133 O   0  0  0  0  0  0  0  0  0  0  0  0
   21.2344  -15.2215  -20.8487 C   0  0  0  0  0  0  0  0  0  0  0  0
   20.3802  -16.2482  -20.4882 C   0  0  0  0  0  0  0  0  0  0  0  0
   20.5992  -16.7836  -19.2351 C   0  0  0  0  0  0  0  0  0  0  0  0
   21.5822  -16.3581  -18.3768 C   0  0  0  0  0  0  0  0  0  0  0  0
   21.7127  -17.0076  -17.0733 C   0  0  0  0  0  0  0  0  0  0  0  0
   22.6073  -18.2158  -17.0794 C   0  0  2  0  0  0  0  0  0  0  0  0
   22.6779  -18.6954  -15.6975 N   0  0  0  0  0  0  0  0  0  0  0  0
   23.9774  -17.9634  -17.5454 C   0  0  0  0  0  0  0  0  0  0  0  0
   24.7898  -17.3441  -16.8017 O   0  0  0  0  0  0  0  0  0  0  0  0
   22.4092  -15.3363  -18.7719 C   0  0  0  0  0  0  0  0  0  0  0  0
   22.2275  -14.7728  -20.0134 C   0  0  0  0  0  0  0  0  0  0  0  0
   30.1875  -22.9841  -19.1371 N   0  0  0  0  0  0  0  0  0  0  0  0
   29.5287  -22.3270  -18.0289 C   0  0  0  0  0  0  0  0  0  0  0  0
   29.4967  -22.9327  -16.9107 N   0  0  0  0  0  0  0  0  0  0  0  0
   28.9467  -21.0599  -18.1975 N   0  0  0  0  0  0  0  0  0  0  0  0
   28.8473  -20.3668  -19.4668 C   0  0  0  0  0  0  0  0  0  0  0  0
   28.1150  -19.0880  -19.2955 C   0  0  0  0  0  0  0  0  0  0  0  0
   26.7281  -19.1136  -18.8085 C   0  0  0  0  0  0  0  0  0  0  0  0
   25.7853  -18.1330  -19.3428 C   0  0  2  0  0  0  0  0  0  0  0  0
   24.4283  -18.3884  -18.8014 N   0  0  0  0  0  0  0  0  0  0  0  0
   25.6773  -17.8085  -20.7221 C   0  0  0  0  0  0  0  0  0  0  0  0
   24.8894  -18.3678  -21.5286 O   0  0  0  0  0  0  0  0  0  0  0  0
   26.4737  -16.8063  -21.2946 O   0  0  0  0  0  0  0  0  0  0  0  0
  2  1  1  0
  2  3  2  0
  4  3  1  0
  5  4  2  0
  6  5  1  0
  7  6  1  0
  7  8  1  6
  9 20  1  0
  9  7  1  0
 10  9  2  0
 11 12  2  0
 11  5  1  0
 12  2  1  0
 13 14  1  0
 14 15  2  0
 15 16  1  0
 17 16  2  0
 17 18  1  0
 19 18  1  1
 19 20  1  0
 21 19  1  0
 21 33  1  0
 22 21  2  0
 23 17  1  0
 24 14  1  0
 24 23  2  0
 26 27  2  0
 26 25  1  0
 28 26  1  0
 29 28  1  0
 30 29  1  0
 31 30  1  0
 32 33  1  0
 32 31  1  6
 34 32  1  0
 35 34  2  0
 36 34  1  0
M  END
$$$$
