YYR.pdb
     RDKit          3D

 36 37  0  0  1  0  0  0  0  0999 V2000
   25.3843  -12.9029  -21.6827 O   0  0  0  0  0  0  0  0  0  0  0  0
   24.7856  -12.1220  -20.6994 C   0  0  0  0  0  0  0  0  0  0  0  0
   23.9543  -12.6796  -19.7396 C   0  0  0  0  0  0  0  0  0  0  0  0
   23.3757  -11.9042  -18.7835 C   0  0  0  0  0  0  0  0  0  0  0  0
   23.6294  -10.5343  -18.7787 C   0  0  0  0  0  0  0  0  0  0  0  0
   23.0277   -9.6499  -17.7834 C   0  0  0  0  0  0  0  0  0  0  0  0
   23.9485   -9.1906  -16.6871 C   0  0  2  0  0  0  0  0  0  0  0  0
   24.3611  -10.3585  -15.9194 N   0  0  0  0  0  0  0  0  0  0  0  0
   23.2544   -8.2276  -15.8281 C   0  0  0  0  0  0  0  0  0  0  0  0
   22.5821   -8.6417  -14.8502 O   0  0  0  0  0  0  0  0  0  0  0  0
   24.4645   -9.9763  -19.7434 C   0  0  0  0  0  0  0  0  0  0  0  0
   25.0440  -10.7677  -20.7048 C   0  0  0  0  0  0  0  0  0  0  0  0
   25.7594   -1.6064  -18.6507 O   0  0  0  0  0  0  0  0  0  0  0  0
   25.2289   -2.4437  -17.6578 C   0  0  0  0  0  0  0  0  0  0  0  0
   24.1231   -1.9916  -16.9603 C   0  0  0  0  0  0  0  0  0  0  0  0
   23.6421   -2.8541  -15.9961 C   0  0  0  0  0  0  0  0  0  0  0  0
   24.1911   -4.0809  -15.7173 C   0  0  0  0  0  0  0  0  0  0  0  0
   23.5881   -4.9038  -14.6698 C   0  0  0  0  0  0  0  0  0  0  0  0
   22.5767   -5.8939  -15.1767 C   0  0  2  0  0  0  0  0  0  0  0  0
   23.2992   -6.8307  -16.0396 N   0  0  0  0  0  0  0  0  0  0  0  0
   21.4801   -5.3065  -15.9579 C   0  0  0  0  0  0  0  0  0  0  0  0
   21.5745   -5.2323  -17.2158 O   0  0  0  0  0  0  0  0  0  0  0  0
   25.2882   -4.4931  -16.4318 C   0  0  0  0  0  0  0  0  0  0  0  0
   25.8014   -3.6655  -17.4032 C   0  0  0  0  0  0  0  0  0  0  0  0
   16.9389   -8.1106  -20.9068 N   0  0  0  0  0  0  0  0  0  0  0  0
   15.9382   -7.2990  -20.2484 C   0  0  0  0  0  0  0  0  0  0  0  0
   14.7182   -7.4962  -20.5499 N   0  0  0  0  0  0  0  0  0  0  0  0
   16.3169   -6.3270  -19.3078 N   0  0  0  0  0  0  0  0  0  0  0  0
   17.6874   -5.9406  -19.0362 C   0  0  0  0  0  0  0  0  0  0  0  0
   17.7244   -4.8846  -17.9948 C   0  0  0  0  0  0  0  0  0  0  0  0
   18.3403   -5.1802  -16.6930 C   0  0  0  0  0  0  0  0  0  0  0  0
   19.1973   -4.1657  -16.0828 C   0  0  2  0  0  0  0  0  0  0  0  0
   20.3140   -4.8173  -15.3559 N   0  0  0  0  0  0  0  0  0  0  0  0
   18.7098   -3.0826  -15.3028 C   0  0  0  0  0  0  0  0  0  0  0  0
   18.6844   -1.8828  -15.6822 O   0  0  0  0  0  0  0  0  0  0  0  0
   18.2077   -3.2898  -14.0100 O   0  0  0  0  0  0  0  0  0  0  0  0
  2  1  1  0
  2  3  2  0
  4  3  1  0
  5  4  2  0
  6  5  1  0
  7  6  1  0
  7  8  1  1
  9 20  1  0
  9  7  1  0
 10  9  2  0
 11 12  2  0
 11  5  1  0
 12  2  1  0
 13 14  1  0
 14 15  2  0
 15 16  1  0
 17 16  2  0
 17 18  1  0
 19 18  1  6
 19 20  1  0
 21 19  1  0
 21 33  1  0
 22 21  2  0
 23 17  1  0
 24 14  1  0
 24 23  2  0
 26 27  2  0
 26 25  1  0
 28 26  1  0
 29 28  1  0
 30 29  1  0
 31 30  1  0
 32 33  1  0
 32 31  1  1
 34 32  1  0
 35 34  2  0
 36 34  1  0
M  END
$$$$
