YYR.pdb
     RDKit          3D

 36 37  0  0  1  0  0  0  0  0999 V2000
   22.5627  -30.9103  -14.3774 O   0  0  0  0  0  0  0  0  0  0  0  0
   22.6086  -29.5497  -14.6640 C   0  0  0  0  0  0  0  0  0  0  0  0
   21.8741  -28.6309  -13.9297 C   0  0  0  0  0  0  0  0  0  0  0  0
   21.9286  -27.3032  -14.2204 C   0  0  0  0  0  0  0  0  0  0  0  0
   22.7362  -26.8736  -15.2712 C   0  0  0  0  0  0  0  0  0  0  0  0
   22.8266  -25.4619  -15.6370 C   0  0  0  0  0  0  0  0  0  0  0  0
   24.2072  -24.8686  -15.5850 C   0  0  2  0  0  0  0  0  0  0  0  0
   24.6835  -24.9427  -14.2098 N   0  0  0  0  0  0  0  0  0  0  0  0
   24.1660  -23.4772  -16.0423 C   0  0  0  0  0  0  0  0  0  0  0  0
   23.6874  -23.2106  -17.1735 O   0  0  0  0  0  0  0  0  0  0  0  0
   23.4731  -27.7981  -16.0075 C   0  0  0  0  0  0  0  0  0  0  0  0
   23.4112  -29.1366  -15.7061 C   0  0  0  0  0  0  0  0  0  0  0  0
   18.8757  -21.0762  -13.0269 O   0  0  0  0  0  0  0  0  0  0  0  0
   20.2070  -20.8545  -13.4102 C   0  0  0  0  0  0  0  0  0  0  0  0
   20.4297  -20.1302  -14.5675 C   0  0  0  0  0  0  0  0  0  0  0  0
   21.7564  -19.9414  -14.8978 C   0  0  0  0  0  0  0  0  0  0  0  0
   22.8096  -20.4203  -14.1592 C   0  0  0  0  0  0  0  0  0  0  0  0
   24.1728  -20.1528  -14.6153 C   0  0  0  0  0  0  0  0  0  0  0  0
   24.6138  -21.0171  -15.7636 C   0  0  2  0  0  0  0  0  0  0  0  0
   24.6423  -22.3948  -15.2680 N   0  0  0  0  0  0  0  0  0  0  0  0
   25.9440  -20.6967  -16.2983 C   0  0  0  0  0  0  0  0  0  0  0  0
   26.9780  -21.0736  -15.6775 O   0  0  0  0  0  0  0  0  0  0  0  0
   22.5466  -21.1348  -13.0171 C   0  0  0  0  0  0  0  0  0  0  0  0
   21.2383  -21.3471  -12.6492 C   0  0  0  0  0  0  0  0  0  0  0  0
   31.6720  -24.8994  -18.3957 N   0  0  0  0  0  0  0  0  0  0  0  0
   30.8278  -24.2881  -17.3919 C   0  0  0  0  0  0  0  0  0  0  0  0
   30.7272  -24.8683  -16.2643 N   0  0  0  0  0  0  0  0  0  0  0  0
   30.1464  -23.0915  -17.6684 N   0  0  0  0  0  0  0  0  0  0  0  0
   30.1906  -22.3994  -18.9413 C   0  0  0  0  0  0  0  0  0  0  0  0
   29.4642  -21.1092  -18.8476 C   0  0  0  0  0  0  0  0  0  0  0  0
   28.1299  -21.0787  -18.2310 C   0  0  0  0  0  0  0  0  0  0  0  0
   27.4112  -19.8067  -18.1913 C   0  0  2  0  0  0  0  0  0  0  0  0
   26.1165  -19.9788  -17.4884 N   0  0  0  0  0  0  0  0  0  0  0  0
   27.2124  -18.9739  -19.3254 C   0  0  0  0  0  0  0  0  0  0  0  0
   28.1079  -18.6725  -20.1568 O   0  0  0  0  0  0  0  0  0  0  0  0
   25.9573  -18.4123  -19.6001 O   0  0  0  0  0  0  0  0  0  0  0  0
  2  1  1  0
  2  3  2  0
  4  3  1  0
  5  4  2  0
  6  5  1  0
  7  6  1  0
  7  8  1  1
  9 20  1  0
  9  7  1  0
 10  9  2  0
 11 12  2  0
 11  5  1  0
 12  2  1  0
 13 14  1  0
 14 15  2  0
 15 16  1  0
 17 16  2  0
 17 18  1  0
 19 18  1  1
 19 20  1  0
 21 19  1  0
 21 33  1  0
 22 21  2  0
 23 17  1  0
 24 14  1  0
 24 23  2  0
 26 27  2  0
 26 25  1  0
 28 26  1  0
 29 28  1  0
 30 29  1  0
 31 30  1  0
 32 33  1  0
 32 31  1  6
 34 32  1  0
 35 34  2  0
 36 34  1  0
M  END
$$$$
