YYR.pdb
     RDKit          3D

 36 37  0  0  1  0  0  0  0  0999 V2000
   27.0426  -19.6364  -24.1520 O   0  0  0  0  0  0  0  0  0  0  0  0
   26.0647  -19.0174  -23.3802 C   0  0  0  0  0  0  0  0  0  0  0  0
   24.9667  -18.4017  -23.9619 C   0  0  0  0  0  0  0  0  0  0  0  0
   24.0176  -17.8004  -23.1952 C   0  0  0  0  0  0  0  0  0  0  0  0
   24.1616  -17.8102  -21.8095 C   0  0  0  0  0  0  0  0  0  0  0  0
   23.1804  -17.1714  -20.9354 C   0  0  0  0  0  0  0  0  0  0  0  0
   23.2606  -15.6717  -20.8621 C   0  0  2  0  0  0  0  0  0  0  0  0
   24.5185  -15.3135  -20.2197 N   0  0  0  0  0  0  0  0  0  0  0  0
   22.1243  -15.1516  -20.0971 C   0  0  0  0  0  0  0  0  0  0  0  0
   22.2663  -14.8928  -18.8754 O   0  0  0  0  0  0  0  0  0  0  0  0
   25.2651  -18.4290  -21.2272 C   0  0  0  0  0  0  0  0  0  0  0  0
   26.2180  -19.0334  -22.0101 C   0  0  0  0  0  0  0  0  0  0  0  0
   14.7014  -10.8105  -18.3191 O   0  0  0  0  0  0  0  0  0  0  0  0
   15.8652  -11.3765  -18.8608 C   0  0  0  0  0  0  0  0  0  0  0  0
   15.7239  -12.2109  -19.9551 C   0  0  0  0  0  0  0  0  0  0  0  0
   16.8996  -12.7399  -20.4478 C   0  0  0  0  0  0  0  0  0  0  0  0
   18.1405  -12.4826  -19.9204 C   0  0  0  0  0  0  0  0  0  0  0  0
   19.3126  -13.1052  -20.5340 C   0  0  0  0  0  0  0  0  0  0  0  0
   19.7367  -14.3894  -19.8775 C   0  0  2  0  0  0  0  0  0  0  0  0
   20.8515  -14.9182  -20.6661 N   0  0  0  0  0  0  0  0  0  0  0  0
   18.6926  -15.4209  -19.8142 C   0  0  0  0  0  0  0  0  0  0  0  0
   18.3477  -16.0309  -20.8656 O   0  0  0  0  0  0  0  0  0  0  0  0
   18.2383  -11.6494  -18.8341 C   0  0  0  0  0  0  0  0  0  0  0  0
   17.0919  -11.0990  -18.3098 C   0  0  0  0  0  0  0  0  0  0  0  0
   13.8251  -19.7530  -14.2515 N   0  0  0  0  0  0  0  0  0  0  0  0
   12.9804  -19.5370  -15.4063 C   0  0  0  0  0  0  0  0  0  0  0  0
   11.9006  -20.2046  -15.4880 N   0  0  0  0  0  0  0  0  0  0  0  0
   13.3541  -18.6160  -16.3987 N   0  0  0  0  0  0  0  0  0  0  0  0
   14.5909  -17.8601  -16.3902 C   0  0  0  0  0  0  0  0  0  0  0  0
   14.6120  -16.9007  -17.5216 C   0  0  0  0  0  0  0  0  0  0  0  0
   15.8225  -16.1027  -17.7650 C   0  0  0  0  0  0  0  0  0  0  0  0
   16.9239  -16.7175  -18.5032 C   0  0  2  0  0  0  0  0  0  0  0  0
   18.0531  -15.7623  -18.6159 N   0  0  0  0  0  0  0  0  0  0  0  0
   16.7662  -17.3926  -19.7436 C   0  0  0  0  0  0  0  0  0  0  0  0
   16.9067  -18.6328  -19.9055 O   0  0  0  0  0  0  0  0  0  0  0  0
   16.4321  -16.6923  -20.9116 O   0  0  0  0  0  0  0  0  0  0  0  0
  2  1  1  0
  2  3  2  0
  4  3  1  0
  5  4  2  0
  6  5  1  0
  7  6  1  0
  7  8  1  1
  9 20  1  0
  9  7  1  0
 10  9  2  0
 11 12  2  0
 11  5  1  0
 12  2  1  0
 13 14  1  0
 14 15  2  0
 15 16  1  0
 17 16  2  0
 17 18  1  0
 19 18  1  6
 19 20  1  0
 21 19  1  0
 21 33  1  0
 22 21  2  0
 23 17  1  0
 24 14  1  0
 24 23  2  0
 26 27  2  0
 26 25  1  0
 28 26  1  0
 29 28  1  0
 30 29  1  0
 31 30  1  0
 32 33  1  0
 32 31  1  6
 34 32  1  0
 35 34  2  0
 36 34  1  0
M  END
$$$$
