YYR.pdb
     RDKit          3D

 36 37  0  0  1  0  0  0  0  0999 V2000
   21.1298  -22.5622  -16.7132 O   0  0  0  0  0  0  0  0  0  0  0  0
   22.4595  -22.8587  -16.9946 C   0  0  0  0  0  0  0  0  0  0  0  0
   23.3361  -23.2644  -15.9996 C   0  0  0  0  0  0  0  0  0  0  0  0
   24.6338  -23.5516  -16.2889 C   0  0  0  0  0  0  0  0  0  0  0  0
   25.0756  -23.4332  -17.6049 C   0  0  0  0  0  0  0  0  0  0  0  0
   26.4605  -23.7175  -17.9738 C   0  0  0  0  0  0  0  0  0  0  0  0
   27.4781  -22.7316  -17.4707 C   0  0  2  0  0  0  0  0  0  0  0  0
   27.1786  -21.4300  -18.0536 N   0  0  0  0  0  0  0  0  0  0  0  0
   28.8233  -23.1701  -17.8516 C   0  0  0  0  0  0  0  0  0  0  0  0
   29.3425  -22.7300  -18.9082 O   0  0  0  0  0  0  0  0  0  0  0  0
   24.1936  -23.0256  -18.6027 C   0  0  0  0  0  0  0  0  0  0  0  0
   22.8851  -22.7379  -18.3004 C   0  0  0  0  0  0  0  0  0  0  0  0
   37.0329  -26.1996  -16.8493 O   0  0  0  0  0  0  0  0  0  0  0  0
   35.7006  -25.8019  -16.6620 C   0  0  0  0  0  0  0  0  0  0  0  0
   35.3140  -24.5834  -17.1907 C   0  0  0  0  0  0  0  0  0  0  0  0
   33.9938  -24.2416  -16.9779 C   0  0  0  0  0  0  0  0  0  0  0  0
   33.0957  -25.0248  -16.2967 C   0  0  0  0  0  0  0  0  0  0  0  0
   31.7217  -24.5505  -16.1380 C   0  0  0  0  0  0  0  0  0  0  0  0
   30.9681  -24.4165  -17.4319 C   0  0  2  0  0  0  0  0  0  0  0  0
   29.5870  -24.0775  -17.0826 N   0  0  0  0  0  0  0  0  0  0  0  0
   30.9450  -25.6310  -18.2581 C   0  0  0  0  0  0  0  0  0  0  0  0
   30.2152  -26.6060  -17.9213 O   0  0  0  0  0  0  0  0  0  0  0  0
   33.5187  -26.2271  -15.7872 C   0  0  0  0  0  0  0  0  0  0  0  0
   34.8267  -26.6086  -15.9757 C   0  0  0  0  0  0  0  0  0  0  0  0
   34.3137  -29.8725  -23.5112 N   0  0  0  0  0  0  0  0  0  0  0  0
   33.4508  -29.6756  -24.6559 C   0  0  0  0  0  0  0  0  0  0  0  0
   33.2876  -30.6525  -25.4542 N   0  0  0  0  0  0  0  0  0  0  0  0
   32.8198  -28.4386  -24.8666 N   0  0  0  0  0  0  0  0  0  0  0  0
   32.9263  -27.3023  -23.9727 C   0  0  0  0  0  0  0  0  0  0  0  0
   32.3141  -27.6246  -22.6604 C   0  0  0  0  0  0  0  0  0  0  0  0
   32.2399  -26.5822  -21.6264 C   0  0  0  0  0  0  0  0  0  0  0  0
   31.7124  -26.9427  -20.3120 C   0  0  2  0  0  0  0  0  0  0  0  0
   31.7113  -25.7549  -19.4238 N   0  0  0  0  0  0  0  0  0  0  0  0
   32.1452  -28.0735  -19.5682 C   0  0  0  0  0  0  0  0  0  0  0  0
   33.0983  -28.0665  -18.7462 O   0  0  0  0  0  0  0  0  0  0  0  0
   31.5141  -29.3178  -19.7094 O   0  0  0  0  0  0  0  0  0  0  0  0
  2  1  1  0
  2  3  2  0
  4  3  1  0
  5  4  2  0
  6  5  1  0
  7  6  1  0
  7  8  1  6
  9 20  1  0
  9  7  1  0
 10  9  2  0
 11 12  2  0
 11  5  1  0
 12  2  1  0
 13 14  1  0
 14 15  2  0
 15 16  1  0
 17 16  2  0
 17 18  1  0
 19 18  1  1
 19 20  1  0
 21 19  1  0
 21 33  1  0
 22 21  2  0
 23 17  1  0
 24 14  1  0
 24 23  2  0
 26 27  2  0
 26 25  1  0
 28 26  1  0
 29 28  1  0
 30 29  1  0
 31 30  1  0
 32 33  1  0
 32 31  1  6
 34 32  1  0
 35 34  2  0
 36 34  1  0
M  END
$$$$
