YYR.pdb
     RDKit          3D

 36 37  0  0  1  0  0  0  0  0999 V2000
   18.2317  -29.5511   -9.5913 O   0  0  0  0  0  0  0  0  0  0  0  0
   18.6789  -28.7224  -10.6153 C   0  0  0  0  0  0  0  0  0  0  0  0
   18.0710  -28.7207  -11.8617 C   0  0  0  0  0  0  0  0  0  0  0  0
   18.5183  -27.9049  -12.8540 C   0  0  0  0  0  0  0  0  0  0  0  0
   19.6011  -27.0651  -12.6025 C   0  0  0  0  0  0  0  0  0  0  0  0
   20.1324  -26.1751  -13.6323 C   0  0  0  0  0  0  0  0  0  0  0  0
   19.5893  -24.7731  -13.6168 C   0  0  2  0  0  0  0  0  0  0  0  0
   18.1846  -24.8242  -14.0012 N   0  0  0  0  0  0  0  0  0  0  0  0
   20.3493  -23.9371  -14.5499 C   0  0  0  0  0  0  0  0  0  0  0  0
   20.0581  -23.9508  -15.7724 O   0  0  0  0  0  0  0  0  0  0  0  0
   20.2102  -27.0684  -11.3501 C   0  0  0  0  0  0  0  0  0  0  0  0
   19.7512  -27.8959  -10.3547 C   0  0  0  0  0  0  0  0  0  0  0  0
   22.5192  -20.4447   -9.0181 O   0  0  0  0  0  0  0  0  0  0  0  0
   22.4032  -20.5518  -10.4121 C   0  0  0  0  0  0  0  0  0  0  0  0
   23.5695  -20.5421  -11.1560 C   0  0  0  0  0  0  0  0  0  0  0  0
   23.3980  -20.6506  -12.5212 C   0  0  0  0  0  0  0  0  0  0  0  0
   22.1765  -20.7622  -13.1375 C   0  0  0  0  0  0  0  0  0  0  0  0
   22.1271  -20.8707  -14.5948 C   0  0  0  0  0  0  0  0  0  0  0  0
   22.1638  -22.2847  -15.1040 C   0  0  2  0  0  0  0  0  0  0  0  0
   21.4124  -23.0978  -14.1455 N   0  0  0  0  0  0  0  0  0  0  0  0
   23.5107  -22.8571  -15.2311 C   0  0  0  0  0  0  0  0  0  0  0  0
   23.9336  -23.6677  -14.3589 O   0  0  0  0  0  0  0  0  0  0  0  0
   21.0427  -20.7677  -12.3639 C   0  0  0  0  0  0  0  0  0  0  0  0
   21.1663  -20.6622  -10.9980 C   0  0  0  0  0  0  0  0  0  0  0  0
   29.1940  -29.0908  -15.5611 N   0  0  0  0  0  0  0  0  0  0  0  0
   28.5022  -28.3993  -16.6274 C   0  0  0  0  0  0  0  0  0  0  0  0
   28.9094  -28.5820  -17.8187 N   0  0  0  0  0  0  0  0  0  0  0  0
   27.4166  -27.5555  -16.3411 N   0  0  0  0  0  0  0  0  0  0  0  0
   26.6961  -26.7828  -17.3336 C   0  0  0  0  0  0  0  0  0  0  0  0
   26.8029  -25.3344  -17.0308 C   0  0  0  0  0  0  0  0  0  0  0  0
   25.5796  -24.5636  -16.7648 C   0  0  0  0  0  0  0  0  0  0  0  0
   25.7021  -23.1285  -16.5165 C   0  0  2  0  0  0  0  0  0  0  0  0
   24.3599  -22.5364  -16.2976 N   0  0  0  0  0  0  0  0  0  0  0  0
   26.4676  -22.2474  -17.3271 C   0  0  0  0  0  0  0  0  0  0  0  0
   26.0458  -21.6917  -18.3746 O   0  0  0  0  0  0  0  0  0  0  0  0
   27.7934  -21.9298  -16.9990 O   0  0  0  0  0  0  0  0  0  0  0  0
  2  1  1  0
  2  3  2  0
  4  3  1  0
  5  4  2  0
  6  5  1  0
  7  6  1  0
  7  8  1  6
  9 20  1  0
  9  7  1  0
 10  9  2  0
 11 12  2  0
 11  5  1  0
 12  2  1  0
 13 14  1  0
 14 15  2  0
 15 16  1  0
 17 16  2  0
 17 18  1  0
 19 18  1  1
 19 20  1  0
 21 19  1  0
 21 33  1  0
 22 21  2  0
 23 17  1  0
 24 14  1  0
 24 23  2  0
 26 27  2  0
 26 25  1  0
 28 26  1  0
 29 28  1  0
 30 29  1  0
 31 30  1  0
 32 33  1  0
 32 31  1  6
 34 32  1  0
 35 34  2  0
 36 34  1  0
M  END
$$$$
