WPP.pdb
     RDKit          3D

 29 32  0  0  1  0  0  0  0  0999 V2000
    6.2484  -18.4250   26.5720 N   0  0  0  0  0  0  0  0  0  0  0  0
    7.0994  -17.2267   26.5037 C   0  0  1  0  0  0  0  0  0  0  0  0
    8.5579  -17.6329   26.4953 C   0  0  0  0  0  0  0  0  0  0  0  0
    9.2685  -17.1629   27.7037 C   0  0  0  0  0  0  0  0  0  0  0  0
    9.5966  -17.8810   28.8261 C   0  0  0  0  0  0  0  0  0  0  0  0
   10.2388  -17.0103   29.6442 N   0  0  0  0  0  0  0  0  0  0  0  0
   10.3154  -15.7930   29.0666 C   0  0  0  0  0  0  0  0  0  0  0  0
   10.8626  -14.5945   29.4876 C   0  0  0  0  0  0  0  0  0  0  0  0
   10.8136  -13.4744   28.7066 C   0  0  0  0  0  0  0  0  0  0  0  0
   10.2001  -13.5351   27.4586 C   0  0  0  0  0  0  0  0  0  0  0  0
    9.6514  -14.7295   27.0318 C   0  0  0  0  0  0  0  0  0  0  0  0
    9.7079  -15.8532   27.8303 C   0  0  0  0  0  0  0  0  0  0  0  0
    6.7781  -16.5673   25.2033 C   0  0  0  0  0  0  0  0  0  0  0  0
    6.2749  -17.2564   24.2629 O   0  0  0  0  0  0  0  0  0  0  0  0
    7.0405  -15.1872   25.0475 N   0  0  0  0  0  0  0  0  0  0  0  0
    7.4641  -14.2651   26.0715 C   0  0  0  0  0  0  0  0  0  0  0  0
    6.8004  -12.9565   25.6029 C   0  0  0  0  0  0  0  0  0  0  0  0
    7.1050  -13.0060   24.1225 C   0  0  0  0  0  0  0  0  0  0  0  0
    6.9127  -14.4706   23.7934 C   0  0  1  0  0  0  0  0  0  0  0  0
    7.9054  -14.9512   22.8135 C   0  0  0  0  0  0  0  0  0  0  0  0
    8.4939  -16.0514   23.0649 O   0  0  0  0  0  0  0  0  0  0  0  0
    8.2281  -14.2519   21.6228 N   0  0  0  0  0  0  0  0  0  0  0  0
    7.7617  -12.9445   21.2292 C   0  0  0  0  0  0  0  0  0  0  0  0
    7.6210  -13.0547   19.7405 C   0  0  0  0  0  0  0  0  0  0  0  0
    8.2746  -14.3650   19.3263 C   0  0  0  0  0  0  0  0  0  0  0  0
    9.0932  -14.7074   20.5597 C   0  0  1  0  0  0  0  0  0  0  0  0
   10.4104  -14.0867   20.5692 C   0  0  0  0  0  0  0  0  0  0  0  0
   10.5704  -12.9593   21.0917 O   0  0  0  0  0  0  0  0  0  0  0  0
   11.4955  -14.7304   20.0042 O   0  0  0  0  0  0  0  0  0  0  0  0
  2  1  1  6
  2 13  1  0
  3  4  1  0
  3  2  1  0
  4 12  1  0
  5  6  1  0
  5  4  2  0
  6  7  1  0
  7 12  2  0
  7  8  1  0
  8  9  2  0
  9 10  1  0
 11 10  2  0
 12 11  1  0
 13 14  2  0
 13 15  1  0
 15 16  1  0
 16 17  1  0
 18 17  1  0
 19 20  1  6
 19 15  1  0
 19 18  1  0
 20 21  2  0
 22 20  1  0
 23 24  1  0
 23 22  1  0
 25 26  1  0
 25 24  1  0
 26 22  1  0
 26 27  1  6
 27 28  2  0
 27 29  1  0
M  END
$$$$
