WPP.pdb
     RDKit          3D

 29 32  0  0  1  0  0  0  0  0999 V2000
    6.3584  -18.6011   26.5244 N   0  0  0  0  0  0  0  0  0  0  0  0
    7.1620  -17.3688   26.5465 C   0  0  1  0  0  0  0  0  0  0  0  0
    8.6350  -17.7173   26.5778 C   0  0  0  0  0  0  0  0  0  0  0  0
    9.2727  -17.3048   27.8463 C   0  0  0  0  0  0  0  0  0  0  0  0
    9.6220  -18.0930   28.9140 C   0  0  0  0  0  0  0  0  0  0  0  0
   10.1723  -17.2530   29.8259 N   0  0  0  0  0  0  0  0  0  0  0  0
   10.1727  -15.9873   29.3578 C   0  0  0  0  0  0  0  0  0  0  0  0
   10.6149  -14.7937   29.8989 C   0  0  0  0  0  0  0  0  0  0  0  0
   10.5034  -13.6158   29.2156 C   0  0  0  0  0  0  0  0  0  0  0  0
    9.9325  -13.6111   27.9461 C   0  0  0  0  0  0  0  0  0  0  0  0
    9.4887  -14.8001   27.3994 C   0  0  0  0  0  0  0  0  0  0  0  0
    9.6075  -15.9827   28.1002 C   0  0  0  0  0  0  0  0  0  0  0  0
    6.8643  -16.6603   25.2664 C   0  0  0  0  0  0  0  0  0  0  0  0
    6.3906  -17.3155   24.2873 O   0  0  0  0  0  0  0  0  0  0  0  0
    7.1154  -15.2725   25.1728 N   0  0  0  0  0  0  0  0  0  0  0  0
    7.5189  -14.3914   26.2401 C   0  0  0  0  0  0  0  0  0  0  0  0
    6.8482  -13.0698   25.8202 C   0  0  0  0  0  0  0  0  0  0  0  0
    7.1699  -13.0532   24.3427 C   0  0  0  0  0  0  0  0  0  0  0  0
    6.9949  -14.5040   23.9491 C   0  0  1  0  0  0  0  0  0  0  0  0
    8.0030  -14.9334   22.9611 C   0  0  0  0  0  0  0  0  0  0  0  0
    8.6916  -15.9679   23.2361 O   0  0  0  0  0  0  0  0  0  0  0  0
    8.2352  -14.2545   21.7380 N   0  0  0  0  0  0  0  0  0  0  0  0
    7.7031  -12.9737   21.3403 C   0  0  0  0  0  0  0  0  0  0  0  0
    7.4844  -13.1265   19.8647 C   0  0  0  0  0  0  0  0  0  0  0  0
    8.1589  -14.4246   19.4458 C   0  0  0  0  0  0  0  0  0  0  0  0
    9.0556  -14.7081   20.6392 C   0  0  1  0  0  0  0  0  0  0  0  0
   10.3492  -14.0440   20.5603 C   0  0  0  0  0  0  0  0  0  0  0  0
   10.4810  -12.8720   20.9830 O   0  0  0  0  0  0  0  0  0  0  0  0
   11.4424  -14.6953   20.0202 O   0  0  0  0  0  0  0  0  0  0  0  0
  2  1  1  6
  2 13  1  0
  3  4  1  0
  3  2  1  0
  4 12  1  0
  5  6  1  0
  5  4  2  0
  6  7  1  0
  7 12  2  0
  7  8  1  0
  8  9  2  0
  9 10  1  0
 11 10  2  0
 12 11  1  0
 13 14  2  0
 13 15  1  0
 15 16  1  0
 16 17  1  0
 18 17  1  0
 19 20  1  6
 19 15  1  0
 19 18  1  0
 20 21  2  0
 22 20  1  0
 23 24  1  0
 23 22  1  0
 25 26  1  0
 25 24  1  0
 26 22  1  0
 26 27  1  6
 27 28  2  0
 27 29  1  0
M  END
$$$$
