WPP.pdb
     RDKit          3D

 29 32  0  0  1  0  0  0  0  0999 V2000
    6.3427  -18.6116   26.4509 N   0  0  0  0  0  0  0  0  0  0  0  0
    7.0813  -17.3400   26.4999 C   0  0  1  0  0  0  0  0  0  0  0  0
    8.5693  -17.6129   26.5600 C   0  0  0  0  0  0  0  0  0  0  0  0
    9.1626  -17.1580   27.8356 C   0  0  0  0  0  0  0  0  0  0  0  0
    9.4009  -17.8944   28.9688 C   0  0  0  0  0  0  0  0  0  0  0  0
    9.9544  -17.0318   29.8574 N   0  0  0  0  0  0  0  0  0  0  0  0
   10.0631  -15.8020   29.3123 C   0  0  0  0  0  0  0  0  0  0  0  0
   10.5522  -14.6050   29.8032 C   0  0  0  0  0  0  0  0  0  0  0  0
   10.5552  -13.4700   29.0426 C   0  0  0  0  0  0  0  0  0  0  0  0
   10.0558  -13.5135   27.7441 C   0  0  0  0  0  0  0  0  0  0  0  0
    9.5658  -14.7063   27.2472 C   0  0  0  0  0  0  0  0  0  0  0  0
    9.5686  -15.8453   28.0260 C   0  0  0  0  0  0  0  0  0  0  0  0
    6.7745  -16.6363   25.2193 C   0  0  0  0  0  0  0  0  0  0  0  0
    6.2857  -17.2935   24.2489 O   0  0  0  0  0  0  0  0  0  0  0  0
    7.0342  -15.2509   25.1154 N   0  0  0  0  0  0  0  0  0  0  0  0
    7.4661  -14.3691   26.1709 C   0  0  0  0  0  0  0  0  0  0  0  0
    6.7970  -13.0439   25.7599 C   0  0  0  0  0  0  0  0  0  0  0  0
    7.0885  -13.0351   24.2761 C   0  0  0  0  0  0  0  0  0  0  0  0
    6.8945  -14.4859   23.8916 C   0  0  1  0  0  0  0  0  0  0  0  0
    7.8789  -14.9265   22.8848 C   0  0  0  0  0  0  0  0  0  0  0  0
    8.4915  -16.0207   23.1018 O   0  0  0  0  0  0  0  0  0  0  0  0
    8.1683  -14.1955   21.7046 N   0  0  0  0  0  0  0  0  0  0  0  0
    7.7658  -12.8442   21.3986 C   0  0  0  0  0  0  0  0  0  0  0  0
    7.5199  -12.8767   19.9198 C   0  0  0  0  0  0  0  0  0  0  0  0
    8.0552  -14.2059   19.4077 C   0  0  0  0  0  0  0  0  0  0  0  0
    8.9287  -14.6563   20.5665 C   0  0  1  0  0  0  0  0  0  0  0  0
   10.2824  -14.1225   20.5107 C   0  0  0  0  0  0  0  0  0  0  0  0
   11.1236  -14.6224   19.7284 O   0  0  0  0  0  0  0  0  0  0  0  0
   10.6544  -13.0628   21.3168 O   0  0  0  0  0  0  0  0  0  0  0  0
  2  1  1  6
  2 13  1  0
  3  4  1  0
  3  2  1  0
  4 12  1  0
  5  6  1  0
  5  4  2  0
  6  7  1  0
  7 12  2  0
  7  8  1  0
  8  9  2  0
  9 10  1  0
 11 10  2  0
 12 11  1  0
 13 14  2  0
 13 15  1  0
 15 16  1  0
 16 17  1  0
 18 17  1  0
 19 20  1  6
 19 15  1  0
 19 18  1  0
 20 21  2  0
 22 20  1  0
 23 24  1  0
 23 22  1  0
 25 26  1  0
 25 24  1  0
 26 22  1  0
 26 27  1  6
 27 28  2  0
 27 29  1  0
M  END
$$$$
