WPP.pdb
     RDKit          3D

 29 32  0  0  1  0  0  0  0  0999 V2000
    6.3699  -18.4990   25.0518 N   0  0  0  0  0  0  0  0  0  0  0  0
    6.6757  -17.1357   24.5905 C   0  0  1  0  0  0  0  0  0  0  0  0
    7.4633  -16.3990   25.6531 C   0  0  0  0  0  0  0  0  0  0  0  0
    6.7283  -15.2247   26.1699 C   0  0  0  0  0  0  0  0  0  0  0  0
    5.3757  -15.0871   26.3560 C   0  0  0  0  0  0  0  0  0  0  0  0
    5.1984  -13.8357   26.8487 N   0  0  0  0  0  0  0  0  0  0  0  0
    6.3862  -13.2067   26.9703 C   0  0  0  0  0  0  0  0  0  0  0  0
    6.7303  -11.9433   27.4158 C   0  0  0  0  0  0  0  0  0  0  0  0
    8.0312  -11.5268   27.4450 C   0  0  0  0  0  0  0  0  0  0  0  0
    9.0369  -12.3892   27.0177 C   0  0  0  0  0  0  0  0  0  0  0  0
    8.7001  -13.6530   26.5715 C   0  0  0  0  0  0  0  0  0  0  0  0
    7.3823  -14.0610   26.5473 C   0  0  0  0  0  0  0  0  0  0  0  0
    7.5356  -17.2939   23.3802 C   0  0  0  0  0  0  0  0  0  0  0  0
    7.9636  -18.4476   23.0666 O   0  0  0  0  0  0  0  0  0  0  0  0
    7.8539  -16.1540   22.6077 N   0  0  0  0  0  0  0  0  0  0  0  0
    7.4375  -14.7962   22.8551 C   0  0  0  0  0  0  0  0  0  0  0  0
    7.3272  -14.2407   21.4226 C   0  0  0  0  0  0  0  0  0  0  0  0
    8.5944  -14.7959   20.8120 C   0  0  0  0  0  0  0  0  0  0  0  0
    8.6692  -16.1845   21.4090 C   0  0  1  0  0  0  0  0  0  0  0  0
   10.0557  -16.5735   21.7300 C   0  0  0  0  0  0  0  0  0  0  0  0
   10.4395  -16.4384   22.9359 O   0  0  0  0  0  0  0  0  0  0  0  0
   10.9655  -17.0828   20.7688 N   0  0  0  0  0  0  0  0  0  0  0  0
   10.7248  -17.2716   19.3588 C   0  0  0  0  0  0  0  0  0  0  0  0
   11.4992  -18.5136   19.0329 C   0  0  0  0  0  0  0  0  0  0  0  0
   12.3674  -18.8282   20.2424 C   0  0  0  0  0  0  0  0  0  0  0  0
   12.3226  -17.5159   21.0069 C   0  0  1  0  0  0  0  0  0  0  0  0
   13.3288  -16.5582   20.5697 C   0  0  0  0  0  0  0  0  0  0  0  0
   14.5128  -16.6659   20.9648 O   0  0  0  0  0  0  0  0  0  0  0  0
   12.9915  -15.5231   19.7178 O   0  0  0  0  0  0  0  0  0  0  0  0
  2  1  1  1
  2 13  1  0
  3  4  1  0
  3  2  1  0
  4 12  1  0
  5  6  1  0
  5  4  2  0
  6  7  1  0
  7 12  2  0
  7  8  1  0
  8  9  2  0
  9 10  1  0
 11 10  2  0
 12 11  1  0
 13 14  2  0
 13 15  1  0
 15 16  1  0
 16 17  1  0
 18 17  1  0
 19 20  1  1
 19 15  1  0
 19 18  1  0
 20 21  2  0
 22 20  1  0
 23 24  1  0
 23 22  1  0
 25 26  1  0
 25 24  1  0
 26 22  1  0
 26 27  1  6
 27 28  2  0
 27 29  1  0
M  END
$$$$
