WPP.pdb
     RDKit          3D

 29 32  0  0  1  0  0  0  0  0999 V2000
    6.1570  -17.2814   23.0486 N   0  0  0  0  0  0  0  0  0  0  0  0
    6.6800  -15.9453   22.7228 C   0  0  1  0  0  0  0  0  0  0  0  0
    7.7003  -15.5266   23.7601 C   0  0  0  0  0  0  0  0  0  0  0  0
    7.0604  -15.1048   25.0245 C   0  0  0  0  0  0  0  0  0  0  0  0
    6.2523  -15.8433   25.8521 C   0  0  0  0  0  0  0  0  0  0  0  0
    5.9224  -15.0170   26.8760 N   0  0  0  0  0  0  0  0  0  0  0  0
    6.4960  -13.8072   26.7062 C   0  0  0  0  0  0  0  0  0  0  0  0
    6.4656  -12.6476   27.4593 C   0  0  0  0  0  0  0  0  0  0  0  0
    7.1430  -11.5265   27.0706 C   0  0  0  0  0  0  0  0  0  0  0  0
    7.8816  -11.5462   25.8909 C   0  0  0  0  0  0  0  0  0  0  0  0
    7.9164  -12.7017   25.1337 C   0  0  0  0  0  0  0  0  0  0  0  0
    7.2278  -13.8270   25.5378 C   0  0  0  0  0  0  0  0  0  0  0  0
    7.3663  -16.0824   21.4038 C   0  0  0  0  0  0  0  0  0  0  0  0
    7.5349  -17.2385   20.9065 O   0  0  0  0  0  0  0  0  0  0  0  0
    7.8130  -14.9197   20.7358 N   0  0  0  0  0  0  0  0  0  0  0  0
    7.7820  -13.5678   21.2354 C   0  0  0  0  0  0  0  0  0  0  0  0
    7.5675  -12.7639   19.9390 C   0  0  0  0  0  0  0  0  0  0  0  0
    8.5427  -13.4604   19.0167 C   0  0  0  0  0  0  0  0  0  0  0  0
    8.3825  -14.9150   19.4023 C   0  0  1  0  0  0  0  0  0  0  0  0
    9.6692  -15.6367   19.3812 C   0  0  0  0  0  0  0  0  0  0  0  0
   10.2492  -15.8360   20.4963 O   0  0  0  0  0  0  0  0  0  0  0  0
   10.2787  -16.1101   18.1915 N   0  0  0  0  0  0  0  0  0  0  0  0
    9.7751  -15.9798   16.8457 C   0  0  0  0  0  0  0  0  0  0  0  0
   10.2020  -17.2565   16.1852 C   0  0  0  0  0  0  0  0  0  0  0  0
   11.1695  -17.9481   17.1346 C   0  0  0  0  0  0  0  0  0  0  0  0
   11.5322  -16.8195   18.0851 C   0  0  1  0  0  0  0  0  0  0  0  0
   12.6339  -15.9949   17.6088 C   0  0  0  0  0  0  0  0  0  0  0  0
   12.4077  -15.0102   16.8681 O   0  0  0  0  0  0  0  0  0  0  0  0
   13.9370  -16.2873   17.9660 O   0  0  0  0  0  0  0  0  0  0  0  0
  2  1  1  1
  2 13  1  0
  3  4  1  0
  3  2  1  0
  4 12  1  0
  5  6  1  0
  5  4  2  0
  6  7  1  0
  7 12  2  0
  7  8  1  0
  8  9  2  0
  9 10  1  0
 11 10  2  0
 12 11  1  0
 13 14  2  0
 13 15  1  0
 15 16  1  0
 16 17  1  0
 18 17  1  0
 19 20  1  1
 19 15  1  0
 19 18  1  0
 20 21  2  0
 22 20  1  0
 23 24  1  0
 23 22  1  0
 25 26  1  0
 25 24  1  0
 26 22  1  0
 26 27  1  6
 27 28  2  0
 27 29  1  0
M  END
$$$$
