WPP.pdb
     RDKit          3D

 29 32  0  0  1  0  0  0  0  0999 V2000
    6.3203  -18.3786   24.7770 N   0  0  0  0  0  0  0  0  0  0  0  0
    6.6599  -17.0325   24.2896 C   0  0  1  0  0  0  0  0  0  0  0  0
    7.4248  -16.2783   25.3564 C   0  0  0  0  0  0  0  0  0  0  0  0
    6.6469  -15.1414   25.8934 C   0  0  0  0  0  0  0  0  0  0  0  0
    5.2881  -15.0492   26.0613 C   0  0  0  0  0  0  0  0  0  0  0  0
    5.0656  -13.8180   26.5853 N   0  0  0  0  0  0  0  0  0  0  0  0
    6.2319  -13.1576   26.7435 C   0  0  0  0  0  0  0  0  0  0  0  0
    6.5309  -11.8975   27.2292 C   0  0  0  0  0  0  0  0  0  0  0  0
    7.8181  -11.4436   27.2910 C   0  0  0  0  0  0  0  0  0  0  0  0
    8.8558  -12.2634   26.8564 C   0  0  0  0  0  0  0  0  0  0  0  0
    8.5641  -13.5237   26.3702 C   0  0  0  0  0  0  0  0  0  0  0  0
    7.2597  -13.9698   26.3133 C   0  0  0  0  0  0  0  0  0  0  0  0
    7.5544  -17.2350   23.1113 C   0  0  0  0  0  0  0  0  0  0  0  0
    8.0102  -18.3948   22.8673 O   0  0  0  0  0  0  0  0  0  0  0  0
    7.8738  -16.1292   22.2910 N   0  0  0  0  0  0  0  0  0  0  0  0
    7.5125  -14.7517   22.5149 C   0  0  0  0  0  0  0  0  0  0  0  0
    7.3557  -14.2348   21.0724 C   0  0  0  0  0  0  0  0  0  0  0  0
    8.5757  -14.8493   20.4238 C   0  0  0  0  0  0  0  0  0  0  0  0
    8.6329  -16.2217   21.0591 C   0  0  1  0  0  0  0  0  0  0  0  0
   10.0193  -16.6471   21.3305 C   0  0  0  0  0  0  0  0  0  0  0  0
   10.4575  -16.4999   22.5162 O   0  0  0  0  0  0  0  0  0  0  0  0
   10.8720  -17.2036   20.3434 N   0  0  0  0  0  0  0  0  0  0  0  0
   10.5916  -17.3513   18.9358 C   0  0  0  0  0  0  0  0  0  0  0  0
   11.2692  -18.6394   18.5754 C   0  0  0  0  0  0  0  0  0  0  0  0
   12.1357  -19.0350   19.7621 C   0  0  0  0  0  0  0  0  0  0  0  0
   12.1991  -17.7357   20.5473 C   0  0  1  0  0  0  0  0  0  0  0  0
   13.2624  -16.8446   20.1045 C   0  0  0  0  0  0  0  0  0  0  0  0
   13.0177  -15.9364   19.2770 O   0  0  0  0  0  0  0  0  0  0  0  0
   14.5489  -16.9893   20.5893 O   0  0  0  0  0  0  0  0  0  0  0  0
  2  1  1  1
  2 13  1  0
  3  4  1  0
  3  2  1  0
  4 12  1  0
  5  6  1  0
  5  4  2  0
  6  7  1  0
  7 12  2  0
  7  8  1  0
  8  9  2  0
  9 10  1  0
 11 10  2  0
 12 11  1  0
 13 14  2  0
 13 15  1  0
 15 16  1  0
 16 17  1  0
 18 17  1  0
 19 20  1  1
 19 15  1  0
 19 18  1  0
 20 21  2  0
 22 20  1  0
 23 24  1  0
 23 22  1  0
 25 26  1  0
 25 24  1  0
 26 22  1  0
 26 27  1  6
 27 28  2  0
 27 29  1  0
M  END
$$$$
