WPP.pdb
     RDKit          3D

 29 32  0  0  1  0  0  0  0  0999 V2000
    5.1977  -18.7490   21.6049 N   0  0  0  0  0  0  0  0  0  0  0  0
    6.3327  -17.8143   21.6565 C   0  0  1  0  0  0  0  0  0  0  0  0
    6.2042  -16.7894   20.5496 C   0  0  0  0  0  0  0  0  0  0  0  0
    7.4861  -16.1033   20.2813 C   0  0  0  0  0  0  0  0  0  0  0  0
    8.7063  -16.6667   20.0038 C   0  0  0  0  0  0  0  0  0  0  0  0
    9.5606  -15.6269   19.8337 N   0  0  0  0  0  0  0  0  0  0  0  0
    8.9114  -14.4548   19.9957 C   0  0  0  0  0  0  0  0  0  0  0  0
    9.3321  -13.1392   19.9257 C   0  0  0  0  0  0  0  0  0  0  0  0
    8.4676  -12.1017   20.1332 C   0  0  0  0  0  0  0  0  0  0  0  0
    7.1325  -12.3691   20.4223 C   0  0  0  0  0  0  0  0  0  0  0  0
    6.7054  -13.6814   20.4936 C   0  0  0  0  0  0  0  0  0  0  0  0
    7.5889  -14.7199   20.2818 C   0  0  0  0  0  0  0  0  0  0  0  0
    6.2304  -17.1147   22.9716 C   0  0  0  0  0  0  0  0  0  0  0  0
    5.3799  -16.1830   23.1170 O   0  0  0  0  0  0  0  0  0  0  0  0
    7.0832  -17.5064   24.0283 N   0  0  0  0  0  0  0  0  0  0  0  0
    7.9501  -18.6578   24.0603 C   0  0  0  0  0  0  0  0  0  0  0  0
    7.9277  -19.0203   25.5572 C   0  0  0  0  0  0  0  0  0  0  0  0
    8.0743  -17.6486   26.1766 C   0  0  0  0  0  0  0  0  0  0  0  0
    7.2119  -16.7864   25.2804 C   0  0  1  0  0  0  0  0  0  0  0  0
    7.8058  -15.4542   25.0582 C   0  0  0  0  0  0  0  0  0  0  0  0
    8.5493  -15.3056   24.0360 O   0  0  0  0  0  0  0  0  0  0  0  0
    7.5885  -14.3495   25.9204 N   0  0  0  0  0  0  0  0  0  0  0  0
    6.5231  -14.1930   26.8807 C   0  0  0  0  0  0  0  0  0  0  0  0
    6.2236  -12.7244   26.8377 C   0  0  0  0  0  0  0  0  0  0  0  0
    7.3316  -12.0667   26.0281 C   0  0  0  0  0  0  0  0  0  0  0  0
    8.3931  -13.1538   26.0137 C   0  0  1  0  0  0  0  0  0  0  0  0
    9.2661  -13.1240   27.1789 C   0  0  0  0  0  0  0  0  0  0  0  0
   10.0968  -12.1967   27.3185 O   0  0  0  0  0  0  0  0  0  0  0  0
    9.1897  -14.1141   28.1406 O   0  0  0  0  0  0  0  0  0  0  0  0
  2  1  1  6
  2 13  1  0
  3  4  1  0
  3  2  1  0
  4 12  1  0
  5  6  1  0
  5  4  2  0
  6  7  1  0
  7 12  2  0
  7  8  1  0
  8  9  2  0
  9 10  1  0
 11 10  2  0
 12 11  1  0
 13 14  2  0
 13 15  1  0
 15 16  1  0
 16 17  1  0
 18 17  1  0
 19 20  1  6
 19 15  1  0
 19 18  1  0
 20 21  2  0
 22 20  1  0
 23 24  1  0
 23 22  1  0
 25 26  1  0
 25 24  1  0
 26 22  1  0
 26 27  1  1
 27 28  2  0
 27 29  1  0
M  END
$$$$
