WPP.pdb
     RDKit          3D

 29 32  0  0  1  0  0  0  0  0999 V2000
    6.2749  -18.6742   26.5582 N   0  0  0  0  0  0  0  0  0  0  0  0
    7.0607  -17.4313   26.6101 C   0  0  1  0  0  0  0  0  0  0  0  0
    8.5377  -17.7599   26.6609 C   0  0  0  0  0  0  0  0  0  0  0  0
    9.1646  -17.2906   27.9150 C   0  0  0  0  0  0  0  0  0  0  0  0
    9.4278  -18.0127   29.0519 C   0  0  0  0  0  0  0  0  0  0  0  0
   10.0071  -17.1408   29.9146 N   0  0  0  0  0  0  0  0  0  0  0  0
   10.1074  -15.9190   29.3503 C   0  0  0  0  0  0  0  0  0  0  0  0
   10.6138  -14.7178   29.8125 C   0  0  0  0  0  0  0  0  0  0  0  0
   10.6029  -13.5932   29.0367 C   0  0  0  0  0  0  0  0  0  0  0  0
   10.0711  -13.6519   27.7516 C   0  0  0  0  0  0  0  0  0  0  0  0
    9.5637  -14.8490   27.2834 C   0  0  0  0  0  0  0  0  0  0  0  0
    9.5810  -15.9774   28.0773 C   0  0  0  0  0  0  0  0  0  0  0  0
    6.7739  -16.7095   25.3349 C   0  0  0  0  0  0  0  0  0  0  0  0
    6.3558  -17.3630   24.3296 O   0  0  0  0  0  0  0  0  0  0  0  0
    6.9732  -15.3116   25.2750 N   0  0  0  0  0  0  0  0  0  0  0  0
    7.2632  -14.4299   26.3781 C   0  0  0  0  0  0  0  0  0  0  0  0
    6.5696  -13.1309   25.9264 C   0  0  0  0  0  0  0  0  0  0  0  0
    6.9940  -13.0804   24.4758 C   0  0  0  0  0  0  0  0  0  0  0  0
    6.9077  -14.5314   24.0545 C   0  0  1  0  0  0  0  0  0  0  0  0
    8.0002  -14.9055   23.1362 C   0  0  0  0  0  0  0  0  0  0  0  0
    8.7696  -15.8540   23.4940 O   0  0  0  0  0  0  0  0  0  0  0  0
    8.2273  -14.2643   21.8918 N   0  0  0  0  0  0  0  0  0  0  0  0
    7.6687  -13.0113   21.4451 C   0  0  0  0  0  0  0  0  0  0  0  0
    7.4670  -13.2206   19.9741 C   0  0  0  0  0  0  0  0  0  0  0  0
    8.1757  -14.5160   19.6065 C   0  0  0  0  0  0  0  0  0  0  0  0
    9.0680  -14.7362   20.8165 C   0  0  1  0  0  0  0  0  0  0  0  0
   10.3462  -14.0445   20.7249 C   0  0  0  0  0  0  0  0  0  0  0  0
   11.3151  -14.5881   20.1458 O   0  0  0  0  0  0  0  0  0  0  0  0
   10.5058  -12.7858   21.2735 O   0  0  0  0  0  0  0  0  0  0  0  0
  2  1  1  6
  2 13  1  0
  3  4  1  0
  3  2  1  0
  4 12  1  0
  5  6  1  0
  5  4  2  0
  6  7  1  0
  7 12  2  0
  7  8  1  0
  8  9  2  0
  9 10  1  0
 11 10  2  0
 12 11  1  0
 13 14  2  0
 13 15  1  0
 15 16  1  0
 16 17  1  0
 18 17  1  0
 19 20  1  6
 19 15  1  0
 19 18  1  0
 20 21  2  0
 22 20  1  0
 23 24  1  0
 23 22  1  0
 25 26  1  0
 25 24  1  0
 26 22  1  0
 26 27  1  6
 27 28  2  0
 27 29  1  0
M  END
$$$$
