WPP.pdb
     RDKit          3D

 29 32  0  0  1  0  0  0  0  0999 V2000
    5.8109  -18.5064   24.5158 N   0  0  0  0  0  0  0  0  0  0  0  0
    6.3841  -17.1613   24.3513 C   0  0  1  0  0  0  0  0  0  0  0  0
    7.1091  -16.7542   25.6165 C   0  0  0  0  0  0  0  0  0  0  0  0
    6.6862  -15.4187   26.0893 C   0  0  0  0  0  0  0  0  0  0  0  0
    5.4103  -14.9606   26.3020 C   0  0  0  0  0  0  0  0  0  0  0  0
    5.5465  -13.6815   26.7327 N   0  0  0  0  0  0  0  0  0  0  0  0
    6.8514  -13.3425   26.7912 C   0  0  0  0  0  0  0  0  0  0  0  0
    7.4955  -12.1757   27.1609 C   0  0  0  0  0  0  0  0  0  0  0  0
    8.8577  -12.0738   27.1355 C   0  0  0  0  0  0  0  0  0  0  0  0
    9.6194  -13.1656   26.7288 C   0  0  0  0  0  0  0  0  0  0  0  0
    8.9824  -14.3346   26.3581 C   0  0  0  0  0  0  0  0  0  0  0  0
    7.6058  -14.4241   26.3886 C   0  0  0  0  0  0  0  0  0  0  0  0
    7.3787  -17.2706   23.2431 C   0  0  0  0  0  0  0  0  0  0  0  0
    7.8519  -18.4095   22.9408 O   0  0  0  0  0  0  0  0  0  0  0  0
    7.7715  -16.1017   22.5525 N   0  0  0  0  0  0  0  0  0  0  0  0
    7.3389  -14.7523   22.8177 C   0  0  0  0  0  0  0  0  0  0  0  0
    7.3643  -14.1364   21.4061 C   0  0  0  0  0  0  0  0  0  0  0  0
    8.6807  -14.6750   20.8925 C   0  0  0  0  0  0  0  0  0  0  0  0
    8.6946  -16.0880   21.4343 C   0  0  1  0  0  0  0  0  0  0  0  0
   10.0438  -16.5006   21.8656 C   0  0  0  0  0  0  0  0  0  0  0  0
   10.3049  -16.4465   23.1101 O   0  0  0  0  0  0  0  0  0  0  0  0
   11.0471  -16.9475   20.9685 N   0  0  0  0  0  0  0  0  0  0  0  0
   10.9485  -17.0435   19.5323 C   0  0  0  0  0  0  0  0  0  0  0  0
   11.7576  -18.2627   19.2048 C   0  0  0  0  0  0  0  0  0  0  0  0
   12.5032  -18.6567   20.4715 C   0  0  0  0  0  0  0  0  0  0  0  0
   12.3761  -17.3970   21.3115 C   0  0  1  0  0  0  0  0  0  0  0  0
   13.4157  -16.4142   21.0396 C   0  0  0  0  0  0  0  0  0  0  0  0
   14.5545  -16.5477   21.5445 O   0  0  0  0  0  0  0  0  0  0  0  0
   13.1601  -15.3268   20.2253 O   0  0  0  0  0  0  0  0  0  0  0  0
  2  1  1  1
  2 13  1  0
  3  4  1  0
  3  2  1  0
  4 12  1  0
  5  6  1  0
  5  4  2  0
  6  7  1  0
  7 12  2  0
  7  8  1  0
  8  9  2  0
  9 10  1  0
 11 10  2  0
 12 11  1  0
 13 14  2  0
 13 15  1  0
 15 16  1  0
 16 17  1  0
 18 17  1  0
 19 20  1  1
 19 15  1  0
 19 18  1  0
 20 21  2  0
 22 20  1  0
 23 24  1  0
 23 22  1  0
 25 26  1  0
 25 24  1  0
 26 22  1  0
 26 27  1  6
 27 28  2  0
 27 29  1  0
M  END
$$$$
