WPP.pdb
     RDKit          3D

 29 32  0  0  1  0  0  0  0  0999 V2000
    6.4222  -18.5442   26.5098 N   0  0  0  0  0  0  0  0  0  0  0  0
    7.2203  -17.3102   26.4396 C   0  0  1  0  0  0  0  0  0  0  0  0
    8.6940  -17.6540   26.3927 C   0  0  0  0  0  0  0  0  0  0  0  0
    9.3988  -17.2302   27.6214 C   0  0  0  0  0  0  0  0  0  0  0  0
    9.7669  -18.0013   28.6952 C   0  0  0  0  0  0  0  0  0  0  0  0
   10.3834  -17.1569   29.5594 N   0  0  0  0  0  0  0  0  0  0  0  0
   10.4060  -15.9048   29.0564 C   0  0  0  0  0  0  0  0  0  0  0  0
   10.9104  -14.7132   29.5450 C   0  0  0  0  0  0  0  0  0  0  0  0
   10.8091  -13.5508   28.8342 C   0  0  0  0  0  0  0  0  0  0  0  0
   10.1848  -13.5601   27.5901 C   0  0  0  0  0  0  0  0  0  0  0  0
    9.6787  -14.7472   27.0959 C   0  0  0  0  0  0  0  0  0  0  0  0
    9.7879  -15.9142   27.8240 C   0  0  0  0  0  0  0  0  0  0  0  0
    6.8418  -16.6477   25.1562 C   0  0  0  0  0  0  0  0  0  0  0  0
    6.3185  -17.3394   24.2287 O   0  0  0  0  0  0  0  0  0  0  0  0
    7.0735  -15.2620   25.0019 N   0  0  0  0  0  0  0  0  0  0  0  0
    7.5423  -14.3447   26.0103 C   0  0  0  0  0  0  0  0  0  0  0  0
    6.8323  -13.0416   25.5971 C   0  0  0  0  0  0  0  0  0  0  0  0
    7.0502  -13.0700   24.1010 C   0  0  0  0  0  0  0  0  0  0  0  0
    6.8613  -14.5337   23.7661 C   0  0  1  0  0  0  0  0  0  0  0  0
    7.8020  -14.9875   22.7241 C   0  0  0  0  0  0  0  0  0  0  0  0
    8.2799  -16.1619   22.8353 O   0  0  0  0  0  0  0  0  0  0  0  0
    8.1914  -14.1852   21.6216 N   0  0  0  0  0  0  0  0  0  0  0  0
    7.8553  -12.8009   21.3925 C   0  0  0  0  0  0  0  0  0  0  0  0
    7.7043  -12.7174   19.9030 C   0  0  0  0  0  0  0  0  0  0  0  0
    8.2263  -14.0259   19.3276 C   0  0  0  0  0  0  0  0  0  0  0  0
    9.0076  -14.5918   20.5016 C   0  0  1  0  0  0  0  0  0  0  0  0
   10.3793  -14.1077   20.5694 C   0  0  0  0  0  0  0  0  0  0  0  0
   11.2428  -14.5526   19.7783 O   0  0  0  0  0  0  0  0  0  0  0  0
   10.7440  -13.1560   21.5034 O   0  0  0  0  0  0  0  0  0  0  0  0
  2  1  1  6
  2 13  1  0
  3  4  1  0
  3  2  1  0
  4 12  1  0
  5  6  1  0
  5  4  2  0
  6  7  1  0
  7 12  2  0
  7  8  1  0
  8  9  2  0
  9 10  1  0
 11 10  2  0
 12 11  1  0
 13 14  2  0
 13 15  1  0
 15 16  1  0
 16 17  1  0
 18 17  1  0
 19 20  1  6
 19 15  1  0
 19 18  1  0
 20 21  2  0
 22 20  1  0
 23 24  1  0
 23 22  1  0
 25 26  1  0
 25 24  1  0
 26 22  1  0
 26 27  1  1
 27 28  2  0
 27 29  1  0
M  END
$$$$
