WPP.pdb
     RDKit          3D

 29 32  0  0  1  0  0  0  0  0999 V2000
    6.6974  -17.5342   23.2288 N   0  0  0  0  0  0  0  0  0  0  0  0
    6.8482  -16.1487   22.7572 C   0  0  1  0  0  0  0  0  0  0  0  0
    7.7490  -15.3806   23.7009 C   0  0  0  0  0  0  0  0  0  0  0  0
    7.0250  -14.9263   24.9074 C   0  0  0  0  0  0  0  0  0  0  0  0
    6.0406  -15.5835   25.6019 C   0  0  0  0  0  0  0  0  0  0  0  0
    5.7006  -14.7599   26.6246 N   0  0  0  0  0  0  0  0  0  0  0  0
    6.4368  -13.6296   26.5816 C   0  0  0  0  0  0  0  0  0  0  0  0
    6.4649  -12.5047   27.3857 C   0  0  0  0  0  0  0  0  0  0  0  0
    7.3178  -11.4677   27.1323 C   0  0  0  0  0  0  0  0  0  0  0  0
    8.1795  -11.5396   26.0415 C   0  0  0  0  0  0  0  0  0  0  0  0
    8.1567  -12.6609   25.2340 C   0  0  0  0  0  0  0  0  0  0  0  0
    7.2906  -13.7011   25.5013 C   0  0  0  0  0  0  0  0  0  0  0  0
    7.5152  -16.2379   21.4243 C   0  0  0  0  0  0  0  0  0  0  0  0
    7.7231  -17.3787   20.9069 O   0  0  0  0  0  0  0  0  0  0  0  0
    7.9002  -15.0481   20.7659 N   0  0  0  0  0  0  0  0  0  0  0  0
    7.8155  -13.7053   21.2836 C   0  0  0  0  0  0  0  0  0  0  0  0
    7.5475  -12.8956   20.0009 C   0  0  0  0  0  0  0  0  0  0  0  0
    8.5403  -13.5358   19.0568 C   0  0  0  0  0  0  0  0  0  0  0  0
    8.4507  -15.0010   19.4252 C   0  0  1  0  0  0  0  0  0  0  0  0
    9.7680  -15.6637   19.3778 C   0  0  0  0  0  0  0  0  0  0  0  0
   10.3695  -15.8549   20.4829 O   0  0  0  0  0  0  0  0  0  0  0  0
   10.3839  -16.0900   18.1736 N   0  0  0  0  0  0  0  0  0  0  0  0
    9.8436  -15.9927   16.8393 C   0  0  0  0  0  0  0  0  0  0  0  0
   10.3457  -17.2344   16.1652 C   0  0  0  0  0  0  0  0  0  0  0  0
   11.3799  -17.8577   17.0911 C   0  0  0  0  0  0  0  0  0  0  0  0
   11.6820  -16.7084   18.0380 C   0  0  1  0  0  0  0  0  0  0  0  0
   12.7120  -15.8066   17.5416 C   0  0  0  0  0  0  0  0  0  0  0  0
   12.4059  -14.8629   16.7767 O   0  0  0  0  0  0  0  0  0  0  0  0
   14.0341  -15.9801   17.9063 O   0  0  0  0  0  0  0  0  0  0  0  0
  2  1  1  1
  2 13  1  0
  3  4  1  0
  3  2  1  0
  4 12  1  0
  5  6  1  0
  5  4  2  0
  6  7  1  0
  7 12  2  0
  7  8  1  0
  8  9  2  0
  9 10  1  0
 11 10  2  0
 12 11  1  0
 13 14  2  0
 13 15  1  0
 15 16  1  0
 16 17  1  0
 18 17  1  0
 19 20  1  1
 19 15  1  0
 19 18  1  0
 20 21  2  0
 22 20  1  0
 23 24  1  0
 23 22  1  0
 25 26  1  0
 25 24  1  0
 26 22  1  0
 26 27  1  6
 27 28  2  0
 27 29  1  0
M  END
$$$$
