RMR.pdb
     RDKit          3D

 31 30  0  0  1  0  0  0  0  0999 V2000
    6.7653  -12.1462   14.0223 N   0  0  0  0  0  0  0  0  0  0  0  0
    7.1973  -13.4035   14.4964 C   0  0  0  0  0  0  0  0  0  0  0  0
    7.7446  -14.2548   13.6689 N   0  0  0  0  0  0  0  0  0  0  0  0
    7.0299  -13.7235   15.8686 N   0  0  0  0  0  0  0  0  0  0  0  0
    7.5710  -14.9702   16.3539 C   0  0  0  0  0  0  0  0  0  0  0  0
    8.7217  -14.7631   17.3058 C   0  0  0  0  0  0  0  0  0  0  0  0
    8.2860  -14.3738   18.6805 C   0  0  0  0  0  0  0  0  0  0  0  0
    9.4071  -14.2948   19.6892 C   0  0  2  0  0  0  0  0  0  0  0  0
   10.2456  -13.1638   19.2558 N   0  0  0  0  0  0  0  0  0  0  0  0
   10.1724  -15.5568   19.6369 C   0  0  0  0  0  0  0  0  0  0  0  0
    9.6947  -16.6664   19.9810 O   0  0  0  0  0  0  0  0  0  0  0  0
    8.0936  -15.1486   14.0535 C   0  0  0  0  0  0  0  0  0  0  0  0
   13.3221  -18.7696   15.0262 S   0  0  0  0  0  0  0  0  0  0  0  0
   11.6149  -18.1934   15.2030 C   0  0  0  0  0  0  0  0  0  0  0  0
   11.3054  -17.8416   16.9438 C   0  0  0  0  0  0  0  0  0  0  0  0
   12.4697  -17.1229   17.5768 C   0  0  2  0  0  0  0  0  0  0  0  0
   12.2318  -16.8672   19.0413 N   0  0  0  0  0  0  0  0  0  0  0  0
   11.5424  -15.6043   19.1807 C   0  0  0  0  0  0  0  0  0  0  0  0
   13.4890  -16.9137   19.8280 O   0  0  0  0  0  0  0  0  0  0  0  0
   14.4455  -16.1541   19.5323 N   0  0  0  0  0  0  0  0  0  0  0  0
   19.4334  -23.2806   23.4761 C   0  0  0  0  0  0  0  0  0  0  0  0
   18.4048  -22.7738   22.6304 N   0  0  0  0  0  0  0  0  0  0  0  0
   18.6204  -22.5825   21.3704 N   0  0  0  0  0  0  0  0  0  0  0  0
   17.1132  -22.4580   23.1379 C   0  0  0  0  0  0  0  0  0  0  0  0
   16.0151  -22.0017   22.3289 C   0  0  0  0  0  0  0  0  0  0  0  0
   16.1726  -20.6067   21.8068 C   0  0  0  0  0  0  0  0  0  0  0  0
   14.8773  -19.8775   21.6874 C   0  0  1  0  0  0  0  0  0  0  0  0
   14.8973  -18.4823   21.2417 N   0  0  0  0  0  0  0  0  0  0  0  0
   13.6817  -17.8050   20.9431 C   0  0  0  0  0  0  0  0  0  0  0  0
   15.9246  -18.2590   20.1485 O   0  0  0  0  0  0  0  0  0  0  0  0
   17.0340  -17.5244   20.4679 O   0  0  0  0  0  0  0  0  0  0  0  0
  2  3  2  0
  2  1  1  0
  4  2  1  0
  5  6  1  0
  5  4  1  0
  7  8  1  0
  7  6  1  0
  8  9  1  6
 10  8  1  0
 10 17  1  0
 11 10  2  0
 13 12  1  0
 13 14  1  0
 14 15  1  0
 16 15  1  6
 16 17  1  0
 18 16  1  0
 19 18  2  0
 20 21  1  0
 21 23  1  0
 21 22  2  0
 23 24  1  0
 24 25  1  0
 25 26  1  0
 27 26  1  1
 27 28  1  0
 27 29  1  0
 28 18  1  0
 29 31  2  0
 29 30  1  0
M  END
$$$$
