RMR.pdb
     RDKit          3D

 31 30  0  0  1  0  0  0  0  0999 V2000
    7.9814  -12.5852   16.1728 N   0  0  0  0  0  0  0  0  0  0  0  0
    8.1944  -13.8618   15.6095 C   0  0  0  0  0  0  0  0  0  0  0  0
    8.2908  -13.9895   14.3120 N   0  0  0  0  0  0  0  0  0  0  0  0
    8.3008  -14.9893   16.4643 N   0  0  0  0  0  0  0  0  0  0  0  0
    7.3834  -15.0998   17.5728 C   0  0  0  0  0  0  0  0  0  0  0  0
    7.9891  -14.6199   18.8674 C   0  0  0  0  0  0  0  0  0  0  0  0
    9.0704  -15.5146   19.3789 C   0  0  0  0  0  0  0  0  0  0  0  0
    8.6865  -16.3202   20.5971 C   0  0  2  0  0  0  0  0  0  0  0  0
    7.2263  -16.4932   20.5087 N   0  0  0  0  0  0  0  0  0  0  0  0
    9.0442  -15.5447   21.8019 C   0  0  0  0  0  0  0  0  0  0  0  0
   10.2274  -15.2535   22.1071 O   0  0  0  0  0  0  0  0  0  0  0  0
    8.3752  -14.9439   13.9240 C   0  0  0  0  0  0  0  0  0  0  0  0
    6.7921  -11.4018   28.0607 S   0  0  0  0  0  0  0  0  0  0  0  0
    6.2958  -12.2033   26.5151 C   0  0  0  0  0  0  0  0  0  0  0  0
    7.7817  -12.7008   25.6238 C   0  0  0  0  0  0  0  0  0  0  0  0
    7.4423  -13.3756   24.3191 C   0  0  2  0  0  0  0  0  0  0  0  0
    8.4307  -14.4608   23.9841 N   0  0  0  0  0  0  0  0  0  0  0  0
    8.0452  -15.0605   22.7266 C   0  0  0  0  0  0  0  0  0  0  0  0
    8.5520  -15.4615   25.0729 O   0  0  0  0  0  0  0  0  0  0  0  0
    7.5653  -16.1739   25.3864 N   0  0  0  0  0  0  0  0  0  0  0  0
   15.2379  -16.2564   25.0355 C   0  0  0  0  0  0  0  0  0  0  0  0
   15.0097  -16.9340   23.8031 N   0  0  0  0  0  0  0  0  0  0  0  0
   15.7232  -16.6645   22.7596 N   0  0  0  0  0  0  0  0  0  0  0  0
   13.9932  -17.9218   23.6748 C   0  0  0  0  0  0  0  0  0  0  0  0
   13.1049  -18.3117   24.7366 C   0  0  0  0  0  0  0  0  0  0  0  0
   12.0488  -17.2999   25.0592 C   0  0  0  0  0  0  0  0  0  0  0  0
   11.1731  -17.7104   26.1943 C   0  0  1  0  0  0  0  0  0  0  0  0
   10.0675  -16.8305   26.5800 N   0  0  0  0  0  0  0  0  0  0  0  0
    9.7706  -15.6694   25.8123 C   0  0  0  0  0  0  0  0  0  0  0  0
   10.1012  -16.5065   28.0614 O   0  0  0  0  0  0  0  0  0  0  0  0
   10.1654  -17.5582   28.9343 O   0  0  0  0  0  0  0  0  0  0  0  0
  2  3  2  0
  2  1  1  0
  4  2  1  0
  5  6  1  0
  5  4  1  0
  7  8  1  0
  7  6  1  0
  8  9  1  6
 10  8  1  0
 10 17  1  0
 11 10  2  0
 13 12  1  0
 13 14  1  0
 14 15  1  0
 16 15  1  6
 16 17  1  0
 18 16  1  0
 19 18  2  0
 20 21  1  0
 21 23  1  0
 21 22  2  0
 23 24  1  0
 24 25  1  0
 25 26  1  0
 27 26  1  6
 27 28  1  0
 27 29  1  0
 28 18  1  0
 29 31  2  0
 29 30  1  0
M  END
$$$$
