RMR.pdb
     RDKit          3D

 31 30  0  0  1  0  0  0  0  0999 V2000
    9.4879  -15.0648   15.2755 N   0  0  0  0  0  0  0  0  0  0  0  0
    8.2785  -14.4517   15.6675 C   0  0  0  0  0  0  0  0  0  0  0  0
    7.8031  -13.4527   14.9711 N   0  0  0  0  0  0  0  0  0  0  0  0
    7.5963  -14.9320   16.8152 N   0  0  0  0  0  0  0  0  0  0  0  0
    7.3112  -14.0039   17.8831 C   0  0  0  0  0  0  0  0  0  0  0  0
    8.5620  -13.3823   18.4506 C   0  0  0  0  0  0  0  0  0  0  0  0
    8.6015  -13.3968   19.9438 C   0  0  0  0  0  0  0  0  0  0  0  0
    8.9365  -14.7413   20.5441 C   0  0  2  0  0  0  0  0  0  0  0  0
    7.8185  -15.6259   20.1730 N   0  0  0  0  0  0  0  0  0  0  0  0
    9.0136  -14.5919   22.0112 C   0  0  0  0  0  0  0  0  0  0  0  0
    9.8728  -13.8785   22.5864 O   0  0  0  0  0  0  0  0  0  0  0  0
    6.9606  -12.9712   15.3273 C   0  0  0  0  0  0  0  0  0  0  0  0
    6.4644  -10.7178   26.0997 S   0  0  0  0  0  0  0  0  0  0  0  0
    7.0746  -12.4220   26.1344 C   0  0  0  0  0  0  0  0  0  0  0  0
    6.3389  -13.3230   24.7571 C   0  0  0  0  0  0  0  0  0  0  0  0
    6.7085  -14.7841   24.7936 C   0  0  2  0  0  0  0  0  0  0  0  0
    8.1206  -15.0094   24.3224 N   0  0  0  0  0  0  0  0  0  0  0  0
    8.0945  -15.2649   22.8998 C   0  0  0  0  0  0  0  0  0  0  0  0
    8.7956  -16.0931   25.0782 O   0  0  0  0  0  0  0  0  0  0  0  0
    8.8633  -16.0388   26.3319 N   0  0  0  0  0  0  0  0  0  0  0  0
   10.6415  -17.5510   29.1836 C   0  0  0  0  0  0  0  0  0  0  0  0
   11.9449  -17.8467   29.6774 N   0  0  0  0  0  0  0  0  0  0  0  0
   12.3490  -17.3625   30.8056 N   0  0  0  0  0  0  0  0  0  0  0  0
   12.8447  -18.6762   28.9510 C   0  0  0  0  0  0  0  0  0  0  0  0
   13.0746  -18.5752   27.5348 C   0  0  0  0  0  0  0  0  0  0  0  0
   11.9344  -19.0541   26.6899 C   0  0  0  0  0  0  0  0  0  0  0  0
   11.3085  -17.9677   25.8825 C   0  0  1  0  0  0  0  0  0  0  0  0
   10.0965  -18.2722   25.1184 N   0  0  0  0  0  0  0  0  0  0  0  0
    9.3950  -17.2366   24.4394 C   0  0  0  0  0  0  0  0  0  0  0  0
    9.1413  -19.1454   25.9092 O   0  0  0  0  0  0  0  0  0  0  0  0
    9.4754  -20.4632   26.0649 O   0  0  0  0  0  0  0  0  0  0  0  0
  2  3  2  0
  2  1  1  0
  4  2  1  0
  5  6  1  0
  5  4  1  0
  7  8  1  0
  7  6  1  0
  8  9  1  1
 10  8  1  0
 10 17  1  0
 11 10  2  0
 13 12  1  0
 13 14  1  0
 14 15  1  0
 16 15  1  6
 16 17  1  0
 18 16  1  0
 19 18  2  0
 20 21  1  0
 21 23  1  0
 21 22  2  0
 23 24  1  0
 24 25  1  0
 25 26  1  0
 27 26  1  6
 27 28  1  0
 27 29  1  0
 28 18  1  0
 29 31  2  0
 29 30  1  0
M  END
$$$$
