RMR.pdb
     RDKit          3D

 31 30  0  0  1  0  0  0  0  0999 V2000
    8.0737  -15.1784   14.3114 N   0  0  0  0  0  0  0  0  0  0  0  0
    8.2490  -13.7879   14.4791 C   0  0  0  0  0  0  0  0  0  0  0  0
    8.3483  -13.0161   13.4286 N   0  0  0  0  0  0  0  0  0  0  0  0
    8.3145  -13.2491   15.7901 N   0  0  0  0  0  0  0  0  0  0  0  0
    8.2223  -14.1545   16.9101 C   0  0  0  0  0  0  0  0  0  0  0  0
    7.2429  -13.6780   17.9526 C   0  0  0  0  0  0  0  0  0  0  0  0
    7.8477  -13.5461   19.3120 C   0  0  0  0  0  0  0  0  0  0  0  0
    8.1876  -14.8613   19.9717 C   0  0  2  0  0  0  0  0  0  0  0  0
    6.9241  -15.6175   20.0129 N   0  0  0  0  0  0  0  0  0  0  0  0
    8.6717  -14.5866   21.3396 C   0  0  0  0  0  0  0  0  0  0  0  0
    9.7868  -14.0620   21.5829 O   0  0  0  0  0  0  0  0  0  0  0  0
    8.4285  -11.9970   13.5819 C   0  0  0  0  0  0  0  0  0  0  0  0
    5.5757  -11.0642   26.6204 S   0  0  0  0  0  0  0  0  0  0  0  0
    5.8361  -12.8406   26.3867 C   0  0  0  0  0  0  0  0  0  0  0  0
    6.9946  -13.0766   25.0258 C   0  0  0  0  0  0  0  0  0  0  0  0
    7.2900  -14.5376   24.7999 C   0  0  2  0  0  0  0  0  0  0  0  0
    8.4311  -14.7288   23.8366 N   0  0  0  0  0  0  0  0  0  0  0  0
    7.8865  -14.9065   22.5094 C   0  0  0  0  0  0  0  0  0  0  0  0
    9.3187  -15.8483   24.2370 O   0  0  0  0  0  0  0  0  0  0  0  0
    8.9131  -17.0348   24.1524 N   0  0  0  0  0  0  0  0  0  0  0  0
   15.7540  -17.1686   19.7025 C   0  0  0  0  0  0  0  0  0  0  0  0
   15.3396  -15.8062   19.7497 N   0  0  0  0  0  0  0  0  0  0  0  0
   15.5717  -15.0109   18.7576 N   0  0  0  0  0  0  0  0  0  0  0  0
   14.6638  -15.2734   20.8832 C   0  0  0  0  0  0  0  0  0  0  0  0
   14.9942  -15.5922   22.2462 C   0  0  0  0  0  0  0  0  0  0  0  0
   13.9752  -16.4386   22.9452 C   0  0  0  0  0  0  0  0  0  0  0  0
   12.8325  -15.6491   23.4882 C   0  0  2  0  0  0  0  0  0  0  0  0
   11.8074  -16.3461   24.2684 N   0  0  0  0  0  0  0  0  0  0  0  0
   10.6568  -15.6477   24.7311 C   0  0  0  0  0  0  0  0  0  0  0  0
   12.4193  -17.1781   25.3792 O   0  0  0  0  0  0  0  0  0  0  0  0
   11.8261  -17.1173   26.6108 O   0  0  0  0  0  0  0  0  0  0  0  0
  2  3  2  0
  2  1  1  0
  4  2  1  0
  5  6  1  0
  5  4  1  0
  7  8  1  0
  7  6  1  0
  8  9  1  1
 10  8  1  0
 10 17  1  0
 11 10  2  0
 13 12  1  0
 13 14  1  0
 14 15  1  0
 16 15  1  6
 16 17  1  0
 18 16  1  0
 19 18  2  0
 20 21  1  0
 21 23  1  0
 21 22  2  0
 23 24  1  0
 24 25  1  0
 25 26  1  0
 27 26  1  6
 27 28  1  0
 27 29  1  0
 28 18  1  0
 29 31  2  0
 29 30  1  0
M  END
$$$$
