RMR.pdb
     RDKit          3D

 31 30  0  0  1  0  0  0  0  0999 V2000
   11.1619  -15.6203   14.6097 N   0  0  0  0  0  0  0  0  0  0  0  0
   10.0871  -15.4209   15.5027 C   0  0  0  0  0  0  0  0  0  0  0  0
    9.2508  -14.4366   15.3003 N   0  0  0  0  0  0  0  0  0  0  0  0
    9.9317  -16.2956   16.6090 N   0  0  0  0  0  0  0  0  0  0  0  0
    8.7956  -16.1073   17.4789 C   0  0  0  0  0  0  0  0  0  0  0  0
    8.9339  -14.8802   18.3439 C   0  0  0  0  0  0  0  0  0  0  0  0
    7.7601  -14.6562   19.2401 C   0  0  0  0  0  0  0  0  0  0  0  0
    7.8169  -13.3702   20.0296 C   0  0  2  0  0  0  0  0  0  0  0  0
    8.9036  -12.5839   19.4206 N   0  0  0  0  0  0  0  0  0  0  0  0
    8.1384  -13.6975   21.4334 C   0  0  0  0  0  0  0  0  0  0  0  0
    9.3074  -13.6842   21.8931 O   0  0  0  0  0  0  0  0  0  0  0  0
    8.4376  -14.3538   15.9331 C   0  0  0  0  0  0  0  0  0  0  0  0
    7.6559  -11.7469   28.3117 S   0  0  0  0  0  0  0  0  0  0  0  0
    6.3868  -12.1195   27.0755 C   0  0  0  0  0  0  0  0  0  0  0  0
    6.9397  -13.5250   26.0911 C   0  0  0  0  0  0  0  0  0  0  0  0
    6.6997  -13.2968   24.6204 C   0  0  1  0  0  0  0  0  0  0  0  0
    7.4520  -14.2909   23.7764 N   0  0  0  0  0  0  0  0  0  0  0  0
    7.1177  -14.0612   22.3889 C   0  0  0  0  0  0  0  0  0  0  0  0
    7.1913  -15.6902   24.1956 O   0  0  0  0  0  0  0  0  0  0  0  0
    6.1406  -15.9740   24.8239 N   0  0  0  0  0  0  0  0  0  0  0  0
   13.5784  -17.7991   29.0407 C   0  0  0  0  0  0  0  0  0  0  0  0
   12.5462  -18.7125   29.4020 N   0  0  0  0  0  0  0  0  0  0  0  0
   12.6321  -19.4107   30.4863 N   0  0  0  0  0  0  0  0  0  0  0  0
   11.3932  -18.8917   28.5871 C   0  0  0  0  0  0  0  0  0  0  0  0
   11.3732  -18.7057   27.1611 C   0  0  0  0  0  0  0  0  0  0  0  0
   10.0159  -18.8381   26.5415 C   0  0  0  0  0  0  0  0  0  0  0  0
    9.7094  -17.7512   25.5676 C   0  0  1  0  0  0  0  0  0  0  0  0
    8.4424  -17.8042   24.8345 N   0  0  0  0  0  0  0  0  0  0  0  0
    8.0992  -16.7729   23.9156 C   0  0  0  0  0  0  0  0  0  0  0  0
    7.2777  -18.1212   25.7530 O   0  0  0  0  0  0  0  0  0  0  0  0
    7.0919  -19.4304   26.1048 O   0  0  0  0  0  0  0  0  0  0  0  0
  2  3  2  0
  2  1  1  0
  4  2  1  0
  5  6  1  0
  5  4  1  0
  7  8  1  0
  7  6  1  0
  8  9  1  6
 10  8  1  0
 10 17  1  0
 11 10  2  0
 13 12  1  0
 13 14  1  0
 14 15  1  0
 16 15  1  6
 16 17  1  0
 18 16  1  0
 19 18  2  0
 20 21  1  0
 21 23  1  0
 21 22  2  0
 23 24  1  0
 24 25  1  0
 25 26  1  0
 27 26  1  6
 27 28  1  0
 27 29  1  0
 28 18  1  0
 29 31  2  0
 29 30  1  0
M  END
$$$$
