RMR.pdb
     RDKit          3D

 31 30  0  0  1  0  0  0  0  0999 V2000
    7.3518  -14.6605   14.8375 N   0  0  0  0  0  0  0  0  0  0  0  0
    8.1976  -14.2184   15.8775 C   0  0  0  0  0  0  0  0  0  0  0  0
    8.0744  -13.0017   16.3396 N   0  0  0  0  0  0  0  0  0  0  0  0
    9.1708  -15.1054   16.4060 N   0  0  0  0  0  0  0  0  0  0  0  0
    9.9889  -14.6515   17.5048 C   0  0  0  0  0  0  0  0  0  0  0  0
    9.1996  -14.4952   18.7799 C   0  0  0  0  0  0  0  0  0  0  0  0
    9.7608  -15.2805   19.9199 C   0  0  0  0  0  0  0  0  0  0  0  0
    8.7194  -15.9202   20.8068 C   0  0  2  0  0  0  0  0  0  0  0  0
    7.4319  -15.3504   20.3735 N   0  0  0  0  0  0  0  0  0  0  0  0
    9.0055  -15.5479   22.2069 C   0  0  0  0  0  0  0  0  0  0  0  0
   10.1263  -15.7158   22.7487 O   0  0  0  0  0  0  0  0  0  0  0  0
    8.6809  -12.7190   17.1276 C   0  0  0  0  0  0  0  0  0  0  0  0
    7.1802  -10.4080   25.8382 S   0  0  0  0  0  0  0  0  0  0  0  0
    6.6320  -11.8000   26.8578 C   0  0  0  0  0  0  0  0  0  0  0  0
    7.5646  -13.2659   26.3768 C   0  0  0  0  0  0  0  0  0  0  0  0
    7.3154  -13.6297   24.9352 C   0  0  2  0  0  0  0  0  0  0  0  0
    8.2929  -14.6666   24.4494 N   0  0  0  0  0  0  0  0  0  0  0  0
    8.0031  -14.9570   23.0633 C   0  0  0  0  0  0  0  0  0  0  0  0
    8.2813  -15.8853   25.2957 O   0  0  0  0  0  0  0  0  0  0  0  0
    7.1896  -16.4172   25.6190 N   0  0  0  0  0  0  0  0  0  0  0  0
   12.2669  -17.8169   22.4624 C   0  0  0  0  0  0  0  0  0  0  0  0
   12.0030  -19.1012   21.9045 N   0  0  0  0  0  0  0  0  0  0  0  0
   12.0455  -19.2871   20.6262 N   0  0  0  0  0  0  0  0  0  0  0  0
   11.6815  -20.2173   22.7270 C   0  0  0  0  0  0  0  0  0  0  0  0
   11.3958  -20.1303   24.1339 C   0  0  0  0  0  0  0  0  0  0  0  0
   10.5429  -18.9604   24.5181 C   0  0  0  0  0  0  0  0  0  0  0  0
   10.2985  -18.8725   25.9866 C   0  0  2  0  0  0  0  0  0  0  0  0
    9.5273  -17.7388   26.5017 N   0  0  0  0  0  0  0  0  0  0  0  0
    9.4839  -16.5118   25.7819 C   0  0  0  0  0  0  0  0  0  0  0  0
    9.8065  -17.4946   27.9724 O   0  0  0  0  0  0  0  0  0  0  0  0
    9.7029  -18.5647   28.8188 O   0  0  0  0  0  0  0  0  0  0  0  0
  2  3  2  0
  2  1  1  0
  4  2  1  0
  5  6  1  0
  5  4  1  0
  7  8  1  0
  7  6  1  0
  8  9  1  6
 10  8  1  0
 10 17  1  0
 11 10  2  0
 13 12  1  0
 13 14  1  0
 14 15  1  0
 16 15  1  6
 16 17  1  0
 18 16  1  0
 19 18  2  0
 20 21  1  0
 21 23  1  0
 21 22  2  0
 23 24  1  0
 24 25  1  0
 25 26  1  0
 27 26  1  6
 27 28  1  0
 27 29  1  0
 28 18  1  0
 29 31  2  0
 29 30  1  0
M  END
$$$$
