RMR.pdb
     RDKit          3D

 31 30  0  0  1  0  0  0  0  0999 V2000
    7.3257  -15.1388   14.3417 N   0  0  0  0  0  0  0  0  0  0  0  0
    8.7258  -15.2644   14.4698 C   0  0  0  0  0  0  0  0  0  0  0  0
    9.4691  -15.3525   13.3979 N   0  0  0  0  0  0  0  0  0  0  0  0
    9.3051  -15.2926   15.7647 N   0  0  0  0  0  0  0  0  0  0  0  0
    8.4376  -15.4899   16.9010 C   0  0  0  0  0  0  0  0  0  0  0  0
    7.9476  -14.1870   17.4803 C   0  0  0  0  0  0  0  0  0  0  0  0
    8.7088  -13.7580   18.6918 C   0  0  0  0  0  0  0  0  0  0  0  0
    8.9675  -14.8634   19.6875 C   0  0  2  0  0  0  0  0  0  0  0  0
    7.7590  -15.7054   19.6615 N   0  0  0  0  0  0  0  0  0  0  0  0
    9.1479  -14.2574   21.0221 C   0  0  0  0  0  0  0  0  0  0  0  0
   10.0360  -13.4066   21.2775 O   0  0  0  0  0  0  0  0  0  0  0  0
   10.4942  -15.4003   13.5218 C   0  0  0  0  0  0  0  0  0  0  0  0
    6.7390  -11.2828   27.6732 S   0  0  0  0  0  0  0  0  0  0  0  0
    6.2764  -12.0279   26.0893 C   0  0  0  0  0  0  0  0  0  0  0  0
    7.7198  -12.8636   25.4050 C   0  0  0  0  0  0  0  0  0  0  0  0
    7.4241  -13.4547   24.0500 C   0  0  2  0  0  0  0  0  0  0  0  0
    8.6272  -14.1562   23.4781 N   0  0  0  0  0  0  0  0  0  0  0  0
    8.3047  -14.6054   22.1425 C   0  0  0  0  0  0  0  0  0  0  0  0
    9.0947  -15.2632   24.3484 O   0  0  0  0  0  0  0  0  0  0  0  0
    8.4094  -16.3110   24.4573 N   0  0  0  0  0  0  0  0  0  0  0  0
   11.7548  -21.0730   29.8643 C   0  0  0  0  0  0  0  0  0  0  0  0
   10.3840  -20.6871   29.9091 N   0  0  0  0  0  0  0  0  0  0  0  0
    9.4620  -21.5546   30.1699 N   0  0  0  0  0  0  0  0  0  0  0  0
    9.9814  -19.3438   29.6664 C   0  0  0  0  0  0  0  0  0  0  0  0
    9.5087  -18.8571   28.3983 C   0  0  0  0  0  0  0  0  0  0  0  0
   10.5404  -18.1259   27.5956 C   0  0  0  0  0  0  0  0  0  0  0  0
    9.9849  -16.9557   26.8566 C   0  0  1  0  0  0  0  0  0  0  0  0
   10.8432  -16.2647   25.8918 N   0  0  0  0  0  0  0  0  0  0  0  0
   10.3239  -15.2043   25.0970 C   0  0  0  0  0  0  0  0  0  0  0  0
   11.6301  -17.2437   25.0415 O   0  0  0  0  0  0  0  0  0  0  0  0
   12.9828  -17.3034   25.2394 O   0  0  0  0  0  0  0  0  0  0  0  0
  2  3  2  0
  2  1  1  0
  4  2  1  0
  5  6  1  0
  5  4  1  0
  7  8  1  0
  7  6  1  0
  8  9  1  1
 10  8  1  0
 10 17  1  0
 11 10  2  0
 13 12  1  0
 13 14  1  0
 14 15  1  0
 16 15  1  6
 16 17  1  0
 18 16  1  0
 19 18  2  0
 20 21  1  0
 21 23  1  0
 21 22  2  0
 23 24  1  0
 24 25  1  0
 25 26  1  0
 27 26  1  1
 27 28  1  0
 27 29  1  0
 28 18  1  0
 29 31  2  0
 29 30  1  0
M  END
$$$$
