RMR.pdb
     RDKit          3D

 31 30  0  0  1  0  0  0  0  0999 V2000
    6.8963  -13.8841   19.0723 N   0  0  0  0  0  0  0  0  0  0  0  0
    7.8906  -13.3768   18.2085 C   0  0  0  0  0  0  0  0  0  0  0  0
    7.7267  -12.2069   17.6484 N   0  0  0  0  0  0  0  0  0  0  0  0
    9.0559  -14.1478   17.9618 N   0  0  0  0  0  0  0  0  0  0  0  0
    9.0170  -15.5618   18.2476 C   0  0  0  0  0  0  0  0  0  0  0  0
    8.6168  -15.8471   19.6729 C   0  0  0  0  0  0  0  0  0  0  0  0
    9.7690  -16.2316   20.5424 C   0  0  0  0  0  0  0  0  0  0  0  0
    9.3857  -17.0295   21.7658 C   0  0  2  0  0  0  0  0  0  0  0  0
    7.9826  -17.4243   21.5528 N   0  0  0  0  0  0  0  0  0  0  0  0
    9.5035  -16.1549   22.9499 C   0  0  0  0  0  0  0  0  0  0  0  0
    9.8388  -14.9462   22.8824 O   0  0  0  0  0  0  0  0  0  0  0  0
    8.4529  -11.8789   16.9900 C   0  0  0  0  0  0  0  0  0  0  0  0
    6.8868  -11.3444   26.8614 S   0  0  0  0  0  0  0  0  0  0  0  0
    7.5806  -12.3787   25.5473 C   0  0  0  0  0  0  0  0  0  0  0  0
    6.9441  -14.0544   25.7397 C   0  0  0  0  0  0  0  0  0  0  0  0
    7.5495  -14.9938   24.7279 C   0  0  1  0  0  0  0  0  0  0  0  0
    8.7210  -15.7451   25.3022 N   0  0  0  0  0  0  0  0  0  0  0  0
    9.2384  -16.6344   24.2868 C   0  0  0  0  0  0  0  0  0  0  0  0
    8.3669  -16.4612   26.5525 O   0  0  0  0  0  0  0  0  0  0  0  0
    7.9036  -15.8257   27.5326 N   0  0  0  0  0  0  0  0  0  0  0  0
   14.4562  -19.0770   21.7782 C   0  0  0  0  0  0  0  0  0  0  0  0
   14.7404  -19.8408   22.9469 N   0  0  0  0  0  0  0  0  0  0  0  0
   15.8171  -20.5516   23.0254 N   0  0  0  0  0  0  0  0  0  0  0  0
   13.8547  -19.8530   24.0608 C   0  0  0  0  0  0  0  0  0  0  0  0
   12.6446  -19.0798   24.1412 C   0  0  0  0  0  0  0  0  0  0  0  0
   11.9068  -19.2232   25.4367 C   0  0  0  0  0  0  0  0  0  0  0  0
   10.6202  -18.4696   25.4632 C   0  0  2  0  0  0  0  0  0  0  0  0
    9.7725  -18.5723   26.6533 N   0  0  0  0  0  0  0  0  0  0  0  0
    8.5283  -17.8837   26.7119 C   0  0  0  0  0  0  0  0  0  0  0  0
   10.5687  -18.3620   27.9270 O   0  0  0  0  0  0  0  0  0  0  0  0
   10.8730  -17.0736   28.2734 O   0  0  0  0  0  0  0  0  0  0  0  0
  2  3  2  0
  2  1  1  0
  4  2  1  0
  5  6  1  0
  5  4  1  0
  7  8  1  0
  7  6  1  0
  8  9  1  6
 10  8  1  0
 10 17  1  0
 11 10  2  0
 13 12  1  0
 13 14  1  0
 14 15  1  0
 16 15  1  6
 16 17  1  0
 18 16  1  0
 19 18  2  0
 20 21  1  0
 21 23  1  0
 21 22  2  0
 23 24  1  0
 24 25  1  0
 25 26  1  0
 27 26  1  6
 27 28  1  0
 27 29  1  0
 28 18  1  0
 29 31  2  0
 29 30  1  0
M  END
$$$$
