RMR.pdb
     RDKit          3D

 31 30  0  0  1  0  0  0  0  0999 V2000
    8.7990  -12.4369   17.4489 N   0  0  0  0  0  0  0  0  0  0  0  0
    8.7114  -13.6317   16.7025 C   0  0  0  0  0  0  0  0  0  0  0  0
    8.5767  -13.5755   15.4033 N   0  0  0  0  0  0  0  0  0  0  0  0
    8.7714  -14.8784   17.3773 N   0  0  0  0  0  0  0  0  0  0  0  0
    8.3619  -14.9311   18.7602 C   0  0  0  0  0  0  0  0  0  0  0  0
    6.8790  -15.1584   18.9100 C   0  0  0  0  0  0  0  0  0  0  0  0
    6.4197  -15.1310   20.3311 C   0  0  0  0  0  0  0  0  0  0  0  0
    7.1756  -16.0637   21.2470 C   0  0  2  0  0  0  0  0  0  0  0  0
    6.1938  -17.0758   21.6733 N   0  0  0  0  0  0  0  0  0  0  0  0
    7.6582  -15.2890   22.4080 C   0  0  0  0  0  0  0  0  0  0  0  0
    7.6069  -14.0354   22.4685 O   0  0  0  0  0  0  0  0  0  0  0  0
    8.4923  -14.4664   14.8859 C   0  0  0  0  0  0  0  0  0  0  0  0
    7.5928  -11.1401   27.4116 S   0  0  0  0  0  0  0  0  0  0  0  0
    6.5011  -12.3387   26.6057 C   0  0  0  0  0  0  0  0  0  0  0  0
    7.3114  -13.9491   26.6142 C   0  0  0  0  0  0  0  0  0  0  0  0
    7.1546  -14.6524   25.2900 C   0  0  1  0  0  0  0  0  0  0  0  0
    8.4717  -15.1764   24.7826 N   0  0  0  0  0  0  0  0  0  0  0  0
    8.2310  -15.9270   23.5709 C   0  0  0  0  0  0  0  0  0  0  0  0
    9.1878  -15.9746   25.8081 O   0  0  0  0  0  0  0  0  0  0  0  0
    8.5395  -16.6544   26.6429 N   0  0  0  0  0  0  0  0  0  0  0  0
   11.8782  -14.4251   19.0550 C   0  0  0  0  0  0  0  0  0  0  0  0
   12.6502  -14.8131   20.1880 N   0  0  0  0  0  0  0  0  0  0  0  0
   13.7923  -14.2584   20.4299 N   0  0  0  0  0  0  0  0  0  0  0  0
   12.1983  -15.8204   21.0861 C   0  0  0  0  0  0  0  0  0  0  0  0
   12.5896  -15.9080   22.4673 C   0  0  0  0  0  0  0  0  0  0  0  0
   12.0190  -17.0858   23.1957 C   0  0  0  0  0  0  0  0  0  0  0  0
   12.4503  -17.1562   24.6216 C   0  0  2  0  0  0  0  0  0  0  0  0
   11.4220  -17.1706   25.6646 N   0  0  0  0  0  0  0  0  0  0  0  0
   10.6244  -16.0164   25.9045 C   0  0  0  0  0  0  0  0  0  0  0  0
   11.9526  -17.7424   26.9653 O   0  0  0  0  0  0  0  0  0  0  0  0
   12.6756  -18.9020   26.8944 O   0  0  0  0  0  0  0  0  0  0  0  0
  2  3  2  0
  2  1  1  0
  4  2  1  0
  5  6  1  0
  5  4  1  0
  7  8  1  0
  7  6  1  0
  8  9  1  1
 10  8  1  0
 10 17  1  0
 11 10  2  0
 13 12  1  0
 13 14  1  0
 14 15  1  0
 16 15  1  6
 16 17  1  0
 18 16  1  0
 19 18  2  0
 20 21  1  0
 21 23  1  0
 21 22  2  0
 23 24  1  0
 24 25  1  0
 25 26  1  0
 27 26  1  6
 27 28  1  0
 27 29  1  0
 28 18  1  0
 29 31  2  0
 29 30  1  0
M  END
$$$$
