DII.pdb
     RDKit          3D

 25 24  0  0  1  0  0  0  0  0999 V2000
   28.0277  -20.1356  -15.3180 N   0  0  0  0  0  0  0  0  0  0  0  0
   27.7411  -18.8215  -14.8001 C   0  0  1  0  0  0  0  0  0  0  0  0
   27.4550  -17.8931  -15.8995 C   0  0  0  0  0  0  0  0  0  0  0  0
   28.3843  -18.0306  -17.0384 C   0  0  0  0  0  0  0  0  0  0  0  0
   29.3717  -17.2690  -17.1161 O   0  0  0  0  0  0  0  0  0  0  0  0
   26.7449  -18.9272  -13.7207 C   0  0  0  0  0  0  0  0  0  0  0  0
   26.0864  -17.8859  -13.4574 O   0  0  0  0  0  0  0  0  0  0  0  0
   28.1812  -18.9796  -18.0088 O   0  0  0  0  0  0  0  0  0  0  0  0
   22.5201  -21.5663  -14.1667 C   0  0  0  0  0  0  0  0  0  0  0  0
   23.5580  -20.6303  -13.6423 C   0  0  0  0  0  0  0  0  0  0  0  0
   24.3866  -21.2407  -12.4900 C   0  0  2  0  0  0  0  0  0  0  0  0
   23.3372  -21.4145  -11.3986 C   0  0  0  0  0  0  0  0  0  0  0  0
   25.4246  -20.2683  -12.0038 C   0  0  2  0  0  0  0  0  0  0  0  0
   26.4786  -20.0681  -12.9835 N   0  0  0  0  0  0  0  0  0  0  0  0
   26.0295  -20.7236  -10.7494 C   0  0  0  0  0  0  0  0  0  0  0  0
   26.7662  -21.7996  -10.7710 O   0  0  0  0  0  0  0  0  0  0  0  0
   28.6710  -19.1901   -5.5233 C   0  0  0  0  0  0  0  0  0  0  0  0
   27.8827  -20.1455   -6.3181 C   0  0  0  0  0  0  0  0  0  0  0  0
   27.2672  -19.7646   -7.5825 C   0  0  2  0  0  0  0  0  0  0  0  0
   26.3965  -18.5066   -7.4626 C   0  0  0  0  0  0  0  0  0  0  0  0
   26.4100  -20.7791   -8.2721 C   0  0  2  0  0  0  0  0  0  0  0  0
   25.8878  -20.0919   -9.5223 N   0  0  0  0  0  0  0  0  0  0  0  0
   25.2468  -21.2489   -7.5553 C   0  0  0  0  0  0  0  0  0  0  0  0
   25.1969  -22.2090   -6.5500 O   0  0  0  0  0  0  0  0  0  0  0  0
   24.0849  -20.7715   -7.8332 O   0  0  0  0  0  0  0  0  0  0  0  0
  2  3  1  0
  2  1  1  6
  3  4  1  0
  4  8  1  0
  4  5  2  0
  6  2  1  0
  7  6  2  0
  9 10  1  0
 10 11  1  0
 11 13  1  0
 11 12  1  1
 13 14  1  6
 14  6  1  0
 15 22  1  0
 15 13  1  0
 16 15  2  0
 18 17  1  0
 19 21  1  0
 19 18  1  0
 19 20  1  1
 21 22  1  6
 23 24  1  0
 23 21  1  0
 25 23  2  0
M  END
$$$$
