DII.pdb
     RDKit          3D

 25 24  0  0  1  0  0  0  0  0999 V2000
   16.7801  -14.5184  -17.2041 N   0  0  0  0  0  0  0  0  0  0  0  0
   16.7186  -13.7262  -16.0016 C   0  0  1  0  0  0  0  0  0  0  0  0
   17.3731  -14.4315  -14.8941 C   0  0  0  0  0  0  0  0  0  0  0  0
   16.7204  -15.7095  -14.5470 C   0  0  0  0  0  0  0  0  0  0  0  0
   17.3807  -16.7685  -14.6077 O   0  0  0  0  0  0  0  0  0  0  0  0
   17.1667  -12.3546  -16.2956 C   0  0  0  0  0  0  0  0  0  0  0  0
   17.9723  -12.2180  -17.2545 O   0  0  0  0  0  0  0  0  0  0  0  0
   15.4046  -15.7514  -14.1593 O   0  0  0  0  0  0  0  0  0  0  0  0
   13.8104   -8.1946  -16.4935 C   0  0  0  0  0  0  0  0  0  0  0  0
   15.0664   -8.9484  -16.7809 C   0  0  0  0  0  0  0  0  0  0  0  0
   16.0901   -8.8673  -15.6266 C   0  0  2  0  0  0  0  0  0  0  0  0
   16.6467   -7.4582  -15.7911 C   0  0  0  0  0  0  0  0  0  0  0  0
   17.2088   -9.8498  -15.8335 C   0  0  2  0  0  0  0  0  0  0  0  0
   16.7749  -11.2180  -15.6094 N   0  0  0  0  0  0  0  0  0  0  0  0
   18.3362   -9.5626  -14.9429 C   0  0  0  0  0  0  0  0  0  0  0  0
   18.1393   -9.6202  -13.6550 O   0  0  0  0  0  0  0  0  0  0  0  0
   24.0421  -10.9877  -13.9755 C   0  0  0  0  0  0  0  0  0  0  0  0
   22.9851   -9.9742  -13.8295 C   0  0  0  0  0  0  0  0  0  0  0  0
   21.7487  -10.0419  -14.5972 C   0  0  2  0  0  0  0  0  0  0  0  0
   21.9879   -9.9865  -16.1121 C   0  0  0  0  0  0  0  0  0  0  0  0
   20.7010   -9.0097  -14.3206 C   0  0  2  0  0  0  0  0  0  0  0  0
   19.6181   -9.2363  -15.3617 N   0  0  0  0  0  0  0  0  0  0  0  0
   21.0965   -7.6258  -14.4459 C   0  0  0  0  0  0  0  0  0  0  0  0
   20.9472   -6.7946  -15.5512 O   0  0  0  0  0  0  0  0  0  0  0  0
   21.6673   -7.0291  -13.4593 O   0  0  0  0  0  0  0  0  0  0  0  0
  2  3  1  0
  2  1  1  6
  3  4  1  0
  4  8  1  0
  4  5  2  0
  6  2  1  0
  7  6  2  0
  9 10  1  0
 10 11  1  0
 11 13  1  0
 11 12  1  6
 13 14  1  1
 14  6  1  0
 15 22  1  0
 15 13  1  0
 16 15  2  0
 18 17  1  0
 19 21  1  0
 19 18  1  0
 19 20  1  6
 21 22  1  6
 23 24  1  0
 23 21  1  0
 25 23  2  0
M  END
$$$$
