DII.pdb
     RDKit          3D

 25 24  0  0  1  0  0  0  0  0999 V2000
   20.8668  -20.2687  -11.9093 N   0  0  0  0  0  0  0  0  0  0  0  0
   21.6424  -21.0169  -12.8664 C   0  0  1  0  0  0  0  0  0  0  0  0
   20.8934  -21.1709  -14.1185 C   0  0  0  0  0  0  0  0  0  0  0  0
   19.6117  -21.8839  -13.9499 C   0  0  0  0  0  0  0  0  0  0  0  0
   18.5693  -21.2259  -13.7459 O   0  0  0  0  0  0  0  0  0  0  0  0
   22.9985  -20.4488  -12.9489 C   0  0  0  0  0  0  0  0  0  0  0  0
   23.0790  -19.2153  -13.1919 O   0  0  0  0  0  0  0  0  0  0  0  0
   19.5481  -23.2533  -14.0146 O   0  0  0  0  0  0  0  0  0  0  0  0
   26.6820  -21.3193   -9.2197 C   0  0  0  0  0  0  0  0  0  0  0  0
   25.9189  -20.7099  -10.3488 C   0  0  0  0  0  0  0  0  0  0  0  0
   26.3874  -21.2181  -11.7305 C   0  0  2  0  0  0  0  0  0  0  0  0
   27.7832  -20.6158  -11.8364 C   0  0  0  0  0  0  0  0  0  0  0  0
   25.5354  -20.6450  -12.8284 C   0  0  2  0  0  0  0  0  0  0  0  0
   24.1764  -21.1561  -12.7807 N   0  0  0  0  0  0  0  0  0  0  0  0
   26.1026  -20.9404  -14.1467 C   0  0  0  0  0  0  0  0  0  0  0  0
   26.1390  -22.1828  -14.5417 O   0  0  0  0  0  0  0  0  0  0  0  0
   24.3174  -20.0407  -19.4096 C   0  0  0  0  0  0  0  0  0  0  0  0
   25.5391  -20.2888  -18.6275 C   0  0  0  0  0  0  0  0  0  0  0  0
   25.5461  -20.2084  -17.1728 C   0  0  2  0  0  0  0  0  0  0  0  0
   24.9803  -18.8811  -16.6499 C   0  0  0  0  0  0  0  0  0  0  0  0
   26.8565  -20.3871  -16.4727 C   0  0  2  0  0  0  0  0  0  0  0  0
   26.6055  -19.9933  -15.0271 N   0  0  0  0  0  0  0  0  0  0  0  0
   27.9580  -19.5698  -16.9270 C   0  0  0  0  0  0  0  0  0  0  0  0
   28.1627  -18.2133  -16.6973 O   0  0  0  0  0  0  0  0  0  0  0  0
   28.8935  -20.0914  -17.6398 O   0  0  0  0  0  0  0  0  0  0  0  0
  2  3  1  0
  2  1  1  1
  3  4  1  0
  4  8  1  0
  4  5  2  0
  6  2  1  0
  7  6  2  0
  9 10  1  0
 10 11  1  0
 11 13  1  0
 11 12  1  6
 13 14  1  6
 14  6  1  0
 15 22  1  0
 15 13  1  0
 16 15  2  0
 18 17  1  0
 19 21  1  0
 19 18  1  0
 19 20  1  6
 21 22  1  1
 23 24  1  0
 23 21  1  0
 25 23  2  0
M  END
$$$$
