DII.pdb
     RDKit          3D

 25 24  0  0  1  0  0  0  0  0999 V2000
   21.3600  -15.4515  -17.2467 N   0  0  0  0  0  0  0  0  0  0  0  0
   21.8359  -14.2481  -17.8813 C   0  0  1  0  0  0  0  0  0  0  0  0
   20.8326  -13.7391  -18.8229 C   0  0  0  0  0  0  0  0  0  0  0  0
   20.4829  -14.7043  -19.8839 C   0  0  0  0  0  0  0  0  0  0  0  0
   21.2961  -15.6048  -20.1823 O   0  0  0  0  0  0  0  0  0  0  0  0
   22.3403  -13.3201  -16.8552 C   0  0  0  0  0  0  0  0  0  0  0  0
   21.8138  -13.4017  -15.7136 O   0  0  0  0  0  0  0  0  0  0  0  0
   19.2822  -14.6282  -20.5442 O   0  0  0  0  0  0  0  0  0  0  0  0
   27.4785  -12.6492  -15.6267 C   0  0  0  0  0  0  0  0  0  0  0  0
   25.9862  -12.6686  -15.5948 C   0  0  0  0  0  0  0  0  0  0  0  0
   25.3596  -11.3570  -16.1180 C   0  0  2  0  0  0  0  0  0  0  0  0
   25.8241  -10.3437  -15.0787 C   0  0  0  0  0  0  0  0  0  0  0  0
   23.8586  -11.4279  -16.0782 C   0  0  2  0  0  0  0  0  0  0  0  0
   23.3365  -12.3780  -17.0453 N   0  0  0  0  0  0  0  0  0  0  0  0
   23.2601  -10.1161  -16.3381 C   0  0  0  0  0  0  0  0  0  0  0  0
   23.5814   -9.4952  -17.4391 O   0  0  0  0  0  0  0  0  0  0  0  0
   18.1621   -7.4154  -17.1446 C   0  0  0  0  0  0  0  0  0  0  0  0
   19.5505   -7.2502  -16.6855 C   0  0  0  0  0  0  0  0  0  0  0  0
   20.3851   -8.3947  -16.3445 C   0  0  2  0  0  0  0  0  0  0  0  0
   19.7796   -9.2587  -15.2300 C   0  0  0  0  0  0  0  0  0  0  0  0
   21.7946   -8.1255  -15.9197 C   0  0  2  0  0  0  0  0  0  0  0  0
   22.3602   -9.4719  -15.5013 N   0  0  0  0  0  0  0  0  0  0  0  0
   21.9808   -7.2425  -14.7914 C   0  0  0  0  0  0  0  0  0  0  0  0
   22.0722   -5.8545  -14.8029 O   0  0  0  0  0  0  0  0  0  0  0  0
   22.0904   -7.7296  -13.6057 O   0  0  0  0  0  0  0  0  0  0  0  0
  2  3  1  0
  2  1  1  1
  3  4  1  0
  4  8  1  0
  4  5  2  0
  6  2  1  0
  7  6  2  0
  9 10  1  0
 10 11  1  0
 11 13  1  0
 11 12  1  1
 13 14  1  6
 14  6  1  0
 15 22  1  0
 15 13  1  0
 16 15  2  0
 18 17  1  0
 19 21  1  0
 19 18  1  0
 19 20  1  1
 21 22  1  1
 23 24  1  0
 23 21  1  0
 25 23  2  0
M  END
$$$$
