DII.pdb
     RDKit          3D

 25 24  0  0  1  0  0  0  0  0999 V2000
   27.0279  -23.9813  -16.3416 N   0  0  0  0  0  0  0  0  0  0  0  0
   26.8510  -22.6094  -15.9366 C   0  0  1  0  0  0  0  0  0  0  0  0
   26.6349  -21.7566  -17.1107 C   0  0  0  0  0  0  0  0  0  0  0  0
   27.6491  -20.6938  -17.2568 C   0  0  0  0  0  0  0  0  0  0  0  0
   28.8041  -20.8882  -16.8214 O   0  0  0  0  0  0  0  0  0  0  0  0
   25.8553  -22.5431  -14.8537 C   0  0  0  0  0  0  0  0  0  0  0  0
   24.7557  -23.1213  -15.0627 O   0  0  0  0  0  0  0  0  0  0  0  0
   27.3439  -19.5006  -17.8622 O   0  0  0  0  0  0  0  0  0  0  0  0
   25.2388  -20.5369   -8.9210 C   0  0  0  0  0  0  0  0  0  0  0  0
   24.6422  -20.9867  -10.2133 C   0  0  0  0  0  0  0  0  0  0  0  0
   25.7071  -21.2843  -11.2923 C   0  0  2  0  0  0  0  0  0  0  0  0
   26.3249  -19.9098  -11.5198 C   0  0  0  0  0  0  0  0  0  0  0  0
   25.0605  -21.7349  -12.5724 C   0  0  2  0  0  0  0  0  0  0  0  0
   26.0326  -21.9040  -13.6386 N   0  0  0  0  0  0  0  0  0  0  0  0
   24.0401  -20.7807  -13.0138 C   0  0  0  0  0  0  0  0  0  0  0  0
   24.4078  -19.5575  -13.2775 O   0  0  0  0  0  0  0  0  0  0  0  0
   21.8905  -20.6082  -17.3921 C   0  0  0  0  0  0  0  0  0  0  0  0
   22.2603  -20.3317  -15.9948 C   0  0  0  0  0  0  0  0  0  0  0  0
   21.2611  -20.2711  -14.9362 C   0  0  2  0  0  0  0  0  0  0  0  0
   20.1488  -19.2550  -15.2286 C   0  0  0  0  0  0  0  0  0  0  0  0
   21.7335  -19.9585  -13.5511 C   0  0  2  0  0  0  0  0  0  0  0  0
   22.6953  -21.0759  -13.1846 N   0  0  0  0  0  0  0  0  0  0  0  0
   20.7331  -19.9305  -12.5091 C   0  0  0  0  0  0  0  0  0  0  0  0
   20.1023  -18.8167  -11.9644 O   0  0  0  0  0  0  0  0  0  0  0  0
   20.3363  -21.0292  -11.9700 O   0  0  0  0  0  0  0  0  0  0  0  0
  2  3  1  0
  2  1  1  6
  3  4  1  0
  4  8  1  0
  4  5  2  0
  6  2  1  0
  7  6  2  0
  9 10  1  0
 10 11  1  0
 11 13  1  0
 11 12  1  6
 13 14  1  6
 14  6  1  0
 15 22  1  0
 15 13  1  0
 16 15  2  0
 18 17  1  0
 19 21  1  0
 19 18  1  0
 19 20  1  6
 21 22  1  1
 23 24  1  0
 23 21  1  0
 25 23  2  0
M  END
$$$$
