DII.pdb
     RDKit          3D

 25 24  0  0  1  0  0  0  0  0999 V2000
   17.9706  -19.2314  -15.1223 N   0  0  0  0  0  0  0  0  0  0  0  0
   18.5914  -18.0242  -14.6379 C   0  0  1  0  0  0  0  0  0  0  0  0
   20.0329  -18.0493  -14.9099 C   0  0  0  0  0  0  0  0  0  0  0  0
   20.7203  -19.2130  -14.3157 C   0  0  0  0  0  0  0  0  0  0  0  0
   20.5703  -19.4549  -13.0991 O   0  0  0  0  0  0  0  0  0  0  0  0
   17.8287  -16.8572  -15.1121 C   0  0  0  0  0  0  0  0  0  0  0  0
   17.5005  -16.8546  -16.3285 O   0  0  0  0  0  0  0  0  0  0  0  0
   21.5178  -20.0303  -15.0769 O   0  0  0  0  0  0  0  0  0  0  0  0
   14.6550  -16.6243  -13.2694 C   0  0  0  0  0  0  0  0  0  0  0  0
   14.4018  -15.3236  -13.9566 C   0  0  0  0  0  0  0  0  0  0  0  0
   15.5615  -14.3181  -13.7801 C   0  0  2  0  0  0  0  0  0  0  0  0
   14.9089  -13.0024  -14.1869 C   0  0  0  0  0  0  0  0  0  0  0  0
   16.6779  -14.6148  -14.7420 C   0  0  2  0  0  0  0  0  0  0  0  0
   17.4481  -15.7772  -14.3343 N   0  0  0  0  0  0  0  0  0  0  0  0
   17.5849  -13.4711  -14.8685 C   0  0  0  0  0  0  0  0  0  0  0  0
   18.3253  -13.1506  -13.8438 O   0  0  0  0  0  0  0  0  0  0  0  0
   20.3913  -12.7288  -19.2749 C   0  0  0  0  0  0  0  0  0  0  0  0
   20.0627  -12.5636  -17.8499 C   0  0  0  0  0  0  0  0  0  0  0  0
   19.2613  -11.4436  -17.3741 C   0  0  2  0  0  0  0  0  0  0  0  0
   20.0153  -10.1082  -17.4327 C   0  0  0  0  0  0  0  0  0  0  0  0
   18.7039  -11.5268  -15.9879 C   0  0  2  0  0  0  0  0  0  0  0  0
   17.7297  -12.6924  -16.0076 N   0  0  0  0  0  0  0  0  0  0  0  0
   17.9561  -10.3852  -15.5135 C   0  0  0  0  0  0  0  0  0  0  0  0
   18.3253   -9.4757  -14.5278 O   0  0  0  0  0  0  0  0  0  0  0  0
   16.7996  -10.1226  -16.0124 O   0  0  0  0  0  0  0  0  0  0  0  0
  2  3  1  0
  2  1  1  6
  3  4  1  0
  4  8  1  0
  4  5  2  0
  6  2  1  0
  7  6  2  0
  9 10  1  0
 10 11  1  0
 11 13  1  0
 11 12  1  6
 13 14  1  1
 14  6  1  0
 15 22  1  0
 15 13  1  0
 16 15  2  0
 18 17  1  0
 19 21  1  0
 19 18  1  0
 19 20  1  1
 21 22  1  6
 23 24  1  0
 23 21  1  0
 25 23  2  0
M  END
$$$$
