DII.pdb
     RDKit          3D

 25 24  0  0  1  0  0  0  0  0999 V2000
   22.7475  -21.3068  -13.2709 N   0  0  0  0  0  0  0  0  0  0  0  0
   22.7487  -20.6169  -12.0054 C   0  0  1  0  0  0  0  0  0  0  0  0
   21.4524  -20.7780  -11.3375 C   0  0  0  0  0  0  0  0  0  0  0  0
   20.3873  -19.9348  -11.9157 C   0  0  0  0  0  0  0  0  0  0  0  0
   20.2446  -19.8969  -13.1564 O   0  0  0  0  0  0  0  0  0  0  0  0
   23.9562  -20.9860  -11.2477 C   0  0  0  0  0  0  0  0  0  0  0  0
   23.8688  -22.0017  -10.5075 O   0  0  0  0  0  0  0  0  0  0  0  0
   19.5542  -19.1956  -11.1138 O   0  0  0  0  0  0  0  0  0  0  0  0
   27.5536  -22.4936  -12.5602 C   0  0  0  0  0  0  0  0  0  0  0  0
   27.7103  -21.0206  -12.7447 C   0  0  0  0  0  0  0  0  0  0  0  0
   27.6089  -20.2373  -11.4169 C   0  0  2  0  0  0  0  0  0  0  0  0
   28.8639  -20.6911  -10.6811 C   0  0  0  0  0  0  0  0  0  0  0  0
   26.4074  -20.6761  -10.6272 C   0  0  2  0  0  0  0  0  0  0  0  0
   25.1650  -20.3125  -11.2866 N   0  0  0  0  0  0  0  0  0  0  0  0
   26.4151  -20.0911   -9.2840 C   0  0  0  0  0  0  0  0  0  0  0  0
   25.8511  -18.9279   -9.1110 O   0  0  0  0  0  0  0  0  0  0  0  0
   28.2564  -21.1784   -3.4154 C   0  0  0  0  0  0  0  0  0  0  0  0
   27.5027  -20.4272   -4.4320 C   0  0  0  0  0  0  0  0  0  0  0  0
   27.3839  -20.9034   -5.8038 C   0  0  2  0  0  0  0  0  0  0  0  0
   28.6667  -21.5763   -6.3107 C   0  0  0  0  0  0  0  0  0  0  0  0
   27.0135  -19.9063   -6.8564 C   0  0  2  0  0  0  0  0  0  0  0  0
   26.9746  -20.6836   -8.1611 N   0  0  0  0  0  0  0  0  0  0  0  0
   27.9284  -18.8085   -7.0690 C   0  0  0  0  0  0  0  0  0  0  0  0
   29.0309  -18.7713   -7.9165 O   0  0  0  0  0  0  0  0  0  0  0  0
   27.7692  -17.7058   -6.4257 O   0  0  0  0  0  0  0  0  0  0  0  0
  2  3  1  0
  2  1  1  6
  3  4  1  0
  4  8  1  0
  4  5  2  0
  6  2  1  0
  7  6  2  0
  9 10  1  0
 10 11  1  0
 11 13  1  0
 11 12  1  1
 13 14  1  6
 14  6  1  0
 15 22  1  0
 15 13  1  0
 16 15  2  0
 18 17  1  0
 19 21  1  0
 19 18  1  0
 19 20  1  6
 21 22  1  6
 23 24  1  0
 23 21  1  0
 25 23  2  0
M  END
$$$$
