DII.pdb
     RDKit          3D

 25 24  0  0  1  0  0  0  0  0999 V2000
   19.6294  -13.7329  -18.9552 N   0  0  0  0  0  0  0  0  0  0  0  0
   20.5332  -12.6223  -19.1196 C   0  0  1  0  0  0  0  0  0  0  0  0
   20.0810  -11.7568  -20.2145 C   0  0  0  0  0  0  0  0  0  0  0  0
   20.0401  -12.4406  -21.5224 C   0  0  0  0  0  0  0  0  0  0  0  0
   20.4674  -13.6112  -21.6128 O   0  0  0  0  0  0  0  0  0  0  0  0
   20.7791  -11.9934  -17.8110 C   0  0  0  0  0  0  0  0  0  0  0  0
   19.9105  -12.1885  -16.9196 O   0  0  0  0  0  0  0  0  0  0  0  0
   19.5409  -11.8124  -22.6358 O   0  0  0  0  0  0  0  0  0  0  0  0
   25.6575  -11.7922  -15.3747 C   0  0  0  0  0  0  0  0  0  0  0  0
   24.1894  -11.8242  -15.6428 C   0  0  0  0  0  0  0  0  0  0  0  0
   23.6057  -10.4257  -15.9437 C   0  0  2  0  0  0  0  0  0  0  0  0
   23.7868   -9.7099  -14.6106 C   0  0  0  0  0  0  0  0  0  0  0  0
   22.1352  -10.5128  -16.2431 C   0  0  2  0  0  0  0  0  0  0  0  0
   21.8778  -11.2156  -17.4883 N   0  0  0  0  0  0  0  0  0  0  0  0
   21.5320   -9.1799  -16.3226 C   0  0  0  0  0  0  0  0  0  0  0  0
   21.8837   -8.3977  -17.3051 O   0  0  0  0  0  0  0  0  0  0  0  0
   16.4225   -8.4211  -16.4005 C   0  0  0  0  0  0  0  0  0  0  0  0
   17.8557   -8.1135  -16.5305 C   0  0  0  0  0  0  0  0  0  0  0  0
   18.5769   -7.3769  -15.5008 C   0  0  2  0  0  0  0  0  0  0  0  0
   18.0734   -5.9361  -15.3402 C   0  0  0  0  0  0  0  0  0  0  0  0
   20.0632   -7.2677  -15.6360 C   0  0  2  0  0  0  0  0  0  0  0  0
   20.5975   -8.6748  -15.4300 N   0  0  0  0  0  0  0  0  0  0  0  0
   20.7481   -6.4326  -14.6763 C   0  0  0  0  0  0  0  0  0  0  0  0
   21.2585   -5.1535  -14.8723 O   0  0  0  0  0  0  0  0  0  0  0  0
   20.9514   -6.8621  -13.4807 O   0  0  0  0  0  0  0  0  0  0  0  0
  2  3  1  0
  2  1  1  1
  3  4  1  0
  4  8  1  0
  4  5  2  0
  6  2  1  0
  7  6  2  0
  9 10  1  0
 10 11  1  0
 11 13  1  0
 11 12  1  1
 13 14  1  6
 14  6  1  0
 15 22  1  0
 15 13  1  0
 16 15  2  0
 18 17  1  0
 19 21  1  0
 19 18  1  0
 19 20  1  6
 21 22  1  1
 23 24  1  0
 23 21  1  0
 25 23  2  0
M  END
$$$$
