DII.pdb
     RDKit          3D

 25 24  0  0  1  0  0  0  0  0999 V2000
   24.0137   -9.4799  -21.3767 N   0  0  0  0  0  0  0  0  0  0  0  0
   24.2364   -8.5025  -20.3410 C   0  0  1  0  0  0  0  0  0  0  0  0
   23.9630   -7.1533  -20.8481 C   0  0  0  0  0  0  0  0  0  0  0  0
   24.9077   -6.7195  -21.8964 C   0  0  0  0  0  0  0  0  0  0  0  0
   26.0169   -7.2869  -21.9915 O   0  0  0  0  0  0  0  0  0  0  0  0
   23.5405   -8.9231  -19.1132 C   0  0  0  0  0  0  0  0  0  0  0  0
   22.6130   -9.7645  -19.2510 O   0  0  0  0  0  0  0  0  0  0  0  0
   24.5867   -5.7070  -22.7655 O   0  0  0  0  0  0  0  0  0  0  0  0
   26.2936  -10.5709  -14.9839 C   0  0  0  0  0  0  0  0  0  0  0  0
   25.1837  -10.3344  -15.9538 C   0  0  0  0  0  0  0  0  0  0  0  0
   24.2561   -9.1739  -15.5299 C   0  0  2  0  0  0  0  0  0  0  0  0
   23.5581   -9.7532  -14.3054 C   0  0  0  0  0  0  0  0  0  0  0  0
   23.2212   -8.9030  -16.5860 C   0  0  2  0  0  0  0  0  0  0  0  0
   23.8241   -8.4721  -17.8356 N   0  0  0  0  0  0  0  0  0  0  0  0
   22.2712   -7.8785  -16.1449 C   0  0  0  0  0  0  0  0  0  0  0  0
   22.7299   -6.6943  -15.8479 O   0  0  0  0  0  0  0  0  0  0  0  0
   16.7639   -7.8957  -16.8297 C   0  0  0  0  0  0  0  0  0  0  0  0
   18.2138   -7.8829  -17.0811 C   0  0  0  0  0  0  0  0  0  0  0  0
   19.0387   -6.7299  -16.7452 C   0  0  2  0  0  0  0  0  0  0  0  0
   19.8459   -6.2098  -17.9423 C   0  0  0  0  0  0  0  0  0  0  0  0
   20.0280   -6.8830  -15.6329 C   0  0  2  0  0  0  0  0  0  0  0  0
   20.9017   -8.0634  -16.0216 N   0  0  0  0  0  0  0  0  0  0  0  0
   19.4987   -7.1879  -14.3235 C   0  0  0  0  0  0  0  0  0  0  0  0
   19.5447   -8.4035  -13.6489 O   0  0  0  0  0  0  0  0  0  0  0  0
   18.8936   -6.2761  -13.6471 O   0  0  0  0  0  0  0  0  0  0  0  0
  2  3  1  0
  2  1  1  6
  3  4  1  0
  4  8  1  0
  4  5  2  0
  6  2  1  0
  7  6  2  0
  9 10  1  0
 10 11  1  0
 11 13  1  0
 11 12  1  1
 13 14  1  6
 14  6  1  0
 15 22  1  0
 15 13  1  0
 16 15  2  0
 18 17  1  0
 19 21  1  0
 19 18  1  0
 19 20  1  6
 21 22  1  6
 23 24  1  0
 23 21  1  0
 25 23  2  0
M  END
$$$$
