DII.pdb
     RDKit          3D

 25 24  0  0  1  0  0  0  0  0999 V2000
   18.3123  -24.2691   -7.0286 N   0  0  0  0  0  0  0  0  0  0  0  0
   18.8885  -24.3689   -8.3460 C   0  0  1  0  0  0  0  0  0  0  0  0
   18.0424  -25.2003   -9.2092 C   0  0  0  0  0  0  0  0  0  0  0  0
   17.9367  -26.6001   -8.7520 C   0  0  0  0  0  0  0  0  0  0  0  0
   16.8221  -27.0473   -8.4073 O   0  0  0  0  0  0  0  0  0  0  0  0
   19.2409  -23.0232   -8.8294 C   0  0  0  0  0  0  0  0  0  0  0  0
   18.5427  -22.0680   -8.3967 O   0  0  0  0  0  0  0  0  0  0  0  0
   19.0401  -27.4147   -8.7009 O   0  0  0  0  0  0  0  0  0  0  0  0
   23.7489  -20.7486   -8.0522 C   0  0  0  0  0  0  0  0  0  0  0  0
   22.3121  -20.9402   -8.4089 C   0  0  0  0  0  0  0  0  0  0  0  0
   22.0905  -21.1100   -9.9285 C   0  0  2  0  0  0  0  0  0  0  0  0
   22.3965  -19.7127  -10.4544 C   0  0  0  0  0  0  0  0  0  0  0  0
   20.6521  -21.4283  -10.2273 C   0  0  2  0  0  0  0  0  0  0  0  0
   20.2680  -22.7304   -9.7100 N   0  0  0  0  0  0  0  0  0  0  0  0
   20.3928  -21.4003  -11.6690 C   0  0  0  0  0  0  0  0  0  0  0  0
   20.8677  -22.3678  -12.4033 O   0  0  0  0  0  0  0  0  0  0  0  0
   15.5720  -20.6123  -13.8028 C   0  0  0  0  0  0  0  0  0  0  0  0
   16.9880  -21.0000  -13.7013 C   0  0  0  0  0  0  0  0  0  0  0  0
   18.0599  -20.0904  -14.0840 C   0  0  2  0  0  0  0  0  0  0  0  0
   18.0113  -19.7091  -15.5697 C   0  0  0  0  0  0  0  0  0  0  0  0
   19.4679  -20.5289  -13.8302 C   0  0  2  0  0  0  0  0  0  0  0  0
   19.6666  -20.4188  -12.3281 N   0  0  0  0  0  0  0  0  0  0  0  0
   20.5178  -19.7410  -14.4339 C   0  0  0  0  0  0  0  0  0  0  0  0
   21.3396  -20.0920  -15.4998 O   0  0  0  0  0  0  0  0  0  0  0  0
   20.7839  -18.5680  -13.9772 O   0  0  0  0  0  0  0  0  0  0  0  0
  2  3  1  0
  2  1  1  1
  3  4  1  0
  4  8  1  0
  4  5  2  0
  6  2  1  0
  7  6  2  0
  9 10  1  0
 10 11  1  0
 11 13  1  0
 11 12  1  6
 13 14  1  6
 14  6  1  0
 15 22  1  0
 15 13  1  0
 16 15  2  0
 18 17  1  0
 19 21  1  0
 19 18  1  0
 19 20  1  6
 21 22  1  1
 23 24  1  0
 23 21  1  0
 25 23  2  0
M  END
$$$$
