DII.pdb
     RDKit          3D

 25 24  0  0  1  0  0  0  0  0999 V2000
   20.0691  -12.8316  -17.7822 N   0  0  0  0  0  0  0  0  0  0  0  0
   20.6709  -11.5864  -18.1880 C   0  0  1  0  0  0  0  0  0  0  0  0
   19.6882  -10.7510  -18.8871 C   0  0  0  0  0  0  0  0  0  0  0  0
   19.1579  -11.3750  -20.1155 C   0  0  0  0  0  0  0  0  0  0  0  0
   17.9655  -11.7472  -20.1454 O   0  0  0  0  0  0  0  0  0  0  0  0
   21.3813  -10.9903  -17.0441 C   0  0  0  0  0  0  0  0  0  0  0  0
   20.7876  -11.0218  -15.9333 O   0  0  0  0  0  0  0  0  0  0  0  0
   19.9517  -11.5509  -21.2212 O   0  0  0  0  0  0  0  0  0  0  0  0
   26.6032  -11.8017  -16.0671 C   0  0  0  0  0  0  0  0  0  0  0  0
   25.1570  -11.4872  -15.8729 C   0  0  0  0  0  0  0  0  0  0  0  0
   24.8341   -9.9933  -16.0988 C   0  0  2  0  0  0  0  0  0  0  0  0
   25.5012   -9.3365  -14.8962 C   0  0  0  0  0  0  0  0  0  0  0  0
   23.3534   -9.7474  -16.0168 C   0  0  2  0  0  0  0  0  0  0  0  0
   22.6356  -10.4069  -17.0940 N   0  0  0  0  0  0  0  0  0  0  0  0
   23.0522   -8.3142  -16.0598 C   0  0  0  0  0  0  0  0  0  0  0  0
   23.4746   -7.6222  -17.0814 O   0  0  0  0  0  0  0  0  0  0  0  0
   18.9324   -4.4369  -16.7655 C   0  0  0  0  0  0  0  0  0  0  0  0
   20.2151   -4.6675  -16.0818 C   0  0  0  0  0  0  0  0  0  0  0  0
   20.7824   -6.0029  -15.9491 C   0  0  2  0  0  0  0  0  0  0  0  0
   19.8491   -6.9725  -15.2115 C   0  0  0  0  0  0  0  0  0  0  0  0
   22.1091   -6.1303  -15.2686 C   0  0  2  0  0  0  0  0  0  0  0  0
   22.3375   -7.6219  -15.0929 N   0  0  0  0  0  0  0  0  0  0  0  0
   22.2281   -5.5471  -13.9521 C   0  0  0  0  0  0  0  0  0  0  0  0
   22.1873   -6.2006  -12.7248 O   0  0  0  0  0  0  0  0  0  0  0  0
   22.3849   -4.2765  -13.8242 O   0  0  0  0  0  0  0  0  0  0  0  0
  2  3  1  0
  2  1  1  1
  3  4  1  0
  4  8  1  0
  4  5  2  0
  6  2  1  0
  7  6  2  0
  9 10  1  0
 10 11  1  0
 11 13  1  0
 11 12  1  1
 13 14  1  6
 14  6  1  0
 15 22  1  0
 15 13  1  0
 16 15  2  0
 18 17  1  0
 19 21  1  0
 19 18  1  0
 19 20  1  1
 21 22  1  1
 23 24  1  0
 23 21  1  0
 25 23  2  0
M  END
$$$$
