DII.pdb
     RDKit          3D

 25 24  0  0  1  0  0  0  0  0999 V2000
   18.1083  -11.7724  -17.6663 N   0  0  0  0  0  0  0  0  0  0  0  0
   18.9649  -10.6701  -18.0246 C   0  0  1  0  0  0  0  0  0  0  0  0
   18.2029   -9.6503  -18.7539 C   0  0  0  0  0  0  0  0  0  0  0  0
   17.7585  -10.0956  -20.0894 C   0  0  0  0  0  0  0  0  0  0  0  0
   18.0094  -11.2626  -20.4587 O   0  0  0  0  0  0  0  0  0  0  0  0
   19.7250  -10.2357  -16.8404 C   0  0  0  0  0  0  0  0  0  0  0  0
   19.1630  -10.3873  -15.7231 O   0  0  0  0  0  0  0  0  0  0  0  0
   17.0755   -9.2506  -20.9279 O   0  0  0  0  0  0  0  0  0  0  0  0
   24.4266  -12.0282  -15.7225 C   0  0  0  0  0  0  0  0  0  0  0  0
   23.0934  -11.3717  -15.5810 C   0  0  0  0  0  0  0  0  0  0  0  0
   23.1633   -9.8361  -15.7357 C   0  0  2  0  0  0  0  0  0  0  0  0
   23.8818   -9.4183  -14.4583 C   0  0  0  0  0  0  0  0  0  0  0  0
   21.7859   -9.2341  -15.7276 C   0  0  2  0  0  0  0  0  0  0  0  0
   20.9935   -9.6822  -16.8598 N   0  0  0  0  0  0  0  0  0  0  0  0
   21.8484   -7.7705  -15.7476 C   0  0  0  0  0  0  0  0  0  0  0  0
   22.5060   -7.1911  -16.7135 O   0  0  0  0  0  0  0  0  0  0  0  0
   17.7598   -4.7388  -16.0016 C   0  0  0  0  0  0  0  0  0  0  0  0
   19.1820   -5.1165  -16.0256 C   0  0  0  0  0  0  0  0  0  0  0  0
   20.0643   -4.8481  -14.8976 C   0  0  2  0  0  0  0  0  0  0  0  0
   20.2643   -3.3476  -14.6456 C   0  0  0  0  0  0  0  0  0  0  0  0
   21.4410   -5.4333  -14.9371 C   0  0  2  0  0  0  0  0  0  0  0  0
   21.2510   -6.9356  -14.8144 N   0  0  0  0  0  0  0  0  0  0  0  0
   22.3442   -5.0537  -13.8752 C   0  0  0  0  0  0  0  0  0  0  0  0
   22.4574   -5.6216  -12.6105 O   0  0  0  0  0  0  0  0  0  0  0  0
   23.1644   -4.0776  -14.0479 O   0  0  0  0  0  0  0  0  0  0  0  0
  2  3  1  0
  2  1  1  1
  3  4  1  0
  4  8  1  0
  4  5  2  0
  6  2  1  0
  7  6  2  0
  9 10  1  0
 10 11  1  0
 11 13  1  0
 11 12  1  1
 13 14  1  6
 14  6  1  0
 15 22  1  0
 15 13  1  0
 16 15  2  0
 18 17  1  0
 19 21  1  0
 19 18  1  0
 19 20  1  6
 21 22  1  1
 23 24  1  0
 23 21  1  0
 25 23  2  0
M  END
$$$$
