DII.pdb
     RDKit          3D

 25 24  0  0  1  0  0  0  0  0999 V2000
   15.7898  -13.1647  -17.6677 N   0  0  0  0  0  0  0  0  0  0  0  0
   15.9358  -12.3405  -16.4944 C   0  0  1  0  0  0  0  0  0  0  0  0
   16.6745  -13.0640  -15.4536 C   0  0  0  0  0  0  0  0  0  0  0  0
   15.9893  -14.2880  -14.9933 C   0  0  0  0  0  0  0  0  0  0  0  0
   14.7948  -14.4745  -15.3091 O   0  0  0  0  0  0  0  0  0  0  0  0
   16.4372  -11.0129  -16.8879 C   0  0  0  0  0  0  0  0  0  0  0  0
   16.9961  -10.9326  -18.0142 O   0  0  0  0  0  0  0  0  0  0  0  0
   16.6424  -15.2211  -14.2275 O   0  0  0  0  0  0  0  0  0  0  0  0
   13.5253   -6.6936  -17.1673 C   0  0  0  0  0  0  0  0  0  0  0  0
   14.7151   -7.5601  -17.4162 C   0  0  0  0  0  0  0  0  0  0  0  0
   15.7561   -7.4883  -16.2769 C   0  0  2  0  0  0  0  0  0  0  0  0
   16.3787   -6.1151  -16.4985 C   0  0  0  0  0  0  0  0  0  0  0  0
   16.8228   -8.5315  -16.4603 C   0  0  2  0  0  0  0  0  0  0  0  0
   16.3418   -9.8610  -16.1264 N   0  0  0  0  0  0  0  0  0  0  0  0
   17.9981   -8.2364  -15.6366 C   0  0  0  0  0  0  0  0  0  0  0  0
   17.8346   -8.0972  -14.3503 O   0  0  0  0  0  0  0  0  0  0  0  0
   22.4144  -11.0163  -15.7797 C   0  0  0  0  0  0  0  0  0  0  0  0
   21.3735  -10.0606  -15.3689 C   0  0  0  0  0  0  0  0  0  0  0  0
   21.5568   -8.6220  -15.5094 C   0  0  2  0  0  0  0  0  0  0  0  0
   22.7486   -8.0945  -14.6993 C   0  0  0  0  0  0  0  0  0  0  0  0
   20.4058   -7.7360  -15.1493 C   0  0  2  0  0  0  0  0  0  0  0  0
   19.2922   -8.0977  -16.1173 N   0  0  0  0  0  0  0  0  0  0  0  0
   20.6092   -6.3119  -15.2837 C   0  0  0  0  0  0  0  0  0  0  0  0
   20.2551   -5.4990  -16.3555 O   0  0  0  0  0  0  0  0  0  0  0  0
   21.1872   -5.6538  -14.3414 O   0  0  0  0  0  0  0  0  0  0  0  0
  2  3  1  0
  2  1  1  6
  3  4  1  0
  4  8  1  0
  4  5  2  0
  6  2  1  0
  7  6  2  0
  9 10  1  0
 10 11  1  0
 11 13  1  0
 11 12  1  6
 13 14  1  1
 14  6  1  0
 15 22  1  0
 15 13  1  0
 16 15  2  0
 18 17  1  0
 19 21  1  0
 19 18  1  0
 19 20  1  1
 21 22  1  6
 23 24  1  0
 23 21  1  0
 25 23  2  0
M  END
$$$$
