DII.pdb
     RDKit          3D

 25 24  0  0  1  0  0  0  0  0999 V2000
   28.0347  -22.0977  -16.0793 N   0  0  0  0  0  0  0  0  0  0  0  0
   27.5552  -20.9701  -15.3204 C   0  0  1  0  0  0  0  0  0  0  0  0
   27.1355  -19.8919  -16.2224 C   0  0  0  0  0  0  0  0  0  0  0  0
   28.2278  -19.3849  -17.0764 C   0  0  0  0  0  0  0  0  0  0  0  0
   27.9494  -18.6759  -18.0669 O   0  0  0  0  0  0  0  0  0  0  0  0
   26.5845  -21.4340  -14.3148 C   0  0  0  0  0  0  0  0  0  0  0  0
   25.9489  -22.4868  -14.5884 O   0  0  0  0  0  0  0  0  0  0  0  0
   29.5394  -19.6786  -16.7992 O   0  0  0  0  0  0  0  0  0  0  0  0
   27.3032  -20.7220   -8.9223 C   0  0  0  0  0  0  0  0  0  0  0  0
   26.8367  -21.3214  -10.2075 C   0  0  0  0  0  0  0  0  0  0  0  0
   25.5879  -20.6138  -10.7791 C   0  0  2  0  0  0  0  0  0  0  0  0
   24.4933  -21.0764   -9.8249 C   0  0  0  0  0  0  0  0  0  0  0  0
   25.2675  -21.1235  -12.1564 C   0  0  2  0  0  0  0  0  0  0  0  0
   26.3210  -20.8113  -13.1069 N   0  0  0  0  0  0  0  0  0  0  0  0
   24.0080  -20.5600  -12.6491 C   0  0  0  0  0  0  0  0  0  0  0  0
   23.8999  -19.2630  -12.7329 O   0  0  0  0  0  0  0  0  0  0  0  0
   22.1950  -21.3662  -17.2439 C   0  0  0  0  0  0  0  0  0  0  0  0
   22.3260  -20.8001  -15.8918 C   0  0  0  0  0  0  0  0  0  0  0  0
   21.3390  -21.0633  -14.8529 C   0  0  2  0  0  0  0  0  0  0  0  0
   19.9541  -20.4969  -15.1941 C   0  0  0  0  0  0  0  0  0  0  0  0
   21.6391  -20.5778  -13.4696 C   0  0  2  0  0  0  0  0  0  0  0  0
   22.9057  -21.3026  -13.0472 N   0  0  0  0  0  0  0  0  0  0  0  0
   20.6553  -20.8588  -12.4495 C   0  0  0  0  0  0  0  0  0  0  0  0
   19.7775  -19.9653  -11.8444 O   0  0  0  0  0  0  0  0  0  0  0  0
   20.5258  -22.0552  -11.9943 O   0  0  0  0  0  0  0  0  0  0  0  0
  2  3  1  0
  2  1  1  6
  3  4  1  0
  4  8  1  0
  4  5  2  0
  6  2  1  0
  7  6  2  0
  9 10  1  0
 10 11  1  0
 11 13  1  0
 11 12  1  1
 13 14  1  6
 14  6  1  0
 15 22  1  0
 15 13  1  0
 16 15  2  0
 18 17  1  0
 19 21  1  0
 19 18  1  0
 19 20  1  6
 21 22  1  1
 23 24  1  0
 23 21  1  0
 25 23  2  0
M  END
$$$$
