WDF.pdb
     RDKit          3D

 34 36  0  0  1  0  0  0  0  0999 V2000
    8.3502  -18.0232   21.5191 N   0  0  0  0  0  0  0  0  0  0  0  0
    9.1829  -16.9926   22.0424 C   0  0  1  0  0  0  0  0  0  0  0  0
    8.3473  -15.9063   22.6831 C   0  0  0  0  0  0  0  0  0  0  0  0
    7.5949  -15.1931   21.6485 C   0  0  0  0  0  0  0  0  0  0  0  0
    6.2620  -15.3065   21.3235 C   0  0  0  0  0  0  0  0  0  0  0  0
    6.0051  -14.4645   20.3152 N   0  0  0  0  0  0  0  0  0  0  0  0
    7.1199  -13.8108   19.9754 C   0  0  0  0  0  0  0  0  0  0  0  0
    7.4113  -12.8416   19.0131 C   0  0  0  0  0  0  0  0  0  0  0  0
    8.6787  -12.3208   18.8705 C   0  0  0  0  0  0  0  0  0  0  0  0
    9.6700  -12.7712   19.6974 C   0  0  0  0  0  0  0  0  0  0  0  0
    9.4117  -13.7396   20.6700 C   0  0  0  0  0  0  0  0  0  0  0  0
    8.1213  -14.2492   20.7927 C   0  0  0  0  0  0  0  0  0  0  0  0
   10.1162  -17.5665   23.0402 C   0  0  0  0  0  0  0  0  0  0  0  0
    9.7288  -18.5743   23.6943 O   0  0  0  0  0  0  0  0  0  0  0  0
   11.4069  -17.0142   23.2662 N   0  0  0  0  0  0  0  0  0  0  0  0
   12.3113  -17.5066   24.2873 C   0  0  1  0  0  0  0  0  0  0  0  0
   13.7424  -17.4047   23.8602 C   0  0  0  0  0  0  0  0  0  0  0  0
   14.0528  -16.1524   23.1556 C   0  0  0  0  0  0  0  0  0  0  0  0
   14.5141  -15.1779   23.7919 O   0  0  0  0  0  0  0  0  0  0  0  0
   12.0159  -16.9021   25.6114 C   0  0  0  0  0  0  0  0  0  0  0  0
   12.7822  -17.2000   26.5614 O   0  0  0  0  0  0  0  0  0  0  0  0
   13.8286  -16.0719   21.7941 O   0  0  0  0  0  0  0  0  0  0  0  0
   10.9153  -16.0237   25.8018 N   0  0  0  0  0  0  0  0  0  0  0  0
   10.1672  -15.9333   27.0279 C   0  0  1  0  0  0  0  0  0  0  0  0
    8.7088  -15.7387   26.7701 C   0  0  0  0  0  0  0  0  0  0  0  0
    8.2191  -14.3646   26.8460 C   0  0  0  0  0  0  0  0  0  0  0  0
    8.9674  -13.3416   27.3888 C   0  0  0  0  0  0  0  0  0  0  0  0
    8.4179  -12.0803   27.4116 C   0  0  0  0  0  0  0  0  0  0  0  0
    7.1616  -11.8127   26.9161 C   0  0  0  0  0  0  0  0  0  0  0  0
    6.4162  -12.8355   26.3747 C   0  0  0  0  0  0  0  0  0  0  0  0
    6.9430  -14.1060   26.3400 C   0  0  0  0  0  0  0  0  0  0  0  0
   10.4652  -17.0757   27.9209 C   0  0  0  0  0  0  0  0  0  0  0  0
   10.9372  -16.8502   29.0595 O   0  0  0  0  0  0  0  0  0  0  0  0
   10.2565  -18.3938   27.5763 O   0  0  0  0  0  0  0  0  0  0  0  0
  2  1  1  1
  2  3  1  0
  4  3  1  0
  4  5  2  0
  6  5  1  0
  7  6  1  0
  8  7  2  0
  9  8  1  0
 10  9  2  0
 10 11  1  0
 11 12  2  0
 12  7  1  0
 12  4  1  0
 13  2  1  0
 14 13  2  0
 15 13  1  0
 16 15  1  0
 17 18  1  0
 16 17  1  6
 18 19  2  0
 20 16  1  0
 20 23  1  0
 21 20  2  0
 22 18  1  0
 24 23  1  0
 24 25  1  6
 24 32  1  0
 26 31  1  0
 26 25  1  0
 27 26  2  0
 28 29  2  0
 28 27  1  0
 29 30  1  0
 30 31  2  0
 32 34  1  0
 33 32  2  0
M  END
$$$$
