WDF.pdb
     RDKit          3D

 34 36  0  0  1  0  0  0  0  0999 V2000
    6.9559  -19.4167   23.1817 N   0  0  0  0  0  0  0  0  0  0  0  0
    7.5967  -18.1814   22.8772 C   0  0  1  0  0  0  0  0  0  0  0  0
    6.7762  -17.0161   23.3846 C   0  0  0  0  0  0  0  0  0  0  0  0
    6.6893  -15.9889   22.3443 C   0  0  0  0  0  0  0  0  0  0  0  0
    6.2105  -16.1062   21.0589 C   0  0  0  0  0  0  0  0  0  0  0  0
    6.3217  -14.9136   20.4615 N   0  0  0  0  0  0  0  0  0  0  0  0
    6.8536  -14.0293   21.3105 C   0  0  0  0  0  0  0  0  0  0  0  0
    7.1804  -12.6753   21.2095 C   0  0  0  0  0  0  0  0  0  0  0  0
    7.7325  -11.9829   22.2648 C   0  0  0  0  0  0  0  0  0  0  0  0
    7.9627  -12.6478   23.4371 C   0  0  0  0  0  0  0  0  0  0  0  0
    7.6473  -14.0017   23.5708 C   0  0  0  0  0  0  0  0  0  0  0  0
    7.0900  -14.6777   22.4880 C   0  0  0  0  0  0  0  0  0  0  0  0
    8.9446  -18.1558   23.4926 C   0  0  0  0  0  0  0  0  0  0  0  0
    9.0590  -18.5892   24.6728 O   0  0  0  0  0  0  0  0  0  0  0  0
   10.0806  -17.6638   22.7931 N   0  0  0  0  0  0  0  0  0  0  0  0
   11.3734  -17.4680   23.4204 C   0  0  1  0  0  0  0  0  0  0  0  0
   12.4456  -17.1927   22.4127 C   0  0  0  0  0  0  0  0  0  0  0  0
   12.4717  -18.1636   21.3092 C   0  0  0  0  0  0  0  0  0  0  0  0
   12.5427  -19.3883   21.5590 O   0  0  0  0  0  0  0  0  0  0  0  0
   11.2957  -16.4806   24.5271 C   0  0  0  0  0  0  0  0  0  0  0  0
   11.9672  -15.4261   24.4028 O   0  0  0  0  0  0  0  0  0  0  0  0
   12.4169  -17.7047   20.0066 O   0  0  0  0  0  0  0  0  0  0  0  0
   10.4978  -16.7129   25.6797 N   0  0  0  0  0  0  0  0  0  0  0  0
   10.7036  -16.0519   26.9414 C   0  0  1  0  0  0  0  0  0  0  0  0
   10.9247  -14.5852   26.7651 C   0  0  0  0  0  0  0  0  0  0  0  0
    9.7847  -13.8168   26.2717 C   0  0  0  0  0  0  0  0  0  0  0  0
    9.4850  -12.5549   26.7398 C   0  0  0  0  0  0  0  0  0  0  0  0
    8.3906  -11.9115   26.2089 C   0  0  0  0  0  0  0  0  0  0  0  0
    7.5972  -12.4812   25.2388 C   0  0  0  0  0  0  0  0  0  0  0  0
    7.8982  -13.7411   24.7729 C   0  0  0  0  0  0  0  0  0  0  0  0
    8.9875  -14.4058   25.2875 C   0  0  0  0  0  0  0  0  0  0  0  0
    9.6225  -16.3788   27.8983 C   0  0  0  0  0  0  0  0  0  0  0  0
    8.6643  -17.0888   27.5136 O   0  0  0  0  0  0  0  0  0  0  0  0
    9.5983  -15.9447   29.2062 O   0  0  0  0  0  0  0  0  0  0  0  0
  2  1  1  1
  2  3  1  0
  4  3  1  0
  4  5  2  0
  6  5  1  0
  7  6  1  0
  8  7  2  0
  9  8  1  0
 10  9  2  0
 10 11  1  0
 11 12  2  0
 12  7  1  0
 12  4  1  0
 13  2  1  0
 14 13  2  0
 15 13  1  0
 16 15  1  0
 17 18  1  0
 16 17  1  6
 18 19  2  0
 20 16  1  0
 20 23  1  0
 21 20  2  0
 22 18  1  0
 24 23  1  0
 24 25  1  6
 24 32  1  0
 26 31  1  0
 26 25  1  0
 27 26  2  0
 28 29  2  0
 28 27  1  0
 29 30  1  0
 30 31  2  0
 32 34  1  0
 33 32  2  0
M  END
$$$$
