WDF.pdb
     RDKit          3D

 34 36  0  0  1  0  0  0  0  0999 V2000
    7.0114  -18.2041   24.0469 N   0  0  0  0  0  0  0  0  0  0  0  0
    7.0417  -17.8509   22.6671 C   0  0  1  0  0  0  0  0  0  0  0  0
    6.5041  -16.4516   22.4634 C   0  0  0  0  0  0  0  0  0  0  0  0
    6.4683  -15.7491   23.7480 C   0  0  0  0  0  0  0  0  0  0  0  0
    6.1373  -16.2444   24.9891 C   0  0  0  0  0  0  0  0  0  0  0  0
    6.2417  -15.2486   25.8774 N   0  0  0  0  0  0  0  0  0  0  0  0
    6.6275  -14.1285   25.2592 C   0  0  0  0  0  0  0  0  0  0  0  0
    6.8841  -12.8275   25.6974 C   0  0  0  0  0  0  0  0  0  0  0  0
    7.2796  -11.8352   24.8275 C   0  0  0  0  0  0  0  0  0  0  0  0
    7.4217  -12.1422   23.5028 C   0  0  0  0  0  0  0  0  0  0  0  0
    7.1729  -13.4335   23.0323 C   0  0  0  0  0  0  0  0  0  0  0  0
    6.7743  -14.4178   23.9335 C   0  0  0  0  0  0  0  0  0  0  0  0
    8.4326  -17.9360   22.1629 C   0  0  0  0  0  0  0  0  0  0  0  0
    8.6343  -18.5975   21.1068 O   0  0  0  0  0  0  0  0  0  0  0  0
    9.5145  -17.3010   22.8323 N   0  0  0  0  0  0  0  0  0  0  0  0
   10.8674  -17.2823   22.3104 C   0  0  1  0  0  0  0  0  0  0  0  0
   10.9436  -16.5913   20.9846 C   0  0  0  0  0  0  0  0  0  0  0  0
   12.3133  -16.4820   20.4620 C   0  0  0  0  0  0  0  0  0  0  0  0
   13.1137  -17.4333   20.6097 O   0  0  0  0  0  0  0  0  0  0  0  0
   11.8333  -16.7861   23.3236 C   0  0  0  0  0  0  0  0  0  0  0  0
   12.3943  -15.6864   23.0905 O   0  0  0  0  0  0  0  0  0  0  0  0
   12.6962  -15.3236   19.8126 O   0  0  0  0  0  0  0  0  0  0  0  0
   12.1149  -17.5191   24.5079 N   0  0  0  0  0  0  0  0  0  0  0  0
   11.9697  -16.9812   25.8348 C   0  0  1  0  0  0  0  0  0  0  0  0
   10.7206  -16.1731   25.9679 C   0  0  0  0  0  0  0  0  0  0  0  0
   10.5372  -15.4753   27.2379 C   0  0  0  0  0  0  0  0  0  0  0  0
   10.6262  -16.1180   28.4546 C   0  0  0  0  0  0  0  0  0  0  0  0
   10.4401  -15.3712   29.5953 C   0  0  0  0  0  0  0  0  0  0  0  0
   10.1717  -14.0214   29.5592 C   0  0  0  0  0  0  0  0  0  0  0  0
   10.0833  -13.3818   28.3436 C   0  0  0  0  0  0  0  0  0  0  0  0
   10.2653  -14.1060   27.1879 C   0  0  0  0  0  0  0  0  0  0  0  0
   12.1027  -18.0421   26.8586 C   0  0  0  0  0  0  0  0  0  0  0  0
   12.8752  -17.8582   27.8279 O   0  0  0  0  0  0  0  0  0  0  0  0
   11.4231  -19.2405   26.8146 O   0  0  0  0  0  0  0  0  0  0  0  0
  2  1  1  1
  2  3  1  0
  4  3  1  0
  4  5  2  0
  6  5  1  0
  7  6  1  0
  8  7  2  0
  9  8  1  0
 10  9  2  0
 10 11  1  0
 11 12  2  0
 12  7  1  0
 12  4  1  0
 13  2  1  0
 14 13  2  0
 15 13  1  0
 16 15  1  0
 17 18  1  0
 16 17  1  6
 18 19  2  0
 20 16  1  0
 20 23  1  0
 21 20  2  0
 22 18  1  0
 24 23  1  0
 24 25  1  6
 24 32  1  0
 26 31  1  0
 26 25  1  0
 27 26  2  0
 28 29  2  0
 28 27  1  0
 29 30  1  0
 30 31  2  0
 32 34  1  0
 33 32  2  0
M  END
$$$$
