WDF.pdb
     RDKit          3D

 34 36  0  0  1  0  0  0  0  0999 V2000
    6.8741  -17.6521   23.7449 N   0  0  0  0  0  0  0  0  0  0  0  0
    8.0139  -16.8120   23.9014 C   0  0  1  0  0  0  0  0  0  0  0  0
    8.1692  -16.3880   25.3453 C   0  0  0  0  0  0  0  0  0  0  0  0
    7.2595  -15.2759   25.6293 C   0  0  0  0  0  0  0  0  0  0  0  0
    6.0903  -15.2863   26.3559 C   0  0  0  0  0  0  0  0  0  0  0  0
    5.5877  -14.0458   26.3560 N   0  0  0  0  0  0  0  0  0  0  0  0
    6.3865  -13.2332   25.6580 C   0  0  0  0  0  0  0  0  0  0  0  0
    6.3394  -11.8726   25.3466 C   0  0  0  0  0  0  0  0  0  0  0  0
    7.3189  -11.2687   24.5893 C   0  0  0  0  0  0  0  0  0  0  0  0
    8.3601  -12.0300   24.1354 C   0  0  0  0  0  0  0  0  0  0  0  0
    8.4368  -13.3932   24.4291 C   0  0  0  0  0  0  0  0  0  0  0  0
    7.4329  -13.9784   25.1970 C   0  0  0  0  0  0  0  0  0  0  0  0
    9.2283  -17.5337   23.4536 C   0  0  0  0  0  0  0  0  0  0  0  0
    9.2114  -18.7952   23.4994 O   0  0  0  0  0  0  0  0  0  0  0  0
   10.3814  -16.8457   22.9858 N   0  0  0  0  0  0  0  0  0  0  0  0
   11.7343  -17.2940   23.2538 C   0  0  1  0  0  0  0  0  0  0  0  0
   12.7403  -16.5535   22.4289 C   0  0  0  0  0  0  0  0  0  0  0  0
   12.2831  -16.2803   21.0587 C   0  0  0  0  0  0  0  0  0  0  0  0
   11.5651  -17.1157   20.4638 O   0  0  0  0  0  0  0  0  0  0  0  0
   12.0214  -17.3123   24.7109 C   0  0  0  0  0  0  0  0  0  0  0  0
   13.1619  -16.9319   25.0753 O   0  0  0  0  0  0  0  0  0  0  0  0
   12.6562  -15.0983   20.4470 O   0  0  0  0  0  0  0  0  0  0  0  0
   11.0518  -17.7407   25.6572 N   0  0  0  0  0  0  0  0  0  0  0  0
   11.3483  -18.0121   27.0390 C   0  0  1  0  0  0  0  0  0  0  0  0
   10.3006  -17.4559   27.9467 C   0  0  0  0  0  0  0  0  0  0  0  0
    9.9533  -16.0515   27.7452 C   0  0  0  0  0  0  0  0  0  0  0  0
   10.6141  -15.0265   28.3886 C   0  0  0  0  0  0  0  0  0  0  0  0
   10.2136  -13.7358   28.1293 C   0  0  0  0  0  0  0  0  0  0  0  0
    9.1879  -13.4411   27.2596 C   0  0  0  0  0  0  0  0  0  0  0  0
    8.5295  -14.4659   26.6184 C   0  0  0  0  0  0  0  0  0  0  0  0
    8.9109  -15.7656   26.8604 C   0  0  0  0  0  0  0  0  0  0  0  0
   11.6177  -19.4516   27.2547 C   0  0  0  0  0  0  0  0  0  0  0  0
   11.4151  -20.2555   26.3151 O   0  0  0  0  0  0  0  0  0  0  0  0
   12.0826  -19.9758   28.4417 O   0  0  0  0  0  0  0  0  0  0  0  0
  2  1  1  1
  2  3  1  0
  4  3  1  0
  4  5  2  0
  6  5  1  0
  7  6  1  0
  8  7  2  0
  9  8  1  0
 10  9  2  0
 10 11  1  0
 11 12  2  0
 12  7  1  0
 12  4  1  0
 13  2  1  0
 14 13  2  0
 15 13  1  0
 16 15  1  0
 17 18  1  0
 16 17  1  6
 18 19  2  0
 20 16  1  0
 20 23  1  0
 21 20  2  0
 22 18  1  0
 24 23  1  0
 24 25  1  1
 24 32  1  0
 26 31  1  0
 26 25  1  0
 27 26  2  0
 28 29  2  0
 28 27  1  0
 29 30  1  0
 30 31  2  0
 32 34  1  0
 33 32  2  0
M  END
$$$$
