WDF.pdb
     RDKit          3D

 34 36  0  0  1  0  0  0  0  0999 V2000
    6.3596  -18.4018   24.7723 N   0  0  0  0  0  0  0  0  0  0  0  0
    7.3202  -17.3697   24.5691 C   0  0  1  0  0  0  0  0  0  0  0  0
    7.6176  -16.6551   25.8689 C   0  0  0  0  0  0  0  0  0  0  0  0
    7.2050  -15.2538   25.7625 C   0  0  0  0  0  0  0  0  0  0  0  0
    6.2679  -14.5751   26.5084 C   0  0  0  0  0  0  0  0  0  0  0  0
    6.2170  -13.3128   26.0662 N   0  0  0  0  0  0  0  0  0  0  0  0
    7.0848  -13.1484   25.0635 C   0  0  0  0  0  0  0  0  0  0  0  0
    7.4317  -12.0599   24.2603 C   0  0  0  0  0  0  0  0  0  0  0  0
    8.3850  -12.1645   23.2713 C   0  0  0  0  0  0  0  0  0  0  0  0
    9.0017  -13.3695   23.0792 C   0  0  0  0  0  0  0  0  0  0  0  0
    8.6778  -14.4775   23.8653 C   0  0  0  0  0  0  0  0  0  0  0  0
    7.7102  -14.3441   24.8583 C   0  0  0  0  0  0  0  0  0  0  0  0
    8.5659  -17.9520   24.0164 C   0  0  0  0  0  0  0  0  0  0  0  0
    8.9363  -19.0741   24.4605 O   0  0  0  0  0  0  0  0  0  0  0  0
    9.3300  -17.2840   23.0205 N   0  0  0  0  0  0  0  0  0  0  0  0
   10.7392  -17.5433   22.7970 C   0  0  1  0  0  0  0  0  0  0  0  0
   11.1965  -17.0284   21.4678 C   0  0  0  0  0  0  0  0  0  0  0  0
   12.5763  -17.4130   21.1369 C   0  0  0  0  0  0  0  0  0  0  0  0
   13.1635  -18.2782   21.8253 O   0  0  0  0  0  0  0  0  0  0  0  0
   11.5626  -17.0979   23.9501 C   0  0  0  0  0  0  0  0  0  0  0  0
   12.3591  -16.1468   23.7523 O   0  0  0  0  0  0  0  0  0  0  0  0
   13.2054  -16.8088   20.0647 O   0  0  0  0  0  0  0  0  0  0  0  0
   11.4584  -17.7171   25.2248 N   0  0  0  0  0  0  0  0  0  0  0  0
   12.1537  -17.2556   26.3972 C   0  0  1  0  0  0  0  0  0  0  0  0
   12.1114  -15.7669   26.5124 C   0  0  0  0  0  0  0  0  0  0  0  0
   10.8182  -15.1844   26.8613 C   0  0  0  0  0  0  0  0  0  0  0  0
    9.9400  -14.7097   25.9102 C   0  0  0  0  0  0  0  0  0  0  0  0
    8.7445  -14.1815   26.3404 C   0  0  0  0  0  0  0  0  0  0  0  0
    8.4035  -14.1135   27.6725 C   0  0  0  0  0  0  0  0  0  0  0  0
    9.2817  -14.5879   28.6204 C   0  0  0  0  0  0  0  0  0  0  0  0
   10.4839  -15.1211   28.2161 C   0  0  0  0  0  0  0  0  0  0  0  0
   11.6798  -17.9588   27.6106 C   0  0  0  0  0  0  0  0  0  0  0  0
   10.6693  -18.6954   27.5307 O   0  0  0  0  0  0  0  0  0  0  0  0
   12.2855  -17.8536   28.8442 O   0  0  0  0  0  0  0  0  0  0  0  0
  2  1  1  1
  2  3  1  0
  4  3  1  0
  4  5  2  0
  6  5  1  0
  7  6  1  0
  8  7  2  0
  9  8  1  0
 10  9  2  0
 10 11  1  0
 11 12  2  0
 12  7  1  0
 12  4  1  0
 13  2  1  0
 14 13  2  0
 15 13  1  0
 16 15  1  0
 17 18  1  0
 16 17  1  6
 18 19  2  0
 20 16  1  0
 20 23  1  0
 21 20  2  0
 22 18  1  0
 24 23  1  0
 24 25  1  1
 24 32  1  0
 26 31  1  0
 26 25  1  0
 27 26  2  0
 28 29  2  0
 28 27  1  0
 29 30  1  0
 30 31  2  0
 32 34  1  0
 33 32  2  0
M  END
$$$$
