WDF.pdb
     RDKit          3D

 34 36  0  0  1  0  0  0  0  0999 V2000
    7.2234  -18.2913   21.8815 N   0  0  0  0  0  0  0  0  0  0  0  0
    7.8590  -17.1618   22.4727 C   0  0  1  0  0  0  0  0  0  0  0  0
    7.0383  -16.6328   23.6282 C   0  0  0  0  0  0  0  0  0  0  0  0
    7.1825  -15.1773   23.7051 C   0  0  0  0  0  0  0  0  0  0  0  0
    7.7370  -14.3190   22.7827 C   0  0  0  0  0  0  0  0  0  0  0  0
    7.6559  -13.0746   23.2689 N   0  0  0  0  0  0  0  0  0  0  0  0
    7.0704  -13.0945   24.4699 C   0  0  0  0  0  0  0  0  0  0  0  0
    6.7434  -12.1028   25.3972 C   0  0  0  0  0  0  0  0  0  0  0  0
    6.1260  -12.4033   26.5914 C   0  0  0  0  0  0  0  0  0  0  0  0
    5.8299  -13.7095   26.8665 C   0  0  0  0  0  0  0  0  0  0  0  0
    6.1436  -14.7250   25.9606 C   0  0  0  0  0  0  0  0  0  0  0  0
    6.7677  -14.3933   24.7604 C   0  0  0  0  0  0  0  0  0  0  0  0
    9.2105  -17.5432   22.9460 C   0  0  0  0  0  0  0  0  0  0  0  0
    9.3527  -18.6912   23.4516 O   0  0  0  0  0  0  0  0  0  0  0  0
   10.3198  -16.6598   22.8424 N   0  0  0  0  0  0  0  0  0  0  0  0
   11.6400  -16.9834   23.3481 C   0  0  1  0  0  0  0  0  0  0  0  0
   12.7133  -16.2301   22.6260 C   0  0  0  0  0  0  0  0  0  0  0  0
   14.0717  -16.6574   22.9908 C   0  0  0  0  0  0  0  0  0  0  0  0
   14.4688  -17.8030   22.6788 O   0  0  0  0  0  0  0  0  0  0  0  0
   11.6960  -16.8746   24.8283 C   0  0  0  0  0  0  0  0  0  0  0  0
   12.5933  -16.1429   25.3157 O   0  0  0  0  0  0  0  0  0  0  0  0
   14.8923  -15.7815   23.6762 O   0  0  0  0  0  0  0  0  0  0  0  0
   10.7768  -17.5661   25.6626 N   0  0  0  0  0  0  0  0  0  0  0  0
   10.9300  -17.6934   27.0878 C   0  0  1  0  0  0  0  0  0  0  0  0
    9.8437  -16.9804   27.8245 C   0  0  0  0  0  0  0  0  0  0  0  0
    9.9813  -15.5300   27.9295 C   0  0  0  0  0  0  0  0  0  0  0  0
   10.5365  -14.9177   29.0332 C   0  0  0  0  0  0  0  0  0  0  0  0
   10.6240  -13.5445   29.0350 C   0  0  0  0  0  0  0  0  0  0  0  0
   10.1805  -12.7744   27.9836 C   0  0  0  0  0  0  0  0  0  0  0  0
    9.6265  -13.3877   26.8827 C   0  0  0  0  0  0  0  0  0  0  0  0
    9.5275  -14.7598   26.8562 C   0  0  0  0  0  0  0  0  0  0  0  0
   11.0845  -19.1113   27.4839 C   0  0  0  0  0  0  0  0  0  0  0  0
   11.3218  -19.3851   28.6834 O   0  0  0  0  0  0  0  0  0  0  0  0
   10.9852  -20.1686   26.6052 O   0  0  0  0  0  0  0  0  0  0  0  0
  2  1  1  1
  2  3  1  0
  4  3  1  0
  4  5  2  0
  6  5  1  0
  7  6  1  0
  8  7  2  0
  9  8  1  0
 10  9  2  0
 10 11  1  0
 11 12  2  0
 12  7  1  0
 12  4  1  0
 13  2  1  0
 14 13  2  0
 15 13  1  0
 16 15  1  0
 17 18  1  0
 16 17  1  6
 18 19  2  0
 20 16  1  0
 20 23  1  0
 21 20  2  0
 22 18  1  0
 24 23  1  0
 24 25  1  1
 24 32  1  0
 26 31  1  0
 26 25  1  0
 27 26  2  0
 28 29  2  0
 28 27  1  0
 29 30  1  0
 30 31  2  0
 32 34  1  0
 33 32  2  0
M  END
$$$$
