WDF.pdb
     RDKit          3D

 34 36  0  0  1  0  0  0  0  0999 V2000
    6.8964  -17.4346   23.4500 N   0  0  0  0  0  0  0  0  0  0  0  0
    8.0584  -16.6833   23.7887 C   0  0  1  0  0  0  0  0  0  0  0  0
    8.1118  -16.4271   25.2787 C   0  0  0  0  0  0  0  0  0  0  0  0
    7.2665  -15.2774   25.6082 C   0  0  0  0  0  0  0  0  0  0  0  0
    6.0122  -15.2677   26.1754 C   0  0  0  0  0  0  0  0  0  0  0  0
    5.6181  -13.9942   26.2954 N   0  0  0  0  0  0  0  0  0  0  0  0
    6.5687  -13.1796   25.8280 C   0  0  0  0  0  0  0  0  0  0  0  0
    6.6766  -11.7918   25.7160 C   0  0  0  0  0  0  0  0  0  0  0  0
    7.7967  -11.1933   25.1821 C   0  0  0  0  0  0  0  0  0  0  0  0
    8.8238  -11.9875   24.7536 C   0  0  0  0  0  0  0  0  0  0  0  0
    8.7474  -13.3786   24.8516 C   0  0  0  0  0  0  0  0  0  0  0  0
    7.6034  -13.9577   25.3955 C   0  0  0  0  0  0  0  0  0  0  0  0
    9.2698  -17.4212   23.3595 C   0  0  0  0  0  0  0  0  0  0  0  0
    9.2095  -18.6819   23.3310 O   0  0  0  0  0  0  0  0  0  0  0  0
   10.4670  -16.7492   22.9892 N   0  0  0  0  0  0  0  0  0  0  0  0
   11.7819  -17.3484   23.1118 C   0  0  1  0  0  0  0  0  0  0  0  0
   12.8151  -16.5872   22.3411 C   0  0  0  0  0  0  0  0  0  0  0  0
   12.5019  -16.4645   20.9100 C   0  0  0  0  0  0  0  0  0  0  0  0
   12.0111  -17.4380   20.2945 O   0  0  0  0  0  0  0  0  0  0  0  0
   12.1322  -17.6028   24.5325 C   0  0  0  0  0  0  0  0  0  0  0  0
   13.3460  -17.7863   24.7997 O   0  0  0  0  0  0  0  0  0  0  0  0
   12.7563  -15.2690   20.2647 O   0  0  0  0  0  0  0  0  0  0  0  0
   11.1414  -17.6384   25.5505 N   0  0  0  0  0  0  0  0  0  0  0  0
   11.4408  -17.7355   26.9547 C   0  0  1  0  0  0  0  0  0  0  0  0
   10.2689  -17.3478   27.7959 C   0  0  0  0  0  0  0  0  0  0  0  0
    9.5785  -16.1194   27.4115 C   0  0  0  0  0  0  0  0  0  0  0  0
   10.1671  -14.8767   27.5145 C   0  0  0  0  0  0  0  0  0  0  0  0
    9.4342  -13.7797   27.1237 C   0  0  0  0  0  0  0  0  0  0  0  0
    8.1494  -13.8836   26.6401 C   0  0  0  0  0  0  0  0  0  0  0  0
    7.5636  -15.1251   26.5381 C   0  0  0  0  0  0  0  0  0  0  0  0
    8.2754  -16.2381   26.9223 C   0  0  0  0  0  0  0  0  0  0  0  0
   11.9996  -19.0644   27.2911 C   0  0  0  0  0  0  0  0  0  0  0  0
   11.9753  -19.9707   26.4261 O   0  0  0  0  0  0  0  0  0  0  0  0
   12.5524  -19.3771   28.5143 O   0  0  0  0  0  0  0  0  0  0  0  0
  2  1  1  1
  2  3  1  0
  4  3  1  0
  4  5  2  0
  6  5  1  0
  7  6  1  0
  8  7  2  0
  9  8  1  0
 10  9  2  0
 10 11  1  0
 11 12  2  0
 12  7  1  0
 12  4  1  0
 13  2  1  0
 14 13  2  0
 15 13  1  0
 16 15  1  0
 17 18  1  0
 16 17  1  1
 18 19  2  0
 20 16  1  0
 20 23  1  0
 21 20  2  0
 22 18  1  0
 24 23  1  0
 24 25  1  1
 24 32  1  0
 26 31  1  0
 26 25  1  0
 27 26  2  0
 28 29  2  0
 28 27  1  0
 29 30  1  0
 30 31  2  0
 32 34  1  0
 33 32  2  0
M  END
$$$$
