WDF.pdb
     RDKit          3D

 34 36  0  0  1  0  0  0  0  0999 V2000
    6.4920  -19.1010   24.4280 N   0  0  0  0  0  0  0  0  0  0  0  0
    7.1472  -18.1747   23.5665 C   0  0  1  0  0  0  0  0  0  0  0  0
    6.5504  -16.7928   23.7174 C   0  0  0  0  0  0  0  0  0  0  0  0
    6.7777  -16.0249   22.4912 C   0  0  0  0  0  0  0  0  0  0  0  0
    6.6264  -16.4290   21.1839 C   0  0  0  0  0  0  0  0  0  0  0  0
    6.9445  -15.3999   20.3894 N   0  0  0  0  0  0  0  0  0  0  0  0
    7.2956  -14.3458   21.1317 C   0  0  0  0  0  0  0  0  0  0  0  0
    7.7079  -13.0473   20.8245 C   0  0  0  0  0  0  0  0  0  0  0  0
    8.0174  -12.1340   21.8083 C   0  0  0  0  0  0  0  0  0  0  0  0
    7.9151  -12.5186   23.1163 C   0  0  0  0  0  0  0  0  0  0  0  0
    7.5057  -13.8096   23.4573 C   0  0  0  0  0  0  0  0  0  0  0  0
    7.1988  -14.7131   22.4427 C   0  0  0  0  0  0  0  0  0  0  0  0
    8.5940  -18.1374   23.8852 C   0  0  0  0  0  0  0  0  0  0  0  0
    8.9532  -18.5333   25.0289 O   0  0  0  0  0  0  0  0  0  0  0  0
    9.5581  -17.6750   22.9479 N   0  0  0  0  0  0  0  0  0  0  0  0
   10.9808  -17.6407   23.2266 C   0  0  1  0  0  0  0  0  0  0  0  0
   11.7903  -17.4951   21.9758 C   0  0  0  0  0  0  0  0  0  0  0  0
   13.2397  -17.5789   22.2063 C   0  0  0  0  0  0  0  0  0  0  0  0
   13.7132  -18.5440   22.8480 O   0  0  0  0  0  0  0  0  0  0  0  0
   11.3020  -16.6549   24.2901 C   0  0  0  0  0  0  0  0  0  0  0  0
   12.4087  -16.0659   24.2105 O   0  0  0  0  0  0  0  0  0  0  0  0
   14.0599  -16.5846   21.7074 O   0  0  0  0  0  0  0  0  0  0  0  0
   10.4001  -16.3854   25.3546 N   0  0  0  0  0  0  0  0  0  0  0  0
   10.7505  -15.6282   26.5272 C   0  0  1  0  0  0  0  0  0  0  0  0
   10.6144  -14.1589   26.2950 C   0  0  0  0  0  0  0  0  0  0  0  0
    9.2532  -13.6291   26.3019 C   0  0  0  0  0  0  0  0  0  0  0  0
    8.8035  -12.7578   27.2713 C   0  0  0  0  0  0  0  0  0  0  0  0
    7.5041  -12.3130   27.1883 C   0  0  0  0  0  0  0  0  0  0  0  0
    6.6515  -12.7059   26.1812 C   0  0  0  0  0  0  0  0  0  0  0  0
    7.1025  -13.5758   25.2145 C   0  0  0  0  0  0  0  0  0  0  0  0
    8.3980  -14.0354   25.2749 C   0  0  0  0  0  0  0  0  0  0  0  0
   10.0130  -16.1125   27.7158 C   0  0  0  0  0  0  0  0  0  0  0  0
    9.1882  -17.0462   27.5808 O   0  0  0  0  0  0  0  0  0  0  0  0
   10.1743  -15.5942   28.9827 O   0  0  0  0  0  0  0  0  0  0  0  0
  2  1  1  1
  2  3  1  0
  4  3  1  0
  4  5  2  0
  6  5  1  0
  7  6  1  0
  8  7  2  0
  9  8  1  0
 10  9  2  0
 10 11  1  0
 11 12  2  0
 12  7  1  0
 12  4  1  0
 13  2  1  0
 14 13  2  0
 15 13  1  0
 16 15  1  0
 17 18  1  0
 16 17  1  6
 18 19  2  0
 20 16  1  0
 20 23  1  0
 21 20  2  0
 22 18  1  0
 24 23  1  0
 24 25  1  6
 24 32  1  0
 26 31  1  0
 26 25  1  0
 27 26  2  0
 28 29  2  0
 28 27  1  0
 29 30  1  0
 30 31  2  0
 32 34  1  0
 33 32  2  0
M  END
$$$$
