WDF.pdb
     RDKit          3D

 34 36  0  0  1  0  0  0  0  0999 V2000
    7.1664  -17.8228   23.6475 N   0  0  0  0  0  0  0  0  0  0  0  0
    8.1329  -16.7984   23.8614 C   0  0  1  0  0  0  0  0  0  0  0  0
    8.0526  -16.2778   25.2795 C   0  0  0  0  0  0  0  0  0  0  0  0
    6.8069  -15.5281   25.4559 C   0  0  0  0  0  0  0  0  0  0  0  0
    5.6222  -15.9500   26.0160 C   0  0  0  0  0  0  0  0  0  0  0  0
    4.7528  -14.9335   25.9688 N   0  0  0  0  0  0  0  0  0  0  0  0
    5.3289  -13.8704   25.4001 C   0  0  0  0  0  0  0  0  0  0  0  0
    4.8873  -12.5780   25.1085 C   0  0  0  0  0  0  0  0  0  0  0  0
    5.7075  -11.6521   24.5020 C   0  0  0  0  0  0  0  0  0  0  0  0
    6.9853  -12.0178   24.1814 C   0  0  0  0  0  0  0  0  0  0  0  0
    7.4578  -13.3022   24.4596 C   0  0  0  0  0  0  0  0  0  0  0  0
    6.6075  -14.2188   25.0733 C   0  0  0  0  0  0  0  0  0  0  0  0
    9.4897  -17.3320   23.5953 C   0  0  0  0  0  0  0  0  0  0  0  0
    9.6695  -18.5737   23.7346 O   0  0  0  0  0  0  0  0  0  0  0  0
   10.5634  -16.4894   23.1964 N   0  0  0  0  0  0  0  0  0  0  0  0
   11.9474  -16.9224   23.1836 C   0  0  1  0  0  0  0  0  0  0  0  0
   12.8154  -15.9907   22.3966 C   0  0  0  0  0  0  0  0  0  0  0  0
   12.5789  -16.0579   20.9473 C   0  0  0  0  0  0  0  0  0  0  0  0
   12.8363  -15.0661   20.2279 O   0  0  0  0  0  0  0  0  0  0  0  0
   12.4372  -17.2154   24.5548 C   0  0  0  0  0  0  0  0  0  0  0  0
   13.6564  -17.4907   24.6813 O   0  0  0  0  0  0  0  0  0  0  0  0
   12.0733  -17.2222   20.4004 O   0  0  0  0  0  0  0  0  0  0  0  0
   11.5690  -17.1869   25.6793 N   0  0  0  0  0  0  0  0  0  0  0  0
   11.9088  -17.7345   26.9660 C   0  0  1  0  0  0  0  0  0  0  0  0
   11.1930  -17.0293   28.0712 C   0  0  0  0  0  0  0  0  0  0  0  0
   11.3750  -15.5815   28.1358 C   0  0  0  0  0  0  0  0  0  0  0  0
   12.5844  -14.9754   27.8687 C   0  0  0  0  0  0  0  0  0  0  0  0
   12.6529  -13.6038   27.9540 C   0  0  0  0  0  0  0  0  0  0  0  0
   11.5664  -12.8293   28.2930 C   0  0  0  0  0  0  0  0  0  0  0  0
   10.3600  -13.4364   28.5593 C   0  0  0  0  0  0  0  0  0  0  0  0
   10.2651  -14.8068   28.4809 C   0  0  0  0  0  0  0  0  0  0  0  0
   11.7301  -19.2039   26.9852 C   0  0  0  0  0  0  0  0  0  0  0  0
   11.1786  -19.7620   26.0082 O   0  0  0  0  0  0  0  0  0  0  0  0
   12.1352  -20.0126   28.0252 O   0  0  0  0  0  0  0  0  0  0  0  0
  2  1  1  1
  2  3  1  0
  4  3  1  0
  4  5  2  0
  6  5  1  0
  7  6  1  0
  8  7  2  0
  9  8  1  0
 10  9  2  0
 10 11  1  0
 11 12  2  0
 12  7  1  0
 12  4  1  0
 13  2  1  0
 14 13  2  0
 15 13  1  0
 16 15  1  0
 17 18  1  0
 16 17  1  1
 18 19  2  0
 20 16  1  0
 20 23  1  0
 21 20  2  0
 22 18  1  0
 24 23  1  0
 24 25  1  1
 24 32  1  0
 26 31  1  0
 26 25  1  0
 27 26  2  0
 28 29  2  0
 28 27  1  0
 29 30  1  0
 30 31  2  0
 32 34  1  0
 33 32  2  0
M  END
$$$$
