WDF.pdb
     RDKit          3D

 34 36  0  0  1  0  0  0  0  0999 V2000
    6.5362  -18.9058   23.6876 N   0  0  0  0  0  0  0  0  0  0  0  0
    7.2909  -17.8720   23.0622 C   0  0  1  0  0  0  0  0  0  0  0  0
    6.6305  -16.5275   23.2740 C   0  0  0  0  0  0  0  0  0  0  0  0
    6.7063  -15.7449   22.0383 C   0  0  0  0  0  0  0  0  0  0  0  0
    6.3383  -16.1135   20.7640 C   0  0  0  0  0  0  0  0  0  0  0  0
    6.5821  -15.0835   19.9447 N   0  0  0  0  0  0  0  0  0  0  0  0
    7.0933  -14.0630   20.6395 C   0  0  0  0  0  0  0  0  0  0  0  0
    7.5174  -12.7788   20.2911 C   0  0  0  0  0  0  0  0  0  0  0  0
    8.0174  -11.9020   21.2288 C   0  0  0  0  0  0  0  0  0  0  0  0
    8.0963  -12.3094   22.5315 C   0  0  0  0  0  0  0  0  0  0  0  0
    7.6806  -13.5869   22.9129 C   0  0  0  0  0  0  0  0  0  0  0  0
    7.1790  -14.4534   21.9445 C   0  0  0  0  0  0  0  0  0  0  0  0
    8.6643  -17.8533   23.6186 C   0  0  0  0  0  0  0  0  0  0  0  0
    8.9010  -18.5824   24.6216 O   0  0  0  0  0  0  0  0  0  0  0  0
    9.6921  -17.0483   23.0552 N   0  0  0  0  0  0  0  0  0  0  0  0
   11.0657  -17.0779   23.5196 C   0  0  1  0  0  0  0  0  0  0  0  0
   12.0036  -16.4687   22.5246 C   0  0  0  0  0  0  0  0  0  0  0  0
   13.4204  -16.6471   22.8737 C   0  0  0  0  0  0  0  0  0  0  0  0
   13.8466  -17.7823   23.1851 O   0  0  0  0  0  0  0  0  0  0  0  0
   11.1850  -16.5341   24.8965 C   0  0  0  0  0  0  0  0  0  0  0  0
   12.3280  -16.1744   25.2737 O   0  0  0  0  0  0  0  0  0  0  0  0
   14.2628  -15.5515   22.8520 O   0  0  0  0  0  0  0  0  0  0  0  0
   10.0582  -16.4228   25.7551 N   0  0  0  0  0  0  0  0  0  0  0  0
   10.1497  -16.1242   27.1599 C   0  0  1  0  0  0  0  0  0  0  0  0
    8.8079  -15.8384   27.7508 C   0  0  0  0  0  0  0  0  0  0  0  0
    8.0789  -14.7099   27.1775 C   0  0  0  0  0  0  0  0  0  0  0  0
    6.8317  -14.8485   26.6062 C   0  0  0  0  0  0  0  0  0  0  0  0
    6.2257  -13.7234   26.0958 C   0  0  0  0  0  0  0  0  0  0  0  0
    6.8184  -12.4815   26.1377 C   0  0  0  0  0  0  0  0  0  0  0  0
    8.0636  -12.3454   26.7085 C   0  0  0  0  0  0  0  0  0  0  0  0
    8.6909  -13.4552   27.2262 C   0  0  0  0  0  0  0  0  0  0  0  0
   10.9048  -17.1736   27.8810 C   0  0  0  0  0  0  0  0  0  0  0  0
   11.1805  -17.0012   29.0911 O   0  0  0  0  0  0  0  0  0  0  0  0
   11.3343  -18.3468   27.2990 O   0  0  0  0  0  0  0  0  0  0  0  0
  2  1  1  1
  2  3  1  0
  4  3  1  0
  4  5  2  0
  6  5  1  0
  7  6  1  0
  8  7  2  0
  9  8  1  0
 10  9  2  0
 10 11  1  0
 11 12  2  0
 12  7  1  0
 12  4  1  0
 13  2  1  0
 14 13  2  0
 15 13  1  0
 16 15  1  0
 17 18  1  0
 16 17  1  6
 18 19  2  0
 20 16  1  0
 20 23  1  0
 21 20  2  0
 22 18  1  0
 24 23  1  0
 24 25  1  1
 24 32  1  0
 26 31  1  0
 26 25  1  0
 27 26  2  0
 28 29  2  0
 28 27  1  0
 29 30  1  0
 30 31  2  0
 32 34  1  0
 33 32  2  0
M  END
$$$$
