WDF.pdb
     RDKit          3D

 34 36  0  0  1  0  0  0  0  0999 V2000
    6.8939  -18.3342   22.3293 N   0  0  0  0  0  0  0  0  0  0  0  0
    7.7309  -17.1850   22.4199 C   0  0  1  0  0  0  0  0  0  0  0  0
    6.9440  -15.9900   22.9112 C   0  0  0  0  0  0  0  0  0  0  0  0
    6.5526  -15.1591   21.7704 C   0  0  0  0  0  0  0  0  0  0  0  0
    5.4682  -15.3031   20.9345 C   0  0  0  0  0  0  0  0  0  0  0  0
    5.5044  -14.3170   20.0302 N   0  0  0  0  0  0  0  0  0  0  0  0
    6.5697  -13.5406   20.2486 C   0  0  0  0  0  0  0  0  0  0  0  0
    7.0745  -12.4006   19.6193 C   0  0  0  0  0  0  0  0  0  0  0  0
    8.2225  -11.7790   20.0591 C   0  0  0  0  0  0  0  0  0  0  0  0
    8.8773  -12.2994   21.1408 C   0  0  0  0  0  0  0  0  0  0  0  0
    8.3988  -13.4381   21.7926 C   0  0  0  0  0  0  0  0  0  0  0  0
    7.2358  -14.0469   21.3270 C   0  0  0  0  0  0  0  0  0  0  0  0
    8.8571  -17.4620   23.3425 C   0  0  0  0  0  0  0  0  0  0  0  0
    8.6447  -18.2464   24.3086 O   0  0  0  0  0  0  0  0  0  0  0  0
   10.1388  -16.8735   23.1614 N   0  0  0  0  0  0  0  0  0  0  0  0
   11.2749  -17.1725   24.0116 C   0  0  1  0  0  0  0  0  0  0  0  0
   12.5744  -16.9707   23.2965 C   0  0  0  0  0  0  0  0  0  0  0  0
   13.7052  -17.6582   23.9367 C   0  0  0  0  0  0  0  0  0  0  0  0
   14.3333  -18.5407   23.3090 O   0  0  0  0  0  0  0  0  0  0  0  0
   11.1729  -16.4753   25.3190 C   0  0  0  0  0  0  0  0  0  0  0  0
   11.5539  -15.2789   25.3619 O   0  0  0  0  0  0  0  0  0  0  0  0
   14.0575  -17.3162   25.2287 O   0  0  0  0  0  0  0  0  0  0  0  0
   10.6669  -17.1280   26.4753 N   0  0  0  0  0  0  0  0  0  0  0  0
   10.6375  -16.5287   27.7834 C   0  0  1  0  0  0  0  0  0  0  0  0
    9.2407  -16.2333   28.2226 C   0  0  0  0  0  0  0  0  0  0  0  0
    8.5342  -15.1994   27.4706 C   0  0  0  0  0  0  0  0  0  0  0  0
    8.9294  -13.8784   27.4788 C   0  0  0  0  0  0  0  0  0  0  0  0
    8.1988  -12.9805   26.7348 C   0  0  0  0  0  0  0  0  0  0  0  0
    7.1012  -13.3555   25.9933 C   0  0  0  0  0  0  0  0  0  0  0  0
    6.7084  -14.6748   25.9866 C   0  0  0  0  0  0  0  0  0  0  0  0
    7.4221  -15.5927   26.7223 C   0  0  0  0  0  0  0  0  0  0  0  0
   11.4084  -17.3341   28.7573 C   0  0  0  0  0  0  0  0  0  0  0  0
   11.8378  -18.4592   28.4110 O   0  0  0  0  0  0  0  0  0  0  0  0
   11.6883  -16.9224   30.0425 O   0  0  0  0  0  0  0  0  0  0  0  0
  2  1  1  1
  2  3  1  0
  4  3  1  0
  4  5  2  0
  6  5  1  0
  7  6  1  0
  8  7  2  0
  9  8  1  0
 10  9  2  0
 10 11  1  0
 11 12  2  0
 12  7  1  0
 12  4  1  0
 13  2  1  0
 14 13  2  0
 15 13  1  0
 16 15  1  0
 17 18  1  0
 16 17  1  6
 18 19  2  0
 20 16  1  0
 20 23  1  0
 21 20  2  0
 22 18  1  0
 24 23  1  0
 24 25  1  1
 24 32  1  0
 26 31  1  0
 26 25  1  0
 27 26  2  0
 28 29  2  0
 28 27  1  0
 29 30  1  0
 30 31  2  0
 32 34  1  0
 33 32  2  0
M  END
$$$$
