WDF.pdb
     RDKit          3D

 34 36  0  0  1  0  0  0  0  0999 V2000
    9.8412  -15.5498   21.8729 N   0  0  0  0  0  0  0  0  0  0  0  0
    9.3621  -15.7622   23.1976 C   0  0  1  0  0  0  0  0  0  0  0  0
    7.8500  -15.8063   23.2166 C   0  0  0  0  0  0  0  0  0  0  0  0
    7.3182  -14.4624   22.9797 C   0  0  0  0  0  0  0  0  0  0  0  0
    7.0378  -13.8485   21.7799 C   0  0  0  0  0  0  0  0  0  0  0  0
    6.5683  -12.6219   22.0382 N   0  0  0  0  0  0  0  0  0  0  0  0
    6.5340  -12.4185   23.3584 C   0  0  0  0  0  0  0  0  0  0  0  0
    6.1409  -11.3416   24.1559 C   0  0  0  0  0  0  0  0  0  0  0  0
    6.2086  -11.3958   25.5307 C   0  0  0  0  0  0  0  0  0  0  0  0
    6.6743  -12.5383   26.1201 C   0  0  0  0  0  0  0  0  0  0  0  0
    7.0753  -13.6331   25.3513 C   0  0  0  0  0  0  0  0  0  0  0  0
    6.9964  -13.5514   23.9631 C   0  0  0  0  0  0  0  0  0  0  0  0
    9.9110  -17.0330   23.7267 C   0  0  0  0  0  0  0  0  0  0  0  0
    9.1450  -17.7602   24.4181 O   0  0  0  0  0  0  0  0  0  0  0  0
   11.2514  -17.4351   23.4745 N   0  0  0  0  0  0  0  0  0  0  0  0
   11.9148  -18.4898   24.2165 C   0  0  1  0  0  0  0  0  0  0  0  0
   13.1667  -18.9476   23.5353 C   0  0  0  0  0  0  0  0  0  0  0  0
   13.7471  -20.1581   24.1344 C   0  0  0  0  0  0  0  0  0  0  0  0
   14.9895  -20.3118   24.1478 O   0  0  0  0  0  0  0  0  0  0  0  0
   12.0862  -18.1230   25.6455 C   0  0  0  0  0  0  0  0  0  0  0  0
   12.9599  -17.2616   25.9154 O   0  0  0  0  0  0  0  0  0  0  0  0
   12.9058  -21.1117   24.6759 O   0  0  0  0  0  0  0  0  0  0  0  0
   11.2987  -18.7175   26.6680 N   0  0  0  0  0  0  0  0  0  0  0  0
   11.4935  -18.4711   28.0725 C   0  0  1  0  0  0  0  0  0  0  0  0
   10.3554  -17.7024   28.6599 C   0  0  0  0  0  0  0  0  0  0  0  0
   10.2146  -16.3186   28.2139 C   0  0  0  0  0  0  0  0  0  0  0  0
    9.3319  -15.9474   27.2219 C   0  0  0  0  0  0  0  0  0  0  0  0
    9.2715  -14.6173   26.8748 C   0  0  0  0  0  0  0  0  0  0  0  0
   10.0545  -13.6597   27.4791 C   0  0  0  0  0  0  0  0  0  0  0  0
   10.9351  -14.0324   28.4693 C   0  0  0  0  0  0  0  0  0  0  0  0
   11.0146  -15.3565   28.8349 C   0  0  0  0  0  0  0  0  0  0  0  0
   11.8001  -19.7250   28.7971 C   0  0  0  0  0  0  0  0  0  0  0  0
   12.0527  -19.6722   30.0234 O   0  0  0  0  0  0  0  0  0  0  0  0
   11.8290  -20.9678   28.2020 O   0  0  0  0  0  0  0  0  0  0  0  0
  2  1  1  6
  2  3  1  0
  4  3  1  0
  4  5  2  0
  6  5  1  0
  7  6  1  0
  8  7  2  0
  9  8  1  0
 10  9  2  0
 10 11  1  0
 11 12  2  0
 12  7  1  0
 12  4  1  0
 13  2  1  0
 14 13  2  0
 15 13  1  0
 16 15  1  0
 17 18  1  0
 16 17  1  6
 18 19  2  0
 20 16  1  0
 20 23  1  0
 21 20  2  0
 22 18  1  0
 24 23  1  0
 24 25  1  1
 24 32  1  0
 26 31  1  0
 26 25  1  0
 27 26  2  0
 28 29  2  0
 28 27  1  0
 29 30  1  0
 30 31  2  0
 32 34  1  0
 33 32  2  0
M  END
$$$$
