WDF.pdb
     RDKit          3D

 34 36  0  0  1  0  0  0  0  0999 V2000
    7.3389  -18.7529   22.6640 N   0  0  0  0  0  0  0  0  0  0  0  0
    8.0882  -17.5429   22.6028 C   0  0  1  0  0  0  0  0  0  0  0  0
    7.2327  -16.3650   23.0144 C   0  0  0  0  0  0  0  0  0  0  0  0
    6.8928  -15.5701   21.8321 C   0  0  0  0  0  0  0  0  0  0  0  0
    5.9959  -15.8621   20.8293 C   0  0  0  0  0  0  0  0  0  0  0  0
    6.0077  -14.8518   19.9515 N   0  0  0  0  0  0  0  0  0  0  0  0
    6.8772  -13.9175   20.3474 C   0  0  0  0  0  0  0  0  0  0  0  0
    7.2749  -12.6876   19.8187 C   0  0  0  0  0  0  0  0  0  0  0  0
    8.2156  -11.9001   20.4452 C   0  0  0  0  0  0  0  0  0  0  0  0
    8.7684  -12.3432   21.6146 C   0  0  0  0  0  0  0  0  0  0  0  0
    8.3926  -13.5682   22.1699 C   0  0  0  0  0  0  0  0  0  0  0  0
    7.4391  -14.3446   21.5157 C   0  0  0  0  0  0  0  0  0  0  0  0
    9.2694  -17.6443   23.4920 C   0  0  0  0  0  0  0  0  0  0  0  0
    9.3463  -18.6485   24.2530 O   0  0  0  0  0  0  0  0  0  0  0  0
   10.2901  -16.6544   23.5010 N   0  0  0  0  0  0  0  0  0  0  0  0
   11.6183  -16.8910   24.0331 C   0  0  1  0  0  0  0  0  0  0  0  0
   12.6845  -16.3594   23.1267 C   0  0  0  0  0  0  0  0  0  0  0  0
   14.0467  -16.6093   23.6197 C   0  0  0  0  0  0  0  0  0  0  0  0
   14.4743  -17.7832   23.6996 O   0  0  0  0  0  0  0  0  0  0  0  0
   11.7253  -16.4422   25.4448 C   0  0  0  0  0  0  0  0  0  0  0  0
   12.8491  -16.5483   25.9964 O   0  0  0  0  0  0  0  0  0  0  0  0
   14.8369  -15.5370   23.9888 O   0  0  0  0  0  0  0  0  0  0  0  0
   10.6082  -15.9146   26.1468 N   0  0  0  0  0  0  0  0  0  0  0  0
   10.4834  -15.9326   27.5804 C   0  0  1  0  0  0  0  0  0  0  0  0
    9.1168  -15.5198   28.0195 C   0  0  0  0  0  0  0  0  0  0  0  0
    8.5519  -14.3497   27.3522 C   0  0  0  0  0  0  0  0  0  0  0  0
    9.2083  -13.1382   27.3019 C   0  0  0  0  0  0  0  0  0  0  0  0
    8.5931  -12.0963   26.6465 C   0  0  0  0  0  0  0  0  0  0  0  0
    7.3599  -12.2249   26.0483 C   0  0  0  0  0  0  0  0  0  0  0  0
    6.7063  -13.4353   26.0998 C   0  0  0  0  0  0  0  0  0  0  0  0
    7.3001  -14.4931   26.7491 C   0  0  0  0  0  0  0  0  0  0  0  0
   10.9190  -17.2328   28.1381 C   0  0  0  0  0  0  0  0  0  0  0  0
   10.8130  -18.2631   27.4327 O   0  0  0  0  0  0  0  0  0  0  0  0
   11.4403  -17.3886   29.4045 O   0  0  0  0  0  0  0  0  0  0  0  0
  2  1  1  1
  2  3  1  0
  4  3  1  0
  4  5  2  0
  6  5  1  0
  7  6  1  0
  8  7  2  0
  9  8  1  0
 10  9  2  0
 10 11  1  0
 11 12  2  0
 12  7  1  0
 12  4  1  0
 13  2  1  0
 14 13  2  0
 15 13  1  0
 16 15  1  0
 17 18  1  0
 16 17  1  6
 18 19  2  0
 20 16  1  0
 20 23  1  0
 21 20  2  0
 22 18  1  0
 24 23  1  0
 24 25  1  6
 24 32  1  0
 26 31  1  0
 26 25  1  0
 27 26  2  0
 28 29  2  0
 28 27  1  0
 29 30  1  0
 30 31  2  0
 32 34  1  0
 33 32  2  0
M  END
$$$$
