WDF.pdb
     RDKit          3D

 34 36  0  0  1  0  0  0  0  0999 V2000
    6.6750  -18.2562   23.2884 N   0  0  0  0  0  0  0  0  0  0  0  0
    7.5689  -17.2149   23.6705 C   0  0  1  0  0  0  0  0  0  0  0  0
    7.5596  -17.0288   25.1718 C   0  0  0  0  0  0  0  0  0  0  0  0
    6.5508  -16.0310   25.5350 C   0  0  0  0  0  0  0  0  0  0  0  0
    5.3529  -16.2183   26.1870 C   0  0  0  0  0  0  0  0  0  0  0  0
    4.7526  -15.0281   26.3075 N   0  0  0  0  0  0  0  0  0  0  0  0
    5.5157  -14.0781   25.7591 C   0  0  0  0  0  0  0  0  0  0  0  0
    5.3741  -12.6966   25.6113 C   0  0  0  0  0  0  0  0  0  0  0  0
    6.3368  -11.9324   24.9893 C   0  0  0  0  0  0  0  0  0  0  0  0
    7.4563  -12.5521   24.5075 C   0  0  0  0  0  0  0  0  0  0  0  0
    7.6285  -13.9317   24.6392 C   0  0  0  0  0  0  0  0  0  0  0  0
    6.6395  -14.6806   25.2724 C   0  0  0  0  0  0  0  0  0  0  0  0
    8.9391  -17.5426   23.2108 C   0  0  0  0  0  0  0  0  0  0  0  0
    9.3151  -18.7446   23.2972 O   0  0  0  0  0  0  0  0  0  0  0  0
    9.8135  -16.5506   22.6879 N   0  0  0  0  0  0  0  0  0  0  0  0
   11.2337  -16.7698   22.4931 C   0  0  1  0  0  0  0  0  0  0  0  0
   11.8311  -15.7596   21.5638 C   0  0  0  0  0  0  0  0  0  0  0  0
   13.1349  -16.1666   21.0204 C   0  0  0  0  0  0  0  0  0  0  0  0
   14.1629  -15.5158   21.3153 O   0  0  0  0  0  0  0  0  0  0  0  0
   11.9436  -16.9143   23.7897 C   0  0  0  0  0  0  0  0  0  0  0  0
   13.1855  -17.0985   23.7458 O   0  0  0  0  0  0  0  0  0  0  0  0
   13.2038  -17.2678   20.1879 O   0  0  0  0  0  0  0  0  0  0  0  0
   11.2531  -16.8479   25.0298 N   0  0  0  0  0  0  0  0  0  0  0  0
   11.8553  -17.1632   26.2983 C   0  0  1  0  0  0  0  0  0  0  0  0
   11.0205  -16.6813   27.4393 C   0  0  0  0  0  0  0  0  0  0  0  0
   10.7374  -15.2487   27.4702 C   0  0  0  0  0  0  0  0  0  0  0  0
   11.3537  -14.3919   28.3575 C   0  0  0  0  0  0  0  0  0  0  0  0
   11.0207  -13.0579   28.3054 C   0  0  0  0  0  0  0  0  0  0  0  0
   10.1039  -12.5598   27.4071 C   0  0  0  0  0  0  0  0  0  0  0  0
    9.4898  -13.4169   26.5222 C   0  0  0  0  0  0  0  0  0  0  0  0
    9.8055  -14.7557   26.5539 C   0  0  0  0  0  0  0  0  0  0  0  0
   12.2031  -18.5997   26.3819 C   0  0  0  0  0  0  0  0  0  0  0  0
   12.8779  -19.0060   27.3565 O   0  0  0  0  0  0  0  0  0  0  0  0
   11.8296  -19.5357   25.4416 O   0  0  0  0  0  0  0  0  0  0  0  0
  2  1  1  1
  2  3  1  0
  4  3  1  0
  4  5  2  0
  6  5  1  0
  7  6  1  0
  8  7  2  0
  9  8  1  0
 10  9  2  0
 10 11  1  0
 11 12  2  0
 12  7  1  0
 12  4  1  0
 13  2  1  0
 14 13  2  0
 15 13  1  0
 16 15  1  0
 17 18  1  0
 16 17  1  1
 18 19  2  0
 20 16  1  0
 20 23  1  0
 21 20  2  0
 22 18  1  0
 24 23  1  0
 24 25  1  1
 24 32  1  0
 26 31  1  0
 26 25  1  0
 27 26  2  0
 28 29  2  0
 28 27  1  0
 29 30  1  0
 30 31  2  0
 32 34  1  0
 33 32  2  0
M  END
$$$$
