WDF.pdb
     RDKit          3D

 34 36  0  0  1  0  0  0  0  0999 V2000
    6.6050  -17.9482   24.2552 N   0  0  0  0  0  0  0  0  0  0  0  0
    7.4425  -17.5496   23.1739 C   0  0  1  0  0  0  0  0  0  0  0  0
    7.2168  -16.0928   22.8343 C   0  0  0  0  0  0  0  0  0  0  0  0
    6.9263  -15.3440   24.0591 C   0  0  0  0  0  0  0  0  0  0  0  0
    6.4628  -15.8173   25.2658 C   0  0  0  0  0  0  0  0  0  0  0  0
    6.3416  -14.7795   26.1025 N   0  0  0  0  0  0  0  0  0  0  0  0
    6.7088  -13.6534   25.4839 C   0  0  0  0  0  0  0  0  0  0  0  0
    6.7756  -12.3160   25.8804 C   0  0  0  0  0  0  0  0  0  0  0  0
    7.2014  -11.3265   25.0217 C   0  0  0  0  0  0  0  0  0  0  0  0
    7.5658  -11.6733   23.7503 C   0  0  0  0  0  0  0  0  0  0  0  0
    7.5105  -13.0016   23.3224 C   0  0  0  0  0  0  0  0  0  0  0  0
    7.0763  -13.9821   24.2112 C   0  0  0  0  0  0  0  0  0  0  0  0
    8.8621  -17.7693   23.5378 C   0  0  0  0  0  0  0  0  0  0  0  0
    9.1100  -18.2081   24.6952 O   0  0  0  0  0  0  0  0  0  0  0  0
    9.9211  -17.5007   22.6277 N   0  0  0  0  0  0  0  0  0  0  0  0
   11.3139  -17.7665   22.9323 C   0  0  1  0  0  0  0  0  0  0  0  0
   12.1895  -17.5959   21.7302 C   0  0  0  0  0  0  0  0  0  0  0  0
   11.5592  -16.8152   20.6558 C   0  0  0  0  0  0  0  0  0  0  0  0
   11.9550  -15.6517   20.4172 O   0  0  0  0  0  0  0  0  0  0  0  0
   11.7594  -17.0163   24.1342 C   0  0  0  0  0  0  0  0  0  0  0  0
   12.2115  -15.8584   23.9523 O   0  0  0  0  0  0  0  0  0  0  0  0
   10.5339  -17.3828   19.9230 O   0  0  0  0  0  0  0  0  0  0  0  0
   11.6800  -17.5788   25.4367 N   0  0  0  0  0  0  0  0  0  0  0  0
   12.3385  -17.0229   26.5893 C   0  0  1  0  0  0  0  0  0  0  0  0
   11.9585  -15.5946   26.8053 C   0  0  0  0  0  0  0  0  0  0  0  0
   10.6526  -15.3609   27.4165 C   0  0  0  0  0  0  0  0  0  0  0  0
    9.5342  -15.0457   26.6743 C   0  0  0  0  0  0  0  0  0  0  0  0
    8.3487  -14.8469   27.3440 C   0  0  0  0  0  0  0  0  0  0  0  0
    8.2469  -14.9516   28.7129 C   0  0  0  0  0  0  0  0  0  0  0  0
    9.3647  -15.2663   29.4521 C   0  0  0  0  0  0  0  0  0  0  0  0
   10.5624  -15.4701   28.8062 C   0  0  0  0  0  0  0  0  0  0  0  0
   12.1398  -17.8772   27.7818 C   0  0  0  0  0  0  0  0  0  0  0  0
   11.3381  -18.8379   27.7145 O   0  0  0  0  0  0  0  0  0  0  0  0
   12.7874  -17.6813   28.9826 O   0  0  0  0  0  0  0  0  0  0  0  0
  2  1  1  1
  2  3  1  0
  4  3  1  0
  4  5  2  0
  6  5  1  0
  7  6  1  0
  8  7  2  0
  9  8  1  0
 10  9  2  0
 10 11  1  0
 11 12  2  0
 12  7  1  0
 12  4  1  0
 13  2  1  0
 14 13  2  0
 15 13  1  0
 16 15  1  0
 17 18  1  0
 16 17  1  6
 18 19  2  0
 20 16  1  0
 20 23  1  0
 21 20  2  0
 22 18  1  0
 24 23  1  0
 24 25  1  1
 24 32  1  0
 26 31  1  0
 26 25  1  0
 27 26  2  0
 28 29  2  0
 28 27  1  0
 29 30  1  0
 30 31  2  0
 32 34  1  0
 33 32  2  0
M  END
$$$$
