YVC.pdb
     RDKit          3D

 26 26  0  0  1  0  0  0  0  0999 V2000
   19.1310  -17.5437  -15.1796 O   0  0  0  0  0  0  0  0  0  0  0  0
   19.9039  -18.2005  -14.2324 C   0  0  0  0  0  0  0  0  0  0  0  0
   19.4788  -19.3622  -13.6503 C   0  0  0  0  0  0  0  0  0  0  0  0
   20.2125  -20.0330  -12.7169 C   0  0  0  0  0  0  0  0  0  0  0  0
   21.4526  -19.5511  -12.3095 C   0  0  0  0  0  0  0  0  0  0  0  0
   22.2638  -20.2785  -11.2879 C   0  0  0  0  0  0  0  0  0  0  0  0
   23.5244  -20.7665  -12.0131 C   0  0  2  0  0  0  0  0  0  0  0  0
   23.1012  -21.7718  -12.9431 N   0  0  0  0  0  0  0  0  0  0  0  0
   24.5066  -21.3056  -11.0300 C   0  0  0  0  0  0  0  0  0  0  0  0
   24.2672  -22.3139  -10.3249 O   0  0  0  0  0  0  0  0  0  0  0  0
   21.8866  -18.3795  -12.8934 C   0  0  0  0  0  0  0  0  0  0  0  0
   21.1377  -17.7032  -13.8401 C   0  0  0  0  0  0  0  0  0  0  0  0
   29.2599  -21.1266   -9.8506 C   0  0  0  0  0  0  0  0  0  0  0  0
   28.0758  -20.9717  -10.7498 C   0  0  1  0  0  0  0  0  0  0  0  0
   28.1084  -21.7884  -11.9935 C   0  0  0  0  0  0  0  0  0  0  0  0
   26.7829  -21.0771   -9.9567 C   0  0  2  0  0  0  0  0  0  0  0  0
   25.7411  -20.6566  -10.8942 N   0  0  0  0  0  0  0  0  0  0  0  0
   26.7635  -20.2720   -8.7368 C   0  0  0  0  0  0  0  0  0  0  0  0
   26.5431  -19.0131   -8.7652 O   0  0  0  0  0  0  0  0  0  0  0  0
   26.9891  -20.8659   -7.4753 N   0  0  0  0  0  0  0  0  0  0  0  0
   27.1397  -20.0507   -6.2652 C   0  0  1  0  0  0  0  0  0  0  0  0
   27.1905  -20.9618   -5.0389 C   0  0  0  0  0  0  0  0  0  0  0  0
   27.7124  -20.0292   -3.5817 S   0  0  0  0  0  0  0  0  0  0  0  0
   28.4254  -19.3484   -6.3388 C   0  0  0  0  0  0  0  0  0  0  0  0
   28.6163  -18.0396   -5.9075 O   0  0  0  0  0  0  0  0  0  0  0  0
   29.4616  -19.9153   -6.8143 O   0  0  0  0  0  0  0  0  0  0  0  0
  2  1  1  0
  2  3  2  0
  4  3  1  0
  5  4  2  0
  6  5  1  0
  7  9  1  0
  7  6  1  0
  7  8  1  6
  9 17  1  0
  9 10  2  0
 11 12  2  0
 11  5  1  0
 12  2  1  0
 14 13  1  1
 14 15  1  0
 16 14  1  0
 16 17  1  6
 18 20  1  0
 18 16  1  0
 19 18  2  0
 21 20  1  0
 22 23  1  0
 21 22  1  1
 24 21  1  0
 24 25  1  0
 26 24  2  0
M  END
$$$$
