YVC.pdb
     RDKit          3D

 26 26  0  0  1  0  0  0  0  0999 V2000
   30.6307  -24.7865  -18.8521 O   0  0  0  0  0  0  0  0  0  0  0  0
   29.9636  -23.8577  -18.0658 C   0  0  0  0  0  0  0  0  0  0  0  0
   30.2716  -22.5270  -18.1228 C   0  0  0  0  0  0  0  0  0  0  0  0
   29.6366  -21.5881  -17.3646 C   0  0  0  0  0  0  0  0  0  0  0  0
   28.6257  -21.9549  -16.4816 C   0  0  0  0  0  0  0  0  0  0  0  0
   27.9242  -20.9341  -15.6470 C   0  0  0  0  0  0  0  0  0  0  0  0
   26.5309  -20.7624  -16.2653 C   0  0  2  0  0  0  0  0  0  0  0  0
   26.7192  -20.1213  -17.5334 N   0  0  0  0  0  0  0  0  0  0  0  0
   25.6644  -19.9521  -15.3628 C   0  0  0  0  0  0  0  0  0  0  0  0
   25.4437  -18.7339  -15.5589 O   0  0  0  0  0  0  0  0  0  0  0  0
   28.3108  -23.2961  -16.4199 C   0  0  0  0  0  0  0  0  0  0  0  0
   28.9587  -24.2444  -17.1917 C   0  0  0  0  0  0  0  0  0  0  0  0
   23.3215  -18.5951  -15.2945 C   0  0  0  0  0  0  0  0  0  0  0  0
   22.9335  -19.5960  -14.2541 C   0  0  1  0  0  0  0  0  0  0  0  0
   22.1822  -20.7787  -14.7559 C   0  0  0  0  0  0  0  0  0  0  0  0
   24.1194  -19.9305  -13.3634 C   0  0  2  0  0  0  0  0  0  0  0  0
   25.0783  -20.5814  -14.2566 N   0  0  0  0  0  0  0  0  0  0  0  0
   23.7873  -20.7807  -12.2215 C   0  0  0  0  0  0  0  0  0  0  0  0
   23.2028  -21.9079  -12.3697 O   0  0  0  0  0  0  0  0  0  0  0  0
   24.1060  -20.3798  -10.9052 N   0  0  0  0  0  0  0  0  0  0  0  0
   23.7751  -21.2221   -9.7508 C   0  0  1  0  0  0  0  0  0  0  0  0
   24.5365  -20.7260   -8.5218 C   0  0  0  0  0  0  0  0  0  0  0  0
   26.2927  -20.5358   -8.9025 S   0  0  0  0  0  0  0  0  0  0  0  0
   22.3440  -21.0728   -9.4655 C   0  0  0  0  0  0  0  0  0  0  0  0
   21.6322  -21.9195   -8.6218 O   0  0  0  0  0  0  0  0  0  0  0  0
   21.6603  -20.1351   -9.9893 O   0  0  0  0  0  0  0  0  0  0  0  0
  2  1  1  0
  2  3  2  0
  4  3  1  0
  5  4  2  0
  6  5  1  0
  7  9  1  0
  7  6  1  0
  7  8  1  6
  9 17  1  0
  9 10  2  0
 11 12  2  0
 11  5  1  0
 12  2  1  0
 14 13  1  6
 14 15  1  0
 16 14  1  0
 16 17  1  6
 18 20  1  0
 18 16  1  0
 19 18  2  0
 21 20  1  0
 22 23  1  0
 21 22  1  1
 24 21  1  0
 24 25  1  0
 26 24  2  0
M  END
$$$$
