YVC.pdb
     RDKit          3D

 26 26  0  0  1  0  0  0  0  0999 V2000
   15.7606  -16.0042  -15.6768 O   0  0  0  0  0  0  0  0  0  0  0  0
   16.6355  -14.9283  -15.7315 C   0  0  0  0  0  0  0  0  0  0  0  0
   17.9205  -15.0338  -15.2769 C   0  0  0  0  0  0  0  0  0  0  0  0
   18.8058  -13.9974  -15.3157 C   0  0  0  0  0  0  0  0  0  0  0  0
   18.4285  -12.7615  -15.8317 C   0  0  0  0  0  0  0  0  0  0  0  0
   19.3909  -11.6202  -15.8785 C   0  0  0  0  0  0  0  0  0  0  0  0
   19.7063  -11.3893  -17.3618 C   0  0  2  0  0  0  0  0  0  0  0  0
   20.5278  -12.4855  -17.7837 N   0  0  0  0  0  0  0  0  0  0  0  0
   20.3990  -10.0818  -17.5425 C   0  0  0  0  0  0  0  0  0  0  0  0
   21.6435   -9.9627  -17.4520 O   0  0  0  0  0  0  0  0  0  0  0  0
   17.1333  -12.6492  -16.2918 C   0  0  0  0  0  0  0  0  0  0  0  0
   16.2393  -13.7045  -16.2498 C   0  0  0  0  0  0  0  0  0  0  0  0
   19.4974   -5.4990  -19.1194 C   0  0  0  0  0  0  0  0  0  0  0  0
   19.3207   -6.9832  -19.0951 C   0  0  1  0  0  0  0  0  0  0  0  0
   19.4081   -7.6576  -20.4188 C   0  0  0  0  0  0  0  0  0  0  0  0
   20.1810   -7.6077  -18.0081 C   0  0  2  0  0  0  0  0  0  0  0  0
   19.6246   -8.9484  -17.8236 N   0  0  0  0  0  0  0  0  0  0  0  0
   20.1974   -6.8564  -16.7543 C   0  0  0  0  0  0  0  0  0  0  0  0
   19.1228   -6.5931  -16.1140 O   0  0  0  0  0  0  0  0  0  0  0  0
   21.4135   -6.3939  -16.2047 N   0  0  0  0  0  0  0  0  0  0  0  0
   21.4391   -5.5962  -14.9740 C   0  0  1  0  0  0  0  0  0  0  0  0
   22.4813   -6.1707  -14.0148 C   0  0  0  0  0  0  0  0  0  0  0  0
   22.7972   -5.0155  -12.6615 S   0  0  0  0  0  0  0  0  0  0  0  0
   21.8655   -4.2348  -15.3152 C   0  0  0  0  0  0  0  0  0  0  0  0
   22.7429   -3.9376  -16.3531 O   0  0  0  0  0  0  0  0  0  0  0  0
   21.4435   -3.2270  -14.6615 O   0  0  0  0  0  0  0  0  0  0  0  0
  2  1  1  0
  2  3  2  0
  4  3  1  0
  5  4  2  0
  6  5  1  0
  7  9  1  0
  7  6  1  0
  7  8  1  1
  9 17  1  0
  9 10  2  0
 11 12  2  0
 11  5  1  0
 12  2  1  0
 14 13  1  6
 14 15  1  0
 16 14  1  0
 16 17  1  1
 18 20  1  0
 18 16  1  0
 19 18  2  0
 21 20  1  0
 22 23  1  0
 21 22  1  1
 24 21  1  0
 24 25  1  0
 26 24  2  0
M  END
$$$$
