YVC.pdb
     RDKit          3D

 26 26  0  0  1  0  0  0  0  0999 V2000
   29.9348  -14.1822  -16.9171 O   0  0  0  0  0  0  0  0  0  0  0  0
   28.9711  -13.1955  -17.0706 C   0  0  0  0  0  0  0  0  0  0  0  0
   28.4999  -12.8489  -18.3062 C   0  0  0  0  0  0  0  0  0  0  0  0
   27.5539  -11.8846  -18.4929 C   0  0  0  0  0  0  0  0  0  0  0  0
   27.0175  -11.1981  -17.4080 C   0  0  0  0  0  0  0  0  0  0  0  0
   25.9810  -10.1403  -17.6021 C   0  0  0  0  0  0  0  0  0  0  0  0
   24.6245  -10.8499  -17.5057 C   0  0  2  0  0  0  0  0  0  0  0  0
   24.5897  -11.8173  -18.5629 N   0  0  0  0  0  0  0  0  0  0  0  0
   23.5168   -9.8602  -17.6295 C   0  0  0  0  0  0  0  0  0  0  0  0
   23.0550   -9.5039  -18.7391 O   0  0  0  0  0  0  0  0  0  0  0  0
   27.4891  -11.5435  -16.1590 C   0  0  0  0  0  0  0  0  0  0  0  0
   28.4492  -12.5230  -15.9757 C   0  0  0  0  0  0  0  0  0  0  0  0
   19.5321   -8.2481  -15.6715 C   0  0  0  0  0  0  0  0  0  0  0  0
   20.6511   -9.1472  -16.0888 C   0  0  1  0  0  0  0  0  0  0  0  0
   20.2906  -10.1953  -17.0819 C   0  0  0  0  0  0  0  0  0  0  0  0
   21.8866   -8.3357  -16.4447 C   0  0  2  0  0  0  0  0  0  0  0  0
   22.9764   -9.3119  -16.4587 N   0  0  0  0  0  0  0  0  0  0  0  0
   22.1639   -7.2352  -15.5233 C   0  0  0  0  0  0  0  0  0  0  0  0
   22.3556   -7.4351  -14.2753 O   0  0  0  0  0  0  0  0  0  0  0  0
   22.2305   -5.9031  -15.9878 N   0  0  0  0  0  0  0  0  0  0  0  0
   22.5683   -4.7972  -15.0853 C   0  0  1  0  0  0  0  0  0  0  0  0
   23.1622   -3.6428  -15.8922 C   0  0  0  0  0  0  0  0  0  0  0  0
   24.6899   -4.1623  -16.7055 S   0  0  0  0  0  0  0  0  0  0  0  0
   21.3294   -4.3071  -14.4718 C   0  0  0  0  0  0  0  0  0  0  0  0
   21.2710   -3.7210  -13.2114 O   0  0  0  0  0  0  0  0  0  0  0  0
   20.2127   -4.3949  -15.0772 O   0  0  0  0  0  0  0  0  0  0  0  0
  2  1  1  0
  2  3  2  0
  4  3  1  0
  5  4  2  0
  6  5  1  0
  7  9  1  0
  7  6  1  0
  7  8  1  6
  9 17  1  0
  9 10  2  0
 11 12  2  0
 11  5  1  0
 12  2  1  0
 14 13  1  6
 14 15  1  0
 16 14  1  0
 16 17  1  1
 18 20  1  0
 18 16  1  0
 19 18  2  0
 21 20  1  0
 22 23  1  0
 21 22  1  6
 24 21  1  0
 24 25  1  0
 26 24  2  0
M  END
$$$$
