YVC.pdb
     RDKit          3D

 26 26  0  0  1  0  0  0  0  0999 V2000
   29.4252  -20.0904   -5.9538 O   0  0  0  0  0  0  0  0  0  0  0  0
   28.3790  -20.3081   -6.8392 C   0  0  0  0  0  0  0  0  0  0  0  0
   28.3549  -21.4056   -7.6541 C   0  0  0  0  0  0  0  0  0  0  0  0
   27.3432  -21.6501   -8.5352 C   0  0  0  0  0  0  0  0  0  0  0  0
   26.2693  -20.7720   -8.6430 C   0  0  0  0  0  0  0  0  0  0  0  0
   25.1564  -21.0310   -9.6049 C   0  0  0  0  0  0  0  0  0  0  0  0
   25.7386  -20.7938  -11.0042 C   0  0  2  0  0  0  0  0  0  0  0  0
   26.5957  -19.6492  -10.9050 N   0  0  0  0  0  0  0  0  0  0  0  0
   24.6401  -20.5745  -11.9876 C   0  0  0  0  0  0  0  0  0  0  0  0
   24.1196  -19.4494  -12.1736 O   0  0  0  0  0  0  0  0  0  0  0  0
   26.2882  -19.6631   -7.8234 C   0  0  0  0  0  0  0  0  0  0  0  0
   27.3177  -19.4202   -6.9313 C   0  0  0  0  0  0  0  0  0  0  0  0
   22.7217  -22.2502  -16.0837 C   0  0  0  0  0  0  0  0  0  0  0  0
   23.7506  -22.0871  -15.0116 C   0  0  1  0  0  0  0  0  0  0  0  0
   24.9830  -21.3573  -15.4161 C   0  0  0  0  0  0  0  0  0  0  0  0
   23.1109  -21.5860  -13.7265 C   0  0  2  0  0  0  0  0  0  0  0  0
   24.1770  -21.6704  -12.7278 N   0  0  0  0  0  0  0  0  0  0  0  0
   21.9288  -22.3407  -13.3143 C   0  0  0  0  0  0  0  0  0  0  0  0
   21.9942  -23.5813  -13.0130 O   0  0  0  0  0  0  0  0  0  0  0  0
   20.6644  -21.7163  -13.2342 N   0  0  0  0  0  0  0  0  0  0  0  0
   19.4713  -22.4616  -12.8190 C   0  0  1  0  0  0  0  0  0  0  0  0
   18.3451  -21.4813  -12.4917 C   0  0  0  0  0  0  0  0  0  0  0  0
   18.8176  -20.4169  -11.1099 S   0  0  0  0  0  0  0  0  0  0  0  0
   19.0210  -23.2795  -13.9503 C   0  0  0  0  0  0  0  0  0  0  0  0
   18.4977  -24.5616  -13.8166 O   0  0  0  0  0  0  0  0  0  0  0  0
   19.0873  -22.8469  -15.1460 O   0  0  0  0  0  0  0  0  0  0  0  0
  2  1  1  0
  2  3  2  0
  4  3  1  0
  5  4  2  0
  6  5  1  0
  7  9  1  0
  7  6  1  0
  7  8  1  1
  9 17  1  0
  9 10  2  0
 11 12  2  0
 11  5  1  0
 12  2  1  0
 14 13  1  6
 14 15  1  0
 16 14  1  0
 16 17  1  1
 18 20  1  0
 18 16  1  0
 19 18  2  0
 21 20  1  0
 22 23  1  0
 21 22  1  6
 24 21  1  0
 24 25  1  0
 26 24  2  0
M  END
$$$$
