YVC.pdb
     RDKit          3D

 26 26  0  0  1  0  0  0  0  0999 V2000
   15.1149  -16.0215  -20.3374 O   0  0  0  0  0  0  0  0  0  0  0  0
   15.6907  -15.1758  -19.3998 C   0  0  0  0  0  0  0  0  0  0  0  0
   16.3252  -14.0249  -19.7763 C   0  0  0  0  0  0  0  0  0  0  0  0
   16.9014  -13.1718  -18.8819 C   0  0  0  0  0  0  0  0  0  0  0  0
   16.8662  -13.4446  -17.5180 C   0  0  0  0  0  0  0  0  0  0  0  0
   17.4944  -12.5166  -16.5305 C   0  0  0  0  0  0  0  0  0  0  0  0
   19.0096  -12.6341  -16.7393 C   0  0  2  0  0  0  0  0  0  0  0  0
   19.3830  -13.9509  -16.3137 N   0  0  0  0  0  0  0  0  0  0  0  0
   19.7192  -11.5818  -15.9577 C   0  0  0  0  0  0  0  0  0  0  0  0
   19.9892  -11.7159  -14.7410 O   0  0  0  0  0  0  0  0  0  0  0  0
   16.2275  -14.6044  -17.1323 C   0  0  0  0  0  0  0  0  0  0  0  0
   15.6445  -15.4662  -18.0445 C   0  0  0  0  0  0  0  0  0  0  0  0
   22.5244   -7.6261  -16.4255 C   0  0  0  0  0  0  0  0  0  0  0  0
   21.9599   -8.9642  -16.7799 C   0  0  1  0  0  0  0  0  0  0  0  0
   22.9477  -10.0752  -16.8487 C   0  0  0  0  0  0  0  0  0  0  0  0
   20.7264   -9.2643  -15.9432 C   0  0  2  0  0  0  0  0  0  0  0  0
   20.0955  -10.4019  -16.6132 N   0  0  0  0  0  0  0  0  0  0  0  0
   19.8035   -8.1380  -15.8150 C   0  0  0  0  0  0  0  0  0  0  0  0
   19.2684   -7.5871  -16.8369 O   0  0  0  0  0  0  0  0  0  0  0  0
   19.4696   -7.6183  -14.5448 N   0  0  0  0  0  0  0  0  0  0  0  0
   18.5781   -6.4619  -14.4048 C   0  0  1  0  0  0  0  0  0  0  0  0
   18.0605   -6.3872  -12.9685 C   0  0  0  0  0  0  0  0  0  0  0  0
   17.2117   -7.9193  -12.5237 S   0  0  0  0  0  0  0  0  0  0  0  0
   19.3590   -5.2446  -14.6496 C   0  0  0  0  0  0  0  0  0  0  0  0
   20.7414   -5.2322  -14.8057 O   0  0  0  0  0  0  0  0  0  0  0  0
   18.7973   -4.1052  -14.7343 O   0  0  0  0  0  0  0  0  0  0  0  0
  2  1  1  0
  2  3  2  0
  4  3  1  0
  5  4  2  0
  6  5  1  0
  7  9  1  0
  7  6  1  0
  7  8  1  1
  9 17  1  0
  9 10  2  0
 11 12  2  0
 11  5  1  0
 12  2  1  0
 14 13  1  1
 14 15  1  0
 16 14  1  0
 16 17  1  6
 18 20  1  0
 18 16  1  0
 19 18  2  0
 21 20  1  0
 22 23  1  0
 21 22  1  1
 24 21  1  0
 24 25  1  0
 26 24  2  0
M  END
$$$$
