YVC.pdb
     RDKit          3D

 26 26  0  0  1  0  0  0  0  0999 V2000
   17.9083  -14.0117  -23.3067 O   0  0  0  0  0  0  0  0  0  0  0  0
   18.1152  -13.2883  -22.1406 C   0  0  0  0  0  0  0  0  0  0  0  0
   17.0681  -12.8843  -21.3600 C   0  0  0  0  0  0  0  0  0  0  0  0
   17.2356  -12.1726  -20.2089 C   0  0  0  0  0  0  0  0  0  0  0  0
   18.5089  -11.8205  -19.7719 C   0  0  0  0  0  0  0  0  0  0  0  0
   18.7027  -11.0412  -18.5125 C   0  0  0  0  0  0  0  0  0  0  0  0
   19.5344  -11.9339  -17.5827 C   0  0  2  0  0  0  0  0  0  0  0  0
   18.7086  -13.0543  -17.2403 N   0  0  0  0  0  0  0  0  0  0  0  0
   19.9518  -11.1686  -16.3735 C   0  0  0  0  0  0  0  0  0  0  0  0
   19.1856  -10.9814  -15.3993 O   0  0  0  0  0  0  0  0  0  0  0  0
   19.5690  -12.2254  -20.5554 C   0  0  0  0  0  0  0  0  0  0  0  0
   19.3929  -12.9474  -21.7226 C   0  0  0  0  0  0  0  0  0  0  0  0
   23.8855   -9.9222  -13.8317 C   0  0  0  0  0  0  0  0  0  0  0  0
   23.0966  -10.6651  -14.8615 C   0  0  1  0  0  0  0  0  0  0  0  0
   22.9381  -12.1239  -14.6133 C   0  0  0  0  0  0  0  0  0  0  0  0
   21.8024   -9.9321  -15.1770 C   0  0  2  0  0  0  0  0  0  0  0  0
   21.2496  -10.6420  -16.3309 N   0  0  0  0  0  0  0  0  0  0  0  0
   21.9759   -8.5077  -15.4561 C   0  0  0  0  0  0  0  0  0  0  0  0
   22.7134   -8.0953  -16.4153 O   0  0  0  0  0  0  0  0  0  0  0  0
   21.3266   -7.5324  -14.6674 N   0  0  0  0  0  0  0  0  0  0  0  0
   21.4595   -6.1017  -14.9624 C   0  0  1  0  0  0  0  0  0  0  0  0
   20.0926   -5.4274  -14.8466 C   0  0  0  0  0  0  0  0  0  0  0  0
   18.9149   -6.1899  -15.9855 S   0  0  0  0  0  0  0  0  0  0  0  0
   22.3291   -5.4997  -13.9460 C   0  0  0  0  0  0  0  0  0  0  0  0
   22.9493   -4.2632  -14.0944 O   0  0  0  0  0  0  0  0  0  0  0  0
   22.5680   -6.0934  -12.8453 O   0  0  0  0  0  0  0  0  0  0  0  0
  2  1  1  0
  2  3  2  0
  4  3  1  0
  5  4  2  0
  6  5  1  0
  7  9  1  0
  7  6  1  0
  7  8  1  1
  9 17  1  0
  9 10  2  0
 11 12  2  0
 11  5  1  0
 12  2  1  0
 14 13  1  1
 14 15  1  0
 16 14  1  0
 16 17  1  6
 18 20  1  0
 18 16  1  0
 19 18  2  0
 21 20  1  0
 22 23  1  0
 21 22  1  1
 24 21  1  0
 24 25  1  0
 26 24  2  0
M  END
$$$$
