YVC.pdb
     RDKit          3D

 26 26  0  0  1  0  0  0  0  0999 V2000
   42.8450  -14.7617   -9.7871 O   0  0  0  0  0  0  0  0  0  0  0  0
   42.5774  -13.4607   -9.3851 C   0  0  0  0  0  0  0  0  0  0  0  0
   43.3763  -12.4199   -9.7694 C   0  0  0  0  0  0  0  0  0  0  0  0
   43.1425  -11.1303   -9.3928 C   0  0  0  0  0  0  0  0  0  0  0  0
   42.0560  -10.8140   -8.5833 C   0  0  0  0  0  0  0  0  0  0  0  0
   41.7915   -9.4046   -8.1655 C   0  0  0  0  0  0  0  0  0  0  0  0
   40.7278   -8.8663   -9.1309 C   0  0  2  0  0  0  0  0  0  0  0  0
   41.2826   -8.9611  -10.4492 N   0  0  0  0  0  0  0  0  0  0  0  0
   40.3804   -7.4597   -8.7806 C   0  0  0  0  0  0  0  0  0  0  0  0
   41.0073   -6.4777   -9.2428 O   0  0  0  0  0  0  0  0  0  0  0  0
   41.2466  -11.8599   -8.1926 C   0  0  0  0  0  0  0  0  0  0  0  0
   41.4888  -13.1666   -8.5779 C   0  0  0  0  0  0  0  0  0  0  0  0
   36.6828   -4.7120   -7.2485 C   0  0  0  0  0  0  0  0  0  0  0  0
   37.3476   -5.9303   -7.8037 C   0  0  1  0  0  0  0  0  0  0  0  0
   36.9907   -6.2673   -9.2087 C   0  0  0  0  0  0  0  0  0  0  0  0
   38.8409   -5.9031   -7.5189 C   0  0  2  0  0  0  0  0  0  0  0  0
   39.3127   -7.2342   -7.9017 N   0  0  0  0  0  0  0  0  0  0  0  0
   39.1782   -5.5930   -6.1307 C   0  0  0  0  0  0  0  0  0  0  0  0
   38.7112   -6.2762   -5.1563 O   0  0  0  0  0  0  0  0  0  0  0  0
   40.0404   -4.5185   -5.8192 N   0  0  0  0  0  0  0  0  0  0  0  0
   40.3357   -4.1568   -4.4287 C   0  0  1  0  0  0  0  0  0  0  0  0
   41.8388   -4.2767   -4.1780 C   0  0  0  0  0  0  0  0  0  0  0  0
   42.2537   -5.9444   -3.6194 S   0  0  0  0  0  0  0  0  0  0  0  0
   39.9726   -2.7495   -4.2307 C   0  0  0  0  0  0  0  0  0  0  0  0
   39.6073   -1.8933   -5.2647 O   0  0  0  0  0  0  0  0  0  0  0  0
   39.9728   -2.2239   -3.0710 O   0  0  0  0  0  0  0  0  0  0  0  0
  2  1  1  0
  2  3  2  0
  4  3  1  0
  5  4  2  0
  6  5  1  0
  7  9  1  0
  7  6  1  0
  7  8  1  6
  9 17  1  0
  9 10  2  0
 11 12  2  0
 11  5  1  0
 12  2  1  0
 14 13  1  6
 14 15  1  0
 16 14  1  0
 16 17  1  1
 18 20  1  0
 18 16  1  0
 19 18  2  0
 21 20  1  0
 22 23  1  0
 21 22  1  6
 24 21  1  0
 24 25  1  0
 26 24  2  0
M  END
$$$$
