YVC.pdb
     RDKit          3D

 26 26  0  0  1  0  0  0  0  0999 V2000
   19.5711  -25.7952  -11.9853 O   0  0  0  0  0  0  0  0  0  0  0  0
   20.1123  -26.9054  -11.3526 C   0  0  0  0  0  0  0  0  0  0  0  0
   19.3641  -27.6762  -10.5070 C   0  0  0  0  0  0  0  0  0  0  0  0
   19.8640  -28.7731   -9.8693 C   0  0  0  0  0  0  0  0  0  0  0  0
   21.1867  -29.1614  -10.0580 C   0  0  0  0  0  0  0  0  0  0  0  0
   21.7435  -30.3612   -9.3641 C   0  0  0  0  0  0  0  0  0  0  0  0
   21.9842  -31.4115  -10.4559 C   0  0  2  0  0  0  0  0  0  0  0  0
   20.7077  -31.6953  -11.0429 N   0  0  0  0  0  0  0  0  0  0  0  0
   22.6021  -32.6333   -9.8665 C   0  0  0  0  0  0  0  0  0  0  0  0
   22.6265  -33.7317  -10.4699 O   0  0  0  0  0  0  0  0  0  0  0  0
   21.9463  -28.3876  -10.9100 C   0  0  0  0  0  0  0  0  0  0  0  0
   21.4336  -27.2755  -11.5543 C   0  0  0  0  0  0  0  0  0  0  0  0
   26.6339  -33.7803   -8.4069 C   0  0  0  0  0  0  0  0  0  0  0  0
   25.3717  -33.2834   -9.0351 C   0  0  1  0  0  0  0  0  0  0  0  0
   25.1263  -33.7483  -10.4274 C   0  0  0  0  0  0  0  0  0  0  0  0
   24.1947  -33.4655   -8.0899 C   0  0  2  0  0  0  0  0  0  0  0  0
   23.1748  -32.5436   -8.5908 N   0  0  0  0  0  0  0  0  0  0  0  0
   24.5103  -33.2053   -6.6865 C   0  0  0  0  0  0  0  0  0  0  0  0
   24.9434  -32.0684   -6.2941 O   0  0  0  0  0  0  0  0  0  0  0  0
   24.3438  -34.2118   -5.7098 N   0  0  0  0  0  0  0  0  0  0  0  0
   24.6256  -33.9536   -4.2936 C   0  0  1  0  0  0  0  0  0  0  0  0
   23.4675  -34.4701   -3.4401 C   0  0  0  0  0  0  0  0  0  0  0  0
   23.8403  -34.2689   -1.6834 S   0  0  0  0  0  0  0  0  0  0  0  0
   25.8196  -34.7165   -3.9140 C   0  0  0  0  0  0  0  0  0  0  0  0
   26.7799  -34.2537   -3.0200 O   0  0  0  0  0  0  0  0  0  0  0  0
   26.0456  -35.8731   -4.3961 O   0  0  0  0  0  0  0  0  0  0  0  0
  2  1  1  0
  2  3  2  0
  4  3  1  0
  5  4  2  0
  6  5  1  0
  7  9  1  0
  7  6  1  0
  7  8  1  1
  9 17  1  0
  9 10  2  0
 11 12  2  0
 11  5  1  0
 12  2  1  0
 14 13  1  1
 14 15  1  0
 16 14  1  0
 16 17  1  6
 18 20  1  0
 18 16  1  0
 19 18  2  0
 21 20  1  0
 22 23  1  0
 21 22  1  1
 24 21  1  0
 24 25  1  0
 26 24  2  0
M  END
$$$$
