HDD.pdb
     RDKit          3D

 27 27  0  0  1  0  0  0  0  0999 V2000
   21.2423  -16.3721  -16.4730 N   0  0  0  0  0  0  0  0  0  0  0  0
   21.2771  -15.1390  -17.2289 C   0  0  1  0  0  0  0  0  0  0  0  0
   19.8762  -14.8626  -17.7784 C   0  0  0  0  0  0  0  0  0  0  0  0
   19.5214  -15.9639  -18.7093 C   0  0  0  0  0  0  0  0  0  0  0  0
   18.5429  -16.9146  -18.5081 C   0  0  0  0  0  0  0  0  0  0  0  0
   18.4953  -17.7541  -19.5502 N   0  0  0  0  0  0  0  0  0  0  0  0
   19.4380  -17.3452  -20.4162 C   0  0  0  0  0  0  0  0  0  0  0  0
   20.0595  -16.2559  -19.9004 N   0  0  0  0  0  0  0  0  0  0  0  0
   21.6422  -14.0241  -16.3341 C   0  0  0  0  0  0  0  0  0  0  0  0
   21.0346  -13.8694  -15.2548 O   0  0  0  0  0  0  0  0  0  0  0  0
   22.6861  -13.1638  -16.7499 N   0  0  0  0  0  0  0  0  0  0  0  0
   23.0814  -12.0277  -15.9762 C   0  0  1  0  0  0  0  0  0  0  0  0
   24.5486  -11.7641  -16.0248 C   0  0  0  0  0  0  0  0  0  0  0  0
   24.9093  -10.7431  -14.9866 C   0  0  0  0  0  0  0  0  0  0  0  0
   23.9955  -10.2440  -14.2981 O   0  0  0  0  0  0  0  0  0  0  0  0
   22.3331  -10.7763  -16.3250 C   0  0  0  0  0  0  0  0  0  0  0  0
   22.2068  -10.3861  -17.5304 O   0  0  0  0  0  0  0  0  0  0  0  0
   26.2391  -10.3705  -14.8068 O   0  0  0  0  0  0  0  0  0  0  0  0
   21.7647  -10.0343  -15.2629 N   0  0  0  0  0  0  0  0  0  0  0  0
   21.0239   -8.8327  -15.5551 C   0  0  1  0  0  0  0  0  0  0  0  0
   19.6222   -8.9921  -15.0221 C   0  0  0  0  0  0  0  0  0  0  0  0
   18.6856   -9.6528  -15.9361 C   0  0  0  0  0  0  0  0  0  0  0  0
   19.0216   -9.9644  -17.0916 O   0  0  0  0  0  0  0  0  0  0  0  0
   21.6943   -7.6375  -15.0130 C   0  0  0  0  0  0  0  0  0  0  0  0
   21.1824   -6.3816  -15.2481 O   0  0  0  0  0  0  0  0  0  0  0  0
   17.4029   -9.9394  -15.5159 O   0  0  0  0  0  0  0  0  0  0  0  0
   22.7342   -7.7539  -14.3347 O   0  0  0  0  0  0  0  0  0  0  0  0
  2  1  1  1
  2  3  1  0
  3  4  1  0
  4  8  1  0
  4  5  2  0
  5  6  1  0
  7  6  1  0
  8  7  2  0
  9  2  1  0
  9 11  1  0
 10  9  2  0
 12 11  1  0
 12 16  1  0
 12 13  1  6
 14 13  1  0
 15 14  2  0
 16 19  1  0
 17 16  2  0
 18 14  1  0
 19 20  1  0
 20 21  1  1
 20 24  1  0
 22 26  1  0
 22 21  1  0
 23 22  2  0
 24 25  1  0
 27 24  2  0
M  END
$$$$
