HDD.pdb
     RDKit          3D

 27 27  0  0  1  0  0  0  0  0999 V2000
   14.7547  -13.1161  -14.6307 N   0  0  0  0  0  0  0  0  0  0  0  0
   14.3723  -11.7809  -15.0357 C   0  0  1  0  0  0  0  0  0  0  0  0
   13.0172  -11.4487  -14.4078 C   0  0  0  0  0  0  0  0  0  0  0  0
   11.9910  -12.3141  -15.0430 C   0  0  0  0  0  0  0  0  0  0  0  0
   11.2883  -12.0299  -16.1950 C   0  0  0  0  0  0  0  0  0  0  0  0
   10.4454  -13.0307  -16.4789 N   0  0  0  0  0  0  0  0  0  0  0  0
   10.6055  -13.9530  -15.5147 C   0  0  0  0  0  0  0  0  0  0  0  0
   11.5467  -13.5127  -14.6435 N   0  0  0  0  0  0  0  0  0  0  0  0
   15.3596  -10.8106  -14.5251 C   0  0  0  0  0  0  0  0  0  0  0  0
   15.7925  -10.9201  -13.3596 O   0  0  0  0  0  0  0  0  0  0  0  0
   15.7786   -9.7793  -15.3990 N   0  0  0  0  0  0  0  0  0  0  0  0
   16.8031   -8.8504  -15.0340 C   0  0  1  0  0  0  0  0  0  0  0  0
   17.6901   -8.4751  -16.1728 C   0  0  0  0  0  0  0  0  0  0  0  0
   18.8414   -7.6590  -15.6638 C   0  0  0  0  0  0  0  0  0  0  0  0
   19.2123   -7.8221  -14.4830 O   0  0  0  0  0  0  0  0  0  0  0  0
   16.2794   -7.6106  -14.3736 C   0  0  0  0  0  0  0  0  0  0  0  0
   15.2958   -6.9608  -14.8546 O   0  0  0  0  0  0  0  0  0  0  0  0
   19.4725   -6.7436  -16.5023 O   0  0  0  0  0  0  0  0  0  0  0  0
   16.9176   -7.1800  -13.1866 N   0  0  0  0  0  0  0  0  0  0  0  0
   16.3991   -6.0366  -12.4782 C   0  0  1  0  0  0  0  0  0  0  0  0
   16.8143   -6.1400  -11.0321 C   0  0  0  0  0  0  0  0  0  0  0  0
   16.3918   -5.0191  -10.1869 C   0  0  0  0  0  0  0  0  0  0  0  0
   15.6447   -4.1266  -10.6231 O   0  0  0  0  0  0  0  0  0  0  0  0
   16.8374   -4.7723  -13.0955 C   0  0  0  0  0  0  0  0  0  0  0  0
   18.1735   -4.4448  -13.1451 O   0  0  0  0  0  0  0  0  0  0  0  0
   16.8262   -4.9433   -8.8794 O   0  0  0  0  0  0  0  0  0  0  0  0
   15.9994   -3.9860  -13.5797 O   0  0  0  0  0  0  0  0  0  0  0  0
  2  1  1  1
  2  3  1  0
  3  4  1  0
  4  8  1  0
  4  5  2  0
  5  6  1  0
  7  6  1  0
  8  7  2  0
  9  2  1  0
  9 11  1  0
 10  9  2  0
 12 11  1  0
 12 16  1  0
 12 13  1  6
 14 13  1  0
 15 14  2  0
 16 19  1  0
 17 16  2  0
 18 14  1  0
 19 20  1  0
 20 21  1  1
 20 24  1  0
 22 26  1  0
 22 21  1  0
 23 22  2  0
 24 25  1  0
 27 24  2  0
M  END
$$$$
