HDD.pdb
     RDKit          3D

 27 27  0  0  1  0  0  0  0  0999 V2000
   26.1288  -20.0745  -17.6078 N   0  0  0  0  0  0  0  0  0  0  0  0
   25.7977  -19.3149  -16.4219 C   0  0  1  0  0  0  0  0  0  0  0  0
   24.6533  -18.3568  -16.7585 C   0  0  0  0  0  0  0  0  0  0  0  0
   25.2127  -17.2319  -17.5505 C   0  0  0  0  0  0  0  0  0  0  0  0
   26.5351  -17.0659  -17.9046 C   0  0  0  0  0  0  0  0  0  0  0  0
   26.6834  -15.9419  -18.6170 N   0  0  0  0  0  0  0  0  0  0  0  0
   25.4630  -15.3887  -18.7203 C   0  0  0  0  0  0  0  0  0  0  0  0
   24.5716  -16.1770  -18.0699 N   0  0  0  0  0  0  0  0  0  0  0  0
   25.3268  -20.2319  -15.3663 C   0  0  0  0  0  0  0  0  0  0  0  0
   24.8425  -21.3397  -15.6766 O   0  0  0  0  0  0  0  0  0  0  0  0
   25.4485  -19.8038  -14.0229 N   0  0  0  0  0  0  0  0  0  0  0  0
   25.0026  -20.6115  -12.9300 C   0  0  1  0  0  0  0  0  0  0  0  0
   25.7657  -20.3714  -11.6711 C   0  0  0  0  0  0  0  0  0  0  0  0
   25.3756  -21.3943  -10.6455 C   0  0  0  0  0  0  0  0  0  0  0  0
   24.6499  -22.3466  -10.9987 O   0  0  0  0  0  0  0  0  0  0  0  0
   23.5330  -20.4927  -12.6584 C   0  0  0  0  0  0  0  0  0  0  0  0
   22.9444  -21.2481  -11.8193 O   0  0  0  0  0  0  0  0  0  0  0  0
   25.8212  -21.2705   -9.3319 O   0  0  0  0  0  0  0  0  0  0  0  0
   22.8122  -19.5047  -13.3698 N   0  0  0  0  0  0  0  0  0  0  0  0
   21.3815  -19.4222  -13.2145 C   0  0  1  0  0  0  0  0  0  0  0  0
   20.8576  -18.3648  -14.1534 C   0  0  0  0  0  0  0  0  0  0  0  0
   19.4085  -18.1502  -14.0949 C   0  0  0  0  0  0  0  0  0  0  0  0
   18.7321  -18.5648  -13.1380 O   0  0  0  0  0  0  0  0  0  0  0  0
   20.7368  -20.7296  -13.4311 C   0  0  0  0  0  0  0  0  0  0  0  0
   20.8347  -21.3642  -14.6487 O   0  0  0  0  0  0  0  0  0  0  0  0
   18.7724  -17.4759  -15.1169 O   0  0  0  0  0  0  0  0  0  0  0  0
   20.0951  -21.2738  -12.5107 O   0  0  0  0  0  0  0  0  0  0  0  0
  2  1  1  6
  2  3  1  0
  3  4  1  0
  4  8  1  0
  4  5  2  0
  5  6  1  0
  7  6  1  0
  8  7  2  0
  9  2  1  0
  9 11  1  0
 10  9  2  0
 12 11  1  0
 12 16  1  0
 12 13  1  1
 14 13  1  0
 15 14  2  0
 16 19  1  0
 17 16  2  0
 18 14  1  0
 19 20  1  0
 20 21  1  6
 20 24  1  0
 22 26  1  0
 22 21  1  0
 23 22  2  0
 24 25  1  0
 27 24  2  0
M  END
$$$$
