HDD.pdb
     RDKit          3D

 27 27  0  0  1  0  0  0  0  0999 V2000
   30.6758  -33.9099   -6.5701 N   0  0  0  0  0  0  0  0  0  0  0  0
   31.6431  -34.5694   -5.7201 C   0  0  1  0  0  0  0  0  0  0  0  0
   32.8962  -33.6956   -5.6361 C   0  0  0  0  0  0  0  0  0  0  0  0
   33.6822  -33.8974   -6.8799 C   0  0  0  0  0  0  0  0  0  0  0  0
   33.4510  -34.8597   -7.8403 C   0  0  0  0  0  0  0  0  0  0  0  0
   34.3514  -34.7526   -8.8255 N   0  0  0  0  0  0  0  0  0  0  0  0
   35.1569  -33.7273   -8.5000 C   0  0  0  0  0  0  0  0  0  0  0  0
   34.7458  -33.2102   -7.3157 N   0  0  0  0  0  0  0  0  0  0  0  0
   31.0906  -34.7033   -4.3586 C   0  0  0  0  0  0  0  0  0  0  0  0
   30.4214  -33.7722   -3.8655 O   0  0  0  0  0  0  0  0  0  0  0  0
   31.3506  -35.9064   -3.6603 N   0  0  0  0  0  0  0  0  0  0  0  0
   30.9268  -36.1013   -2.3083 C   0  0  1  0  0  0  0  0  0  0  0  0
   29.8388  -37.1125   -2.1725 C   0  0  0  0  0  0  0  0  0  0  0  0
   28.5386  -36.4163   -1.8980 C   0  0  0  0  0  0  0  0  0  0  0  0
   28.2494  -35.4057   -2.5712 O   0  0  0  0  0  0  0  0  0  0  0  0
   32.0480  -36.4391   -1.3722 C   0  0  0  0  0  0  0  0  0  0  0  0
   33.1739  -36.8534   -1.7986 O   0  0  0  0  0  0  0  0  0  0  0  0
   27.6836  -36.8991   -0.9104 O   0  0  0  0  0  0  0  0  0  0  0  0
   31.8151  -36.2812    0.0144 N   0  0  0  0  0  0  0  0  0  0  0  0
   32.8390  -36.6664    0.9531 C   0  0  1  0  0  0  0  0  0  0  0  0
   34.0996  -35.9059    0.6262 C   0  0  0  0  0  0  0  0  0  0  0  0
   35.2538  -36.2327    1.4690 C   0  0  0  0  0  0  0  0  0  0  0  0
   35.1807  -37.0991    2.3572 O   0  0  0  0  0  0  0  0  0  0  0  0
   32.4049  -36.4547    2.3454 C   0  0  0  0  0  0  0  0  0  0  0  0
   33.1857  -36.8849    3.3943 O   0  0  0  0  0  0  0  0  0  0  0  0
   36.4501  -35.5713    1.2812 O   0  0  0  0  0  0  0  0  0  0  0  0
   31.3234  -35.8825    2.5862 O   0  0  0  0  0  0  0  0  0  0  0  0
  2  1  1  6
  2  3  1  0
  3  4  1  0
  4  8  1  0
  4  5  2  0
  5  6  1  0
  7  6  1  0
  8  7  2  0
  9  2  1  0
  9 11  1  0
 10  9  2  0
 12 11  1  0
 12 16  1  0
 12 13  1  6
 14 13  1  0
 15 14  2  0
 16 19  1  0
 17 16  2  0
 18 14  1  0
 19 20  1  0
 20 21  1  6
 20 24  1  0
 22 26  1  0
 22 21  1  0
 23 22  2  0
 24 25  1  0
 27 24  2  0
M  END
$$$$
