HDD.pdb
     RDKit          3D

 27 27  0  0  1  0  0  0  0  0999 V2000
   19.3579  -13.2338  -17.4590 N   0  0  0  0  0  0  0  0  0  0  0  0
   18.8884  -11.8987  -17.1587 C   0  0  1  0  0  0  0  0  0  0  0  0
   18.3886  -11.8699  -15.7129 C   0  0  0  0  0  0  0  0  0  0  0  0
   17.1865  -12.7374  -15.6240 C   0  0  0  0  0  0  0  0  0  0  0  0
   16.9506  -13.7038  -14.6690 C   0  0  0  0  0  0  0  0  0  0  0  0
   15.7692  -14.2931  -14.8923 N   0  0  0  0  0  0  0  0  0  0  0  0
   15.2488  -13.7087  -15.9849 C   0  0  0  0  0  0  0  0  0  0  0  0
   16.1146  -12.7630  -16.4264 N   0  0  0  0  0  0  0  0  0  0  0  0
   20.0099  -10.9465  -17.2707 C   0  0  0  0  0  0  0  0  0  0  0  0
   21.1097  -11.2177  -16.7464 O   0  0  0  0  0  0  0  0  0  0  0  0
   19.7817   -9.7447  -17.9823 N   0  0  0  0  0  0  0  0  0  0  0  0
   20.7974   -8.7482  -18.1263 C   0  0  1  0  0  0  0  0  0  0  0  0
   21.0481   -8.3640  -19.5455 C   0  0  0  0  0  0  0  0  0  0  0  0
   22.2339   -7.4478  -19.6150 C   0  0  0  0  0  0  0  0  0  0  0  0
   22.8236   -7.1538  -18.5547 O   0  0  0  0  0  0  0  0  0  0  0  0
   20.5485   -7.5171  -17.3078 C   0  0  0  0  0  0  0  0  0  0  0  0
   19.5250   -6.7836  -17.4966 O   0  0  0  0  0  0  0  0  0  0  0  0
   22.6556   -6.9443  -20.8430 O   0  0  0  0  0  0  0  0  0  0  0  0
   21.4951   -7.1917  -16.3078 N   0  0  0  0  0  0  0  0  0  0  0  0
   21.2448   -6.0742  -15.4322 C   0  0  1  0  0  0  0  0  0  0  0  0
   21.7322   -6.4298  -14.0501 C   0  0  0  0  0  0  0  0  0  0  0  0
   20.9535   -7.4686  -13.3691 C   0  0  0  0  0  0  0  0  0  0  0  0
   19.7470   -7.6378  -13.6157 O   0  0  0  0  0  0  0  0  0  0  0  0
   21.8641   -4.8377  -15.9412 C   0  0  0  0  0  0  0  0  0  0  0  0
   21.6615   -3.6380  -15.2975 O   0  0  0  0  0  0  0  0  0  0  0  0
   21.5618   -8.2804  -12.4338 O   0  0  0  0  0  0  0  0  0  0  0  0
   22.5790   -4.8675  -16.9625 O   0  0  0  0  0  0  0  0  0  0  0  0
  2  1  1  1
  2  3  1  0
  3  4  1  0
  4  8  1  0
  4  5  2  0
  5  6  1  0
  7  6  1  0
  8  7  2  0
  9  2  1  0
  9 11  1  0
 10  9  2  0
 12 11  1  0
 12 16  1  0
 12 13  1  6
 14 13  1  0
 15 14  2  0
 16 19  1  0
 17 16  2  0
 18 14  1  0
 19 20  1  0
 20 21  1  1
 20 24  1  0
 22 26  1  0
 22 21  1  0
 23 22  2  0
 24 25  1  0
 27 24  2  0
M  END
$$$$
