HDD.pdb
     RDKit          3D

 27 27  0  0  1  0  0  0  0  0999 V2000
   16.3807  -13.6770  -15.1723 N   0  0  0  0  0  0  0  0  0  0  0  0
   15.6934  -12.4045  -15.1356 C   0  0  1  0  0  0  0  0  0  0  0  0
   14.4014  -12.5696  -14.3329 C   0  0  0  0  0  0  0  0  0  0  0  0
   13.4694  -13.4089  -15.1282 C   0  0  0  0  0  0  0  0  0  0  0  0
   12.4458  -12.9501  -15.9304 C   0  0  0  0  0  0  0  0  0  0  0  0
   11.8079  -13.9815  -16.4979 N   0  0  0  0  0  0  0  0  0  0  0  0
   12.4181  -15.0970  -16.0628 C   0  0  0  0  0  0  0  0  0  0  0  0
   13.4282  -14.7436  -15.2298 N   0  0  0  0  0  0  0  0  0  0  0  0
   16.5352  -11.4109  -14.4421 C   0  0  0  0  0  0  0  0  0  0  0  0
   17.1676  -11.7396  -13.4174 O   0  0  0  0  0  0  0  0  0  0  0  0
   16.5876  -10.1039  -14.9822 N   0  0  0  0  0  0  0  0  0  0  0  0
   17.3800   -9.0725  -14.3874 C   0  0  1  0  0  0  0  0  0  0  0  0
   18.2141   -8.3279  -15.3745 C   0  0  0  0  0  0  0  0  0  0  0  0
   19.0457   -7.3053  -14.6581 C   0  0  0  0  0  0  0  0  0  0  0  0
   19.7488   -7.6763  -13.6956 O   0  0  0  0  0  0  0  0  0  0  0  0
   16.5829   -8.1024  -13.5682 C   0  0  0  0  0  0  0  0  0  0  0  0
   15.5222   -7.5602  -14.0178 O   0  0  0  0  0  0  0  0  0  0  0  0
   19.0233   -5.9751  -15.0696 O   0  0  0  0  0  0  0  0  0  0  0  0
   17.0494   -7.8049  -12.2661 N   0  0  0  0  0  0  0  0  0  0  0  0
   16.2776   -6.9295  -11.4198 C   0  0  1  0  0  0  0  0  0  0  0  0
   16.5123   -7.3223   -9.9829 C   0  0  0  0  0  0  0  0  0  0  0  0
   15.8134   -6.4951   -8.9947 C   0  0  0  0  0  0  0  0  0  0  0  0
   14.9658   -5.6540   -9.3396 O   0  0  0  0  0  0  0  0  0  0  0  0
   16.5975   -5.5130  -11.6704 C   0  0  0  0  0  0  0  0  0  0  0  0
   15.6620   -4.5320  -11.4312 O   0  0  0  0  0  0  0  0  0  0  0  0
   16.0943   -6.6449   -7.6521 O   0  0  0  0  0  0  0  0  0  0  0  0
   17.7217   -5.1898  -12.1026 O   0  0  0  0  0  0  0  0  0  0  0  0
  2  1  1  1
  2  3  1  0
  3  4  1  0
  4  8  1  0
  4  5  2  0
  5  6  1  0
  7  6  1  0
  8  7  2  0
  9  2  1  0
  9 11  1  0
 10  9  2  0
 12 11  1  0
 12 16  1  0
 12 13  1  6
 14 13  1  0
 15 14  2  0
 16 19  1  0
 17 16  2  0
 18 14  1  0
 19 20  1  0
 20 21  1  1
 20 24  1  0
 22 26  1  0
 22 21  1  0
 23 22  2  0
 24 25  1  0
 27 24  2  0
M  END
$$$$
