HDD.pdb
     RDKit          3D

 27 27  0  0  1  0  0  0  0  0999 V2000
   16.4512  -15.6127    5.8347 N   0  0  0  0  0  0  0  0  0  0  0  0
   17.6752  -16.3803    5.7607 C   0  0  1  0  0  0  0  0  0  0  0  0
   18.8324  -15.4271    5.4553 C   0  0  0  0  0  0  0  0  0  0  0  0
   18.6601  -14.9232    4.0690 C   0  0  0  0  0  0  0  0  0  0  0  0
   18.7139  -15.6793    2.9169 C   0  0  0  0  0  0  0  0  0  0  0  0
   18.5159  -14.9008    1.8457 N   0  0  0  0  0  0  0  0  0  0  0  0
   18.3359  -13.6514    2.3067 C   0  0  0  0  0  0  0  0  0  0  0  0
   18.4245  -13.6700    3.6598 N   0  0  0  0  0  0  0  0  0  0  0  0
   17.9395  -17.0116    7.0679 C   0  0  0  0  0  0  0  0  0  0  0  0
   17.6985  -16.3850    8.1201 O   0  0  0  0  0  0  0  0  0  0  0  0
   18.4649  -18.3255    7.0678 N   0  0  0  0  0  0  0  0  0  0  0  0
   18.7861  -19.0101    8.2818 C   0  0  1  0  0  0  0  0  0  0  0  0
   18.5410  -20.4797    8.2112 C   0  0  0  0  0  0  0  0  0  0  0  0
   17.0773  -20.7345    8.0038 C   0  0  0  0  0  0  0  0  0  0  0  0
   16.6894  -21.0992    6.8747 O   0  0  0  0  0  0  0  0  0  0  0  0
   20.1834  -18.7551    8.7612 C   0  0  0  0  0  0  0  0  0  0  0  0
   21.1658  -18.6867    7.9541 O   0  0  0  0  0  0  0  0  0  0  0  0
   16.1830  -20.5637    9.0576 O   0  0  0  0  0  0  0  0  0  0  0  0
   20.3797  -18.5901   10.1526 N   0  0  0  0  0  0  0  0  0  0  0  0
   21.7108  -18.3664   10.6587 C   0  0  1  0  0  0  0  0  0  0  0  0
   21.7593  -16.9986   11.2918 C   0  0  0  0  0  0  0  0  0  0  0  0
   23.0322  -16.6612   11.9362 C   0  0  0  0  0  0  0  0  0  0  0  0
   24.0791  -17.2704   11.6571 O   0  0  0  0  0  0  0  0  0  0  0  0
   22.1206  -19.4289   11.5939 C   0  0  0  0  0  0  0  0  0  0  0  0
   23.4081  -19.4752   12.0790 O   0  0  0  0  0  0  0  0  0  0  0  0
   23.0806  -15.6491   12.8728 O   0  0  0  0  0  0  0  0  0  0  0  0
   21.3024  -20.2979   11.9551 O   0  0  0  0  0  0  0  0  0  0  0  0
  2  1  1  1
  2  3  1  0
  3  4  1  0
  4  8  1  0
  4  5  2  0
  5  6  1  0
  7  6  1  0
  8  7  2  0
  9  2  1  0
  9 11  1  0
 10  9  2  0
 12 11  1  0
 12 16  1  0
 12 13  1  6
 14 13  1  0
 15 14  2  0
 16 19  1  0
 17 16  2  0
 18 14  1  0
 19 20  1  0
 20 21  1  1
 20 24  1  0
 22 26  1  0
 22 21  1  0
 23 22  2  0
 24 25  1  0
 27 24  2  0
M  END
$$$$
