HDD.pdb
     RDKit          3D

 27 27  0  0  1  0  0  0  0  0999 V2000
   21.3307  -14.6539  -20.4973 N   0  0  0  0  0  0  0  0  0  0  0  0
   21.7815  -13.7565  -19.4559 C   0  0  1  0  0  0  0  0  0  0  0  0
   22.9211  -12.8986  -20.0092 C   0  0  0  0  0  0  0  0  0  0  0  0
   24.1093  -13.7714  -20.1879 C   0  0  0  0  0  0  0  0  0  0  0  0
   24.2158  -15.0894  -19.7964 C   0  0  0  0  0  0  0  0  0  0  0  0
   25.4258  -15.5675  -20.1130 N   0  0  0  0  0  0  0  0  0  0  0  0
   26.0932  -14.5623  -20.7048 C   0  0  0  0  0  0  0  0  0  0  0  0
   25.2883  -13.4718  -20.7481 N   0  0  0  0  0  0  0  0  0  0  0  0
   20.6785  -12.8544  -19.0729 C   0  0  0  0  0  0  0  0  0  0  0  0
   19.9829  -12.3138  -19.9571 O   0  0  0  0  0  0  0  0  0  0  0  0
   20.4559  -12.6396  -17.6920 N   0  0  0  0  0  0  0  0  0  0  0  0
   19.3520  -11.8641  -17.2170 C   0  0  1  0  0  0  0  0  0  0  0  0
   18.6896  -12.4556  -16.0187 C   0  0  0  0  0  0  0  0  0  0  0  0
   17.4557  -11.6690  -15.6884 C   0  0  0  0  0  0  0  0  0  0  0  0
   16.6930  -11.3369  -16.6192 O   0  0  0  0  0  0  0  0  0  0  0  0
   19.7001  -10.4316  -16.9443 C   0  0  0  0  0  0  0  0  0  0  0  0
   20.8312  -10.0975  -16.4646 O   0  0  0  0  0  0  0  0  0  0  0  0
   17.1808  -11.3242  -14.3674 O   0  0  0  0  0  0  0  0  0  0  0  0
   18.7235   -9.4515  -17.2400 N   0  0  0  0  0  0  0  0  0  0  0  0
   19.0064   -8.0646  -16.9671 C   0  0  1  0  0  0  0  0  0  0  0  0
   18.2566   -7.2173  -17.9641 C   0  0  0  0  0  0  0  0  0  0  0  0
   18.4498   -5.7717  -17.8146 C   0  0  0  0  0  0  0  0  0  0  0  0
   17.5246   -5.0316  -17.4387 O   0  0  0  0  0  0  0  0  0  0  0  0
   18.6795   -7.7088  -15.5749 C   0  0  0  0  0  0  0  0  0  0  0  0
   19.5018   -6.8713  -14.8557 O   0  0  0  0  0  0  0  0  0  0  0  0
   19.6791   -5.2108  -18.0941 O   0  0  0  0  0  0  0  0  0  0  0  0
   17.6521   -8.1646  -15.0347 O   0  0  0  0  0  0  0  0  0  0  0  0
  2  1  1  6
  2  3  1  0
  3  4  1  0
  4  8  1  0
  4  5  2  0
  5  6  1  0
  7  6  1  0
  8  7  2  0
  9  2  1  0
  9 11  1  0
 10  9  2  0
 12 11  1  0
 12 16  1  0
 12 13  1  1
 14 13  1  0
 15 14  2  0
 16 19  1  0
 17 16  2  0
 18 14  1  0
 19 20  1  0
 20 21  1  6
 20 24  1  0
 22 26  1  0
 22 21  1  0
 23 22  2  0
 24 25  1  0
 27 24  2  0
M  END
$$$$
