HDD.pdb
     RDKit          3D

 27 27  0  0  1  0  0  0  0  0999 V2000
   17.6853  -12.9117  -16.3046 N   0  0  0  0  0  0  0  0  0  0  0  0
   17.6908  -11.4651  -16.2844 C   0  0  1  0  0  0  0  0  0  0  0  0
   16.5222  -10.9837  -15.4223 C   0  0  0  0  0  0  0  0  0  0  0  0
   15.2601  -11.4152  -16.0752 C   0  0  0  0  0  0  0  0  0  0  0  0
   14.4459  -12.4503  -15.6658 C   0  0  0  0  0  0  0  0  0  0  0  0
   13.3931  -12.5599  -16.4858 N   0  0  0  0  0  0  0  0  0  0  0  0
   13.5299  -11.6007  -17.4170 C   0  0  0  0  0  0  0  0  0  0  0  0
   14.6671  -10.9070  -17.1631 N   0  0  0  0  0  0  0  0  0  0  0  0
   18.9408  -10.9869  -15.6633 C   0  0  0  0  0  0  0  0  0  0  0  0
   19.5858  -11.7406  -14.9057 O   0  0  0  0  0  0  0  0  0  0  0  0
   19.3591   -9.6683  -15.9615 N   0  0  0  0  0  0  0  0  0  0  0  0
   20.6329   -9.1682  -15.5456 C   0  0  1  0  0  0  0  0  0  0  0  0
   21.7780   -9.9722  -16.0622 C   0  0  0  0  0  0  0  0  0  0  0  0
   23.0557   -9.4725  -15.4554 C   0  0  0  0  0  0  0  0  0  0  0  0
   23.3329   -8.2601  -15.5627 O   0  0  0  0  0  0  0  0  0  0  0  0
   20.8444   -7.7210  -15.8751 C   0  0  0  0  0  0  0  0  0  0  0  0
   21.0193   -7.3261  -17.0728 O   0  0  0  0  0  0  0  0  0  0  0  0
   23.9037  -10.3542  -14.7899 O   0  0  0  0  0  0  0  0  0  0  0  0
   20.8431   -6.7973  -14.8034 N   0  0  0  0  0  0  0  0  0  0  0  0
   20.9034   -5.3849  -15.0855 C   0  0  1  0  0  0  0  0  0  0  0  0
   19.5726   -4.7687  -14.7341 C   0  0  0  0  0  0  0  0  0  0  0  0
   19.4970   -3.3162  -14.9179 C   0  0  0  0  0  0  0  0  0  0  0  0
   19.3084   -2.8158  -16.0399 O   0  0  0  0  0  0  0  0  0  0  0  0
   22.0221   -4.7382  -14.3770 C   0  0  0  0  0  0  0  0  0  0  0  0
   22.4184   -3.4633  -14.7122 O   0  0  0  0  0  0  0  0  0  0  0  0
   19.6366   -2.4784  -13.8304 O   0  0  0  0  0  0  0  0  0  0  0  0
   22.6212   -5.3420  -13.4651 O   0  0  0  0  0  0  0  0  0  0  0  0
  2  1  1  1
  2  3  1  0
  3  4  1  0
  4  8  1  0
  4  5  2  0
  5  6  1  0
  7  6  1  0
  8  7  2  0
  9  2  1  0
  9 11  1  0
 10  9  2  0
 12 11  1  0
 12 16  1  0
 12 13  1  6
 14 13  1  0
 15 14  2  0
 16 19  1  0
 17 16  2  0
 18 14  1  0
 19 20  1  0
 20 21  1  1
 20 24  1  0
 22 26  1  0
 22 21  1  0
 23 22  2  0
 24 25  1  0
 27 24  2  0
M  END
$$$$
