HDD.pdb
     RDKit          3D

 27 27  0  0  1  0  0  0  0  0999 V2000
   25.2206  -10.4327  -20.5956 N   0  0  0  0  0  0  0  0  0  0  0  0
   25.3635  -11.6491  -19.8258 C   0  0  1  0  0  0  0  0  0  0  0  0
   25.5685  -11.2764  -18.3561 C   0  0  0  0  0  0  0  0  0  0  0  0
   26.9313  -10.7041  -18.2121 C   0  0  0  0  0  0  0  0  0  0  0  0
   27.8463  -10.5189  -19.2271 C   0  0  0  0  0  0  0  0  0  0  0  0
   28.9715   -9.9807  -18.7401 N   0  0  0  0  0  0  0  0  0  0  0  0
   28.7806   -9.8210  -17.4194 C   0  0  0  0  0  0  0  0  0  0  0  0
   27.5381  -10.2624  -17.1030 N   0  0  0  0  0  0  0  0  0  0  0  0
   24.1231  -12.4420  -19.9246 C   0  0  0  0  0  0  0  0  0  0  0  0
   23.0152  -11.8680  -19.8954 O   0  0  0  0  0  0  0  0  0  0  0  0
   24.2500  -13.8458  -20.0506 N   0  0  0  0  0  0  0  0  0  0  0  0
   23.1108  -14.6950  -20.2147 C   0  0  1  0  0  0  0  0  0  0  0  0
   23.3818  -15.8836  -21.0739 C   0  0  0  0  0  0  0  0  0  0  0  0
   23.6961  -15.4323  -22.4696 C   0  0  0  0  0  0  0  0  0  0  0  0
   23.1181  -14.4186  -22.9131 O   0  0  0  0  0  0  0  0  0  0  0  0
   22.5033  -15.1389  -18.9180 C   0  0  0  0  0  0  0  0  0  0  0  0
   23.1979  -15.2489  -17.8566 O   0  0  0  0  0  0  0  0  0  0  0  0
   24.6149  -16.1392  -23.2412 O   0  0  0  0  0  0  0  0  0  0  0  0
   21.1197  -15.4343  -18.9090 N   0  0  0  0  0  0  0  0  0  0  0  0
   20.4775  -15.7816  -17.6660 C   0  0  1  0  0  0  0  0  0  0  0  0
   19.0388  -15.3339  -17.7282 C   0  0  0  0  0  0  0  0  0  0  0  0
   18.2199  -15.7260  -16.5772 C   0  0  0  0  0  0  0  0  0  0  0  0
   18.4631  -15.2987  -15.4356 O   0  0  0  0  0  0  0  0  0  0  0  0
   20.6018  -17.2211  -17.3756 C   0  0  0  0  0  0  0  0  0  0  0  0
   20.5858  -17.6763  -16.0767 O   0  0  0  0  0  0  0  0  0  0  0  0
   17.1553  -16.5860  -16.7531 O   0  0  0  0  0  0  0  0  0  0  0  0
   20.7229  -18.0416  -18.3069 O   0  0  0  0  0  0  0  0  0  0  0  0
  2  1  1  6
  2  3  1  0
  3  4  1  0
  4  8  1  0
  4  5  2  0
  5  6  1  0
  7  6  1  0
  8  7  2  0
  9  2  1  0
  9 11  1  0
 10  9  2  0
 12 11  1  0
 12 16  1  0
 12 13  1  1
 14 13  1  0
 15 14  2  0
 16 19  1  0
 17 16  2  0
 18 14  1  0
 19 20  1  0
 20 21  1  6
 20 24  1  0
 22 26  1  0
 22 21  1  0
 23 22  2  0
 24 25  1  0
 27 24  2  0
M  END
$$$$
