HDD.pdb
     RDKit          3D

 27 27  0  0  1  0  0  0  0  0999 V2000
   24.7479  -12.9377  -17.4290 N   0  0  0  0  0  0  0  0  0  0  0  0
   24.6257  -11.9091  -16.4191 C   0  0  1  0  0  0  0  0  0  0  0  0
   25.8357  -10.9782  -16.5203 C   0  0  0  0  0  0  0  0  0  0  0  0
   27.0580  -11.7832  -16.2685 C   0  0  0  0  0  0  0  0  0  0  0  0
   28.1427  -11.8993  -17.1121 C   0  0  0  0  0  0  0  0  0  0  0  0
   29.0643  -12.7046  -16.5690 N   0  0  0  0  0  0  0  0  0  0  0  0
   28.5745  -13.1039  -15.3830 C   0  0  0  0  0  0  0  0  0  0  0  0
   27.3539  -12.5408  -15.2046 N   0  0  0  0  0  0  0  0  0  0  0  0
   23.4136  -11.1083  -16.6773 C   0  0  0  0  0  0  0  0  0  0  0  0
   22.6049  -11.4713  -17.5561 O   0  0  0  0  0  0  0  0  0  0  0  0
   23.2203   -9.9414  -15.9004 N   0  0  0  0  0  0  0  0  0  0  0  0
   21.9832   -9.2236  -15.9113 C   0  0  1  0  0  0  0  0  0  0  0  0
   20.8199  -10.0494  -15.4762 C   0  0  0  0  0  0  0  0  0  0  0  0
   19.5599   -9.2445  -15.5986 C   0  0  0  0  0  0  0  0  0  0  0  0
   18.9121   -8.9891  -14.5626 O   0  0  0  0  0  0  0  0  0  0  0  0
   22.0223   -7.9515  -15.1190 C   0  0  0  0  0  0  0  0  0  0  0  0
   22.3119   -7.9440  -13.8791 O   0  0  0  0  0  0  0  0  0  0  0  0
   19.1352   -8.7989  -16.8478 O   0  0  0  0  0  0  0  0  0  0  0  0
   21.7251   -6.7464  -15.7981 N   0  0  0  0  0  0  0  0  0  0  0  0
   21.8977   -5.4880  -15.1164 C   0  0  1  0  0  0  0  0  0  0  0  0
   21.8777   -4.3813  -16.1406 C   0  0  0  0  0  0  0  0  0  0  0  0
   22.0620   -3.0327  -15.5961 C   0  0  0  0  0  0  0  0  0  0  0  0
   22.2252   -2.8443  -14.3783 O   0  0  0  0  0  0  0  0  0  0  0  0
   20.8805   -5.2959  -14.0676 C   0  0  0  0  0  0  0  0  0  0  0  0
   21.1192   -4.4496  -13.0086 O   0  0  0  0  0  0  0  0  0  0  0  0
   22.0558   -1.9435  -16.4431 O   0  0  0  0  0  0  0  0  0  0  0  0
   19.7915   -5.9002  -14.1305 O   0  0  0  0  0  0  0  0  0  0  0  0
  2  1  1  6
  2  3  1  0
  3  4  1  0
  4  8  1  0
  4  5  2  0
  5  6  1  0
  7  6  1  0
  8  7  2  0
  9  2  1  0
  9 11  1  0
 10  9  2  0
 12 11  1  0
 12 16  1  0
 12 13  1  1
 14 13  1  0
 15 14  2  0
 16 19  1  0
 17 16  2  0
 18 14  1  0
 19 20  1  0
 20 21  1  6
 20 24  1  0
 22 26  1  0
 22 21  1  0
 23 22  2  0
 24 25  1  0
 27 24  2  0
M  END
$$$$
