HDD.pdb
     RDKit          3D

 27 27  0  0  1  0  0  0  0  0999 V2000
   32.2739  -35.6939   -7.0435 N   0  0  0  0  0  0  0  0  0  0  0  0
   32.9735  -35.0593   -5.9477 C   0  0  1  0  0  0  0  0  0  0  0  0
   32.2388  -33.7685   -5.5806 C   0  0  0  0  0  0  0  0  0  0  0  0
   32.4033  -32.8100   -6.7030 C   0  0  0  0  0  0  0  0  0  0  0  0
   31.3869  -32.1714   -7.3820 C   0  0  0  0  0  0  0  0  0  0  0  0
   31.8959  -31.3788   -8.3335 N   0  0  0  0  0  0  0  0  0  0  0  0
   33.2319  -31.5074   -8.2666 C   0  0  0  0  0  0  0  0  0  0  0  0
   33.5358  -32.3790   -7.2732 N   0  0  0  0  0  0  0  0  0  0  0  0
   32.9491  -35.9468   -4.7692 C   0  0  0  0  0  0  0  0  0  0  0  0
   32.0174  -36.7652   -4.6273 O   0  0  0  0  0  0  0  0  0  0  0  0
   34.0051  -35.8262   -3.8350 N   0  0  0  0  0  0  0  0  0  0  0  0
   34.1046  -36.6822   -2.6935 C   0  0  1  0  0  0  0  0  0  0  0  0
   35.4589  -36.6750   -2.0687 C   0  0  0  0  0  0  0  0  0  0  0  0
   35.5001  -37.6731   -0.9495 C   0  0  0  0  0  0  0  0  0  0  0  0
   34.8354  -37.4412    0.0813 O   0  0  0  0  0  0  0  0  0  0  0  0
   33.0661  -36.4083   -1.6476 C   0  0  0  0  0  0  0  0  0  0  0  0
   32.8729  -35.2371   -1.1869 O   0  0  0  0  0  0  0  0  0  0  0  0
   36.2679  -38.8284   -1.0728 O   0  0  0  0  0  0  0  0  0  0  0  0
   32.2982  -37.5022   -1.1833 N   0  0  0  0  0  0  0  0  0  0  0  0
   31.3135  -37.2897   -0.1522 C   0  0  1  0  0  0  0  0  0  0  0  0
   32.0056  -37.3301    1.1871 C   0  0  0  0  0  0  0  0  0  0  0  0
   31.1105  -37.2713    2.3466 C   0  0  0  0  0  0  0  0  0  0  0  0
   29.8802  -37.1597    2.2082 O   0  0  0  0  0  0  0  0  0  0  0  0
   30.5739  -36.0322   -0.3602 C   0  0  0  0  0  0  0  0  0  0  0  0
   29.2857  -35.8936    0.1046 O   0  0  0  0  0  0  0  0  0  0  0  0
   31.6332  -37.3401    3.6217 O   0  0  0  0  0  0  0  0  0  0  0  0
   31.1101  -35.0800   -0.9610 O   0  0  0  0  0  0  0  0  0  0  0  0
  2  1  1  6
  2  3  1  0
  3  4  1  0
  4  8  1  0
  4  5  2  0
  5  6  1  0
  7  6  1  0
  8  7  2  0
  9  2  1  0
  9 11  1  0
 10  9  2  0
 12 11  1  0
 12 16  1  0
 12 13  1  1
 14 13  1  0
 15 14  2  0
 16 19  1  0
 17 16  2  0
 18 14  1  0
 19 20  1  0
 20 21  1  1
 20 24  1  0
 22 26  1  0
 22 21  1  0
 23 22  2  0
 24 25  1  0
 27 24  2  0
M  END
$$$$
