HDD.pdb
     RDKit          3D

 27 27  0  0  1  0  0  0  0  0999 V2000
   18.2934  -11.5578  -15.1189 N   0  0  0  0  0  0  0  0  0  0  0  0
   19.1331  -10.7052  -15.9318 C   0  0  1  0  0  0  0  0  0  0  0  0
   18.4649  -10.5175  -17.2953 C   0  0  0  0  0  0  0  0  0  0  0  0
   18.3934  -11.8439  -17.9594 C   0  0  0  0  0  0  0  0  0  0  0  0
   19.4398  -12.5066  -18.5657 C   0  0  0  0  0  0  0  0  0  0  0  0
   19.0183  -13.6770  -19.0611 N   0  0  0  0  0  0  0  0  0  0  0  0
   17.7083  -13.7659  -18.7748 C   0  0  0  0  0  0  0  0  0  0  0  0
   17.3327  -12.6485  -18.1045 N   0  0  0  0  0  0  0  0  0  0  0  0
   19.2485   -9.3787  -15.2961 C   0  0  0  0  0  0  0  0  0  0  0  0
   18.2938   -8.9219  -14.6344 O   0  0  0  0  0  0  0  0  0  0  0  0
   20.4617   -8.6712  -15.4697 N   0  0  0  0  0  0  0  0  0  0  0  0
   20.6565   -7.3622  -14.9273 C   0  0  1  0  0  0  0  0  0  0  0  0
   21.8654   -7.2585  -14.0599 C   0  0  0  0  0  0  0  0  0  0  0  0
   21.8987   -5.9091  -13.4054 C   0  0  0  0  0  0  0  0  0  0  0  0
   21.1060   -5.6807  -12.4685 O   0  0  0  0  0  0  0  0  0  0  0  0
   20.6882   -6.2821  -15.9665 C   0  0  0  0  0  0  0  0  0  0  0  0
   21.5633   -6.2688  -16.8913 O   0  0  0  0  0  0  0  0  0  0  0  0
   22.8000   -4.9425  -13.8447 O   0  0  0  0  0  0  0  0  0  0  0  0
   19.7053   -5.2674  -15.8883 N   0  0  0  0  0  0  0  0  0  0  0  0
   19.6406   -4.2628  -16.9200 C   0  0  1  0  0  0  0  0  0  0  0  0
   18.2214   -3.7612  -17.0122 C   0  0  0  0  0  0  0  0  0  0  0  0
   17.2197   -4.7921  -17.3000 C   0  0  0  0  0  0  0  0  0  0  0  0
   16.2290   -4.9530  -16.5667 O   0  0  0  0  0  0  0  0  0  0  0  0
   20.6027   -3.1734  -16.6766 C   0  0  0  0  0  0  0  0  0  0  0  0
   21.3941   -3.1781  -15.5503 O   0  0  0  0  0  0  0  0  0  0  0  0
   17.3695   -5.6059  -18.4042 O   0  0  0  0  0  0  0  0  0  0  0  0
   20.7086   -2.2351  -17.4912 O   0  0  0  0  0  0  0  0  0  0  0  0
  2  1  1  1
  2  3  1  0
  3  4  1  0
  4  8  1  0
  4  5  2  0
  5  6  1  0
  7  6  1  0
  8  7  2  0
  9  2  1  0
  9 11  1  0
 10  9  2  0
 12 11  1  0
 12 16  1  0
 12 13  1  6
 14 13  1  0
 15 14  2  0
 16 19  1  0
 17 16  2  0
 18 14  1  0
 19 20  1  0
 20 21  1  1
 20 24  1  0
 22 26  1  0
 22 21  1  0
 23 22  2  0
 24 25  1  0
 27 24  2  0
M  END
$$$$
