MKD.pdb
     RDKit          3D

 26 25  0  0  1  0  0  0  0  0999 V2000
    6.5196  -11.1348   28.0798 C   0  0  0  0  0  0  0  0  0  0  0  0
    6.7687  -12.2724   26.7172 S   0  0  0  0  0  0  0  0  0  0  0  0
    7.5515  -13.8060   27.1806 C   0  0  0  0  0  0  0  0  0  0  0  0
    7.9307  -14.6760   26.0419 C   0  0  0  0  0  0  0  0  0  0  0  0
    6.7914  -15.1474   25.1983 C   0  0  2  0  0  0  0  0  0  0  0  0
    6.1087  -16.2909   25.7910 N   0  0  0  0  0  0  0  0  0  0  0  0
    7.3545  -15.5768   23.8988 C   0  0  0  0  0  0  0  0  0  0  0  0
    7.4004  -16.7857   23.6121 O   0  0  0  0  0  0  0  0  0  0  0  0
    7.8378  -14.6177   22.9883 N   0  0  0  0  0  0  0  0  0  0  0  0
    8.1256  -15.0507   21.6188 C   0  0  1  0  0  0  0  0  0  0  0  0
    8.0089  -13.8392   20.7546 C   0  0  0  0  0  0  0  0  0  0  0  0
    7.3856  -14.1114   19.4349 C   0  0  0  0  0  0  0  0  0  0  0  0
    8.2791  -13.6213   18.2996 C   0  0  0  0  0  0  0  0  0  0  0  0
    7.5285  -13.9518   17.0062 C   0  0  0  0  0  0  0  0  0  0  0  0
    8.3048  -13.5547   15.8468 N   0  0  0  0  0  0  0  0  0  0  0  0
    9.4628  -15.6455   21.5360 C   0  0  0  0  0  0  0  0  0  0  0  0
   10.0585  -15.6811   20.4383 O   0  0  0  0  0  0  0  0  0  0  0  0
   10.0856  -16.1789   22.6839 N   0  0  0  0  0  0  0  0  0  0  0  0
   11.4636  -16.5917   22.6839 C   0  0  1  0  0  0  0  0  0  0  0  0
   12.3762  -15.4370   22.3363 C   0  0  0  0  0  0  0  0  0  0  0  0
   13.7821  -15.9160   22.3602 C   0  0  0  0  0  0  0  0  0  0  0  0
   14.0800  -17.0855   22.0105 O   0  0  0  0  0  0  0  0  0  0  0  0
   11.8084  -17.1817   24.0043 C   0  0  0  0  0  0  0  0  0  0  0  0
   12.0260  -16.4051   25.1221 O   0  0  0  0  0  0  0  0  0  0  0  0
   14.7561  -15.0240   22.7834 O   0  0  0  0  0  0  0  0  0  0  0  0
   11.9070  -18.4225   24.1167 O   0  0  0  0  0  0  0  0  0  0  0  0
  2  1  1  0
  3  4  1  0
  3  2  1  0
  4  5  1  0
  5  6  1  1
  7  5  1  0
  7  8  2  0
  9  7  1  0
 10  9  1  0
 10 11  1  6
 11 12  1  0
 12 13  1  0
 13 14  1  0
 14 15  1  0
 16 10  1  0
 17 16  2  0
 18 16  1  0
 19 20  1  1
 19 18  1  0
 20 21  1  0
 21 25  1  0
 21 22  2  0
 23 19  1  0
 24 23  1  0
 26 23  2  0
M  END
$$$$
