MKD.pdb
     RDKit          3D

 26 25  0  0  1  0  0  0  0  0999 V2000
    6.5633  -10.7277   26.6154 C   0  0  0  0  0  0  0  0  0  0  0  0
    6.5476  -11.9610   27.9159 S   0  0  0  0  0  0  0  0  0  0  0  0
    6.0483  -13.5852   27.3755 C   0  0  0  0  0  0  0  0  0  0  0  0
    6.8304  -14.1266   26.2384 C   0  0  0  0  0  0  0  0  0  0  0  0
    6.3401  -15.4295   25.6960 C   0  0  2  0  0  0  0  0  0  0  0  0
    6.4804  -16.5116   26.6625 N   0  0  0  0  0  0  0  0  0  0  0  0
    7.1757  -15.7584   24.5196 C   0  0  0  0  0  0  0  0  0  0  0  0
    7.8722  -16.7883   24.5224 O   0  0  0  0  0  0  0  0  0  0  0  0
    7.1820  -14.9063   23.3988 N   0  0  0  0  0  0  0  0  0  0  0  0
    8.0157  -15.2796   22.2536 C   0  0  1  0  0  0  0  0  0  0  0  0
    7.7217  -14.2937   21.1721 C   0  0  0  0  0  0  0  0  0  0  0  0
    8.4821  -14.5428   19.9215 C   0  0  0  0  0  0  0  0  0  0  0  0
    8.1101  -13.5257   18.8468 C   0  0  0  0  0  0  0  0  0  0  0  0
    8.8968  -13.9332   17.5975 C   0  0  0  0  0  0  0  0  0  0  0  0
    8.7487  -12.9392   16.5513 N   0  0  0  0  0  0  0  0  0  0  0  0
    9.4344  -15.2683   22.6227 C   0  0  0  0  0  0  0  0  0  0  0  0
    9.8175  -14.5777   23.5908 O   0  0  0  0  0  0  0  0  0  0  0  0
   10.3732  -16.0301   21.8958 N   0  0  0  0  0  0  0  0  0  0  0  0
   11.7410  -16.1652   22.3204 C   0  0  1  0  0  0  0  0  0  0  0  0
   11.8717  -17.2101   23.4058 C   0  0  0  0  0  0  0  0  0  0  0  0
   13.3059  -17.3447   23.7682 C   0  0  0  0  0  0  0  0  0  0  0  0
   14.1918  -16.6640   23.1934 O   0  0  0  0  0  0  0  0  0  0  0  0
   12.5986  -16.4847   21.1487 C   0  0  0  0  0  0  0  0  0  0  0  0
   13.8741  -15.9803   21.0122 O   0  0  0  0  0  0  0  0  0  0  0  0
   13.6326  -18.2508   24.7661 O   0  0  0  0  0  0  0  0  0  0  0  0
   12.1588  -17.2348   20.2510 O   0  0  0  0  0  0  0  0  0  0  0  0
  2  1  1  0
  3  4  1  0
  3  2  1  0
  4  5  1  0
  5  6  1  1
  7  5  1  0
  7  8  2  0
  9  7  1  0
 10  9  1  0
 10 11  1  6
 11 12  1  0
 12 13  1  0
 13 14  1  0
 14 15  1  0
 16 10  1  0
 17 16  2  0
 18 16  1  0
 19 20  1  1
 19 18  1  0
 20 21  1  0
 21 25  1  0
 21 22  2  0
 23 19  1  0
 24 23  1  0
 26 23  2  0
M  END
$$$$
