MKD.pdb
     RDKit          3D

 26 25  0  0  1  0  0  0  0  0999 V2000
    8.7507  -11.9350   27.2522 C   0  0  0  0  0  0  0  0  0  0  0  0
    7.1385  -12.2947   27.9481 S   0  0  0  0  0  0  0  0  0  0  0  0
    6.4068  -13.8072   27.3511 C   0  0  0  0  0  0  0  0  0  0  0  0
    7.0900  -14.4046   26.1789 C   0  0  0  0  0  0  0  0  0  0  0  0
    6.4491  -15.6389   25.6337 C   0  0  2  0  0  0  0  0  0  0  0  0
    6.5450  -16.7600   26.5604 N   0  0  0  0  0  0  0  0  0  0  0  0
    7.1789  -16.0048   24.3992 C   0  0  0  0  0  0  0  0  0  0  0  0
    7.9105  -17.0100   24.3866 O   0  0  0  0  0  0  0  0  0  0  0  0
    7.0451  -15.2158   23.2409 N   0  0  0  0  0  0  0  0  0  0  0  0
    7.9517  -15.4770   22.1203 C   0  0  1  0  0  0  0  0  0  0  0  0
    7.5901  -14.5081   21.0438 C   0  0  0  0  0  0  0  0  0  0  0  0
    8.4033  -14.6622   19.8113 C   0  0  0  0  0  0  0  0  0  0  0  0
    7.9067  -13.7286   18.7115 C   0  0  0  0  0  0  0  0  0  0  0  0
    8.6962  -14.1078   17.4551 C   0  0  0  0  0  0  0  0  0  0  0  0
    8.4151  -13.1823   16.3739 N   0  0  0  0  0  0  0  0  0  0  0  0
    9.3479  -15.3216   22.5391 C   0  0  0  0  0  0  0  0  0  0  0  0
    9.6878  -14.3199   23.2040 O   0  0  0  0  0  0  0  0  0  0  0  0
   10.3135  -16.2923   22.1993 N   0  0  0  0  0  0  0  0  0  0  0  0
   11.6962  -16.1587   22.5729 C   0  0  1  0  0  0  0  0  0  0  0  0
   12.0257  -17.0387   23.7578 C   0  0  0  0  0  0  0  0  0  0  0  0
   11.7350  -18.4505   23.3992 C   0  0  0  0  0  0  0  0  0  0  0  0
   11.2169  -18.7506   22.2945 O   0  0  0  0  0  0  0  0  0  0  0  0
   12.5616  -16.4694   21.4046 C   0  0  0  0  0  0  0  0  0  0  0  0
   12.0441  -16.8823   20.1957 O   0  0  0  0  0  0  0  0  0  0  0  0
   12.0566  -19.4275   24.3295 O   0  0  0  0  0  0  0  0  0  0  0  0
   13.8018  -16.3559   21.5104 O   0  0  0  0  0  0  0  0  0  0  0  0
  2  1  1  0
  3  4  1  0
  3  2  1  0
  4  5  1  0
  5  6  1  1
  7  5  1  0
  7  8  2  0
  9  7  1  0
 10  9  1  0
 10 11  1  6
 11 12  1  0
 12 13  1  0
 13 14  1  0
 14 15  1  0
 16 10  1  0
 17 16  2  0
 18 16  1  0
 19 20  1  1
 19 18  1  0
 20 21  1  0
 21 25  1  0
 21 22  2  0
 23 19  1  0
 24 23  1  0
 26 23  2  0
M  END
$$$$
