MKD.pdb
     RDKit          3D

 26 25  0  0  1  0  0  0  0  0999 V2000
    7.3711  -11.5608   27.0031 C   0  0  0  0  0  0  0  0  0  0  0  0
    6.0271  -12.7043   26.6884 S   0  0  0  0  0  0  0  0  0  0  0  0
    6.3778  -14.3890   27.1556 C   0  0  0  0  0  0  0  0  0  0  0  0
    7.1428  -15.1637   26.1494 C   0  0  0  0  0  0  0  0  0  0  0  0
    6.3567  -15.6034   24.9575 C   0  0  2  0  0  0  0  0  0  0  0  0
    5.7141  -16.8940   25.1719 N   0  0  0  0  0  0  0  0  0  0  0  0
    7.3078  -15.7495   23.8330 C   0  0  0  0  0  0  0  0  0  0  0  0
    7.8729  -16.8395   23.6367 O   0  0  0  0  0  0  0  0  0  0  0  0
    7.5726  -14.6559   22.9867 N   0  0  0  0  0  0  0  0  0  0  0  0
    8.5907  -14.8198   21.9463 C   0  0  1  0  0  0  0  0  0  0  0  0
    8.6932  -13.5093   21.2390 C   0  0  0  0  0  0  0  0  0  0  0  0
    7.8666  -13.4348   20.0081 C   0  0  0  0  0  0  0  0  0  0  0  0
    8.6009  -14.0511   18.8213 C   0  0  0  0  0  0  0  0  0  0  0  0
    7.7184  -13.7808   17.5991 C   0  0  0  0  0  0  0  0  0  0  0  0
    8.2653  -14.4235   16.4192 N   0  0  0  0  0  0  0  0  0  0  0  0
    9.8727  -15.2158   22.5368 C   0  0  0  0  0  0  0  0  0  0  0  0
   10.3354  -14.5724   23.5026 O   0  0  0  0  0  0  0  0  0  0  0  0
   10.5907  -16.3173   22.0256 N   0  0  0  0  0  0  0  0  0  0  0  0
   11.8760  -16.6999   22.5461 C   0  0  1  0  0  0  0  0  0  0  0  0
   11.8725  -18.1447   22.9928 C   0  0  0  0  0  0  0  0  0  0  0  0
   11.6772  -18.1886   24.4647 C   0  0  0  0  0  0  0  0  0  0  0  0
   11.5744  -17.1353   25.1419 O   0  0  0  0  0  0  0  0  0  0  0  0
   12.9247  -16.4473   21.5229 C   0  0  0  0  0  0  0  0  0  0  0  0
   12.6184  -16.0494   20.2392 O   0  0  0  0  0  0  0  0  0  0  0  0
   11.6123  -19.4368   25.0657 O   0  0  0  0  0  0  0  0  0  0  0  0
   14.1280  -16.5975   21.8253 O   0  0  0  0  0  0  0  0  0  0  0  0
  2  1  1  0
  3  4  1  0
  3  2  1  0
  4  5  1  0
  5  6  1  1
  7  5  1  0
  7  8  2  0
  9  7  1  0
 10  9  1  0
 10 11  1  1
 11 12  1  0
 12 13  1  0
 13 14  1  0
 14 15  1  0
 16 10  1  0
 17 16  2  0
 18 16  1  0
 19 20  1  6
 19 18  1  0
 20 21  1  0
 21 25  1  0
 21 22  2  0
 23 19  1  0
 24 23  1  0
 26 23  2  0
M  END
$$$$
