MKD.pdb
     RDKit          3D

 26 25  0  0  1  0  0  0  0  0999 V2000
    6.4426  -10.8353   26.6328 C   0  0  0  0  0  0  0  0  0  0  0  0
    7.0037  -12.1563   27.7066 S   0  0  0  0  0  0  0  0  0  0  0  0
    6.4848  -13.7835   27.1941 C   0  0  0  0  0  0  0  0  0  0  0  0
    7.1726  -14.3007   25.9870 C   0  0  0  0  0  0  0  0  0  0  0  0
    6.6332  -15.5878   25.4536 C   0  0  2  0  0  0  0  0  0  0  0  0
    6.8171  -16.6883   26.3916 N   0  0  0  0  0  0  0  0  0  0  0  0
    7.3919  -15.9064   24.2235 C   0  0  0  0  0  0  0  0  0  0  0  0
    8.0269  -16.9724   24.1455 O   0  0  0  0  0  0  0  0  0  0  0  0
    7.3947  -15.0036   23.1431 N   0  0  0  0  0  0  0  0  0  0  0  0
    8.1482  -15.3691   21.9412 C   0  0  1  0  0  0  0  0  0  0  0  0
    7.8040  -14.3586   20.8978 C   0  0  0  0  0  0  0  0  0  0  0  0
    8.4416  -14.6242   19.5836 C   0  0  0  0  0  0  0  0  0  0  0  0
    8.0196  -13.5810   18.5533 C   0  0  0  0  0  0  0  0  0  0  0  0
    8.6584  -14.0183   17.2319 C   0  0  0  0  0  0  0  0  0  0  0  0
    8.3969  -13.0446   16.1888 N   0  0  0  0  0  0  0  0  0  0  0  0
    9.5872  -15.3879   22.2201 C   0  0  0  0  0  0  0  0  0  0  0  0
   10.0040  -15.0547   23.3497 O   0  0  0  0  0  0  0  0  0  0  0  0
   10.5080  -15.7788   21.2254 N   0  0  0  0  0  0  0  0  0  0  0  0
   11.8354  -16.2299   21.5474 C   0  0  1  0  0  0  0  0  0  0  0  0
   11.7974  -17.3402   22.5734 C   0  0  0  0  0  0  0  0  0  0  0  0
   12.6058  -16.9303   23.7503 C   0  0  0  0  0  0  0  0  0  0  0  0
   13.2315  -15.8408   23.7657 O   0  0  0  0  0  0  0  0  0  0  0  0
   12.5327  -16.6575   20.3058 C   0  0  0  0  0  0  0  0  0  0  0  0
   13.7360  -16.1117   19.9134 O   0  0  0  0  0  0  0  0  0  0  0  0
   12.6452  -17.7952   24.8336 O   0  0  0  0  0  0  0  0  0  0  0  0
   12.0200  -17.5409   19.5856 O   0  0  0  0  0  0  0  0  0  0  0  0
  2  1  1  0
  3  4  1  0
  3  2  1  0
  4  5  1  0
  5  6  1  1
  7  5  1  0
  7  8  2  0
  9  7  1  0
 10  9  1  0
 10 11  1  6
 11 12  1  0
 12 13  1  0
 13 14  1  0
 14 15  1  0
 16 10  1  0
 17 16  2  0
 18 16  1  0
 19 20  1  1
 19 18  1  0
 20 21  1  0
 21 25  1  0
 21 22  2  0
 23 19  1  0
 24 23  1  0
 26 23  2  0
M  END
$$$$
