MKD.pdb
     RDKit          3D

 26 25  0  0  1  0  0  0  0  0999 V2000
    8.2740  -12.1071   28.2664 C   0  0  0  0  0  0  0  0  0  0  0  0
    6.7247  -11.7868   27.4240 S   0  0  0  0  0  0  0  0  0  0  0  0
    5.9716  -13.2347   26.7057 C   0  0  0  0  0  0  0  0  0  0  0  0
    6.7735  -13.8865   25.6428 C   0  0  0  0  0  0  0  0  0  0  0  0
    6.1842  -15.1406   25.0842 C   0  0  2  0  0  0  0  0  0  0  0  0
    6.1595  -16.2177   26.0659 N   0  0  0  0  0  0  0  0  0  0  0  0
    7.0462  -15.5688   23.9600 C   0  0  0  0  0  0  0  0  0  0  0  0
    7.6484  -16.6549   24.0194 O   0  0  0  0  0  0  0  0  0  0  0  0
    7.1843  -14.7475   22.8248 N   0  0  0  0  0  0  0  0  0  0  0  0
    7.9264  -15.2759   21.6777 C   0  0  1  0  0  0  0  0  0  0  0  0
    7.7230  -14.3115   20.5566 C   0  0  0  0  0  0  0  0  0  0  0  0
    8.3691  -14.7335   19.2883 C   0  0  0  0  0  0  0  0  0  0  0  0
    8.1053  -13.7193   18.1795 C   0  0  0  0  0  0  0  0  0  0  0  0
    8.7432  -14.3067   16.9171 C   0  0  0  0  0  0  0  0  0  0  0  0
    8.6180  -13.3859   15.8031 N   0  0  0  0  0  0  0  0  0  0  0  0
    9.3467  -15.4277   22.0075 C   0  0  0  0  0  0  0  0  0  0  0  0
    9.9428  -14.5138   22.6159 O   0  0  0  0  0  0  0  0  0  0  0  0
   10.0487  -16.5965   21.6452 N   0  0  0  0  0  0  0  0  0  0  0  0
   11.4466  -16.7699   21.9369 C   0  0  1  0  0  0  0  0  0  0  0  0
   11.6617  -17.9139   22.9022 C   0  0  0  0  0  0  0  0  0  0  0  0
   12.2370  -17.3743   24.1610 C   0  0  0  0  0  0  0  0  0  0  0  0
   12.4859  -16.1499   24.2934 O   0  0  0  0  0  0  0  0  0  0  0  0
   12.1994  -16.9746   20.6712 C   0  0  0  0  0  0  0  0  0  0  0  0
   11.5766  -17.0023   19.4419 O   0  0  0  0  0  0  0  0  0  0  0  0
   12.4898  -18.2726   25.1870 O   0  0  0  0  0  0  0  0  0  0  0  0
   13.4391  -17.1278   20.7109 O   0  0  0  0  0  0  0  0  0  0  0  0
  2  1  1  0
  3  4  1  0
  3  2  1  0
  4  5  1  0
  5  6  1  1
  7  5  1  0
  7  8  2  0
  9  7  1  0
 10  9  1  0
 10 11  1  6
 11 12  1  0
 12 13  1  0
 13 14  1  0
 14 15  1  0
 16 10  1  0
 17 16  2  0
 18 16  1  0
 19 20  1  1
 19 18  1  0
 20 21  1  0
 21 25  1  0
 21 22  2  0
 23 19  1  0
 24 23  1  0
 26 23  2  0
M  END
$$$$
