MKD.pdb
     RDKit          3D

 26 25  0  0  1  0  0  0  0  0999 V2000
    5.8427  -11.4447   26.4898 C   0  0  0  0  0  0  0  0  0  0  0  0
    6.7820  -12.5504   27.5424 S   0  0  0  0  0  0  0  0  0  0  0  0
    6.3203  -14.2664   27.3945 C   0  0  0  0  0  0  0  0  0  0  0  0
    6.3268  -14.7917   26.0082 C   0  0  0  0  0  0  0  0  0  0  0  0
    7.6007  -15.4477   25.5857 C   0  0  2  0  0  0  0  0  0  0  0  0
    8.7728  -14.7197   26.0557 N   0  0  0  0  0  0  0  0  0  0  0  0
    7.6265  -15.4457   24.1059 C   0  0  0  0  0  0  0  0  0  0  0  0
    6.8002  -16.1234   23.4706 O   0  0  0  0  0  0  0  0  0  0  0  0
    8.5855  -14.6776   23.4184 N   0  0  0  0  0  0  0  0  0  0  0  0
    8.6953  -14.8492   21.9678 C   0  0  1  0  0  0  0  0  0  0  0  0
    8.6708  -13.4804   21.3729 C   0  0  0  0  0  0  0  0  0  0  0  0
    7.8984  -13.3987   20.1076 C   0  0  0  0  0  0  0  0  0  0  0  0
    8.6925  -13.9890   18.9463 C   0  0  0  0  0  0  0  0  0  0  0  0
    7.8085  -13.8175   17.7074 C   0  0  0  0  0  0  0  0  0  0  0  0
    8.4112  -14.4594   16.5544 N   0  0  0  0  0  0  0  0  0  0  0  0
    9.9280  -15.5645   21.6246 C   0  0  0  0  0  0  0  0  0  0  0  0
   10.9948  -15.2757   22.2072 O   0  0  0  0  0  0  0  0  0  0  0  0
    9.9229  -16.5770   20.6424 N   0  0  0  0  0  0  0  0  0  0  0  0
   11.0955  -17.3528   20.3381 C   0  0  1  0  0  0  0  0  0  0  0  0
   10.8599  -18.8218   20.6093 C   0  0  0  0  0  0  0  0  0  0  0  0
   12.1033  -19.5706   20.2934 C   0  0  0  0  0  0  0  0  0  0  0  0
   13.1578  -18.9749   19.9592 O   0  0  0  0  0  0  0  0  0  0  0  0
   11.4988  -17.1159   18.9268 C   0  0  0  0  0  0  0  0  0  0  0  0
   12.7357  -16.6088   18.5911 O   0  0  0  0  0  0  0  0  0  0  0  0
   12.0581  -20.9540   20.3807 O   0  0  0  0  0  0  0  0  0  0  0  0
   10.6975  -17.3817   18.0053 O   0  0  0  0  0  0  0  0  0  0  0  0
  2  1  1  0
  3  4  1  0
  3  2  1  0
  4  5  1  0
  5  6  1  1
  7  5  1  0
  7  8  2  0
  9  7  1  0
 10  9  1  0
 10 11  1  6
 11 12  1  0
 12 13  1  0
 13 14  1  0
 14 15  1  0
 16 10  1  0
 17 16  2  0
 18 16  1  0
 19 20  1  6
 19 18  1  0
 20 21  1  0
 21 25  1  0
 21 22  2  0
 23 19  1  0
 24 23  1  0
 26 23  2  0
M  END
$$$$
