MKD.pdb
     RDKit          3D

 26 25  0  0  1  0  0  0  0  0999 V2000
    9.9614  -12.6822   28.4143 C   0  0  0  0  0  0  0  0  0  0  0  0
    9.9444  -14.3290   29.1216 S   0  0  0  0  0  0  0  0  0  0  0  0
    8.7809  -15.4410   28.3540 C   0  0  0  0  0  0  0  0  0  0  0  0
    8.9570  -15.6080   26.8915 C   0  0  0  0  0  0  0  0  0  0  0  0
    7.9277  -16.4597   26.2230 C   0  0  2  0  0  0  0  0  0  0  0  0
    7.8466  -17.7879   26.8180 N   0  0  0  0  0  0  0  0  0  0  0  0
    8.3382  -16.6181   24.8100 C   0  0  0  0  0  0  0  0  0  0  0  0
    8.3600  -17.7490   24.2938 O   0  0  0  0  0  0  0  0  0  0  0  0
    8.7036  -15.4898   24.0512 N   0  0  0  0  0  0  0  0  0  0  0  0
    9.0064  -15.6826   22.6310 C   0  0  1  0  0  0  0  0  0  0  0  0
    8.9492  -14.3333   21.9952 C   0  0  0  0  0  0  0  0  0  0  0  0
    7.7692  -14.1436   21.1144 C   0  0  0  0  0  0  0  0  0  0  0  0
    8.1896  -13.6083   19.7490 C   0  0  0  0  0  0  0  0  0  0  0  0
    6.8888  -13.3641   18.9786 C   0  0  0  0  0  0  0  0  0  0  0  0
    7.1634  -12.7723   17.6829 N   0  0  0  0  0  0  0  0  0  0  0  0
   10.3245  -16.3021   22.4639 C   0  0  0  0  0  0  0  0  0  0  0  0
   10.6199  -16.8479   21.3796 O   0  0  0  0  0  0  0  0  0  0  0  0
   11.2646  -16.2886   23.5157 N   0  0  0  0  0  0  0  0  0  0  0  0
   12.6139  -16.7556   23.3409 C   0  0  1  0  0  0  0  0  0  0  0  0
   13.5934  -15.6035   23.3572 C   0  0  0  0  0  0  0  0  0  0  0  0
   14.3829  -15.6305   22.0992 C   0  0  0  0  0  0  0  0  0  0  0  0
   14.2897  -16.5870   21.2898 O   0  0  0  0  0  0  0  0  0  0  0  0
   12.9347  -17.7599   24.3892 C   0  0  0  0  0  0  0  0  0  0  0  0
   12.0501  -18.0784   25.3972 O   0  0  0  0  0  0  0  0  0  0  0  0
   15.2282  -14.5597   21.8498 O   0  0  0  0  0  0  0  0  0  0  0  0
   14.0407  -18.3414   24.3660 O   0  0  0  0  0  0  0  0  0  0  0  0
  2  1  1  0
  3  4  1  0
  3  2  1  0
  4  5  1  0
  5  6  1  1
  7  5  1  0
  7  8  2  0
  9  7  1  0
 10  9  1  0
 10 11  1  6
 11 12  1  0
 12 13  1  0
 13 14  1  0
 14 15  1  0
 16 10  1  0
 17 16  2  0
 18 16  1  0
 19 20  1  1
 19 18  1  0
 20 21  1  0
 21 25  1  0
 21 22  2  0
 23 19  1  0
 24 23  1  0
 26 23  2  0
M  END
$$$$
