MKD.pdb
     RDKit          3D

 26 25  0  0  1  0  0  0  0  0999 V2000
    7.1334  -11.8618   27.3145 C   0  0  0  0  0  0  0  0  0  0  0  0
    7.2859  -11.4056   25.5878 S   0  0  0  0  0  0  0  0  0  0  0  0
    6.7269  -12.6592   24.4496 C   0  0  0  0  0  0  0  0  0  0  0  0
    7.6158  -13.8410   24.3452 C   0  0  0  0  0  0  0  0  0  0  0  0
    7.2260  -14.8362   23.3015 C   0  0  2  0  0  0  0  0  0  0  0  0
    5.9530  -15.4777   23.6058 N   0  0  0  0  0  0  0  0  0  0  0  0
    8.2707  -15.8843   23.2812 C   0  0  0  0  0  0  0  0  0  0  0  0
    8.1387  -16.9046   23.9793 O   0  0  0  0  0  0  0  0  0  0  0  0
    9.4125  -15.7262   22.4728 N   0  0  0  0  0  0  0  0  0  0  0  0
   10.3495  -16.8481   22.3760 C   0  0  1  0  0  0  0  0  0  0  0  0
   11.2185  -16.5777   21.1929 C   0  0  0  0  0  0  0  0  0  0  0  0
   12.1801  -17.6710   20.9026 C   0  0  0  0  0  0  0  0  0  0  0  0
   13.0497  -17.3252   19.6976 C   0  0  0  0  0  0  0  0  0  0  0  0
   13.8589  -18.5889   19.3914 C   0  0  0  0  0  0  0  0  0  0  0  0
   14.6821  -18.3977   18.2123 N   0  0  0  0  0  0  0  0  0  0  0  0
   11.1365  -16.9708   23.6066 C   0  0  0  0  0  0  0  0  0  0  0  0
   11.5375  -15.9419   24.1911 O   0  0  0  0  0  0  0  0  0  0  0  0
   11.4463  -18.2398   24.1392 N   0  0  0  0  0  0  0  0  0  0  0  0
   12.1295  -18.3955   25.3956 C   0  0  1  0  0  0  0  0  0  0  0  0
   11.6219  -19.6083   26.1428 C   0  0  0  0  0  0  0  0  0  0  0  0
   12.4412  -19.7911   27.3683 C   0  0  0  0  0  0  0  0  0  0  0  0
   13.1774  -20.7983   27.5178 O   0  0  0  0  0  0  0  0  0  0  0  0
   13.5955  -18.4729   25.1608 C   0  0  0  0  0  0  0  0  0  0  0  0
   14.1297  -18.6619   23.9043 O   0  0  0  0  0  0  0  0  0  0  0  0
   12.3640  -18.8081   28.3435 O   0  0  0  0  0  0  0  0  0  0  0  0
   14.3799  -18.3642   26.1278 O   0  0  0  0  0  0  0  0  0  0  0  0
  2  1  1  0
  3  4  1  0
  3  2  1  0
  4  5  1  0
  5  6  1  1
  7  5  1  0
  7  8  2  0
  9  7  1  0
 10  9  1  0
 10 11  1  6
 11 12  1  0
 12 13  1  0
 13 14  1  0
 14 15  1  0
 16 10  1  0
 17 16  2  0
 18 16  1  0
 19 20  1  6
 19 18  1  0
 20 21  1  0
 21 25  1  0
 21 22  2  0
 23 19  1  0
 24 23  1  0
 26 23  2  0
M  END
$$$$
