MKD.pdb
     RDKit          3D

 26 25  0  0  1  0  0  0  0  0999 V2000
    7.9141  -11.0490   21.3841 C   0  0  0  0  0  0  0  0  0  0  0  0
    8.6844  -12.0400   20.1045 S   0  0  0  0  0  0  0  0  0  0  0  0
    7.8166  -13.5521   19.7309 C   0  0  0  0  0  0  0  0  0  0  0  0
    7.6959  -14.4939   20.8694 C   0  0  0  0  0  0  0  0  0  0  0  0
    6.8238  -15.6809   20.6195 C   0  0  2  0  0  0  0  0  0  0  0  0
    5.4819  -15.2951   20.2009 N   0  0  0  0  0  0  0  0  0  0  0  0
    6.7077  -16.4180   21.8976 C   0  0  0  0  0  0  0  0  0  0  0  0
    6.0663  -15.9249   22.8416 O   0  0  0  0  0  0  0  0  0  0  0  0
    7.3227  -17.6760   22.0443 N   0  0  0  0  0  0  0  0  0  0  0  0
    7.1093  -18.4060   23.2963 C   0  0  1  0  0  0  0  0  0  0  0  0
    6.5569  -19.7415   22.9230 C   0  0  0  0  0  0  0  0  0  0  0  0
    6.2774  -20.6140   24.0913 C   0  0  0  0  0  0  0  0  0  0  0  0
    5.9077  -22.0241   23.6413 C   0  0  0  0  0  0  0  0  0  0  0  0
    5.6524  -22.8179   24.9259 C   0  0  0  0  0  0  0  0  0  0  0  0
    5.4051  -24.2153   24.6248 N   0  0  0  0  0  0  0  0  0  0  0  0
    8.3656  -18.5310   24.0413 C   0  0  0  0  0  0  0  0  0  0  0  0
    9.4504  -18.5794   23.4235 O   0  0  0  0  0  0  0  0  0  0  0  0
    8.3631  -18.5970   25.4505 N   0  0  0  0  0  0  0  0  0  0  0  0
    9.5718  -18.7768   26.2095 C   0  0  1  0  0  0  0  0  0  0  0  0
    9.6616  -17.7693   27.3337 C   0  0  0  0  0  0  0  0  0  0  0  0
   10.8793  -18.0556   28.1348 C   0  0  0  0  0  0  0  0  0  0  0  0
   12.0227  -17.7377   27.7219 O   0  0  0  0  0  0  0  0  0  0  0  0
    9.6385  -20.1717   26.7197 C   0  0  0  0  0  0  0  0  0  0  0  0
   10.8015  -20.9110   26.6880 O   0  0  0  0  0  0  0  0  0  0  0  0
   10.7084  -18.6877   29.3573 O   0  0  0  0  0  0  0  0  0  0  0  0
    8.6120  -20.7023   27.1956 O   0  0  0  0  0  0  0  0  0  0  0  0
  2  1  1  0
  3  4  1  0
  3  2  1  0
  4  5  1  0
  5  6  1  1
  7  5  1  0
  7  8  2  0
  9  7  1  0
 10  9  1  0
 10 11  1  6
 11 12  1  0
 12 13  1  0
 13 14  1  0
 14 15  1  0
 16 10  1  0
 17 16  2  0
 18 16  1  0
 19 20  1  1
 19 18  1  0
 20 21  1  0
 21 25  1  0
 21 22  2  0
 23 19  1  0
 24 23  1  0
 26 23  2  0
M  END
$$$$
