MKD.pdb
     RDKit          3D

 26 25  0  0  1  0  0  0  0  0999 V2000
    8.7366  -12.1160   27.3866 C   0  0  0  0  0  0  0  0  0  0  0  0
    7.2652  -13.0478   27.8103 S   0  0  0  0  0  0  0  0  0  0  0  0
    7.4966  -14.8159   27.8125 C   0  0  0  0  0  0  0  0  0  0  0  0
    7.7759  -15.4051   26.4812 C   0  0  0  0  0  0  0  0  0  0  0  0
    6.9151  -14.8973   25.3708 C   0  0  2  0  0  0  0  0  0  0  0  0
    5.5374  -15.3575   25.4926 N   0  0  0  0  0  0  0  0  0  0  0  0
    7.4650  -15.4357   24.1066 C   0  0  0  0  0  0  0  0  0  0  0  0
    7.9103  -16.5959   24.0688 O   0  0  0  0  0  0  0  0  0  0  0  0
    7.4838  -14.6354   22.9484 N   0  0  0  0  0  0  0  0  0  0  0  0
    8.0510  -15.2068   21.7247 C   0  0  1  0  0  0  0  0  0  0  0  0
    7.8407  -14.1978   20.6450 C   0  0  0  0  0  0  0  0  0  0  0  0
    8.3079  -14.6522   19.3110 C   0  0  0  0  0  0  0  0  0  0  0  0
    7.9626  -13.6271   18.2352 C   0  0  0  0  0  0  0  0  0  0  0  0
    8.3796  -14.2621   16.9053 C   0  0  0  0  0  0  0  0  0  0  0  0
    8.0108  -13.4088   15.7916 N   0  0  0  0  0  0  0  0  0  0  0  0
    9.4730  -15.5118   21.9084 C   0  0  0  0  0  0  0  0  0  0  0  0
   10.1949  -14.7304   22.5636 O   0  0  0  0  0  0  0  0  0  0  0  0
   10.0361  -16.6799   21.3530 N   0  0  0  0  0  0  0  0  0  0  0  0
   11.4357  -16.9879   21.4782 C   0  0  1  0  0  0  0  0  0  0  0  0
   11.6454  -18.4615   21.7451 C   0  0  0  0  0  0  0  0  0  0  0  0
   11.8559  -18.6573   23.2025 C   0  0  0  0  0  0  0  0  0  0  0  0
   12.6379  -17.9210   23.8545 O   0  0  0  0  0  0  0  0  0  0  0  0
   12.1558  -16.5467   20.2545 C   0  0  0  0  0  0  0  0  0  0  0  0
   11.7169  -16.8671   18.9878 O   0  0  0  0  0  0  0  0  0  0  0  0
   11.1567  -19.6843   23.8188 O   0  0  0  0  0  0  0  0  0  0  0  0
   13.1953  -15.8618   20.3658 O   0  0  0  0  0  0  0  0  0  0  0  0
  2  1  1  0
  3  4  1  0
  3  2  1  0
  4  5  1  0
  5  6  1  1
  7  5  1  0
  7  8  2  0
  9  7  1  0
 10  9  1  0
 10 11  1  6
 11 12  1  0
 12 13  1  0
 13 14  1  0
 14 15  1  0
 16 10  1  0
 17 16  2  0
 18 16  1  0
 19 20  1  6
 19 18  1  0
 20 21  1  0
 21 25  1  0
 21 22  2  0
 23 19  1  0
 24 23  1  0
 26 23  2  0
M  END
$$$$
