MWW.pdb
     RDKit          3D

 37 40  0  0  1  0  0  0  0  0999 V2000
    7.7176  -11.8291   17.7025 C   0  0  0  0  0  0  0  0  0  0  0  0
    7.4894  -13.1264   16.4569 S   0  0  0  0  0  0  0  0  0  0  0  0
    7.9836  -14.7378   17.1424 C   0  0  0  0  0  0  0  0  0  0  0  0
    8.3890  -14.5501   18.5971 C   0  0  0  0  0  0  0  0  0  0  0  0
    8.8490  -15.8883   19.1093 C   0  0  2  0  0  0  0  0  0  0  0  0
    7.8903  -16.9235   18.8856 N   0  0  0  0  0  0  0  0  0  0  0  0
    9.2804  -15.8139   20.5394 C   0  0  0  0  0  0  0  0  0  0  0  0
   10.1943  -15.0439   20.9051 O   0  0  0  0  0  0  0  0  0  0  0  0
    8.6783  -16.6089   21.5511 N   0  0  0  0  0  0  0  0  0  0  0  0
    9.0295  -16.5101   22.9667 C   0  0  1  0  0  0  0  0  0  0  0  0
    7.9476  -17.2871   23.6866 C   0  0  0  0  0  0  0  0  0  0  0  0
    7.2078  -16.4021   24.6220 C   0  0  0  0  0  0  0  0  0  0  0  0
    6.1918  -16.7743   25.4745 C   0  0  0  0  0  0  0  0  0  0  0  0
    5.7648  -15.6996   26.1641 N   0  0  0  0  0  0  0  0  0  0  0  0
    6.4870  -14.6158   25.7787 C   0  0  0  0  0  0  0  0  0  0  0  0
    6.4482  -13.2954   26.1708 C   0  0  0  0  0  0  0  0  0  0  0  0
    7.3090  -12.3964   25.6061 C   0  0  0  0  0  0  0  0  0  0  0  0
    8.2103  -12.8166   24.6479 C   0  0  0  0  0  0  0  0  0  0  0  0
    8.2638  -14.1321   24.2433 C   0  0  0  0  0  0  0  0  0  0  0  0
    7.3854  -15.0357   24.8234 C   0  0  0  0  0  0  0  0  0  0  0  0
   10.3821  -16.9081   23.2764 C   0  0  0  0  0  0  0  0  0  0  0  0
   11.0503  -17.6239   22.4860 O   0  0  0  0  0  0  0  0  0  0  0  0
   10.9927  -16.5009   24.4823 N   0  0  0  0  0  0  0  0  0  0  0  0
   12.3688  -16.9457   24.7841 C   0  0  1  0  0  0  0  0  0  0  0  0
   12.8683  -16.0130   25.8526 C   0  0  0  0  0  0  0  0  0  0  0  0
   12.1592  -16.0688   27.1415 C   0  0  0  0  0  0  0  0  0  0  0  0
   12.1211  -17.1313   28.0481 C   0  0  0  0  0  0  0  0  0  0  0  0
   11.3389  -16.7845   29.0765 N   0  0  0  0  0  0  0  0  0  0  0  0
   10.8541  -15.5465   28.9039 C   0  0  0  0  0  0  0  0  0  0  0  0
   10.0307  -14.7309   29.6597 C   0  0  0  0  0  0  0  0  0  0  0  0
    9.7392  -13.4782   29.1851 C   0  0  0  0  0  0  0  0  0  0  0  0
   10.2313  -13.0035   27.9926 C   0  0  0  0  0  0  0  0  0  0  0  0
   11.0467  -13.8147   27.2453 C   0  0  0  0  0  0  0  0  0  0  0  0
   11.3614  -15.0800   27.6887 C   0  0  0  0  0  0  0  0  0  0  0  0
   12.4241  -18.3648   25.0743 C   0  0  0  0  0  0  0  0  0  0  0  0
   13.5408  -18.9864   25.0764 O   0  0  0  0  0  0  0  0  0  0  0  0
   11.3157  -19.1340   25.3672 O   0  0  0  0  0  0  0  0  0  0  0  0
  1  2  1  0
  3  2  1  0
  4  3  1  0
  5  4  1  0
  5  6  1  1
  7  5  1  0
  8  7  2  0
  9  7  1  0
 10 21  1  0
 10  9  1  0
 10 11  1  1
 12 13  2  0
 12 11  1  0
 14 13  1  0
 15 20  2  0
 15 14  1  0
 16 15  1  0
 17 18  1  0
 17 16  2  0
 18 19  2  0
 19 20  1  0
 20 12  1  0
 21 22  2  0
 23 24  1  0
 23 21  1  0
 24 25  1  1
 25 26  1  0
 26 27  2  0
 27 28  1  0
 29 30  2  0
 29 28  1  0
 31 30  1  0
 32 31  2  0
 33 32  1  0
 33 34  2  0
 34 26  1  0
 34 29  1  0
 35 37  1  0
 35 24  1  0
 36 35  2  0
M  END
$$$$
