MWW.pdb
     RDKit          3D

 37 40  0  0  1  0  0  0  0  0999 V2000
   11.9597  -21.5629   18.2883 C   0  0  0  0  0  0  0  0  0  0  0  0
   12.0885  -20.4912   16.8316 S   0  0  0  0  0  0  0  0  0  0  0  0
   10.6844  -19.3349   16.7867 C   0  0  0  0  0  0  0  0  0  0  0  0
   10.6689  -18.5294   18.0778 C   0  0  0  0  0  0  0  0  0  0  0  0
    9.4741  -17.6162   18.0208 C   0  0  2  0  0  0  0  0  0  0  0  0
    9.4792  -16.7730   16.8675 N   0  0  0  0  0  0  0  0  0  0  0  0
    9.3099  -16.8414   19.2894 C   0  0  0  0  0  0  0  0  0  0  0  0
    9.9326  -15.7761   19.4875 O   0  0  0  0  0  0  0  0  0  0  0  0
    8.4431  -17.2720   20.3293 N   0  0  0  0  0  0  0  0  0  0  0  0
    8.3679  -16.6191   21.6351 C   0  0  1  0  0  0  0  0  0  0  0  0
    6.9603  -16.8930   22.1215 C   0  0  0  0  0  0  0  0  0  0  0  0
    6.7016  -16.1729   23.3944 C   0  0  0  0  0  0  0  0  0  0  0  0
    6.3899  -16.7404   24.6103 C   0  0  0  0  0  0  0  0  0  0  0  0
    6.2229  -15.7720   25.5308 N   0  0  0  0  0  0  0  0  0  0  0  0
    6.4206  -14.5656   24.9390 C   0  0  0  0  0  0  0  0  0  0  0  0
    6.3700  -13.2789   25.4297 C   0  0  0  0  0  0  0  0  0  0  0  0
    6.6173  -12.2260   24.5941 C   0  0  0  0  0  0  0  0  0  0  0  0
    6.9157  -12.4582   23.2658 C   0  0  0  0  0  0  0  0  0  0  0  0
    6.9709  -13.7371   22.7575 C   0  0  0  0  0  0  0  0  0  0  0  0
    6.7182  -14.7980   23.6148 C   0  0  0  0  0  0  0  0  0  0  0  0
    9.4188  -16.9924   22.5517 C   0  0  0  0  0  0  0  0  0  0  0  0
    9.8478  -18.1740   22.6084 O   0  0  0  0  0  0  0  0  0  0  0  0
    9.9950  -16.0339   23.4130 N   0  0  0  0  0  0  0  0  0  0  0  0
   11.0573  -16.4490   24.3522 C   0  0  1  0  0  0  0  0  0  0  0  0
   11.1360  -15.3547   25.3805 C   0  0  0  0  0  0  0  0  0  0  0  0
   11.1073  -15.7873   26.7873 C   0  0  0  0  0  0  0  0  0  0  0  0
   11.5474  -17.0042   27.3140 C   0  0  0  0  0  0  0  0  0  0  0  0
   11.3128  -17.0069   28.6311 N   0  0  0  0  0  0  0  0  0  0  0  0
   10.7403  -15.8554   29.0105 C   0  0  0  0  0  0  0  0  0  0  0  0
   10.3191  -15.3565   30.2305 C   0  0  0  0  0  0  0  0  0  0  0  0
    9.7773  -14.0977   30.2688 C   0  0  0  0  0  0  0  0  0  0  0  0
    9.6370  -13.3159   29.1469 C   0  0  0  0  0  0  0  0  0  0  0  0
   10.0548  -13.8136   27.9391 C   0  0  0  0  0  0  0  0  0  0  0  0
   10.6034  -15.0744   27.8604 C   0  0  0  0  0  0  0  0  0  0  0  0
   10.8448  -17.7962   24.8433 C   0  0  0  0  0  0  0  0  0  0  0  0
   11.8369  -18.5579   25.1061 O   0  0  0  0  0  0  0  0  0  0  0  0
    9.5983  -18.3466   25.0652 O   0  0  0  0  0  0  0  0  0  0  0  0
  1  2  1  0
  3  2  1  0
  4  3  1  0
  5  4  1  0
  5  6  1  6
  7  5  1  0
  8  7  2  0
  9  7  1  0
 10 21  1  0
 10  9  1  0
 10 11  1  1
 12 13  2  0
 12 11  1  0
 14 13  1  0
 15 20  2  0
 15 14  1  0
 16 15  1  0
 17 18  1  0
 17 16  2  0
 18 19  2  0
 19 20  1  0
 20 12  1  0
 21 22  2  0
 23 24  1  0
 23 21  1  0
 24 25  1  1
 25 26  1  0
 26 27  2  0
 27 28  1  0
 29 30  2  0
 29 28  1  0
 31 30  1  0
 32 31  2  0
 33 32  1  0
 33 34  2  0
 34 26  1  0
 34 29  1  0
 35 37  1  0
 35 24  1  0
 36 35  2  0
M  END
$$$$
