MWW.pdb
     RDKit          3D

 37 40  0  0  1  0  0  0  0  0999 V2000
    7.1582  -25.1972   19.0250 C   0  0  0  0  0  0  0  0  0  0  0  0
    7.9389  -23.5711   19.2070 S   0  0  0  0  0  0  0  0  0  0  0  0
    7.3920  -22.7910   20.7571 C   0  0  0  0  0  0  0  0  0  0  0  0
    7.9140  -21.3621   20.7997 C   0  0  0  0  0  0  0  0  0  0  0  0
    7.5616  -20.7973   22.1493 C   0  0  2  0  0  0  0  0  0  0  0  0
    6.1894  -21.0009   22.4910 N   0  0  0  0  0  0  0  0  0  0  0  0
    7.9701  -19.3639   22.2722 C   0  0  0  0  0  0  0  0  0  0  0  0
    8.7874  -18.8491   21.4793 O   0  0  0  0  0  0  0  0  0  0  0  0
    7.4543  -18.5172   23.2896 N   0  0  0  0  0  0  0  0  0  0  0  0
    7.9399  -17.1591   23.5282 C   0  0  1  0  0  0  0  0  0  0  0  0
    6.7071  -16.3737   23.9232 C   0  0  0  0  0  0  0  0  0  0  0  0
    6.9792  -14.9150   23.8619 C   0  0  0  0  0  0  0  0  0  0  0  0
    7.5692  -14.2327   22.8207 C   0  0  0  0  0  0  0  0  0  0  0  0
    7.6510  -12.9242   23.1275 N   0  0  0  0  0  0  0  0  0  0  0  0
    7.1212  -12.7293   24.3628 C   0  0  0  0  0  0  0  0  0  0  0  0
    6.9635  -11.5953   25.1297 C   0  0  0  0  0  0  0  0  0  0  0  0
    6.3847  -11.6887   26.3643 C   0  0  0  0  0  0  0  0  0  0  0  0
    5.9626  -12.9168   26.8343 C   0  0  0  0  0  0  0  0  0  0  0  0
    6.1118  -14.0610   26.0822 C   0  0  0  0  0  0  0  0  0  0  0  0
    6.7005  -13.9541   24.8305 C   0  0  0  0  0  0  0  0  0  0  0  0
    9.0460  -17.0731   24.4517 C   0  0  0  0  0  0  0  0  0  0  0  0
    8.8688  -16.7545   25.6562 O   0  0  0  0  0  0  0  0  0  0  0  0
   10.3629  -17.3464   24.0232 N   0  0  0  0  0  0  0  0  0  0  0  0
   11.4625  -16.4551   24.4465 C   0  0  1  0  0  0  0  0  0  0  0  0
   11.9617  -17.0210   25.7472 C   0  0  0  0  0  0  0  0  0  0  0  0
   11.1044  -16.7929   26.9220 C   0  0  0  0  0  0  0  0  0  0  0  0
   10.4639  -17.7533   27.7090 C   0  0  0  0  0  0  0  0  0  0  0  0
    9.7585  -17.1247   28.6562 N   0  0  0  0  0  0  0  0  0  0  0  0
    9.8956  -15.7958   28.5427 C   0  0  0  0  0  0  0  0  0  0  0  0
    9.4013  -14.7214   29.2608 C   0  0  0  0  0  0  0  0  0  0  0  0
    9.7642  -13.4566   28.8757 C   0  0  0  0  0  0  0  0  0  0  0  0
   10.5964  -13.2161   27.8084 C   0  0  0  0  0  0  0  0  0  0  0  0
   11.0841  -14.2833   27.0981 C   0  0  0  0  0  0  0  0  0  0  0  0
   10.7414  -15.5687   27.4542 C   0  0  0  0  0  0  0  0  0  0  0  0
   12.4411  -16.2706   23.3932 C   0  0  0  0  0  0  0  0  0  0  0  0
   13.4281  -15.4745   23.5530 O   0  0  0  0  0  0  0  0  0  0  0  0
   12.3931  -16.9202   22.1759 O   0  0  0  0  0  0  0  0  0  0  0  0
  1  2  1  0
  3  2  1  0
  4  3  1  0
  5  4  1  0
  5  6  1  6
  7  5  1  0
  8  7  2  0
  9  7  1  0
 10 21  1  0
 10  9  1  0
 10 11  1  1
 12 13  2  0
 12 11  1  0
 14 13  1  0
 15 20  2  0
 15 14  1  0
 16 15  1  0
 17 18  1  0
 17 16  2  0
 18 19  2  0
 19 20  1  0
 20 12  1  0
 21 22  2  0
 23 24  1  0
 23 21  1  0
 24 25  1  1
 25 26  1  0
 26 27  2  0
 27 28  1  0
 29 30  2  0
 29 28  1  0
 31 30  1  0
 32 31  2  0
 33 32  1  0
 33 34  2  0
 34 26  1  0
 34 29  1  0
 35 37  1  0
 35 24  1  0
 36 35  2  0
M  END
$$$$
