MWW.pdb
     RDKit          3D

 37 40  0  0  1  0  0  0  0  0999 V2000
   13.7774  -18.4031   18.2843 C   0  0  0  0  0  0  0  0  0  0  0  0
   12.5650  -18.5343   16.9427 S   0  0  0  0  0  0  0  0  0  0  0  0
   11.0395  -19.3108   17.5596 C   0  0  0  0  0  0  0  0  0  0  0  0
   10.5360  -18.5213   18.7592 C   0  0  0  0  0  0  0  0  0  0  0  0
    9.3786  -19.2854   19.3435 C   0  0  2  0  0  0  0  0  0  0  0  0
    8.2820  -19.4046   18.4356 N   0  0  0  0  0  0  0  0  0  0  0  0
    8.9611  -18.7289   20.6674 C   0  0  0  0  0  0  0  0  0  0  0  0
    8.1729  -17.7624   20.7486 O   0  0  0  0  0  0  0  0  0  0  0  0
    9.4348  -19.2657   21.8944 N   0  0  0  0  0  0  0  0  0  0  0  0
    9.1495  -18.6670   23.1972 C   0  0  1  0  0  0  0  0  0  0  0  0
    9.0689  -19.8406   24.1505 C   0  0  0  0  0  0  0  0  0  0  0  0
    8.6656  -19.3829   25.5045 C   0  0  0  0  0  0  0  0  0  0  0  0
    7.3843  -19.1128   25.9323 C   0  0  0  0  0  0  0  0  0  0  0  0
    7.4119  -18.7194   27.2198 N   0  0  0  0  0  0  0  0  0  0  0  0
    8.6993  -18.7251   27.6526 C   0  0  0  0  0  0  0  0  0  0  0  0
    9.2637  -18.4115   28.8700 C   0  0  0  0  0  0  0  0  0  0  0  0
   10.6173  -18.5078   29.0330 C   0  0  0  0  0  0  0  0  0  0  0  0
   11.4090  -18.9180   27.9783 C   0  0  0  0  0  0  0  0  0  0  0  0
   10.8628  -19.2356   26.7544 C   0  0  0  0  0  0  0  0  0  0  0  0
    9.4878  -19.1342   26.6006 C   0  0  0  0  0  0  0  0  0  0  0  0
   10.0632  -17.6197   23.5870 C   0  0  0  0  0  0  0  0  0  0  0  0
   11.2989  -17.8346   23.6892 O   0  0  0  0  0  0  0  0  0  0  0  0
    9.5895  -16.3194   23.8651 N   0  0  0  0  0  0  0  0  0  0  0  0
   10.3310  -15.4656   24.8158 C   0  0  1  0  0  0  0  0  0  0  0  0
    9.4653  -15.3825   26.0425 C   0  0  0  0  0  0  0  0  0  0  0  0
    8.1198  -14.8183   25.8463 C   0  0  0  0  0  0  0  0  0  0  0  0
    6.9381  -15.5096   25.5674 C   0  0  0  0  0  0  0  0  0  0  0  0
    5.9476  -14.6206   25.4322 N   0  0  0  0  0  0  0  0  0  0  0  0
    6.4064  -13.3730   25.6071 C   0  0  0  0  0  0  0  0  0  0  0  0
    5.8081  -12.1255   25.5881 C   0  0  0  0  0  0  0  0  0  0  0  0
    6.5874  -11.0242   25.8317 C   0  0  0  0  0  0  0  0  0  0  0  0
    7.9342  -11.1113   26.0929 C   0  0  0  0  0  0  0  0  0  0  0  0
    8.5244  -12.3493   26.1102 C   0  0  0  0  0  0  0  0  0  0  0  0
    7.7745  -13.4790   25.8693 C   0  0  0  0  0  0  0  0  0  0  0  0
   11.6923  -15.9267   25.0041 C   0  0  0  0  0  0  0  0  0  0  0  0
   12.0269  -17.1180   24.6840 O   0  0  0  0  0  0  0  0  0  0  0  0
   12.7053  -15.1439   25.5211 O   0  0  0  0  0  0  0  0  0  0  0  0
  1  2  1  0
  3  2  1  0
  4  3  1  0
  5  4  1  0
  5  6  1  6
  7  5  1  0
  8  7  2  0
  9  7  1  0
 10 21  1  0
 10  9  1  0
 10 11  1  1
 12 13  2  0
 12 11  1  0
 14 13  1  0
 15 20  2  0
 15 14  1  0
 16 15  1  0
 17 18  1  0
 17 16  2  0
 18 19  2  0
 19 20  1  0
 20 12  1  0
 21 22  2  0
 23 24  1  0
 23 21  1  0
 24 25  1  1
 25 26  1  0
 26 27  2  0
 27 28  1  0
 29 30  2  0
 29 28  1  0
 31 30  1  0
 32 31  2  0
 33 32  1  0
 33 34  2  0
 34 26  1  0
 34 29  1  0
 35 37  1  0
 35 24  1  0
 36 35  2  0
M  END
$$$$
