MWW.pdb
     RDKit          3D

 37 40  0  0  1  0  0  0  0  0999 V2000
   79.4554   -0.1092    8.5183 C   0  0  0  0  0  0  0  0  0  0  0  0
   80.8808    0.5421    9.4299 S   0  0  0  0  0  0  0  0  0  0  0  0
   81.0334   -0.3080   11.0314 C   0  0  0  0  0  0  0  0  0  0  0  0
   80.4160   -1.6940   10.9135 C   0  0  0  0  0  0  0  0  0  0  0  0
   79.4364   -1.8449   12.0459 C   0  0  2  0  0  0  0  0  0  0  0  0
   78.3509   -0.9198   11.9629 N   0  0  0  0  0  0  0  0  0  0  0  0
   80.1186   -1.8010   13.3761 C   0  0  0  0  0  0  0  0  0  0  0  0
   81.1672   -1.1435   13.5492 O   0  0  0  0  0  0  0  0  0  0  0  0
   79.6143   -2.4994   14.5057 N   0  0  0  0  0  0  0  0  0  0  0  0
   80.1710   -2.3616   15.8504 C   0  0  1  0  0  0  0  0  0  0  0  0
   81.6232   -1.9940   15.6296 C   0  0  0  0  0  0  0  0  0  0  0  0
   82.2571   -1.5905   16.9106 C   0  0  0  0  0  0  0  0  0  0  0  0
   82.4616   -2.3902   18.0134 C   0  0  0  0  0  0  0  0  0  0  0  0
   83.0607   -1.6753   18.9845 N   0  0  0  0  0  0  0  0  0  0  0  0
   83.2568   -0.4076   18.5384 C   0  0  0  0  0  0  0  0  0  0  0  0
   83.8213    0.7011   19.1310 C   0  0  0  0  0  0  0  0  0  0  0  0
   83.8917    1.8768   18.4375 C   0  0  0  0  0  0  0  0  0  0  0  0
   83.3974    1.9456   17.1497 C   0  0  0  0  0  0  0  0  0  0  0  0
   82.8299    0.8481   16.5411 C   0  0  0  0  0  0  0  0  0  0  0  0
   82.7639   -0.3398   17.2545 C   0  0  0  0  0  0  0  0  0  0  0  0
   79.4351   -1.4690   16.7138 C   0  0  0  0  0  0  0  0  0  0  0  0
   79.7999   -1.2578   17.8995 O   0  0  0  0  0  0  0  0  0  0  0  0
   78.2799   -0.8064   16.2457 N   0  0  0  0  0  0  0  0  0  0  0  0
   78.1229    0.6410   16.4964 C   0  0  1  0  0  0  0  0  0  0  0  0
   76.6725    0.8348   16.8428 C   0  0  0  0  0  0  0  0  0  0  0  0
   75.9256   -0.3826   17.1995 C   0  0  0  0  0  0  0  0  0  0  0  0
   76.4415   -1.6572   17.4475 C   0  0  0  0  0  0  0  0  0  0  0  0
   75.4228   -2.4850   17.7057 N   0  0  0  0  0  0  0  0  0  0  0  0
   74.2550   -1.8295   17.6438 C   0  0  0  0  0  0  0  0  0  0  0  0
   72.9380   -2.2071   17.8379 C   0  0  0  0  0  0  0  0  0  0  0  0
   71.9604   -1.2542   17.7114 C   0  0  0  0  0  0  0  0  0  0  0  0
   72.2372    0.0559   17.4007 C   0  0  0  0  0  0  0  0  0  0  0  0
   73.5435    0.4268   17.2082 C   0  0  0  0  0  0  0  0  0  0  0  0
   74.5532   -0.5023   17.3258 C   0  0  0  0  0  0  0  0  0  0  0  0
   79.0963    1.1302   17.4525 C   0  0  0  0  0  0  0  0  0  0  0  0
   79.4708    2.3520   17.4339 O   0  0  0  0  0  0  0  0  0  0  0  0
   79.6750    0.3464   18.4308 O   0  0  0  0  0  0  0  0  0  0  0  0
  1  2  1  0
  3  2  1  0
  4  3  1  0
  5  4  1  0
  5  6  1  1
  7  5  1  0
  8  7  2  0
  9  7  1  0
 10 21  1  0
 10  9  1  0
 10 11  1  6
 12 13  2  0
 12 11  1  0
 14 13  1  0
 15 20  2  0
 15 14  1  0
 16 15  1  0
 17 18  1  0
 17 16  2  0
 18 19  2  0
 19 20  1  0
 20 12  1  0
 21 22  2  0
 23 24  1  0
 23 21  1  0
 24 25  1  1
 25 26  1  0
 26 27  2  0
 27 28  1  0
 29 30  2  0
 29 28  1  0
 31 30  1  0
 32 31  2  0
 33 32  1  0
 33 34  2  0
 34 26  1  0
 34 29  1  0
 35 37  1  0
 35 24  1  0
 36 35  2  0
M  END
$$$$
