MWW.pdb
     RDKit          3D

 37 40  0  0  1  0  0  0  0  0999 V2000
    6.6339  -12.6676   17.0577 C   0  0  0  0  0  0  0  0  0  0  0  0
    7.5008  -13.7078   15.8522 S   0  0  0  0  0  0  0  0  0  0  0  0
    8.2068  -15.1639   16.6841 C   0  0  0  0  0  0  0  0  0  0  0  0
    9.0825  -14.6953   17.8371 C   0  0  0  0  0  0  0  0  0  0  0  0
    9.5332  -15.9219   18.5835 C   0  0  2  0  0  0  0  0  0  0  0  0
    8.8063  -17.0934   18.2087 N   0  0  0  0  0  0  0  0  0  0  0  0
    9.5297  -15.7011   20.0626 C   0  0  0  0  0  0  0  0  0  0  0  0
   10.2448  -14.8235   20.5921 O   0  0  0  0  0  0  0  0  0  0  0  0
    8.7186  -16.4715   20.9383 N   0  0  0  0  0  0  0  0  0  0  0  0
    8.7104  -16.2957   22.3896 C   0  0  1  0  0  0  0  0  0  0  0  0
    7.2555  -16.4337   22.7854 C   0  0  0  0  0  0  0  0  0  0  0  0
    7.0338  -15.8849   24.1476 C   0  0  0  0  0  0  0  0  0  0  0  0
    6.6077  -16.5841   25.2553 C   0  0  0  0  0  0  0  0  0  0  0  0
    6.5209  -15.7507   26.3093 N   0  0  0  0  0  0  0  0  0  0  0  0
    6.8852  -14.5036   25.9134 C   0  0  0  0  0  0  0  0  0  0  0  0
    6.9693  -13.3083   26.5939 C   0  0  0  0  0  0  0  0  0  0  0  0
    7.3742  -12.1815   25.9347 C   0  0  0  0  0  0  0  0  0  0  0  0
    7.6959  -12.2484   24.5933 C   0  0  0  0  0  0  0  0  0  0  0  0
    7.6180  -13.4340   23.8966 C   0  0  0  0  0  0  0  0  0  0  0  0
    7.2059  -14.5711   24.5760 C   0  0  0  0  0  0  0  0  0  0  0  0
    9.6256  -17.1556   23.1013 C   0  0  0  0  0  0  0  0  0  0  0  0
    9.9949  -18.2583   22.6203 O   0  0  0  0  0  0  0  0  0  0  0  0
   10.1325  -16.7779   24.3634 N   0  0  0  0  0  0  0  0  0  0  0  0
   11.5541  -17.0282   24.6782 C   0  0  1  0  0  0  0  0  0  0  0  0
   11.8993  -16.0625   25.7778 C   0  0  0  0  0  0  0  0  0  0  0  0
   11.2768  -16.3240   27.0859 C   0  0  0  0  0  0  0  0  0  0  0  0
   11.2630  -17.5258   27.7983 C   0  0  0  0  0  0  0  0  0  0  0  0
   10.5639  -17.3442   28.9244 N   0  0  0  0  0  0  0  0  0  0  0  0
   10.1114  -16.0845   29.0008 C   0  0  0  0  0  0  0  0  0  0  0  0
    9.3690  -15.3932   29.9419 C   0  0  0  0  0  0  0  0  0  0  0  0
    9.0896  -14.0712   29.7100 C   0  0  0  0  0  0  0  0  0  0  0  0
    9.5167  -13.4091   28.5836 C   0  0  0  0  0  0  0  0  0  0  0  0
   10.2517  -14.0973   27.6523 C   0  0  0  0  0  0  0  0  0  0  0  0
   10.5519  -15.4268   27.8496 C   0  0  0  0  0  0  0  0  0  0  0  0
   11.8093  -18.4319   24.9343 C   0  0  0  0  0  0  0  0  0  0  0  0
   10.8423  -19.2462   25.1225 O   0  0  0  0  0  0  0  0  0  0  0  0
   13.0723  -18.9870   24.9888 O   0  0  0  0  0  0  0  0  0  0  0  0
  1  2  1  0
  3  2  1  0
  4  3  1  0
  5  4  1  0
  5  6  1  1
  7  5  1  0
  8  7  2  0
  9  7  1  0
 10 21  1  0
 10  9  1  0
 10 11  1  1
 12 13  2  0
 12 11  1  0
 14 13  1  0
 15 20  2  0
 15 14  1  0
 16 15  1  0
 17 18  1  0
 17 16  2  0
 18 19  2  0
 19 20  1  0
 20 12  1  0
 21 22  2  0
 23 24  1  0
 23 21  1  0
 24 25  1  1
 25 26  1  0
 26 27  2  0
 27 28  1  0
 29 30  2  0
 29 28  1  0
 31 30  1  0
 32 31  2  0
 33 32  1  0
 33 34  2  0
 34 26  1  0
 34 29  1  0
 35 37  1  0
 35 24  1  0
 36 35  2  0
M  END
$$$$
