MWW.pdb
     RDKit          3D

 37 40  0  0  1  0  0  0  0  0999 V2000
    6.9511  -12.5617   18.1360 C   0  0  0  0  0  0  0  0  0  0  0  0
    7.0819  -14.0823   17.1574 S   0  0  0  0  0  0  0  0  0  0  0  0
    7.7184  -15.4345   18.1952 C   0  0  0  0  0  0  0  0  0  0  0  0
    8.4582  -14.8366   19.3831 C   0  0  0  0  0  0  0  0  0  0  0  0
    8.9298  -15.9814   20.2385 C   0  0  2  0  0  0  0  0  0  0  0  0
    7.9601  -17.0250   20.3463 N   0  0  0  0  0  0  0  0  0  0  0  0
    9.4088  -15.5117   21.5751 C   0  0  0  0  0  0  0  0  0  0  0  0
   10.3451  -14.6907   21.6802 O   0  0  0  0  0  0  0  0  0  0  0  0
    8.8286  -15.9704   22.7880 N   0  0  0  0  0  0  0  0  0  0  0  0
    9.2796  -15.5368   24.1093 C   0  0  1  0  0  0  0  0  0  0  0  0
    8.2963  -16.1626   25.0758 C   0  0  0  0  0  0  0  0  0  0  0  0
    7.1234  -15.2730   25.2719 C   0  0  0  0  0  0  0  0  0  0  0  0
    5.8021  -15.6579   25.3347 C   0  0  0  0  0  0  0  0  0  0  0  0
    5.0246  -14.5740   25.5182 N   0  0  0  0  0  0  0  0  0  0  0  0
    5.8159  -13.4717   25.5781 C   0  0  0  0  0  0  0  0  0  0  0  0
    5.5242  -12.1361   25.7512 C   0  0  0  0  0  0  0  0  0  0  0  0
    6.5379  -11.2195   25.7728 C   0  0  0  0  0  0  0  0  0  0  0  0
    7.8454  -11.6374   25.6213 C   0  0  0  0  0  0  0  0  0  0  0  0
    8.1562  -12.9679   25.4473 C   0  0  0  0  0  0  0  0  0  0  0  0
    7.1192  -13.8891   25.4271 C   0  0  0  0  0  0  0  0  0  0  0  0
   10.6703  -15.8077   24.3852 C   0  0  0  0  0  0  0  0  0  0  0  0
   11.5146  -14.8779   24.4637 O   0  0  0  0  0  0  0  0  0  0  0  0
   11.1204  -17.1321   24.5753 N   0  0  0  0  0  0  0  0  0  0  0  0
   12.5028  -17.3681   25.0400 C   0  0  1  0  0  0  0  0  0  0  0  0
   12.3779  -18.2800   26.2290 C   0  0  0  0  0  0  0  0  0  0  0  0
   11.3830  -17.8889   27.2411 C   0  0  0  0  0  0  0  0  0  0  0  0
   10.2791  -18.6243   27.6799 C   0  0  0  0  0  0  0  0  0  0  0  0
    9.6148  -17.8952   28.5837 N   0  0  0  0  0  0  0  0  0  0  0  0
   10.2181  -16.7126   28.7713 C   0  0  0  0  0  0  0  0  0  0  0  0
    9.9538  -15.6259   29.5860 C   0  0  0  0  0  0  0  0  0  0  0  0
   10.8082  -14.5546   29.5425 C   0  0  0  0  0  0  0  0  0  0  0  0
   11.9123  -14.5188   28.7243 C   0  0  0  0  0  0  0  0  0  0  0  0
   12.1710  -15.5973   27.9174 C   0  0  0  0  0  0  0  0  0  0  0  0
   11.3352  -16.6917   27.9327 C   0  0  0  0  0  0  0  0  0  0  0  0
   13.3646  -17.8109   23.9618 C   0  0  0  0  0  0  0  0  0  0  0  0
   12.8741  -18.1360   22.8273 O   0  0  0  0  0  0  0  0  0  0  0  0
   14.7378  -17.9095   24.0654 O   0  0  0  0  0  0  0  0  0  0  0  0
  1  2  1  0
  3  2  1  0
  4  3  1  0
  5  4  1  0
  5  6  1  1
  7  5  1  0
  8  7  2  0
  9  7  1  0
 10 21  1  0
 10  9  1  0
 10 11  1  1
 12 13  2  0
 12 11  1  0
 14 13  1  0
 15 20  2  0
 15 14  1  0
 16 15  1  0
 17 18  1  0
 17 16  2  0
 18 19  2  0
 19 20  1  0
 20 12  1  0
 21 22  2  0
 23 24  1  0
 23 21  1  0
 24 25  1  1
 25 26  1  0
 26 27  2  0
 27 28  1  0
 29 30  2  0
 29 28  1  0
 31 30  1  0
 32 31  2  0
 33 32  1  0
 33 34  2  0
 34 26  1  0
 34 29  1  0
 35 37  1  0
 35 24  1  0
 36 35  2  0
M  END
$$$$
