MWW.pdb
     RDKit          3D

 37 40  0  0  1  0  0  0  0  0999 V2000
    7.9477  -11.6621   18.4832 C   0  0  0  0  0  0  0  0  0  0  0  0
    7.2555  -13.0379   17.5267 S   0  0  0  0  0  0  0  0  0  0  0  0
    7.9047  -14.6176   18.1542 C   0  0  0  0  0  0  0  0  0  0  0  0
    8.3522  -14.4275   19.5963 C   0  0  0  0  0  0  0  0  0  0  0  0
    8.9844  -15.7183   20.0421 C   0  0  2  0  0  0  0  0  0  0  0  0
    8.1214  -16.8436   19.8688 N   0  0  0  0  0  0  0  0  0  0  0  0
    9.5160  -15.6205   21.4365 C   0  0  0  0  0  0  0  0  0  0  0  0
   10.3421  -14.7398   21.7587 O   0  0  0  0  0  0  0  0  0  0  0  0
    9.1127  -16.5171   22.4620 N   0  0  0  0  0  0  0  0  0  0  0  0
    9.5430  -16.3928   23.8536 C   0  0  1  0  0  0  0  0  0  0  0  0
    8.4690  -17.0999   24.6530 C   0  0  0  0  0  0  0  0  0  0  0  0
    7.3426  -16.1756   24.9406 C   0  0  0  0  0  0  0  0  0  0  0  0
    6.0145  -16.5160   25.0739 C   0  0  0  0  0  0  0  0  0  0  0  0
    5.2889  -15.4110   25.3297 N   0  0  0  0  0  0  0  0  0  0  0  0
    6.1215  -14.3386   25.3677 C   0  0  0  0  0  0  0  0  0  0  0  0
    5.8890  -12.9986   25.5896 C   0  0  0  0  0  0  0  0  0  0  0  0
    6.9346  -12.1185   25.5716 C   0  0  0  0  0  0  0  0  0  0  0  0
    8.2149  -12.5773   25.3315 C   0  0  0  0  0  0  0  0  0  0  0  0
    8.4666  -13.9128   25.1077 C   0  0  0  0  0  0  0  0  0  0  0  0
    7.3977  -14.7969   25.1284 C   0  0  0  0  0  0  0  0  0  0  0  0
   10.8920  -16.8411   24.1047 C   0  0  0  0  0  0  0  0  0  0  0  0
   11.7080  -17.0184   23.1632 O   0  0  0  0  0  0  0  0  0  0  0  0
   11.3319  -17.0934   25.4220 N   0  0  0  0  0  0  0  0  0  0  0  0
   12.7056  -17.5896   25.6450 C   0  0  1  0  0  0  0  0  0  0  0  0
   12.9441  -17.4639   27.1243 C   0  0  0  0  0  0  0  0  0  0  0  0
   11.7885  -17.0384   27.9309 C   0  0  0  0  0  0  0  0  0  0  0  0
   10.8694  -17.8517   28.5987 C   0  0  0  0  0  0  0  0  0  0  0  0
    9.9570  -17.0688   29.1854 N   0  0  0  0  0  0  0  0  0  0  0  0
   10.2196  -15.7763   28.9447 C   0  0  0  0  0  0  0  0  0  0  0  0
    9.6102  -14.5929   29.3227 C   0  0  0  0  0  0  0  0  0  0  0  0
   10.1654  -13.4108   28.9056 C   0  0  0  0  0  0  0  0  0  0  0  0
   11.2989  -13.3563   28.1299 C   0  0  0  0  0  0  0  0  0  0  0  0
   11.9001  -14.5311   27.7563 C   0  0  0  0  0  0  0  0  0  0  0  0
   11.3715  -15.7386   28.1551 C   0  0  0  0  0  0  0  0  0  0  0  0
   12.9064  -18.8995   25.0575 C   0  0  0  0  0  0  0  0  0  0  0  0
   14.0852  -19.3593   24.8781 O   0  0  0  0  0  0  0  0  0  0  0  0
   11.8778  -19.7313   24.6622 O   0  0  0  0  0  0  0  0  0  0  0  0
  1  2  1  0
  3  2  1  0
  4  3  1  0
  5  4  1  0
  5  6  1  1
  7  5  1  0
  8  7  2  0
  9  7  1  0
 10 21  1  0
 10  9  1  0
 10 11  1  1
 12 13  2  0
 12 11  1  0
 14 13  1  0
 15 20  2  0
 15 14  1  0
 16 15  1  0
 17 18  1  0
 17 16  2  0
 18 19  2  0
 19 20  1  0
 20 12  1  0
 21 22  2  0
 23 24  1  0
 23 21  1  0
 24 25  1  1
 25 26  1  0
 26 27  2  0
 27 28  1  0
 29 30  2  0
 29 28  1  0
 31 30  1  0
 32 31  2  0
 33 32  1  0
 33 34  2  0
 34 26  1  0
 34 29  1  0
 35 37  1  0
 35 24  1  0
 36 35  2  0
M  END
$$$$
