MWW.pdb
     RDKit          3D

 37 40  0  0  1  0  0  0  0  0999 V2000
    7.1902  -11.7742   20.0669 C   0  0  0  0  0  0  0  0  0  0  0  0
    7.4543  -12.7869   18.5865 S   0  0  0  0  0  0  0  0  0  0  0  0
    7.9526  -14.4695   19.0673 C   0  0  0  0  0  0  0  0  0  0  0  0
    8.4969  -14.4343   20.4880 C   0  0  0  0  0  0  0  0  0  0  0  0
    9.0155  -15.8117   20.8024 C   0  0  2  0  0  0  0  0  0  0  0  0
    8.0821  -16.8411   20.4709 N   0  0  0  0  0  0  0  0  0  0  0  0
    9.4934  -15.9128   22.2159 C   0  0  0  0  0  0  0  0  0  0  0  0
   10.3047  -15.0888   22.6900 O   0  0  0  0  0  0  0  0  0  0  0  0
    9.0533  -16.9435   23.0889 N   0  0  0  0  0  0  0  0  0  0  0  0
    9.3592  -16.9716   24.5181 C   0  0  1  0  0  0  0  0  0  0  0  0
    8.0146  -17.1289   25.1963 C   0  0  0  0  0  0  0  0  0  0  0  0
    7.1209  -15.9956   24.8462 C   0  0  0  0  0  0  0  0  0  0  0  0
    5.9808  -16.0566   24.0754 C   0  0  0  0  0  0  0  0  0  0  0  0
    5.4375  -14.8287   23.9752 N   0  0  0  0  0  0  0  0  0  0  0  0
    6.2052  -13.9513   24.6719 C   0  0  0  0  0  0  0  0  0  0  0  0
    6.0918  -12.5946   24.8852 C   0  0  0  0  0  0  0  0  0  0  0  0
    7.0268  -11.9486   25.6444 C   0  0  0  0  0  0  0  0  0  0  0  0
    8.0773  -12.6586   26.1918 C   0  0  0  0  0  0  0  0  0  0  0  0
    8.2072  -14.0148   25.9896 C   0  0  0  0  0  0  0  0  0  0  0  0
    7.2522  -14.6599   25.2174 C   0  0  0  0  0  0  0  0  0  0  0  0
   10.3566  -17.9438   24.8972 C   0  0  0  0  0  0  0  0  0  0  0  0
   10.1205  -18.8149   25.7741 O   0  0  0  0  0  0  0  0  0  0  0  0
   11.6304  -17.9412   24.2889 N   0  0  0  0  0  0  0  0  0  0  0  0
   12.8381  -18.0307   25.1352 C   0  0  1  0  0  0  0  0  0  0  0  0
   12.8816  -16.7441   25.9123 C   0  0  0  0  0  0  0  0  0  0  0  0
   12.3192  -16.7914   27.2718 C   0  0  0  0  0  0  0  0  0  0  0  0
   12.3384  -17.8654   28.1653 C   0  0  0  0  0  0  0  0  0  0  0  0
   11.6909  -17.5035   29.2787 N   0  0  0  0  0  0  0  0  0  0  0  0
   11.2416  -16.2446   29.1750 C   0  0  0  0  0  0  0  0  0  0  0  0
   10.5422  -15.4084   30.0272 C   0  0  0  0  0  0  0  0  0  0  0  0
   10.2518  -14.1379   29.6019 C   0  0  0  0  0  0  0  0  0  0  0  0
   10.6271  -13.6649   28.3670 C   0  0  0  0  0  0  0  0  0  0  0  0
   11.3195  -14.4965   27.5242 C   0  0  0  0  0  0  0  0  0  0  0  0
   11.6291  -15.7800   27.9158 C   0  0  0  0  0  0  0  0  0  0  0  0
   12.8680  -19.2607   25.9015 C   0  0  0  0  0  0  0  0  0  0  0  0
   11.7966  -19.9268   26.1067 O   0  0  0  0  0  0  0  0  0  0  0  0
   14.0156  -19.7985   26.4490 O   0  0  0  0  0  0  0  0  0  0  0  0
  1  2  1  0
  3  2  1  0
  4  3  1  0
  5  4  1  0
  5  6  1  1
  7  5  1  0
  8  7  2  0
  9  7  1  0
 10 21  1  0
 10  9  1  0
 10 11  1  1
 12 13  2  0
 12 11  1  0
 14 13  1  0
 15 20  2  0
 15 14  1  0
 16 15  1  0
 17 18  1  0
 17 16  2  0
 18 19  2  0
 19 20  1  0
 20 12  1  0
 21 22  2  0
 23 24  1  0
 23 21  1  0
 24 25  1  1
 25 26  1  0
 26 27  2  0
 27 28  1  0
 29 30  2  0
 29 28  1  0
 31 30  1  0
 32 31  2  0
 33 32  1  0
 33 34  2  0
 34 26  1  0
 34 29  1  0
 35 37  1  0
 35 24  1  0
 36 35  2  0
M  END
$$$$
