MWW.pdb
     RDKit          3D

 37 40  0  0  1  0  0  0  0  0999 V2000
    7.4349  -11.8981   18.9329 C   0  0  0  0  0  0  0  0  0  0  0  0
    7.1885  -13.1397   17.6350 S   0  0  0  0  0  0  0  0  0  0  0  0
    7.9593  -14.7126   18.1275 C   0  0  0  0  0  0  0  0  0  0  0  0
    8.4008  -14.6104   19.5803 C   0  0  0  0  0  0  0  0  0  0  0  0
    9.0019  -15.9370   19.9593 C   0  0  2  0  0  0  0  0  0  0  0  0
    8.1149  -17.0318   19.7232 N   0  0  0  0  0  0  0  0  0  0  0  0
    9.5286  -15.9253   21.3589 C   0  0  0  0  0  0  0  0  0  0  0  0
   10.4330  -15.1367   21.7082 O   0  0  0  0  0  0  0  0  0  0  0  0
    9.0321  -16.8037   22.3590 N   0  0  0  0  0  0  0  0  0  0  0  0
    9.4182  -16.7197   23.7665 C   0  0  1  0  0  0  0  0  0  0  0  0
    8.2469  -17.3106   24.5225 C   0  0  0  0  0  0  0  0  0  0  0  0
    7.3250  -16.2370   24.9731 C   0  0  0  0  0  0  0  0  0  0  0  0
    6.0468  -16.4026   25.4593 C   0  0  0  0  0  0  0  0  0  0  0  0
    5.5202  -15.2012   25.7629 N   0  0  0  0  0  0  0  0  0  0  0  0
    6.4359  -14.2377   25.4834 C   0  0  0  0  0  0  0  0  0  0  0  0
    6.3984  -12.8660   25.6101 C   0  0  0  0  0  0  0  0  0  0  0  0
    7.4862  -12.1231   25.2457 C   0  0  0  0  0  0  0  0  0  0  0  0
    8.6136  -12.7509   24.7538 C   0  0  0  0  0  0  0  0  0  0  0  0
    8.6695  -14.1206   24.6202 C   0  0  0  0  0  0  0  0  0  0  0  0
    7.5596  -14.8645   24.9932 C   0  0  0  0  0  0  0  0  0  0  0  0
   10.7033  -17.3030   24.0698 C   0  0  0  0  0  0  0  0  0  0  0  0
   11.2371  -18.1447   23.3016 O   0  0  0  0  0  0  0  0  0  0  0  0
   11.3977  -16.9407   25.2442 N   0  0  0  0  0  0  0  0  0  0  0  0
   12.6147  -17.6863   25.6259 C   0  0  1  0  0  0  0  0  0  0  0  0
   13.2338  -16.8996   26.7479 C   0  0  0  0  0  0  0  0  0  0  0  0
   12.3684  -16.6430   27.9109 C   0  0  0  0  0  0  0  0  0  0  0  0
   12.1861  -17.4548   29.0333 C   0  0  0  0  0  0  0  0  0  0  0  0
   11.2927  -16.8706   29.8396 N   0  0  0  0  0  0  0  0  0  0  0  0
   10.8702  -15.7116   29.3144 C   0  0  0  0  0  0  0  0  0  0  0  0
    9.9837  -14.7384   29.7406 C   0  0  0  0  0  0  0  0  0  0  0  0
    9.7911  -13.6380   28.9460 C   0  0  0  0  0  0  0  0  0  0  0  0
   10.4417  -13.4652   27.7475 C   0  0  0  0  0  0  0  0  0  0  0  0
   11.3192  -14.4320   27.3274 C   0  0  0  0  0  0  0  0  0  0  0  0
   11.5385  -15.5521   28.0980 C   0  0  0  0  0  0  0  0  0  0  0  0
   12.3304  -19.0841   25.8841 C   0  0  0  0  0  0  0  0  0  0  0  0
   11.1277  -19.4857   26.0438 O   0  0  0  0  0  0  0  0  0  0  0  0
   13.3000  -20.0632   25.9705 O   0  0  0  0  0  0  0  0  0  0  0  0
  1  2  1  0
  3  2  1  0
  4  3  1  0
  5  4  1  0
  5  6  1  1
  7  5  1  0
  8  7  2  0
  9  7  1  0
 10 21  1  0
 10  9  1  0
 10 11  1  1
 12 13  2  0
 12 11  1  0
 14 13  1  0
 15 20  2  0
 15 14  1  0
 16 15  1  0
 17 18  1  0
 17 16  2  0
 18 19  2  0
 19 20  1  0
 20 12  1  0
 21 22  2  0
 23 24  1  0
 23 21  1  0
 24 25  1  1
 25 26  1  0
 26 27  2  0
 27 28  1  0
 29 30  2  0
 29 28  1  0
 31 30  1  0
 32 31  2  0
 33 32  1  0
 33 34  2  0
 34 26  1  0
 34 29  1  0
 35 37  1  0
 35 24  1  0
 36 35  2  0
M  END
$$$$
