MWW.pdb
     RDKit          3D

 37 40  0  0  1  0  0  0  0  0999 V2000
   16.2811  -18.6229   21.0421 C   0  0  0  0  0  0  0  0  0  0  0  0
   15.7279  -19.6689   19.6685 S   0  0  0  0  0  0  0  0  0  0  0  0
   13.9106  -19.6658   19.5799 C   0  0  0  0  0  0  0  0  0  0  0  0
   13.4119  -18.2386   19.7540 C   0  0  0  0  0  0  0  0  0  0  0  0
   11.9111  -18.2977   19.8487 C   0  0  2  0  0  0  0  0  0  0  0  0
   11.2706  -18.0907   18.5886 N   0  0  0  0  0  0  0  0  0  0  0  0
   11.3879  -17.3812   20.9084 C   0  0  0  0  0  0  0  0  0  0  0  0
   11.7371  -16.1825   20.9638 O   0  0  0  0  0  0  0  0  0  0  0  0
   10.4723  -17.8214   21.9014 N   0  0  0  0  0  0  0  0  0  0  0  0
    9.8508  -16.9258   22.8754 C   0  0  1  0  0  0  0  0  0  0  0  0
    8.3647  -17.1827   22.7407 C   0  0  0  0  0  0  0  0  0  0  0  0
    7.7880  -16.3405   21.6619 C   0  0  0  0  0  0  0  0  0  0  0  0
    7.1511  -16.7855   20.5244 C   0  0  0  0  0  0  0  0  0  0  0  0
    6.7669  -15.7311   19.7804 N   0  0  0  0  0  0  0  0  0  0  0  0
    7.1421  -14.5887   20.4120 C   0  0  0  0  0  0  0  0  0  0  0  0
    6.9910  -13.2598   20.0802 C   0  0  0  0  0  0  0  0  0  0  0  0
    7.4750  -12.2941   20.9177 C   0  0  0  0  0  0  0  0  0  0  0  0
    8.1111  -12.6561   22.0889 C   0  0  0  0  0  0  0  0  0  0  0  0
    8.2714  -13.9790   22.4372 C   0  0  0  0  0  0  0  0  0  0  0  0
    7.7761  -14.9504   21.5795 C   0  0  0  0  0  0  0  0  0  0  0  0
   10.3760  -17.0421   24.2150 C   0  0  0  0  0  0  0  0  0  0  0  0
   10.7976  -18.1416   24.6588 O   0  0  0  0  0  0  0  0  0  0  0  0
   10.4300  -15.9172   25.0659 N   0  0  0  0  0  0  0  0  0  0  0  0
   10.5487  -16.1169   26.5249 C   0  0  1  0  0  0  0  0  0  0  0  0
    9.9033  -14.9114   27.1504 C   0  0  0  0  0  0  0  0  0  0  0  0
    8.5116  -14.6442   26.7519 C   0  0  0  0  0  0  0  0  0  0  0  0
    7.5251  -15.5773   26.4229 C   0  0  0  0  0  0  0  0  0  0  0  0
    6.4106  -14.9173   26.0883 N   0  0  0  0  0  0  0  0  0  0  0  0
    6.6017  -13.5932   26.1776 C   0  0  0  0  0  0  0  0  0  0  0  0
    5.7875  -12.4955   25.9617 C   0  0  0  0  0  0  0  0  0  0  0  0
    6.3096  -11.2449   26.1689 C   0  0  0  0  0  0  0  0  0  0  0  0
    7.6050  -11.0406   26.5810 C   0  0  0  0  0  0  0  0  0  0  0  0
    8.4097  -12.1307   26.7933 C   0  0  0  0  0  0  0  0  0  0  0  0
    7.9213  -13.4030   26.5950 C   0  0  0  0  0  0  0  0  0  0  0  0
   10.0476  -17.4145   26.9328 C   0  0  0  0  0  0  0  0  0  0  0  0
   10.4726  -17.9704   28.0023 O   0  0  0  0  0  0  0  0  0  0  0  0
    9.0999  -18.1296   26.2280 O   0  0  0  0  0  0  0  0  0  0  0  0
  1  2  1  0
  3  2  1  0
  4  3  1  0
  5  4  1  0
  5  6  1  6
  7  5  1  0
  8  7  2  0
  9  7  1  0
 10 21  1  0
 10  9  1  0
 10 11  1  1
 12 13  2  0
 12 11  1  0
 14 13  1  0
 15 20  2  0
 15 14  1  0
 16 15  1  0
 17 18  1  0
 17 16  2  0
 18 19  2  0
 19 20  1  0
 20 12  1  0
 21 22  2  0
 23 24  1  0
 23 21  1  0
 24 25  1  1
 25 26  1  0
 26 27  2  0
 27 28  1  0
 29 30  2  0
 29 28  1  0
 31 30  1  0
 32 31  2  0
 33 32  1  0
 33 34  2  0
 34 26  1  0
 34 29  1  0
 35 37  1  0
 35 24  1  0
 36 35  2  0
M  END
$$$$
