RHC.pdb
     RDKit          3D

 28 28  0  0  1  0  0  0  0  0999 V2000
    7.1955  -14.9720   14.4579 N   0  0  0  0  0  0  0  0  0  0  0  0
    7.9155  -13.7594   14.5887 C   0  0  0  0  0  0  0  0  0  0  0  0
    8.2917  -13.1354   13.5036 N   0  0  0  0  0  0  0  0  0  0  0  0
    8.2545  -13.1762   15.8165 N   0  0  0  0  0  0  0  0  0  0  0  0
    8.3142  -13.9252   17.0515 C   0  0  0  0  0  0  0  0  0  0  0  0
    8.7150  -15.3708   16.8008 C   0  0  0  0  0  0  0  0  0  0  0  0
   10.0341  -15.7684   17.3153 C   0  0  0  0  0  0  0  0  0  0  0  0
   10.2088  -15.8291   18.8001 C   0  0  2  0  0  0  0  0  0  0  0  0
    9.5642  -14.8060   19.5482 N   0  0  0  0  0  0  0  0  0  0  0  0
   11.6393  -15.9277   19.1870 C   0  0  0  0  0  0  0  0  0  0  0  0
   12.3704  -16.7668   18.5561 O   0  0  0  0  0  0  0  0  0  0  0  0
    7.9466  -13.4089   12.5772 N   0  0  0  0  0  0  0  0  0  0  0  0
   12.2110  -15.1413   20.2173 C   0  0  1  0  0  0  0  0  0  0  0  0
   13.6476  -15.3780   20.4719 C   0  0  0  0  0  0  0  0  0  0  0  0
   14.3536  -14.1456   20.0546 C   0  0  0  0  0  0  0  0  0  0  0  0
   15.1354  -14.2092   18.8169 C   0  0  0  0  0  0  0  0  0  0  0  0
   15.3633  -15.1964   17.9226 N   0  0  0  0  0  0  0  0  0  0  0  0
   16.1189  -14.6945   16.9354 C   0  0  0  0  0  0  0  0  0  0  0  0
   16.3558  -13.4093   17.2118 N   0  0  0  0  0  0  0  0  0  0  0  0
   15.7704  -13.0895   18.3448 C   0  0  0  0  0  0  0  0  0  0  0  0
   13.7607  -15.5275   21.9765 O   0  0  0  0  0  0  0  0  0  0  0  0
   13.1438  -14.7323   22.6875 N   0  0  0  0  0  0  0  0  0  0  0  0
   14.5520  -16.5437   22.5468 C   0  0  1  0  0  0  0  0  0  0  0  0
   14.7633  -16.9229   23.8933 C   0  0  0  0  0  0  0  0  0  0  0  0
   13.9307  -18.0172   24.5247 S   0  0  0  0  0  0  0  0  0  0  0  0
   12.1662  -17.5568   24.4936 C   0  0  0  0  0  0  0  0  0  0  0  0
   16.2179  -17.2022   24.1276 O   0  0  0  0  0  0  0  0  0  0  0  0
   16.5947  -17.3277   25.2803 O   0  0  0  0  0  0  0  0  0  0  0  0
  2  1  1  0
  2  3  2  0
  4  5  1  0
  4  2  1  0
  6  5  1  0
  7  6  1  0
  8  9  1  1
  8  7  1  0
 10 11  2  0
 10  8  1  0
 12 10  1  0
 13 20  1  0
 13 12  1  0
 13 14  1  6
 15 14  1  0
 16 15  2  0
 17 16  1  0
 18 17  1  0
 18 19  2  0
 19 15  1  0
 20 22  1  0
 21 20  2  0
 22 23  1  0
 23 26  1  0
 23 24  1  1
 25 24  1  0
 26 27  2  0
 26 28  1  0
M  END
$$$$
