RHC.pdb
     RDKit          3D

 28 28  0  0  1  0  0  0  0  0999 V2000
    9.0560  -15.8269   15.0134 N   0  0  0  0  0  0  0  0  0  0  0  0
    8.6414  -14.8352   15.9356 C   0  0  0  0  0  0  0  0  0  0  0  0
    8.6368  -13.5862   15.5507 N   0  0  0  0  0  0  0  0  0  0  0  0
    8.2298  -15.1057   17.2471 N   0  0  0  0  0  0  0  0  0  0  0  0
    8.7027  -14.3557   18.3889 C   0  0  0  0  0  0  0  0  0  0  0  0
    7.5513  -13.6891   19.1259 C   0  0  0  0  0  0  0  0  0  0  0  0
    6.6893  -14.5849   19.9116 C   0  0  0  0  0  0  0  0  0  0  0  0
    7.2806  -15.8749   20.3859 C   0  0  2  0  0  0  0  0  0  0  0  0
    6.9093  -17.0385   19.6578 N   0  0  0  0  0  0  0  0  0  0  0  0
    7.0616  -16.0845   21.8398 C   0  0  0  0  0  0  0  0  0  0  0  0
    5.9428  -16.5845   22.2075 O   0  0  0  0  0  0  0  0  0  0  0  0
    8.4277  -12.8219   16.2022 N   0  0  0  0  0  0  0  0  0  0  0  0
    8.0307  -15.7501   22.8175 C   0  0  2  0  0  0  0  0  0  0  0  0
    7.7068  -16.1651   24.1985 C   0  0  0  0  0  0  0  0  0  0  0  0
    8.3427  -17.4871   24.3967 C   0  0  0  0  0  0  0  0  0  0  0  0
    8.2811  -18.0639   25.7422 C   0  0  0  0  0  0  0  0  0  0  0  0
    7.2578  -18.3232   26.5859 N   0  0  0  0  0  0  0  0  0  0  0  0
    7.7625  -18.9085   27.6815 C   0  0  0  0  0  0  0  0  0  0  0  0
    9.0840  -19.0141   27.5194 N   0  0  0  0  0  0  0  0  0  0  0  0
    9.4241  -18.5116   26.3529 C   0  0  0  0  0  0  0  0  0  0  0  0
    8.3951  -15.1469   25.0866 O   0  0  0  0  0  0  0  0  0  0  0  0
    9.5780  -14.8849   24.8615 N   0  0  0  0  0  0  0  0  0  0  0  0
    7.7042  -14.5208   26.1423 C   0  0  1  0  0  0  0  0  0  0  0  0
    8.1051  -13.5269   27.0659 C   0  0  0  0  0  0  0  0  0  0  0  0
    7.0801  -12.8046   27.9129 S   0  0  0  0  0  0  0  0  0  0  0  0
    5.5350  -12.5818   26.9697 C   0  0  0  0  0  0  0  0  0  0  0  0
    9.2004  -14.0523   27.9451 O   0  0  0  0  0  0  0  0  0  0  0  0
    9.4206  -15.2513   27.9246 O   0  0  0  0  0  0  0  0  0  0  0  0
  2  1  1  0
  2  3  2  0
  4  5  1  0
  4  2  1  0
  6  5  1  0
  7  6  1  0
  8  9  1  6
  8  7  1  0
 10 11  2  0
 10  8  1  0
 12 10  1  0
 13 20  1  0
 13 12  1  0
 13 14  1  6
 15 14  1  0
 16 15  2  0
 17 16  1  0
 18 17  1  0
 18 19  2  0
 19 15  1  0
 20 22  1  0
 21 20  2  0
 22 23  1  0
 23 26  1  0
 23 24  1  1
 25 24  1  0
 26 27  2  0
 26 28  1  0
M  END
$$$$
