RHC.pdb
     RDKit          3D

 28 28  0  0  1  0  0  0  0  0999 V2000
   12.1386  -23.4433   21.7853 N   0  0  0  0  0  0  0  0  0  0  0  0
   11.0965  -23.3196   20.8342 C   0  0  0  0  0  0  0  0  0  0  0  0
   11.0515  -24.1689   19.8417 N   0  0  0  0  0  0  0  0  0  0  0  0
   10.0982  -22.3381   20.8868 N   0  0  0  0  0  0  0  0  0  0  0  0
   10.3078  -20.9803   20.4371 C   0  0  0  0  0  0  0  0  0  0  0  0
   11.3668  -20.2795   21.2741 C   0  0  0  0  0  0  0  0  0  0  0  0
   10.8925  -19.1596   22.1009 C   0  0  0  0  0  0  0  0  0  0  0  0
   10.3589  -17.9539   21.3935 C   0  0  2  0  0  0  0  0  0  0  0  0
   11.0774  -17.5365   20.2395 N   0  0  0  0  0  0  0  0  0  0  0  0
   10.1604  -16.8098   22.3194 C   0  0  0  0  0  0  0  0  0  0  0  0
   11.1270  -15.9837   22.4610 O   0  0  0  0  0  0  0  0  0  0  0  0
   10.3041  -24.1388   19.1398 N   0  0  0  0  0  0  0  0  0  0  0  0
    8.9594  -16.6084   23.0432 C   0  0  2  0  0  0  0  0  0  0  0  0
    8.9340  -15.4096   23.9074 C   0  0  0  0  0  0  0  0  0  0  0  0
    7.5078  -15.0583   24.0914 C   0  0  0  0  0  0  0  0  0  0  0  0
    7.2084  -13.8941   24.9293 C   0  0  0  0  0  0  0  0  0  0  0  0
    7.5582  -12.5911   24.8524 N   0  0  0  0  0  0  0  0  0  0  0  0
    6.9606  -11.9416   25.8616 C   0  0  0  0  0  0  0  0  0  0  0  0
    6.2455  -12.8305   26.5564 N   0  0  0  0  0  0  0  0  0  0  0  0
    6.3769  -14.0202   26.0122 C   0  0  0  0  0  0  0  0  0  0  0  0
    9.5054  -15.8695   25.2344 O   0  0  0  0  0  0  0  0  0  0  0  0
    9.4349  -17.0678   25.5134 N   0  0  0  0  0  0  0  0  0  0  0  0
   10.0963  -14.9532   26.1261 C   0  0  2  0  0  0  0  0  0  0  0  0
   10.7233  -15.1376   27.3808 C   0  0  0  0  0  0  0  0  0  0  0  0
   11.0645  -13.9491   28.2531 S   0  0  0  0  0  0  0  0  0  0  0  0
   10.1273  -12.4831   27.7064 C   0  0  0  0  0  0  0  0  0  0  0  0
    9.9702  -16.1518   28.1889 O   0  0  0  0  0  0  0  0  0  0  0  0
    8.8604  -16.4767   27.8027 O   0  0  0  0  0  0  0  0  0  0  0  0
  2  1  1  0
  2  3  2  0
  4  5  1  0
  4  2  1  0
  6  5  1  0
  7  6  1  0
  8  9  1  6
  8  7  1  0
 10 11  2  0
 10  8  1  0
 12 10  1  0
 13 20  1  0
 13 12  1  0
 13 14  1  6
 15 14  1  0
 16 15  2  0
 17 16  1  0
 18 17  1  0
 18 19  2  0
 19 15  1  0
 20 22  1  0
 21 20  2  0
 22 23  1  0
 23 26  1  0
 23 24  1  6
 25 24  1  0
 26 27  2  0
 26 28  1  0
M  END
$$$$
