RHC.pdb
     RDKit          3D

 28 28  0  0  1  0  0  0  0  0999 V2000
    8.8536  -14.6527   15.6000 N   0  0  0  0  0  0  0  0  0  0  0  0
    8.9112  -14.1134   16.9083 C   0  0  0  0  0  0  0  0  0  0  0  0
    9.9635  -14.3637   17.6420 N   0  0  0  0  0  0  0  0  0  0  0  0
    7.9057  -13.3195   17.4751 N   0  0  0  0  0  0  0  0  0  0  0  0
    8.0031  -12.7598   18.8044 C   0  0  0  0  0  0  0  0  0  0  0  0
    7.3988  -13.6938   19.8416 C   0  0  0  0  0  0  0  0  0  0  0  0
    8.3538  -14.3474   20.7490 C   0  0  0  0  0  0  0  0  0  0  0  0
    8.2695  -15.8347   20.8888 C   0  0  2  0  0  0  0  0  0  0  0  0
    7.0519  -16.4349   20.4653 N   0  0  0  0  0  0  0  0  0  0  0  0
    8.6159  -16.2837   22.2614 C   0  0  0  0  0  0  0  0  0  0  0  0
    7.6592  -16.4377   23.0967 O   0  0  0  0  0  0  0  0  0  0  0  0
   10.0126  -14.0837   18.6277 N   0  0  0  0  0  0  0  0  0  0  0  0
    9.9477  -16.5379   22.6720 C   0  0  2  0  0  0  0  0  0  0  0  0
   10.0941  -17.1194   24.0229 C   0  0  0  0  0  0  0  0  0  0  0  0
   11.3930  -17.8295   24.0326 C   0  0  0  0  0  0  0  0  0  0  0  0
   11.8264  -18.4135   25.3047 C   0  0  0  0  0  0  0  0  0  0  0  0
   12.5506  -17.9315   26.3388 N   0  0  0  0  0  0  0  0  0  0  0  0
   12.6082  -18.8820   27.2827 C   0  0  0  0  0  0  0  0  0  0  0  0
   11.9254  -19.9416   26.8412 N   0  0  0  0  0  0  0  0  0  0  0  0
   11.4404  -19.6839   25.6466 C   0  0  0  0  0  0  0  0  0  0  0  0
   10.1747  -15.9279   24.9572 O   0  0  0  0  0  0  0  0  0  0  0  0
   10.8883  -14.9786   24.6281 N   0  0  0  0  0  0  0  0  0  0  0  0
    9.4581  -15.9073   26.1696 C   0  0  1  0  0  0  0  0  0  0  0  0
    9.3852  -14.9397   27.1991 C   0  0  0  0  0  0  0  0  0  0  0  0
    8.0869  -14.2173   27.4861 S   0  0  0  0  0  0  0  0  0  0  0  0
    8.3797  -12.4196   27.5813 C   0  0  0  0  0  0  0  0  0  0  0  0
    9.9379  -15.5019   28.4746 O   0  0  0  0  0  0  0  0  0  0  0  0
   10.0681  -14.7444   29.4210 O   0  0  0  0  0  0  0  0  0  0  0  0
  2  1  1  0
  2  3  2  0
  4  5  1  0
  4  2  1  0
  6  5  1  0
  7  6  1  0
  8  9  1  1
  8  7  1  0
 10 11  2  0
 10  8  1  0
 12 10  1  0
 13 20  1  0
 13 12  1  0
 13 14  1  6
 15 14  1  0
 16 15  2  0
 17 16  1  0
 18 17  1  0
 18 19  2  0
 19 15  1  0
 20 22  1  0
 21 20  2  0
 22 23  1  0
 23 26  1  0
 23 24  1  1
 25 24  1  0
 26 27  2  0
 26 28  1  0
M  END
$$$$
