RHC.pdb
     RDKit          3D

 28 28  0  0  1  0  0  0  0  0999 V2000
    9.1639  -14.7190   15.7525 N   0  0  0  0  0  0  0  0  0  0  0  0
    8.0937  -13.8414   15.4520 C   0  0  0  0  0  0  0  0  0  0  0  0
    7.7663  -13.6603   14.1996 N   0  0  0  0  0  0  0  0  0  0  0  0
    7.3527  -13.1476   16.4174 N   0  0  0  0  0  0  0  0  0  0  0  0
    7.6155  -13.2542   17.8349 C   0  0  0  0  0  0  0  0  0  0  0  0
    7.5931  -14.7045   18.2923 C   0  0  0  0  0  0  0  0  0  0  0  0
    7.7433  -14.9226   19.7389 C   0  0  0  0  0  0  0  0  0  0  0  0
    8.6287  -13.9812   20.4929 C   0  0  2  0  0  0  0  0  0  0  0  0
    9.8245  -13.5837   19.8340 N   0  0  0  0  0  0  0  0  0  0  0  0
    8.9333  -14.4793   21.8585 C   0  0  0  0  0  0  0  0  0  0  0  0
   10.1631  -14.6360   22.1746 O   0  0  0  0  0  0  0  0  0  0  0  0
    7.0173  -13.0150   13.9260 N   0  0  0  0  0  0  0  0  0  0  0  0
    7.9254  -14.7868   22.8053 C   0  0  1  0  0  0  0  0  0  0  0  0
    8.4121  -15.1618   24.1495 C   0  0  0  0  0  0  0  0  0  0  0  0
    7.2671  -14.9868   25.0714 C   0  0  0  0  0  0  0  0  0  0  0  0
    6.9743  -13.6239   25.5228 C   0  0  0  0  0  0  0  0  0  0  0  0
    7.5403  -12.4257   25.2582 N   0  0  0  0  0  0  0  0  0  0  0  0
    6.8375  -11.4840   25.9038 C   0  0  0  0  0  0  0  0  0  0  0  0
    5.8445  -12.0899   26.5603 N   0  0  0  0  0  0  0  0  0  0  0  0
    5.9035  -13.3857   26.3453 C   0  0  0  0  0  0  0  0  0  0  0  0
    8.7454  -16.6376   24.0493 O   0  0  0  0  0  0  0  0  0  0  0  0
    8.1856  -17.3017   23.1751 N   0  0  0  0  0  0  0  0  0  0  0  0
    9.6653  -17.2349   24.9329 C   0  0  1  0  0  0  0  0  0  0  0  0
   10.7179  -18.1537   24.7104 C   0  0  0  0  0  0  0  0  0  0  0  0
   11.8384  -17.8226   23.7488 S   0  0  0  0  0  0  0  0  0  0  0  0
   12.9635  -19.2488   23.5852 C   0  0  0  0  0  0  0  0  0  0  0  0
   11.2972  -18.6004   26.0194 O   0  0  0  0  0  0  0  0  0  0  0  0
   10.9403  -18.0165   27.0284 O   0  0  0  0  0  0  0  0  0  0  0  0
  2  1  1  0
  2  3  2  0
  4  5  1  0
  4  2  1  0
  6  5  1  0
  7  6  1  0
  8  9  1  6
  8  7  1  0
 10 11  2  0
 10  8  1  0
 12 10  1  0
 13 20  1  0
 13 12  1  0
 13 14  1  1
 15 14  1  0
 16 15  2  0
 17 16  1  0
 18 17  1  0
 18 19  2  0
 19 15  1  0
 20 22  1  0
 21 20  2  0
 22 23  1  0
 23 26  1  0
 23 24  1  1
 25 24  1  0
 26 27  2  0
 26 28  1  0
M  END
$$$$
