RHC.pdb
     RDKit          3D

 28 28  0  0  1  0  0  0  0  0999 V2000
    9.3507  -14.5060   16.7412 N   0  0  0  0  0  0  0  0  0  0  0  0
    8.3076  -13.5810   16.4918 C   0  0  0  0  0  0  0  0  0  0  0  0
    8.0743  -13.2194   15.2577 N   0  0  0  0  0  0  0  0  0  0  0  0
    7.4987  -13.0221   17.4898 N   0  0  0  0  0  0  0  0  0  0  0  0
    7.5121  -13.4820   18.8602 C   0  0  0  0  0  0  0  0  0  0  0  0
    8.2306  -14.8165   18.9870 C   0  0  0  0  0  0  0  0  0  0  0  0
    8.2983  -15.3814   20.3431 C   0  0  0  0  0  0  0  0  0  0  0  0
    7.4102  -16.5449   20.6537 C   0  0  2  0  0  0  0  0  0  0  0  0
    6.2044  -16.6290   19.9048 N   0  0  0  0  0  0  0  0  0  0  0  0
    7.1233  -16.6516   22.1070 C   0  0  0  0  0  0  0  0  0  0  0  0
    5.9824  -16.2461   22.5201 O   0  0  0  0  0  0  0  0  0  0  0  0
    7.3623  -12.5180   15.0267 N   0  0  0  0  0  0  0  0  0  0  0  0
    8.0562  -17.1734   23.0366 C   0  0  2  0  0  0  0  0  0  0  0  0
    7.6193  -17.1590   24.4485 C   0  0  0  0  0  0  0  0  0  0  0  0
    8.0424  -18.4533   25.0292 C   0  0  0  0  0  0  0  0  0  0  0  0
    7.9783  -18.5851   26.4871 C   0  0  0  0  0  0  0  0  0  0  0  0
    7.0264  -18.2822   27.3971 N   0  0  0  0  0  0  0  0  0  0  0  0
    7.4720  -18.6597   28.6040 C   0  0  0  0  0  0  0  0  0  0  0  0
    8.6860  -19.1936   28.4454 N   0  0  0  0  0  0  0  0  0  0  0  0
    9.0159  -19.1621   27.1730 C   0  0  0  0  0  0  0  0  0  0  0  0
    8.4160  -16.0426   25.0952 O   0  0  0  0  0  0  0  0  0  0  0  0
    9.5883  -15.8888   24.7479 N   0  0  0  0  0  0  0  0  0  0  0  0
    7.8350  -15.2070   26.0689 C   0  0  1  0  0  0  0  0  0  0  0  0
    8.3579  -14.1137   26.7987 C   0  0  0  0  0  0  0  0  0  0  0  0
    7.4378  -13.0499   27.3568 S   0  0  0  0  0  0  0  0  0  0  0  0
    5.9008  -12.9766   26.3776 C   0  0  0  0  0  0  0  0  0  0  0  0
    9.2689  -14.6067   27.8830 O   0  0  0  0  0  0  0  0  0  0  0  0
    9.2903  -15.8049   28.1072 O   0  0  0  0  0  0  0  0  0  0  0  0
  2  1  1  0
  2  3  2  0
  4  5  1  0
  4  2  1  0
  6  5  1  0
  7  6  1  0
  8  9  1  6
  8  7  1  0
 10 11  2  0
 10  8  1  0
 12 10  1  0
 13 20  1  0
 13 12  1  0
 13 14  1  6
 15 14  1  0
 16 15  2  0
 17 16  1  0
 18 17  1  0
 18 19  2  0
 19 15  1  0
 20 22  1  0
 21 20  2  0
 22 23  1  0
 23 26  1  0
 23 24  1  1
 25 24  1  0
 26 27  2  0
 26 28  1  0
M  END
$$$$
