RHC.pdb
     RDKit          3D

 28 28  0  0  1  0  0  0  0  0999 V2000
    7.8623  -12.2875   14.6169 N   0  0  0  0  0  0  0  0  0  0  0  0
    7.7483  -13.3805   13.7235 C   0  0  0  0  0  0  0  0  0  0  0  0
    7.4607  -13.1377   12.4719 N   0  0  0  0  0  0  0  0  0  0  0  0
    7.9265  -14.7196   14.0946 N   0  0  0  0  0  0  0  0  0  0  0  0
    8.6176  -15.1146   15.3013 C   0  0  0  0  0  0  0  0  0  0  0  0
    8.6602  -16.6284   15.4419 C   0  0  0  0  0  0  0  0  0  0  0  0
    9.4046  -17.1436   16.6008 C   0  0  0  0  0  0  0  0  0  0  0  0
   10.4136  -18.2202   16.3528 C   0  0  2  0  0  0  0  0  0  0  0  0
    9.9137  -19.4305   15.7982 N   0  0  0  0  0  0  0  0  0  0  0  0
   11.2299  -18.5048   17.5605 C   0  0  0  0  0  0  0  0  0  0  0  0
   10.8622  -19.4715   18.3136 O   0  0  0  0  0  0  0  0  0  0  0  0
    7.4262  -13.8864   11.7715 N   0  0  0  0  0  0  0  0  0  0  0  0
   12.3792  -17.7514   17.9043 C   0  0  2  0  0  0  0  0  0  0  0  0
   13.1095  -18.2202   19.1008 C   0  0  0  0  0  0  0  0  0  0  0  0
   14.5341  -18.3140   18.7097 C   0  0  0  0  0  0  0  0  0  0  0  0
   14.9415  -19.4959   17.9455 C   0  0  0  0  0  0  0  0  0  0  0  0
   14.6127  -20.8039   18.0295 N   0  0  0  0  0  0  0  0  0  0  0  0
   15.2435  -21.4538   17.0409 C   0  0  0  0  0  0  0  0  0  0  0  0
   15.9541  -20.5594   16.3488 N   0  0  0  0  0  0  0  0  0  0  0  0
   15.7878  -19.3658   16.8746 C   0  0  0  0  0  0  0  0  0  0  0  0
   12.9483  -17.1092   20.1201 O   0  0  0  0  0  0  0  0  0  0  0  0
   12.9614  -15.9447   19.7172 N   0  0  0  0  0  0  0  0  0  0  0  0
   12.7924  -17.3986   21.4896 C   0  0  1  0  0  0  0  0  0  0  0  0
   12.4849  -16.5695   22.5939 C   0  0  0  0  0  0  0  0  0  0  0  0
   11.1173  -15.9350   22.7231 S   0  0  0  0  0  0  0  0  0  0  0  0
    9.9571  -17.1046   23.5057 C   0  0  0  0  0  0  0  0  0  0  0  0
   12.8368  -17.2656   23.8746 O   0  0  0  0  0  0  0  0  0  0  0  0
   12.9051  -18.4829   23.8604 O   0  0  0  0  0  0  0  0  0  0  0  0
  2  1  1  0
  2  3  2  0
  4  5  1  0
  4  2  1  0
  6  5  1  0
  7  6  1  0
  8  9  1  1
  8  7  1  0
 10 11  2  0
 10  8  1  0
 12 10  1  0
 13 20  1  0
 13 12  1  0
 13 14  1  6
 15 14  1  0
 16 15  2  0
 17 16  1  0
 18 17  1  0
 18 19  2  0
 19 15  1  0
 20 22  1  0
 21 20  2  0
 22 23  1  0
 23 26  1  0
 23 24  1  1
 25 24  1  0
 26 27  2  0
 26 28  1  0
M  END
$$$$
