RHC.pdb
     RDKit          3D

 28 28  0  0  1  0  0  0  0  0999 V2000
    7.2347  -12.2150   17.9695 N   0  0  0  0  0  0  0  0  0  0  0  0
    7.7308  -13.4188   17.4122 C   0  0  0  0  0  0  0  0  0  0  0  0
    8.2718  -13.3810   16.2229 N   0  0  0  0  0  0  0  0  0  0  0  0
    7.6817  -14.6614   18.0574 N   0  0  0  0  0  0  0  0  0  0  0  0
    8.7146  -15.1192   18.9591 C   0  0  0  0  0  0  0  0  0  0  0  0
    8.4371  -14.6742   20.3868 C   0  0  0  0  0  0  0  0  0  0  0  0
    9.4085  -15.1196   21.3971 C   0  0  0  0  0  0  0  0  0  0  0  0
    9.5454  -16.5922   21.6242 C   0  0  2  0  0  0  0  0  0  0  0  0
    8.4890  -17.4031   21.1254 N   0  0  0  0  0  0  0  0  0  0  0  0
    9.8117  -16.9115   23.0499 C   0  0  0  0  0  0  0  0  0  0  0  0
    8.8045  -17.0918   23.8180 O   0  0  0  0  0  0  0  0  0  0  0  0
    8.5765  -14.2342   15.7418 N   0  0  0  0  0  0  0  0  0  0  0  0
   11.1209  -17.0161   23.5809 C   0  0  1  0  0  0  0  0  0  0  0  0
   11.1977  -17.3965   25.0070 C   0  0  0  0  0  0  0  0  0  0  0  0
   12.3838  -18.2719   25.1418 C   0  0  0  0  0  0  0  0  0  0  0  0
   12.2309  -19.6721   24.7380 C   0  0  0  0  0  0  0  0  0  0  0  0
   11.1943  -20.3753   24.2310 N   0  0  0  0  0  0  0  0  0  0  0  0
   11.6189  -21.6243   23.9914 C   0  0  0  0  0  0  0  0  0  0  0  0
   12.9054  -21.6958   24.3431 N   0  0  0  0  0  0  0  0  0  0  0  0
   13.3013  -20.5270   24.7970 C   0  0  0  0  0  0  0  0  0  0  0  0
   11.4544  -16.0982   25.7470 O   0  0  0  0  0  0  0  0  0  0  0  0
   12.3257  -15.3435   25.3111 N   0  0  0  0  0  0  0  0  0  0  0  0
   10.7215  -15.7650   26.9027 C   0  0  1  0  0  0  0  0  0  0  0  0
   10.8107  -14.6615   27.7835 C   0  0  0  0  0  0  0  0  0  0  0  0
    9.9019  -13.4639   27.6117 S   0  0  0  0  0  0  0  0  0  0  0  0
    8.1697  -14.0116   27.4508 C   0  0  0  0  0  0  0  0  0  0  0  0
   10.7549  -15.1323   29.2062 O   0  0  0  0  0  0  0  0  0  0  0  0
   10.3789  -16.2734   29.4137 O   0  0  0  0  0  0  0  0  0  0  0  0
  2  1  1  0
  2  3  2  0
  4  5  1  0
  4  2  1  0
  6  5  1  0
  7  6  1  0
  8  9  1  1
  8  7  1  0
 10 11  2  0
 10  8  1  0
 12 10  1  0
 13 20  1  0
 13 12  1  0
 13 14  1  1
 15 14  1  0
 16 15  2  0
 17 16  1  0
 18 17  1  0
 18 19  2  0
 19 15  1  0
 20 22  1  0
 21 20  2  0
 22 23  1  0
 23 26  1  0
 23 24  1  1
 25 24  1  0
 26 27  2  0
 26 28  1  0
M  END
$$$$
