RHC.pdb
     RDKit          3D

 28 28  0  0  1  0  0  0  0  0999 V2000
    8.1773  -23.1341   15.2366 N   0  0  0  0  0  0  0  0  0  0  0  0
    7.8735  -22.5407   13.9870 C   0  0  0  0  0  0  0  0  0  0  0  0
    6.7508  -22.8606   13.3993 N   0  0  0  0  0  0  0  0  0  0  0  0
    8.7040  -21.6224   13.3315 N   0  0  0  0  0  0  0  0  0  0  0  0
    9.9347  -21.1275   13.9060 C   0  0  0  0  0  0  0  0  0  0  0  0
    9.7135  -20.6051   15.3171 C   0  0  0  0  0  0  0  0  0  0  0  0
   10.8966  -20.0419   15.9848 C   0  0  0  0  0  0  0  0  0  0  0  0
   11.3353  -18.6710   15.5764 C   0  0  2  0  0  0  0  0  0  0  0  0
   12.6392  -18.5718   15.0176 N   0  0  0  0  0  0  0  0  0  0  0  0
   11.1683  -17.6848   16.6742 C   0  0  0  0  0  0  0  0  0  0  0  0
   12.2224  -17.2757   17.2728 O   0  0  0  0  0  0  0  0  0  0  0  0
    6.4976  -22.4846   12.4792 N   0  0  0  0  0  0  0  0  0  0  0  0
    9.9023  -17.1939   17.0781 C   0  0  2  0  0  0  0  0  0  0  0  0
    9.9274  -16.2029   18.1744 C   0  0  0  0  0  0  0  0  0  0  0  0
    8.6479  -15.4623   18.0965 C   0  0  0  0  0  0  0  0  0  0  0  0
    8.4007  -14.4448   19.1213 C   0  0  0  0  0  0  0  0  0  0  0  0
    9.0946  -14.0496   20.2115 N   0  0  0  0  0  0  0  0  0  0  0  0
    8.4316  -13.0311   20.7777 C   0  0  0  0  0  0  0  0  0  0  0  0
    7.3393  -12.7944   20.0463 N   0  0  0  0  0  0  0  0  0  0  0  0
    7.2972  -13.6354   19.0365 C   0  0  0  0  0  0  0  0  0  0  0  0
    9.9459  -17.0258   19.4478 O   0  0  0  0  0  0  0  0  0  0  0  0
    9.5940  -18.2051   19.3827 N   0  0  0  0  0  0  0  0  0  0  0  0
   10.3494  -16.4584   20.6721 C   0  0  1  0  0  0  0  0  0  0  0  0
   10.5251  -17.0263   21.9559 C   0  0  0  0  0  0  0  0  0  0  0  0
   11.4033  -18.2439   22.1455 S   0  0  0  0  0  0  0  0  0  0  0  0
   11.3754  -18.7688   23.8920 C   0  0  0  0  0  0  0  0  0  0  0  0
   10.9213  -15.9653   22.9388 O   0  0  0  0  0  0  0  0  0  0  0  0
   11.2526  -14.8775   22.4991 O   0  0  0  0  0  0  0  0  0  0  0  0
  2  1  1  0
  2  3  2  0
  4  5  1  0
  4  2  1  0
  6  5  1  0
  7  6  1  0
  8  9  1  1
  8  7  1  0
 10 11  2  0
 10  8  1  0
 12 10  1  0
 13 20  1  0
 13 12  1  0
 13 14  1  6
 15 14  1  0
 16 15  2  0
 17 16  1  0
 18 17  1  0
 18 19  2  0
 19 15  1  0
 20 22  1  0
 21 20  2  0
 22 23  1  0
 23 26  1  0
 23 24  1  1
 25 24  1  0
 26 27  2  0
 26 28  1  0
M  END
$$$$
