RHC.pdb
     RDKit          3D

 28 28  0  0  1  0  0  0  0  0999 V2000
    8.1029  -13.0371   15.8368 N   0  0  0  0  0  0  0  0  0  0  0  0
    8.2364  -14.3834   15.4177 C   0  0  0  0  0  0  0  0  0  0  0  0
    7.8396  -14.7061   14.2149 N   0  0  0  0  0  0  0  0  0  0  0  0
    8.7724  -15.4039   16.2138 N   0  0  0  0  0  0  0  0  0  0  0  0
    9.0779  -15.2276   17.6157 C   0  0  0  0  0  0  0  0  0  0  0  0
    7.9622  -14.4843   18.3339 C   0  0  0  0  0  0  0  0  0  0  0  0
    8.2206  -14.1450   19.7413 C   0  0  0  0  0  0  0  0  0  0  0  0
    8.8669  -15.1879   20.5977 C   0  0  2  0  0  0  0  0  0  0  0  0
    8.2774  -16.4815   20.5603 N   0  0  0  0  0  0  0  0  0  0  0  0
    9.0240  -14.7331   22.0027 C   0  0  0  0  0  0  0  0  0  0  0  0
    9.6043  -13.6108   22.2039 O   0  0  0  0  0  0  0  0  0  0  0  0
    7.9368  -15.6610   13.8532 N   0  0  0  0  0  0  0  0  0  0  0  0
    8.5658  -15.4894   23.1095 C   0  0  1  0  0  0  0  0  0  0  0  0
    8.8628  -14.9126   24.4375 C   0  0  0  0  0  0  0  0  0  0  0  0
    7.5980  -14.9600   25.2051 C   0  0  0  0  0  0  0  0  0  0  0  0
    7.0992  -13.6951   25.7512 C   0  0  0  0  0  0  0  0  0  0  0  0
    7.5573  -12.4250   25.6956 N   0  0  0  0  0  0  0  0  0  0  0  0
    6.6765  -11.6389   26.3312 C   0  0  0  0  0  0  0  0  0  0  0  0
    5.6811  -12.4114   26.7744 N   0  0  0  0  0  0  0  0  0  0  0  0
    5.9115  -13.6607   26.4354 C   0  0  0  0  0  0  0  0  0  0  0  0
    9.8593  -15.8668   25.0665 O   0  0  0  0  0  0  0  0  0  0  0  0
   10.4535  -16.6556   24.3294 N   0  0  0  0  0  0  0  0  0  0  0  0
   10.0969  -15.8559   26.4548 C   0  0  1  0  0  0  0  0  0  0  0  0
   11.2451  -16.1869   27.2120 C   0  0  0  0  0  0  0  0  0  0  0  0
   11.9767  -15.1259   28.0049 S   0  0  0  0  0  0  0  0  0  0  0  0
   10.9034  -14.4880   29.3344 C   0  0  0  0  0  0  0  0  0  0  0  0
   10.9576  -17.3634   28.0962 O   0  0  0  0  0  0  0  0  0  0  0  0
   11.8955  -17.8792   28.6800 O   0  0  0  0  0  0  0  0  0  0  0  0
  2  1  1  0
  2  3  2  0
  4  5  1  0
  4  2  1  0
  6  5  1  0
  7  6  1  0
  8  9  1  1
  8  7  1  0
 10 11  2  0
 10  8  1  0
 12 10  1  0
 13 20  1  0
 13 12  1  0
 13 14  1  6
 15 14  1  0
 16 15  2  0
 17 16  1  0
 18 17  1  0
 18 19  2  0
 19 15  1  0
 20 22  1  0
 21 20  2  0
 22 23  1  0
 23 26  1  0
 23 24  1  1
 25 24  1  0
 26 27  2  0
 26 28  1  0
M  END
$$$$
