RHC.pdb
     RDKit          3D

 28 28  0  0  1  0  0  0  0  0999 V2000
   11.3281  -23.7668   19.7620 N   0  0  0  0  0  0  0  0  0  0  0  0
   11.5424  -23.5907   18.3732 C   0  0  0  0  0  0  0  0  0  0  0  0
   10.9484  -24.4045   17.5406 N   0  0  0  0  0  0  0  0  0  0  0  0
   12.3563  -22.5908   17.8251 N   0  0  0  0  0  0  0  0  0  0  0  0
   13.0617  -21.6219   18.6334 C   0  0  0  0  0  0  0  0  0  0  0  0
   12.8281  -20.2069   18.1272 C   0  0  0  0  0  0  0  0  0  0  0  0
   11.4295  -19.7523   18.1183 C   0  0  0  0  0  0  0  0  0  0  0  0
   11.1543  -18.3681   17.6213 C   0  0  2  0  0  0  0  0  0  0  0  0
   11.9719  -17.9138   16.5502 N   0  0  0  0  0  0  0  0  0  0  0  0
   11.1492  -17.3733   18.7241 C   0  0  0  0  0  0  0  0  0  0  0  0
   12.0826  -16.4985   18.7413 O   0  0  0  0  0  0  0  0  0  0  0  0
   11.0914  -24.3379   16.5270 N   0  0  0  0  0  0  0  0  0  0  0  0
   10.1656  -17.3635   19.7435 C   0  0  2  0  0  0  0  0  0  0  0  0
   10.2552  -16.2398   20.6995 C   0  0  0  0  0  0  0  0  0  0  0  0
    8.8757  -15.7336   20.8785 C   0  0  0  0  0  0  0  0  0  0  0  0
    8.3876  -14.7609   19.8973 C   0  0  0  0  0  0  0  0  0  0  0  0
    8.9662  -14.1537   18.8377 N   0  0  0  0  0  0  0  0  0  0  0  0
    8.0416  -13.3846   18.2453 C   0  0  0  0  0  0  0  0  0  0  0  0
    6.9006  -13.5142   18.9276 N   0  0  0  0  0  0  0  0  0  0  0  0
    7.0822  -14.3431   19.9319 C   0  0  0  0  0  0  0  0  0  0  0  0
   10.7251  -16.8653   21.9984 O   0  0  0  0  0  0  0  0  0  0  0  0
   11.8587  -17.3471   22.0346 N   0  0  0  0  0  0  0  0  0  0  0  0
    9.8886  -16.8993   23.1311 C   0  0  1  0  0  0  0  0  0  0  0  0
   10.1710  -17.1278   24.4984 C   0  0  0  0  0  0  0  0  0  0  0  0
    9.2931  -16.5300   25.5763 S   0  0  0  0  0  0  0  0  0  0  0  0
    9.2099  -14.7185   25.3814 C   0  0  0  0  0  0  0  0  0  0  0  0
   10.3437  -18.5959   24.7505 O   0  0  0  0  0  0  0  0  0  0  0  0
   10.0288  -19.3670   23.8601 O   0  0  0  0  0  0  0  0  0  0  0  0
  2  1  1  0
  2  3  2  0
  4  5  1  0
  4  2  1  0
  6  5  1  0
  7  6  1  0
  8  9  1  6
  8  7  1  0
 10 11  2  0
 10  8  1  0
 12 10  1  0
 13 20  1  0
 13 12  1  0
 13 14  1  6
 15 14  1  0
 16 15  2  0
 17 16  1  0
 18 17  1  0
 18 19  2  0
 19 15  1  0
 20 22  1  0
 21 20  2  0
 22 23  1  0
 23 26  1  0
 23 24  1  1
 25 24  1  0
 26 27  2  0
 26 28  1  0
M  END
$$$$
