RHC.pdb
     RDKit          3D

 28 28  0  0  1  0  0  0  0  0999 V2000
    9.1954  -12.9221   15.9700 N   0  0  0  0  0  0  0  0  0  0  0  0
    8.1407  -13.8620   15.8696 C   0  0  0  0  0  0  0  0  0  0  0  0
    7.9318  -14.4471   14.7197 N   0  0  0  0  0  0  0  0  0  0  0  0
    7.2974  -14.2122   16.9321 N   0  0  0  0  0  0  0  0  0  0  0  0
    7.3966  -13.6124   18.2437 C   0  0  0  0  0  0  0  0  0  0  0  0
    7.8607  -14.6250   19.2793 C   0  0  0  0  0  0  0  0  0  0  0  0
    9.3015  -14.9193   19.2869 C   0  0  0  0  0  0  0  0  0  0  0  0
    9.8093  -15.8670   20.3276 C   0  0  2  0  0  0  0  0  0  0  0  0
    9.2667  -17.1810   20.2953 N   0  0  0  0  0  0  0  0  0  0  0  0
    9.7026  -15.2984   21.6954 C   0  0  0  0  0  0  0  0  0  0  0  0
   10.2700  -14.1736   21.9186 O   0  0  0  0  0  0  0  0  0  0  0  0
    7.1809  -15.1342   14.5928 N   0  0  0  0  0  0  0  0  0  0  0  0
    9.0105  -15.9506   22.7453 C   0  0  1  0  0  0  0  0  0  0  0  0
    8.8867  -15.1774   23.9989 C   0  0  0  0  0  0  0  0  0  0  0  0
    7.4429  -15.1365   24.3228 C   0  0  0  0  0  0  0  0  0  0  0  0
    6.9799  -14.0397   25.1770 C   0  0  0  0  0  0  0  0  0  0  0  0
    6.9627  -12.6974   25.0221 N   0  0  0  0  0  0  0  0  0  0  0  0
    6.3749  -12.1633   26.1023 C   0  0  0  0  0  0  0  0  0  0  0  0
    6.0286  -13.1625   26.9181 N   0  0  0  0  0  0  0  0  0  0  0  0
    6.3820  -14.3095   26.3811 C   0  0  0  0  0  0  0  0  0  0  0  0
    9.6051  -16.0072   25.0451 O   0  0  0  0  0  0  0  0  0  0  0  0
   10.5389  -16.7229   24.6784 N   0  0  0  0  0  0  0  0  0  0  0  0
    9.2142  -15.9655   26.3976 C   0  0  1  0  0  0  0  0  0  0  0  0
    9.9605  -15.7699   27.5835 C   0  0  0  0  0  0  0  0  0  0  0  0
    9.5642  -14.6973   28.5745 S   0  0  0  0  0  0  0  0  0  0  0  0
   10.6439  -13.2399   28.3832 C   0  0  0  0  0  0  0  0  0  0  0  0
   10.1376  -17.0743   28.3017 O   0  0  0  0  0  0  0  0  0  0  0  0
   10.8428  -17.0851   29.2962 O   0  0  0  0  0  0  0  0  0  0  0  0
  2  1  1  0
  2  3  2  0
  4  5  1  0
  4  2  1  0
  6  5  1  0
  7  6  1  0
  8  9  1  1
  8  7  1  0
 10 11  2  0
 10  8  1  0
 12 10  1  0
 13 20  1  0
 13 12  1  0
 13 14  1  6
 15 14  1  0
 16 15  2  0
 17 16  1  0
 18 17  1  0
 18 19  2  0
 19 15  1  0
 20 22  1  0
 21 20  2  0
 22 23  1  0
 23 26  1  0
 23 24  1  1
 25 24  1  0
 26 27  2  0
 26 28  1  0
M  END
$$$$
