RHC.pdb
     RDKit          3D

 28 28  0  0  1  0  0  0  0  0999 V2000
    8.1894  -11.5069   19.9020 N   0  0  0  0  0  0  0  0  0  0  0  0
    8.5026  -12.8148   19.4581 C   0  0  0  0  0  0  0  0  0  0  0  0
    9.7600  -13.1446   19.3222 N   0  0  0  0  0  0  0  0  0  0  0  0
    7.5450  -13.7906   19.1528 N   0  0  0  0  0  0  0  0  0  0  0  0
    7.8464  -15.2041   19.1228 C   0  0  0  0  0  0  0  0  0  0  0  0
    6.9611  -15.9773   20.0880 C   0  0  0  0  0  0  0  0  0  0  0  0
    7.6031  -16.4136   21.3370 C   0  0  0  0  0  0  0  0  0  0  0  0
    8.6021  -17.5242   21.2509 C   0  0  2  0  0  0  0  0  0  0  0  0
    8.1264  -18.7536   20.7175 N   0  0  0  0  0  0  0  0  0  0  0  0
    9.2879  -17.7556   22.5478 C   0  0  0  0  0  0  0  0  0  0  0  0
    8.6886  -18.4771   23.4179 O   0  0  0  0  0  0  0  0  0  0  0  0
   10.0408  -14.0693   18.9781 N   0  0  0  0  0  0  0  0  0  0  0  0
   10.5592  -17.2093   22.8512 C   0  0  2  0  0  0  0  0  0  0  0  0
   11.0817  -17.5296   24.1962 C   0  0  0  0  0  0  0  0  0  0  0  0
   12.5102  -17.8744   24.0174 C   0  0  0  0  0  0  0  0  0  0  0  0
   12.8155  -19.2060   23.4876 C   0  0  0  0  0  0  0  0  0  0  0  0
   12.4918  -20.4537   23.8931 N   0  0  0  0  0  0  0  0  0  0  0  0
   12.9948  -21.3218   23.0037 C   0  0  0  0  0  0  0  0  0  0  0  0
   13.6218  -20.6213   22.0549 N   0  0  0  0  0  0  0  0  0  0  0  0
   13.5270  -19.3375   22.3230 C   0  0  0  0  0  0  0  0  0  0  0  0
   10.9796  -16.2335   24.9765 O   0  0  0  0  0  0  0  0  0  0  0  0
   10.9750  -15.1746   24.3461 N   0  0  0  0  0  0  0  0  0  0  0  0
   10.8968  -16.2381   26.3825 C   0  0  1  0  0  0  0  0  0  0  0  0
   10.5403  -15.2255   27.3039 C   0  0  0  0  0  0  0  0  0  0  0  0
    9.2373  -14.4711   27.1529 S   0  0  0  0  0  0  0  0  0  0  0  0
    9.1150  -13.1733   28.4285 C   0  0  0  0  0  0  0  0  0  0  0  0
   10.6611  -15.7401   28.7072 O   0  0  0  0  0  0  0  0  0  0  0  0
   10.3697  -16.9060   28.9128 O   0  0  0  0  0  0  0  0  0  0  0  0
  2  1  1  0
  2  3  2  0
  4  5  1  0
  4  2  1  0
  6  5  1  0
  7  6  1  0
  8  9  1  1
  8  7  1  0
 10 11  2  0
 10  8  1  0
 12 10  1  0
 13 20  1  0
 13 12  1  0
 13 14  1  6
 15 14  1  0
 16 15  2  0
 17 16  1  0
 18 17  1  0
 18 19  2  0
 19 15  1  0
 20 22  1  0
 21 20  2  0
 22 23  1  0
 23 26  1  0
 23 24  1  1
 25 24  1  0
 26 27  2  0
 26 28  1  0
M  END
$$$$
