RHC.pdb
     RDKit          3D

 28 28  0  0  1  0  0  0  0  0999 V2000
    8.7011  -15.4569   16.4077 N   0  0  0  0  0  0  0  0  0  0  0  0
    9.4192  -14.6232   17.2994 C   0  0  0  0  0  0  0  0  0  0  0  0
    9.0821  -13.3634   17.3864 N   0  0  0  0  0  0  0  0  0  0  0  0
   10.4778  -15.0629   18.1049 N   0  0  0  0  0  0  0  0  0  0  0  0
   11.1360  -16.3353   17.9107 C   0  0  0  0  0  0  0  0  0  0  0  0
   10.8582  -17.2820   19.0682 C   0  0  0  0  0  0  0  0  0  0  0  0
   11.5450  -16.9697   20.3305 C   0  0  0  0  0  0  0  0  0  0  0  0
   10.9725  -17.5399   21.5898 C   0  0  2  0  0  0  0  0  0  0  0  0
   10.0751  -18.6315   21.4310 N   0  0  0  0  0  0  0  0  0  0  0  0
   10.3628  -16.4914   22.4469 C   0  0  0  0  0  0  0  0  0  0  0  0
   11.1011  -15.5086   22.8017 O   0  0  0  0  0  0  0  0  0  0  0  0
    9.5097  -12.7372   18.0772 N   0  0  0  0  0  0  0  0  0  0  0  0
    9.0158  -16.5442   22.8822 C   0  0  1  0  0  0  0  0  0  0  0  0
    8.5370  -15.3486   23.6073 C   0  0  0  0  0  0  0  0  0  0  0  0
    7.3424  -14.8684   22.8766 C   0  0  0  0  0  0  0  0  0  0  0  0
    7.5427  -14.3976   21.5036 C   0  0  0  0  0  0  0  0  0  0  0  0
    8.6294  -14.3318   20.7031 N   0  0  0  0  0  0  0  0  0  0  0  0
    8.2378  -13.8591   19.5111 C   0  0  0  0  0  0  0  0  0  0  0  0
    6.9221  -13.6361   19.5695 N   0  0  0  0  0  0  0  0  0  0  0  0
    6.4760  -13.9553   20.7644 C   0  0  0  0  0  0  0  0  0  0  0  0
    8.1112  -15.8595   24.9699 O   0  0  0  0  0  0  0  0  0  0  0  0
    7.0135  -15.5075   25.4055 N   0  0  0  0  0  0  0  0  0  0  0  0
    8.9478  -16.7090   25.7197 C   0  0  1  0  0  0  0  0  0  0  0  0
    8.7687  -17.3279   26.9793 C   0  0  0  0  0  0  0  0  0  0  0  0
    7.5103  -18.1127   27.2795 S   0  0  0  0  0  0  0  0  0  0  0  0
    7.9036  -19.5422   28.3417 C   0  0  0  0  0  0  0  0  0  0  0  0
    9.9699  -18.1582   27.3207 O   0  0  0  0  0  0  0  0  0  0  0  0
   10.7920  -18.3575   26.4427 O   0  0  0  0  0  0  0  0  0  0  0  0
  2  1  1  0
  2  3  2  0
  4  5  1  0
  4  2  1  0
  6  5  1  0
  7  6  1  0
  8  9  1  6
  8  7  1  0
 10 11  2  0
 10  8  1  0
 12 10  1  0
 13 20  1  0
 13 12  1  0
 13 14  1  1
 15 14  1  0
 16 15  2  0
 17 16  1  0
 18 17  1  0
 18 19  2  0
 19 15  1  0
 20 22  1  0
 21 20  2  0
 22 23  1  0
 23 26  1  0
 23 24  1  1
 25 24  1  0
 26 27  2  0
 26 28  1  0
M  END
$$$$
