DMI.pdb
     RDKit          3D

 25 24  0  0  1  0  0  0  0  0999 V2000
    7.5020  -18.8927   22.3371 N   0  0  0  0  0  0  0  0  0  0  0  0
    8.6889  -18.4843   21.6569 C   0  0  1  0  0  0  0  0  0  0  0  0
    8.5950  -18.6331   20.1543 C   0  0  0  0  0  0  0  0  0  0  0  0
    7.3107  -19.1831   19.7028 C   0  0  0  0  0  0  0  0  0  0  0  0
    6.4538  -19.5372   20.5371 O   0  0  0  0  0  0  0  0  0  0  0  0
    9.1377  -17.1160   21.9798 C   0  0  0  0  0  0  0  0  0  0  0  0
   10.1083  -16.5907   21.3741 O   0  0  0  0  0  0  0  0  0  0  0  0
    7.0350  -19.3152   18.3591 O   0  0  0  0  0  0  0  0  0  0  0  0
    6.6856  -11.7068   25.2736 C   0  0  0  0  0  0  0  0  0  0  0  0
    6.6153  -13.3645   25.9782 S   0  0  0  0  0  0  0  0  0  0  0  0
    6.9359  -14.6323   24.6889 C   0  0  0  0  0  0  0  0  0  0  0  0
    7.9699  -14.0583   23.7761 C   0  0  0  0  0  0  0  0  0  0  0  0
    9.0569  -14.9978   23.3677 C   0  0  2  0  0  0  0  0  0  0  0  0
    8.5286  -16.2897   22.9816 N   0  0  0  0  0  0  0  0  0  0  0  0
    9.9154  -15.1859   24.6007 C   0  0  0  0  0  0  0  0  0  0  0  0
   10.8647  -14.3642   24.8118 O   0  0  0  0  0  0  0  0  0  0  0  0
    8.7723  -13.5528   28.9064 C   0  0  0  0  0  0  0  0  0  0  0  0
    9.5122  -14.1789   27.7753 C   0  0  0  0  0  0  0  0  0  0  0  0
    9.7697  -15.6249   27.8574 C   0  0  2  0  0  0  0  0  0  0  0  0
   10.4635  -15.9588   29.1807 C   0  0  0  0  0  0  0  0  0  0  0  0
   10.4417  -16.3130   26.7324 C   0  0  2  0  0  0  0  0  0  0  0  0
    9.6677  -16.2526   25.4990 N   0  0  0  0  0  0  0  0  0  0  0  0
   10.6856  -17.7387   26.9897 C   0  0  0  0  0  0  0  0  0  0  0  0
   11.6873  -18.0883   27.8964 O   0  0  0  0  0  0  0  0  0  0  0  0
   10.0564  -18.6787   26.4472 O   0  0  0  0  0  0  0  0  0  0  0  0
  2  1  1  1
  2  3  1  0
  4  3  1  0
  4  8  1  0
  5  4  2  0
  6  2  1  0
  7  6  2  0
  9 10  1  0
 10 11  1  0
 12 11  1  0
 13 12  1  1
 13 14  1  0
 14  6  1  0
 15 22  1  0
 15 13  1  0
 16 15  2  0
 18 17  1  0
 18 19  1  0
 19 20  1  1
 21 19  1  0
 21 23  1  0
 21 22  1  6
 23 24  1  0
 25 23  2  0
M  END
$$$$
