DMI.pdb
     RDKit          3D

 25 24  0  0  1  0  0  0  0  0999 V2000
    9.0163  -18.0255   20.3773 N   0  0  0  0  0  0  0  0  0  0  0  0
   10.1642  -17.2604   20.7452 C   0  0  1  0  0  0  0  0  0  0  0  0
   10.7337  -16.4532   19.5995 C   0  0  0  0  0  0  0  0  0  0  0  0
   11.3064  -17.2820   18.5314 C   0  0  0  0  0  0  0  0  0  0  0  0
   10.8191  -18.4021   18.2793 O   0  0  0  0  0  0  0  0  0  0  0  0
    9.9603  -16.3733   21.9068 C   0  0  0  0  0  0  0  0  0  0  0  0
   10.8298  -15.5247   22.2368 O   0  0  0  0  0  0  0  0  0  0  0  0
   12.3839  -16.8372   17.7963 O   0  0  0  0  0  0  0  0  0  0  0  0
    6.3600  -11.9190   26.4762 C   0  0  0  0  0  0  0  0  0  0  0  0
    6.7053  -12.9762   25.0575 S   0  0  0  0  0  0  0  0  0  0  0  0
    6.9396  -14.7186   25.5878 C   0  0  0  0  0  0  0  0  0  0  0  0
    7.1970  -15.5097   24.3468 C   0  0  0  0  0  0  0  0  0  0  0  0
    8.6160  -15.5276   23.8809 C   0  0  2  0  0  0  0  0  0  0  0  0
    8.7915  -16.3991   22.7379 N   0  0  0  0  0  0  0  0  0  0  0  0
    9.4153  -16.0933   25.0357 C   0  0  0  0  0  0  0  0  0  0  0  0
    9.4981  -17.3581   25.1561 O   0  0  0  0  0  0  0  0  0  0  0  0
   10.5494  -14.2217   30.5393 C   0  0  0  0  0  0  0  0  0  0  0  0
   10.6523  -15.2996   29.5164 C   0  0  0  0  0  0  0  0  0  0  0  0
   11.0659  -14.9046   28.1612 C   0  0  2  0  0  0  0  0  0  0  0  0
   10.5135  -13.5158   27.8291 C   0  0  0  0  0  0  0  0  0  0  0  0
   10.8463  -15.8333   27.0297 C   0  0  2  0  0  0  0  0  0  0  0  0
   10.0566  -15.2342   25.9614 N   0  0  0  0  0  0  0  0  0  0  0  0
   10.1392  -17.0610   27.4185 C   0  0  0  0  0  0  0  0  0  0  0  0
    8.7681  -17.1444   27.1720 O   0  0  0  0  0  0  0  0  0  0  0  0
   10.6800  -18.0521   27.9654 O   0  0  0  0  0  0  0  0  0  0  0  0
  2  1  1  6
  2  3  1  0
  4  3  1  0
  4  8  1  0
  5  4  2  0
  6  2  1  0
  7  6  2  0
  9 10  1  0
 10 11  1  0
 12 11  1  0
 13 12  1  1
 13 14  1  0
 14  6  1  0
 15 22  1  0
 15 13  1  0
 16 15  2  0
 18 17  1  0
 18 19  1  0
 19 20  1  6
 21 19  1  0
 21 23  1  0
 21 22  1  6
 23 24  1  0
 25 23  2  0
M  END
$$$$
