DMI.pdb
     RDKit          3D

 25 24  0  0  1  0  0  0  0  0999 V2000
    8.9574  -17.9317   20.5913 N   0  0  0  0  0  0  0  0  0  0  0  0
   10.0798  -17.0951   20.8717 C   0  0  1  0  0  0  0  0  0  0  0  0
   10.4506  -16.1899   19.7176 C   0  0  0  0  0  0  0  0  0  0  0  0
   11.0675  -16.9038   18.5927 C   0  0  0  0  0  0  0  0  0  0  0  0
   10.3637  -17.5935   17.8278 O   0  0  0  0  0  0  0  0  0  0  0  0
    9.9462  -16.2846   22.0977 C   0  0  0  0  0  0  0  0  0  0  0  0
   10.7704  -15.3716   22.3661 O   0  0  0  0  0  0  0  0  0  0  0  0
   12.4245  -16.8229   18.3667 O   0  0  0  0  0  0  0  0  0  0  0  0
    7.0407  -11.9269   24.8694 C   0  0  0  0  0  0  0  0  0  0  0  0
    6.0555  -13.3830   25.2678 S   0  0  0  0  0  0  0  0  0  0  0  0
    6.4156  -14.7509   24.0967 C   0  0  0  0  0  0  0  0  0  0  0  0
    7.3809  -15.6585   24.7870 C   0  0  0  0  0  0  0  0  0  0  0  0
    8.7744  -15.6401   24.2497 C   0  0  2  0  0  0  0  0  0  0  0  0
    8.8998  -16.4603   23.0629 N   0  0  0  0  0  0  0  0  0  0  0  0
    9.6369  -16.2448   25.3373 C   0  0  0  0  0  0  0  0  0  0  0  0
   10.1976  -17.3662   25.1158 O   0  0  0  0  0  0  0  0  0  0  0  0
   10.5117  -13.6006   30.4476 C   0  0  0  0  0  0  0  0  0  0  0  0
   10.2433  -14.8389   29.6643 C   0  0  0  0  0  0  0  0  0  0  0  0
   11.1673  -15.1530   28.5637 C   0  0  2  0  0  0  0  0  0  0  0  0
   11.6647  -13.8597   27.9125 C   0  0  0  0  0  0  0  0  0  0  0  0
   10.7661  -16.1326   27.5291 C   0  0  2  0  0  0  0  0  0  0  0  0
    9.8157  -15.5775   26.5739 N   0  0  0  0  0  0  0  0  0  0  0  0
   10.1284  -17.3331   28.0862 C   0  0  0  0  0  0  0  0  0  0  0  0
    8.7517  -17.4915   27.9212 O   0  0  0  0  0  0  0  0  0  0  0  0
   10.7341  -18.2374   28.7101 O   0  0  0  0  0  0  0  0  0  0  0  0
  2  1  1  6
  2  3  1  0
  4  3  1  0
  4  8  1  0
  5  4  2  0
  6  2  1  0
  7  6  2  0
  9 10  1  0
 10 11  1  0
 12 11  1  0
 13 12  1  1
 13 14  1  0
 14  6  1  0
 15 22  1  0
 15 13  1  0
 16 15  2  0
 18 17  1  0
 18 19  1  0
 19 20  1  6
 21 19  1  0
 21 23  1  0
 21 22  1  6
 23 24  1  0
 25 23  2  0
M  END
$$$$
