DMI.pdb
     RDKit          3D

 25 24  0  0  1  0  0  0  0  0999 V2000
    8.4243  -16.0970   19.7884 N   0  0  0  0  0  0  0  0  0  0  0  0
    8.2674  -16.9832   20.8966 C   0  0  1  0  0  0  0  0  0  0  0  0
    9.0315  -18.2790   20.7355 C   0  0  0  0  0  0  0  0  0  0  0  0
    8.8349  -18.9117   19.4253 C   0  0  0  0  0  0  0  0  0  0  0  0
    7.8459  -19.6454   19.2269 O   0  0  0  0  0  0  0  0  0  0  0  0
    8.5968  -16.3877   22.2061 C   0  0  0  0  0  0  0  0  0  0  0  0
    9.6974  -16.6252   22.7695 O   0  0  0  0  0  0  0  0  0  0  0  0
    9.7346  -18.7056   18.4019 O   0  0  0  0  0  0  0  0  0  0  0  0
    6.4241  -10.9383   27.6289 C   0  0  0  0  0  0  0  0  0  0  0  0
    6.2213  -11.7777   26.0465 S   0  0  0  0  0  0  0  0  0  0  0  0
    7.3733  -13.2017   25.9144 C   0  0  0  0  0  0  0  0  0  0  0  0
    7.1801  -13.7798   24.5504 C   0  0  0  0  0  0  0  0  0  0  0  0
    8.0658  -14.9339   24.2121 C   0  0  2  0  0  0  0  0  0  0  0  0
    7.7199  -15.5146   22.9314 N   0  0  0  0  0  0  0  0  0  0  0  0
    7.8111  -15.9698   25.2867 C   0  0  0  0  0  0  0  0  0  0  0  0
    6.6123  -16.3408   25.5018 O   0  0  0  0  0  0  0  0  0  0  0  0
    7.9216  -21.3175   26.8427 C   0  0  0  0  0  0  0  0  0  0  0  0
    8.1215  -19.9712   27.4481 C   0  0  0  0  0  0  0  0  0  0  0  0
    8.3565  -18.8476   26.5283 C   0  0  2  0  0  0  0  0  0  0  0  0
    9.4602  -19.2095   25.5308 C   0  0  0  0  0  0  0  0  0  0  0  0
    8.5771  -17.4895   27.0742 C   0  0  2  0  0  0  0  0  0  0  0  0
    8.8830  -16.5137   26.0359 N   0  0  0  0  0  0  0  0  0  0  0  0
    9.6886  -17.4253   28.0327 C   0  0  0  0  0  0  0  0  0  0  0  0
    9.5499  -18.0824   29.2560 O   0  0  0  0  0  0  0  0  0  0  0  0
   10.7661  -16.8141   27.8344 O   0  0  0  0  0  0  0  0  0  0  0  0
  2  1  1  6
  2  3  1  0
  4  3  1  0
  4  8  1  0
  5  4  2  0
  6  2  1  0
  7  6  2  0
  9 10  1  0
 10 11  1  0
 12 11  1  0
 13 12  1  1
 13 14  1  0
 14  6  1  0
 15 22  1  0
 15 13  1  0
 16 15  2  0
 18 17  1  0
 18 19  1  0
 19 20  1  1
 21 19  1  0
 21 23  1  0
 21 22  1  6
 23 24  1  0
 25 23  2  0
M  END
$$$$
