DMI.pdb
     RDKit          3D

 25 24  0  0  1  0  0  0  0  0999 V2000
    8.3296  -19.5994   22.7831 N   0  0  0  0  0  0  0  0  0  0  0  0
    8.9451  -18.7487   21.8156 C   0  0  1  0  0  0  0  0  0  0  0  0
    8.2104  -18.7216   20.4935 C   0  0  0  0  0  0  0  0  0  0  0  0
    8.9471  -18.0240   19.4322 C   0  0  0  0  0  0  0  0  0  0  0  0
    8.5503  -16.9158   19.0196 O   0  0  0  0  0  0  0  0  0  0  0  0
    9.1669  -17.3634   22.2736 C   0  0  0  0  0  0  0  0  0  0  0  0
   10.1666  -16.7033   21.8863 O   0  0  0  0  0  0  0  0  0  0  0  0
   10.0808  -18.5799   18.8800 O   0  0  0  0  0  0  0  0  0  0  0  0
    5.8927  -11.2520   26.2461 C   0  0  0  0  0  0  0  0  0  0  0  0
    5.8457  -12.9210   25.5667 S   0  0  0  0  0  0  0  0  0  0  0  0
    7.3989  -13.2981   24.6626 C   0  0  0  0  0  0  0  0  0  0  0  0
    7.2535  -14.6855   24.1278 C   0  0  0  0  0  0  0  0  0  0  0  0
    8.4994  -15.2910   23.5693 C   0  0  2  0  0  0  0  0  0  0  0  0
    8.2923  -16.6684   23.1732 N   0  0  0  0  0  0  0  0  0  0  0  0
    9.5043  -15.2692   24.7017 C   0  0  0  0  0  0  0  0  0  0  0  0
   10.1684  -14.2021   24.9049 O   0  0  0  0  0  0  0  0  0  0  0  0
    9.8074  -13.2420   28.7458 C   0  0  0  0  0  0  0  0  0  0  0  0
   10.2300  -14.0389   27.5604 C   0  0  0  0  0  0  0  0  0  0  0  0
   10.2687  -15.5016   27.7114 C   0  0  2  0  0  0  0  0  0  0  0  0
   11.0405  -15.8768   28.9794 C   0  0  0  0  0  0  0  0  0  0  0  0
   10.7022  -16.3431   26.5734 C   0  0  2  0  0  0  0  0  0  0  0  0
    9.7010  -16.4109   25.5166 N   0  0  0  0  0  0  0  0  0  0  0  0
   10.9836  -17.7331   26.9567 C   0  0  0  0  0  0  0  0  0  0  0  0
   12.1433  -17.9996   27.6858 O   0  0  0  0  0  0  0  0  0  0  0  0
   10.2531  -18.7126   26.6721 O   0  0  0  0  0  0  0  0  0  0  0  0
  2  1  1  1
  2  3  1  0
  4  3  1  0
  4  8  1  0
  5  4  2  0
  6  2  1  0
  7  6  2  0
  9 10  1  0
 10 11  1  0
 12 11  1  0
 13 12  1  1
 13 14  1  0
 14  6  1  0
 15 22  1  0
 15 13  1  0
 16 15  2  0
 18 17  1  0
 18 19  1  0
 19 20  1  1
 21 19  1  0
 21 23  1  0
 21 22  1  6
 23 24  1  0
 25 23  2  0
M  END
$$$$
