DMI.pdb
     RDKit          3D

 25 24  0  0  1  0  0  0  0  0999 V2000
   10.1061  -18.7246   20.0608 N   0  0  0  0  0  0  0  0  0  0  0  0
    9.4426  -17.4769   19.8575 C   0  0  1  0  0  0  0  0  0  0  0  0
    8.6568  -17.4239   18.5658 C   0  0  0  0  0  0  0  0  0  0  0  0
    9.4720  -17.7015   17.3767 C   0  0  0  0  0  0  0  0  0  0  0  0
    8.9273  -18.0693   16.3166 O   0  0  0  0  0  0  0  0  0  0  0  0
    8.5689  -17.0612   20.9719 C   0  0  0  0  0  0  0  0  0  0  0  0
    7.7374  -16.1263   20.8317 O   0  0  0  0  0  0  0  0  0  0  0  0
   10.8424  -17.5607   17.4141 O   0  0  0  0  0  0  0  0  0  0  0  0
    6.8964  -20.5224   26.2168 C   0  0  0  0  0  0  0  0  0  0  0  0
    6.1490  -20.9131   24.6236 S   0  0  0  0  0  0  0  0  0  0  0  0
    6.4370  -19.5558   23.4208 C   0  0  0  0  0  0  0  0  0  0  0  0
    7.2705  -18.5344   24.1238 C   0  0  0  0  0  0  0  0  0  0  0  0
    7.6355  -17.3355   23.3113 C   0  0  2  0  0  0  0  0  0  0  0  0
    8.5895  -17.6647   22.2729 N   0  0  0  0  0  0  0  0  0  0  0  0
    8.2985  -16.3767   24.2776 C   0  0  0  0  0  0  0  0  0  0  0  0
    9.5696  -16.3059   24.2880 O   0  0  0  0  0  0  0  0  0  0  0  0
    5.5967  -11.7893   26.0709 C   0  0  0  0  0  0  0  0  0  0  0  0
    6.6227  -12.7319   25.5439 C   0  0  0  0  0  0  0  0  0  0  0  0
    7.3384  -13.5643   26.5230 C   0  0  2  0  0  0  0  0  0  0  0  0
    8.0874  -12.6744   27.5186 C   0  0  0  0  0  0  0  0  0  0  0  0
    8.2122  -14.6615   26.0502 C   0  0  2  0  0  0  0  0  0  0  0  0
    7.5214  -15.5767   25.1507 N   0  0  0  0  0  0  0  0  0  0  0  0
    8.7437  -15.4885   27.1420 C   0  0  0  0  0  0  0  0  0  0  0  0
    9.9567  -15.1193   27.7252 O   0  0  0  0  0  0  0  0  0  0  0  0
    8.1849  -16.5167   27.5942 O   0  0  0  0  0  0  0  0  0  0  0  0
  2  1  1  1
  2  3  1  0
  4  3  1  0
  4  8  1  0
  5  4  2  0
  6  2  1  0
  7  6  2  0
  9 10  1  0
 10 11  1  0
 12 11  1  0
 13 12  1  1
 13 14  1  0
 14  6  1  0
 15 22  1  0
 15 13  1  0
 16 15  2  0
 18 17  1  0
 18 19  1  0
 19 20  1  6
 21 19  1  0
 21 23  1  0
 21 22  1  6
 23 24  1  0
 25 23  2  0
M  END
$$$$
