DMI.pdb
     RDKit          3D

 25 24  0  0  1  0  0  0  0  0999 V2000
    8.6822  -17.2245   19.6970 N   0  0  0  0  0  0  0  0  0  0  0  0
    9.9721  -17.2980   20.3045 C   0  0  1  0  0  0  0  0  0  0  0  0
   11.0991  -16.9690   19.3503 C   0  0  0  0  0  0  0  0  0  0  0  0
   11.1624  -17.8688   18.1918 C   0  0  0  0  0  0  0  0  0  0  0  0
   11.4909  -19.0624   18.3439 O   0  0  0  0  0  0  0  0  0  0  0  0
   10.1194  -16.4824   21.5256 C   0  0  0  0  0  0  0  0  0  0  0  0
   11.2467  -16.0573   21.8909 O   0  0  0  0  0  0  0  0  0  0  0  0
   10.8618  -17.4106   16.9274 O   0  0  0  0  0  0  0  0  0  0  0  0
    5.2551  -13.8501   26.3642 C   0  0  0  0  0  0  0  0  0  0  0  0
    6.2759  -12.9066   25.2164 S   0  0  0  0  0  0  0  0  0  0  0  0
    7.9431  -13.6600   25.0598 C   0  0  0  0  0  0  0  0  0  0  0  0
    7.8877  -14.5736   23.8789 C   0  0  0  0  0  0  0  0  0  0  0  0
    9.1771  -15.2368   23.5206 C   0  0  2  0  0  0  0  0  0  0  0  0
    9.0266  -16.1145   22.3787 N   0  0  0  0  0  0  0  0  0  0  0  0
    9.5470  -16.0809   24.7219 C   0  0  0  0  0  0  0  0  0  0  0  0
    9.3936  -17.3427   24.6490 O   0  0  0  0  0  0  0  0  0  0  0  0
   10.8778  -13.9285   29.9781 C   0  0  0  0  0  0  0  0  0  0  0  0
   10.2469  -14.7732   28.9258 C   0  0  0  0  0  0  0  0  0  0  0  0
   11.1428  -15.5811   28.0841 C   0  0  2  0  0  0  0  0  0  0  0  0
   12.3363  -14.7369   27.6292 C   0  0  0  0  0  0  0  0  0  0  0  0
   10.5850  -16.3449   26.9455 C   0  0  2  0  0  0  0  0  0  0  0  0
   10.0524  -15.4798   25.9007 N   0  0  0  0  0  0  0  0  0  0  0  0
    9.4855  -17.2391   27.3327 C   0  0  0  0  0  0  0  0  0  0  0  0
    9.7797  -18.3493   28.1255 O   0  0  0  0  0  0  0  0  0  0  0  0
    8.2868  -17.0808   26.9981 O   0  0  0  0  0  0  0  0  0  0  0  0
  2  1  1  6
  2  3  1  0
  4  3  1  0
  4  8  1  0
  5  4  2  0
  6  2  1  0
  7  6  2  0
  9 10  1  0
 10 11  1  0
 12 11  1  0
 13 12  1  1
 13 14  1  0
 14  6  1  0
 15 22  1  0
 15 13  1  0
 16 15  2  0
 18 17  1  0
 18 19  1  0
 19 20  1  6
 21 19  1  0
 21 23  1  0
 21 22  1  6
 23 24  1  0
 25 23  2  0
M  END
$$$$
