DMI.pdb
     RDKit          3D

 25 24  0  0  1  0  0  0  0  0999 V2000
   10.6296  -18.7322   20.2402 N   0  0  0  0  0  0  0  0  0  0  0  0
   11.4393  -17.5592   20.3216 C   0  0  1  0  0  0  0  0  0  0  0  0
   12.0489  -17.1632   18.9948 C   0  0  0  0  0  0  0  0  0  0  0  0
   12.8073  -18.2462   18.3563 C   0  0  0  0  0  0  0  0  0  0  0  0
   13.0851  -19.2786   18.9986 O   0  0  0  0  0  0  0  0  0  0  0  0
   10.7606  -16.3883   20.9101 C   0  0  0  0  0  0  0  0  0  0  0  0
   11.3492  -15.2802   21.0135 O   0  0  0  0  0  0  0  0  0  0  0  0
   13.2207  -18.1384   17.0460 O   0  0  0  0  0  0  0  0  0  0  0  0
    7.7100  -12.1678   19.5260 C   0  0  0  0  0  0  0  0  0  0  0  0
    6.6505  -13.5944   19.2227 S   0  0  0  0  0  0  0  0  0  0  0  0
    7.4109  -15.1233   19.8982 C   0  0  0  0  0  0  0  0  0  0  0  0
    7.4632  -14.9526   21.3815 C   0  0  0  0  0  0  0  0  0  0  0  0
    8.7801  -15.2594   22.0159 C   0  0  2  0  0  0  0  0  0  0  0  0
    9.4135  -16.4080   21.4023 N   0  0  0  0  0  0  0  0  0  0  0  0
    8.4663  -15.6042   23.4565 C   0  0  0  0  0  0  0  0  0  0  0  0
    8.9600  -16.6698   23.9481 O   0  0  0  0  0  0  0  0  0  0  0  0
    7.2085  -11.2319   27.7069 C   0  0  0  0  0  0  0  0  0  0  0  0
    7.8583  -12.5128   27.3119 C   0  0  0  0  0  0  0  0  0  0  0  0
    7.4718  -13.0923   26.0163 C   0  0  2  0  0  0  0  0  0  0  0  0
    5.9491  -13.2311   25.9382 C   0  0  0  0  0  0  0  0  0  0  0  0
    8.1296  -14.3315   25.5441 C   0  0  2  0  0  0  0  0  0  0  0  0
    7.6415  -14.7598   24.2394 N   0  0  0  0  0  0  0  0  0  0  0  0
    7.9294  -15.4725   26.4477 C   0  0  0  0  0  0  0  0  0  0  0  0
    6.9815  -16.4363   26.1009 O   0  0  0  0  0  0  0  0  0  0  0  0
    8.5513  -15.6475   27.5231 O   0  0  0  0  0  0  0  0  0  0  0  0
  2  1  1  6
  2  3  1  0
  4  3  1  0
  4  8  1  0
  5  4  2  0
  6  2  1  0
  7  6  2  0
  9 10  1  0
 10 11  1  0
 12 11  1  0
 13 12  1  6
 13 14  1  0
 14  6  1  0
 15 22  1  0
 15 13  1  0
 16 15  2  0
 18 17  1  0
 18 19  1  0
 19 20  1  1
 21 19  1  0
 21 23  1  0
 21 22  1  6
 23 24  1  0
 25 23  2  0
M  END
$$$$
