DMI.pdb
     RDKit          3D

 25 24  0  0  1  0  0  0  0  0999 V2000
    8.9897  -17.6301   20.2970 N   0  0  0  0  0  0  0  0  0  0  0  0
   10.2186  -17.0227   20.6959 C   0  0  1  0  0  0  0  0  0  0  0  0
   10.8936  -16.2561   19.5799 C   0  0  0  0  0  0  0  0  0  0  0  0
   11.2911  -17.1038   18.4488 C   0  0  0  0  0  0  0  0  0  0  0  0
   11.5150  -18.3181   18.6254 O   0  0  0  0  0  0  0  0  0  0  0  0
   10.1129  -16.1536   21.8839 C   0  0  0  0  0  0  0  0  0  0  0  0
   11.0878  -15.4549   22.2666 O   0  0  0  0  0  0  0  0  0  0  0  0
   11.4220  -16.5735   17.1836 O   0  0  0  0  0  0  0  0  0  0  0  0
    5.5284  -11.9372   25.4245 C   0  0  0  0  0  0  0  0  0  0  0  0
    5.6093  -13.7056   25.7652 S   0  0  0  0  0  0  0  0  0  0  0  0
    7.3408  -14.3082   25.6619 C   0  0  0  0  0  0  0  0  0  0  0  0
    7.4953  -14.9286   24.3116 C   0  0  0  0  0  0  0  0  0  0  0  0
    8.8912  -15.3022   23.9338 C   0  0  2  0  0  0  0  0  0  0  0  0
    8.9285  -16.0323   22.6838 N   0  0  0  0  0  0  0  0  0  0  0  0
    9.3775  -16.2213   25.0344 C   0  0  0  0  0  0  0  0  0  0  0  0
    9.6556  -17.4284   24.7401 O   0  0  0  0  0  0  0  0  0  0  0  0
   10.4773  -13.4686   29.6348 C   0  0  0  0  0  0  0  0  0  0  0  0
   10.9376  -14.2856   28.4774 C   0  0  0  0  0  0  0  0  0  0  0  0
   10.6621  -15.7299   28.5208 C   0  0  2  0  0  0  0  0  0  0  0  0
   11.7296  -16.4417   29.3561 C   0  0  0  0  0  0  0  0  0  0  0  0
   10.4155  -16.4655   27.2602 C   0  0  2  0  0  0  0  0  0  0  0  0
    9.5196  -15.7484   26.3619 N   0  0  0  0  0  0  0  0  0  0  0  0
    9.8078  -17.7864   27.4712 C   0  0  0  0  0  0  0  0  0  0  0  0
   10.6491  -18.8748   27.7063 O   0  0  0  0  0  0  0  0  0  0  0  0
    8.5744  -18.0145   27.4528 O   0  0  0  0  0  0  0  0  0  0  0  0
  2  1  1  6
  2  3  1  0
  4  3  1  0
  4  8  1  0
  5  4  2  0
  6  2  1  0
  7  6  2  0
  9 10  1  0
 10 11  1  0
 12 11  1  0
 13 12  1  1
 13 14  1  0
 14  6  1  0
 15 22  1  0
 15 13  1  0
 16 15  2  0
 18 17  1  0
 18 19  1  0
 19 20  1  6
 21 19  1  0
 21 23  1  0
 21 22  1  6
 23 24  1  0
 25 23  2  0
M  END
$$$$
