DMI.pdb
     RDKit          3D

 25 24  0  0  1  0  0  0  0  0999 V2000
    8.6437  -19.1511   20.7633 N   0  0  0  0  0  0  0  0  0  0  0  0
    8.3813  -18.7523   22.1088 C   0  0  1  0  0  0  0  0  0  0  0  0
    8.9042  -19.7347   23.1336 C   0  0  0  0  0  0  0  0  0  0  0  0
    8.1064  -20.9642   23.2215 C   0  0  0  0  0  0  0  0  0  0  0  0
    7.1427  -21.1413   22.4497 O   0  0  0  0  0  0  0  0  0  0  0  0
    8.8602  -17.3985   22.4490 C   0  0  0  0  0  0  0  0  0  0  0  0
    9.9326  -16.9485   21.9668 O   0  0  0  0  0  0  0  0  0  0  0  0
    8.4088  -21.9344   24.1523 O   0  0  0  0  0  0  0  0  0  0  0  0
    5.8853  -12.9586   26.7543 C   0  0  0  0  0  0  0  0  0  0  0  0
    6.3809  -12.1323   25.2307 S   0  0  0  0  0  0  0  0  0  0  0  0
    7.8852  -12.9157   24.5268 C   0  0  0  0  0  0  0  0  0  0  0  0
    7.5139  -14.3232   24.1905 C   0  0  0  0  0  0  0  0  0  0  0  0
    8.5984  -15.1413   23.5697 C   0  0  2  0  0  0  0  0  0  0  0  0
    8.1697  -16.5040   23.3323 N   0  0  0  0  0  0  0  0  0  0  0  0
    9.7199  -15.1674   24.5865 C   0  0  0  0  0  0  0  0  0  0  0  0
   10.5505  -14.2026   24.6007 O   0  0  0  0  0  0  0  0  0  0  0  0
    9.6129  -14.0874   29.4155 C   0  0  0  0  0  0  0  0  0  0  0  0
    9.6567  -15.1466   28.3691 C   0  0  0  0  0  0  0  0  0  0  0  0
   10.8111  -15.1453   27.4576 C   0  0  2  0  0  0  0  0  0  0  0  0
   10.9555  -13.7715   26.7975 C   0  0  0  0  0  0  0  0  0  0  0  0
   10.9485  -16.2209   26.4499 C   0  0  2  0  0  0  0  0  0  0  0  0
    9.8421  -16.2416   25.5016 N   0  0  0  0  0  0  0  0  0  0  0  0
   11.0015  -17.5643   27.0421 C   0  0  0  0  0  0  0  0  0  0  0  0
   10.0837  -18.5202   26.6042 O   0  0  0  0  0  0  0  0  0  0  0  0
   11.8173  -17.9221   27.9255 O   0  0  0  0  0  0  0  0  0  0  0  0
  2  1  1  6
  2  3  1  0
  4  3  1  0
  4  8  1  0
  5  4  2  0
  6  2  1  0
  7  6  2  0
  9 10  1  0
 10 11  1  0
 12 11  1  0
 13 12  1  1
 13 14  1  0
 14  6  1  0
 15 22  1  0
 15 13  1  0
 16 15  2  0
 18 17  1  0
 18 19  1  0
 19 20  1  6
 21 19  1  0
 21 23  1  0
 21 22  1  6
 23 24  1  0
 25 23  2  0
M  END
$$$$
