DMI.pdb
     RDKit          3D

 25 24  0  0  1  0  0  0  0  0999 V2000
   10.6801  -16.2856   19.6579 N   0  0  0  0  0  0  0  0  0  0  0  0
   10.1790  -17.0949   20.7220 C   0  0  1  0  0  0  0  0  0  0  0  0
   11.0553  -18.2906   21.0238 C   0  0  0  0  0  0  0  0  0  0  0  0
   11.0949  -19.2734   19.9338 C   0  0  0  0  0  0  0  0  0  0  0  0
   10.0810  -19.4747   19.2357 O   0  0  0  0  0  0  0  0  0  0  0  0
    9.9146  -16.3611   21.9748 C   0  0  0  0  0  0  0  0  0  0  0  0
   10.7787  -15.5926   22.4725 O   0  0  0  0  0  0  0  0  0  0  0  0
   12.2456  -19.9834   19.6675 O   0  0  0  0  0  0  0  0  0  0  0  0
    6.5576  -12.2466   26.7433 C   0  0  0  0  0  0  0  0  0  0  0  0
    6.9610  -13.1861   25.2586 S   0  0  0  0  0  0  0  0  0  0  0  0
    6.5892  -14.9685   25.4970 C   0  0  0  0  0  0  0  0  0  0  0  0
    6.9545  -15.6535   24.2204 C   0  0  0  0  0  0  0  0  0  0  0  0
    8.4104  -15.6539   23.8871 C   0  0  2  0  0  0  0  0  0  0  0  0
    8.6893  -16.4563   22.7144 N   0  0  0  0  0  0  0  0  0  0  0  0
    9.0985  -16.2941   25.0743 C   0  0  0  0  0  0  0  0  0  0  0  0
    9.2368  -17.5596   25.0873 O   0  0  0  0  0  0  0  0  0  0  0  0
   10.5321  -13.4714   30.0184 C   0  0  0  0  0  0  0  0  0  0  0  0
    9.9413  -14.3296   28.9538 C   0  0  0  0  0  0  0  0  0  0  0  0
   10.8599  -15.1996   28.2034 C   0  0  2  0  0  0  0  0  0  0  0  0
   11.9778  -14.3629   27.5754 C   0  0  0  0  0  0  0  0  0  0  0  0
   10.3156  -16.1600   27.2172 C   0  0  2  0  0  0  0  0  0  0  0  0
    9.5775  -15.5022   26.1466 N   0  0  0  0  0  0  0  0  0  0  0  0
    9.3900  -17.1348   27.8099 C   0  0  0  0  0  0  0  0  0  0  0  0
    9.9179  -18.1578   28.5988 O   0  0  0  0  0  0  0  0  0  0  0  0
    8.1449  -17.1198   27.6564 O   0  0  0  0  0  0  0  0  0  0  0  0
  2  1  1  6
  2  3  1  0
  4  3  1  0
  4  8  1  0
  5  4  2  0
  6  2  1  0
  7  6  2  0
  9 10  1  0
 10 11  1  0
 12 11  1  0
 13 12  1  1
 13 14  1  0
 14  6  1  0
 15 22  1  0
 15 13  1  0
 16 15  2  0
 18 17  1  0
 18 19  1  0
 19 20  1  6
 21 19  1  0
 21 23  1  0
 21 22  1  6
 23 24  1  0
 25 23  2  0
M  END
$$$$
