DMI.pdb
     RDKit          3D

 25 24  0  0  1  0  0  0  0  0999 V2000
    9.5714  -16.2272   19.3674 N   0  0  0  0  0  0  0  0  0  0  0  0
    9.8642  -16.9956   20.5345 C   0  0  1  0  0  0  0  0  0  0  0  0
   11.2613  -17.5758   20.5303 C   0  0  0  0  0  0  0  0  0  0  0  0
   11.4232  -18.6971   19.5963 C   0  0  0  0  0  0  0  0  0  0  0  0
   10.7728  -18.7241   18.5324 O   0  0  0  0  0  0  0  0  0  0  0  0
    9.6411  -16.2822   21.8071 C   0  0  0  0  0  0  0  0  0  0  0  0
   10.3379  -15.2821   22.1221 O   0  0  0  0  0  0  0  0  0  0  0  0
   12.2908  -19.7297   19.8798 O   0  0  0  0  0  0  0  0  0  0  0  0
    6.2550  -12.5337   26.7329 C   0  0  0  0  0  0  0  0  0  0  0  0
    6.6583  -13.5022   25.2669 S   0  0  0  0  0  0  0  0  0  0  0  0
    6.5517  -15.2998   25.6267 C   0  0  0  0  0  0  0  0  0  0  0  0
    6.9245  -16.0086   24.3655 C   0  0  0  0  0  0  0  0  0  0  0  0
    8.3514  -15.8660   23.9478 C   0  0  2  0  0  0  0  0  0  0  0  0
    8.6436  -16.6538   22.7684 N   0  0  0  0  0  0  0  0  0  0  0  0
    9.1681  -16.4146   25.0988 C   0  0  0  0  0  0  0  0  0  0  0  0
    9.7528  -17.5357   24.9495 O   0  0  0  0  0  0  0  0  0  0  0  0
   10.5200  -12.8375   29.3756 C   0  0  0  0  0  0  0  0  0  0  0  0
   10.6265  -13.7376   28.1935 C   0  0  0  0  0  0  0  0  0  0  0  0
   10.4040  -15.1741   28.4187 C   0  0  2  0  0  0  0  0  0  0  0  0
   11.4079  -15.7047   29.4457 C   0  0  0  0  0  0  0  0  0  0  0  0
   10.3153  -16.0908   27.2599 C   0  0  2  0  0  0  0  0  0  0  0  0
    9.2787  -15.6963   26.3145 N   0  0  0  0  0  0  0  0  0  0  0  0
   10.0115  -17.4767   27.6413 C   0  0  0  0  0  0  0  0  0  0  0  0
    8.6753  -17.8777   27.6793 O   0  0  0  0  0  0  0  0  0  0  0  0
   10.8725  -18.3379   27.9427 O   0  0  0  0  0  0  0  0  0  0  0  0
  2  1  1  6
  2  3  1  0
  4  3  1  0
  4  8  1  0
  5  4  2  0
  6  2  1  0
  7  6  2  0
  9 10  1  0
 10 11  1  0
 12 11  1  0
 13 12  1  1
 13 14  1  0
 14  6  1  0
 15 22  1  0
 15 13  1  0
 16 15  2  0
 18 17  1  0
 18 19  1  0
 19 20  1  1
 21 19  1  0
 21 23  1  0
 21 22  1  6
 23 24  1  0
 25 23  2  0
M  END
$$$$
