DMI.pdb
     RDKit          3D

 25 24  0  0  1  0  0  0  0  0999 V2000
    9.5065  -16.5686   19.8341 N   0  0  0  0  0  0  0  0  0  0  0  0
   10.5108  -16.8508   20.8088 C   0  0  1  0  0  0  0  0  0  0  0  0
   11.9178  -16.6658   20.2846 C   0  0  0  0  0  0  0  0  0  0  0  0
   12.2336  -17.5361   19.1450 C   0  0  0  0  0  0  0  0  0  0  0  0
   12.6999  -17.0486   18.0958 O   0  0  0  0  0  0  0  0  0  0  0  0
   10.3635  -16.1019   22.0719 C   0  0  0  0  0  0  0  0  0  0  0  0
   11.3442  -15.5105   22.5947 O   0  0  0  0  0  0  0  0  0  0  0  0
   12.0208  -18.8958   19.2174 O   0  0  0  0  0  0  0  0  0  0  0  0
    5.6884  -11.7934   25.0327 C   0  0  0  0  0  0  0  0  0  0  0  0
    5.6276  -13.5198   25.5479 S   0  0  0  0  0  0  0  0  0  0  0  0
    7.3170  -14.2354   25.6215 C   0  0  0  0  0  0  0  0  0  0  0  0
    7.5792  -14.8452   24.2830 C   0  0  0  0  0  0  0  0  0  0  0  0
    8.9998  -15.2228   24.0179 C   0  0  2  0  0  0  0  0  0  0  0  0
    9.1297  -15.9860   22.7941 N   0  0  0  0  0  0  0  0  0  0  0  0
    9.4069  -16.1098   25.1754 C   0  0  0  0  0  0  0  0  0  0  0  0
    9.6321  -17.3420   24.9474 O   0  0  0  0  0  0  0  0  0  0  0  0
   10.8570  -13.2836   29.8178 C   0  0  0  0  0  0  0  0  0  0  0  0
   10.9788  -14.1095   28.5841 C   0  0  0  0  0  0  0  0  0  0  0  0
   10.5963  -15.5265   28.6820 C   0  0  2  0  0  0  0  0  0  0  0  0
   11.5707  -16.2697   29.5998 C   0  0  0  0  0  0  0  0  0  0  0  0
   10.3523  -16.3051   27.4469 C   0  0  2  0  0  0  0  0  0  0  0  0
    9.5343  -15.5802   26.4829 N   0  0  0  0  0  0  0  0  0  0  0  0
    9.6596  -17.5770   27.6929 C   0  0  0  0  0  0  0  0  0  0  0  0
   10.4272  -18.7314   27.8536 O   0  0  0  0  0  0  0  0  0  0  0  0
    8.4140  -17.7074   27.7673 O   0  0  0  0  0  0  0  0  0  0  0  0
  2  1  1  6
  2  3  1  0
  4  3  1  0
  4  8  1  0
  5  4  2  0
  6  2  1  0
  7  6  2  0
  9 10  1  0
 10 11  1  0
 12 11  1  0
 13 12  1  1
 13 14  1  0
 14  6  1  0
 15 22  1  0
 15 13  1  0
 16 15  2  0
 18 17  1  0
 18 19  1  0
 19 20  1  6
 21 19  1  0
 21 23  1  0
 21 22  1  6
 23 24  1  0
 25 23  2  0
M  END
$$$$
