DMI.pdb
     RDKit          3D

 25 24  0  0  1  0  0  0  0  0999 V2000
   10.4083  -16.8031   19.3591 N   0  0  0  0  0  0  0  0  0  0  0  0
    9.8056  -17.3634   20.5258 C   0  0  1  0  0  0  0  0  0  0  0  0
   10.3482  -18.7310   20.8778 C   0  0  0  0  0  0  0  0  0  0  0  0
   10.1188  -19.7353   19.8316 C   0  0  0  0  0  0  0  0  0  0  0  0
    8.9689  -19.9243   19.3871 O   0  0  0  0  0  0  0  0  0  0  0  0
    9.8655  -16.4979   21.7197 C   0  0  0  0  0  0  0  0  0  0  0  0
   10.9339  -15.9196   22.0500 O   0  0  0  0  0  0  0  0  0  0  0  0
   11.1643  -20.4791   19.3286 O   0  0  0  0  0  0  0  0  0  0  0  0
    5.5206  -12.0329   26.6287 C   0  0  0  0  0  0  0  0  0  0  0  0
    5.6632  -13.3860   25.4462 S   0  0  0  0  0  0  0  0  0  0  0  0
    7.4198  -13.8742   25.2267 C   0  0  0  0  0  0  0  0  0  0  0  0
    7.4512  -14.8539   24.0992 C   0  0  0  0  0  0  0  0  0  0  0  0
    8.8087  -15.3403   23.7104 C   0  0  2  0  0  0  0  0  0  0  0  0
    8.7480  -16.2476   22.5834 N   0  0  0  0  0  0  0  0  0  0  0  0
    9.3239  -16.1077   24.9096 C   0  0  0  0  0  0  0  0  0  0  0  0
    9.1282  -17.3648   24.9571 O   0  0  0  0  0  0  0  0  0  0  0  0
   10.0990  -13.9015   30.1786 C   0  0  0  0  0  0  0  0  0  0  0  0
    9.7147  -14.7568   29.0211 C   0  0  0  0  0  0  0  0  0  0  0  0
   10.8031  -15.3948   28.2648 C   0  0  2  0  0  0  0  0  0  0  0  0
   11.8730  -14.3582   27.9117 C   0  0  0  0  0  0  0  0  0  0  0  0
   10.4823  -16.2301   27.0856 C   0  0  2  0  0  0  0  0  0  0  0  0
   10.0084  -15.4414   25.9555 N   0  0  0  0  0  0  0  0  0  0  0  0
    9.4375  -17.2282   27.3513 C   0  0  0  0  0  0  0  0  0  0  0  0
    9.7574  -18.3292   28.1470 O   0  0  0  0  0  0  0  0  0  0  0  0
    8.2650  -17.1676   26.9091 O   0  0  0  0  0  0  0  0  0  0  0  0
  2  1  1  6
  2  3  1  0
  4  3  1  0
  4  8  1  0
  5  4  2  0
  6  2  1  0
  7  6  2  0
  9 10  1  0
 10 11  1  0
 12 11  1  0
 13 12  1  1
 13 14  1  0
 14  6  1  0
 15 22  1  0
 15 13  1  0
 16 15  2  0
 18 17  1  0
 18 19  1  0
 19 20  1  6
 21 19  1  0
 21 23  1  0
 21 22  1  6
 23 24  1  0
 25 23  2  0
M  END
$$$$
