DMI.pdb
     RDKit          3D

 25 24  0  0  1  0  0  0  0  0999 V2000
    9.1399  -17.6880   20.3552 N   0  0  0  0  0  0  0  0  0  0  0  0
   10.3861  -17.2117   20.8636 C   0  0  1  0  0  0  0  0  0  0  0  0
   11.2211  -16.5001   19.8220 C   0  0  0  0  0  0  0  0  0  0  0  0
   11.4800  -17.3141   18.6278 C   0  0  0  0  0  0  0  0  0  0  0  0
   11.0229  -16.9646   17.5212 O   0  0  0  0  0  0  0  0  0  0  0  0
   10.2702  -16.3537   22.0587 C   0  0  0  0  0  0  0  0  0  0  0  0
   11.2590  -15.7055   22.4915 O   0  0  0  0  0  0  0  0  0  0  0  0
   12.2273  -18.4690   18.7116 O   0  0  0  0  0  0  0  0  0  0  0  0
    5.8230  -11.8555   25.0424 C   0  0  0  0  0  0  0  0  0  0  0  0
    5.7150  -13.5685   25.5933 S   0  0  0  0  0  0  0  0  0  0  0  0
    7.3822  -14.3352   25.6612 C   0  0  0  0  0  0  0  0  0  0  0  0
    7.5682  -15.0637   24.3702 C   0  0  0  0  0  0  0  0  0  0  0  0
    8.9822  -15.3889   24.0156 C   0  0  2  0  0  0  0  0  0  0  0  0
    9.0600  -16.1881   22.8105 N   0  0  0  0  0  0  0  0  0  0  0  0
    9.5097  -16.2167   25.1685 C   0  0  0  0  0  0  0  0  0  0  0  0
    9.5182  -17.4846   25.0528 O   0  0  0  0  0  0  0  0  0  0  0  0
   10.1841  -14.9913   30.3777 C   0  0  0  0  0  0  0  0  0  0  0  0
   10.7191  -14.5584   29.0567 C   0  0  0  0  0  0  0  0  0  0  0  0
   11.4786  -15.5503   28.2801 C   0  0  2  0  0  0  0  0  0  0  0  0
   12.7158  -14.8946   27.6608 C   0  0  0  0  0  0  0  0  0  0  0  0
   10.7793  -16.3859   27.2782 C   0  0  2  0  0  0  0  0  0  0  0  0
    9.9830  -15.5941   26.3494 N   0  0  0  0  0  0  0  0  0  0  0  0
    9.8559  -17.3577   27.8793 C   0  0  0  0  0  0  0  0  0  0  0  0
   10.3923  -18.4312   28.5916 O   0  0  0  0  0  0  0  0  0  0  0  0
    8.6055  -17.2974   27.7975 O   0  0  0  0  0  0  0  0  0  0  0  0
  2  1  1  6
  2  3  1  0
  4  3  1  0
  4  8  1  0
  5  4  2  0
  6  2  1  0
  7  6  2  0
  9 10  1  0
 10 11  1  0
 12 11  1  0
 13 12  1  1
 13 14  1  0
 14  6  1  0
 15 22  1  0
 15 13  1  0
 16 15  2  0
 18 17  1  0
 18 19  1  0
 19 20  1  6
 21 19  1  0
 21 23  1  0
 21 22  1  6
 23 24  1  0
 25 23  2  0
M  END
$$$$
