RIN.pdb
     RDKit          3D

 28 27  0  0  1  0  0  0  0  0999 V2000
    7.7123  -12.6609   17.7642 N   0  0  0  0  0  0  0  0  0  0  0  0
    8.1865  -13.8500   17.1416 C   0  0  0  0  0  0  0  0  0  0  0  0
    8.3904  -13.8958   15.8550 N   0  0  0  0  0  0  0  0  0  0  0  0
    8.4591  -15.0334   17.8780 N   0  0  0  0  0  0  0  0  0  0  0  0
    7.3965  -15.7986   18.4923 C   0  0  0  0  0  0  0  0  0  0  0  0
    6.9176  -15.0146   19.6888 C   0  0  0  0  0  0  0  0  0  0  0  0
    8.0484  -14.6434   20.6322 C   0  0  0  0  0  0  0  0  0  0  0  0
    8.0273  -15.6809   21.7407 C   0  0  2  0  0  0  0  0  0  0  0  0
    6.6814  -16.1457   21.9930 N   0  0  0  0  0  0  0  0  0  0  0  0
    8.6004  -15.1726   23.0104 C   0  0  0  0  0  0  0  0  0  0  0  0
    9.7771  -14.7078   23.0436 O   0  0  0  0  0  0  0  0  0  0  0  0
    8.7154  -14.7048   15.3250 C   0  0  0  0  0  0  0  0  0  0  0  0
    6.2712  -11.8193   26.0545 C   0  0  0  0  0  0  0  0  0  0  0  0
    7.3161  -12.6956   25.4454 C   0  0  2  0  0  0  0  0  0  0  0  0
    7.6379  -13.9293   26.2818 C   0  0  0  0  0  0  0  0  0  0  0  0
    8.2503  -13.4406   27.5537 C   0  0  2  0  0  0  0  0  0  0  0  0
    8.5427  -14.8210   25.4964 N   0  0  0  0  0  0  0  0  0  0  0  0
    7.8880  -15.1748   24.2319 C   0  0  0  0  0  0  0  0  0  0  0  0
    8.9353  -16.0717   26.2053 O   0  0  0  0  0  0  0  0  0  0  0  0
    7.9908  -16.8791   26.5122 N   0  0  0  0  0  0  0  0  0  0  0  0
   11.3586  -19.2760   24.4831 C   0  0  0  0  0  0  0  0  0  0  0  0
   11.9554  -18.2355   25.2479 O   0  0  0  0  0  0  0  0  0  0  0  0
   12.6051  -17.3837   24.5908 C   0  0  0  0  0  0  0  0  0  0  0  0
   11.7498  -18.2726   26.6874 C   0  0  2  0  0  0  0  0  0  0  0  0
   10.4559  -17.7729   27.2106 N   0  0  0  0  0  0  0  0  0  0  0  0
   10.2202  -16.4672   26.5715 C   0  0  0  0  0  0  0  0  0  0  0  0
   10.4658  -17.6135   28.6786 O   0  0  0  0  0  0  0  0  0  0  0  0
   10.4758  -18.7859   29.4627 O   0  0  0  0  0  0  0  0  0  0  0  0
  2  1  1  0
  3  2  2  0
  4  2  1  0
  5  4  1  0
  6  5  1  0
  7  6  1  0
  8  7  1  0
  8  9  1  1
 10 17  1  0
 10  8  1  0
 11 10  2  0
 13 12  1  0
 14 13  1  0
 14 16  1  0
 14 15  1  1
 16 17  1  6
 18 25  1  0
 18 16  1  0
 19 18  2  0
 20 21  1  0
 21 22  2  0
 23 21  1  0
 24 23  1  6
 24 26  1  0
 24 25  1  0
 26 27  1  0
 28 26  2  0
M  END
$$$$
