RIN.pdb
     RDKit          3D

 28 27  0  0  1  0  0  0  0  0999 V2000
    7.2559  -15.0484   16.9757 N   0  0  0  0  0  0  0  0  0  0  0  0
    8.0329  -14.0093   17.5613 C   0  0  0  0  0  0  0  0  0  0  0  0
    8.0764  -12.8226   17.0239 N   0  0  0  0  0  0  0  0  0  0  0  0
    8.7917  -14.2067   18.7455 N   0  0  0  0  0  0  0  0  0  0  0  0
    9.0250  -15.5314   19.2772 C   0  0  0  0  0  0  0  0  0  0  0  0
    7.6747  -16.1648   19.5033 C   0  0  0  0  0  0  0  0  0  0  0  0
    7.5628  -16.8266   20.8656 C   0  0  0  0  0  0  0  0  0  0  0  0
    6.7798  -15.8611   21.7377 C   0  0  2  0  0  0  0  0  0  0  0  0
    6.2117  -14.7907   20.9488 N   0  0  0  0  0  0  0  0  0  0  0  0
    7.6049  -15.2689   22.8181 C   0  0  0  0  0  0  0  0  0  0  0  0
    8.6242  -14.5723   22.5398 O   0  0  0  0  0  0  0  0  0  0  0  0
    8.6540  -12.0412   17.3351 C   0  0  0  0  0  0  0  0  0  0  0  0
    6.0750  -11.8510   25.9051 C   0  0  0  0  0  0  0  0  0  0  0  0
    7.0297  -12.7724   25.2192 C   0  0  2  0  0  0  0  0  0  0  0  0
    7.4627  -13.9521   26.0830 C   0  0  0  0  0  0  0  0  0  0  0  0
    8.2837  -13.3918   27.1983 C   0  0  2  0  0  0  0  0  0  0  0  0
    8.2108  -14.9240   25.2308 N   0  0  0  0  0  0  0  0  0  0  0  0
    7.3133  -15.4402   24.1912 C   0  0  0  0  0  0  0  0  0  0  0  0
    8.7947  -16.0721   25.9806 O   0  0  0  0  0  0  0  0  0  0  0  0
    7.9685  -16.8655   26.5514 N   0  0  0  0  0  0  0  0  0  0  0  0
   12.8002  -17.7437   24.1287 C   0  0  0  0  0  0  0  0  0  0  0  0
   11.8530  -18.3932   24.9681 O   0  0  0  0  0  0  0  0  0  0  0  0
   11.1133  -19.2358   24.4005 C   0  0  0  0  0  0  0  0  0  0  0  0
   11.8462  -18.0147   26.3725 C   0  0  2  0  0  0  0  0  0  0  0  0
   10.5682  -17.5327   26.9489 N   0  0  0  0  0  0  0  0  0  0  0  0
   10.1442  -16.3847   26.1296 C   0  0  0  0  0  0  0  0  0  0  0  0
   10.7085  -17.1136   28.3578 O   0  0  0  0  0  0  0  0  0  0  0  0
   11.0008  -18.1120   29.3102 O   0  0  0  0  0  0  0  0  0  0  0  0
  2  1  1  0
  3  2  2  0
  4  2  1  0
  5  4  1  0
  6  5  1  0
  7  6  1  0
  8  7  1  0
  8  9  1  6
 10 17  1  0
 10  8  1  0
 11 10  2  0
 13 12  1  0
 14 13  1  0
 14 16  1  0
 14 15  1  1
 16 17  1  6
 18 25  1  0
 18 16  1  0
 19 18  2  0
 20 21  1  0
 21 22  2  0
 23 21  1  0
 24 23  1  6
 24 26  1  0
 24 25  1  0
 26 27  1  0
 28 26  2  0
M  END
$$$$
