RIN.pdb
     RDKit          3D

 28 27  0  0  1  0  0  0  0  0999 V2000
    9.1754  -13.8094   14.9591 N   0  0  0  0  0  0  0  0  0  0  0  0
    8.1056  -13.7807   15.8978 C   0  0  0  0  0  0  0  0  0  0  0  0
    6.9593  -14.3369   15.6229 N   0  0  0  0  0  0  0  0  0  0  0  0
    8.2278  -13.1536   17.1662 N   0  0  0  0  0  0  0  0  0  0  0  0
    8.5302  -13.9171   18.3568 C   0  0  0  0  0  0  0  0  0  0  0  0
    7.2145  -14.2789   19.0000 C   0  0  0  0  0  0  0  0  0  0  0  0
    7.1836  -13.9563   20.4837 C   0  0  0  0  0  0  0  0  0  0  0  0
    7.6167  -15.2246   21.1977 C   0  0  2  0  0  0  0  0  0  0  0  0
    6.4943  -16.1111   21.4106 N   0  0  0  0  0  0  0  0  0  0  0  0
    8.2623  -14.9529   22.5046 C   0  0  0  0  0  0  0  0  0  0  0  0
    9.4889  -14.6468   22.5641 O   0  0  0  0  0  0  0  0  0  0  0  0
    6.1365  -14.3509   16.2260 C   0  0  0  0  0  0  0  0  0  0  0  0
    5.9174  -11.8553   25.6009 C   0  0  0  0  0  0  0  0  0  0  0  0
    7.1417  -12.5747   25.1379 C   0  0  2  0  0  0  0  0  0  0  0  0
    7.3809  -13.8954   25.8615 C   0  0  0  0  0  0  0  0  0  0  0  0
    7.9972  -13.5595   27.1802 C   0  0  2  0  0  0  0  0  0  0  0  0
    8.2488  -14.7615   25.0087 N   0  0  0  0  0  0  0  0  0  0  0  0
    7.5674  -15.0166   23.7345 C   0  0  0  0  0  0  0  0  0  0  0  0
    8.6138  -16.0649   25.6324 O   0  0  0  0  0  0  0  0  0  0  0  0
    7.8858  -17.0722   25.3268 N   0  0  0  0  0  0  0  0  0  0  0  0
   13.0526  -19.1243   24.9933 C   0  0  0  0  0  0  0  0  0  0  0  0
   11.6668  -19.2204   25.2999 O   0  0  0  0  0  0  0  0  0  0  0  0
   11.2288  -20.3858   25.4713 C   0  0  0  0  0  0  0  0  0  0  0  0
   10.9200  -17.9747   25.3799 C   0  0  2  0  0  0  0  0  0  0  0  0
   10.2260  -17.6693   26.6538 N   0  0  0  0  0  0  0  0  0  0  0  0
    9.6646  -16.3151   26.5124 C   0  0  0  0  0  0  0  0  0  0  0  0
   11.1367  -17.7114   27.8154 O   0  0  0  0  0  0  0  0  0  0  0  0
   11.7518  -16.5041   28.2071 O   0  0  0  0  0  0  0  0  0  0  0  0
  2  1  1  0
  3  2  2  0
  4  2  1  0
  5  4  1  0
  6  5  1  0
  7  6  1  0
  8  7  1  0
  8  9  1  1
 10 17  1  0
 10  8  1  0
 11 10  2  0
 13 12  1  0
 14 13  1  0
 14 16  1  0
 14 15  1  6
 16 17  1  6
 18 25  1  0
 18 16  1  0
 19 18  2  0
 20 21  1  0
 21 22  2  0
 23 21  1  0
 24 23  1  6
 24 26  1  0
 24 25  1  0
 26 27  1  0
 28 26  2  0
M  END
$$$$
