RIN.pdb
     RDKit          3D

 28 27  0  0  1  0  0  0  0  0999 V2000
    9.4777  -14.9944   16.4737 N   0  0  0  0  0  0  0  0  0  0  0  0
    8.2766  -14.3328   16.0913 C   0  0  0  0  0  0  0  0  0  0  0  0
    7.8285  -14.4131   14.8700 N   0  0  0  0  0  0  0  0  0  0  0  0
    7.5130  -13.5608   17.0067 N   0  0  0  0  0  0  0  0  0  0  0  0
    8.0987  -13.0380   18.2215 C   0  0  0  0  0  0  0  0  0  0  0  0
    7.8614  -14.0596   19.3057 C   0  0  0  0  0  0  0  0  0  0  0  0
    8.4616  -13.6449   20.6378 C   0  0  0  0  0  0  0  0  0  0  0  0
    8.3934  -14.8727   21.5287 C   0  0  2  0  0  0  0  0  0  0  0  0
    7.0403  -15.3742   21.6210 N   0  0  0  0  0  0  0  0  0  0  0  0
    8.8987  -14.6137   22.8985 C   0  0  0  0  0  0  0  0  0  0  0  0
   10.0947  -14.2428   23.0828 O   0  0  0  0  0  0  0  0  0  0  0  0
    6.9768  -13.9807   14.5113 C   0  0  0  0  0  0  0  0  0  0  0  0
    5.9305  -11.9034   26.1777 C   0  0  0  0  0  0  0  0  0  0  0  0
    7.1318  -12.5296   25.5486 C   0  0  2  0  0  0  0  0  0  0  0  0
    7.5563  -13.8340   26.2144 C   0  0  0  0  0  0  0  0  0  0  0  0
    8.0017  -13.4874   27.5976 C   0  0  2  0  0  0  0  0  0  0  0  0
    8.6291  -14.4680   25.3912 N   0  0  0  0  0  0  0  0  0  0  0  0
    8.0983  -14.7606   24.0549 C   0  0  0  0  0  0  0  0  0  0  0  0
    9.1889  -15.7198   25.9748 O   0  0  0  0  0  0  0  0  0  0  0  0
    9.8124  -15.6068   27.0868 N   0  0  0  0  0  0  0  0  0  0  0  0
   13.4023  -18.9504   25.8187 C   0  0  0  0  0  0  0  0  0  0  0  0
   12.0293  -19.3133   25.7355 O   0  0  0  0  0  0  0  0  0  0  0  0
   11.7619  -20.5002   26.0504 C   0  0  0  0  0  0  0  0  0  0  0  0
   11.0990  -18.2831   25.3006 C   0  0  2  0  0  0  0  0  0  0  0  0
    9.8401  -18.1248   26.0674 N   0  0  0  0  0  0  0  0  0  0  0  0
    9.1083  -17.0071   25.4478 C   0  0  0  0  0  0  0  0  0  0  0  0
   10.0828  -17.8305   27.4939 O   0  0  0  0  0  0  0  0  0  0  0  0
    9.6780  -18.7969   28.4381 O   0  0  0  0  0  0  0  0  0  0  0  0
  2  1  1  0
  3  2  2  0
  4  2  1  0
  5  4  1  0
  6  5  1  0
  7  6  1  0
  8  7  1  0
  8  9  1  1
 10 17  1  0
 10  8  1  0
 11 10  2  0
 13 12  1  0
 14 13  1  0
 14 16  1  0
 14 15  1  6
 16 17  1  6
 18 25  1  0
 18 16  1  0
 19 18  2  0
 20 21  1  0
 21 22  2  0
 23 21  1  0
 24 23  1  6
 24 26  1  0
 24 25  1  0
 26 27  1  0
 28 26  2  0
M  END
$$$$
