RIN.pdb
     RDKit          3D

 28 27  0  0  1  0  0  0  0  0999 V2000
    6.2615  -17.4239   17.0050 N   0  0  0  0  0  0  0  0  0  0  0  0
    6.0724  -18.5326   17.8778 C   0  0  0  0  0  0  0  0  0  0  0  0
    4.9995  -19.2687   17.8013 N   0  0  0  0  0  0  0  0  0  0  0  0
    7.0288  -18.8912   18.8645 N   0  0  0  0  0  0  0  0  0  0  0  0
    8.2109  -18.0895   19.0927 C   0  0  0  0  0  0  0  0  0  0  0  0
    7.7580  -16.8004   19.7319 C   0  0  0  0  0  0  0  0  0  0  0  0
    8.5038  -16.4955   21.0193 C   0  0  0  0  0  0  0  0  0  0  0  0
    7.9087  -15.2043   21.5528 C   0  0  2  0  0  0  0  0  0  0  0  0
    8.1108  -14.1151   20.6234 N   0  0  0  0  0  0  0  0  0  0  0  0
    8.4713  -14.8166   22.8688 C   0  0  0  0  0  0  0  0  0  0  0  0
    9.6520  -14.3693   22.9564 O   0  0  0  0  0  0  0  0  0  0  0  0
    4.7614  -20.0515   18.4108 C   0  0  0  0  0  0  0  0  0  0  0  0
    5.8129  -11.8864   26.3081 C   0  0  0  0  0  0  0  0  0  0  0  0
    6.9238  -12.5802   25.5902 C   0  0  2  0  0  0  0  0  0  0  0  0
    7.3227  -13.9077   26.2256 C   0  0  0  0  0  0  0  0  0  0  0  0
    7.8158  -13.5968   27.6011 C   0  0  2  0  0  0  0  0  0  0  0  0
    8.3518  -14.5637   25.3647 N   0  0  0  0  0  0  0  0  0  0  0  0
    7.7441  -14.9191   24.0773 C   0  0  0  0  0  0  0  0  0  0  0  0
    8.9641  -15.7830   25.9644 O   0  0  0  0  0  0  0  0  0  0  0  0
    8.1909  -16.7877   26.1395 N   0  0  0  0  0  0  0  0  0  0  0  0
   11.3310  -17.5364   24.2281 C   0  0  0  0  0  0  0  0  0  0  0  0
   12.4458  -17.5252   25.1117 O   0  0  0  0  0  0  0  0  0  0  0  0
   13.5726  -17.6265   24.5645 C   0  0  0  0  0  0  0  0  0  0  0  0
   12.1612  -17.3992   26.5326 C   0  0  2  0  0  0  0  0  0  0  0  0
   10.7453  -17.2305   26.9383 N   0  0  0  0  0  0  0  0  0  0  0  0
   10.2900  -15.9570   26.3555 C   0  0  0  0  0  0  0  0  0  0  0  0
   10.5804  -17.1934   28.4052 O   0  0  0  0  0  0  0  0  0  0  0  0
   10.7054  -18.4103   29.1074 O   0  0  0  0  0  0  0  0  0  0  0  0
  2  1  1  0
  3  2  2  0
  4  2  1  0
  5  4  1  0
  6  5  1  0
  7  6  1  0
  8  7  1  0
  8  9  1  6
 10 17  1  0
 10  8  1  0
 11 10  2  0
 13 12  1  0
 14 13  1  0
 14 16  1  0
 14 15  1  6
 16 17  1  6
 18 25  1  0
 18 16  1  0
 19 18  2  0
 20 21  1  0
 21 22  2  0
 23 21  1  0
 24 23  1  6
 24 26  1  0
 24 25  1  0
 26 27  1  0
 28 26  2  0
M  END
$$$$
