RIN.pdb
     RDKit          3D

 28 27  0  0  1  0  0  0  0  0999 V2000
    7.4813  -12.9489   16.8431 N   0  0  0  0  0  0  0  0  0  0  0  0
    8.2417  -14.1277   16.6003 C   0  0  0  0  0  0  0  0  0  0  0  0
    8.8131  -14.3290   15.4462 N   0  0  0  0  0  0  0  0  0  0  0  0
    8.4160  -15.1332   17.5879 N   0  0  0  0  0  0  0  0  0  0  0  0
    7.3018  -15.6185   18.3721 C   0  0  0  0  0  0  0  0  0  0  0  0
    6.9587  -14.5424   19.3720 C   0  0  0  0  0  0  0  0  0  0  0  0
    8.1144  -14.2246   20.3048 C   0  0  0  0  0  0  0  0  0  0  0  0
    8.0728  -15.2779   21.3978 C   0  0  2  0  0  0  0  0  0  0  0  0
    6.7197  -15.7299   21.6338 N   0  0  0  0  0  0  0  0  0  0  0  0
    8.6428  -14.7951   22.6788 C   0  0  0  0  0  0  0  0  0  0  0  0
    9.7879  -14.2570   22.7103 O   0  0  0  0  0  0  0  0  0  0  0  0
    9.3782  -15.1380   15.1869 C   0  0  0  0  0  0  0  0  0  0  0  0
    5.8998  -11.9717   26.1623 C   0  0  0  0  0  0  0  0  0  0  0  0
    7.0511  -12.5823   25.4324 C   0  0  2  0  0  0  0  0  0  0  0  0
    7.5477  -13.8810   26.0585 C   0  0  0  0  0  0  0  0  0  0  0  0
    8.0604  -13.5359   27.4186 C   0  0  2  0  0  0  0  0  0  0  0  0
    8.5896  -14.4766   25.1693 N   0  0  0  0  0  0  0  0  0  0  0  0
    7.9617  -14.9023   23.9134 C   0  0  0  0  0  0  0  0  0  0  0  0
    9.3137  -15.6345   25.7658 O   0  0  0  0  0  0  0  0  0  0  0  0
   10.0555  -15.3883   26.7794 N   0  0  0  0  0  0  0  0  0  0  0  0
   11.4995  -19.6201   23.4619 C   0  0  0  0  0  0  0  0  0  0  0  0
   11.3737  -18.2761   23.9106 O   0  0  0  0  0  0  0  0  0  0  0  0
   11.2737  -17.4094   23.0061 C   0  0  0  0  0  0  0  0  0  0  0  0
   11.3745  -18.0570   25.3486 C   0  0  2  0  0  0  0  0  0  0  0  0
   10.0625  -17.9973   26.0362 N   0  0  0  0  0  0  0  0  0  0  0  0
    9.2733  -16.9626   25.3466 C   0  0  0  0  0  0  0  0  0  0  0  0
   10.1915  -17.6538   27.4665 O   0  0  0  0  0  0  0  0  0  0  0  0
   11.2722  -16.8306   27.8455 O   0  0  0  0  0  0  0  0  0  0  0  0
  2  1  1  0
  3  2  2  0
  4  2  1  0
  5  4  1  0
  6  5  1  0
  7  6  1  0
  8  7  1  0
  8  9  1  1
 10 17  1  0
 10  8  1  0
 11 10  2  0
 13 12  1  0
 14 13  1  0
 14 16  1  0
 14 15  1  6
 16 17  1  6
 18 25  1  0
 18 16  1  0
 19 18  2  0
 20 21  1  0
 21 22  2  0
 23 21  1  0
 24 23  1  6
 24 26  1  0
 24 25  1  0
 26 27  1  0
 28 26  2  0
M  END
$$$$
