RIN.pdb
     RDKit          3D

 28 27  0  0  1  0  0  0  0  0999 V2000
    6.2316  -17.4625   16.8937 N   0  0  0  0  0  0  0  0  0  0  0  0
    7.6415  -17.2655   16.8833 C   0  0  0  0  0  0  0  0  0  0  0  0
    8.4433  -18.1943   16.4437 N   0  0  0  0  0  0  0  0  0  0  0  0
    8.2416  -16.0638   17.3444 N   0  0  0  0  0  0  0  0  0  0  0  0
    7.4419  -14.9679   17.8458 C   0  0  0  0  0  0  0  0  0  0  0  0
    6.9273  -15.3768   19.2035 C   0  0  0  0  0  0  0  0  0  0  0  0
    7.9398  -15.1304   20.3083 C   0  0  0  0  0  0  0  0  0  0  0  0
    7.4532  -13.9019   21.0567 C   0  0  2  0  0  0  0  0  0  0  0  0
    7.7518  -12.6928   20.3221 N   0  0  0  0  0  0  0  0  0  0  0  0
    8.0392  -13.7902   22.4142 C   0  0  0  0  0  0  0  0  0  0  0  0
    9.2085  -13.3330   22.5737 O   0  0  0  0  0  0  0  0  0  0  0  0
    9.4622  -18.1475   16.4174 C   0  0  0  0  0  0  0  0  0  0  0  0
    5.7732  -11.4264   26.3261 C   0  0  0  0  0  0  0  0  0  0  0  0
    6.8279  -12.0917   25.5039 C   0  0  2  0  0  0  0  0  0  0  0  0
    7.0792  -13.5434   25.8968 C   0  0  0  0  0  0  0  0  0  0  0  0
    7.6365  -13.5251   27.2827 C   0  0  2  0  0  0  0  0  0  0  0  0
    8.0031  -14.1596   24.8981 N   0  0  0  0  0  0  0  0  0  0  0  0
    7.3476  -14.1770   23.5854 C   0  0  0  0  0  0  0  0  0  0  0  0
    8.4393  -15.5429   25.2402 O   0  0  0  0  0  0  0  0  0  0  0  0
    7.5237  -16.4348   25.3053 N   0  0  0  0  0  0  0  0  0  0  0  0
   12.4054  -16.9914   23.1309 C   0  0  0  0  0  0  0  0  0  0  0  0
   11.2998  -17.6716   23.7129 O   0  0  0  0  0  0  0  0  0  0  0  0
   10.4575  -18.1312   22.9013 C   0  0  0  0  0  0  0  0  0  0  0  0
   11.2674  -17.7584   25.1645 C   0  0  2  0  0  0  0  0  0  0  0  0
   10.0062  -17.3846   25.8482 N   0  0  0  0  0  0  0  0  0  0  0  0
    9.7373  -15.9803   25.4955 C   0  0  0  0  0  0  0  0  0  0  0  0
   10.0997  -17.5199   27.3156 O   0  0  0  0  0  0  0  0  0  0  0  0
    9.9562  -16.3497   28.0897 O   0  0  0  0  0  0  0  0  0  0  0  0
  2  1  1  0
  3  2  2  0
  4  2  1  0
  5  4  1  0
  6  5  1  0
  7  6  1  0
  8  7  1  0
  8  9  1  6
 10 17  1  0
 10  8  1  0
 11 10  2  0
 13 12  1  0
 14 13  1  0
 14 16  1  0
 14 15  1  6
 16 17  1  6
 18 25  1  0
 18 16  1  0
 19 18  2  0
 20 21  1  0
 21 22  2  0
 23 21  1  0
 24 23  1  6
 24 26  1  0
 24 25  1  0
 26 27  1  0
 28 26  2  0
M  END
$$$$
