RIN.pdb
     RDKit          3D

 28 27  0  0  1  0  0  0  0  0999 V2000
    6.4959  -16.5245   17.6972 N   0  0  0  0  0  0  0  0  0  0  0  0
    6.5190  -17.9072   17.3592 C   0  0  0  0  0  0  0  0  0  0  0  0
    5.7975  -18.3675   16.3760 N   0  0  0  0  0  0  0  0  0  0  0  0
    7.3176  -18.8460   18.0647 N   0  0  0  0  0  0  0  0  0  0  0  0
    8.0810  -18.4583   19.2304 C   0  0  0  0  0  0  0  0  0  0  0  0
    7.1243  -17.7933   20.1884 C   0  0  0  0  0  0  0  0  0  0  0  0
    7.7699  -17.4678   21.5240 C   0  0  0  0  0  0  0  0  0  0  0  0
    7.9517  -15.9603   21.5455 C   0  0  2  0  0  0  0  0  0  0  0  0
    8.8222  -15.5258   20.4757 N   0  0  0  0  0  0  0  0  0  0  0  0
    8.4991  -15.4689   22.8329 C   0  0  0  0  0  0  0  0  0  0  0  0
    9.7470  -15.4730   23.0440 O   0  0  0  0  0  0  0  0  0  0  0  0
    5.7492  -19.3390   16.0677 C   0  0  0  0  0  0  0  0  0  0  0  0
    5.9028  -11.6636   25.6534 C   0  0  0  0  0  0  0  0  0  0  0  0
    7.0188  -12.4977   25.1151 C   0  0  2  0  0  0  0  0  0  0  0  0
    7.2745  -13.7654   25.9229 C   0  0  0  0  0  0  0  0  0  0  0  0
    7.7685  -13.3303   27.2639 C   0  0  2  0  0  0  0  0  0  0  0  0
    8.2517  -14.6189   25.1831 N   0  0  0  0  0  0  0  0  0  0  0  0
    7.6838  -14.9776   23.8786 C   0  0  0  0  0  0  0  0  0  0  0  0
    8.6417  -15.8653   25.9010 O   0  0  0  0  0  0  0  0  0  0  0  0
    7.7451  -16.7727   26.0058 N   0  0  0  0  0  0  0  0  0  0  0  0
   11.1569  -19.9573   27.8572 C   0  0  0  0  0  0  0  0  0  0  0  0
   11.7349  -19.3866   26.6893 O   0  0  0  0  0  0  0  0  0  0  0  0
   12.6747  -20.0423   26.1733 C   0  0  0  0  0  0  0  0  0  0  0  0
   11.1808  -18.1233   26.2278 C   0  0  1  0  0  0  0  0  0  0  0  0
   10.1410  -17.4808   27.0667 N   0  0  0  0  0  0  0  0  0  0  0  0
    9.8782  -16.1595   26.4717 C   0  0  0  0  0  0  0  0  0  0  0  0
   10.5709  -17.3178   28.4699 O   0  0  0  0  0  0  0  0  0  0  0  0
   10.6572  -18.4792   29.2655 O   0  0  0  0  0  0  0  0  0  0  0  0
  2  1  1  0
  3  2  2  0
  4  2  1  0
  5  4  1  0
  6  5  1  0
  7  6  1  0
  8  7  1  0
  8  9  1  6
 10 17  1  0
 10  8  1  0
 11 10  2  0
 13 12  1  0
 14 13  1  0
 14 16  1  0
 14 15  1  6
 16 17  1  6
 18 25  1  0
 18 16  1  0
 19 18  2  0
 20 21  1  0
 21 22  2  0
 23 21  1  0
 24 23  1  6
 24 26  1  0
 24 25  1  0
 26 27  1  0
 28 26  2  0
M  END
$$$$
