RIN.pdb
     RDKit          3D

 28 27  0  0  1  0  0  0  0  0999 V2000
    9.1453  -14.4287   17.3419 N   0  0  0  0  0  0  0  0  0  0  0  0
    7.9007  -14.3338   16.6574 C   0  0  0  0  0  0  0  0  0  0  0  0
    7.8572  -14.2474   15.3575 N   0  0  0  0  0  0  0  0  0  0  0  0
    6.6575  -14.3281   17.3438 N   0  0  0  0  0  0  0  0  0  0  0  0
    6.5941  -14.2147   18.7843 C   0  0  0  0  0  0  0  0  0  0  0  0
    7.9244  -13.6747   19.2474 C   0  0  0  0  0  0  0  0  0  0  0  0
    7.9442  -13.3737   20.7359 C   0  0  0  0  0  0  0  0  0  0  0  0
    8.0245  -14.7195   21.4347 C   0  0  2  0  0  0  0  0  0  0  0  0
    6.7185  -15.3318   21.5366 N   0  0  0  0  0  0  0  0  0  0  0  0
    8.6119  -14.6242   22.7929 C   0  0  0  0  0  0  0  0  0  0  0  0
    9.8319  -14.3239   22.9457 O   0  0  0  0  0  0  0  0  0  0  0  0
    7.0225  -14.0916   14.7918 C   0  0  0  0  0  0  0  0  0  0  0  0
    5.9217  -12.0330   26.2208 C   0  0  0  0  0  0  0  0  0  0  0  0
    7.1214  -12.6612   25.5907 C   0  0  2  0  0  0  0  0  0  0  0  0
    7.4913  -14.0097   26.1987 C   0  0  0  0  0  0  0  0  0  0  0  0
    8.0367  -13.7334   27.5618 C   0  0  2  0  0  0  0  0  0  0  0  0
    8.4697  -14.6913   25.2994 N   0  0  0  0  0  0  0  0  0  0  0  0
    7.8666  -14.8563   23.9720 C   0  0  0  0  0  0  0  0  0  0  0  0
    8.9295  -16.0209   25.7912 O   0  0  0  0  0  0  0  0  0  0  0  0
    8.0265  -16.9087   25.9772 N   0  0  0  0  0  0  0  0  0  0  0  0
   12.7060  -17.3780   23.9247 C   0  0  0  0  0  0  0  0  0  0  0  0
   11.7990  -18.2634   24.5707 O   0  0  0  0  0  0  0  0  0  0  0  0
   11.1179  -18.9938   23.8078 C   0  0  0  0  0  0  0  0  0  0  0  0
   11.7612  -18.2254   26.0243 C   0  0  2  0  0  0  0  0  0  0  0  0
   10.5217  -17.7279   26.6675 N   0  0  0  0  0  0  0  0  0  0  0  0
   10.2373  -16.4120   26.0704 C   0  0  0  0  0  0  0  0  0  0  0  0
   10.6629  -17.5900   28.1308 O   0  0  0  0  0  0  0  0  0  0  0  0
   10.6309  -18.7692   28.9040 O   0  0  0  0  0  0  0  0  0  0  0  0
  2  1  1  0
  3  2  2  0
  4  2  1  0
  5  4  1  0
  6  5  1  0
  7  6  1  0
  8  7  1  0
  8  9  1  1
 10 17  1  0
 10  8  1  0
 11 10  2  0
 13 12  1  0
 14 13  1  0
 14 16  1  0
 14 15  1  6
 16 17  1  6
 18 25  1  0
 18 16  1  0
 19 18  2  0
 20 21  1  0
 21 22  2  0
 23 21  1  0
 24 23  1  6
 24 26  1  0
 24 25  1  0
 26 27  1  0
 28 26  2  0
M  END
$$$$
