RIN.pdb
     RDKit          3D

 28 27  0  0  1  0  0  0  0  0999 V2000
   10.0176  -19.0829   18.7343 N   0  0  0  0  0  0  0  0  0  0  0  0
    8.7619  -19.3697   18.1281 C   0  0  0  0  0  0  0  0  0  0  0  0
    8.6755  -19.6093   16.8498 N   0  0  0  0  0  0  0  0  0  0  0  0
    7.5532  -19.4096   18.8726 N   0  0  0  0  0  0  0  0  0  0  0  0
    7.5337  -19.1272   20.2910 C   0  0  0  0  0  0  0  0  0  0  0  0
    8.0292  -17.7138   20.4705 C   0  0  0  0  0  0  0  0  0  0  0  0
    7.9862  -17.2614   21.9197 C   0  0  0  0  0  0  0  0  0  0  0  0
    8.2610  -15.7681   21.9011 C   0  0  2  0  0  0  0  0  0  0  0  0
    9.2611  -15.4353   20.9111 N   0  0  0  0  0  0  0  0  0  0  0  0
    8.7060  -15.2524   23.2182 C   0  0  0  0  0  0  0  0  0  0  0  0
    9.9380  -15.1046   23.4674 O   0  0  0  0  0  0  0  0  0  0  0  0
    7.8213  -19.8183   16.3325 C   0  0  0  0  0  0  0  0  0  0  0  0
    5.7777  -11.5308   25.5374 C   0  0  0  0  0  0  0  0  0  0  0  0
    6.9226  -12.3958   25.1230 C   0  0  2  0  0  0  0  0  0  0  0  0
    7.2497  -13.4943   26.1287 C   0  0  0  0  0  0  0  0  0  0  0  0
    7.6992  -12.8136   27.3802 C   0  0  2  0  0  0  0  0  0  0  0  0
    8.2881  -14.3922   25.5404 N   0  0  0  0  0  0  0  0  0  0  0  0
    7.8066  -14.9024   24.2517 C   0  0  0  0  0  0  0  0  0  0  0  0
    8.6633  -15.5444   26.4079 O   0  0  0  0  0  0  0  0  0  0  0  0
    9.1601  -15.2635   27.5535 N   0  0  0  0  0  0  0  0  0  0  0  0
    7.3494  -19.8245   24.4540 C   0  0  0  0  0  0  0  0  0  0  0  0
    7.2720  -19.2479   25.7522 O   0  0  0  0  0  0  0  0  0  0  0  0
    6.1421  -18.8093   26.0844 C   0  0  0  0  0  0  0  0  0  0  0  0
    8.4940  -19.2304   26.5410 C   0  0  2  0  0  0  0  0  0  0  0  0
    8.9411  -17.9270   27.0880 N   0  0  0  0  0  0  0  0  0  0  0  0
    8.5317  -16.9002   26.1150 C   0  0  0  0  0  0  0  0  0  0  0  0
   10.4034  -17.8708   27.2850 O   0  0  0  0  0  0  0  0  0  0  0  0
   10.9796  -18.8060   28.1697 O   0  0  0  0  0  0  0  0  0  0  0  0
  2  1  1  0
  3  2  2  0
  4  2  1  0
  5  4  1  0
  6  5  1  0
  7  6  1  0
  8  7  1  0
  8  9  1  6
 10 17  1  0
 10  8  1  0
 11 10  2  0
 13 12  1  0
 14 13  1  0
 14 16  1  0
 14 15  1  1
 16 17  1  6
 18 25  1  0
 18 16  1  0
 19 18  2  0
 20 21  1  0
 21 22  2  0
 23 21  1  0
 24 23  1  1
 24 26  1  0
 24 25  1  0
 26 27  1  0
 28 26  2  0
M  END
$$$$
