RIN.pdb
     RDKit          3D

 28 27  0  0  1  0  0  0  0  0999 V2000
    7.7383  -13.4417   15.9519 N   0  0  0  0  0  0  0  0  0  0  0  0
    7.9555  -14.8386   16.1199 C   0  0  0  0  0  0  0  0  0  0  0  0
    8.5956  -15.5290   15.2185 N   0  0  0  0  0  0  0  0  0  0  0  0
    7.4934  -15.5448   17.2621 N   0  0  0  0  0  0  0  0  0  0  0  0
    8.3965  -15.9310   18.3239 C   0  0  0  0  0  0  0  0  0  0  0  0
    8.5666  -14.7312   19.2222 C   0  0  0  0  0  0  0  0  0  0  0  0
    7.3829  -14.5272   20.1516 C   0  0  0  0  0  0  0  0  0  0  0  0
    7.7073  -13.2964   20.9798 C   0  0  2  0  0  0  0  0  0  0  0  0
    8.7054  -12.4784   20.3274 N   0  0  0  0  0  0  0  0  0  0  0  0
    8.1858  -13.6340   22.3420 C   0  0  0  0  0  0  0  0  0  0  0  0
    9.4216  -13.7843   22.5701 O   0  0  0  0  0  0  0  0  0  0  0  0
    8.8933  -16.5013   15.3037 C   0  0  0  0  0  0  0  0  0  0  0  0
    5.9003  -11.3004   26.3974 C   0  0  0  0  0  0  0  0  0  0  0  0
    6.8696  -12.0190   25.5169 C   0  0  2  0  0  0  0  0  0  0  0  0
    6.9673  -13.5118   25.8117 C   0  0  0  0  0  0  0  0  0  0  0  0
    7.5149  -13.6436   27.1953 C   0  0  2  0  0  0  0  0  0  0  0  0
    7.8288  -14.1523   24.7733 N   0  0  0  0  0  0  0  0  0  0  0  0
    7.3155  -13.8048   23.4434 C   0  0  0  0  0  0  0  0  0  0  0  0
    7.9208  -15.6357   24.8846 O   0  0  0  0  0  0  0  0  0  0  0  0
    7.4257  -16.3162   23.9204 N   0  0  0  0  0  0  0  0  0  0  0  0
   11.7382  -18.4817   23.4233 C   0  0  0  0  0  0  0  0  0  0  0  0
   10.6409  -17.5766   23.4042 O   0  0  0  0  0  0  0  0  0  0  0  0
    9.9745  -17.5545   22.3389 C   0  0  0  0  0  0  0  0  0  0  0  0
   10.4149  -16.7872   24.6048 C   0  0  2  0  0  0  0  0  0  0  0  0
    9.5426  -17.3659   25.6546 N   0  0  0  0  0  0  0  0  0  0  0  0
    8.4902  -16.3710   25.9221 C   0  0  0  0  0  0  0  0  0  0  0  0
   10.2790  -17.6582   26.9006 O   0  0  0  0  0  0  0  0  0  0  0  0
   10.3255  -19.0001   27.3322 O   0  0  0  0  0  0  0  0  0  0  0  0
  2  1  1  0
  3  2  2  0
  4  2  1  0
  5  4  1  0
  6  5  1  0
  7  6  1  0
  8  7  1  0
  8  9  1  6
 10 17  1  0
 10  8  1  0
 11 10  2  0
 13 12  1  0
 14 13  1  0
 14 16  1  0
 14 15  1  6
 16 17  1  6
 18 25  1  0
 18 16  1  0
 19 18  2  0
 20 21  1  0
 21 22  2  0
 23 21  1  0
 24 23  1  6
 24 26  1  0
 24 25  1  0
 26 27  1  0
 28 26  2  0
M  END
$$$$
