RIN.pdb
     RDKit          3D

 28 27  0  0  1  0  0  0  0  0999 V2000
    9.1367  -14.6568   17.4790 N   0  0  0  0  0  0  0  0  0  0  0  0
    8.2528  -13.5937   17.1397 C   0  0  0  0  0  0  0  0  0  0  0  0
    8.5105  -12.8045   16.1348 N   0  0  0  0  0  0  0  0  0  0  0  0
    7.0599  -13.3393   17.8672 N   0  0  0  0  0  0  0  0  0  0  0  0
    6.5425  -14.2952   18.8214 C   0  0  0  0  0  0  0  0  0  0  0  0
    7.7157  -14.8072   19.6197 C   0  0  0  0  0  0  0  0  0  0  0  0
    7.7191  -14.2890   21.0473 C   0  0  0  0  0  0  0  0  0  0  0  0
    8.2640  -15.4193   21.9023 C   0  0  2  0  0  0  0  0  0  0  0  0
    7.2460  -16.4131   22.1616 N   0  0  0  0  0  0  0  0  0  0  0  0
    8.8064  -14.9453   23.1984 C   0  0  0  0  0  0  0  0  0  0  0  0
    9.9543  -14.4159   23.2595 O   0  0  0  0  0  0  0  0  0  0  0  0
    7.9487  -12.0070   15.8357 C   0  0  0  0  0  0  0  0  0  0  0  0
    5.8316  -12.0735   26.0619 C   0  0  0  0  0  0  0  0  0  0  0  0
    7.0445  -12.7432   25.5040 C   0  0  2  0  0  0  0  0  0  0  0  0
    7.6314  -13.8051   26.4276 C   0  0  0  0  0  0  0  0  0  0  0  0
    8.1750  -13.0874   27.6197 C   0  0  2  0  0  0  0  0  0  0  0  0
    8.6697  -14.5742   25.6785 N   0  0  0  0  0  0  0  0  0  0  0  0
    8.0948  -15.0517   24.4158 C   0  0  0  0  0  0  0  0  0  0  0  0
    9.2287  -15.7359   26.4262 O   0  0  0  0  0  0  0  0  0  0  0  0
    9.8273  -15.4765   27.5274 N   0  0  0  0  0  0  0  0  0  0  0  0
    6.6543  -19.4806   25.8421 C   0  0  0  0  0  0  0  0  0  0  0  0
    7.5138  -19.2714   26.9562 O   0  0  0  0  0  0  0  0  0  0  0  0
    6.9384  -19.0397   28.0492 C   0  0  0  0  0  0  0  0  0  0  0  0
    8.9453  -19.3482   26.7096 C   0  0  2  0  0  0  0  0  0  0  0  0
    9.7482  -18.1217   26.9306 N   0  0  0  0  0  0  0  0  0  0  0  0
    9.1715  -17.0800   26.0640 C   0  0  0  0  0  0  0  0  0  0  0  0
   11.1736  -18.3140   26.5963 O   0  0  0  0  0  0  0  0  0  0  0  0
   11.8960  -19.2693   27.3412 O   0  0  0  0  0  0  0  0  0  0  0  0
  2  1  1  0
  3  2  2  0
  4  2  1  0
  5  4  1  0
  6  5  1  0
  7  6  1  0
  8  7  1  0
  8  9  1  1
 10 17  1  0
 10  8  1  0
 11 10  2  0
 13 12  1  0
 14 13  1  0
 14 16  1  0
 14 15  1  1
 16 17  1  6
 18 25  1  0
 18 16  1  0
 19 18  2  0
 20 21  1  0
 21 22  2  0
 23 21  1  0
 24 23  1  1
 24 26  1  0
 24 25  1  0
 26 27  1  0
 28 26  2  0
M  END
$$$$
