RIN.pdb
     RDKit          3D

 28 27  0  0  1  0  0  0  0  0999 V2000
    6.0445  -16.7938   16.4100 N   0  0  0  0  0  0  0  0  0  0  0  0
    7.4415  -16.9086   16.1613 C   0  0  0  0  0  0  0  0  0  0  0  0
    7.9035  -17.8140   15.3454 N   0  0  0  0  0  0  0  0  0  0  0  0
    8.3933  -16.0551   16.7798 N   0  0  0  0  0  0  0  0  0  0  0  0
    7.9829  -14.9861   17.6633 C   0  0  0  0  0  0  0  0  0  0  0  0
    7.3038  -15.6246   18.8494 C   0  0  0  0  0  0  0  0  0  0  0  0
    8.0935  -15.4516   20.1351 C   0  0  0  0  0  0  0  0  0  0  0  0
    7.7803  -14.0522   20.6345 C   0  0  2  0  0  0  0  0  0  0  0  0
    8.2817  -13.0494   19.7212 N   0  0  0  0  0  0  0  0  0  0  0  0
    8.3380  -13.7883   21.9828 C   0  0  0  0  0  0  0  0  0  0  0  0
    9.5277  -13.3780   22.1171 O   0  0  0  0  0  0  0  0  0  0  0  0
    8.8868  -18.0013   15.1477 C   0  0  0  0  0  0  0  0  0  0  0  0
    7.2572  -11.7809   27.5767 C   0  0  0  0  0  0  0  0  0  0  0  0
    7.9769  -12.7538   26.7012 C   0  0  2  0  0  0  0  0  0  0  0  0
    7.3305  -12.9327   25.3317 C   0  0  0  0  0  0  0  0  0  0  0  0
    5.9792  -13.5249   25.5664 C   0  0  2  0  0  0  0  0  0  0  0  0
    8.2141  -13.7949   24.4912 N   0  0  0  0  0  0  0  0  0  0  0  0
    7.5961  -13.9732   23.1724 C   0  0  0  0  0  0  0  0  0  0  0  0
    8.4987  -15.1350   25.0779 O   0  0  0  0  0  0  0  0  0  0  0  0
    7.4948  -15.9075   25.2607 N   0  0  0  0  0  0  0  0  0  0  0  0
   10.8076  -17.9874   23.0045 C   0  0  0  0  0  0  0  0  0  0  0  0
   11.4593  -17.2339   24.0200 O   0  0  0  0  0  0  0  0  0  0  0  0
   12.2576  -16.3525   23.6135 C   0  0  0  0  0  0  0  0  0  0  0  0
   11.1333  -17.5632   25.3988 C   0  0  2  0  0  0  0  0  0  0  0  0
    9.8681  -17.0257   25.9538 N   0  0  0  0  0  0  0  0  0  0  0  0
    9.7398  -15.6479   25.4494 C   0  0  0  0  0  0  0  0  0  0  0  0
    9.8593  -17.0177   27.4303 O   0  0  0  0  0  0  0  0  0  0  0  0
    9.8444  -18.2643   28.0900 O   0  0  0  0  0  0  0  0  0  0  0  0
  2  1  1  0
  3  2  2  0
  4  2  1  0
  5  4  1  0
  6  5  1  0
  7  6  1  0
  8  7  1  0
  8  9  1  6
 10 17  1  0
 10  8  1  0
 11 10  2  0
 13 12  1  0
 14 13  1  0
 14 16  1  0
 14 15  1  6
 16 17  1  1
 18 25  1  0
 18 16  1  0
 19 18  2  0
 20 21  1  0
 21 22  2  0
 23 21  1  0
 24 23  1  6
 24 26  1  0
 24 25  1  0
 26 27  1  0
 28 26  2  0
M  END
$$$$
