RIN.pdb
     RDKit          3D

 28 27  0  0  1  0  0  0  0  0999 V2000
    9.5429  -14.5327   16.9280 N   0  0  0  0  0  0  0  0  0  0  0  0
    8.3904  -13.8726   16.4154 C   0  0  0  0  0  0  0  0  0  0  0  0
    8.0422  -14.0077   15.1667 N   0  0  0  0  0  0  0  0  0  0  0  0
    7.5699  -13.0432   17.2253 N   0  0  0  0  0  0  0  0  0  0  0  0
    7.8436  -12.8597   18.6336 C   0  0  0  0  0  0  0  0  0  0  0  0
    7.7016  -14.2083   19.2943 C   0  0  0  0  0  0  0  0  0  0  0  0
    8.8258  -14.4981   20.2735 C   0  0  0  0  0  0  0  0  0  0  0  0
    8.2369  -15.4193   21.3273 C   0  0  2  0  0  0  0  0  0  0  0  0
    6.7927  -15.3473   21.3330 N   0  0  0  0  0  0  0  0  0  0  0  0
    8.7332  -15.1181   22.6917 C   0  0  0  0  0  0  0  0  0  0  0  0
    9.9747  -15.0189   22.9165 O   0  0  0  0  0  0  0  0  0  0  0  0
    7.2259  -13.5890   14.7203 C   0  0  0  0  0  0  0  0  0  0  0  0
    5.8193  -11.9308   25.7382 C   0  0  0  0  0  0  0  0  0  0  0  0
    6.9880  -12.6511   25.1498 C   0  0  2  0  0  0  0  0  0  0  0  0
    7.3845  -13.9023   25.9259 C   0  0  0  0  0  0  0  0  0  0  0  0
    7.8852  -13.4441   27.2567 C   0  0  2  0  0  0  0  0  0  0  0  0
    8.4069  -14.6538   25.1382 N   0  0  0  0  0  0  0  0  0  0  0  0
    7.8742  -14.9275   23.7987 C   0  0  0  0  0  0  0  0  0  0  0  0
    8.8361  -15.9381   25.7606 O   0  0  0  0  0  0  0  0  0  0  0  0
    7.9573  -16.8662   25.8279 N   0  0  0  0  0  0  0  0  0  0  0  0
   13.0380  -17.3234   24.4665 C   0  0  0  0  0  0  0  0  0  0  0  0
   11.9668  -18.0857   25.0099 O   0  0  0  0  0  0  0  0  0  0  0  0
   11.3362  -18.7975   24.1883 C   0  0  0  0  0  0  0  0  0  0  0  0
   11.7236  -17.9582   26.4383 C   0  0  2  0  0  0  0  0  0  0  0  0
   10.3607  -17.5682   26.8720 N   0  0  0  0  0  0  0  0  0  0  0  0
   10.0923  -16.2477   26.2777 C   0  0  0  0  0  0  0  0  0  0  0  0
   10.2391  -17.4863   28.3413 O   0  0  0  0  0  0  0  0  0  0  0  0
   10.3988  -18.6788   29.0773 O   0  0  0  0  0  0  0  0  0  0  0  0
  2  1  1  0
  3  2  2  0
  4  2  1  0
  5  4  1  0
  6  5  1  0
  7  6  1  0
  8  7  1  0
  8  9  1  1
 10 17  1  0
 10  8  1  0
 11 10  2  0
 13 12  1  0
 14 13  1  0
 14 16  1  0
 14 15  1  6
 16 17  1  6
 18 25  1  0
 18 16  1  0
 19 18  2  0
 20 21  1  0
 21 22  2  0
 23 21  1  0
 24 23  1  6
 24 26  1  0
 24 25  1  0
 26 27  1  0
 28 26  2  0
M  END
$$$$
