RIN.pdb
     RDKit          3D

 28 27  0  0  1  0  0  0  0  0999 V2000
    7.1349  -19.7938   19.5898 N   0  0  0  0  0  0  0  0  0  0  0  0
    8.3010  -19.4155   18.8660 C   0  0  0  0  0  0  0  0  0  0  0  0
    9.1971  -20.3010   18.5315 N   0  0  0  0  0  0  0  0  0  0  0  0
    8.5471  -18.0726   18.4750 N   0  0  0  0  0  0  0  0  0  0  0  0
    7.6076  -17.0162   18.7801 C   0  0  0  0  0  0  0  0  0  0  0  0
    8.3383  -15.9997   19.6217 C   0  0  0  0  0  0  0  0  0  0  0  0
    7.4415  -14.8562   20.0628 C   0  0  0  0  0  0  0  0  0  0  0  0
    6.8621  -15.2710   21.4038 C   0  0  2  0  0  0  0  0  0  0  0  0
    5.5123  -14.7772   21.5627 N   0  0  0  0  0  0  0  0  0  0  0  0
    7.6781  -14.8007   22.5491 C   0  0  0  0  0  0  0  0  0  0  0  0
    8.8330  -14.3187   22.3603 O   0  0  0  0  0  0  0  0  0  0  0  0
   10.0657  -20.1185   18.0283 C   0  0  0  0  0  0  0  0  0  0  0  0
    5.8948  -11.4551   25.9103 C   0  0  0  0  0  0  0  0  0  0  0  0
    6.8836  -12.2934   25.1684 C   0  0  2  0  0  0  0  0  0  0  0  0
    7.2929  -13.5568   25.9177 C   0  0  0  0  0  0  0  0  0  0  0  0
    8.0602  -13.1154   27.1211 C   0  0  2  0  0  0  0  0  0  0  0  0
    8.0868  -14.4260   24.9985 N   0  0  0  0  0  0  0  0  0  0  0  0
    7.2300  -14.8593   23.8890 C   0  0  0  0  0  0  0  0  0  0  0  0
    8.6784  -15.6278   25.6517 O   0  0  0  0  0  0  0  0  0  0  0  0
    7.8611  -16.5375   26.0293 N   0  0  0  0  0  0  0  0  0  0  0  0
   12.6726  -17.1561   23.7029 C   0  0  0  0  0  0  0  0  0  0  0  0
   11.6981  -17.8098   24.5070 O   0  0  0  0  0  0  0  0  0  0  0  0
   10.9080  -18.5692   23.8918 C   0  0  0  0  0  0  0  0  0  0  0  0
   11.7242  -17.5303   25.9343 C   0  0  2  0  0  0  0  0  0  0  0  0
   10.4553  -17.1122   26.5768 N   0  0  0  0  0  0  0  0  0  0  0  0
   10.0269  -15.8779   25.8972 C   0  0  0  0  0  0  0  0  0  0  0  0
   10.6140  -16.8549   28.0221 O   0  0  0  0  0  0  0  0  0  0  0  0
   10.5561  -15.5144   28.4569 O   0  0  0  0  0  0  0  0  0  0  0  0
  2  1  1  0
  3  2  2  0
  4  2  1  0
  5  4  1  0
  6  5  1  0
  7  6  1  0
  8  7  1  0
  8  9  1  1
 10 17  1  0
 10  8  1  0
 11 10  2  0
 13 12  1  0
 14 13  1  0
 14 16  1  0
 14 15  1  1
 16 17  1  6
 18 25  1  0
 18 16  1  0
 19 18  2  0
 20 21  1  0
 21 22  2  0
 23 21  1  0
 24 23  1  6
 24 26  1  0
 24 25  1  0
 26 27  1  0
 28 26  2  0
M  END
$$$$
