TMN.pdb
     RDKit          3D

 24 23  0  0  1  0  0  0  0  0999 V2000
   31.6231  -20.9629  -12.8374 C   0  0  0  0  0  0  0  0  0  0  0  0
   30.5284  -21.0198  -11.8023 C   0  0  1  0  0  0  0  0  0  0  0  0
   29.4613  -21.7608  -12.2360 O   0  0  0  0  0  0  0  0  0  0  0  0
   31.0317  -21.4990  -10.4649 C   0  0  2  0  0  0  0  0  0  0  0  0
   31.5140  -22.8699  -10.5793 N   0  0  0  0  0  0  0  0  0  0  0  0
   29.9649  -21.5330   -9.4313 C   0  0  0  0  0  0  0  0  0  0  0  0
   29.3714  -22.5861   -9.0738 O   0  0  0  0  0  0  0  0  0  0  0  0
   26.8554  -19.4681   -2.4953 C   0  0  0  0  0  0  0  0  0  0  0  0
   28.0760  -19.3490   -3.7549 S   0  0  0  0  0  0  0  0  0  0  0  0
   27.6782  -19.7678   -5.4117 C   0  0  0  0  0  0  0  0  0  0  0  0
   28.6851  -19.8855   -6.4527 C   0  0  0  0  0  0  0  0  0  0  0  0
   28.4454  -20.2889   -7.8394 C   0  0  2  0  0  0  0  0  0  0  0  0
   29.5373  -20.3351   -8.7614 N   0  0  0  0  0  0  0  0  0  0  0  0
   27.2268  -19.6733   -8.4473 C   0  0  0  0  0  0  0  0  0  0  0  0
   27.2871  -18.5250   -8.9905 O   0  0  0  0  0  0  0  0  0  0  0  0
   24.6605  -22.4468  -12.5246 N   0  0  0  0  0  0  0  0  0  0  0  0
   24.8331  -21.1398  -11.9664 C   0  0  0  0  0  0  0  0  0  0  0  0
   24.2440  -20.2059  -12.5283 O   0  0  0  0  0  0  0  0  0  0  0  0
   25.6905  -21.0043  -10.7765 C   0  0  0  0  0  0  0  0  0  0  0  0
   25.0531  -20.2610   -9.6247 C   0  0  2  0  0  0  0  0  0  0  0  0
   25.9643  -20.2998   -8.4624 N   0  0  0  0  0  0  0  0  0  0  0  0
   23.8522  -20.9880   -9.1888 C   0  0  0  0  0  0  0  0  0  0  0  0
   22.6269  -20.7049   -9.7448 O   0  0  0  0  0  0  0  0  0  0  0  0
   23.9164  -21.8681   -8.3148 O   0  0  0  0  0  0  0  0  0  0  0  0
  2  1  1  6
  2  3  1  0
  4  2  1  0
  4  5  1  6
  6  4  1  0
  7  6  2  0
  8  9  1  0
  9 10  1  0
 11 10  1  0
 12 11  1  1
 12 13  1  0
 13  6  1  0
 14 12  1  0
 14 15  2  0
 16 17  1  0
 17 19  1  0
 18 17  2  0
 20 19  1  6
 20 21  1  0
 21 14  1  0
 22 20  1  0
 23 22  1  0
 24 22  2  0
M  END
$$$$
