TMN.pdb
     RDKit          3D

 24 23  0  0  1  0  0  0  0  0999 V2000
   20.3492  -11.2379  -20.4026 C   0  0  0  0  0  0  0  0  0  0  0  0
   20.7000  -11.0309  -18.9511 C   0  0  1  0  0  0  0  0  0  0  0  0
   19.8512  -10.1408  -18.3483 O   0  0  0  0  0  0  0  0  0  0  0  0
   20.7749  -12.3302  -18.1909 C   0  0  2  0  0  0  0  0  0  0  0  0
   19.4923  -13.0194  -18.2603 N   0  0  0  0  0  0  0  0  0  0  0  0
   21.0466  -12.1312  -16.7438 C   0  0  0  0  0  0  0  0  0  0  0  0
   20.1647  -12.2232  -15.8479 O   0  0  0  0  0  0  0  0  0  0  0  0
   26.6101  -15.2964  -15.6483 C   0  0  0  0  0  0  0  0  0  0  0  0
   25.9536  -13.6715  -15.5092 S   0  0  0  0  0  0  0  0  0  0  0  0
   24.5265  -13.3769  -14.5318 C   0  0  0  0  0  0  0  0  0  0  0  0
   23.9589  -12.0511  -14.3550 C   0  0  0  0  0  0  0  0  0  0  0  0
   22.6803  -11.5840  -14.8939 C   0  0  2  0  0  0  0  0  0  0  0  0
   22.3662  -11.8143  -16.2697 N   0  0  0  0  0  0  0  0  0  0  0  0
   22.3081  -10.2034  -14.4595 C   0  0  0  0  0  0  0  0  0  0  0  0
   22.4615   -9.8450  -13.2491 O   0  0  0  0  0  0  0  0  0  0  0  0
   21.0414   -5.2027  -14.2186 N   0  0  0  0  0  0  0  0  0  0  0  0
   22.3505   -5.5531  -14.6799 C   0  0  0  0  0  0  0  0  0  0  0  0
   23.1875   -4.6417  -14.7428 O   0  0  0  0  0  0  0  0  0  0  0  0
   22.6024   -6.9582  -15.0422 C   0  0  0  0  0  0  0  0  0  0  0  0
   21.4046   -7.8689  -14.8960 C   0  0  2  0  0  0  0  0  0  0  0  0
   21.7780   -9.2305  -15.3308 N   0  0  0  0  0  0  0  0  0  0  0  0
   20.3595   -7.4438  -15.8381 C   0  0  0  0  0  0  0  0  0  0  0  0
   19.1882   -6.8915  -15.3756 O   0  0  0  0  0  0  0  0  0  0  0  0
   20.5092   -7.5729  -17.0643 O   0  0  0  0  0  0  0  0  0  0  0  0
  2  1  1  6
  2  3  1  0
  4  2  1  0
  4  5  1  1
  6  4  1  0
  7  6  2  0
  8  9  1  0
  9 10  1  0
 11 10  1  0
 12 11  1  6
 12 13  1  0
 13  6  1  0
 14 12  1  0
 14 15  2  0
 16 17  1  0
 17 19  1  0
 18 17  2  0
 20 19  1  6
 20 21  1  0
 21 14  1  0
 22 20  1  0
 23 22  1  0
 24 22  2  0
M  END
$$$$
