TMN.pdb
     RDKit          3D

 24 23  0  0  1  0  0  0  0  0999 V2000
   20.5866  -10.7112  -20.2442 C   0  0  0  0  0  0  0  0  0  0  0  0
   19.7802  -11.7396  -19.4925 C   0  0  1  0  0  0  0  0  0  0  0  0
   19.7284  -12.9313  -20.1656 O   0  0  0  0  0  0  0  0  0  0  0  0
   20.2640  -11.9209  -18.0766 C   0  0  2  0  0  0  0  0  0  0  0  0
   19.4781  -12.9540  -17.4131 N   0  0  0  0  0  0  0  0  0  0  0  0
   20.0945  -10.6959  -17.2532 C   0  0  0  0  0  0  0  0  0  0  0  0
   18.9733  -10.2393  -16.9020 O   0  0  0  0  0  0  0  0  0  0  0  0
   21.5107   -9.9844  -10.7099 C   0  0  0  0  0  0  0  0  0  0  0  0
   22.0605   -9.9587  -12.3795 S   0  0  0  0  0  0  0  0  0  0  0  0
   21.5749   -8.6548  -13.4485 C   0  0  0  0  0  0  0  0  0  0  0  0
   21.9931   -8.5851  -14.8383 C   0  0  0  0  0  0  0  0  0  0  0  0
   21.1272   -8.7542  -16.0065 C   0  0  2  0  0  0  0  0  0  0  0  0
   21.2299   -9.9412  -16.7971 N   0  0  0  0  0  0  0  0  0  0  0  0
   21.0053   -7.5283  -16.8526 C   0  0  0  0  0  0  0  0  0  0  0  0
   21.7062   -7.3996  -17.9059 O   0  0  0  0  0  0  0  0  0  0  0  0
   17.1345   -3.5302  -19.0163 N   0  0  0  0  0  0  0  0  0  0  0  0
   18.2459   -3.5913  -18.1160 C   0  0  0  0  0  0  0  0  0  0  0  0
   18.9082   -2.5547  -17.9687 O   0  0  0  0  0  0  0  0  0  0  0  0
   18.5166   -4.8705  -17.4382 C   0  0  0  0  0  0  0  0  0  0  0  0
   19.9723   -5.2784  -17.4248 C   0  0  2  0  0  0  0  0  0  0  0  0
   20.1336   -6.4616  -16.5548 N   0  0  0  0  0  0  0  0  0  0  0  0
   20.7619   -4.2215  -16.7768 C   0  0  0  0  0  0  0  0  0  0  0  0
   21.2382   -4.3930  -15.4984 O   0  0  0  0  0  0  0  0  0  0  0  0
   21.0151   -3.1572  -17.3649 O   0  0  0  0  0  0  0  0  0  0  0  0
  2  1  1  6
  2  3  1  0
  4  2  1  0
  4  5  1  1
  6  4  1  0
  7  6  2  0
  8  9  1  0
  9 10  1  0
 11 10  1  0
 12 11  1  6
 12 13  1  0
 13  6  1  0
 14 12  1  0
 14 15  2  0
 16 17  1  0
 17 19  1  0
 18 17  2  0
 20 19  1  1
 20 21  1  0
 21 14  1  0
 22 20  1  0
 23 22  1  0
 24 22  2  0
M  END
$$$$
