TMN.pdb
     RDKit          3D

 24 23  0  0  1  0  0  0  0  0999 V2000
   17.4734  -12.8369  -18.3837 C   0  0  0  0  0  0  0  0  0  0  0  0
   18.6945  -12.3074  -17.6755 C   0  0  1  0  0  0  0  0  0  0  0  0
   18.4453  -12.0669  -16.3503 O   0  0  0  0  0  0  0  0  0  0  0  0
   19.8949  -13.1993  -17.8629 C   0  0  2  0  0  0  0  0  0  0  0  0
   19.6303  -14.5131  -17.2894 N   0  0  0  0  0  0  0  0  0  0  0  0
   21.1012  -12.6897  -17.1609 C   0  0  0  0  0  0  0  0  0  0  0  0
   21.9089  -13.4271  -16.5342 O   0  0  0  0  0  0  0  0  0  0  0  0
   27.8035  -11.0956  -15.2668 C   0  0  0  0  0  0  0  0  0  0  0  0
   26.2456  -11.7813  -15.7065 S   0  0  0  0  0  0  0  0  0  0  0  0
   25.2865  -11.0483  -16.9799 C   0  0  0  0  0  0  0  0  0  0  0  0
   23.9193  -11.4521  -17.2612 C   0  0  0  0  0  0  0  0  0  0  0  0
   22.7089  -10.7735  -16.7949 C   0  0  2  0  0  0  0  0  0  0  0  0
   21.4252  -11.2891  -17.1564 N   0  0  0  0  0  0  0  0  0  0  0  0
   22.7659   -9.2847  -16.9120 C   0  0  0  0  0  0  0  0  0  0  0  0
   22.7814   -8.7279  -18.0552 O   0  0  0  0  0  0  0  0  0  0  0  0
   22.4735   -4.1897  -15.7233 N   0  0  0  0  0  0  0  0  0  0  0  0
   22.3167   -4.9070  -14.4944 C   0  0  0  0  0  0  0  0  0  0  0  0
   22.0962   -4.2368  -13.4760 O   0  0  0  0  0  0  0  0  0  0  0  0
   22.4283   -6.3752  -14.5321 C   0  0  0  0  0  0  0  0  0  0  0  0
   22.6623   -6.9519  -15.9098 C   0  0  2  0  0  0  0  0  0  0  0  0
   22.8050   -8.4183  -15.8008 N   0  0  0  0  0  0  0  0  0  0  0  0
   23.9604   -6.4815  -16.4140 C   0  0  0  0  0  0  0  0  0  0  0  0
   24.0283   -5.7160  -17.5542 O   0  0  0  0  0  0  0  0  0  0  0  0
   25.0177   -6.7627  -15.8261 O   0  0  0  0  0  0  0  0  0  0  0  0
  2  1  1  1
  2  3  1  0
  4  2  1  0
  4  5  1  1
  6  4  1  0
  7  6  2  0
  8  9  1  0
  9 10  1  0
 11 10  1  0
 12 11  1  6
 12 13  1  0
 13  6  1  0
 14 12  1  0
 14 15  2  0
 16 17  1  0
 17 19  1  0
 18 17  2  0
 20 19  1  1
 20 21  1  0
 21 14  1  0
 22 20  1  0
 23 22  1  0
 24 22  2  0
M  END
$$$$
