TMN.pdb
     RDKit          3D

 24 23  0  0  1  0  0  0  0  0999 V2000
   24.1766  -22.0352  -14.8449 C   0  0  0  0  0  0  0  0  0  0  0  0
   24.5630  -22.1833  -13.3952 C   0  0  1  0  0  0  0  0  0  0  0  0
   24.8341  -23.4873  -13.0754 O   0  0  0  0  0  0  0  0  0  0  0  0
   25.6975  -21.2687  -13.0104 C   0  0  2  0  0  0  0  0  0  0  0  0
   25.9114  -21.3239  -11.5695 N   0  0  0  0  0  0  0  0  0  0  0  0
   25.4134  -19.8436  -13.3203 C   0  0  0  0  0  0  0  0  0  0  0  0
   24.6672  -19.1107  -12.6168 O   0  0  0  0  0  0  0  0  0  0  0  0
   26.9664  -12.9561  -15.0077 C   0  0  0  0  0  0  0  0  0  0  0  0
   27.5175  -14.3765  -15.8848 S   0  0  0  0  0  0  0  0  0  0  0  0
   26.4355  -15.7353  -16.1330 C   0  0  0  0  0  0  0  0  0  0  0  0
   26.6623  -17.0371  -15.5288 C   0  0  0  0  0  0  0  0  0  0  0  0
   25.6467  -17.8800  -14.8951 C   0  0  2  0  0  0  0  0  0  0  0  0
   25.9890  -19.2017  -14.4706 N   0  0  0  0  0  0  0  0  0  0  0  0
   24.3158  -17.8383  -15.5736 C   0  0  0  0  0  0  0  0  0  0  0  0
   23.9987  -18.7268  -16.4264 O   0  0  0  0  0  0  0  0  0  0  0  0
   19.3991  -16.5504  -16.8493 N   0  0  0  0  0  0  0  0  0  0  0  0
   19.6340  -16.1678  -15.4899 C   0  0  0  0  0  0  0  0  0  0  0  0
   18.6561  -15.7732  -14.8395 O   0  0  0  0  0  0  0  0  0  0  0  0
   21.0084  -16.2711  -14.9705 C   0  0  0  0  0  0  0  0  0  0  0  0
   22.0083  -16.8430  -15.9496 C   0  0  2  0  0  0  0  0  0  0  0  0
   23.3474  -16.8447  -15.3256 N   0  0  0  0  0  0  0  0  0  0  0  0
   22.1278  -15.9359  -17.1000 C   0  0  0  0  0  0  0  0  0  0  0  0
   21.8635  -16.3863  -18.3720 O   0  0  0  0  0  0  0  0  0  0  0  0
   22.4678  -14.7507  -16.9506 O   0  0  0  0  0  0  0  0  0  0  0  0
  2  1  1  6
  2  3  1  0
  4  2  1  0
  4  5  1  1
  6  4  1  0
  7  6  2  0
  8  9  1  0
  9 10  1  0
 11 10  1  0
 12 11  1  6
 12 13  1  0
 13  6  1  0
 14 12  1  0
 14 15  2  0
 16 17  1  0
 17 19  1  0
 18 17  2  0
 20 19  1  1
 20 21  1  0
 21 14  1  0
 22 20  1  0
 23 22  1  0
 24 22  2  0
M  END
$$$$
