TMN.pdb
     RDKit          3D

 24 23  0  0  1  0  0  0  0  0999 V2000
   27.3394  -18.3540  -15.2566 C   0  0  0  0  0  0  0  0  0  0  0  0
   27.6448  -19.5563  -16.1134 C   0  0  1  0  0  0  0  0  0  0  0  0
   28.6054  -19.2787  -17.0494 O   0  0  0  0  0  0  0  0  0  0  0  0
   28.0030  -20.7674  -15.2909 C   0  0  2  0  0  0  0  0  0  0  0  0
   28.1810  -21.9228  -16.1618 N   0  0  0  0  0  0  0  0  0  0  0  0
   26.9312  -21.1464  -14.3342 C   0  0  0  0  0  0  0  0  0  0  0  0
   25.9606  -21.8934  -14.6321 O   0  0  0  0  0  0  0  0  0  0  0  0
   26.8356  -19.6265   -7.4169 C   0  0  0  0  0  0  0  0  0  0  0  0
   25.5022  -20.6791   -7.8694 S   0  0  0  0  0  0  0  0  0  0  0  0
   25.1389  -20.9654   -9.5620 C   0  0  0  0  0  0  0  0  0  0  0  0
   26.1192  -20.7708  -10.6167 C   0  0  0  0  0  0  0  0  0  0  0  0
   25.8698  -20.8864  -12.0546 C   0  0  2  0  0  0  0  0  0  0  0  0
   26.9402  -20.6705  -12.9777 N   0  0  0  0  0  0  0  0  0  0  0  0
   24.6038  -20.2318  -12.5043 C   0  0  0  0  0  0  0  0  0  0  0  0
   24.6204  -19.0500  -12.9736 O   0  0  0  0  0  0  0  0  0  0  0  0
   20.0048  -19.6809  -14.7796 N   0  0  0  0  0  0  0  0  0  0  0  0
   21.1999  -20.0851  -15.4563 C   0  0  0  0  0  0  0  0  0  0  0  0
   21.1661  -20.1042  -16.6947 O   0  0  0  0  0  0  0  0  0  0  0  0
   22.3699  -20.4447  -14.6372 C   0  0  0  0  0  0  0  0  0  0  0  0
   22.1475  -20.3422  -13.1454 C   0  0  2  0  0  0  0  0  0  0  0  0
   23.3416  -20.8560  -12.4434 N   0  0  0  0  0  0  0  0  0  0  0  0
   21.0598  -21.2516  -12.7577 C   0  0  0  0  0  0  0  0  0  0  0  0
   19.7851  -20.7717  -12.5691 O   0  0  0  0  0  0  0  0  0  0  0  0
   21.2656  -22.4653  -12.5928 O   0  0  0  0  0  0  0  0  0  0  0  0
  2  1  1  1
  2  3  1  0
  4  2  1  0
  4  5  1  6
  6  4  1  0
  7  6  2  0
  8  9  1  0
  9 10  1  0
 11 10  1  0
 12 11  1  1
 12 13  1  0
 13  6  1  0
 14 12  1  0
 14 15  2  0
 16 17  1  0
 17 19  1  0
 18 17  2  0
 20 19  1  6
 20 21  1  0
 21 14  1  0
 22 20  1  0
 23 22  1  0
 24 22  2  0
M  END
$$$$
