TMN.pdb
     RDKit          3D

 24 23  0  0  1  0  0  0  0  0999 V2000
   17.6511  -12.1842  -17.9940 C   0  0  0  0  0  0  0  0  0  0  0  0
   17.2895  -13.3155  -17.0654 C   0  0  1  0  0  0  0  0  0  0  0  0
   16.2761  -14.0830  -17.5750 O   0  0  0  0  0  0  0  0  0  0  0  0
   18.4864  -14.1516  -16.6911 C   0  0  2  0  0  0  0  0  0  0  0  0
   18.0815  -15.2178  -15.7832 N   0  0  0  0  0  0  0  0  0  0  0  0
   19.5215  -13.3742  -15.9619 C   0  0  0  0  0  0  0  0  0  0  0  0
   19.3182  -12.8051  -14.8557 O   0  0  0  0  0  0  0  0  0  0  0  0
   27.3691  -11.8075  -14.8110 C   0  0  0  0  0  0  0  0  0  0  0  0
   26.0411  -12.7294  -15.5018 S   0  0  0  0  0  0  0  0  0  0  0  0
   24.4004  -12.1134  -15.4156 C   0  0  0  0  0  0  0  0  0  0  0  0
   23.2577  -12.8574  -15.9172 C   0  0  0  0  0  0  0  0  0  0  0  0
   21.8611  -12.4204  -15.8749 C   0  0  2  0  0  0  0  0  0  0  0  0
   20.8500  -13.2228  -16.4900 N   0  0  0  0  0  0  0  0  0  0  0  0
   21.6725  -10.9663  -16.1634 C   0  0  0  0  0  0  0  0  0  0  0  0
   21.6901  -10.5389  -17.3610 O   0  0  0  0  0  0  0  0  0  0  0  0
   20.3718   -6.0809  -16.8743 N   0  0  0  0  0  0  0  0  0  0  0  0
   19.4770   -6.9533  -16.1758 C   0  0  0  0  0  0  0  0  0  0  0  0
   18.4219   -6.4580  -15.7559 O   0  0  0  0  0  0  0  0  0  0  0  0
   19.8740   -8.3619  -16.0102 C   0  0  0  0  0  0  0  0  0  0  0  0
   21.2652   -8.5609  -15.4529 C   0  0  2  0  0  0  0  0  0  0  0  0
   21.4678   -9.9952  -15.1626 N   0  0  0  0  0  0  0  0  0  0  0  0
   21.3602   -7.8930  -14.1470 C   0  0  0  0  0  0  0  0  0  0  0  0
   21.5858   -8.6255  -13.0053 O   0  0  0  0  0  0  0  0  0  0  0  0
   21.2397   -6.6611  -14.0455 O   0  0  0  0  0  0  0  0  0  0  0  0
  2  1  1  6
  2  3  1  0
  4  2  1  0
  4  5  1  1
  6  4  1  0
  7  6  2  0
  8  9  1  0
  9 10  1  0
 11 10  1  0
 12 11  1  6
 12 13  1  0
 13  6  1  0
 14 12  1  0
 14 15  2  0
 16 17  1  0
 17 19  1  0
 18 17  2  0
 20 19  1  1
 20 21  1  0
 21 14  1  0
 22 20  1  0
 23 22  1  0
 24 22  2  0
M  END
$$$$
