TMN.pdb
     RDKit          3D

 24 23  0  0  1  0  0  0  0  0999 V2000
   20.9832  -13.1449  -18.2135 C   0  0  0  0  0  0  0  0  0  0  0  0
   21.2462  -14.1950  -17.1642 C   0  0  1  0  0  0  0  0  0  0  0  0
   20.9548  -15.4520  -17.6235 O   0  0  0  0  0  0  0  0  0  0  0  0
   22.6472  -14.1144  -16.6144 C   0  0  2  0  0  0  0  0  0  0  0  0
   22.8545  -15.1694  -15.6300 N   0  0  0  0  0  0  0  0  0  0  0  0
   22.9079  -12.8391  -15.8979 C   0  0  0  0  0  0  0  0  0  0  0  0
   22.3780  -12.5361  -14.7951 O   0  0  0  0  0  0  0  0  0  0  0  0
   27.6850  -13.5697  -14.9138 C   0  0  0  0  0  0  0  0  0  0  0  0
   27.6705  -11.8798  -15.3981 S   0  0  0  0  0  0  0  0  0  0  0  0
   26.4446  -10.7924  -14.7708 C   0  0  0  0  0  0  0  0  0  0  0  0
   25.4533  -10.1561  -15.6214 C   0  0  0  0  0  0  0  0  0  0  0  0
   24.0691  -10.5955  -15.8060 C   0  0  2  0  0  0  0  0  0  0  0  0
   23.8037  -11.8516  -16.4355 N   0  0  0  0  0  0  0  0  0  0  0  0
   23.1527   -9.5210  -16.2951 C   0  0  0  0  0  0  0  0  0  0  0  0
   23.2489   -9.0840  -17.4855 O   0  0  0  0  0  0  0  0  0  0  0  0
   19.1925   -6.0787  -16.5495 N   0  0  0  0  0  0  0  0  0  0  0  0
   18.8193   -7.1579  -15.6862 C   0  0  0  0  0  0  0  0  0  0  0  0
   17.6394   -7.1952  -15.3100 O   0  0  0  0  0  0  0  0  0  0  0  0
   19.8565   -8.1347  -15.3129 C   0  0  0  0  0  0  0  0  0  0  0  0
   21.1822   -7.9416  -16.0136 C   0  0  2  0  0  0  0  0  0  0  0  0
   22.1485   -8.9338  -15.4993 N   0  0  0  0  0  0  0  0  0  0  0  0
   21.7413   -6.6364  -15.6338 C   0  0  0  0  0  0  0  0  0  0  0  0
   21.2399   -5.4786  -16.1805 O   0  0  0  0  0  0  0  0  0  0  0  0
   22.6724   -6.5500  -14.8164 O   0  0  0  0  0  0  0  0  0  0  0  0
  2  1  1  6
  2  3  1  0
  4  2  1  0
  4  5  1  1
  6  4  1  0
  7  6  2  0
  8  9  1  0
  9 10  1  0
 11 10  1  0
 12 11  1  6
 12 13  1  0
 13  6  1  0
 14 12  1  0
 14 15  2  0
 16 17  1  0
 17 19  1  0
 18 17  2  0
 20 19  1  1
 20 21  1  0
 21 14  1  0
 22 20  1  0
 23 22  1  0
 24 22  2  0
M  END
$$$$
