TMN.pdb
     RDKit          3D

 24 23  0  0  1  0  0  0  0  0999 V2000
   28.2241  -16.5270  -17.8936 C   0  0  0  0  0  0  0  0  0  0  0  0
   27.3423  -17.3994  -17.0366 C   0  0  1  0  0  0  0  0  0  0  0  0
   26.2089  -17.7819  -17.7037 O   0  0  0  0  0  0  0  0  0  0  0  0
   28.0845  -18.5850  -16.4754 C   0  0  2  0  0  0  0  0  0  0  0  0
   28.5594  -19.4320  -17.5627 N   0  0  0  0  0  0  0  0  0  0  0  0
   27.2210  -19.4551  -15.6358 C   0  0  0  0  0  0  0  0  0  0  0  0
   26.7609  -20.5637  -16.0208 O   0  0  0  0  0  0  0  0  0  0  0  0
   24.8048  -21.3426   -8.1394 C   0  0  0  0  0  0  0  0  0  0  0  0
   25.7989  -20.4583   -9.2885 S   0  0  0  0  0  0  0  0  0  0  0  0
   25.4347  -20.5232  -11.0037 C   0  0  0  0  0  0  0  0  0  0  0  0
   26.2675  -19.8800  -12.0057 C   0  0  0  0  0  0  0  0  0  0  0  0
   26.0219  -19.8672  -13.4488 C   0  0  2  0  0  0  0  0  0  0  0  0
   26.8512  -19.0724  -14.3003 N   0  0  0  0  0  0  0  0  0  0  0  0
   24.5774  -19.7586  -13.8164 C   0  0  0  0  0  0  0  0  0  0  0  0
   24.0464  -18.6202  -14.0148 O   0  0  0  0  0  0  0  0  0  0  0  0
   19.9278  -23.3007  -15.9424 N   0  0  0  0  0  0  0  0  0  0  0  0
   20.4285  -22.1045  -15.3360 C   0  0  0  0  0  0  0  0  0  0  0  0
   19.6336  -21.1625  -15.2099 O   0  0  0  0  0  0  0  0  0  0  0  0
   21.8385  -22.0831  -14.9110 C   0  0  0  0  0  0  0  0  0  0  0  0
   22.3027  -20.7620  -14.3412 C   0  0  2  0  0  0  0  0  0  0  0  0
   23.7271  -20.8728  -13.9651 N   0  0  0  0  0  0  0  0  0  0  0  0
   21.5960  -20.5085  -13.0774 C   0  0  0  0  0  0  0  0  0  0  0  0
   20.6743  -19.4922  -12.9870 O   0  0  0  0  0  0  0  0  0  0  0  0
   21.8138  -21.2013  -12.0699 O   0  0  0  0  0  0  0  0  0  0  0  0
  2  1  1  6
  2  3  1  0
  4  2  1  0
  4  5  1  6
  6  4  1  0
  7  6  2  0
  8  9  1  0
  9 10  1  0
 11 10  1  0
 12 11  1  1
 12 13  1  0
 13  6  1  0
 14 12  1  0
 14 15  2  0
 16 17  1  0
 17 19  1  0
 18 17  2  0
 20 19  1  1
 20 21  1  0
 21 14  1  0
 22 20  1  0
 23 22  1  0
 24 22  2  0
M  END
$$$$
