TMN.pdb
     RDKit          3D

 24 23  0  0  1  0  0  0  0  0999 V2000
   27.4386  -18.0611  -14.4471 C   0  0  0  0  0  0  0  0  0  0  0  0
   27.5840  -19.1783  -15.4490 C   0  0  1  0  0  0  0  0  0  0  0  0
   28.4365  -18.8375  -16.4654 O   0  0  0  0  0  0  0  0  0  0  0  0
   27.9837  -20.4786  -14.8001 C   0  0  2  0  0  0  0  0  0  0  0  0
   28.0384  -21.5360  -15.8021 N   0  0  0  0  0  0  0  0  0  0  0  0
   27.0003  -20.9371  -13.7851 C   0  0  0  0  0  0  0  0  0  0  0  0
   26.0218  -21.6868  -14.0486 O   0  0  0  0  0  0  0  0  0  0  0  0
   27.5248  -20.0517   -6.8157 C   0  0  0  0  0  0  0  0  0  0  0  0
   25.8733  -20.4732   -7.2465 S   0  0  0  0  0  0  0  0  0  0  0  0
   25.4556  -20.8098   -8.9171 C   0  0  0  0  0  0  0  0  0  0  0  0
   26.3817  -20.5903  -10.0150 C   0  0  0  0  0  0  0  0  0  0  0  0
   26.0786  -20.7420  -11.4392 C   0  0  2  0  0  0  0  0  0  0  0  0
   27.1116  -20.5420  -12.4074 N   0  0  0  0  0  0  0  0  0  0  0  0
   24.7920  -20.1059  -11.8557 C   0  0  0  0  0  0  0  0  0  0  0  0
   24.7775  -18.9189  -12.3118 O   0  0  0  0  0  0  0  0  0  0  0  0
   20.1226  -19.7608  -14.0697 N   0  0  0  0  0  0  0  0  0  0  0  0
   21.3171  -20.1391  -14.7622 C   0  0  0  0  0  0  0  0  0  0  0  0
   21.2566  -20.1960  -15.9983 O   0  0  0  0  0  0  0  0  0  0  0  0
   22.5180  -20.4297  -13.9605 C   0  0  0  0  0  0  0  0  0  0  0  0
   22.3315  -20.2686  -12.4690 C   0  0  2  0  0  0  0  0  0  0  0  0
   23.5428  -20.7539  -11.7763 N   0  0  0  0  0  0  0  0  0  0  0  0
   21.2546  -21.1625  -12.0197 C   0  0  0  0  0  0  0  0  0  0  0  0
   19.9414  -20.8653  -12.2985 O   0  0  0  0  0  0  0  0  0  0  0  0
   21.5044  -22.1990  -11.3826 O   0  0  0  0  0  0  0  0  0  0  0  0
  2  1  1  1
  2  3  1  0
  4  2  1  0
  4  5  1  6
  6  4  1  0
  7  6  2  0
  8  9  1  0
  9 10  1  0
 11 10  1  0
 12 11  1  1
 12 13  1  0
 13  6  1  0
 14 12  1  0
 14 15  2  0
 16 17  1  0
 17 19  1  0
 18 17  2  0
 20 19  1  6
 20 21  1  0
 21 14  1  0
 22 20  1  0
 23 22  1  0
 24 22  2  0
M  END
$$$$
