TMN.pdb
     RDKit          3D

 24 23  0  0  1  0  0  0  0  0999 V2000
   28.5042  -17.9169  -15.7445 C   0  0  0  0  0  0  0  0  0  0  0  0
   27.3803  -18.6692  -15.0781 C   0  0  1  0  0  0  0  0  0  0  0  0
   26.2712  -18.7340  -15.8791 O   0  0  0  0  0  0  0  0  0  0  0  0
   27.8079  -20.0359  -14.6082 C   0  0  2  0  0  0  0  0  0  0  0  0
   28.0549  -20.8996  -15.7563 N   0  0  0  0  0  0  0  0  0  0  0  0
   26.7587  -20.7199  -13.8089 C   0  0  0  0  0  0  0  0  0  0  0  0
   26.0677  -21.6820  -14.2400 O   0  0  0  0  0  0  0  0  0  0  0  0
   26.4382  -19.0908   -7.3508 C   0  0  0  0  0  0  0  0  0  0  0  0
   26.7274  -20.7818   -7.7346 S   0  0  0  0  0  0  0  0  0  0  0  0
   26.3347  -21.4050   -9.3271 C   0  0  0  0  0  0  0  0  0  0  0  0
   25.4172  -20.7284  -10.2280 C   0  0  0  0  0  0  0  0  0  0  0  0
   25.3926  -20.8563  -11.6862 C   0  0  2  0  0  0  0  0  0  0  0  0
   26.4639  -20.3132  -12.4619 N   0  0  0  0  0  0  0  0  0  0  0  0
   24.0593  -20.5691  -12.2970 C   0  0  0  0  0  0  0  0  0  0  0  0
   23.7341  -19.3789  -12.6051 O   0  0  0  0  0  0  0  0  0  0  0  0
   19.7801  -22.7149  -15.7510 N   0  0  0  0  0  0  0  0  0  0  0  0
   19.8954  -22.4892  -14.3421 C   0  0  0  0  0  0  0  0  0  0  0  0
   18.8551  -22.2091  -13.7302 O   0  0  0  0  0  0  0  0  0  0  0  0
   21.2302  -22.6057  -13.7305 C   0  0  0  0  0  0  0  0  0  0  0  0
   21.8294  -21.2943  -13.2761 C   0  0  2  0  0  0  0  0  0  0  0  0
   23.0975  -21.5633  -12.5673 N   0  0  0  0  0  0  0  0  0  0  0  0
   20.9513  -20.6891  -12.2646 C   0  0  0  0  0  0  0  0  0  0  0  0
   20.0547  -19.7084  -12.6181 O   0  0  0  0  0  0  0  0  0  0  0  0
   20.9987  -21.0470  -11.0762 O   0  0  0  0  0  0  0  0  0  0  0  0
  2  1  1  6
  2  3  1  0
  4  2  1  0
  4  5  1  6
  6  4  1  0
  7  6  2  0
  8  9  1  0
  9 10  1  0
 11 10  1  0
 12 11  1  1
 12 13  1  0
 13  6  1  0
 14 12  1  0
 14 15  2  0
 16 17  1  0
 17 19  1  0
 18 17  2  0
 20 19  1  1
 20 21  1  0
 21 14  1  0
 22 20  1  0
 23 22  1  0
 24 22  2  0
M  END
$$$$
