TMN.pdb
     RDKit          3D

 24 23  0  0  1  0  0  0  0  0999 V2000
   16.3551  -12.3592  -16.0165 C   0  0  0  0  0  0  0  0  0  0  0  0
   17.6956  -11.9560  -15.4568 C   0  0  1  0  0  0  0  0  0  0  0  0
   18.4502  -13.0475  -15.1172 O   0  0  0  0  0  0  0  0  0  0  0  0
   18.4436  -11.0277  -16.3790 C   0  0  2  0  0  0  0  0  0  0  0  0
   18.8600  -11.7481  -17.5759 N   0  0  0  0  0  0  0  0  0  0  0  0
   19.6933  -10.5022  -15.7709 C   0  0  0  0  0  0  0  0  0  0  0  0
   19.7232   -9.8320  -14.7038 O   0  0  0  0  0  0  0  0  0  0  0  0
   27.7795  -10.3387  -15.5008 C   0  0  0  0  0  0  0  0  0  0  0  0
   26.2352  -11.1007  -15.8542 S   0  0  0  0  0  0  0  0  0  0  0  0
   24.7748  -10.1328  -15.9496 C   0  0  0  0  0  0  0  0  0  0  0  0
   23.4714  -10.7083  -16.2344 C   0  0  0  0  0  0  0  0  0  0  0  0
   22.1767  -10.0762  -15.9749 C   0  0  2  0  0  0  0  0  0  0  0  0
   20.9742  -10.7345  -16.3809 N   0  0  0  0  0  0  0  0  0  0  0  0
   22.1442   -8.6141  -16.2823 C   0  0  0  0  0  0  0  0  0  0  0  0
   21.9533   -8.2096  -17.4727 O   0  0  0  0  0  0  0  0  0  0  0  0
   22.1838   -3.3974  -15.7826 N   0  0  0  0  0  0  0  0  0  0  0  0
   21.9152   -3.9447  -14.4873 C   0  0  0  0  0  0  0  0  0  0  0  0
   21.6764   -3.1408  -13.5754 O   0  0  0  0  0  0  0  0  0  0  0  0
   21.9427   -5.4096  -14.3369 C   0  0  0  0  0  0  0  0  0  0  0  0
   22.2491   -6.1660  -15.6095 C   0  0  2  0  0  0  0  0  0  0  0  0
   22.3166   -7.6106  -15.3076 N   0  0  0  0  0  0  0  0  0  0  0  0
   23.6004   -5.8111  -16.0664 C   0  0  0  0  0  0  0  0  0  0  0  0
   24.6951   -6.5049  -15.6070 O   0  0  0  0  0  0  0  0  0  0  0  0
   23.7830   -4.8834  -16.8717 O   0  0  0  0  0  0  0  0  0  0  0  0
  2  1  1  6
  2  3  1  0
  4  2  1  0
  4  5  1  6
  6  4  1  0
  7  6  2  0
  8  9  1  0
  9 10  1  0
 11 10  1  0
 12 11  1  6
 12 13  1  0
 13  6  1  0
 14 12  1  0
 14 15  2  0
 16 17  1  0
 17 19  1  0
 18 17  2  0
 20 19  1  1
 20 21  1  0
 21 14  1  0
 22 20  1  0
 23 22  1  0
 24 22  2  0
M  END
$$$$
