LEP.pdb
     RDKit          3D

 25 25  0  0  1  0  0  0  0  0999 V2000
   26.6780  -16.1921  -18.4643 C   0  0  0  0  0  0  0  0  0  0  0  0
   27.4235  -15.4123  -17.3860 C   0  0  2  0  0  0  0  0  0  0  0  0
   28.8827  -15.6564  -17.5600 C   0  0  0  0  0  0  0  0  0  0  0  0
   26.8787  -15.8787  -16.0603 C   0  0  0  0  0  0  0  0  0  0  0  0
   25.3767  -15.7476  -15.9742 C   0  0  2  0  0  0  0  0  0  0  0  0
   24.9416  -14.4500  -15.5788 N   0  0  0  0  0  0  0  0  0  0  0  0
   24.9062  -16.7416  -14.9785 C   0  0  0  0  0  0  0  0  0  0  0  0
   25.2291  -16.5671  -13.7651 O   0  0  0  0  0  0  0  0  0  0  0  0
   24.1275  -17.8606  -15.2960 N   0  0  0  0  0  0  0  0  0  0  0  0
   23.7131  -18.8041  -14.2092 C   0  0  1  0  0  0  0  0  0  0  0  0
   22.3051  -19.1772  -14.6720 C   0  0  0  0  0  0  0  0  0  0  0  0
   21.6783  -20.2449  -13.8442 C   0  0  0  0  0  0  0  0  0  0  0  0
   20.3028  -20.5581  -14.3704 C   0  0  0  0  0  0  0  0  0  0  0  0
   19.2895  -20.0378  -13.8651 O   0  0  0  0  0  0  0  0  0  0  0  0
   24.6090  -19.9544  -14.2009 C   0  0  0  0  0  0  0  0  0  0  0  0
   25.2144  -20.2236  -15.2874 O   0  0  0  0  0  0  0  0  0  0  0  0
   20.1977  -21.4320  -15.4213 O   0  0  0  0  0  0  0  0  0  0  0  0
   24.8376  -20.7600  -13.0852 N   0  0  0  0  0  0  0  0  0  0  0  0
   24.0893  -20.6313  -11.8210 C   0  0  0  0  0  0  0  0  0  0  0  0
   25.2107  -20.7378  -10.8095 C   0  0  0  0  0  0  0  0  0  0  0  0
   26.2278  -21.6478  -11.4622 C   0  0  0  0  0  0  0  0  0  0  0  0
   25.7209  -21.8727  -12.8658 C   0  0  1  0  0  0  0  0  0  0  0  0
   24.9434  -23.1591  -12.8477 C   0  0  0  0  0  0  0  0  0  0  0  0
   25.5086  -24.4086  -12.9237 O   0  0  0  0  0  0  0  0  0  0  0  0
   23.6938  -23.0680  -12.7554 O   0  0  0  0  0  0  0  0  0  0  0  0
  2  1  1  6
  2  3  1  0
  4  2  1  0
  5  4  1  0
  5  7  1  0
  5  6  1  1
  7  8  2  0
  9  7  1  0
  9 10  1  0
 10 11  1  6
 11 12  1  0
 12 13  1  0
 13 17  1  0
 14 13  2  0
 15 10  1  0
 15 16  2  0
 18 15  1  0
 19 18  1  0
 20 19  1  0
 21 22  1  0
 21 20  1  0
 22 18  1  0
 22 23  1  1
 24 23  1  0
 25 23  2  0
M  END
$$$$
