LEP.pdb
     RDKit          3D

 25 25  0  0  1  0  0  0  0  0999 V2000
   25.7322  -21.3861   -7.7945 C   0  0  0  0  0  0  0  0  0  0  0  0
   26.7599  -20.3586   -8.2578 C   0  0  2  0  0  0  0  0  0  0  0  0
   26.6786  -19.1781   -7.3528 C   0  0  0  0  0  0  0  0  0  0  0  0
   26.4425  -20.0486   -9.6982 C   0  0  0  0  0  0  0  0  0  0  0  0
   26.6099  -21.2496  -10.5984 C   0  0  2  0  0  0  0  0  0  0  0  0
   27.9709  -21.6020  -10.8279 N   0  0  0  0  0  0  0  0  0  0  0  0
   25.9691  -20.9184  -11.8948 C   0  0  0  0  0  0  0  0  0  0  0  0
   26.2723  -19.8170  -12.4444 O   0  0  0  0  0  0  0  0  0  0  0  0
   25.0502  -21.7472  -12.5490 N   0  0  0  0  0  0  0  0  0  0  0  0
   24.5402  -21.3600  -13.9030 C   0  0  1  0  0  0  0  0  0  0  0  0
   24.3628  -22.7338  -14.5485 C   0  0  0  0  0  0  0  0  0  0  0  0
   25.6531  -23.3838  -14.9104 C   0  0  0  0  0  0  0  0  0  0  0  0
   25.3914  -24.7384  -15.5133 C   0  0  0  0  0  0  0  0  0  0  0  0
   25.1896  -24.8673  -16.7363 O   0  0  0  0  0  0  0  0  0  0  0  0
   23.2718  -20.6558  -13.7578 C   0  0  0  0  0  0  0  0  0  0  0  0
   22.6714  -20.7701  -12.6417 O   0  0  0  0  0  0  0  0  0  0  0  0
   25.3816  -25.8253  -14.6781 O   0  0  0  0  0  0  0  0  0  0  0  0
   22.6921  -19.8741  -14.7573 N   0  0  0  0  0  0  0  0  0  0  0  0
   23.2481  -19.7478  -16.1174 C   0  0  0  0  0  0  0  0  0  0  0  0
   23.1158  -18.2572  -16.3462 C   0  0  0  0  0  0  0  0  0  0  0  0
   21.8870  -17.8582  -15.5590 C   0  0  0  0  0  0  0  0  0  0  0  0
   21.4855  -19.0935  -14.7908 C   0  0  1  0  0  0  0  0  0  0  0  0
   20.4353  -19.7930  -15.6079 C   0  0  0  0  0  0  0  0  0  0  0  0
   19.0967  -19.4866  -15.5774 O   0  0  0  0  0  0  0  0  0  0  0  0
   20.8247  -20.7166  -16.3654 O   0  0  0  0  0  0  0  0  0  0  0  0
  2  1  1  1
  2  3  1  0
  4  2  1  0
  5  4  1  0
  5  7  1  0
  5  6  1  6
  7  8  2  0
  9  7  1  0
  9 10  1  0
 10 11  1  6
 11 12  1  0
 12 13  1  0
 13 17  1  0
 14 13  2  0
 15 10  1  0
 15 16  2  0
 18 15  1  0
 19 18  1  0
 20 19  1  0
 21 22  1  0
 21 20  1  0
 22 18  1  0
 22 23  1  6
 24 23  1  0
 25 23  2  0
M  END
$$$$
