LEP.pdb
     RDKit          3D

 25 25  0  0  1  0  0  0  0  0999 V2000
   25.9109  -18.5110   -7.3823 C   0  0  0  0  0  0  0  0  0  0  0  0
   26.8935  -19.6736   -7.2850 C   0  0  2  0  0  0  0  0  0  0  0  0
   28.1327  -19.1814   -6.6206 C   0  0  0  0  0  0  0  0  0  0  0  0
   27.1100  -20.1756   -8.6895 C   0  0  0  0  0  0  0  0  0  0  0  0
   25.8555  -20.7590   -9.2948 C   0  0  2  0  0  0  0  0  0  0  0  0
   25.5419  -22.0603   -8.8072 N   0  0  0  0  0  0  0  0  0  0  0  0
   26.0675  -20.8284  -10.7614 C   0  0  0  0  0  0  0  0  0  0  0  0
   27.1495  -21.3371  -11.1829 O   0  0  0  0  0  0  0  0  0  0  0  0
   25.1465  -20.3667  -11.7090 N   0  0  0  0  0  0  0  0  0  0  0  0
   25.4541  -20.5091  -13.1679 C   0  0  1  0  0  0  0  0  0  0  0  0
   24.1576  -21.1388  -13.6762 C   0  0  0  0  0  0  0  0  0  0  0  0
   24.0311  -22.5822  -13.3316 C   0  0  0  0  0  0  0  0  0  0  0  0
   22.7650  -23.1402  -13.9253 C   0  0  0  0  0  0  0  0  0  0  0  0
   22.0409  -22.4428  -14.6617 O   0  0  0  0  0  0  0  0  0  0  0  0
   25.6839  -19.1895  -13.7438 C   0  0  0  0  0  0  0  0  0  0  0  0
   25.1853  -18.1945  -13.1268 O   0  0  0  0  0  0  0  0  0  0  0  0
   22.4321  -24.4373  -13.6322 O   0  0  0  0  0  0  0  0  0  0  0  0
   26.4110  -18.9617  -14.9123 N   0  0  0  0  0  0  0  0  0  0  0  0
   27.0360  -20.0368  -15.7050 C   0  0  0  0  0  0  0  0  0  0  0  0
   28.3893  -19.4269  -16.0026 C   0  0  0  0  0  0  0  0  0  0  0  0
   28.1285  -17.9385  -16.0778 C   0  0  0  0  0  0  0  0  0  0  0  0
   26.6909  -17.7623  -15.6538 C   0  0  1  0  0  0  0  0  0  0  0  0
   25.8672  -17.7230  -16.9107 C   0  0  0  0  0  0  0  0  0  0  0  0
   25.7091  -16.6103  -17.7003 O   0  0  0  0  0  0  0  0  0  0  0  0
   25.2923  -18.7878  -17.2484 O   0  0  0  0  0  0  0  0  0  0  0  0
  2  1  1  6
  2  3  1  0
  4  2  1  0
  5  4  1  0
  5  7  1  0
  5  6  1  1
  7  8  2  0
  9  7  1  0
  9 10  1  0
 10 11  1  6
 11 12  1  0
 12 13  1  0
 13 17  1  0
 14 13  2  0
 15 10  1  0
 15 16  2  0
 18 15  1  0
 19 18  1  0
 20 19  1  0
 21 22  1  0
 21 20  1  0
 22 18  1  0
 22 23  1  6
 24 23  1  0
 25 23  2  0
M  END
$$$$
