LEP.pdb
     RDKit          3D

 25 25  0  0  1  0  0  0  0  0999 V2000
   18.1862  -23.8296  -16.3813 C   0  0  0  0  0  0  0  0  0  0  0  0
   19.0766  -23.4867  -17.5715 C   0  0  2  0  0  0  0  0  0  0  0  0
   19.0197  -24.6199  -18.5369 C   0  0  0  0  0  0  0  0  0  0  0  0
   20.4536  -23.2216  -17.0192 C   0  0  0  0  0  0  0  0  0  0  0  0
   20.4449  -22.1932  -15.9134 C   0  0  2  0  0  0  0  0  0  0  0  0
   19.9832  -20.9124  -16.3327 N   0  0  0  0  0  0  0  0  0  0  0  0
   21.8381  -22.0690  -15.4192 C   0  0  0  0  0  0  0  0  0  0  0  0
   22.4163  -23.1161  -14.9993 O   0  0  0  0  0  0  0  0  0  0  0  0
   22.5540  -20.8666  -15.3877 N   0  0  0  0  0  0  0  0  0  0  0  0
   23.9102  -20.8312  -14.7528 C   0  0  1  0  0  0  0  0  0  0  0  0
   24.4691  -19.5345  -15.3378 C   0  0  0  0  0  0  0  0  0  0  0  0
   24.9340  -19.6776  -16.7454 C   0  0  0  0  0  0  0  0  0  0  0  0
   24.7600  -18.3728  -17.4761 C   0  0  0  0  0  0  0  0  0  0  0  0
   24.3338  -17.3605  -16.8874 O   0  0  0  0  0  0  0  0  0  0  0  0
   23.7631  -20.7591  -13.3040 C   0  0  0  0  0  0  0  0  0  0  0  0
   22.6262  -20.4054  -12.8551 O   0  0  0  0  0  0  0  0  0  0  0  0
   25.0838  -18.3308  -18.8075 O   0  0  0  0  0  0  0  0  0  0  0  0
   24.7822  -21.0550  -12.3986 N   0  0  0  0  0  0  0  0  0  0  0  0
   26.1673  -21.3602  -12.8029 C   0  0  0  0  0  0  0  0  0  0  0  0
   26.4742  -22.5445  -11.9111 C   0  0  0  0  0  0  0  0  0  0  0  0
   25.6647  -22.2974  -10.6571 C   0  0  0  0  0  0  0  0  0  0  0  0
   24.8139  -21.0888  -10.9618 C   0  0  1  0  0  0  0  0  0  0  0  0
   25.5503  -19.8915  -10.4289 C   0  0  0  0  0  0  0  0  0  0  0  0
   25.5174  -19.4801   -9.1188 O   0  0  0  0  0  0  0  0  0  0  0  0
   26.2384  -19.2345  -11.2494 O   0  0  0  0  0  0  0  0  0  0  0  0
  2  1  1  1
  2  3  1  0
  4  2  1  0
  5  4  1  0
  5  7  1  0
  5  6  1  6
  7  8  2  0
  9  7  1  0
  9 10  1  0
 10 11  1  6
 11 12  1  0
 12 13  1  0
 13 17  1  0
 14 13  2  0
 15 10  1  0
 15 16  2  0
 18 15  1  0
 19 18  1  0
 20 19  1  0
 21 22  1  0
 21 20  1  0
 22 18  1  0
 22 23  1  6
 24 23  1  0
 25 23  2  0
M  END
$$$$
