LEP.pdb
     RDKit          3D

 25 25  0  0  1  0  0  0  0  0999 V2000
   27.7033  -19.5245  -17.4678 C   0  0  0  0  0  0  0  0  0  0  0  0
   26.3430  -19.1048  -16.9200 C   0  0  2  0  0  0  0  0  0  0  0  0
   25.6941  -18.2114  -17.9201 C   0  0  0  0  0  0  0  0  0  0  0  0
   26.5972  -18.4487  -15.5871 C   0  0  0  0  0  0  0  0  0  0  0  0
   27.3315  -19.3547  -14.6276 C   0  0  2  0  0  0  0  0  0  0  0  0
   27.3330  -20.7223  -15.0263 N   0  0  0  0  0  0  0  0  0  0  0  0
   26.6604  -19.2339  -13.3101 C   0  0  0  0  0  0  0  0  0  0  0  0
   26.4794  -18.0711  -12.8387 O   0  0  0  0  0  0  0  0  0  0  0  0
   26.2147  -20.3249  -12.5549 N   0  0  0  0  0  0  0  0  0  0  0  0
   25.5644  -20.0871  -11.2268 C   0  0  1  0  0  0  0  0  0  0  0  0
   24.2113  -20.7641  -11.4424 C   0  0  0  0  0  0  0  0  0  0  0  0
   23.3793  -20.0961  -12.4816 C   0  0  0  0  0  0  0  0  0  0  0  0
   22.0588  -20.8072  -12.6137 C   0  0  0  0  0  0  0  0  0  0  0  0
   21.3378  -21.0103  -11.6178 O   0  0  0  0  0  0  0  0  0  0  0  0
   26.3439  -20.7426  -10.1834 C   0  0  0  0  0  0  0  0  0  0  0  0
   26.9323  -21.8268  -10.4960 O   0  0  0  0  0  0  0  0  0  0  0  0
   21.6728  -21.2245  -13.8611 O   0  0  0  0  0  0  0  0  0  0  0  0
   26.4805  -20.2527   -8.8845 N   0  0  0  0  0  0  0  0  0  0  0  0
   25.8045  -19.0356   -8.3981 C   0  0  0  0  0  0  0  0  0  0  0  0
   26.9286  -18.3655   -7.6368 C   0  0  0  0  0  0  0  0  0  0  0  0
   27.7677  -19.5092   -7.1110 C   0  0  0  0  0  0  0  0  0  0  0  0
   27.1851  -20.7532   -7.7357 C   0  0  1  0  0  0  0  0  0  0  0  0
   26.2163  -21.3283   -6.7405 C   0  0  0  0  0  0  0  0  0  0  0  0
   26.5826  -21.9688   -5.5819 O   0  0  0  0  0  0  0  0  0  0  0  0
   24.9932  -21.2054   -6.9999 O   0  0  0  0  0  0  0  0  0  0  0  0
  2  1  1  6
  2  3  1  0
  4  2  1  0
  5  4  1  0
  5  7  1  0
  5  6  1  6
  7  8  2  0
  9  7  1  0
  9 10  1  0
 10 11  1  6
 11 12  1  0
 12 13  1  0
 13 17  1  0
 14 13  2  0
 15 10  1  0
 15 16  2  0
 18 15  1  0
 19 18  1  0
 20 19  1  0
 21 22  1  0
 21 20  1  0
 22 18  1  0
 22 23  1  1
 24 23  1  0
 25 23  2  0
M  END
$$$$
