LEP.pdb
     RDKit          3D

 25 25  0  0  1  0  0  0  0  0999 V2000
   23.3416  -15.0768  -14.4424 C   0  0  0  0  0  0  0  0  0  0  0  0
   23.8283  -14.5511  -15.7890 C   0  0  2  0  0  0  0  0  0  0  0  0
   25.1992  -15.0829  -16.0284 C   0  0  0  0  0  0  0  0  0  0  0  0
   23.7591  -13.0473  -15.7168 C   0  0  0  0  0  0  0  0  0  0  0  0
   22.3523  -12.5431  -15.4997 C   0  0  2  0  0  0  0  0  0  0  0  0
   21.3865  -13.1787  -16.3319 N   0  0  0  0  0  0  0  0  0  0  0  0
   22.3587  -11.0879  -15.7880 C   0  0  0  0  0  0  0  0  0  0  0  0
   23.2330  -10.3713  -15.2141 O   0  0  0  0  0  0  0  0  0  0  0  0
   21.4589  -10.4568  -16.6548 N   0  0  0  0  0  0  0  0  0  0  0  0
   21.5425   -8.9748  -16.8549 C   0  0  1  0  0  0  0  0  0  0  0  0
   20.7772   -8.8172  -18.1684 C   0  0  0  0  0  0  0  0  0  0  0  0
   19.3443   -9.2096  -18.0640 C   0  0  0  0  0  0  0  0  0  0  0  0
   18.5317   -8.4519  -19.0801 C   0  0  0  0  0  0  0  0  0  0  0  0
   18.4672   -8.8353  -20.2640 O   0  0  0  0  0  0  0  0  0  0  0  0
   20.8749   -8.2999  -15.7483 C   0  0  0  0  0  0  0  0  0  0  0  0
   20.0539   -8.9884  -15.0618 O   0  0  0  0  0  0  0  0  0  0  0  0
   17.8650   -7.3283  -18.6650 O   0  0  0  0  0  0  0  0  0  0  0  0
   21.0860   -6.9644  -15.4047 N   0  0  0  0  0  0  0  0  0  0  0  0
   21.9168   -6.0408  -16.1994 C   0  0  0  0  0  0  0  0  0  0  0  0
   22.7002   -5.3444  -15.1070 C   0  0  0  0  0  0  0  0  0  0  0  0
   21.7631   -5.3241  -13.9195 C   0  0  0  0  0  0  0  0  0  0  0  0
   20.5722   -6.1526  -14.3354 C   0  0  1  0  0  0  0  0  0  0  0  0
   19.5371   -5.1963  -14.8587 C   0  0  0  0  0  0  0  0  0  0  0  0
   19.2597   -5.0055  -16.1903 O   0  0  0  0  0  0  0  0  0  0  0  0
   18.8902   -4.5358  -14.0080 O   0  0  0  0  0  0  0  0  0  0  0  0
  2  1  1  1
  2  3  1  0
  4  2  1  0
  5  4  1  0
  5  7  1  0
  5  6  1  6
  7  8  2  0
  9  7  1  0
  9 10  1  0
 10 11  1  6
 11 12  1  0
 12 13  1  0
 13 17  1  0
 14 13  2  0
 15 10  1  0
 15 16  2  0
 18 15  1  0
 19 18  1  0
 20 19  1  0
 21 22  1  0
 21 20  1  0
 22 18  1  0
 22 23  1  6
 24 23  1  0
 25 23  2  0
M  END
$$$$
