LEP.pdb
     RDKit          3D

 25 25  0  0  1  0  0  0  0  0999 V2000
   19.8644  -11.8586    4.9643 C   0  0  0  0  0  0  0  0  0  0  0  0
   19.7973  -11.5209    6.4502 C   0  0  2  0  0  0  0  0  0  0  0  0
   21.1765  -11.2094    6.9195 C   0  0  0  0  0  0  0  0  0  0  0  0
   19.1710  -12.7081    7.1357 C   0  0  0  0  0  0  0  0  0  0  0  0
   17.8033  -13.0374    6.5868 C   0  0  2  0  0  0  0  0  0  0  0  0
   16.8044  -12.0861    6.9427 N   0  0  0  0  0  0  0  0  0  0  0  0
   17.4225  -14.3658    7.1263 C   0  0  0  0  0  0  0  0  0  0  0  0
   17.1145  -14.4438    8.3536 O   0  0  0  0  0  0  0  0  0  0  0  0
   17.3822  -15.5390    6.3639 N   0  0  0  0  0  0  0  0  0  0  0  0
   17.1511  -16.8536    7.0434 C   0  0  1  0  0  0  0  0  0  0  0  0
   16.8254  -17.7447    5.8452 C   0  0  0  0  0  0  0  0  0  0  0  0
   16.4169  -19.1236    6.2325 C   0  0  0  0  0  0  0  0  0  0  0  0
   16.2034  -19.9589    4.9982 C   0  0  0  0  0  0  0  0  0  0  0  0
   16.4324  -19.4964    3.8639 O   0  0  0  0  0  0  0  0  0  0  0  0
   18.3747  -17.2699    7.7182 C   0  0  0  0  0  0  0  0  0  0  0  0
   19.4743  -16.8582    7.2277 O   0  0  0  0  0  0  0  0  0  0  0  0
   15.7499  -21.2425    5.1584 O   0  0  0  0  0  0  0  0  0  0  0  0
   18.4051  -18.0780    8.8548 N   0  0  0  0  0  0  0  0  0  0  0  0
   17.2066  -18.7113    9.4359 C   0  0  0  0  0  0  0  0  0  0  0  0
   17.4275  -18.4488   10.9105 C   0  0  0  0  0  0  0  0  0  0  0  0
   18.9312  -18.4515   11.0772 C   0  0  0  0  0  0  0  0  0  0  0  0
   19.4887  -18.5419    9.6777 C   0  0  1  0  0  0  0  0  0  0  0  0
   19.7606  -19.9959    9.4097 C   0  0  0  0  0  0  0  0  0  0  0  0
   18.9683  -20.8026    8.6300 O   0  0  0  0  0  0  0  0  0  0  0  0
   20.7859  -20.4908    9.9409 O   0  0  0  0  0  0  0  0  0  0  0  0
  2  1  1  6
  2  3  1  0
  4  2  1  0
  5  4  1  0
  5  7  1  0
  5  6  1  1
  7  8  2  0
  9  7  1  0
  9 10  1  0
 10 11  1  6
 11 12  1  0
 12 13  1  0
 13 17  1  0
 14 13  2  0
 15 10  1  0
 15 16  2  0
 18 15  1  0
 19 18  1  0
 20 19  1  0
 21 22  1  0
 21 20  1  0
 22 18  1  0
 22 23  1  6
 24 23  1  0
 25 23  2  0
M  END
$$$$
