LEP.pdb
     RDKit          3D

 25 25  0  0  1  0  0  0  0  0999 V2000
   16.3553  -12.9699  -14.5433 C   0  0  0  0  0  0  0  0  0  0  0  0
   17.4020  -13.2418  -15.6190 C   0  0  2  0  0  0  0  0  0  0  0  0
   17.9702  -14.5985  -15.3832 C   0  0  0  0  0  0  0  0  0  0  0  0
   18.4150  -12.1295  -15.5277 C   0  0  0  0  0  0  0  0  0  0  0  0
   17.7955  -10.7661  -15.7223 C   0  0  2  0  0  0  0  0  0  0  0  0
   17.1103  -10.6255  -16.9633 N   0  0  0  0  0  0  0  0  0  0  0  0
   18.8950   -9.7720  -15.6597 C   0  0  0  0  0  0  0  0  0  0  0  0
   19.6192   -9.7503  -14.6195 O   0  0  0  0  0  0  0  0  0  0  0  0
   19.1823   -8.8562  -16.6786 N   0  0  0  0  0  0  0  0  0  0  0  0
   20.2620   -7.8385  -16.4737 C   0  0  1  0  0  0  0  0  0  0  0  0
   20.5706   -7.4500  -17.9193 C   0  0  0  0  0  0  0  0  0  0  0  0
   21.3574   -8.4821  -18.6498 C   0  0  0  0  0  0  0  0  0  0  0  0
   21.6140   -8.0249  -20.0611 C   0  0  0  0  0  0  0  0  0  0  0  0
   21.5093   -6.8234  -20.3746 O   0  0  0  0  0  0  0  0  0  0  0  0
   19.7299   -6.7178  -15.7076 C   0  0  0  0  0  0  0  0  0  0  0  0
   18.4639   -6.5975  -15.6625 O   0  0  0  0  0  0  0  0  0  0  0  0
   21.9660   -8.9686  -20.9910 O   0  0  0  0  0  0  0  0  0  0  0  0
   20.5193   -5.7884  -15.0301 N   0  0  0  0  0  0  0  0  0  0  0  0
   21.9912   -5.7544  -15.1153 C   0  0  0  0  0  0  0  0  0  0  0  0
   22.3598   -5.5445  -13.6620 C   0  0  0  0  0  0  0  0  0  0  0  0
   21.2166   -4.7338  -13.0920 C   0  0  0  0  0  0  0  0  0  0  0  0
   20.1841   -4.6705  -14.1907 C   0  0  1  0  0  0  0  0  0  0  0  0
   20.4100   -3.3799  -14.9276 C   0  0  0  0  0  0  0  0  0  0  0  0
   19.9386   -2.1577  -14.5145 O   0  0  0  0  0  0  0  0  0  0  0  0
   21.0778   -3.4401  -15.9901 O   0  0  0  0  0  0  0  0  0  0  0  0
  2  1  1  1
  2  3  1  0
  4  2  1  0
  5  4  1  0
  5  7  1  0
  5  6  1  6
  7  8  2  0
  9  7  1  0
  9 10  1  0
 10 11  1  6
 11 12  1  0
 12 13  1  0
 13 17  1  0
 14 13  2  0
 15 10  1  0
 15 16  2  0
 18 15  1  0
 19 18  1  0
 20 19  1  0
 21 22  1  0
 21 20  1  0
 22 18  1  0
 22 23  1  6
 24 23  1  0
 25 23  2  0
M  END
$$$$
