LEP.pdb
     RDKit          3D

 25 25  0  0  1  0  0  0  0  0999 V2000
   30.7611  -23.0023   -9.4581 C   0  0  0  0  0  0  0  0  0  0  0  0
   30.7222  -21.5085   -9.7646 C   0  0  2  0  0  0  0  0  0  0  0  0
   31.3176  -20.7807   -8.6092 C   0  0  0  0  0  0  0  0  0  0  0  0
   29.2804  -21.1592  -10.0310 C   0  0  0  0  0  0  0  0  0  0  0  0
   28.7715  -21.7511  -11.3237 C   0  0  2  0  0  0  0  0  0  0  0  0
   29.6802  -21.6061  -12.4112 N   0  0  0  0  0  0  0  0  0  0  0  0
   27.5034  -21.0562  -11.6549 C   0  0  0  0  0  0  0  0  0  0  0  0
   26.8769  -20.4810  -10.7148 O   0  0  0  0  0  0  0  0  0  0  0  0
   26.9557  -20.9962  -12.9416 N   0  0  0  0  0  0  0  0  0  0  0  0
   25.6188  -20.3524  -13.1457 C   0  0  1  0  0  0  0  0  0  0  0  0
   25.6479  -20.0978  -14.6523 C   0  0  0  0  0  0  0  0  0  0  0  0
   24.3705  -19.5420  -15.1790 C   0  0  0  0  0  0  0  0  0  0  0  0
   24.4772  -19.3370  -16.6667 C   0  0  0  0  0  0  0  0  0  0  0  0
   25.0449  -20.1778  -17.3904 O   0  0  0  0  0  0  0  0  0  0  0  0
   24.5685  -21.2912  -12.7697 C   0  0  0  0  0  0  0  0  0  0  0  0
   24.8382  -22.5308  -12.8691 O   0  0  0  0  0  0  0  0  0  0  0  0
   23.9320  -18.1989  -17.2019 O   0  0  0  0  0  0  0  0  0  0  0  0
   23.3069  -20.9111  -12.3114 N   0  0  0  0  0  0  0  0  0  0  0  0
   22.8644  -19.5076  -12.2150 C   0  0  0  0  0  0  0  0  0  0  0  0
   22.1905  -19.5098  -10.8593 C   0  0  0  0  0  0  0  0  0  0  0  0
   21.6343  -20.9090  -10.7122 C   0  0  0  0  0  0  0  0  0  0  0  0
   22.1612  -21.6759  -11.9004 C   0  0  1  0  0  0  0  0  0  0  0  0
   21.0950  -21.6265  -12.9590 C   0  0  0  0  0  0  0  0  0  0  0  0
   21.1888  -20.9008  -14.1214 O   0  0  0  0  0  0  0  0  0  0  0  0
   20.0553  -22.3006  -12.7520 O   0  0  0  0  0  0  0  0  0  0  0  0
  2  1  1  1
  2  3  1  0
  4  2  1  0
  5  4  1  0
  5  7  1  0
  5  6  1  6
  7  8  2  0
  9  7  1  0
  9 10  1  0
 10 11  1  6
 11 12  1  0
 12 13  1  0
 13 17  1  0
 14 13  2  0
 15 10  1  0
 15 16  2  0
 18 15  1  0
 19 18  1  0
 20 19  1  0
 21 22  1  0
 21 20  1  0
 22 18  1  0
 22 23  1  6
 24 23  1  0
 25 23  2  0
M  END
$$$$
