LEP.pdb
     RDKit          3D

 25 25  0  0  1  0  0  0  0  0999 V2000
   29.4838  -17.8504  -19.3337 C   0  0  0  0  0  0  0  0  0  0  0  0
   28.8415  -16.8303  -18.3990 C   0  0  2  0  0  0  0  0  0  0  0  0
   29.8483  -15.7735  -18.1010 C   0  0  0  0  0  0  0  0  0  0  0  0
   28.3744  -17.5907  -17.1844 C   0  0  0  0  0  0  0  0  0  0  0  0
   27.4162  -18.7046  -17.5330 C   0  0  2  0  0  0  0  0  0  0  0  0
   26.6062  -18.4219  -18.6703 N   0  0  0  0  0  0  0  0  0  0  0  0
   26.5407  -18.9148  -16.3540 C   0  0  0  0  0  0  0  0  0  0  0  0
   26.7616  -18.2197  -15.3171 O   0  0  0  0  0  0  0  0  0  0  0  0
   25.4855  -19.8337  -16.3154 N   0  0  0  0  0  0  0  0  0  0  0  0
   24.7403  -20.0489  -15.0341 C   0  0  1  0  0  0  0  0  0  0  0  0
   23.3527  -20.4087  -15.5640 C   0  0  0  0  0  0  0  0  0  0  0  0
   22.4110  -20.8451  -14.4959 C   0  0  0  0  0  0  0  0  0  0  0  0
   21.0891  -20.1438  -14.6622 C   0  0  0  0  0  0  0  0  0  0  0  0
   20.2164  -20.2024  -13.7746 O   0  0  0  0  0  0  0  0  0  0  0  0
   25.3491  -21.1525  -14.3011 C   0  0  0  0  0  0  0  0  0  0  0  0
   26.0703  -21.9614  -14.9680 O   0  0  0  0  0  0  0  0  0  0  0  0
   20.8738  -19.4390  -15.8181 O   0  0  0  0  0  0  0  0  0  0  0  0
   25.1898  -21.3642  -12.9315 N   0  0  0  0  0  0  0  0  0  0  0  0
   24.2914  -20.5601  -12.0824 C   0  0  0  0  0  0  0  0  0  0  0  0
   25.1692  -20.3290  -10.8708 C   0  0  0  0  0  0  0  0  0  0  0  0
   26.0374  -21.5652  -10.7876 C   0  0  0  0  0  0  0  0  0  0  0  0
   25.7353  -22.3512  -12.0400 C   0  0  1  0  0  0  0  0  0  0  0  0
   24.6842  -23.3628  -11.6771 C   0  0  0  0  0  0  0  0  0  0  0  0
   24.9497  -24.6009  -11.1450 O   0  0  0  0  0  0  0  0  0  0  0  0
   23.4875  -23.0380  -11.8791 O   0  0  0  0  0  0  0  0  0  0  0  0
  2  1  1  6
  2  3  1  0
  4  2  1  0
  5  4  1  0
  5  7  1  0
  5  6  1  6
  7  8  2  0
  9  7  1  0
  9 10  1  0
 10 11  1  6
 11 12  1  0
 12 13  1  0
 13 17  1  0
 14 13  2  0
 15 10  1  0
 15 16  2  0
 18 15  1  0
 19 18  1  0
 20 19  1  0
 21 22  1  0
 21 20  1  0
 22 18  1  0
 22 23  1  1
 24 23  1  0
 25 23  2  0
M  END
$$$$
