LEP.pdb
     RDKit          3D

 25 25  0  0  1  0  0  0  0  0999 V2000
   30.0314  -22.3527  -12.2099 C   0  0  0  0  0  0  0  0  0  0  0  0
   30.8953  -21.1345  -12.5203 C   0  0  2  0  0  0  0  0  0  0  0  0
   31.8265  -20.9208  -11.3773 C   0  0  0  0  0  0  0  0  0  0  0  0
   29.9510  -19.9853  -12.7637 C   0  0  0  0  0  0  0  0  0  0  0  0
   28.8745  -20.3242  -13.7671 C   0  0  2  0  0  0  0  0  0  0  0  0
   29.0459  -19.6767  -15.0243 N   0  0  0  0  0  0  0  0  0  0  0  0
   27.5788  -19.9056  -13.1783 C   0  0  0  0  0  0  0  0  0  0  0  0
   27.5026  -18.7464  -12.6707 O   0  0  0  0  0  0  0  0  0  0  0  0
   26.4348  -20.7116  -13.1484 N   0  0  0  0  0  0  0  0  0  0  0  0
   25.2181  -20.2397  -12.4132 C   0  0  1  0  0  0  0  0  0  0  0  0
   24.1566  -20.3571  -13.5064 C   0  0  0  0  0  0  0  0  0  0  0  0
   22.7875  -20.0073  -13.0357 C   0  0  0  0  0  0  0  0  0  0  0  0
   21.7921  -20.2405  -14.1410 C   0  0  0  0  0  0  0  0  0  0  0  0
   22.1673  -20.5749  -15.2813 O   0  0  0  0  0  0  0  0  0  0  0  0
   24.9526  -21.1358  -11.2941 C   0  0  0  0  0  0  0  0  0  0  0  0
   25.0774  -22.3836  -11.5103 O   0  0  0  0  0  0  0  0  0  0  0  0
   20.4615  -20.0744  -13.8564 O   0  0  0  0  0  0  0  0  0  0  0  0
   24.5789  -20.7071  -10.0203 N   0  0  0  0  0  0  0  0  0  0  0  0
   24.4602  -19.2868   -9.6415 C   0  0  0  0  0  0  0  0  0  0  0  0
   25.1364  -19.2917   -8.2870 C   0  0  0  0  0  0  0  0  0  0  0  0
   24.8494  -20.6657   -7.7225 C   0  0  0  0  0  0  0  0  0  0  0  0
   24.1799  -21.4259   -8.8411 C   0  0  1  0  0  0  0  0  0  0  0  0
   22.6972  -21.2972   -8.6295 C   0  0  0  0  0  0  0  0  0  0  0  0
   21.8565  -20.5792   -9.4446 O   0  0  0  0  0  0  0  0  0  0  0  0
   22.2097  -21.8932   -7.6368 O   0  0  0  0  0  0  0  0  0  0  0  0
  2  1  1  1
  2  3  1  0
  4  2  1  0
  5  4  1  0
  5  7  1  0
  5  6  1  6
  7  8  2  0
  9  7  1  0
  9 10  1  0
 10 11  1  6
 11 12  1  0
 12 13  1  0
 13 17  1  0
 14 13  2  0
 15 10  1  0
 15 16  2  0
 18 15  1  0
 19 18  1  0
 20 19  1  0
 21 22  1  0
 21 20  1  0
 22 18  1  0
 22 23  1  1
 24 23  1  0
 25 23  2  0
M  END
$$$$
