LEP.pdb
     RDKit          3D

 25 25  0  0  1  0  0  0  0  0999 V2000
   36.0120  -29.7920  -18.0962 C   0  0  0  0  0  0  0  0  0  0  0  0
   35.7103  -29.2450  -19.4877 C   0  0  2  0  0  0  0  0  0  0  0  0
   36.3242  -27.8923  -19.5992 C   0  0  0  0  0  0  0  0  0  0  0  0
   34.2107  -29.2510  -19.6390 C   0  0  0  0  0  0  0  0  0  0  0  0
   33.6211  -30.6342  -19.4981 C   0  0  2  0  0  0  0  0  0  0  0  0
   33.8323  -31.4605  -20.6391 N   0  0  0  0  0  0  0  0  0  0  0  0
   32.1627  -30.4691  -19.2817 C   0  0  0  0  0  0  0  0  0  0  0  0
   31.4551  -30.0871  -20.2618 O   0  0  0  0  0  0  0  0  0  0  0  0
   31.5194  -30.7091  -18.0620 N   0  0  0  0  0  0  0  0  0  0  0  0
   30.0455  -30.4698  -17.9450 C   0  0  1  0  0  0  0  0  0  0  0  0
   29.6903  -31.4122  -16.7954 C   0  0  0  0  0  0  0  0  0  0  0  0
   28.2607  -31.3272  -16.3865 C   0  0  0  0  0  0  0  0  0  0  0  0
   27.9807  -32.3276  -15.2967 C   0  0  0  0  0  0  0  0  0  0  0  0
   28.8711  -33.0990  -14.8906 O   0  0  0  0  0  0  0  0  0  0  0  0
   29.8091  -29.0730  -17.6002 C   0  0  0  0  0  0  0  0  0  0  0  0
   30.6891  -28.4974  -16.8836 O   0  0  0  0  0  0  0  0  0  0  0  0
   26.7180  -32.3652  -14.7644 O   0  0  0  0  0  0  0  0  0  0  0  0
   28.6919  -28.3446  -18.0091 N   0  0  0  0  0  0  0  0  0  0  0  0
   27.5760  -28.9278  -18.7769 C   0  0  0  0  0  0  0  0  0  0  0  0
   27.3424  -27.8482  -19.8122 C   0  0  0  0  0  0  0  0  0  0  0  0
   27.7129  -26.5603  -19.1103 C   0  0  0  0  0  0  0  0  0  0  0  0
   28.2961  -26.9811  -17.7836 C   0  0  1  0  0  0  0  0  0  0  0  0
   27.1801  -26.9223  -16.7782 C   0  0  0  0  0  0  0  0  0  0  0  0
   26.5037  -28.0200  -16.3045 O   0  0  0  0  0  0  0  0  0  0  0  0
   26.8572  -25.7856  -16.3516 O   0  0  0  0  0  0  0  0  0  0  0  0
  2  1  1  1
  2  3  1  0
  4  2  1  0
  5  4  1  0
  5  7  1  0
  5  6  1  6
  7  8  2  0
  9  7  1  0
  9 10  1  0
 10 11  1  1
 11 12  1  0
 12 13  1  0
 13 17  1  0
 14 13  2  0
 15 10  1  0
 15 16  2  0
 18 15  1  0
 19 18  1  0
 20 19  1  0
 21 22  1  0
 21 20  1  0
 22 18  1  0
 22 23  1  1
 24 23  1  0
 25 23  2  0
M  END
$$$$
