LEP.pdb
     RDKit          3D

 25 25  0  0  1  0  0  0  0  0999 V2000
   26.1038  -31.6813   -3.8235 C   0  0  0  0  0  0  0  0  0  0  0  0
   24.8165  -31.5753   -3.0122 C   0  0  2  0  0  0  0  0  0  0  0  0
   24.5043  -30.1312   -2.8212 C   0  0  0  0  0  0  0  0  0  0  0  0
   25.0525  -32.3258   -1.7266 C   0  0  0  0  0  0  0  0  0  0  0  0
   25.4219  -33.7713   -1.9605 C   0  0  2  0  0  0  0  0  0  0  0  0
   24.4171  -34.5099   -2.6492 N   0  0  0  0  0  0  0  0  0  0  0  0
   25.6502  -34.3863   -0.6300 C   0  0  0  0  0  0  0  0  0  0  0  0
   24.6422  -34.5955    0.1098 O   0  0  0  0  0  0  0  0  0  0  0  0
   26.9101  -34.7500   -0.1406 N   0  0  0  0  0  0  0  0  0  0  0  0
   27.0241  -35.3663    1.2197 C   0  0  1  0  0  0  0  0  0  0  0  0
   28.4646  -35.8757    1.1862 C   0  0  0  0  0  0  0  0  0  0  0  0
   28.8496  -36.6301    2.4113 C   0  0  0  0  0  0  0  0  0  0  0  0
   30.2753  -37.0999    2.2952 C   0  0  0  0  0  0  0  0  0  0  0  0
   30.9625  -37.3193    3.3113 O   0  0  0  0  0  0  0  0  0  0  0  0
   26.8313  -34.3366    2.2339 C   0  0  0  0  0  0  0  0  0  0  0  0
   27.1546  -33.1469    1.9187 O   0  0  0  0  0  0  0  0  0  0  0  0
   30.7951  -37.2793    1.0395 O   0  0  0  0  0  0  0  0  0  0  0  0
   26.3173  -34.5797    3.5077 N   0  0  0  0  0  0  0  0  0  0  0  0
   26.0649  -35.9319    4.0395 C   0  0  0  0  0  0  0  0  0  0  0  0
   24.7080  -35.7407    4.6829 C   0  0  0  0  0  0  0  0  0  0  0  0
   24.7037  -34.2993    5.1425 C   0  0  0  0  0  0  0  0  0  0  0  0
   25.9744  -33.6999    4.5916 C   0  0  1  0  0  0  0  0  0  0  0  0
   27.0065  -33.7888    5.6809 C   0  0  0  0  0  0  0  0  0  0  0  0
   27.0584  -32.9544    6.7708 O   0  0  0  0  0  0  0  0  0  0  0  0
   27.8719  -34.6932    5.5730 O   0  0  0  0  0  0  0  0  0  0  0  0
  2  1  1  6
  2  3  1  0
  4  2  1  0
  5  4  1  0
  5  7  1  0
  5  6  1  1
  7  8  2  0
  9  7  1  0
  9 10  1  0
 10 11  1  1
 11 12  1  0
 12 13  1  0
 13 17  1  0
 14 13  2  0
 15 10  1  0
 15 16  2  0
 18 15  1  0
 19 18  1  0
 20 19  1  0
 21 22  1  0
 21 20  1  0
 22 18  1  0
 22 23  1  1
 24 23  1  0
 25 23  2  0
M  END
$$$$
