LEP.pdb
     RDKit          3D

 25 25  0  0  1  0  0  0  0  0999 V2000
   26.3871  -21.6401   -8.5680 C   0  0  0  0  0  0  0  0  0  0  0  0
   26.9781  -20.2515   -8.7902 C   0  0  2  0  0  0  0  0  0  0  0  0
   26.5791  -19.3871   -7.6445 C   0  0  0  0  0  0  0  0  0  0  0  0
   26.4676  -19.7728  -10.1251 C   0  0  0  0  0  0  0  0  0  0  0  0
   25.8447  -20.8829  -10.9377 C   0  0  2  0  0  0  0  0  0  0  0  0
   26.7898  -21.6272  -11.7008 N   0  0  0  0  0  0  0  0  0  0  0  0
   24.8643  -20.2558  -11.8576 C   0  0  0  0  0  0  0  0  0  0  0  0
   23.9488  -19.5387  -11.3529 O   0  0  0  0  0  0  0  0  0  0  0  0
   24.8875  -20.4069  -13.2490 N   0  0  0  0  0  0  0  0  0  0  0  0
   23.8304  -19.7483  -14.0809 C   0  0  1  0  0  0  0  0  0  0  0  0
   24.4561  -19.8444  -15.4719 C   0  0  0  0  0  0  0  0  0  0  0  0
   23.5682  -19.3316  -16.5522 C   0  0  0  0  0  0  0  0  0  0  0  0
   24.2645  -19.4439  -17.8823 C   0  0  0  0  0  0  0  0  0  0  0  0
   24.5600  -18.4269  -18.5389 O   0  0  0  0  0  0  0  0  0  0  0  0
   22.5931  -20.5135  -13.9836 C   0  0  0  0  0  0  0  0  0  0  0  0
   22.7021  -21.7725  -13.8342 O   0  0  0  0  0  0  0  0  0  0  0  0
   24.5638  -20.6973  -18.3500 O   0  0  0  0  0  0  0  0  0  0  0  0
   21.3182  -19.9500  -14.0407 N   0  0  0  0  0  0  0  0  0  0  0  0
   21.0555  -18.5762  -14.5082 C   0  0  0  0  0  0  0  0  0  0  0  0
   20.0652  -18.1010  -13.4662 C   0  0  0  0  0  0  0  0  0  0  0  0
   19.3099  -19.3478  -13.0615 C   0  0  0  0  0  0  0  0  0  0  0  0
   20.0149  -20.4863  -13.7573 C   0  0  1  0  0  0  0  0  0  0  0  0
   19.2687  -20.7447  -15.0364 C   0  0  0  0  0  0  0  0  0  0  0  0
   18.0605  -21.3935  -15.1125 O   0  0  0  0  0  0  0  0  0  0  0  0
   19.7987  -20.3321  -16.0982 O   0  0  0  0  0  0  0  0  0  0  0  0
  2  1  1  1
  2  3  1  0
  4  2  1  0
  5  4  1  0
  5  7  1  0
  5  6  1  6
  7  8  2  0
  9  7  1  0
  9 10  1  0
 10 11  1  6
 11 12  1  0
 12 13  1  0
 13 17  1  0
 14 13  2  0
 15 10  1  0
 15 16  2  0
 18 15  1  0
 19 18  1  0
 20 19  1  0
 21 22  1  0
 21 20  1  0
 22 18  1  0
 22 23  1  6
 24 23  1  0
 25 23  2  0
M  END
$$$$
