LEP.pdb
     RDKit          3D

 25 25  0  0  1  0  0  0  0  0999 V2000
   22.8468  -15.3921  -17.5129 C   0  0  0  0  0  0  0  0  0  0  0  0
   21.5549  -16.0685  -17.0655 C   0  0  2  0  0  0  0  0  0  0  0  0
   20.7119  -15.0520  -16.3761 C   0  0  0  0  0  0  0  0  0  0  0  0
   21.9548  -17.2280  -16.1896 C   0  0  0  0  0  0  0  0  0  0  0  0
   22.8617  -18.2039  -16.9007 C   0  0  2  0  0  0  0  0  0  0  0  0
   22.2560  -18.8203  -18.0332 N   0  0  0  0  0  0  0  0  0  0  0  0
   23.2339  -19.2519  -15.9189 C   0  0  0  0  0  0  0  0  0  0  0  0
   22.3174  -20.0117  -15.4831 O   0  0  0  0  0  0  0  0  0  0  0  0
   24.5349  -19.4539  -15.4437 N   0  0  0  0  0  0  0  0  0  0  0  0
   24.7805  -20.4739  -14.3747 C   0  0  1  0  0  0  0  0  0  0  0  0
   25.9412  -21.2585  -14.9855 C   0  0  0  0  0  0  0  0  0  0  0  0
   26.2303  -20.8772  -16.3959 C   0  0  0  0  0  0  0  0  0  0  0  0
   27.4084  -21.6634  -16.9065 C   0  0  0  0  0  0  0  0  0  0  0  0
   27.9671  -22.5177  -16.1917 O   0  0  0  0  0  0  0  0  0  0  0  0
   25.1660  -19.7978  -13.1418 C   0  0  0  0  0  0  0  0  0  0  0  0
   25.4762  -18.5668  -13.2301 O   0  0  0  0  0  0  0  0  0  0  0  0
   27.8483  -21.4122  -18.1803 O   0  0  0  0  0  0  0  0  0  0  0  0
   25.2090  -20.4151  -11.8916 N   0  0  0  0  0  0  0  0  0  0  0  0
   24.9463  -21.8512  -11.6832 C   0  0  0  0  0  0  0  0  0  0  0  0
   24.0622  -21.8079  -10.4550 C   0  0  0  0  0  0  0  0  0  0  0  0
   24.5400  -20.5972   -9.6838 C   0  0  0  0  0  0  0  0  0  0  0  0
   25.5440  -19.9199  -10.5843 C   0  0  1  0  0  0  0  0  0  0  0  0
   26.9025  -20.4144  -10.1724 C   0  0  0  0  0  0  0  0  0  0  0  0
   27.5912  -19.9651   -9.0722 O   0  0  0  0  0  0  0  0  0  0  0  0
   27.4290  -21.2989  -10.8927 O   0  0  0  0  0  0  0  0  0  0  0  0
  2  1  1  1
  2  3  1  0
  4  2  1  0
  5  4  1  0
  5  7  1  0
  5  6  1  6
  7  8  2  0
  9  7  1  0
  9 10  1  0
 10 11  1  6
 11 12  1  0
 12 13  1  0
 13 17  1  0
 14 13  2  0
 15 10  1  0
 15 16  2  0
 18 15  1  0
 19 18  1  0
 20 19  1  0
 21 22  1  0
 21 20  1  0
 22 18  1  0
 22 23  1  1
 24 23  1  0
 25 23  2  0
M  END
$$$$
