FAS.pdb
     RDKit          3D

 23 23  0  0  1  0  0  0  0  0999 V2000
   22.7625  -13.4823  -14.4909 N   0  0  0  0  0  0  0  0  0  0  0  0
   23.5986  -12.6786  -15.3205 C   0  0  1  0  0  0  0  0  0  0  0  0
   24.0523  -13.4739  -16.5232 C   0  0  0  0  0  0  0  0  0  0  0  0
   24.8239  -14.6405  -16.0214 C   0  0  0  0  0  0  0  0  0  0  0  0
   25.9650  -14.5225  -15.2490 C   0  0  0  0  0  0  0  0  0  0  0  0
   26.6636  -15.6163  -14.7955 C   0  0  0  0  0  0  0  0  0  0  0  0
   26.2196  -16.8797  -15.1163 C   0  0  0  0  0  0  0  0  0  0  0  0
   25.0785  -17.0574  -15.8898 C   0  0  0  0  0  0  0  0  0  0  0  0
   24.4147  -15.9235  -16.3191 C   0  0  0  0  0  0  0  0  0  0  0  0
   22.8496  -11.4638  -15.7003 C   0  0  0  0  0  0  0  0  0  0  0  0
   23.2784  -10.7266  -16.6171 O   0  0  0  0  0  0  0  0  0  0  0  0
   19.5139   -9.9315  -14.7550 C   0  0  0  0  0  0  0  0  0  0  0  0
   20.9105   -9.8906  -15.3505 C   0  0  2  0  0  0  0  0  0  0  0  0
   21.6504  -11.1187  -15.0417 N   0  0  0  0  0  0  0  0  0  0  0  0
   21.7035   -8.7610  -14.7987 C   0  0  0  0  0  0  0  0  0  0  0  0
   22.4294   -8.8905  -13.7703 O   0  0  0  0  0  0  0  0  0  0  0  0
   23.2678   -5.8510  -17.1127 O   0  0  0  0  0  0  0  0  0  0  0  0
   22.6389   -5.3455  -15.9918 C   0  0  0  0  0  0  0  0  0  0  0  0
   22.5535   -6.3923  -14.9041 C   0  0  2  0  0  0  0  0  0  0  0  0
   21.6990   -7.4661  -15.3872 N   0  0  0  0  0  0  0  0  0  0  0  0
   21.8845   -5.8322  -13.6899 C   0  0  0  0  0  0  0  0  0  0  0  0
   20.6351   -5.9175  -13.5683 O   0  0  0  0  0  0  0  0  0  0  0  0
   22.5812   -5.2101  -12.6678 O   0  0  0  0  0  0  0  0  0  0  0  0
  2  1  1  1
  2 10  1  0
  3  2  1  0
  4  5  2  0
  4  3  1  0
  6  5  1  0
  7  6  2  0
  8  7  1  0
  8  9  2  0
  9  4  1  0
 10 11  2  0
 10 14  1  0
 13 15  1  0
 13 12  1  1
 14 13  1  0
 15 16  2  0
 18 17  1  0
 19 18  1  6
 20 19  1  0
 20 15  1  0
 21 19  1  0
 22 21  2  0
 23 21  1  0
M  END
$$$$
