FAS.pdb
     RDKit          3D

 23 23  0  0  1  0  0  0  0  0999 V2000
   18.3772   -9.6514  -13.6987 N   0  0  0  0  0  0  0  0  0  0  0  0
   18.9061   -8.5763  -12.9258 C   0  0  1  0  0  0  0  0  0  0  0  0
   19.9361   -7.8176  -13.7310 C   0  0  0  0  0  0  0  0  0  0  0  0
   21.0726   -8.7406  -13.9843 C   0  0  0  0  0  0  0  0  0  0  0  0
   21.2777   -9.3812  -15.1928 C   0  0  0  0  0  0  0  0  0  0  0  0
   22.3368  -10.2317  -15.4050 C   0  0  0  0  0  0  0  0  0  0  0  0
   23.2317  -10.4611  -14.3839 C   0  0  0  0  0  0  0  0  0  0  0  0
   23.0745   -9.8441  -13.1484 C   0  0  0  0  0  0  0  0  0  0  0  0
   21.9925   -8.9987  -12.9895 C   0  0  0  0  0  0  0  0  0  0  0  0
   17.7855   -7.7165  -12.4944 C   0  0  0  0  0  0  0  0  0  0  0  0
   16.8197   -7.5154  -13.2657 O   0  0  0  0  0  0  0  0  0  0  0  0
   16.7312   -6.0901   -9.2450 C   0  0  0  0  0  0  0  0  0  0  0  0
   16.6898   -6.2580  -10.7539 C   0  0  2  0  0  0  0  0  0  0  0  0
   17.7861   -7.1143  -11.2185 N   0  0  0  0  0  0  0  0  0  0  0  0
   16.8392   -4.9533  -11.4500 C   0  0  0  0  0  0  0  0  0  0  0  0
   17.9737   -4.4753  -11.7426 O   0  0  0  0  0  0  0  0  0  0  0  0
   14.5648   -1.4288  -13.9190 O   0  0  0  0  0  0  0  0  0  0  0  0
   14.5027   -2.5836  -13.1639 C   0  0  0  0  0  0  0  0  0  0  0  0
   15.8670   -2.9475  -12.6232 C   0  0  2  0  0  0  0  0  0  0  0  0
   15.7222   -4.1594  -11.8314 N   0  0  0  0  0  0  0  0  0  0  0  0
   16.3600   -1.8882  -11.6902 C   0  0  0  0  0  0  0  0  0  0  0  0
   16.0304   -1.9207  -10.4763 O   0  0  0  0  0  0  0  0  0  0  0  0
   17.1786   -0.8489  -12.0985 O   0  0  0  0  0  0  0  0  0  0  0  0
  2  1  1  6
  2 10  1  0
  3  2  1  0
  4  5  2  0
  4  3  1  0
  6  5  1  0
  7  6  2  0
  8  7  1  0
  8  9  2  0
  9  4  1  0
 10 11  2  0
 10 14  1  0
 13 15  1  0
 13 12  1  1
 14 13  1  0
 15 16  2  0
 18 17  1  0
 19 18  1  1
 20 19  1  0
 20 15  1  0
 21 19  1  0
 22 21  2  0
 23 21  1  0
M  END
$$$$
