FAS.pdb
     RDKit          3D

 23 23  0  0  1  0  0  0  0  0999 V2000
   24.0938  -20.0265  -10.8942 N   0  0  0  0  0  0  0  0  0  0  0  0
   25.4730  -20.0429  -11.2556 C   0  0  1  0  0  0  0  0  0  0  0  0
   26.1492  -21.2576  -10.6622 C   0  0  0  0  0  0  0  0  0  0  0  0
   26.5900  -20.8969   -9.2898 C   0  0  0  0  0  0  0  0  0  0  0  0
   27.9027  -20.6088   -8.9635 C   0  0  0  0  0  0  0  0  0  0  0  0
   28.2883  -20.2774   -7.6861 C   0  0  0  0  0  0  0  0  0  0  0  0
   27.3410  -20.2277   -6.6880 C   0  0  0  0  0  0  0  0  0  0  0  0
   26.0068  -20.5079   -6.9591 C   0  0  0  0  0  0  0  0  0  0  0  0
   25.6743  -20.8354   -8.2602 C   0  0  0  0  0  0  0  0  0  0  0  0
   25.5695  -20.0097  -12.7289 C   0  0  0  0  0  0  0  0  0  0  0  0
   24.5325  -20.0985  -13.4250 O   0  0  0  0  0  0  0  0  0  0  0  0
   28.3664  -18.9022  -15.0155 C   0  0  0  0  0  0  0  0  0  0  0  0
   26.9515  -19.3818  -14.7422 C   0  0  2  0  0  0  0  0  0  0  0  0
   26.8203  -19.8786  -13.3685 N   0  0  0  0  0  0  0  0  0  0  0  0
   26.5745  -20.5029  -15.6423 C   0  0  0  0  0  0  0  0  0  0  0  0
   26.4837  -20.3551  -16.8958 O   0  0  0  0  0  0  0  0  0  0  0  0
   25.0261  -24.2020  -14.2867 O   0  0  0  0  0  0  0  0  0  0  0  0
   26.0336  -24.1916  -15.2313 C   0  0  0  0  0  0  0  0  0  0  0  0
   25.9929  -22.9199  -16.0481 C   0  0  2  0  0  0  0  0  0  0  0  0
   26.2921  -21.8097  -15.1567 N   0  0  0  0  0  0  0  0  0  0  0  0
   24.6145  -22.6802  -16.5755 C   0  0  0  0  0  0  0  0  0  0  0  0
   24.1419  -23.4401  -17.4599 O   0  0  0  0  0  0  0  0  0  0  0  0
   23.8106  -21.6432  -16.1333 O   0  0  0  0  0  0  0  0  0  0  0  0
  2  1  1  6
  2 10  1  0
  3  2  1  0
  4  5  2  0
  4  3  1  0
  6  5  1  0
  7  6  2  0
  8  7  1  0
  8  9  2  0
  9  4  1  0
 10 11  2  0
 10 14  1  0
 13 15  1  0
 13 12  1  6
 14 13  1  0
 15 16  2  0
 18 17  1  0
 19 18  1  1
 20 19  1  0
 20 15  1  0
 21 19  1  0
 22 21  2  0
 23 21  1  0
M  END
$$$$
