FAS.pdb
     RDKit          3D

 23 23  0  0  1  0  0  0  0  0999 V2000
   26.9445  -21.4590   -8.4389 N   0  0  0  0  0  0  0  0  0  0  0  0
   26.4977  -20.1130   -8.5861 C   0  0  1  0  0  0  0  0  0  0  0  0
   27.6373  -19.1570   -8.3173 C   0  0  0  0  0  0  0  0  0  0  0  0
   28.0125  -19.3011   -6.8868 C   0  0  0  0  0  0  0  0  0  0  0  0
   27.2237  -18.8498   -5.8442 C   0  0  0  0  0  0  0  0  0  0  0  0
   27.5909  -18.9937   -4.5272 C   0  0  0  0  0  0  0  0  0  0  0  0
   28.7855  -19.6080   -4.2241 C   0  0  0  0  0  0  0  0  0  0  0  0
   29.6179  -20.0807   -5.2319 C   0  0  0  0  0  0  0  0  0  0  0  0
   29.2001  -19.9100   -6.5384 C   0  0  0  0  0  0  0  0  0  0  0  0
   25.9384  -19.9529   -9.9435 C   0  0  0  0  0  0  0  0  0  0  0  0
   25.2606  -18.9382  -10.2242 O   0  0  0  0  0  0  0  0  0  0  0  0
   26.5987  -21.5713  -13.2707 C   0  0  0  0  0  0  0  0  0  0  0  0
   25.7401  -20.7450  -12.3290 C   0  0  2  0  0  0  0  0  0  0  0  0
   26.1574  -20.9321  -10.9355 N   0  0  0  0  0  0  0  0  0  0  0  0
   24.3103  -21.1437  -12.4066 C   0  0  0  0  0  0  0  0  0  0  0  0
   23.9265  -22.3194  -12.1387 O   0  0  0  0  0  0  0  0  0  0  0  0
   21.0639  -19.0398  -11.2484 O   0  0  0  0  0  0  0  0  0  0  0  0
   21.0519  -19.3838  -12.5860 C   0  0  0  0  0  0  0  0  0  0  0  0
   21.8827  -20.6231  -12.8308 C   0  0  2  0  0  0  0  0  0  0  0  0
   23.2840  -20.2346  -12.7852 N   0  0  0  0  0  0  0  0  0  0  0  0
   21.6353  -21.1561  -14.2057 C   0  0  0  0  0  0  0  0  0  0  0  0
   22.3452  -20.7618  -15.1668 O   0  0  0  0  0  0  0  0  0  0  0  0
   20.6444  -22.0816  -14.4858 O   0  0  0  0  0  0  0  0  0  0  0  0
  2  1  1  6
  2 10  1  0
  3  2  1  0
  4  5  2  0
  4  3  1  0
  6  5  1  0
  7  6  2  0
  8  7  1  0
  8  9  2  0
  9  4  1  0
 10 11  2  0
 10 14  1  0
 13 15  1  0
 13 12  1  6
 14 13  1  0
 15 16  2  0
 18 17  1  0
 19 18  1  6
 20 19  1  0
 20 15  1  0
 21 19  1  0
 22 21  2  0
 23 21  1  0
M  END
$$$$
