FAS.pdb
     RDKit          3D

 23 23  0  0  1  0  0  0  0  0999 V2000
   27.1761  -19.7950  -17.4571 N   0  0  0  0  0  0  0  0  0  0  0  0
   27.3822  -19.0229  -16.2761 C   0  0  1  0  0  0  0  0  0  0  0  0
   26.3469  -17.9252  -16.1881 C   0  0  0  0  0  0  0  0  0  0  0  0
   26.6889  -16.9061  -17.2140 C   0  0  0  0  0  0  0  0  0  0  0  0
   27.7683  -16.0484  -17.1040 C   0  0  0  0  0  0  0  0  0  0  0  0
   28.0660  -15.1124  -18.0660 C   0  0  0  0  0  0  0  0  0  0  0  0
   27.2670  -15.0171  -19.1835 C   0  0  0  0  0  0  0  0  0  0  0  0
   26.1691  -15.8538  -19.3461 C   0  0  0  0  0  0  0  0  0  0  0  0
   25.9156  -16.7765  -18.3487 C   0  0  0  0  0  0  0  0  0  0  0  0
   27.3390  -19.9307  -15.1120 C   0  0  0  0  0  0  0  0  0  0  0  0
   26.4255  -20.7818  -15.0171 O   0  0  0  0  0  0  0  0  0  0  0  0
   29.4328  -20.4109  -11.9768 C   0  0  0  0  0  0  0  0  0  0  0  0
   28.1700  -20.5395  -12.8106 C   0  0  2  0  0  0  0  0  0  0  0  0
   28.3175  -19.8533  -14.0984 N   0  0  0  0  0  0  0  0  0  0  0  0
   27.0025  -19.9240  -12.1271 C   0  0  0  0  0  0  0  0  0  0  0  0
   26.5630  -18.7815  -12.4481 O   0  0  0  0  0  0  0  0  0  0  0  0
   22.7734  -20.8313  -11.8421 O   0  0  0  0  0  0  0  0  0  0  0  0
   24.1379  -20.8708  -12.0521 C   0  0  0  0  0  0  0  0  0  0  0  0
   24.8846  -20.3671  -10.8377 C   0  0  2  0  0  0  0  0  0  0  0  0
   26.3053  -20.5751  -11.0720 N   0  0  0  0  0  0  0  0  0  0  0  0
   24.5308  -21.1777   -9.6322 C   0  0  0  0  0  0  0  0  0  0  0  0
   25.2190  -22.1877   -9.3332 O   0  0  0  0  0  0  0  0  0  0  0  0
   23.4621  -20.8706   -8.8073 O   0  0  0  0  0  0  0  0  0  0  0  0
  2  1  1  6
  2 10  1  0
  3  2  1  0
  4  5  2  0
  4  3  1  0
  6  5  1  0
  7  6  2  0
  8  7  1  0
  8  9  2  0
  9  4  1  0
 10 11  2  0
 10 14  1  0
 13 15  1  0
 13 12  1  1
 14 13  1  0
 15 16  2  0
 18 17  1  0
 19 18  1  6
 20 19  1  0
 20 15  1  0
 21 19  1  0
 22 21  2  0
 23 21  1  0
M  END
$$$$
