FAS.pdb
     RDKit          3D

 23 23  0  0  1  0  0  0  0  0999 V2000
   19.3977  -29.1130   -9.7676 N   0  0  0  0  0  0  0  0  0  0  0  0
   20.5881  -29.8724   -9.9662 C   0  0  1  0  0  0  0  0  0  0  0  0
   21.7016  -28.9722  -10.4502 C   0  0  0  0  0  0  0  0  0  0  0  0
   21.3339  -28.4993  -11.8100 C   0  0  0  0  0  0  0  0  0  0  0  0
   20.7020  -27.2929  -12.0509 C   0  0  0  0  0  0  0  0  0  0  0  0
   20.3707  -26.8753  -13.3183 C   0  0  0  0  0  0  0  0  0  0  0  0
   20.6746  -27.6798  -14.3937 C   0  0  0  0  0  0  0  0  0  0  0  0
   21.3094  -28.9027  -14.2101 C   0  0  0  0  0  0  0  0  0  0  0  0
   21.6196  -29.2735  -12.9152 C   0  0  0  0  0  0  0  0  0  0  0  0
   20.9251  -30.5512   -8.6987 C   0  0  0  0  0  0  0  0  0  0  0  0
   20.7137  -29.9762   -7.6067 O   0  0  0  0  0  0  0  0  0  0  0  0
   20.7040  -33.5152   -7.0680 C   0  0  0  0  0  0  0  0  0  0  0  0
   21.8166  -32.5588   -7.4607 C   0  0  2  0  0  0  0  0  0  0  0  0
   21.4853  -31.8462   -8.6991 N   0  0  0  0  0  0  0  0  0  0  0  0
   23.0917  -33.2811   -7.7086 C   0  0  0  0  0  0  0  0  0  0  0  0
   23.3352  -33.8530   -8.8108 O   0  0  0  0  0  0  0  0  0  0  0  0
   25.8648  -33.7340   -4.6825 O   0  0  0  0  0  0  0  0  0  0  0  0
   26.3785  -33.5580   -5.9524 C   0  0  0  0  0  0  0  0  0  0  0  0
   25.3929  -34.0217   -7.0011 C   0  0  2  0  0  0  0  0  0  0  0  0
   24.1177  -33.3768   -6.7280 N   0  0  0  0  0  0  0  0  0  0  0  0
   25.1571  -35.4934   -6.8836 C   0  0  0  0  0  0  0  0  0  0  0  0
   24.1171  -35.9173   -6.3164 O   0  0  0  0  0  0  0  0  0  0  0  0
   26.0416  -36.4378   -7.3765 O   0  0  0  0  0  0  0  0  0  0  0  0
  2  1  1  1
  2 10  1  0
  3  2  1  0
  4  5  2  0
  4  3  1  0
  6  5  1  0
  7  6  2  0
  8  7  1  0
  8  9  2  0
  9  4  1  0
 10 11  2  0
 10 14  1  0
 13 15  1  0
 13 12  1  6
 14 13  1  0
 15 16  2  0
 18 17  1  0
 19 18  1  1
 20 19  1  0
 20 15  1  0
 21 19  1  0
 22 21  2  0
 23 21  1  0
M  END
$$$$
