FAS.pdb
     RDKit          3D

 23 23  0  0  1  0  0  0  0  0999 V2000
   17.7223  -23.3404  -12.7276 N   0  0  0  0  0  0  0  0  0  0  0  0
   18.2596  -24.0836  -11.6358 C   0  0  1  0  0  0  0  0  0  0  0  0
   19.7533  -23.8689  -11.5489 C   0  0  0  0  0  0  0  0  0  0  0  0
   20.3765  -24.6065  -12.6782 C   0  0  0  0  0  0  0  0  0  0  0  0
   20.6052  -25.9704  -12.6623 C   0  0  0  0  0  0  0  0  0  0  0  0
   21.1837  -26.6325  -13.7192 C   0  0  0  0  0  0  0  0  0  0  0  0
   21.5527  -25.9213  -14.8391 C   0  0  0  0  0  0  0  0  0  0  0  0
   21.3466  -24.5485  -14.9097 C   0  0  0  0  0  0  0  0  0  0  0  0
   20.7613  -23.9334  -13.8190 C   0  0  0  0  0  0  0  0  0  0  0  0
   17.5601  -23.6719  -10.4021 C   0  0  0  0  0  0  0  0  0  0  0  0
   17.4810  -22.4583  -10.1042 O   0  0  0  0  0  0  0  0  0  0  0  0
   14.8308  -24.3637   -8.3715 C   0  0  0  0  0  0  0  0  0  0  0  0
   16.3435  -24.2681   -8.2756 C   0  0  2  0  0  0  0  0  0  0  0  0
   16.9755  -24.6311   -9.5483 N   0  0  0  0  0  0  0  0  0  0  0  0
   16.8825  -25.1967   -7.2479 C   0  0  0  0  0  0  0  0  0  0  0  0
   17.4049  -26.3075   -7.5556 O   0  0  0  0  0  0  0  0  0  0  0  0
   17.6640  -25.9855   -2.4962 O   0  0  0  0  0  0  0  0  0  0  0  0
   17.2689  -25.1339   -3.5092 C   0  0  0  0  0  0  0  0  0  0  0  0
   17.3797  -25.8115   -4.8563 C   0  0  2  0  0  0  0  0  0  0  0  0
   16.8469  -24.8999   -5.8572 N   0  0  0  0  0  0  0  0  0  0  0  0
   16.5222  -27.0355   -4.8988 C   0  0  0  0  0  0  0  0  0  0  0  0
   17.0191  -28.1578   -4.6217 O   0  0  0  0  0  0  0  0  0  0  0  0
   15.1792  -27.0009   -5.2342 O   0  0  0  0  0  0  0  0  0  0  0  0
  2  1  1  6
  2 10  1  0
  3  2  1  0
  4  5  2  0
  4  3  1  0
  6  5  1  0
  7  6  2  0
  8  7  1  0
  8  9  2  0
  9  4  1  0
 10 11  2  0
 10 14  1  0
 13 15  1  0
 13 12  1  6
 14 13  1  0
 15 16  2  0
 18 17  1  0
 19 18  1  1
 20 19  1  0
 20 15  1  0
 21 19  1  0
 22 21  2  0
 23 21  1  0
M  END
$$$$
