FAS.pdb
     RDKit          3D

 23 23  0  0  1  0  0  0  0  0999 V2000
   39.5572  -10.8603   -5.7911 N   0  0  0  0  0  0  0  0  0  0  0  0
   40.1935  -11.3911   -6.9516 C   0  0  1  0  0  0  0  0  0  0  0  0
   39.2643  -11.2970   -8.1400 C   0  0  0  0  0  0  0  0  0  0  0  0
   38.2671  -12.3915   -8.0145 C   0  0  0  0  0  0  0  0  0  0  0  0
   37.2691  -12.6216   -8.9439 C   0  0  0  0  0  0  0  0  0  0  0  0
   36.3565  -13.6408   -8.8074 C   0  0  0  0  0  0  0  0  0  0  0  0
   36.4300  -14.4682   -7.7092 C   0  0  0  0  0  0  0  0  0  0  0  0
   37.4126  -14.2831   -6.7436 C   0  0  0  0  0  0  0  0  0  0  0  0
   38.3041  -13.2435   -6.9305 C   0  0  0  0  0  0  0  0  0  0  0  0
   41.4573  -10.6582   -7.1671 C   0  0  0  0  0  0  0  0  0  0  0  0
   41.5605   -9.4675   -6.7933 O   0  0  0  0  0  0  0  0  0  0  0  0
   44.9264  -11.5692   -8.3941 C   0  0  0  0  0  0  0  0  0  0  0  0
   43.8289  -10.5881   -8.0203 C   0  0  2  0  0  0  0  0  0  0  0  0
   42.5576  -11.2827   -7.7916 N   0  0  0  0  0  0  0  0  0  0  0  0
   43.5900   -9.6009   -9.1055 C   0  0  0  0  0  0  0  0  0  0  0  0
   42.8181   -9.8466  -10.0777 O   0  0  0  0  0  0  0  0  0  0  0  0
   43.5350   -5.5549   -8.5696 O   0  0  0  0  0  0  0  0  0  0  0  0
   44.3463   -5.9767   -9.6047 C   0  0  0  0  0  0  0  0  0  0  0  0
   43.8938   -7.3202  -10.1305 C   0  0  2  0  0  0  0  0  0  0  0  0
   44.2101   -8.3209   -9.1229 N   0  0  0  0  0  0  0  0  0  0  0  0
   44.6685   -7.6914  -11.3542 C   0  0  0  0  0  0  0  0  0  0  0  0
   45.8150   -8.1969  -11.2396 O   0  0  0  0  0  0  0  0  0  0  0  0
   44.1818   -7.5051  -12.6369 O   0  0  0  0  0  0  0  0  0  0  0  0
  2  1  1  1
  2 10  1  0
  3  2  1  0
  4  5  2  0
  4  3  1  0
  6  5  1  0
  7  6  2  0
  8  7  1  0
  8  9  2  0
  9  4  1  0
 10 11  2  0
 10 14  1  0
 13 15  1  0
 13 12  1  6
 14 13  1  0
 15 16  2  0
 18 17  1  0
 19 18  1  1
 20 19  1  0
 20 15  1  0
 21 19  1  0
 22 21  2  0
 23 21  1  0
M  END
$$$$
