GQS.pdb
     RDKit          3D

 20 19  0  0  1  0  0  0  0  0999 V2000
   18.3365  -11.8996  -15.0611 N   0  0  0  0  0  0  0  0  0  0  0  0
   19.2530  -10.9947  -15.6768 C   0  0  0  0  0  0  0  0  0  0  0  0
   19.0930   -9.5915  -15.1503 C   0  0  0  0  0  0  0  0  0  0  0  0
   19.0670   -8.6878  -15.9889 O   0  0  0  0  0  0  0  0  0  0  0  0
   16.7383   -7.9261   -9.4436 N   0  0  0  0  0  0  0  0  0  0  0  0
   17.1620   -6.6756   -9.9718 C   0  0  0  0  0  0  0  0  0  0  0  0
   16.9421   -5.6447   -9.3388 O   0  0  0  0  0  0  0  0  0  0  0  0
   17.8662   -6.6788  -11.2868 C   0  0  0  0  0  0  0  0  0  0  0  0
   18.0150   -8.0592  -11.8520 C   0  0  0  0  0  0  0  0  0  0  0  0
   18.8274   -8.0724  -13.1227 C   0  0  2  0  0  0  0  0  0  0  0  0
   18.9793   -9.3344  -13.7633 N   0  0  0  0  0  0  0  0  0  0  0  0
   20.0130   -7.2040  -13.0996 C   0  0  0  0  0  0  0  0  0  0  0  0
   20.9827   -7.5382  -12.3738 O   0  0  0  0  0  0  0  0  0  0  0  0
   21.0543   -4.9350  -16.2074 O   0  0  0  0  0  0  0  0  0  0  0  0
   22.0100   -5.2279  -15.2391 C   0  0  0  0  0  0  0  0  0  0  0  0
   21.3344   -5.2095  -13.8858 C   0  0  2  0  0  0  0  0  0  0  0  0
   20.1308   -5.9913  -13.8595 N   0  0  0  0  0  0  0  0  0  0  0  0
   21.0116   -3.8084  -13.5502 C   0  0  0  0  0  0  0  0  0  0  0  0
   19.8115   -3.4716  -13.4229 O   0  0  0  0  0  0  0  0  0  0  0  0
   21.9854   -2.8482  -13.3697 O   0  0  0  0  0  0  0  0  0  0  0  0
  2  1  1  0
  3  2  1  0
  4  3  2  0
  6  8  1  0
  6  5  1  0
  7  6  2  0
  9  8  1  0
 10  9  1  1
 10 11  1  0
 11  3  1  0
 12 17  1  0
 12 10  1  0
 13 12  2  0
 15 14  1  0
 16 15  1  6
 16 17  1  0
 18 16  1  0
 18 20  1  0
 19 18  2  0
M  END
$$$$
