GQS.pdb
     RDKit          3D

 20 19  0  0  1  0  0  0  0  0999 V2000
   19.3750  -12.1104  -16.0599 N   0  0  0  0  0  0  0  0  0  0  0  0
   18.4830  -11.0758  -16.4744 C   0  0  0  0  0  0  0  0  0  0  0  0
   18.7924   -9.7654  -15.7967 C   0  0  0  0  0  0  0  0  0  0  0  0
   17.9789   -9.3738  -14.9569 O   0  0  0  0  0  0  0  0  0  0  0  0
   22.1321   -7.2947  -12.7641 N   0  0  0  0  0  0  0  0  0  0  0  0
   22.2465   -6.0614  -13.4627 C   0  0  0  0  0  0  0  0  0  0  0  0
   22.5127   -5.0349  -12.8403 O   0  0  0  0  0  0  0  0  0  0  0  0
   22.0375   -6.0767  -14.9396 C   0  0  0  0  0  0  0  0  0  0  0  0
   21.7787   -7.4562  -15.4658 C   0  0  0  0  0  0  0  0  0  0  0  0
   20.3089   -7.7222  -15.6746 C   0  0  2  0  0  0  0  0  0  0  0  0
   19.9588   -9.0299  -16.1146 N   0  0  0  0  0  0  0  0  0  0  0  0
   19.5658   -6.6079  -16.2801 C   0  0  0  0  0  0  0  0  0  0  0  0
   19.4750   -6.5625  -17.5325 O   0  0  0  0  0  0  0  0  0  0  0  0
   15.8051   -4.0302  -16.5791 O   0  0  0  0  0  0  0  0  0  0  0  0
   16.5884   -5.0172  -15.9884 C   0  0  0  0  0  0  0  0  0  0  0  0
   18.0398   -4.6110  -16.1183 C   0  0  2  0  0  0  0  0  0  0  0  0
   18.9344   -5.5633  -15.5237 N   0  0  0  0  0  0  0  0  0  0  0  0
   18.2136   -3.3022  -15.4577 C   0  0  0  0  0  0  0  0  0  0  0  0
   19.0250   -3.1999  -14.5085 O   0  0  0  0  0  0  0  0  0  0  0  0
   17.5134   -2.1790  -15.8463 O   0  0  0  0  0  0  0  0  0  0  0  0
  2  1  1  0
  3  2  1  0
  4  3  2  0
  6  8  1  0
  6  5  1  0
  7  6  2  0
  9  8  1  0
 10  9  1  6
 10 11  1  0
 11  3  1  0
 12 17  1  0
 12 10  1  0
 13 12  2  0
 15 14  1  0
 16 15  1  1
 16 17  1  0
 18 16  1  0
 18 20  1  0
 19 18  2  0
M  END
$$$$
