GQS.pdb
     RDKit          3D

 20 19  0  0  1  0  0  0  0  0999 V2000
   16.4849   -4.2438   -7.3639 N   0  0  0  0  0  0  0  0  0  0  0  0
   15.7722   -4.8306   -8.4527 C   0  0  0  0  0  0  0  0  0  0  0  0
   16.5104   -6.0090   -9.0346 C   0  0  0  0  0  0  0  0  0  0  0  0
   17.6908   -6.1383   -8.7024 O   0  0  0  0  0  0  0  0  0  0  0  0
   14.0722  -11.5652  -10.8484 N   0  0  0  0  0  0  0  0  0  0  0  0
   15.4636  -11.7251  -11.0945 C   0  0  0  0  0  0  0  0  0  0  0  0
   15.9086  -12.8414  -11.3546 O   0  0  0  0  0  0  0  0  0  0  0  0
   16.3260  -10.5099  -11.0268 C   0  0  0  0  0  0  0  0  0  0  0  0
   15.5661   -9.2936  -10.5905 C   0  0  0  0  0  0  0  0  0  0  0  0
   16.4369   -8.0631  -10.5394 C   0  0  2  0  0  0  0  0  0  0  0  0
   15.8730   -6.9145   -9.9157 N   0  0  0  0  0  0  0  0  0  0  0  0
   17.2305   -7.8246  -11.7534 C   0  0  0  0  0  0  0  0  0  0  0  0
   16.6876   -7.2187  -12.7110 O   0  0  0  0  0  0  0  0  0  0  0  0
   21.3123   -7.2994  -11.8346 O   0  0  0  0  0  0  0  0  0  0  0  0
   20.8613   -8.1435  -12.8449 C   0  0  0  0  0  0  0  0  0  0  0  0
   19.3857   -7.8848  -13.0548 C   0  0  2  0  0  0  0  0  0  0  0  0
   18.5947   -8.2439  -11.9120 N   0  0  0  0  0  0  0  0  0  0  0  0
   18.9404   -8.6725  -14.2214 C   0  0  0  0  0  0  0  0  0  0  0  0
   19.4858   -8.4798  -15.3329 O   0  0  0  0  0  0  0  0  0  0  0  0
   17.9407   -9.6192  -14.1364 O   0  0  0  0  0  0  0  0  0  0  0  0
  2  1  1  0
  3  2  1  0
  4  3  2  0
  6  8  1  0
  6  5  1  0
  7  6  2  0
  9  8  1  0
 10  9  1  6
 10 11  1  0
 11  3  1  0
 12 17  1  0
 12 10  1  0
 13 12  2  0
 15 14  1  0
 16 15  1  1
 16 17  1  0
 18 16  1  0
 18 20  1  0
 19 18  2  0
M  END
$$$$
