GQS.pdb
     RDKit          3D

 20 19  0  0  1  0  0  0  0  0999 V2000
   14.9734  -10.8035  -13.5383 N   0  0  0  0  0  0  0  0  0  0  0  0
   15.4005  -10.5062  -14.8676 C   0  0  0  0  0  0  0  0  0  0  0  0
   16.9033  -10.4850  -14.9810 C   0  0  0  0  0  0  0  0  0  0  0  0
   17.4801  -11.5687  -14.8654 O   0  0  0  0  0  0  0  0  0  0  0  0
   20.6880  -10.0032  -18.9769 N   0  0  0  0  0  0  0  0  0  0  0  0
   21.6197   -9.9212  -17.9057 C   0  0  0  0  0  0  0  0  0  0  0  0
   22.8157   -9.7783  -18.1525 O   0  0  0  0  0  0  0  0  0  0  0  0
   21.0894  -10.0110  -16.5144 C   0  0  0  0  0  0  0  0  0  0  0  0
   19.5928  -10.0892  -16.4772 C   0  0  0  0  0  0  0  0  0  0  0  0
   18.9939   -9.1206  -15.4884 C   0  0  2  0  0  0  0  0  0  0  0  0
   17.6072   -9.2786  -15.2086 N   0  0  0  0  0  0  0  0  0  0  0  0
   19.4829   -7.7399  -15.6118 C   0  0  0  0  0  0  0  0  0  0  0  0
   19.0431   -7.0338  -16.5534 O   0  0  0  0  0  0  0  0  0  0  0  0
   20.5579   -3.6460  -13.7237 O   0  0  0  0  0  0  0  0  0  0  0  0
   20.1853   -4.9805  -13.5939 C   0  0  0  0  0  0  0  0  0  0  0  0
   20.7695   -5.7508  -14.7574 C   0  0  2  0  0  0  0  0  0  0  0  0
   20.4369   -7.1466  -14.7175 N   0  0  0  0  0  0  0  0  0  0  0  0
   22.2377   -5.5995  -14.7203 C   0  0  0  0  0  0  0  0  0  0  0  0
   22.9521   -6.6137  -14.5443 O   0  0  0  0  0  0  0  0  0  0  0  0
   22.8591   -4.3774  -14.8729 O   0  0  0  0  0  0  0  0  0  0  0  0
  2  1  1  0
  3  2  1  0
  4  3  2  0
  6  8  1  0
  6  5  1  0
  7  6  2  0
  9  8  1  0
 10  9  1  6
 10 11  1  0
 11  3  1  0
 12 17  1  0
 12 10  1  0
 13 12  2  0
 15 14  1  0
 16 15  1  1
 16 17  1  0
 18 16  1  0
 18 20  1  0
 19 18  2  0
M  END
$$$$
