GQS.pdb
     RDKit          3D

 20 19  0  0  1  0  0  0  0  0999 V2000
   16.6657   -8.7500  -14.8793 N   0  0  0  0  0  0  0  0  0  0  0  0
   17.5078   -9.8937  -14.7365 C   0  0  0  0  0  0  0  0  0  0  0  0
   18.9680   -9.5228  -14.7822 C   0  0  0  0  0  0  0  0  0  0  0  0
   19.4914   -9.2114  -13.7100 O   0  0  0  0  0  0  0  0  0  0  0  0
   20.0778  -12.4669  -18.6420 N   0  0  0  0  0  0  0  0  0  0  0  0
   21.3477  -11.8317  -18.5646 C   0  0  0  0  0  0  0  0  0  0  0  0
   22.0783  -11.8155  -19.5535 O   0  0  0  0  0  0  0  0  0  0  0  0
   21.7338  -11.2043  -17.2676 C   0  0  0  0  0  0  0  0  0  0  0  0
   21.7797   -9.7081  -17.3479 C   0  0  0  0  0  0  0  0  0  0  0  0
   21.0116   -9.0514  -16.2283 C   0  0  2  0  0  0  0  0  0  0  0  0
   19.6925   -9.5342  -15.9978 N   0  0  0  0  0  0  0  0  0  0  0  0
   21.2030   -7.5977  -16.1258 C   0  0  0  0  0  0  0  0  0  0  0  0
   20.9763   -6.8935  -17.1414 O   0  0  0  0  0  0  0  0  0  0  0  0
   20.3031   -3.5628  -14.5735 O   0  0  0  0  0  0  0  0  0  0  0  0
   20.2208   -4.9291  -14.8247 C   0  0  0  0  0  0  0  0  0  0  0  0
   21.6207   -5.5015  -14.7939 C   0  0  2  0  0  0  0  0  0  0  0  0
   21.6353   -6.9305  -14.9300 N   0  0  0  0  0  0  0  0  0  0  0  0
   22.2434   -5.1291  -13.5081 C   0  0  0  0  0  0  0  0  0  0  0  0
   22.3644   -5.9981  -12.6135 O   0  0  0  0  0  0  0  0  0  0  0  0
   22.7007   -3.8535  -13.2501 O   0  0  0  0  0  0  0  0  0  0  0  0
  2  1  1  0
  3  2  1  0
  4  3  2  0
  6  8  1  0
  6  5  1  0
  7  6  2  0
  9  8  1  0
 10  9  1  6
 10 11  1  0
 11  3  1  0
 12 17  1  0
 12 10  1  0
 13 12  2  0
 15 14  1  0
 16 15  1  1
 16 17  1  0
 18 16  1  0
 18 20  1  0
 19 18  2  0
M  END
$$$$
