GQS.pdb
     RDKit          3D

 20 19  0  0  1  0  0  0  0  0999 V2000
   20.3655  -12.3745  -18.4044 N   0  0  0  0  0  0  0  0  0  0  0  0
   21.3582  -11.6615  -17.6668 C   0  0  0  0  0  0  0  0  0  0  0  0
   20.8328  -10.3481  -17.1463 C   0  0  0  0  0  0  0  0  0  0  0  0
   20.6762   -9.4494  -17.9760 O   0  0  0  0  0  0  0  0  0  0  0  0
   17.2497   -9.7507  -12.0494 N   0  0  0  0  0  0  0  0  0  0  0  0
   16.8721  -10.1775  -13.3523 C   0  0  0  0  0  0  0  0  0  0  0  0
   15.7889  -10.7356  -13.5169 O   0  0  0  0  0  0  0  0  0  0  0  0
   17.8235   -9.9191  -14.4717 C   0  0  0  0  0  0  0  0  0  0  0  0
   19.0574   -9.1987  -14.0182 C   0  0  0  0  0  0  0  0  0  0  0  0
   20.0432   -8.9906  -15.1405 C   0  0  2  0  0  0  0  0  0  0  0  0
   20.5374  -10.1654  -15.7744 N   0  0  0  0  0  0  0  0  0  0  0  0
   21.0171   -7.9146  -14.9074 C   0  0  0  0  0  0  0  0  0  0  0  0
   22.1019   -8.2042  -14.3436 O   0  0  0  0  0  0  0  0  0  0  0  0
   22.3942   -3.2750  -15.4115 O   0  0  0  0  0  0  0  0  0  0  0  0
   21.4513   -4.2316  -15.7758 C   0  0  0  0  0  0  0  0  0  0  0  0
   21.7727   -5.5161  -15.0444 C   0  0  2  0  0  0  0  0  0  0  0  0
   20.8028   -6.5463  -15.2868 N   0  0  0  0  0  0  0  0  0  0  0  0
   21.8207   -5.2240  -13.5980 C   0  0  0  0  0  0  0  0  0  0  0  0
   20.7740   -5.3320  -12.9178 O   0  0  0  0  0  0  0  0  0  0  0  0
   22.9802   -4.8341  -12.9605 O   0  0  0  0  0  0  0  0  0  0  0  0
  2  1  1  0
  3  2  1  0
  4  3  2  0
  6  8  1  0
  6  5  1  0
  7  6  2  0
  9  8  1  0
 10  9  1  1
 10 11  1  0
 11  3  1  0
 12 17  1  0
 12 10  1  0
 13 12  2  0
 15 14  1  0
 16 15  1  6
 16 17  1  0
 18 16  1  0
 18 20  1  0
 19 18  2  0
M  END
$$$$
