GQS.pdb
     RDKit          3D

 20 19  0  0  1  0  0  0  0  0999 V2000
   18.2780  -11.1845  -12.7943 N   0  0  0  0  0  0  0  0  0  0  0  0
   17.9303  -10.9855  -11.4242 C   0  0  0  0  0  0  0  0  0  0  0  0
   16.9042   -9.8936  -11.2601 C   0  0  0  0  0  0  0  0  0  0  0  0
   16.7014   -9.1759  -12.2421 O   0  0  0  0  0  0  0  0  0  0  0  0
   11.6777   -9.8955   -7.8222 N   0  0  0  0  0  0  0  0  0  0  0  0
   12.0982  -10.6899   -8.9241 C   0  0  0  0  0  0  0  0  0  0  0  0
   11.4233  -11.6598   -9.2644 O   0  0  0  0  0  0  0  0  0  0  0  0
   13.3555  -10.2978   -9.6246 C   0  0  0  0  0  0  0  0  0  0  0  0
   14.0394   -9.1385   -8.9647 C   0  0  0  0  0  0  0  0  0  0  0  0
   15.2684   -8.6952   -9.7182 C   0  0  2  0  0  0  0  0  0  0  0  0
   16.2145   -9.7094  -10.0382 N   0  0  0  0  0  0  0  0  0  0  0  0
   15.8173   -7.4019   -9.2862 C   0  0  0  0  0  0  0  0  0  0  0  0
   16.6245   -7.3886   -8.3234 O   0  0  0  0  0  0  0  0  0  0  0  0
   16.7090   -2.7221  -10.0683 O   0  0  0  0  0  0  0  0  0  0  0  0
   16.1738   -3.8959  -10.5903 C   0  0  0  0  0  0  0  0  0  0  0  0
   16.0501   -4.9008   -9.4663 C   0  0  2  0  0  0  0  0  0  0  0  0
   15.4855   -6.1471   -9.9005 N   0  0  0  0  0  0  0  0  0  0  0  0
   15.1905   -4.3167   -8.4176 C   0  0  0  0  0  0  0  0  0  0  0  0
   14.0191   -4.7401   -8.2818 O   0  0  0  0  0  0  0  0  0  0  0  0
   15.6285   -3.3162   -7.5750 O   0  0  0  0  0  0  0  0  0  0  0  0
  2  1  1  0
  3  2  1  0
  4  3  2  0
  6  8  1  0
  6  5  1  0
  7  6  2  0
  9  8  1  0
 10  9  1  1
 10 11  1  0
 11  3  1  0
 12 17  1  0
 12 10  1  0
 13 12  2  0
 15 14  1  0
 16 15  1  6
 16 17  1  0
 18 16  1  0
 18 20  1  0
 19 18  2  0
M  END
$$$$
