GQS.pdb
     RDKit          3D

 20 19  0  0  1  0  0  0  0  0999 V2000
   23.8251  -17.2171  -18.5313 N   0  0  0  0  0  0  0  0  0  0  0  0
   24.2737  -17.1461  -17.1779 C   0  0  0  0  0  0  0  0  0  0  0  0
   24.7515  -18.4846  -16.6758 C   0  0  0  0  0  0  0  0  0  0  0  0
   23.9595  -19.4247  -16.7740 O   0  0  0  0  0  0  0  0  0  0  0  0
   28.5691  -22.0240  -17.4427 N   0  0  0  0  0  0  0  0  0  0  0  0
   28.7058  -22.4044  -16.0794 C   0  0  0  0  0  0  0  0  0  0  0  0
   29.0230  -23.5595  -15.8015 O   0  0  0  0  0  0  0  0  0  0  0  0
   28.4566  -21.3651  -15.0389 C   0  0  0  0  0  0  0  0  0  0  0  0
   28.0403  -20.0523  -15.6308 C   0  0  0  0  0  0  0  0  0  0  0  0
   26.5670  -19.7850  -15.4501 C   0  0  2  0  0  0  0  0  0  0  0  0
   26.0439  -18.6443  -16.1220 N   0  0  0  0  0  0  0  0  0  0  0  0
   26.0627  -20.0320  -14.0917 C   0  0  0  0  0  0  0  0  0  0  0  0
   26.1226  -19.0971  -13.2544 O   0  0  0  0  0  0  0  0  0  0  0  0
   25.5229  -21.2598  -10.0245 O   0  0  0  0  0  0  0  0  0  0  0  0
   25.9470  -20.8563  -11.2871 C   0  0  0  0  0  0  0  0  0  0  0  0
   25.0502  -21.5053  -12.3179 C   0  0  2  0  0  0  0  0  0  0  0  0
   25.5033  -21.2827  -13.6617 N   0  0  0  0  0  0  0  0  0  0  0  0
   23.6917  -20.9480  -12.1642 C   0  0  0  0  0  0  0  0  0  0  0  0
   22.7930  -21.6597  -11.6584 O   0  0  0  0  0  0  0  0  0  0  0  0
   23.3696  -19.6658  -12.5579 O   0  0  0  0  0  0  0  0  0  0  0  0
  2  1  1  0
  3  2  1  0
  4  3  2  0
  6  8  1  0
  6  5  1  0
  7  6  2  0
  9  8  1  0
 10  9  1  1
 10 11  1  0
 11  3  1  0
 12 17  1  0
 12 10  1  0
 13 12  2  0
 15 14  1  0
 16 15  1  1
 16 17  1  0
 18 16  1  0
 18 20  1  0
 19 18  2  0
M  END
$$$$
