GQS.pdb
     RDKit          3D

 20 19  0  0  1  0  0  0  0  0999 V2000
   20.6091  -13.3263  -16.1494 N   0  0  0  0  0  0  0  0  0  0  0  0
   20.3746  -12.0170  -16.6676 C   0  0  0  0  0  0  0  0  0  0  0  0
   21.2280  -10.9820  -15.9803 C   0  0  0  0  0  0  0  0  0  0  0  0
   20.8768  -10.6415  -14.8484 O   0  0  0  0  0  0  0  0  0  0  0  0
   27.3619  -11.9450  -15.1415 N   0  0  0  0  0  0  0  0  0  0  0  0
   26.7036  -10.9232  -15.8795 C   0  0  0  0  0  0  0  0  0  0  0  0
   27.3608  -10.1844  -16.6104 O   0  0  0  0  0  0  0  0  0  0  0  0
   25.2246  -10.7997  -15.7295 C   0  0  0  0  0  0  0  0  0  0  0  0
   24.6883   -9.5515  -16.3631 C   0  0  0  0  0  0  0  0  0  0  0  0
   23.2068   -9.3852  -16.1344 C   0  0  2  0  0  0  0  0  0  0  0  0
   22.3714  -10.4351  -16.6097 N   0  0  0  0  0  0  0  0  0  0  0  0
   22.7084   -8.0156  -16.3258 C   0  0  0  0  0  0  0  0  0  0  0  0
   22.3754   -7.6588  -17.4836 O   0  0  0  0  0  0  0  0  0  0  0  0
   20.0901   -4.4346  -15.7005 O   0  0  0  0  0  0  0  0  0  0  0  0
   20.5200   -5.7392  -15.4774 C   0  0  0  0  0  0  0  0  0  0  0  0
   22.0327   -5.7450  -15.4715 C   0  0  2  0  0  0  0  0  0  0  0  0
   22.5785   -7.0565  -15.2650 N   0  0  0  0  0  0  0  0  0  0  0  0
   22.4934   -4.8509  -14.3908 C   0  0  0  0  0  0  0  0  0  0  0  0
   23.1064   -5.3395  -13.4133 O   0  0  0  0  0  0  0  0  0  0  0  0
   22.2745   -3.4891  -14.4140 O   0  0  0  0  0  0  0  0  0  0  0  0
  2  1  1  0
  3  2  1  0
  4  3  2  0
  6  8  1  0
  6  5  1  0
  7  6  2  0
  9  8  1  0
 10  9  1  6
 10 11  1  0
 11  3  1  0
 12 17  1  0
 12 10  1  0
 13 12  2  0
 15 14  1  0
 16 15  1  1
 16 17  1  0
 18 16  1  0
 18 20  1  0
 19 18  2  0
M  END
$$$$
