GQS.pdb
     RDKit          3D

 20 19  0  0  1  0  0  0  0  0999 V2000
   16.8024  -26.1870   -4.7893 N   0  0  0  0  0  0  0  0  0  0  0  0
   16.8116  -24.8892   -4.1949 C   0  0  0  0  0  0  0  0  0  0  0  0
   15.4718  -24.5360   -3.6014 C   0  0  0  0  0  0  0  0  0  0  0  0
   14.5547  -25.3371   -3.7954 O   0  0  0  0  0  0  0  0  0  0  0  0
   14.4815  -20.6079    1.2984 N   0  0  0  0  0  0  0  0  0  0  0  0
   15.2077  -21.8291    1.2406 C   0  0  0  0  0  0  0  0  0  0  0  0
   15.9494  -22.1377    2.1715 O   0  0  0  0  0  0  0  0  0  0  0  0
   15.0272  -22.6892    0.0353 C   0  0  0  0  0  0  0  0  0  0  0  0
   14.2350  -22.0077   -1.0395 C   0  0  0  0  0  0  0  0  0  0  0  0
   14.0825  -22.8671   -2.2696 C   0  0  2  0  0  0  0  0  0  0  0  0
   15.2860  -23.3442   -2.8612 N   0  0  0  0  0  0  0  0  0  0  0  0
   13.0280  -22.4286   -3.1950 C   0  0  0  0  0  0  0  0  0  0  0  0
   13.3466  -21.6724   -4.1465 O   0  0  0  0  0  0  0  0  0  0  0  0
    9.1655  -23.1430   -5.7094 O   0  0  0  0  0  0  0  0  0  0  0  0
    9.9473  -23.6063   -4.6555 C   0  0  0  0  0  0  0  0  0  0  0  0
   10.6532  -22.4219   -4.0330 C   0  0  2  0  0  0  0  0  0  0  0  0
   11.6497  -22.8138   -3.0770 N   0  0  0  0  0  0  0  0  0  0  0  0
    9.6410  -21.5811   -3.3635 C   0  0  0  0  0  0  0  0  0  0  0  0
    9.5156  -21.6506   -2.1188 O   0  0  0  0  0  0  0  0  0  0  0  0
    8.8219  -20.7156   -4.0584 O   0  0  0  0  0  0  0  0  0  0  0  0
  2  1  1  0
  3  2  1  0
  4  3  2  0
  6  8  1  0
  6  5  1  0
  7  6  2  0
  9  8  1  0
 10  9  1  1
 10 11  1  0
 11  3  1  0
 12 17  1  0
 12 10  1  0
 13 12  2  0
 15 14  1  0
 16 15  1  1
 16 17  1  0
 18 16  1  0
 18 20  1  0
 19 18  2  0
M  END
$$$$
