GQS.pdb
     RDKit          3D

 20 19  0  0  1  0  0  0  0  0999 V2000
   12.4589  -10.7152  -10.2740 N   0  0  0  0  0  0  0  0  0  0  0  0
   13.6352  -10.4259   -9.5187 C   0  0  0  0  0  0  0  0  0  0  0  0
   14.3912   -9.2527  -10.0877 C   0  0  0  0  0  0  0  0  0  0  0  0
   13.9856   -8.8046  -11.1626 O   0  0  0  0  0  0  0  0  0  0  0  0
   14.4896   -7.3775   -7.2069 N   0  0  0  0  0  0  0  0  0  0  0  0
   14.3754   -6.0544   -7.7153 C   0  0  0  0  0  0  0  0  0  0  0  0
   13.4136   -5.3611   -7.3896 O   0  0  0  0  0  0  0  0  0  0  0  0
   15.4476   -5.5658   -8.6301 C   0  0  0  0  0  0  0  0  0  0  0  0
   16.5745   -6.5453   -8.7640 C   0  0  0  0  0  0  0  0  0  0  0  0
   16.3021   -7.5900   -9.8172 C   0  0  2  0  0  0  0  0  0  0  0  0
   15.5077   -8.7008   -9.4158 N   0  0  0  0  0  0  0  0  0  0  0  0
   17.4435   -7.8856  -10.6950 C   0  0  0  0  0  0  0  0  0  0  0  0
   18.3554   -8.6305  -10.2566 O   0  0  0  0  0  0  0  0  0  0  0  0
   17.1385   -8.3265  -14.5423 O   0  0  0  0  0  0  0  0  0  0  0  0
   18.3196   -8.7350  -13.9301 C   0  0  0  0  0  0  0  0  0  0  0  0
   18.6866   -7.7117  -12.8783 C   0  0  2  0  0  0  0  0  0  0  0  0
   17.5800   -7.3723  -12.0291 N   0  0  0  0  0  0  0  0  0  0  0  0
   19.1637   -6.4948  -13.5649 C   0  0  0  0  0  0  0  0  0  0  0  0
   18.4860   -5.4438  -13.4868 O   0  0  0  0  0  0  0  0  0  0  0  0
   20.3342   -6.4682  -14.2942 O   0  0  0  0  0  0  0  0  0  0  0  0
  2  1  1  0
  3  2  1  0
  4  3  2  0
  6  8  1  0
  6  5  1  0
  7  6  2  0
  9  8  1  0
 10  9  1  1
 10 11  1  0
 11  3  1  0
 12 17  1  0
 12 10  1  0
 13 12  2  0
 15 14  1  0
 16 15  1  6
 16 17  1  0
 18 16  1  0
 18 20  1  0
 19 18  2  0
M  END
$$$$
