GQS.pdb
     RDKit          3D

 20 19  0  0  1  0  0  0  0  0999 V2000
   16.4635  -11.8199  -14.6023 N   0  0  0  0  0  0  0  0  0  0  0  0
   16.7840  -10.8070  -15.5557 C   0  0  0  0  0  0  0  0  0  0  0  0
   18.1711  -10.2569  -15.3430 C   0  0  0  0  0  0  0  0  0  0  0  0
   18.7300  -10.5644  -14.2878 O   0  0  0  0  0  0  0  0  0  0  0  0
   22.7009   -9.5761  -19.4601 N   0  0  0  0  0  0  0  0  0  0  0  0
   21.8714  -10.6588  -19.0579 C   0  0  0  0  0  0  0  0  0  0  0  0
   21.9754  -11.7450  -19.6248 O   0  0  0  0  0  0  0  0  0  0  0  0
   20.9038  -10.4188  -17.9483 C   0  0  0  0  0  0  0  0  0  0  0  0
   20.9939   -9.0253  -17.4031 C   0  0  0  0  0  0  0  0  0  0  0  0
   20.0693   -8.8088  -16.2313 C   0  0  2  0  0  0  0  0  0  0  0  0
   18.7915   -9.4309  -16.3102 N   0  0  0  0  0  0  0  0  0  0  0  0
   20.1018   -7.4509  -15.6694 C   0  0  0  0  0  0  0  0  0  0  0  0
   19.1896   -6.6498  -15.9932 O   0  0  0  0  0  0  0  0  0  0  0  0
   21.4021   -6.4562  -12.0494 O   0  0  0  0  0  0  0  0  0  0  0  0
   21.9156   -5.5344  -12.9567 C   0  0  0  0  0  0  0  0  0  0  0  0
   21.1278   -5.6466  -14.2432 C   0  0  2  0  0  0  0  0  0  0  0  0
   21.1174   -6.9824  -14.7688 N   0  0  0  0  0  0  0  0  0  0  0  0
   21.7341   -4.7379  -15.2364 C   0  0  0  0  0  0  0  0  0  0  0  0
   22.2148   -5.2172  -16.2896 O   0  0  0  0  0  0  0  0  0  0  0  0
   21.7931   -3.3724  -15.0501 O   0  0  0  0  0  0  0  0  0  0  0  0
  2  1  1  0
  3  2  1  0
  4  3  2  0
  6  8  1  0
  6  5  1  0
  7  6  2  0
  9  8  1  0
 10  9  1  6
 10 11  1  0
 11  3  1  0
 12 17  1  0
 12 10  1  0
 13 12  2  0
 15 14  1  0
 16 15  1  1
 16 17  1  0
 18 16  1  0
 18 20  1  0
 19 18  2  0
M  END
$$$$
