GQS.pdb
     RDKit          3D

 20 19  0  0  1  0  0  0  0  0999 V2000
   33.9362   -8.0816  -16.4747 N   0  0  0  0  0  0  0  0  0  0  0  0
   32.5182   -7.9928  -16.6130 C   0  0  0  0  0  0  0  0  0  0  0  0
   31.9483   -9.1963  -17.3194 C   0  0  0  0  0  0  0  0  0  0  0  0
   32.7612  -10.0009  -17.7802 O   0  0  0  0  0  0  0  0  0  0  0  0
   27.2215  -12.8108  -15.7515 N   0  0  0  0  0  0  0  0  0  0  0  0
   27.5170  -13.3034  -17.0524 C   0  0  0  0  0  0  0  0  0  0  0  0
   27.0085  -14.3568  -17.4313 O   0  0  0  0  0  0  0  0  0  0  0  0
   28.4412  -12.5022  -17.9061 C   0  0  0  0  0  0  0  0  0  0  0  0
   28.9473  -11.2768  -17.2065 C   0  0  0  0  0  0  0  0  0  0  0  0
   29.8714  -10.4621  -18.0767 C   0  0  2  0  0  0  0  0  0  0  0  0
   30.5511   -9.3843  -17.4423 N   0  0  0  0  0  0  0  0  0  0  0  0
   29.3682  -10.2092  -19.4344 C   0  0  0  0  0  0  0  0  0  0  0  0
   28.7082   -9.1598  -19.6396 O   0  0  0  0  0  0  0  0  0  0  0  0
   31.4194  -10.8505  -22.6783 O   0  0  0  0  0  0  0  0  0  0  0  0
   30.1396  -11.3397  -22.9223 C   0  0  0  0  0  0  0  0  0  0  0  0
   29.2038  -10.7554  -21.8873 C   0  0  2  0  0  0  0  0  0  0  0  0
   29.5860  -11.0925  -20.5453 N   0  0  0  0  0  0  0  0  0  0  0  0
   27.8454  -11.2705  -22.1501 C   0  0  0  0  0  0  0  0  0  0  0  0
   27.3193  -12.0543  -21.3262 O   0  0  0  0  0  0  0  0  0  0  0  0
   27.1269  -10.9211  -23.2746 O   0  0  0  0  0  0  0  0  0  0  0  0
  2  1  1  0
  3  2  1  0
  4  3  2  0
  6  8  1  0
  6  5  1  0
  7  6  2  0
  9  8  1  0
 10  9  1  1
 10 11  1  0
 11  3  1  0
 12 17  1  0
 12 10  1  0
 13 12  2  0
 15 14  1  0
 16 15  1  6
 16 17  1  0
 18 16  1  0
 18 20  1  0
 19 18  2  0
M  END
$$$$
