GQS.pdb
     RDKit          3D

 20 19  0  0  1  0  0  0  0  0999 V2000
   17.3144  -11.6064  -15.5733 N   0  0  0  0  0  0  0  0  0  0  0  0
   18.0502  -10.7408  -16.4377 C   0  0  0  0  0  0  0  0  0  0  0  0
   19.2323  -10.1223  -15.7362 C   0  0  0  0  0  0  0  0  0  0  0  0
   19.0062   -9.5723  -14.6559 O   0  0  0  0  0  0  0  0  0  0  0  0
   25.3793  -11.6400  -16.2496 N   0  0  0  0  0  0  0  0  0  0  0  0
   25.4269  -10.4467  -15.4776 C   0  0  0  0  0  0  0  0  0  0  0  0
   26.4908  -10.0943  -14.9718 O   0  0  0  0  0  0  0  0  0  0  0  0
   24.1638   -9.6687  -15.3211 C   0  0  0  0  0  0  0  0  0  0  0  0
   23.0008  -10.3241  -16.0031 C   0  0  0  0  0  0  0  0  0  0  0  0
   21.7160   -9.5598  -15.8036 C   0  0  2  0  0  0  0  0  0  0  0  0
   20.5308  -10.1751  -16.2965 N   0  0  0  0  0  0  0  0  0  0  0  0
   21.8306   -8.1081  -16.0033 C   0  0  0  0  0  0  0  0  0  0  0  0
   21.9853   -7.6777  -17.1735 O   0  0  0  0  0  0  0  0  0  0  0  0
   20.3921   -3.8322  -15.5278 O   0  0  0  0  0  0  0  0  0  0  0  0
   20.3255   -5.2057  -15.3140 C   0  0  0  0  0  0  0  0  0  0  0  0
   21.7366   -5.7322  -15.1733 C   0  0  2  0  0  0  0  0  0  0  0  0
   21.7762   -7.1476  -14.9372 N   0  0  0  0  0  0  0  0  0  0  0  0
   22.3798   -5.0325  -14.0435 C   0  0  0  0  0  0  0  0  0  0  0  0
   22.5970   -3.8016  -14.1312 O   0  0  0  0  0  0  0  0  0  0  0  0
   22.7539   -5.6842  -12.8867 O   0  0  0  0  0  0  0  0  0  0  0  0
  2  1  1  0
  3  2  1  0
  4  3  2  0
  6  8  1  0
  6  5  1  0
  7  6  2  0
  9  8  1  0
 10  9  1  6
 10 11  1  0
 11  3  1  0
 12 17  1  0
 12 10  1  0
 13 12  2  0
 15 14  1  0
 16 15  1  1
 16 17  1  0
 18 16  1  0
 18 20  1  0
 19 18  2  0
M  END
$$$$
