WDN.pdb
     RDKit          3D

 31 32  0  0  1  0  0  0  0  0999 V2000
   26.8625  -18.8771  -11.0890 N   0  0  0  0  0  0  0  0  0  0  0  0
   26.9433  -20.3172  -11.4165 C   0  0  1  0  0  0  0  0  0  0  0  0
   26.5357  -21.1382  -10.2470 C   0  0  0  0  0  0  0  0  0  0  0  0
   27.1268  -20.7643   -8.9571 C   0  0  0  0  0  0  0  0  0  0  0  0
   26.4851  -20.1128   -7.9223 C   0  0  0  0  0  0  0  0  0  0  0  0
   27.3237  -19.9073   -6.9143 N   0  0  0  0  0  0  0  0  0  0  0  0
   28.5436  -20.4144   -7.2460 C   0  0  0  0  0  0  0  0  0  0  0  0
   29.7414  -20.4700   -6.5540 C   0  0  0  0  0  0  0  0  0  0  0  0
   30.8651  -21.0644   -7.1094 C   0  0  0  0  0  0  0  0  0  0  0  0
   30.7507  -21.6054   -8.3888 C   0  0  0  0  0  0  0  0  0  0  0  0
   29.5523  -21.5400   -9.0608 C   0  0  0  0  0  0  0  0  0  0  0  0
   28.4244  -20.9481   -8.5154 C   0  0  0  0  0  0  0  0  0  0  0  0
   26.1973  -20.5096  -12.6685 C   0  0  0  0  0  0  0  0  0  0  0  0
   25.3605  -19.6421  -13.0991 O   0  0  0  0  0  0  0  0  0  0  0  0
   26.3434  -21.6617  -13.4927 N   0  0  0  0  0  0  0  0  0  0  0  0
   25.8868  -21.6463  -14.9018 C   0  0  1  0  0  0  0  0  0  0  0  0
   26.7955  -22.5351  -15.7088 C   0  0  0  0  0  0  0  0  0  0  0  0
   26.5149  -22.6542  -17.1233 C   0  0  0  0  0  0  0  0  0  0  0  0
   26.1443  -21.6002  -17.7465 O   0  0  0  0  0  0  0  0  0  0  0  0
   24.4594  -21.9929  -14.9573 C   0  0  0  0  0  0  0  0  0  0  0  0
   23.9151  -22.1250  -16.0825 O   0  0  0  0  0  0  0  0  0  0  0  0
   26.6247  -23.8429  -17.8393 O   0  0  0  0  0  0  0  0  0  0  0  0
   19.6534  -22.9250  -13.5149 N   0  0  0  0  0  0  0  0  0  0  0  0
   20.2284  -22.1569  -12.4759 C   0  0  0  0  0  0  0  0  0  0  0  0
   19.5121  -21.7927  -11.5258 O   0  0  0  0  0  0  0  0  0  0  0  0
   21.6803  -21.8267  -12.5849 C   0  0  0  0  0  0  0  0  0  0  0  0
   22.2414  -22.4516  -13.8721 C   0  0  2  0  0  0  0  0  0  0  0  0
   23.6721  -22.1883  -13.8204 N   0  0  0  0  0  0  0  0  0  0  0  0
   21.5694  -21.9347  -15.0583 C   0  0  0  0  0  0  0  0  0  0  0  0
   21.5494  -20.6158  -15.4807 O   0  0  0  0  0  0  0  0  0  0  0  0
   20.9299  -22.7423  -15.8005 O   0  0  0  0  0  0  0  0  0  0  0  0
  2  1  1  1
  2 13  1  0
  2  3  1  0
  3  4  1  0
  4 12  1  0
  4  5  2  0
  5  6  1  0
  7  6  1  0
  7  8  2  0
  9  8  1  0
 10  9  2  0
 11 12  2  0
 11 10  1  0
 12  7  1  0
 13 14  2  0
 15 16  1  0
 15 13  1  0
 17 18  1  0
 16 17  1  6
 18 19  2  0
 20 16  1  0
 20 21  2  0
 22 18  1  0
 23 24  1  0
 24 25  2  0
 24 26  1  0
 27 26  1  1
 27 28  1  0
 28 20  1  0
 29 27  1  0
 29 30  1  0
 31 29  2  0
M  END
$$$$
