WDN.pdb
     RDKit          3D

 31 32  0  0  1  0  0  0  0  0999 V2000
   26.3187  -18.5695   -8.8262 N   0  0  0  0  0  0  0  0  0  0  0  0
   26.6354  -19.9386   -9.2875 C   0  0  1  0  0  0  0  0  0  0  0  0
   26.0922  -20.9440   -8.3377 C   0  0  0  0  0  0  0  0  0  0  0  0
   26.3715  -20.7080   -6.9167 C   0  0  0  0  0  0  0  0  0  0  0  0
   25.4378  -20.6303   -5.9022 C   0  0  0  0  0  0  0  0  0  0  0  0
   26.0338  -20.3797   -4.7432 N   0  0  0  0  0  0  0  0  0  0  0  0
   27.3767  -20.2842   -4.9500 C   0  0  0  0  0  0  0  0  0  0  0  0
   28.4316  -20.0505   -4.0845 C   0  0  0  0  0  0  0  0  0  0  0  0
   29.7410  -20.0136   -4.5412 C   0  0  0  0  0  0  0  0  0  0  0  0
   29.9624  -20.2196   -5.9017 C   0  0  0  0  0  0  0  0  0  0  0  0
   28.9013  -20.4497   -6.7462 C   0  0  0  0  0  0  0  0  0  0  0  0
   27.5899  -20.4880   -6.3005 C   0  0  0  0  0  0  0  0  0  0  0  0
   26.1955  -20.0267  -10.6874 C   0  0  0  0  0  0  0  0  0  0  0  0
   25.3290  -19.2221  -11.1775 O   0  0  0  0  0  0  0  0  0  0  0  0
   26.6912  -21.0014  -11.5996 N   0  0  0  0  0  0  0  0  0  0  0  0
   26.3930  -20.9032  -13.0472 C   0  0  1  0  0  0  0  0  0  0  0  0
   27.5127  -21.5580  -13.8118 C   0  0  0  0  0  0  0  0  0  0  0  0
   27.4045  -21.5742  -15.2545 C   0  0  0  0  0  0  0  0  0  0  0  0
   27.2953  -22.7116  -15.8297 O   0  0  0  0  0  0  0  0  0  0  0  0
   25.0529  -21.4476  -13.3087 C   0  0  0  0  0  0  0  0  0  0  0  0
   24.6568  -22.4262  -12.6265 O   0  0  0  0  0  0  0  0  0  0  0  0
   27.4126  -20.4294  -16.0466 O   0  0  0  0  0  0  0  0  0  0  0  0
   21.1450  -22.3569  -12.5376 N   0  0  0  0  0  0  0  0  0  0  0  0
   21.3052  -20.9689  -12.3187 C   0  0  0  0  0  0  0  0  0  0  0  0
   20.7360  -20.4406  -11.3464 O   0  0  0  0  0  0  0  0  0  0  0  0
   22.1601  -20.2132  -13.2814 C   0  0  0  0  0  0  0  0  0  0  0  0
   22.7588  -21.1966  -14.2996 C   0  0  2  0  0  0  0  0  0  0  0  0
   24.1896  -20.9303  -14.2771 N   0  0  0  0  0  0  0  0  0  0  0  0
   22.1344  -21.0607  -15.6101 C   0  0  0  0  0  0  0  0  0  0  0  0
   20.9414  -21.6368  -16.0142 O   0  0  0  0  0  0  0  0  0  0  0  0
   22.7112  -20.3535  -16.4927 O   0  0  0  0  0  0  0  0  0  0  0  0
  2  1  1  1
  2 13  1  0
  2  3  1  0
  3  4  1  0
  4 12  1  0
  4  5  2  0
  5  6  1  0
  7  6  1  0
  7  8  2  0
  9  8  1  0
 10  9  2  0
 11 12  2  0
 11 10  1  0
 12  7  1  0
 13 14  2  0
 15 16  1  0
 15 13  1  0
 17 18  1  0
 16 17  1  6
 18 19  2  0
 20 16  1  0
 20 21  2  0
 22 18  1  0
 23 24  1  0
 24 25  2  0
 24 26  1  0
 27 26  1  1
 27 28  1  0
 28 20  1  0
 29 27  1  0
 29 30  1  0
 31 29  2  0
M  END
$$$$
