WDN.pdb
     RDKit          3D

 31 32  0  0  1  0  0  0  0  0999 V2000
   26.6211  -22.3771  -10.5493 N   0  0  0  0  0  0  0  0  0  0  0  0
   26.1070  -21.0124  -10.3022 C   0  0  1  0  0  0  0  0  0  0  0  0
   27.2321  -20.0656  -10.0892 C   0  0  0  0  0  0  0  0  0  0  0  0
   28.2008  -20.4356   -9.0511 C   0  0  0  0  0  0  0  0  0  0  0  0
   29.3926  -21.1053   -9.2469 C   0  0  0  0  0  0  0  0  0  0  0  0
   30.0092  -21.3006   -8.0879 N   0  0  0  0  0  0  0  0  0  0  0  0
   29.2501  -20.7685   -7.0900 C   0  0  0  0  0  0  0  0  0  0  0  0
   29.4422  -20.6941   -5.7210 C   0  0  0  0  0  0  0  0  0  0  0  0
   28.5130  -20.0752   -4.8977 C   0  0  0  0  0  0  0  0  0  0  0  0
   27.3772  -19.5290   -5.4927 C   0  0  0  0  0  0  0  0  0  0  0  0
   27.2036  -19.6133   -6.8546 C   0  0  0  0  0  0  0  0  0  0  0  0
   28.1251  -20.2298   -7.6857 C   0  0  0  0  0  0  0  0  0  0  0  0
   25.1677  -20.7096  -11.3917 C   0  0  0  0  0  0  0  0  0  0  0  0
   24.8434  -19.5086  -11.6929 O   0  0  0  0  0  0  0  0  0  0  0  0
   24.5507  -21.7147  -12.1898 N   0  0  0  0  0  0  0  0  0  0  0  0
   23.7706  -21.3503  -13.3951 C   0  0  1  0  0  0  0  0  0  0  0  0
   23.9343  -22.4420  -14.4190 C   0  0  0  0  0  0  0  0  0  0  0  0
   25.2461  -22.6016  -15.0083 C   0  0  0  0  0  0  0  0  0  0  0  0
   25.7008  -21.6382  -15.7165 O   0  0  0  0  0  0  0  0  0  0  0  0
   22.3832  -21.0554  -13.0093 C   0  0  0  0  0  0  0  0  0  0  0  0
   21.8451  -21.7556  -12.1149 O   0  0  0  0  0  0  0  0  0  0  0  0
   26.0358  -23.7369  -14.8492 O   0  0  0  0  0  0  0  0  0  0  0  0
   18.0002  -16.8902  -14.0054 N   0  0  0  0  0  0  0  0  0  0  0  0
   18.7603  -17.7368  -13.1654 C   0  0  0  0  0  0  0  0  0  0  0  0
   18.3306  -18.0046  -12.0287 O   0  0  0  0  0  0  0  0  0  0  0  0
   20.0492  -18.2647  -13.7027 C   0  0  0  0  0  0  0  0  0  0  0  0
   20.2908  -19.6720  -13.1339 C   0  0  2  0  0  0  0  0  0  0  0  0
   21.6280  -20.0304  -13.5835 N   0  0  0  0  0  0  0  0  0  0  0  0
   19.2429  -20.6023  -13.5368 C   0  0  0  0  0  0  0  0  0  0  0  0
   18.1954  -21.0496  -12.7487 O   0  0  0  0  0  0  0  0  0  0  0  0
   19.2593  -21.0690  -14.7175 O   0  0  0  0  0  0  0  0  0  0  0  0
  2  1  1  6
  2 13  1  0
  2  3  1  0
  3  4  1  0
  4 12  1  0
  4  5  2  0
  5  6  1  0
  7  6  1  0
  7  8  2  0
  9  8  1  0
 10  9  2  0
 11 12  2  0
 11 10  1  0
 12  7  1  0
 13 14  2  0
 15 16  1  0
 15 13  1  0
 17 18  1  0
 16 17  1  6
 18 19  2  0
 20 16  1  0
 20 21  2  0
 22 18  1  0
 23 24  1  0
 24 25  2  0
 24 26  1  0
 27 26  1  6
 27 28  1  0
 28 20  1  0
 29 27  1  0
 29 30  1  0
 31 29  2  0
M  END
$$$$
