WDN.pdb
     RDKit          3D

 31 32  0  0  1  0  0  0  0  0999 V2000
   26.8187  -19.7778  -11.6890 N   0  0  0  0  0  0  0  0  0  0  0  0
   25.9023  -20.9318  -11.5623 C   0  0  1  0  0  0  0  0  0  0  0  0
   25.7434  -21.3130  -10.1350 C   0  0  0  0  0  0  0  0  0  0  0  0
   26.9072  -21.0842   -9.2712 C   0  0  0  0  0  0  0  0  0  0  0  0
   26.9205  -20.3680   -8.0905 C   0  0  0  0  0  0  0  0  0  0  0  0
   28.1460  -20.3375   -7.5818 N   0  0  0  0  0  0  0  0  0  0  0  0
   28.9817  -21.0301   -8.4045 C   0  0  0  0  0  0  0  0  0  0  0  0
   30.3360  -21.3068   -8.3272 C   0  0  0  0  0  0  0  0  0  0  0  0
   30.9718  -22.0623   -9.3015 C   0  0  0  0  0  0  0  0  0  0  0  0
   30.2032  -22.5357  -10.3634 C   0  0  0  0  0  0  0  0  0  0  0  0
   28.8590  -22.2499  -10.4232 C   0  0  0  0  0  0  0  0  0  0  0  0
   28.2145  -21.4958   -9.4558 C   0  0  0  0  0  0  0  0  0  0  0  0
   24.6831  -20.5888  -12.3086 C   0  0  0  0  0  0  0  0  0  0  0  0
   24.0272  -19.5140  -12.0783 O   0  0  0  0  0  0  0  0  0  0  0  0
   24.1402  -21.4136  -13.3346 N   0  0  0  0  0  0  0  0  0  0  0  0
   22.9014  -21.0202  -14.0451 C   0  0  1  0  0  0  0  0  0  0  0  0
   23.2010  -20.9355  -15.5182 C   0  0  0  0  0  0  0  0  0  0  0  0
   23.9149  -19.7645  -15.9793 C   0  0  0  0  0  0  0  0  0  0  0  0
   24.9682  -19.9487  -16.6815 O   0  0  0  0  0  0  0  0  0  0  0  0
   21.8142  -21.9389  -13.6781 C   0  0  0  0  0  0  0  0  0  0  0  0
   22.0637  -23.1687  -13.6057 O   0  0  0  0  0  0  0  0  0  0  0  0
   23.5228  -18.4575  -15.7036 O   0  0  0  0  0  0  0  0  0  0  0  0
   17.3793  -23.8755  -12.1936 N   0  0  0  0  0  0  0  0  0  0  0  0
   17.6865  -22.7676  -11.3700 C   0  0  0  0  0  0  0  0  0  0  0  0
   17.0554  -22.6095  -10.3092 O   0  0  0  0  0  0  0  0  0  0  0  0
   18.7648  -21.8437  -11.8308 C   0  0  0  0  0  0  0  0  0  0  0  0
   19.4220  -22.4290  -13.0910 C   0  0  2  0  0  0  0  0  0  0  0  0
   20.5125  -21.5158  -13.4001 N   0  0  0  0  0  0  0  0  0  0  0  0
   18.4552  -22.6098  -14.1673 C   0  0  0  0  0  0  0  0  0  0  0  0
   18.1799  -21.7090  -15.1827 O   0  0  0  0  0  0  0  0  0  0  0  0
   17.7812  -23.6849  -14.2107 O   0  0  0  0  0  0  0  0  0  0  0  0
  2  1  1  1
  2 13  1  0
  2  3  1  0
  3  4  1  0
  4 12  1  0
  4  5  2  0
  5  6  1  0
  7  6  1  0
  7  8  2  0
  9  8  1  0
 10  9  2  0
 11 12  2  0
 11 10  1  0
 12  7  1  0
 13 14  2  0
 15 16  1  0
 15 13  1  0
 17 18  1  0
 16 17  1  6
 18 19  2  0
 20 16  1  0
 20 21  2  0
 22 18  1  0
 23 24  1  0
 24 25  2  0
 24 26  1  0
 27 26  1  1
 27 28  1  0
 28 20  1  0
 29 27  1  0
 29 30  1  0
 31 29  2  0
M  END
$$$$
