WDN.pdb
     RDKit          3D

 31 32  0  0  1  0  0  0  0  0999 V2000
   22.1332  -10.8986  -17.7972 N   0  0  0  0  0  0  0  0  0  0  0  0
   21.8401   -9.5169  -18.2363 C   0  0  1  0  0  0  0  0  0  0  0  0
   20.8411   -9.5238  -19.3362 C   0  0  0  0  0  0  0  0  0  0  0  0
   21.2404  -10.2138  -20.5680 C   0  0  0  0  0  0  0  0  0  0  0  0
   20.9432  -11.5193  -20.9066 C   0  0  0  0  0  0  0  0  0  0  0  0
   21.4838  -11.8277  -22.0788 N   0  0  0  0  0  0  0  0  0  0  0  0
   22.1537  -10.7413  -22.5543 C   0  0  0  0  0  0  0  0  0  0  0  0
   22.8687  -10.5333  -23.7214 C   0  0  0  0  0  0  0  0  0  0  0  0
   23.4600   -9.3082  -23.9932 C   0  0  0  0  0  0  0  0  0  0  0  0
   23.3116   -8.2904  -23.0527 C   0  0  0  0  0  0  0  0  0  0  0  0
   22.5980   -8.5162  -21.8986 C   0  0  0  0  0  0  0  0  0  0  0  0
   22.0041   -9.7361  -21.6174 C   0  0  0  0  0  0  0  0  0  0  0  0
   21.5070   -8.7496  -17.0275 C   0  0  0  0  0  0  0  0  0  0  0  0
   20.9162   -9.2850  -16.0261 O   0  0  0  0  0  0  0  0  0  0  0  0
   21.8107   -7.3668  -16.8746 N   0  0  0  0  0  0  0  0  0  0  0  0
   21.3477   -6.6180  -15.6833 C   0  0  1  0  0  0  0  0  0  0  0  0
   22.5411   -5.9726  -15.0303 C   0  0  0  0  0  0  0  0  0  0  0  0
   22.2897   -5.1400  -13.8740 C   0  0  0  0  0  0  0  0  0  0  0  0
   21.7892   -5.6979  -12.8373 O   0  0  0  0  0  0  0  0  0  0  0  0
   20.2711   -5.6960  -16.0729 C   0  0  0  0  0  0  0  0  0  0  0  0
   20.5808   -4.5901  -16.5837 O   0  0  0  0  0  0  0  0  0  0  0  0
   22.5597   -3.7751  -13.8265 O   0  0  0  0  0  0  0  0  0  0  0  0
   15.7627   -7.9709  -16.0122 N   0  0  0  0  0  0  0  0  0  0  0  0
   16.1323   -6.6981  -16.5056 C   0  0  0  0  0  0  0  0  0  0  0  0
   16.0569   -6.4784  -17.7281 O   0  0  0  0  0  0  0  0  0  0  0  0
   16.5961   -5.6824  -15.5147 C   0  0  0  0  0  0  0  0  0  0  0  0
   17.8597   -4.9946  -16.0556 C   0  0  2  0  0  0  0  0  0  0  0  0
   18.9149   -5.9864  -15.9088 N   0  0  0  0  0  0  0  0  0  0  0  0
   18.1149   -3.7288  -15.3784 C   0  0  0  0  0  0  0  0  0  0  0  0
   17.9436   -2.4629  -15.9136 O   0  0  0  0  0  0  0  0  0  0  0  0
   18.5361   -3.7492  -14.1808 O   0  0  0  0  0  0  0  0  0  0  0  0
  2  1  1  1
  2 13  1  0
  2  3  1  0
  3  4  1  0
  4 12  1  0
  4  5  2  0
  5  6  1  0
  7  6  1  0
  7  8  2  0
  9  8  1  0
 10  9  2  0
 11 12  2  0
 11 10  1  0
 12  7  1  0
 13 14  2  0
 15 16  1  0
 15 13  1  0
 17 18  1  0
 16 17  1  6
 18 19  2  0
 20 16  1  0
 20 21  2  0
 22 18  1  0
 23 24  1  0
 24 25  2  0
 24 26  1  0
 27 26  1  1
 27 28  1  0
 28 20  1  0
 29 27  1  0
 29 30  1  0
 31 29  2  0
M  END
$$$$
