WDN.pdb
     RDKit          3D

 31 32  0  0  1  0  0  0  0  0999 V2000
   22.0250  -12.0914  -16.6217 N   0  0  0  0  0  0  0  0  0  0  0  0
   22.5522  -10.7109  -16.6844 C   0  0  1  0  0  0  0  0  0  0  0  0
   23.4585  -10.5549  -17.8515 C   0  0  0  0  0  0  0  0  0  0  0  0
   24.6992  -11.3374  -17.8159 C   0  0  0  0  0  0  0  0  0  0  0  0
   24.9357  -12.5249  -18.4799 C   0  0  0  0  0  0  0  0  0  0  0  0
   26.1534  -12.9748  -18.2036 N   0  0  0  0  0  0  0  0  0  0  0  0
   26.7619  -12.1038  -17.3514 C   0  0  0  0  0  0  0  0  0  0  0  0
   28.0210  -12.1000  -16.7758 C   0  0  0  0  0  0  0  0  0  0  0  0
   28.4237  -11.0726  -15.9353 C   0  0  0  0  0  0  0  0  0  0  0  0
   27.5194  -10.0413  -15.6876 C   0  0  0  0  0  0  0  0  0  0  0  0
   26.2726  -10.0628  -16.2682 C   0  0  0  0  0  0  0  0  0  0  0  0
   25.8603  -11.0845  -17.1086 C   0  0  0  0  0  0  0  0  0  0  0  0
   21.3929   -9.8104  -16.6056 C   0  0  0  0  0  0  0  0  0  0  0  0
   20.3106  -10.0410  -17.2487 O   0  0  0  0  0  0  0  0  0  0  0  0
   21.3804   -8.6243  -15.8176 N   0  0  0  0  0  0  0  0  0  0  0  0
   20.2050   -7.7229  -15.8263 C   0  0  1  0  0  0  0  0  0  0  0  0
   19.5369   -7.7949  -14.4789 C   0  0  0  0  0  0  0  0  0  0  0  0
   18.3630   -6.9727  -14.2804 C   0  0  0  0  0  0  0  0  0  0  0  0
   18.5311   -5.8078  -13.7791 O   0  0  0  0  0  0  0  0  0  0  0  0
   20.6228   -6.3782  -16.2480 C   0  0  0  0  0  0  0  0  0  0  0  0
   21.6258   -5.8587  -15.6968 O   0  0  0  0  0  0  0  0  0  0  0  0
   17.0697   -7.3751  -14.6019 O   0  0  0  0  0  0  0  0  0  0  0  0
   20.8537   -1.8785  -18.5929 N   0  0  0  0  0  0  0  0  0  0  0  0
   20.3809   -2.7958  -19.5599 C   0  0  0  0  0  0  0  0  0  0  0  0
   20.2545   -2.4195  -20.7392 O   0  0  0  0  0  0  0  0  0  0  0  0
   20.0589   -4.1788  -19.0990 C   0  0  0  0  0  0  0  0  0  0  0  0
   20.3143   -4.2756  -17.5865 C   0  0  2  0  0  0  0  0  0  0  0  0
   19.9637   -5.6444  -17.2368 N   0  0  0  0  0  0  0  0  0  0  0  0
   19.5815   -3.2521  -16.8506 C   0  0  0  0  0  0  0  0  0  0  0  0
   18.2944   -3.3639  -16.3512 O   0  0  0  0  0  0  0  0  0  0  0  0
   20.1456   -2.1369  -16.6268 O   0  0  0  0  0  0  0  0  0  0  0  0
  2  1  1  6
  2 13  1  0
  2  3  1  0
  3  4  1  0
  4 12  1  0
  4  5  2  0
  5  6  1  0
  7  6  1  0
  7  8  2  0
  9  8  1  0
 10  9  2  0
 11 12  2  0
 11 10  1  0
 12  7  1  0
 13 14  2  0
 15 16  1  0
 15 13  1  0
 17 18  1  0
 16 17  1  1
 18 19  2  0
 20 16  1  0
 20 21  2  0
 22 18  1  0
 23 24  1  0
 24 25  2  0
 24 26  1  0
 27 26  1  6
 27 28  1  0
 28 20  1  0
 29 27  1  0
 29 30  1  0
 31 29  2  0
M  END
$$$$
