QTI.pdb
     RDKit          3D

 25 24  0  0  1  0  0  0  0  0999 V2000
   30.9069  -24.8081  -15.3815 N   0  0  0  0  0  0  0  0  0  0  0  0
   31.7121  -24.8742  -16.5353 C   0  0  0  0  0  0  0  0  0  0  0  0
   32.3503  -25.9348  -16.8046 O   0  0  0  0  0  0  0  0  0  0  0  0
   31.7792  -23.6631  -17.4101 C   0  0  0  0  0  0  0  0  0  0  0  0
   30.9203  -22.6024  -16.7738 C   0  0  0  0  0  0  0  0  0  0  0  0
   29.4778  -22.6994  -17.2001 C   0  0  2  0  0  0  0  0  0  0  0  0
   29.4306  -22.5163  -18.6359 N   0  0  0  0  0  0  0  0  0  0  0  0
   28.7083  -21.6319  -16.4929 C   0  0  0  0  0  0  0  0  0  0  0  0
   28.7675  -20.4354  -16.8843 O   0  0  0  0  0  0  0  0  0  0  0  0
   26.7285  -19.6308  -16.9616 C   0  0  0  0  0  0  0  0  0  0  0  0
   26.0671  -20.3020  -15.8028 C   0  0  1  0  0  0  0  0  0  0  0  0
   25.2643  -21.3809  -16.1700 O   0  0  0  0  0  0  0  0  0  0  0  0
   27.0823  -20.8514  -14.7937 C   0  0  2  0  0  0  0  0  0  0  0  0
   27.8823  -21.8872  -15.3642 N   0  0  0  0  0  0  0  0  0  0  0  0
   26.3852  -21.2537  -13.5515 C   0  0  0  0  0  0  0  0  0  0  0  0
   27.0121  -22.0237  -12.7756 O   0  0  0  0  0  0  0  0  0  0  0  0
   27.4465  -20.2747   -9.4746 C   0  0  0  0  0  0  0  0  0  0  0  0
   26.7203  -21.0512  -10.5524 C   0  0  0  0  0  0  0  0  0  0  0  0
   25.3888  -20.3744  -10.7927 C   0  0  2  0  0  0  0  0  0  0  0  0
   24.6571  -20.2542   -9.4930 C   0  0  0  0  0  0  0  0  0  0  0  0
   24.5830  -21.0866  -11.8551 C   0  0  2  0  0  0  0  0  0  0  0  0
   25.0974  -20.8452  -13.1827 N   0  0  0  0  0  0  0  0  0  0  0  0
   23.1669  -20.6048  -11.7373 C   0  0  0  0  0  0  0  0  0  0  0  0
   22.2086  -21.3023  -11.0159 O   0  0  0  0  0  0  0  0  0  0  0  0
   22.8114  -19.5384  -12.3004 O   0  0  0  0  0  0  0  0  0  0  0  0
  2  1  1  0
  3  2  2  0
  4  2  1  0
  5  4  1  0
  6  5  1  0
  6  7  1  6
  8  9  2  0
  8  6  1  0
 11 10  1  6
 11 12  1  0
 13 11  1  0
 13 14  1  6
 14  8  1  0
 15 13  1  0
 15 16  2  0
 18 19  1  0
 18 17  1  0
 19 21  1  0
 19 20  1  1
 21 22  1  6
 21 23  1  0
 22 15  1  0
 23 25  2  0
 23 24  1  0
M  END
$$$$
