QTI.pdb
     RDKit          3D

 25 24  0  0  1  0  0  0  0  0999 V2000
   19.8603  -16.8414  -18.9312 N   0  0  0  0  0  0  0  0  0  0  0  0
   18.8532  -16.8290  -17.9466 C   0  0  0  0  0  0  0  0  0  0  0  0
   18.7578  -17.7870  -17.1233 O   0  0  0  0  0  0  0  0  0  0  0  0
   17.9209  -15.6600  -17.9163 C   0  0  0  0  0  0  0  0  0  0  0  0
   18.3302  -14.7313  -19.0288 C   0  0  0  0  0  0  0  0  0  0  0  0
   17.4102  -13.5439  -19.1534 C   0  0  2  0  0  0  0  0  0  0  0  0
   16.7654  -13.6214  -20.4478 N   0  0  0  0  0  0  0  0  0  0  0  0
   18.2309  -12.3016  -19.0314 C   0  0  0  0  0  0  0  0  0  0  0  0
   19.2133  -12.1066  -19.7965 O   0  0  0  0  0  0  0  0  0  0  0  0
   17.5340   -8.7886  -19.7156 C   0  0  0  0  0  0  0  0  0  0  0  0
   17.9909   -8.8470  -18.2948 C   0  0  1  0  0  0  0  0  0  0  0  0
   16.9451   -8.8184  -17.3734 O   0  0  0  0  0  0  0  0  0  0  0  0
   18.7882  -10.1214  -17.9937 C   0  0  2  0  0  0  0  0  0  0  0  0
   17.9663  -11.2863  -18.0720 N   0  0  0  0  0  0  0  0  0  0  0  0
   19.4933   -9.9764  -16.7004 C   0  0  0  0  0  0  0  0  0  0  0  0
   18.9278  -10.4725  -15.6895 O   0  0  0  0  0  0  0  0  0  0  0  0
   24.2218  -11.6690  -15.5423 C   0  0  0  0  0  0  0  0  0  0  0  0
   22.7792  -11.2134  -15.6016 C   0  0  0  0  0  0  0  0  0  0  0  0
   22.7352   -9.7610  -15.1804 C   0  0  2  0  0  0  0  0  0  0  0  0
   23.3795   -9.6191  -13.8374 C   0  0  0  0  0  0  0  0  0  0  0  0
   21.3276   -9.2107  -15.2162 C   0  0  2  0  0  0  0  0  0  0  0  0
   20.7263   -9.3364  -16.5231 N   0  0  0  0  0  0  0  0  0  0  0  0
   21.4020   -7.7708  -14.8007 C   0  0  0  0  0  0  0  0  0  0  0  0
   21.4736   -6.7395  -15.7262 O   0  0  0  0  0  0  0  0  0  0  0  0
   21.4012   -7.4620  -13.5821 O   0  0  0  0  0  0  0  0  0  0  0  0
  2  1  1  0
  3  2  2  0
  4  2  1  0
  5  4  1  0
  6  5  1  0
  6  7  1  6
  8  9  2  0
  8  6  1  0
 11 10  1  6
 11 12  1  0
 13 11  1  0
 13 14  1  1
 14  8  1  0
 15 13  1  0
 15 16  2  0
 18 19  1  0
 18 17  1  0
 19 21  1  0
 19 20  1  1
 21 22  1  6
 21 23  1  0
 22 15  1  0
 23 25  2  0
 23 24  1  0
M  END
$$$$
