QTI.pdb
     RDKit          3D

 25 24  0  0  1  0  0  0  0  0999 V2000
   15.7959  -11.9421  -18.1786 N   0  0  0  0  0  0  0  0  0  0  0  0
   16.7086  -12.9043  -18.6531 C   0  0  0  0  0  0  0  0  0  0  0  0
   16.3530  -13.7326  -19.5432 O   0  0  0  0  0  0  0  0  0  0  0  0
   18.0868  -12.9054  -18.0723 C   0  0  0  0  0  0  0  0  0  0  0  0
   18.1383  -11.8118  -17.0384 C   0  0  0  0  0  0  0  0  0  0  0  0
   18.9822  -10.6436  -17.4798 C   0  0  2  0  0  0  0  0  0  0  0  0
   20.2149  -11.1730  -18.0252 N   0  0  0  0  0  0  0  0  0  0  0  0
   19.2443   -9.7798  -16.2894 C   0  0  0  0  0  0  0  0  0  0  0  0
   18.3181   -9.5114  -15.4779 O   0  0  0  0  0  0  0  0  0  0  0  0
   22.5635   -9.8327  -14.0670 C   0  0  0  0  0  0  0  0  0  0  0  0
   21.3199   -9.0967  -13.6896 C   0  0  1  0  0  0  0  0  0  0  0  0
   21.5213   -8.1375  -12.6982 O   0  0  0  0  0  0  0  0  0  0  0  0
   20.7011   -8.3545  -14.8799 C   0  0  2  0  0  0  0  0  0  0  0  0
   20.5187   -9.2193  -16.0012 N   0  0  0  0  0  0  0  0  0  0  0  0
   21.4983   -7.1451  -15.1845 C   0  0  0  0  0  0  0  0  0  0  0  0
   22.6171   -7.3293  -15.7343 O   0  0  0  0  0  0  0  0  0  0  0  0
   21.3003   -1.9526  -17.8925 C   0  0  0  0  0  0  0  0  0  0  0  0
   22.0216   -2.6523  -16.7602 C   0  0  0  0  0  0  0  0  0  0  0  0
   21.1841   -3.8411  -16.3428 C   0  0  2  0  0  0  0  0  0  0  0  0
   19.8534   -3.3585  -15.8575 C   0  0  0  0  0  0  0  0  0  0  0  0
   21.9012   -4.7016  -15.3276 C   0  0  2  0  0  0  0  0  0  0  0  0
   21.1033   -5.8300  -14.9089 N   0  0  0  0  0  0  0  0  0  0  0  0
   22.2366   -3.8238  -14.1578 C   0  0  0  0  0  0  0  0  0  0  0  0
   23.3271   -2.9658  -14.1689 O   0  0  0  0  0  0  0  0  0  0  0  0
   21.5234   -3.8471  -13.1228 O   0  0  0  0  0  0  0  0  0  0  0  0
  2  1  1  0
  3  2  2  0
  4  2  1  0
  5  4  1  0
  6  5  1  0
  6  7  1  1
  8  9  2  0
  8  6  1  0
 11 10  1  6
 11 12  1  0
 13 11  1  0
 13 14  1  6
 14  8  1  0
 15 13  1  0
 15 16  2  0
 18 19  1  0
 18 17  1  0
 19 21  1  0
 19 20  1  1
 21 22  1  1
 21 23  1  0
 22 15  1  0
 23 25  2  0
 23 24  1  0
M  END
$$$$
