QTI.pdb
     RDKit          3D

 25 24  0  0  1  0  0  0  0  0999 V2000
   18.8388  -16.2368  -17.0397 N   0  0  0  0  0  0  0  0  0  0  0  0
   19.4642  -14.9755  -16.9953 C   0  0  0  0  0  0  0  0  0  0  0  0
   18.8261  -13.9376  -17.3422 O   0  0  0  0  0  0  0  0  0  0  0  0
   20.8844  -14.9164  -16.5305 C   0  0  0  0  0  0  0  0  0  0  0  0
   21.2747  -16.3069  -16.1039 C   0  0  0  0  0  0  0  0  0  0  0  0
   22.3376  -16.9027  -16.9911 C   0  0  2  0  0  0  0  0  0  0  0  0
   21.7424  -17.1433  -18.2892 N   0  0  0  0  0  0  0  0  0  0  0  0
   22.8078  -18.1761  -16.3671 C   0  0  0  0  0  0  0  0  0  0  0  0
   22.0128  -19.1407  -16.2060 O   0  0  0  0  0  0  0  0  0  0  0  0
   24.7798  -20.7994  -17.5969 C   0  0  0  0  0  0  0  0  0  0  0  0
   25.4790  -20.3898  -16.3424 C   0  0  1  0  0  0  0  0  0  0  0  0
   26.5725  -19.5538  -16.5636 O   0  0  0  0  0  0  0  0  0  0  0  0
   24.5531  -19.6337  -15.3824 C   0  0  2  0  0  0  0  0  0  0  0  0
   24.1441  -18.3785  -15.9262 N   0  0  0  0  0  0  0  0  0  0  0  0
   25.1924  -19.5259  -14.0518 C   0  0  0  0  0  0  0  0  0  0  0  0
   25.6384  -18.3924  -13.7291 O   0  0  0  0  0  0  0  0  0  0  0  0
   23.3124  -20.3961   -9.3659 C   0  0  0  0  0  0  0  0  0  0  0  0
   24.0900  -19.9132  -10.5719 C   0  0  0  0  0  0  0  0  0  0  0  0
   25.3327  -20.7674  -10.6934 C   0  0  2  0  0  0  0  0  0  0  0  0
   26.1416  -20.6391   -9.4411 C   0  0  0  0  0  0  0  0  0  0  0  0
   26.1224  -20.4319  -11.9381 C   0  0  2  0  0  0  0  0  0  0  0  0
   25.3347  -20.5789  -13.1394 N   0  0  0  0  0  0  0  0  0  0  0  0
   27.3140  -21.3433  -11.9682 C   0  0  0  0  0  0  0  0  0  0  0  0
   28.5030  -21.0233  -11.3285 O   0  0  0  0  0  0  0  0  0  0  0  0
   27.2597  -22.4372  -12.5853 O   0  0  0  0  0  0  0  0  0  0  0  0
  2  1  1  0
  3  2  2  0
  4  2  1  0
  5  4  1  0
  6  5  1  0
  6  7  1  6
  8  9  2  0
  8  6  1  0
 11 10  1  6
 11 12  1  0
 13 11  1  0
 13 14  1  6
 14  8  1  0
 15 13  1  0
 15 16  2  0
 18 19  1  0
 18 17  1  0
 19 21  1  0
 19 20  1  1
 21 22  1  6
 21 23  1  0
 22 15  1  0
 23 25  2  0
 23 24  1  0
M  END
$$$$
