QTI.pdb
     RDKit          3D

 25 24  0  0  1  0  0  0  0  0999 V2000
   19.5689  -21.5738  -13.1494 N   0  0  0  0  0  0  0  0  0  0  0  0
   19.4292  -20.1760  -13.2523 C   0  0  0  0  0  0  0  0  0  0  0  0
   18.4053  -19.6792  -13.8088 O   0  0  0  0  0  0  0  0  0  0  0  0
   20.5194  -19.3220  -12.6877 C   0  0  0  0  0  0  0  0  0  0  0  0
   21.4701  -20.2334  -11.9576 C   0  0  0  0  0  0  0  0  0  0  0  0
   22.8593  -20.2009  -12.5415 C   0  0  2  0  0  0  0  0  0  0  0  0
   22.8158  -20.8848  -13.8173 N   0  0  0  0  0  0  0  0  0  0  0  0
   23.7828  -20.8891  -11.5900 C   0  0  0  0  0  0  0  0  0  0  0  0
   23.5831  -22.0890  -11.2603 O   0  0  0  0  0  0  0  0  0  0  0  0
   26.9456  -22.1357  -12.0570 C   0  0  0  0  0  0  0  0  0  0  0  0
   27.1275  -21.2922  -10.8379 C   0  0  1  0  0  0  0  0  0  0  0  0
   27.7302  -20.0624  -11.0981 O   0  0  0  0  0  0  0  0  0  0  0  0
   25.7958  -20.9754  -10.1475 C   0  0  2  0  0  0  0  0  0  0  0  0
   24.9152  -20.2547  -11.0098 N   0  0  0  0  0  0  0  0  0  0  0  0
   26.0505  -20.2982   -8.8562 C   0  0  0  0  0  0  0  0  0  0  0  0
   25.4724  -19.1934   -8.6737 O   0  0  0  0  0  0  0  0  0  0  0  0
   29.1197  -20.7869   -3.4830 C   0  0  0  0  0  0  0  0  0  0  0  0
   28.1630  -20.0096   -4.3619 C   0  0  0  0  0  0  0  0  0  0  0  0
   27.9974  -20.7756   -5.6559 C   0  0  2  0  0  0  0  0  0  0  0  0
   29.3480  -21.1324   -6.1920 C   0  0  0  0  0  0  0  0  0  0  0  0
   27.1537  -20.0140   -6.6527 C   0  0  2  0  0  0  0  0  0  0  0  0
   26.8761  -20.7908   -7.8379 N   0  0  0  0  0  0  0  0  0  0  0  0
   27.9002  -18.7598   -7.0010 C   0  0  0  0  0  0  0  0  0  0  0  0
   27.7764  -17.5969   -6.2543 O   0  0  0  0  0  0  0  0  0  0  0  0
   28.6684  -18.7352   -7.9959 O   0  0  0  0  0  0  0  0  0  0  0  0
  2  1  1  0
  3  2  2  0
  4  2  1  0
  5  4  1  0
  6  5  1  0
  6  7  1  6
  8  9  2  0
  8  6  1  0
 11 10  1  6
 11 12  1  0
 13 11  1  0
 13 14  1  6
 14  8  1  0
 15 13  1  0
 15 16  2  0
 18 19  1  0
 18 17  1  0
 19 21  1  0
 19 20  1  6
 21 22  1  6
 21 23  1  0
 22 15  1  0
 23 25  2  0
 23 24  1  0
M  END
$$$$
