QTI.pdb
     RDKit          3D

 25 24  0  0  1  0  0  0  0  0999 V2000
   20.0229  -16.1423  -18.2368 N   0  0  0  0  0  0  0  0  0  0  0  0
   18.8718  -15.9879  -19.0338 C   0  0  0  0  0  0  0  0  0  0  0  0
   18.1134  -16.9785  -19.2530 O   0  0  0  0  0  0  0  0  0  0  0  0
   18.5902  -14.6318  -19.5981 C   0  0  0  0  0  0  0  0  0  0  0  0
   19.6622  -13.7038  -19.0910 C   0  0  0  0  0  0  0  0  0  0  0  0
   20.4147  -13.0299  -20.2097 C   0  0  2  0  0  0  0  0  0  0  0  0
   21.5311  -13.8815  -20.5640 N   0  0  0  0  0  0  0  0  0  0  0  0
   20.8837  -11.6980  -19.7220 C   0  0  0  0  0  0  0  0  0  0  0  0
   22.0887  -11.5247  -19.3957 O   0  0  0  0  0  0  0  0  0  0  0  0
   20.3687   -6.8212  -19.3924 C   0  0  0  0  0  0  0  0  0  0  0  0
   19.9476   -8.1459  -19.9387 C   0  0  1  0  0  0  0  0  0  0  0  0
   20.3373   -8.3506  -21.2615 O   0  0  0  0  0  0  0  0  0  0  0  0
   20.5311   -9.3158  -19.1377 C   0  0  2  0  0  0  0  0  0  0  0  0
   20.0271  -10.5702  -19.5968 N   0  0  0  0  0  0  0  0  0  0  0  0
   20.3228   -9.0844  -17.6907 C   0  0  0  0  0  0  0  0  0  0  0  0
   19.2115   -9.4407  -17.2154 O   0  0  0  0  0  0  0  0  0  0  0  0
   23.3509  -11.0244  -14.1404 C   0  0  0  0  0  0  0  0  0  0  0  0
   22.2083  -10.4659  -14.9619 C   0  0  0  0  0  0  0  0  0  0  0  0
   21.9985   -9.0270  -14.5444 C   0  0  2  0  0  0  0  0  0  0  0  0
   21.6420   -8.9839  -13.0918 C   0  0  0  0  0  0  0  0  0  0  0  0
   20.9786   -8.3341  -15.4189 C   0  0  2  0  0  0  0  0  0  0  0  0
   21.2595   -8.5059  -16.8249 N   0  0  0  0  0  0  0  0  0  0  0  0
   20.9887   -6.8802  -15.0480 C   0  0  0  0  0  0  0  0  0  0  0  0
   20.1008   -6.3492  -14.1234 O   0  0  0  0  0  0  0  0  0  0  0  0
   21.8178   -6.0970  -15.5770 O   0  0  0  0  0  0  0  0  0  0  0  0
  2  1  1  0
  3  2  2  0
  4  2  1  0
  5  4  1  0
  6  5  1  0
  6  7  1  1
  8  9  2  0
  8  6  1  0
 11 10  1  1
 11 12  1  0
 13 11  1  0
 13 14  1  6
 14  8  1  0
 15 13  1  0
 15 16  2  0
 18 19  1  0
 18 17  1  0
 19 21  1  0
 19 20  1  1
 21 22  1  6
 21 23  1  0
 22 15  1  0
 23 25  2  0
 23 24  1  0
M  END
$$$$
