QTI.pdb
     RDKit          3D

 25 24  0  0  1  0  0  0  0  0999 V2000
   19.3946  -20.1609   -9.5627 N   0  0  0  0  0  0  0  0  0  0  0  0
   18.1871  -20.4869  -10.2103 C   0  0  0  0  0  0  0  0  0  0  0  0
   17.0975  -19.9727   -9.8191 O   0  0  0  0  0  0  0  0  0  0  0  0
   18.2463  -21.4465  -11.3559 C   0  0  0  0  0  0  0  0  0  0  0  0
   19.6764  -21.8993  -11.4879 C   0  0  0  0  0  0  0  0  0  0  0  0
   20.5775  -20.8105  -12.0119 C   0  0  2  0  0  0  0  0  0  0  0  0
   19.9302  -20.2219  -13.1659 N   0  0  0  0  0  0  0  0  0  0  0  0
   21.8878  -21.4255  -12.3816 C   0  0  0  0  0  0  0  0  0  0  0  0
   22.5122  -22.1445  -11.5560 O   0  0  0  0  0  0  0  0  0  0  0  0
   22.8165  -24.0507  -14.8022 C   0  0  0  0  0  0  0  0  0  0  0  0
   23.6142  -22.8357  -15.1459 C   0  0  1  0  0  0  0  0  0  0  0  0
   23.0691  -22.0905  -16.1904 O   0  0  0  0  0  0  0  0  0  0  0  0
   23.7450  -21.8730  -13.9598 C   0  0  2  0  0  0  0  0  0  0  0  0
   22.4999  -21.2458  -13.6522 N   0  0  0  0  0  0  0  0  0  0  0  0
   24.8469  -20.9171  -14.2108 C   0  0  0  0  0  0  0  0  0  0  0  0
   24.5167  -19.7276  -14.4639 O   0  0  0  0  0  0  0  0  0  0  0  0
   29.6066  -21.2103  -11.6047 C   0  0  0  0  0  0  0  0  0  0  0  0
   28.3102  -20.7055  -12.2018 C   0  0  0  0  0  0  0  0  0  0  0  0
   28.5151  -20.5560  -13.6933 C   0  0  2  0  0  0  0  0  0  0  0  0
   29.5870  -19.5423  -13.9428 C   0  0  0  0  0  0  0  0  0  0  0  0
   27.2223  -20.2293  -14.4054 C   0  0  2  0  0  0  0  0  0  0  0  0
   26.2104  -21.2361  -14.1873 N   0  0  0  0  0  0  0  0  0  0  0  0
   27.5392  -20.1009  -15.8664 C   0  0  0  0  0  0  0  0  0  0  0  0
   27.8192  -18.8760  -16.4551 O   0  0  0  0  0  0  0  0  0  0  0  0
   27.5583  -21.1199  -16.6026 O   0  0  0  0  0  0  0  0  0  0  0  0
  2  1  1  0
  3  2  2  0
  4  2  1  0
  5  4  1  0
  6  5  1  0
  6  7  1  6
  8  9  2  0
  8  6  1  0
 11 10  1  1
 11 12  1  0
 13 11  1  0
 13 14  1  6
 14  8  1  0
 15 13  1  0
 15 16  2  0
 18 19  1  0
 18 17  1  0
 19 21  1  0
 19 20  1  1
 21 22  1  6
 21 23  1  0
 22 15  1  0
 23 25  2  0
 23 24  1  0
M  END
$$$$
