QTI.pdb
     RDKit          3D

 25 24  0  0  1  0  0  0  0  0999 V2000
   13.1767  -10.7066  -15.8665 N   0  0  0  0  0  0  0  0  0  0  0  0
   12.9348  -12.0926  -15.9333 C   0  0  0  0  0  0  0  0  0  0  0  0
   12.2138  -12.5676  -16.8602 O   0  0  0  0  0  0  0  0  0  0  0  0
   13.5532  -12.9605  -14.8841 C   0  0  0  0  0  0  0  0  0  0  0  0
   14.3577  -12.0655  -13.9790 C   0  0  0  0  0  0  0  0  0  0  0  0
   15.7753  -11.8876  -14.4594 C   0  0  2  0  0  0  0  0  0  0  0  0
   16.4673  -13.1443  -14.2618 N   0  0  0  0  0  0  0  0  0  0  0  0
   16.4051  -10.7920  -13.6625 C   0  0  0  0  0  0  0  0  0  0  0  0
   16.9621  -11.0424  -12.5601 O   0  0  0  0  0  0  0  0  0  0  0  0
   18.4221   -6.3495  -13.2480 C   0  0  0  0  0  0  0  0  0  0  0  0
   17.8423   -7.4411  -14.0864 C   0  0  1  0  0  0  0  0  0  0  0  0
   18.8043   -8.2132  -14.7358 O   0  0  0  0  0  0  0  0  0  0  0  0
   16.9975   -8.4195  -13.2619 C   0  0  2  0  0  0  0  0  0  0  0  0
   16.4176   -9.4338  -14.0825 N   0  0  0  0  0  0  0  0  0  0  0  0
   16.0090   -7.6696  -12.4548 C   0  0  0  0  0  0  0  0  0  0  0  0
   14.9522   -7.3147  -13.0423 O   0  0  0  0  0  0  0  0  0  0  0  0
   13.3996   -7.0471   -7.0757 C   0  0  0  0  0  0  0  0  0  0  0  0
   13.7763   -6.3092   -8.3429 C   0  0  0  0  0  0  0  0  0  0  0  0
   14.8520   -7.1105   -9.0425 C   0  0  2  0  0  0  0  0  0  0  0  0
   16.0542   -7.1983   -8.1560 C   0  0  0  0  0  0  0  0  0  0  0  0
   15.1709   -6.5460  -10.4081 C   0  0  2  0  0  0  0  0  0  0  0  0
   16.1627   -7.3314  -11.1045 N   0  0  0  0  0  0  0  0  0  0  0  0
   15.6515   -5.1389  -10.2069 C   0  0  0  0  0  0  0  0  0  0  0  0
   16.9957   -4.8021  -10.2768 O   0  0  0  0  0  0  0  0  0  0  0  0
   14.8310   -4.2174   -9.9660 O   0  0  0  0  0  0  0  0  0  0  0  0
  2  1  1  0
  3  2  2  0
  4  2  1  0
  5  4  1  0
  6  5  1  0
  6  7  1  1
  8  9  2  0
  8  6  1  0
 11 10  1  1
 11 12  1  0
 13 11  1  0
 13 14  1  6
 14  8  1  0
 15 13  1  0
 15 16  2  0
 18 19  1  0
 18 17  1  0
 19 21  1  0
 19 20  1  1
 21 22  1  1
 21 23  1  0
 22 15  1  0
 23 25  2  0
 23 24  1  0
M  END
$$$$
