QTI.pdb
     RDKit          3D

 25 24  0  0  1  0  0  0  0  0999 V2000
   21.3972  -22.3999  -12.8346 N   0  0  0  0  0  0  0  0  0  0  0  0
   21.0866  -21.0340  -12.9823 C   0  0  0  0  0  0  0  0  0  0  0  0
   20.0965  -20.6805  -13.6890 O   0  0  0  0  0  0  0  0  0  0  0  0
   21.9584  -20.0403  -12.2831 C   0  0  0  0  0  0  0  0  0  0  0  0
   22.9669  -20.8167  -11.4783 C   0  0  0  0  0  0  0  0  0  0  0  0
   24.3395  -20.7928  -12.1006 C   0  0  2  0  0  0  0  0  0  0  0  0
   24.2743  -21.5424  -13.3379 N   0  0  0  0  0  0  0  0  0  0  0  0
   25.2993  -21.4161  -11.1403 C   0  0  0  0  0  0  0  0  0  0  0  0
   25.6261  -22.6275  -11.2588 O   0  0  0  0  0  0  0  0  0  0  0  0
   27.8547  -21.7545  -11.9736 C   0  0  0  0  0  0  0  0  0  0  0  0
   28.2037  -20.8253  -10.8576 C   0  0  1  0  0  0  0  0  0  0  0  0
   28.1822  -19.4811  -11.2267 O   0  0  0  0  0  0  0  0  0  0  0  0
   27.2412  -20.9559   -9.6714 C   0  0  2  0  0  0  0  0  0  0  0  0
   25.8906  -20.7050  -10.0605 N   0  0  0  0  0  0  0  0  0  0  0  0
   27.7065  -20.1045   -8.5536 C   0  0  0  0  0  0  0  0  0  0  0  0
   27.1775  -18.9653   -8.4526 O   0  0  0  0  0  0  0  0  0  0  0  0
   25.1568  -20.1006   -5.1339 C   0  0  0  0  0  0  0  0  0  0  0  0
   26.2876  -19.6180   -6.0175 C   0  0  0  0  0  0  0  0  0  0  0  0
   27.5825  -20.1489   -5.4430 C   0  0  2  0  0  0  0  0  0  0  0  0
   27.7450  -19.6399   -4.0453 C   0  0  0  0  0  0  0  0  0  0  0  0
   28.7633  -19.8195   -6.3275 C   0  0  2  0  0  0  0  0  0  0  0  0
   28.6787  -20.4699   -7.6141 N   0  0  0  0  0  0  0  0  0  0  0  0
   30.0010  -20.2477   -5.5952 C   0  0  0  0  0  0  0  0  0  0  0  0
   30.7421  -21.3543   -5.9844 O   0  0  0  0  0  0  0  0  0  0  0  0
   30.4008  -19.6006   -4.5941 O   0  0  0  0  0  0  0  0  0  0  0  0
  2  1  1  0
  3  2  2  0
  4  2  1  0
  5  4  1  0
  6  5  1  0
  6  7  1  6
  8  9  2  0
  8  6  1  0
 11 10  1  6
 11 12  1  0
 13 11  1  0
 13 14  1  6
 14  8  1  0
 15 13  1  0
 15 16  2  0
 18 19  1  0
 18 17  1  0
 19 21  1  0
 19 20  1  1
 21 22  1  6
 21 23  1  0
 22 15  1  0
 23 25  2  0
 23 24  1  0
M  END
$$$$
