QTI.pdb
     RDKit          3D

 25 24  0  0  1  0  0  0  0  0999 V2000
   21.3811  -30.4502  -10.5806 N   0  0  0  0  0  0  0  0  0  0  0  0
   21.3123  -31.1388  -11.8075 C   0  0  0  0  0  0  0  0  0  0  0  0
   22.1278  -32.0756  -12.0567 O   0  0  0  0  0  0  0  0  0  0  0  0
   20.2568  -30.7242  -12.7825 C   0  0  0  0  0  0  0  0  0  0  0  0
   19.4186  -29.6673  -12.1132 C   0  0  0  0  0  0  0  0  0  0  0  0
   18.3071  -29.1685  -13.0007 C   0  0  2  0  0  0  0  0  0  0  0  0
   18.9108  -28.6411  -14.2068 N   0  0  0  0  0  0  0  0  0  0  0  0
   17.5588  -28.1076  -12.2616 C   0  0  0  0  0  0  0  0  0  0  0  0
   16.9926  -27.1712  -12.8869 O   0  0  0  0  0  0  0  0  0  0  0  0
   15.0811  -26.9691  -12.2217 C   0  0  0  0  0  0  0  0  0  0  0  0
   15.1357  -27.2558  -10.7570 C   0  0  1  0  0  0  0  0  0  0  0  0
   14.6730  -28.5275  -10.4222 O   0  0  0  0  0  0  0  0  0  0  0  0
   16.5611  -27.1616  -10.2001 C   0  0  2  0  0  0  0  0  0  0  0  0
   17.4393  -28.0842  -10.8451 N   0  0  0  0  0  0  0  0  0  0  0  0
   16.5323  -27.2982   -8.7265 C   0  0  0  0  0  0  0  0  0  0  0  0
   16.8134  -28.4340   -8.2585 O   0  0  0  0  0  0  0  0  0  0  0  0
   19.6844  -23.8464   -7.0133 C   0  0  0  0  0  0  0  0  0  0  0  0
   18.8524  -25.0872   -7.2587 C   0  0  0  0  0  0  0  0  0  0  0  0
   17.6979  -25.0709   -6.2811 C   0  0  2  0  0  0  0  0  0  0  0  0
   18.2359  -25.0019   -4.8866 C   0  0  0  0  0  0  0  0  0  0  0  0
   16.7687  -26.2442   -6.4934 C   0  0  2  0  0  0  0  0  0  0  0  0
   16.2195  -26.2700   -7.8287 N   0  0  0  0  0  0  0  0  0  0  0  0
   15.6762  -26.1374   -5.4705 C   0  0  0  0  0  0  0  0  0  0  0  0
   15.6785  -26.8947   -4.3078 O   0  0  0  0  0  0  0  0  0  0  0  0
   14.7170  -25.3444   -5.6482 O   0  0  0  0  0  0  0  0  0  0  0  0
  2  1  1  0
  3  2  2  0
  4  2  1  0
  5  4  1  0
  6  5  1  0
  6  7  1  6
  8  9  2  0
  8  6  1  0
 11 10  1  6
 11 12  1  0
 13 11  1  0
 13 14  1  6
 14  8  1  0
 15 13  1  0
 15 16  2  0
 18 19  1  0
 18 17  1  0
 19 21  1  0
 19 20  1  1
 21 22  1  6
 21 23  1  0
 22 15  1  0
 23 25  2  0
 23 24  1  0
M  END
$$$$
