QTI.pdb
     RDKit          3D

 25 24  0  0  1  0  0  0  0  0999 V2000
   20.8309  -20.5032  -15.1154 N   0  0  0  0  0  0  0  0  0  0  0  0
   21.7919  -21.4705  -15.4684 C   0  0  0  0  0  0  0  0  0  0  0  0
   21.5652  -22.6985  -15.2552 O   0  0  0  0  0  0  0  0  0  0  0  0
   23.0649  -20.9946  -16.0926 C   0  0  0  0  0  0  0  0  0  0  0  0
   23.6732  -19.9846  -15.1560 C   0  0  0  0  0  0  0  0  0  0  0  0
   24.7519  -20.5819  -14.2891 C   0  0  2  0  0  0  0  0  0  0  0  0
   24.5312  -22.0122  -14.2359 N   0  0  0  0  0  0  0  0  0  0  0  0
   24.6534  -19.9683  -12.9306 C   0  0  0  0  0  0  0  0  0  0  0  0
   24.0098  -18.8987  -12.7574 O   0  0  0  0  0  0  0  0  0  0  0  0
   22.5136  -19.7828  -11.1016 C   0  0  0  0  0  0  0  0  0  0  0  0
   23.4695  -20.3681  -10.1145 C   0  0  1  0  0  0  0  0  0  0  0  0
   23.3788  -21.7552  -10.0086 O   0  0  0  0  0  0  0  0  0  0  0  0
   24.9295  -20.0634  -10.4699 C   0  0  2  0  0  0  0  0  0  0  0  0
   25.2615  -20.5336  -11.7764 N   0  0  0  0  0  0  0  0  0  0  0  0
   25.8211  -20.5796   -9.4072 C   0  0  0  0  0  0  0  0  0  0  0  0
   26.1713  -21.7866   -9.5000 O   0  0  0  0  0  0  0  0  0  0  0  0
   29.8483  -18.9467   -5.0719 C   0  0  0  0  0  0  0  0  0  0  0  0
   28.9991  -20.0446   -5.6765 C   0  0  0  0  0  0  0  0  0  0  0  0
   28.0129  -19.3980   -6.6240 C   0  0  2  0  0  0  0  0  0  0  0  0
   27.2162  -18.3730   -5.8798 C   0  0  0  0  0  0  0  0  0  0  0  0
   27.1458  -20.4252   -7.3155 C   0  0  2  0  0  0  0  0  0  0  0  0
   26.2963  -19.8329   -8.3218 N   0  0  0  0  0  0  0  0  0  0  0  0
   26.3251  -21.1004   -6.2563 C   0  0  0  0  0  0  0  0  0  0  0  0
   24.9746  -20.8308   -6.0868 O   0  0  0  0  0  0  0  0  0  0  0  0
   26.8534  -21.9409   -5.4849 O   0  0  0  0  0  0  0  0  0  0  0  0
  2  1  1  0
  3  2  2  0
  4  2  1  0
  5  4  1  0
  6  5  1  0
  6  7  1  1
  8  9  2  0
  8  6  1  0
 11 10  1  6
 11 12  1  0
 13 11  1  0
 13 14  1  6
 14  8  1  0
 15 13  1  0
 15 16  2  0
 18 19  1  0
 18 17  1  0
 19 21  1  0
 19 20  1  1
 21 22  1  6
 21 23  1  0
 22 15  1  0
 23 25  2  0
 23 24  1  0
M  END
$$$$
