QTI.pdb
     RDKit          3D

 25 24  0  0  1  0  0  0  0  0999 V2000
   20.3174  -19.4903  -15.2922 N   0  0  0  0  0  0  0  0  0  0  0  0
   19.9629  -19.4221  -13.9308 C   0  0  0  0  0  0  0  0  0  0  0  0
   18.9428  -20.0429  -13.5081 O   0  0  0  0  0  0  0  0  0  0  0  0
   20.8253  -18.6020  -13.0250 C   0  0  0  0  0  0  0  0  0  0  0  0
   21.4330  -19.5392  -12.0151 C   0  0  0  0  0  0  0  0  0  0  0  0
   22.7177  -20.1569  -12.5049 C   0  0  2  0  0  0  0  0  0  0  0  0
   22.3711  -21.2237  -13.4209 N   0  0  0  0  0  0  0  0  0  0  0  0
   23.4654  -20.6806  -11.3224 C   0  0  0  0  0  0  0  0  0  0  0  0
   23.0423  -21.6872  -10.6930 O   0  0  0  0  0  0  0  0  0  0  0  0
   26.2465  -22.5362  -11.5399 C   0  0  0  0  0  0  0  0  0  0  0  0
   26.6813  -21.4691  -10.5897 C   0  0  1  0  0  0  0  0  0  0  0  0
   27.4161  -20.4513  -11.1959 O   0  0  0  0  0  0  0  0  0  0  0  0
   25.4937  -20.7849   -9.9026 C   0  0  2  0  0  0  0  0  0  0  0  0
   24.6689  -20.0955  -10.8422 N   0  0  0  0  0  0  0  0  0  0  0  0
   25.9805  -19.9290   -8.7975 C   0  0  0  0  0  0  0  0  0  0  0  0
   25.7880  -18.6893   -8.9158 O   0  0  0  0  0  0  0  0  0  0  0  0
   27.4335  -21.4458   -3.5065 C   0  0  0  0  0  0  0  0  0  0  0  0
   26.7927  -20.7038   -4.6601 C   0  0  0  0  0  0  0  0  0  0  0  0
   27.9008  -20.1976   -5.5571 C   0  0  2  0  0  0  0  0  0  0  0  0
   28.8259  -19.3359   -4.7567 C   0  0  0  0  0  0  0  0  0  0  0  0
   27.3543  -19.4939   -6.7784 C   0  0  2  0  0  0  0  0  0  0  0  0
   26.6303  -20.3923   -7.6467 N   0  0  0  0  0  0  0  0  0  0  0  0
   28.5200  -18.8821   -7.4983 C   0  0  0  0  0  0  0  0  0  0  0  0
   28.8871  -17.5568   -7.3137 O   0  0  0  0  0  0  0  0  0  0  0  0
   29.2020  -19.5702   -8.2995 O   0  0  0  0  0  0  0  0  0  0  0  0
  2  1  1  0
  3  2  2  0
  4  2  1  0
  5  4  1  0
  6  5  1  0
  6  7  1  6
  8  9  2  0
  8  6  1  0
 11 10  1  6
 11 12  1  0
 13 11  1  0
 13 14  1  6
 14  8  1  0
 15 13  1  0
 15 16  2  0
 18 19  1  0
 18 17  1  0
 19 21  1  0
 19 20  1  1
 21 22  1  6
 21 23  1  0
 22 15  1  0
 23 25  2  0
 23 24  1  0
M  END
$$$$
