NAP.pdb
     RDKit          3D

 21 21  0  0  1  0  0  0  0  0999 V2000
    8.6116  -12.5098   19.2530 N   0  0  0  0  0  0  0  0  0  0  0  0
    8.2470  -13.5654   18.4013 C   0  0  0  0  0  0  0  0  0  0  0  0
    7.6679  -13.3476   17.3128 O   0  0  0  0  0  0  0  0  0  0  0  0
    8.5261  -14.9993   18.7407 C   0  0  0  0  0  0  0  0  0  0  0  0
    9.2547  -15.0639   20.0388 C   0  0  2  0  0  0  0  0  0  0  0  0
    9.6841  -16.4520   20.2632 N   0  0  0  0  0  0  0  0  0  0  0  0
    8.4080  -14.6722   21.1743 C   0  0  0  0  0  0  0  0  0  0  0  0
    8.0937  -13.4640   21.3662 O   0  0  0  0  0  0  0  0  0  0  0  0
    6.3060  -16.3261   23.7936 C   0  0  0  0  0  0  0  0  0  0  0  0
    7.1960  -15.1658   23.3169 C   0  0  2  0  0  0  0  0  0  0  0  0
    7.8750  -15.6020   22.1390 N   0  0  0  0  0  0  0  0  0  0  0  0
    7.9791  -14.6092   24.4045 C   0  0  0  0  0  0  0  0  0  0  0  0
    9.2808  -14.7145   24.3048 O   0  0  0  0  0  0  0  0  0  0  0  0
    7.5746  -13.9578   25.5849 N   0  0  0  0  0  0  0  0  0  0  0  0
    6.2630  -13.6983   26.0665 C   0  0  0  0  0  0  0  0  0  0  0  0
    6.3902  -12.2334   26.5082 C   0  0  0  0  0  0  0  0  0  0  0  0
    7.8099  -12.0870   26.9521 C   0  0  0  0  0  0  0  0  0  0  0  0
    8.4581  -13.3790   26.6185 C   0  0  1  0  0  0  0  0  0  0  0  0
    8.5409  -14.2481   27.8023 C   0  0  0  0  0  0  0  0  0  0  0  0
    9.5382  -14.0689   28.7517 O   0  0  0  0  0  0  0  0  0  0  0  0
    7.7217  -15.1772   27.9999 O   0  0  0  0  0  0  0  0  0  0  0  0
  2  3  2  0
  2  1  1  0
  4  2  1  0
  5  4  1  0
  5  6  1  1
  5  7  1  0
  7  8  2  0
 10  9  1  1
 10 12  1  0
 11  7  1  0
 11 10  1  0
 12 14  1  0
 13 12  2  0
 14 15  1  0
 14 18  1  0
 15 16  1  0
 16 17  1  0
 18 17  1  0
 19 20  1  0
 18 19  1  1
 21 19  2  0
M  END
$$$$
