NAP.pdb
     RDKit          3D

 21 21  0  0  1  0  0  0  0  0999 V2000
    8.8607  -12.7572   17.4013 N   0  0  0  0  0  0  0  0  0  0  0  0
    8.0588  -13.8345   17.8126 C   0  0  0  0  0  0  0  0  0  0  0  0
    7.8424  -14.8063   17.0534 O   0  0  0  0  0  0  0  0  0  0  0  0
    7.4216  -13.8846   19.1693 C   0  0  0  0  0  0  0  0  0  0  0  0
    8.3882  -14.4624   20.1449 C   0  0  2  0  0  0  0  0  0  0  0  0
    8.5988  -15.8781   19.8088 N   0  0  0  0  0  0  0  0  0  0  0  0
    7.8897  -14.4035   21.5261 C   0  0  0  0  0  0  0  0  0  0  0  0
    7.6006  -13.2997   22.0678 O   0  0  0  0  0  0  0  0  0  0  0  0
    6.7252  -16.8650   24.1197 C   0  0  0  0  0  0  0  0  0  0  0  0
    7.1853  -15.4613   23.6914 C   0  0  2  0  0  0  0  0  0  0  0  0
    7.6901  -15.5631   22.3596 N   0  0  0  0  0  0  0  0  0  0  0  0
    8.0172  -14.8378   24.7039 C   0  0  0  0  0  0  0  0  0  0  0  0
    9.3094  -14.8486   24.4908 O   0  0  0  0  0  0  0  0  0  0  0  0
    7.6702  -14.2055   25.9127 N   0  0  0  0  0  0  0  0  0  0  0  0
    6.4005  -14.1002   26.5423 C   0  0  0  0  0  0  0  0  0  0  0  0
    6.3854  -12.6176   26.9407 C   0  0  0  0  0  0  0  0  0  0  0  0
    7.8156  -12.2767   27.2101 C   0  0  0  0  0  0  0  0  0  0  0  0
    8.5841  -13.4854   26.8239 C   0  0  1  0  0  0  0  0  0  0  0  0
    8.9161  -14.2981   28.0042 C   0  0  0  0  0  0  0  0  0  0  0  0
    9.9411  -13.9247   28.8632 O   0  0  0  0  0  0  0  0  0  0  0  0
    8.2925  -15.3510   28.2796 O   0  0  0  0  0  0  0  0  0  0  0  0
  2  3  2  0
  2  1  1  0
  4  2  1  0
  5  4  1  0
  5  6  1  6
  5  7  1  0
  7  8  2  0
 10  9  1  1
 10 12  1  0
 11  7  1  0
 11 10  1  0
 12 14  1  0
 13 12  2  0
 14 15  1  0
 14 18  1  0
 15 16  1  0
 16 17  1  0
 18 17  1  0
 19 20  1  0
 18 19  1  1
 21 19  2  0
M  END
$$$$
