NAP.pdb
     RDKit          3D

 21 21  0  0  1  0  0  0  0  0999 V2000
    7.2181  -14.5809   18.4653 N   0  0  0  0  0  0  0  0  0  0  0  0
    7.8251  -15.5599   19.2690 C   0  0  0  0  0  0  0  0  0  0  0  0
    7.9904  -16.7284   18.8508 O   0  0  0  0  0  0  0  0  0  0  0  0
    8.3056  -15.2677   20.6592 C   0  0  0  0  0  0  0  0  0  0  0  0
    7.6216  -14.0458   21.1686 C   0  0  2  0  0  0  0  0  0  0  0  0
    8.0090  -12.9082   20.3217 N   0  0  0  0  0  0  0  0  0  0  0  0
    8.0091  -13.7237   22.5491 C   0  0  0  0  0  0  0  0  0  0  0  0
    9.1864  -13.3602   22.8272 O   0  0  0  0  0  0  0  0  0  0  0  0
    6.3115  -13.3610   25.8883 C   0  0  0  0  0  0  0  0  0  0  0  0
    7.5565  -13.5918   25.0151 C   0  0  2  0  0  0  0  0  0  0  0  0
    7.1089  -13.7892   23.6736 N   0  0  0  0  0  0  0  0  0  0  0  0
    8.4479  -14.5751   25.6019 C   0  0  0  0  0  0  0  0  0  0  0  0
    8.7274  -15.6251   24.8705 O   0  0  0  0  0  0  0  0  0  0  0  0
    9.0833  -14.6017   26.8576 N   0  0  0  0  0  0  0  0  0  0  0  0
    8.7755  -13.8738   28.0387 C   0  0  0  0  0  0  0  0  0  0  0  0
   10.1715  -13.4081   28.4763 C   0  0  0  0  0  0  0  0  0  0  0  0
   11.0984  -14.4885   28.0203 C   0  0  0  0  0  0  0  0  0  0  0  0
   10.2534  -15.4217   27.2354 C   0  0  1  0  0  0  0  0  0  0  0  0
    9.8564  -16.5823   28.0470 C   0  0  0  0  0  0  0  0  0  0  0  0
   10.7558  -17.6044   28.3200 O   0  0  0  0  0  0  0  0  0  0  0  0
    8.7004  -16.6945   28.5207 O   0  0  0  0  0  0  0  0  0  0  0  0
  2  3  2  0
  2  1  1  0
  4  2  1  0
  5  4  1  0
  5  6  1  6
  5  7  1  0
  7  8  2  0
 10  9  1  1
 10 12  1  0
 11  7  1  0
 11 10  1  0
 12 14  1  0
 13 12  2  0
 14 15  1  0
 14 18  1  0
 15 16  1  0
 16 17  1  0
 18 17  1  0
 19 20  1  0
 18 19  1  1
 21 19  2  0
M  END
$$$$
