NAP.pdb
     RDKit          3D

 21 21  0  0  1  0  0  0  0  0999 V2000
    9.5675  -14.3319   17.3313 N   0  0  0  0  0  0  0  0  0  0  0  0
    8.2989  -13.7548   17.5058 C   0  0  0  0  0  0  0  0  0  0  0  0
    7.6368  -13.3405   16.5272 O   0  0  0  0  0  0  0  0  0  0  0  0
    7.6692  -13.6022   18.8583 C   0  0  0  0  0  0  0  0  0  0  0  0
    8.5226  -14.2770   19.8764 C   0  0  2  0  0  0  0  0  0  0  0  0
    8.5981  -15.7077   19.5462 N   0  0  0  0  0  0  0  0  0  0  0  0
    7.9689  -14.1632   21.2329 C   0  0  0  0  0  0  0  0  0  0  0  0
    7.8522  -13.0390   21.7967 O   0  0  0  0  0  0  0  0  0  0  0  0
    6.3864  -16.4832   23.7505 C   0  0  0  0  0  0  0  0  0  0  0  0
    6.9891  -15.1315   23.3320 C   0  0  2  0  0  0  0  0  0  0  0  0
    7.5213  -15.2881   22.0163 N   0  0  0  0  0  0  0  0  0  0  0  0
    7.8457  -14.5831   24.3672 C   0  0  0  0  0  0  0  0  0  0  0  0
    9.1373  -14.6722   24.1691 O   0  0  0  0  0  0  0  0  0  0  0  0
    7.5238  -13.9548   25.5849 N   0  0  0  0  0  0  0  0  0  0  0  0
    6.2498  -13.7259   26.1715 C   0  0  0  0  0  0  0  0  0  0  0  0
    6.3858  -12.2648   26.6231 C   0  0  0  0  0  0  0  0  0  0  0  0
    7.8332  -12.0980   26.9565 C   0  0  0  0  0  0  0  0  0  0  0  0
    8.4756  -13.3733   26.5544 C   0  0  1  0  0  0  0  0  0  0  0  0
    8.6663  -14.2561   27.7154 C   0  0  0  0  0  0  0  0  0  0  0  0
    9.7149  -14.0530   28.6027 O   0  0  0  0  0  0  0  0  0  0  0  0
    7.8966  -15.2188   27.9485 O   0  0  0  0  0  0  0  0  0  0  0  0
  2  3  2  0
  2  1  1  0
  4  2  1  0
  5  4  1  0
  5  6  1  6
  5  7  1  0
  7  8  2  0
 10  9  1  1
 10 12  1  0
 11  7  1  0
 11 10  1  0
 12 14  1  0
 13 12  2  0
 14 15  1  0
 14 18  1  0
 15 16  1  0
 16 17  1  0
 18 17  1  0
 19 20  1  0
 18 19  1  1
 21 19  2  0
M  END
$$$$
