NAP.pdb
     RDKit          3D

 21 21  0  0  1  0  0  0  0  0999 V2000
    9.7789  -16.8676   17.6364 N   0  0  0  0  0  0  0  0  0  0  0  0
   10.4780  -16.7489   18.8488 C   0  0  0  0  0  0  0  0  0  0  0  0
   11.6043  -17.2744   18.9998 O   0  0  0  0  0  0  0  0  0  0  0  0
    9.9238  -15.9949   20.0207 C   0  0  0  0  0  0  0  0  0  0  0  0
   10.1735  -16.7719   21.2673 C   0  0  2  0  0  0  0  0  0  0  0  0
    9.4681  -18.0577   21.1636 N   0  0  0  0  0  0  0  0  0  0  0  0
    9.6691  -16.0843   22.4642 C   0  0  0  0  0  0  0  0  0  0  0  0
   10.0917  -14.9377   22.7833 O   0  0  0  0  0  0  0  0  0  0  0  0
    7.0789  -16.6909   25.1318 C   0  0  0  0  0  0  0  0  0  0  0  0
    8.3765  -16.0460   24.6162 C   0  0  2  0  0  0  0  0  0  0  0  0
    8.6767  -16.6379   23.3520 N   0  0  0  0  0  0  0  0  0  0  0  0
    9.4079  -16.0270   25.6369 C   0  0  0  0  0  0  0  0  0  0  0  0
   10.4780  -16.7455   25.4042 O   0  0  0  0  0  0  0  0  0  0  0  0
    9.4624  -15.3536   26.8718 N   0  0  0  0  0  0  0  0  0  0  0  0
    8.4683  -14.5665   27.5135 C   0  0  0  0  0  0  0  0  0  0  0  0
    9.2935  -13.3548   27.9696 C   0  0  0  0  0  0  0  0  0  0  0  0
   10.6584  -13.8993   28.2427 C   0  0  0  0  0  0  0  0  0  0  0  0
   10.6082  -15.3157   27.8044 C   0  0  1  0  0  0  0  0  0  0  0  0
   10.3985  -16.2144   28.9497 C   0  0  0  0  0  0  0  0  0  0  0  0
   11.4295  -16.4936   29.8369 O   0  0  0  0  0  0  0  0  0  0  0  0
    9.2903  -16.7596   29.1691 O   0  0  0  0  0  0  0  0  0  0  0  0
  2  3  2  0
  2  1  1  0
  4  2  1  0
  5  4  1  0
  5  6  1  6
  5  7  1  0
  7  8  2  0
 10  9  1  1
 10 12  1  0
 11  7  1  0
 11 10  1  0
 12 14  1  0
 13 12  2  0
 14 15  1  0
 14 18  1  0
 15 16  1  0
 16 17  1  0
 18 17  1  0
 19 20  1  0
 18 19  1  1
 21 19  2  0
M  END
$$$$
