NAP.pdb
     RDKit          3D

 21 21  0  0  1  0  0  0  0  0999 V2000
    7.3110  -21.4404   27.6349 N   0  0  0  0  0  0  0  0  0  0  0  0
    6.9283  -20.4545   26.7107 C   0  0  0  0  0  0  0  0  0  0  0  0
    6.1433  -20.7182   25.7717 O   0  0  0  0  0  0  0  0  0  0  0  0
    7.4310  -19.0439   26.7924 C   0  0  0  0  0  0  0  0  0  0  0  0
    8.2700  -18.7514   25.5963 C   0  0  2  0  0  0  0  0  0  0  0  0
    9.5852  -19.3809   25.7849 N   0  0  0  0  0  0  0  0  0  0  0  0
    8.4904  -17.3108   25.4078 C   0  0  0  0  0  0  0  0  0  0  0  0
    9.0168  -16.6080   26.3158 O   0  0  0  0  0  0  0  0  0  0  0  0
    7.8176  -14.7617   22.7020 C   0  0  0  0  0  0  0  0  0  0  0  0
    8.1279  -15.1665   24.1530 C   0  0  2  0  0  0  0  0  0  0  0  0
    8.1392  -16.5933   24.2072 N   0  0  0  0  0  0  0  0  0  0  0  0
    7.3011  -14.4417   25.1001 C   0  0  0  0  0  0  0  0  0  0  0  0
    6.3657  -15.1276   25.7085 O   0  0  0  0  0  0  0  0  0  0  0  0
    7.3263  -13.0898   25.4912 N   0  0  0  0  0  0  0  0  0  0  0  0
    8.0580  -12.0050   24.9369 C   0  0  0  0  0  0  0  0  0  0  0  0
    8.5980  -11.3284   26.2049 C   0  0  0  0  0  0  0  0  0  0  0  0
    7.5563  -11.5774   27.2475 C   0  0  0  0  0  0  0  0  0  0  0  0
    6.5703  -12.4812   26.6058 C   0  0  1  0  0  0  0  0  0  0  0  0
    5.4055  -11.7280   26.1166 C   0  0  0  0  0  0  0  0  0  0  0  0
    4.4081  -11.3098   26.9875 O   0  0  0  0  0  0  0  0  0  0  0  0
    5.2676  -11.4358   24.9045 O   0  0  0  0  0  0  0  0  0  0  0  0
  2  3  2  0
  2  1  1  0
  4  2  1  0
  5  4  1  0
  5  6  1  1
  5  7  1  0
  7  8  2  0
 10  9  1  6
 10 12  1  0
 11  7  1  0
 11 10  1  0
 12 14  1  0
 13 12  2  0
 14 15  1  0
 14 18  1  0
 15 16  1  0
 16 17  1  0
 18 17  1  0
 19 20  1  0
 18 19  1  6
 21 19  2  0
M  END
$$$$
