NAP.pdb
     RDKit          3D

 21 21  0  0  1  0  0  0  0  0999 V2000
   11.5797  -19.1678   20.2521 N   0  0  0  0  0  0  0  0  0  0  0  0
   11.7318  -17.7777   20.1208 C   0  0  0  0  0  0  0  0  0  0  0  0
   12.5224  -17.2901   19.2813 O   0  0  0  0  0  0  0  0  0  0  0  0
   10.9655  -16.8061   20.9682 C   0  0  0  0  0  0  0  0  0  0  0  0
    9.5337  -17.2160   21.0126 C   0  0  2  0  0  0  0  0  0  0  0  0
    8.9380  -16.9709   19.6910 N   0  0  0  0  0  0  0  0  0  0  0  0
    8.7624  -16.4442   21.9970 C   0  0  0  0  0  0  0  0  0  0  0  0
    8.6658  -15.1879   21.9089 O   0  0  0  0  0  0  0  0  0  0  0  0
    6.4848  -17.1913   24.9023 C   0  0  0  0  0  0  0  0  0  0  0  0
    7.3631  -16.2404   24.0716 C   0  0  2  0  0  0  0  0  0  0  0  0
    8.0670  -17.0328   23.1148 N   0  0  0  0  0  0  0  0  0  0  0  0
    8.1205  -15.3354   24.9161 C   0  0  0  0  0  0  0  0  0  0  0  0
    9.4239  -15.3680   24.7915 O   0  0  0  0  0  0  0  0  0  0  0  0
    7.6888  -14.4012   25.8764 N   0  0  0  0  0  0  0  0  0  0  0  0
    6.3780  -14.1524   26.3656 C   0  0  0  0  0  0  0  0  0  0  0  0
    6.3330  -12.6180   26.3358 C   0  0  0  0  0  0  0  0  0  0  0  0
    7.7403  -12.1864   26.5954 C   0  0  0  0  0  0  0  0  0  0  0  0
    8.5356  -13.4386   26.6116 C   0  0  1  0  0  0  0  0  0  0  0  0
    8.7851  -13.8865   27.9902 C   0  0  0  0  0  0  0  0  0  0  0  0
    8.1486  -15.0091   28.5028 O   0  0  0  0  0  0  0  0  0  0  0  0
    9.5754  -13.2783   28.7511 O   0  0  0  0  0  0  0  0  0  0  0  0
  2  3  2  0
  2  1  1  0
  4  2  1  0
  5  4  1  0
  5  6  1  6
  5  7  1  0
  7  8  2  0
 10  9  1  1
 10 12  1  0
 11  7  1  0
 11 10  1  0
 12 14  1  0
 13 12  2  0
 14 15  1  0
 14 18  1  0
 15 16  1  0
 16 17  1  0
 18 17  1  0
 19 20  1  0
 18 19  1  1
 21 19  2  0
M  END
$$$$
