NAP.pdb
     RDKit          3D

 21 21  0  0  1  0  0  0  0  0999 V2000
    8.6383  -12.5244   17.4649 N   0  0  0  0  0  0  0  0  0  0  0  0
    8.0554  -13.7371   17.8679 C   0  0  0  0  0  0  0  0  0  0  0  0
    8.1231  -14.7583   17.1467 O   0  0  0  0  0  0  0  0  0  0  0  0
    7.3259  -13.8795   19.1705 C   0  0  0  0  0  0  0  0  0  0  0  0
    8.2790  -14.3391   20.2195 C   0  0  2  0  0  0  0  0  0  0  0  0
    8.6595  -15.7286   19.9264 N   0  0  0  0  0  0  0  0  0  0  0  0
    7.6841  -14.3158   21.5631 C   0  0  0  0  0  0  0  0  0  0  0  0
    7.3498  -13.2269   22.1088 O   0  0  0  0  0  0  0  0  0  0  0  0
    6.5968  -16.8345   24.1505 C   0  0  0  0  0  0  0  0  0  0  0  0
    7.0221  -15.4211   23.7180 C   0  0  2  0  0  0  0  0  0  0  0  0
    7.4343  -15.4961   22.3530 N   0  0  0  0  0  0  0  0  0  0  0  0
    7.9199  -14.8129   24.6824 C   0  0  0  0  0  0  0  0  0  0  0  0
    9.2013  -14.8907   24.4225 O   0  0  0  0  0  0  0  0  0  0  0  0
    7.6488  -14.1350   25.8858 N   0  0  0  0  0  0  0  0  0  0  0  0
    6.3981  -13.8512   26.4980 C   0  0  0  0  0  0  0  0  0  0  0  0
    6.5855  -12.3799   26.8948 C   0  0  0  0  0  0  0  0  0  0  0  0
    8.0456  -12.2419   27.1834 C   0  0  0  0  0  0  0  0  0  0  0  0
    8.6423  -13.5474   26.8087 C   0  0  1  0  0  0  0  0  0  0  0  0
    8.8415  -14.3952   27.9941 C   0  0  0  0  0  0  0  0  0  0  0  0
    9.8931  -14.1623   28.8705 O   0  0  0  0  0  0  0  0  0  0  0  0
    8.0766  -15.3536   28.2586 O   0  0  0  0  0  0  0  0  0  0  0  0
  2  3  2  0
  2  1  1  0
  4  2  1  0
  5  4  1  0
  5  6  1  6
  5  7  1  0
  7  8  2  0
 10  9  1  1
 10 12  1  0
 11  7  1  0
 11 10  1  0
 12 14  1  0
 13 12  2  0
 14 15  1  0
 14 18  1  0
 15 16  1  0
 16 17  1  0
 18 17  1  0
 19 20  1  0
 18 19  1  1
 21 19  2  0
M  END
$$$$
