NAP.pdb
     RDKit          3D

 21 21  0  0  1  0  0  0  0  0999 V2000
    8.0094  -13.2775   16.7802 N   0  0  0  0  0  0  0  0  0  0  0  0
    8.6687  -13.5637   17.9870 C   0  0  0  0  0  0  0  0  0  0  0  0
    9.8796  -13.8818   18.0026 O   0  0  0  0  0  0  0  0  0  0  0  0
    7.9702  -13.5062   19.3128 C   0  0  0  0  0  0  0  0  0  0  0  0
    8.0980  -14.8257   19.9930 C   0  0  2  0  0  0  0  0  0  0  0  0
    7.4060  -15.8372   19.1808 N   0  0  0  0  0  0  0  0  0  0  0  0
    7.4801  -14.8286   21.3263 C   0  0  0  0  0  0  0  0  0  0  0  0
    6.4637  -14.1211   21.5748 O   0  0  0  0  0  0  0  0  0  0  0  0
    7.0319  -16.9587   24.1827 C   0  0  0  0  0  0  0  0  0  0  0  0
    7.3790  -15.5287   23.7353 C   0  0  2  0  0  0  0  0  0  0  0  0
    7.9615  -15.6157   22.4346 N   0  0  0  0  0  0  0  0  0  0  0  0
    8.0929  -14.8022   24.7690 C   0  0  0  0  0  0  0  0  0  0  0  0
    9.3926  -14.7134   24.6338 O   0  0  0  0  0  0  0  0  0  0  0  0
    7.6210  -14.1577   25.9281 N   0  0  0  0  0  0  0  0  0  0  0  0
    6.2879  -14.0110   26.3980 C   0  0  0  0  0  0  0  0  0  0  0  0
    6.2715  -12.5282   26.7956 C   0  0  0  0  0  0  0  0  0  0  0  0
    7.6682  -12.2329   27.2388 C   0  0  0  0  0  0  0  0  0  0  0  0
    8.4392  -13.4661   26.9462 C   0  0  1  0  0  0  0  0  0  0  0  0
    8.5982  -14.2876   28.1559 C   0  0  0  0  0  0  0  0  0  0  0  0
    9.5287  -13.9517   29.1303 O   0  0  0  0  0  0  0  0  0  0  0  0
    7.9061  -15.3148   28.3543 O   0  0  0  0  0  0  0  0  0  0  0  0
  2  3  2  0
  2  1  1  0
  4  2  1  0
  5  4  1  0
  5  6  1  6
  5  7  1  0
  7  8  2  0
 10  9  1  1
 10 12  1  0
 11  7  1  0
 11 10  1  0
 12 14  1  0
 13 12  2  0
 14 15  1  0
 14 18  1  0
 15 16  1  0
 16 17  1  0
 18 17  1  0
 19 20  1  0
 18 19  1  1
 21 19  2  0
M  END
$$$$
