NAP.pdb
     RDKit          3D

 21 21  0  0  1  0  0  0  0  0999 V2000
   11.7062  -21.6248   22.3329 N   0  0  0  0  0  0  0  0  0  0  0  0
   10.8586  -20.7858   23.0749 C   0  0  0  0  0  0  0  0  0  0  0  0
   10.1937  -21.2279   24.0393 O   0  0  0  0  0  0  0  0  0  0  0  0
   10.7012  -19.3280   22.7600 C   0  0  0  0  0  0  0  0  0  0  0  0
    9.2757  -19.0482   22.4287 C   0  0  2  0  0  0  0  0  0  0  0  0
    9.2065  -18.5624   21.0428 N   0  0  0  0  0  0  0  0  0  0  0  0
    8.6953  -18.0103   23.2922 C   0  0  0  0  0  0  0  0  0  0  0  0
    8.9552  -16.7883   23.1069 O   0  0  0  0  0  0  0  0  0  0  0  0
    6.2568  -17.8778   26.1711 C   0  0  0  0  0  0  0  0  0  0  0  0
    7.3129  -17.2505   25.2455 C   0  0  2  0  0  0  0  0  0  0  0  0
    7.8036  -18.2846   24.3919 N   0  0  0  0  0  0  0  0  0  0  0  0
    8.2691  -16.4505   25.9882 C   0  0  0  0  0  0  0  0  0  0  0  0
    9.5040  -16.8860   26.0153 O   0  0  0  0  0  0  0  0  0  0  0  0
    8.0983  -15.2532   26.7085 N   0  0  0  0  0  0  0  0  0  0  0  0
    6.9023  -14.5515   27.0192 C   0  0  0  0  0  0  0  0  0  0  0  0
    7.3084  -13.1074   26.6924 C   0  0  0  0  0  0  0  0  0  0  0  0
    8.7712  -13.0415   26.9922 C   0  0  0  0  0  0  0  0  0  0  0  0
    9.1652  -14.4337   27.3202 C   0  0  1  0  0  0  0  0  0  0  0  0
    9.2284  -14.6341   28.7760 C   0  0  0  0  0  0  0  0  0  0  0  0
   10.2744  -14.1109   29.5245 O   0  0  0  0  0  0  0  0  0  0  0  0
    8.3483  -15.2797   29.3942 O   0  0  0  0  0  0  0  0  0  0  0  0
  2  3  2  0
  2  1  1  0
  4  2  1  0
  5  4  1  0
  5  6  1  6
  5  7  1  0
  7  8  2  0
 10  9  1  1
 10 12  1  0
 11  7  1  0
 11 10  1  0
 12 14  1  0
 13 12  2  0
 14 15  1  0
 14 18  1  0
 15 16  1  0
 16 17  1  0
 18 17  1  0
 19 20  1  0
 18 19  1  1
 21 19  2  0
M  END
$$$$
