NAP.pdb
     RDKit          3D

 21 21  0  0  1  0  0  0  0  0999 V2000
    8.7800  -12.8728   16.9296 N   0  0  0  0  0  0  0  0  0  0  0  0
    8.3017  -13.8387   17.8301 C   0  0  0  0  0  0  0  0  0  0  0  0
    8.3409  -15.0586   17.5509 O   0  0  0  0  0  0  0  0  0  0  0  0
    7.7225  -13.4711   19.1637 C   0  0  0  0  0  0  0  0  0  0  0  0
    8.5478  -14.0827   20.2431 C   0  0  2  0  0  0  0  0  0  0  0  0
    8.8416  -15.4748   19.8723 N   0  0  0  0  0  0  0  0  0  0  0  0
    7.8485  -14.1057   21.5353 C   0  0  0  0  0  0  0  0  0  0  0  0
    7.5192  -13.0340   22.1170 O   0  0  0  0  0  0  0  0  0  0  0  0
    6.5375  -16.7231   23.9182 C   0  0  0  0  0  0  0  0  0  0  0  0
    7.0129  -15.3001   23.5796 C   0  0  2  0  0  0  0  0  0  0  0  0
    7.4848  -15.3148   22.2320 N   0  0  0  0  0  0  0  0  0  0  0  0
    7.8792  -14.7643   24.6133 C   0  0  0  0  0  0  0  0  0  0  0  0
    9.1685  -14.8348   24.3940 O   0  0  0  0  0  0  0  0  0  0  0  0
    7.5692  -14.1654   25.8488 N   0  0  0  0  0  0  0  0  0  0  0  0
    6.3051  -13.9944   26.4752 C   0  0  0  0  0  0  0  0  0  0  0  0
    6.3975  -12.5353   26.9438 C   0  0  0  0  0  0  0  0  0  0  0  0
    7.8466  -12.3163   27.2377 C   0  0  0  0  0  0  0  0  0  0  0  0
    8.5259  -13.5600   26.7988 C   0  0  1  0  0  0  0  0  0  0  0  0
    8.7847  -14.4501   27.9408 C   0  0  0  0  0  0  0  0  0  0  0  0
    9.8128  -14.1839   28.8354 O   0  0  0  0  0  0  0  0  0  0  0  0
    8.0936  -15.4758   28.1506 O   0  0  0  0  0  0  0  0  0  0  0  0
  2  3  2  0
  2  1  1  0
  4  2  1  0
  5  4  1  0
  5  6  1  6
  5  7  1  0
  7  8  2  0
 10  9  1  1
 10 12  1  0
 11  7  1  0
 11 10  1  0
 12 14  1  0
 13 12  2  0
 14 15  1  0
 14 18  1  0
 15 16  1  0
 16 17  1  0
 18 17  1  0
 19 20  1  0
 18 19  1  1
 21 19  2  0
M  END
$$$$
