NAP.pdb
     RDKit          3D

 21 21  0  0  1  0  0  0  0  0999 V2000
    7.2377  -22.6507   23.5884 N   0  0  0  0  0  0  0  0  0  0  0  0
    7.1575  -21.4049   24.2321 C   0  0  0  0  0  0  0  0  0  0  0  0
    7.0243  -21.3264   25.4745 O   0  0  0  0  0  0  0  0  0  0  0  0
    7.2256  -20.1100   23.4787 C   0  0  0  0  0  0  0  0  0  0  0  0
    5.9926  -19.3186   23.7497 C   0  0  2  0  0  0  0  0  0  0  0  0
    4.8829  -19.9101   22.9878 N   0  0  0  0  0  0  0  0  0  0  0  0
    6.1243  -17.9174   23.3265 C   0  0  0  0  0  0  0  0  0  0  0  0
    5.9498  -17.5818   22.1214 O   0  0  0  0  0  0  0  0  0  0  0  0
    7.1673  -14.6764   24.9656 C   0  0  0  0  0  0  0  0  0  0  0  0
    6.8406  -15.5470   23.7405 C   0  0  2  0  0  0  0  0  0  0  0  0
    6.4517  -16.8343   24.2204 N   0  0  0  0  0  0  0  0  0  0  0  0
    7.8820  -15.4666   22.7329 C   0  0  0  0  0  0  0  0  0  0  0  0
    8.5907  -16.5497   22.5329 O   0  0  0  0  0  0  0  0  0  0  0  0
    8.2785  -14.3968   21.9085 N   0  0  0  0  0  0  0  0  0  0  0  0
    7.9607  -13.0154   22.0101 C   0  0  0  0  0  0  0  0  0  0  0  0
    7.6151  -12.6792   20.5524 C   0  0  0  0  0  0  0  0  0  0  0  0
    8.4752  -13.5869   19.7336 C   0  0  0  0  0  0  0  0  0  0  0  0
    9.1425  -14.4799   20.7125 C   0  0  1  0  0  0  0  0  0  0  0  0
   10.5079  -14.0164   21.0030 C   0  0  0  0  0  0  0  0  0  0  0  0
   10.8370  -13.5000   22.2493 O   0  0  0  0  0  0  0  0  0  0  0  0
   11.4213  -14.0684   20.1448 O   0  0  0  0  0  0  0  0  0  0  0  0
  2  3  2  0
  2  1  1  0
  4  2  1  0
  5  4  1  0
  5  6  1  6
  5  7  1  0
  7  8  2  0
 10  9  1  1
 10 12  1  0
 11  7  1  0
 11 10  1  0
 12 14  1  0
 13 12  2  0
 14 15  1  0
 14 18  1  0
 15 16  1  0
 16 17  1  0
 18 17  1  0
 19 20  1  0
 18 19  1  1
 21 19  2  0
M  END
$$$$
