NAP.pdb
     RDKit          3D

 21 21  0  0  1  0  0  0  0  0999 V2000
    9.2928  -12.4971   17.9123 N   0  0  0  0  0  0  0  0  0  0  0  0
    8.4596  -13.6084   17.7036 C   0  0  0  0  0  0  0  0  0  0  0  0
    8.4759  -14.2343   16.6194 O   0  0  0  0  0  0  0  0  0  0  0  0
    7.5120  -14.1056   18.7543 C   0  0  0  0  0  0  0  0  0  0  0  0
    8.1726  -15.1855   19.5401 C   0  0  2  0  0  0  0  0  0  0  0  0
    7.9941  -16.4575   18.8248 N   0  0  0  0  0  0  0  0  0  0  0  0
    7.5844  -15.3422   20.8777 C   0  0  0  0  0  0  0  0  0  0  0  0
    6.3322  -15.3824   21.0381 O   0  0  0  0  0  0  0  0  0  0  0  0
    7.5513  -16.8831   23.8356 C   0  0  0  0  0  0  0  0  0  0  0  0
    7.7541  -15.4278   23.3812 C   0  0  2  0  0  0  0  0  0  0  0  0
    8.3588  -15.4625   22.0882 N   0  0  0  0  0  0  0  0  0  0  0  0
    8.3758  -14.6244   24.4176 C   0  0  0  0  0  0  0  0  0  0  0  0
    9.6611  -14.4033   24.2978 O   0  0  0  0  0  0  0  0  0  0  0  0
    7.8249  -14.0238   25.5653 N   0  0  0  0  0  0  0  0  0  0  0  0
    6.4690  -13.9598   25.9860 C   0  0  0  0  0  0  0  0  0  0  0  0
    6.3526  -12.4859   26.3997 C   0  0  0  0  0  0  0  0  0  0  0  0
    7.7125  -12.1175   26.8989 C   0  0  0  0  0  0  0  0  0  0  0  0
    8.5635  -13.3006   26.6215 C   0  0  1  0  0  0  0  0  0  0  0  0
    8.7244  -14.1281   27.8269 C   0  0  0  0  0  0  0  0  0  0  0  0
    9.6080  -13.7605   28.8330 O   0  0  0  0  0  0  0  0  0  0  0  0
    8.0761  -15.1890   27.9929 O   0  0  0  0  0  0  0  0  0  0  0  0
  2  3  2  0
  2  1  1  0
  4  2  1  0
  5  4  1  0
  5  6  1  6
  5  7  1  0
  7  8  2  0
 10  9  1  1
 10 12  1  0
 11  7  1  0
 11 10  1  0
 12 14  1  0
 13 12  2  0
 14 15  1  0
 14 18  1  0
 15 16  1  0
 16 17  1  0
 18 17  1  0
 19 20  1  0
 18 19  1  1
 21 19  2  0
M  END
$$$$
