NAP.pdb
     RDKit          3D

 21 21  0  0  1  0  0  0  0  0999 V2000
    8.9520  -12.7681   17.4461 N   0  0  0  0  0  0  0  0  0  0  0  0
    8.2249  -13.9040   17.8385 C   0  0  0  0  0  0  0  0  0  0  0  0
    8.1596  -14.9156   17.1037 O   0  0  0  0  0  0  0  0  0  0  0  0
    7.4922  -13.9720   19.1453 C   0  0  0  0  0  0  0  0  0  0  0  0
    8.4167  -14.4724   20.2012 C   0  0  2  0  0  0  0  0  0  0  0  0
    8.7349  -15.8786   19.9132 N   0  0  0  0  0  0  0  0  0  0  0  0
    7.8150  -14.4190   21.5409 C   0  0  0  0  0  0  0  0  0  0  0  0
    7.4941  -13.3166   22.0674 O   0  0  0  0  0  0  0  0  0  0  0  0
    6.6354  -16.8886   24.1352 C   0  0  0  0  0  0  0  0  0  0  0  0
    7.0603  -15.4798   23.6877 C   0  0  2  0  0  0  0  0  0  0  0  0
    7.5433  -15.5827   22.3480 N   0  0  0  0  0  0  0  0  0  0  0  0
    7.8977  -14.8320   24.6803 C   0  0  0  0  0  0  0  0  0  0  0  0
    9.1890  -14.8511   24.4623 O   0  0  0  0  0  0  0  0  0  0  0  0
    7.5570  -14.1679   25.8738 N   0  0  0  0  0  0  0  0  0  0  0  0
    6.2870  -14.0273   26.4956 C   0  0  0  0  0  0  0  0  0  0  0  0
    6.2959  -12.5363   26.8618 C   0  0  0  0  0  0  0  0  0  0  0  0
    7.7307  -12.2143   27.1299 C   0  0  0  0  0  0  0  0  0  0  0  0
    8.4797  -13.4441   26.7731 C   0  0  1  0  0  0  0  0  0  0  0  0
    8.7931  -14.2366   27.9720 C   0  0  0  0  0  0  0  0  0  0  0  0
    8.1344  -15.4313   28.2308 O   0  0  0  0  0  0  0  0  0  0  0  0
    9.6597  -13.8687   28.8009 O   0  0  0  0  0  0  0  0  0  0  0  0
  2  3  2  0
  2  1  1  0
  4  2  1  0
  5  4  1  0
  5  6  1  6
  5  7  1  0
  7  8  2  0
 10  9  1  1
 10 12  1  0
 11  7  1  0
 11 10  1  0
 12 14  1  0
 13 12  2  0
 14 15  1  0
 14 18  1  0
 15 16  1  0
 16 17  1  0
 18 17  1  0
 19 20  1  0
 18 19  1  1
 21 19  2  0
M  END
$$$$
