NAP.pdb
     RDKit          3D

 21 21  0  0  1  0  0  0  0  0999 V2000
   14.1429  -14.7109   19.2729 N   0  0  0  0  0  0  0  0  0  0  0  0
   13.0077  -15.4037   19.7247 C   0  0  0  0  0  0  0  0  0  0  0  0
   12.7020  -16.5221   19.2520 O   0  0  0  0  0  0  0  0  0  0  0  0
   12.1048  -14.8519   20.7875 C   0  0  0  0  0  0  0  0  0  0  0  0
   10.7438  -14.6455   20.2171 C   0  0  2  0  0  0  0  0  0  0  0  0
   10.8346  -13.6405   19.1478 N   0  0  0  0  0  0  0  0  0  0  0  0
    9.7897  -14.1452   21.2165 C   0  0  0  0  0  0  0  0  0  0  0  0
   10.0427  -13.1130   21.8992 O   0  0  0  0  0  0  0  0  0  0  0  0
    6.2928  -14.9803   22.3475 C   0  0  0  0  0  0  0  0  0  0  0  0
    7.6560  -14.2923   22.5317 C   0  0  2  0  0  0  0  0  0  0  0  0
    8.5188  -14.7660   21.4973 N   0  0  0  0  0  0  0  0  0  0  0  0
    8.1133  -14.3682   23.9068 C   0  0  0  0  0  0  0  0  0  0  0  0
    9.2394  -15.0030   24.1173 O   0  0  0  0  0  0  0  0  0  0  0  0
    7.5419  -13.8663   25.0913 N   0  0  0  0  0  0  0  0  0  0  0  0
    6.2867  -13.2292   25.2865 C   0  0  0  0  0  0  0  0  0  0  0  0
    6.6864  -12.0469   26.1807 C   0  0  0  0  0  0  0  0  0  0  0  0
    7.8407  -12.5474   26.9877 C   0  0  0  0  0  0  0  0  0  0  0  0
    8.1455  -13.8920   26.4400 C   0  0  1  0  0  0  0  0  0  0  0  0
    7.5513  -14.9478   27.2743 C   0  0  0  0  0  0  0  0  0  0  0  0
    8.1692  -15.3652   28.4456 O   0  0  0  0  0  0  0  0  0  0  0  0
    6.4728  -15.5081   26.9641 O   0  0  0  0  0  0  0  0  0  0  0  0
  2  3  2  0
  2  1  1  0
  4  2  1  0
  5  4  1  0
  5  6  1  6
  5  7  1  0
  7  8  2  0
 10  9  1  1
 10 12  1  0
 11  7  1  0
 11 10  1  0
 12 14  1  0
 13 12  2  0
 14 15  1  0
 14 18  1  0
 15 16  1  0
 16 17  1  0
 18 17  1  0
 19 20  1  0
 18 19  1  1
 21 19  2  0
M  END
$$$$
