IKG.pdb
     RDKit          3D

 22 21  0  0  1  0  0  0  0  0999 V2000
    8.5596  -12.3635   27.2859 C   0  0  0  0  0  0  0  0  0  0  0  0
    8.1273  -13.7521   26.8073 C   0  0  0  0  0  0  0  0  0  0  0  0
    6.8470  -13.6467   26.0137 C   0  0  2  0  0  0  0  0  0  0  0  0
    5.7551  -13.0647   26.8485 C   0  0  0  0  0  0  0  0  0  0  0  0
    6.4582  -14.9336   25.3327 C   0  0  2  0  0  0  0  0  0  0  0  0
    6.4040  -16.0245   26.3006 N   0  0  0  0  0  0  0  0  0  0  0  0
    7.3291  -15.3321   24.2288 C   0  0  0  0  0  0  0  0  0  0  0  0
    7.7923  -16.5049   24.1130 O   0  0  0  0  0  0  0  0  0  0  0  0
    7.6950  -14.3965   23.2239 N   0  0  0  0  0  0  0  0  0  0  0  0
    8.6069  -14.7387   22.1142 C   0  0  1  0  0  0  0  0  0  0  0  0
    8.5915  -13.6362   21.0913 C   0  0  0  0  0  0  0  0  0  0  0  0
    7.6277  -13.8267   19.9601 C   0  0  0  0  0  0  0  0  0  0  0  0
    8.3676  -13.7284   18.6169 C   0  0  0  0  0  0  0  0  0  0  0  0
    7.3976  -13.9226   17.4707 C   0  0  0  0  0  0  0  0  0  0  0  0
    8.0883  -13.6850   16.2180 N   0  0  0  0  0  0  0  0  0  0  0  0
    9.9629  -14.9900   22.6370 C   0  0  0  0  0  0  0  0  0  0  0  0
   10.4761  -14.3337   23.5635 O   0  0  0  0  0  0  0  0  0  0  0  0
   10.8026  -16.0349   22.0984 N   0  0  0  0  0  0  0  0  0  0  0  0
   12.2200  -16.0773   22.3372 C   0  0  0  0  0  0  0  0  0  0  0  0
   12.5879  -16.7828   23.5673 C   0  0  0  0  0  0  0  0  0  0  0  0
   13.9303  -16.8579   23.9067 O   0  0  0  0  0  0  0  0  0  0  0  0
   11.7624  -17.3282   24.3406 O   0  0  0  0  0  0  0  0  0  0  0  0
  2  1  1  0
  3  2  1  0
  3  5  1  0
  3  4  1  1
  5  6  1  1
  7  5  1  0
  7  8  2  0
  9  7  1  0
 10  9  1  0
 10 11  1  6
 12 11  1  0
 12 13  1  0
 13 14  1  0
 14 15  1  0
 16 10  1  0
 17 16  2  0
 18 16  1  0
 19 20  1  0
 19 18  1  0
 20 21  1  0
 22 20  2  0
M  END
$$$$
