IKG.pdb
     RDKit          3D

 22 21  0  0  1  0  0  0  0  0999 V2000
    7.0849  -12.2069   28.1087 C   0  0  0  0  0  0  0  0  0  0  0  0
    6.3490  -13.2737   27.2934 C   0  0  0  0  0  0  0  0  0  0  0  0
    7.1930  -13.6913   26.1130 C   0  0  2  0  0  0  0  0  0  0  0  0
    7.6915  -12.4956   25.3714 C   0  0  0  0  0  0  0  0  0  0  0  0
    6.5199  -14.7072   25.2265 C   0  0  2  0  0  0  0  0  0  0  0  0
    6.2191  -15.9199   25.9807 N   0  0  0  0  0  0  0  0  0  0  0  0
    7.2757  -15.0765   24.0313 C   0  0  0  0  0  0  0  0  0  0  0  0
    7.8702  -16.1885   23.9154 O   0  0  0  0  0  0  0  0  0  0  0  0
    7.3721  -14.1806   22.9327 N   0  0  0  0  0  0  0  0  0  0  0  0
    8.1565  -14.4912   21.7210 C   0  0  1  0  0  0  0  0  0  0  0  0
    7.9707  -13.3967   20.7063 C   0  0  0  0  0  0  0  0  0  0  0  0
    7.3614  -13.8261   19.4067 C   0  0  0  0  0  0  0  0  0  0  0  0
    8.4610  -14.0315   18.3530 C   0  0  0  0  0  0  0  0  0  0  0  0
    7.8445  -14.3939   17.0184 C   0  0  0  0  0  0  0  0  0  0  0  0
    8.8932  -14.4935   16.0218 N   0  0  0  0  0  0  0  0  0  0  0  0
    9.5753  -14.6823   22.0757 C   0  0  0  0  0  0  0  0  0  0  0  0
   10.1727  -13.9897   22.9217 O   0  0  0  0  0  0  0  0  0  0  0  0
   10.3822  -15.7061   21.4530 N   0  0  0  0  0  0  0  0  0  0  0  0
   11.7817  -15.8607   21.7449 C   0  0  0  0  0  0  0  0  0  0  0  0
   12.4607  -16.8238   20.8744 C   0  0  0  0  0  0  0  0  0  0  0  0
   13.8338  -16.9709   21.0004 O   0  0  0  0  0  0  0  0  0  0  0  0
   11.8778  -17.5302   20.0153 O   0  0  0  0  0  0  0  0  0  0  0  0
  2  1  1  0
  3  2  1  0
  3  5  1  0
  3  4  1  6
  5  6  1  1
  7  5  1  0
  7  8  2  0
  9  7  1  0
 10  9  1  0
 10 11  1  6
 12 11  1  0
 12 13  1  0
 13 14  1  0
 14 15  1  0
 16 10  1  0
 17 16  2  0
 18 16  1  0
 19 20  1  0
 19 18  1  0
 20 21  1  0
 22 20  2  0
M  END
$$$$
