IKG.pdb
     RDKit          3D

 22 21  0  0  1  0  0  0  0  0999 V2000
    6.5459  -11.3914   27.6787 C   0  0  0  0  0  0  0  0  0  0  0  0
    5.9741  -12.7333   27.2133 C   0  0  0  0  0  0  0  0  0  0  0  0
    6.9297  -13.3917   26.2472 C   0  0  2  0  0  0  0  0  0  0  0  0
    7.4257  -12.4065   25.2415 C   0  0  0  0  0  0  0  0  0  0  0  0
    6.3814  -14.6523   25.6297 C   0  0  2  0  0  0  0  0  0  0  0  0
    6.0429  -15.6209   26.6675 N   0  0  0  0  0  0  0  0  0  0  0  0
    7.2654  -15.2965   24.6605 C   0  0  0  0  0  0  0  0  0  0  0  0
    8.2024  -16.0763   25.0032 O   0  0  0  0  0  0  0  0  0  0  0  0
    7.1008  -15.0655   23.2682 N   0  0  0  0  0  0  0  0  0  0  0  0
    7.9542  -15.7095   22.2498 C   0  0  1  0  0  0  0  0  0  0  0  0
    7.4860  -15.3133   20.8766 C   0  0  0  0  0  0  0  0  0  0  0  0
    8.1368  -16.0454   19.7429 C   0  0  0  0  0  0  0  0  0  0  0  0
    7.6104  -17.4876   19.6772 C   0  0  0  0  0  0  0  0  0  0  0  0
    8.2531  -18.2261   18.5222 C   0  0  0  0  0  0  0  0  0  0  0  0
    8.8034  -19.4776   19.0055 N   0  0  0  0  0  0  0  0  0  0  0  0
    9.3666  -15.3514   22.4780 C   0  0  0  0  0  0  0  0  0  0  0  0
    9.7540  -14.1894   22.7059 O   0  0  0  0  0  0  0  0  0  0  0  0
   10.4154  -16.3446   22.4518 N   0  0  0  0  0  0  0  0  0  0  0  0
   11.8031  -15.9965   22.5953 C   0  0  0  0  0  0  0  0  0  0  0  0
   12.7127  -17.1359   22.4517 C   0  0  0  0  0  0  0  0  0  0  0  0
   14.0775  -16.9024   22.5285 O   0  0  0  0  0  0  0  0  0  0  0  0
   12.3361  -18.3187   22.2621 O   0  0  0  0  0  0  0  0  0  0  0  0
  2  1  1  0
  3  2  1  0
  3  5  1  0
  3  4  1  6
  5  6  1  1
  7  5  1  0
  7  8  2  0
  9  7  1  0
 10  9  1  0
 10 11  1  6
 12 11  1  0
 12 13  1  0
 13 14  1  0
 14 15  1  0
 16 10  1  0
 17 16  2  0
 18 16  1  0
 19 20  1  0
 19 18  1  0
 20 21  1  0
 22 20  2  0
M  END
$$$$
