IKG.pdb
     RDKit          3D

 22 21  0  0  1  0  0  0  0  0999 V2000
    6.7847  -12.5574   19.5052 C   0  0  0  0  0  0  0  0  0  0  0  0
    7.3588  -13.9768   19.4969 C   0  0  0  0  0  0  0  0  0  0  0  0
    8.4694  -14.0878   20.5139 C   0  0  2  0  0  0  0  0  0  0  0  0
    9.5198  -13.0574   20.2628 C   0  0  0  0  0  0  0  0  0  0  0  0
    9.0207  -15.4840   20.6469 C   0  0  2  0  0  0  0  0  0  0  0  0
    7.9374  -16.4413   20.8467 N   0  0  0  0  0  0  0  0  0  0  0  0
   10.0007  -15.6583   21.7170 C   0  0  0  0  0  0  0  0  0  0  0  0
   11.0906  -15.0149   21.7568 O   0  0  0  0  0  0  0  0  0  0  0  0
    9.7597  -16.5765   22.7743 N   0  0  0  0  0  0  0  0  0  0  0  0
   10.7468  -16.8364   23.8411 C   0  0  1  0  0  0  0  0  0  0  0  0
   10.2185  -17.8957   24.7689 C   0  0  0  0  0  0  0  0  0  0  0  0
   11.1775  -18.3590   25.8227 C   0  0  0  0  0  0  0  0  0  0  0  0
   10.4568  -18.4748   27.1750 C   0  0  0  0  0  0  0  0  0  0  0  0
   11.4300  -18.9108   28.2499 C   0  0  0  0  0  0  0  0  0  0  0  0
   10.7380  -18.9673   29.5230 N   0  0  0  0  0  0  0  0  0  0  0  0
   12.0415  -17.2170   23.2462 C   0  0  0  0  0  0  0  0  0  0  0  0
   13.1362  -17.0569   23.8193 O   0  0  0  0  0  0  0  0  0  0  0  0
   12.1277  -17.8127   21.9328 N   0  0  0  0  0  0  0  0  0  0  0  0
   13.3249  -18.4536   21.4600 C   0  0  0  0  0  0  0  0  0  0  0  0
   14.2963  -17.5260   20.8750 C   0  0  0  0  0  0  0  0  0  0  0  0
   15.4508  -18.0497   20.3130 O   0  0  0  0  0  0  0  0  0  0  0  0
   14.1522  -16.2788   20.8485 O   0  0  0  0  0  0  0  0  0  0  0  0
  2  1  1  0
  3  2  1  0
  3  5  1  0
  3  4  1  6
  5  6  1  1
  7  5  1  0
  7  8  2  0
  9  7  1  0
 10  9  1  0
 10 11  1  1
 12 11  1  0
 12 13  1  0
 13 14  1  0
 14 15  1  0
 16 10  1  0
 17 16  2  0
 18 16  1  0
 19 20  1  0
 19 18  1  0
 20 21  1  0
 22 20  2  0
M  END
$$$$
