IKG.pdb
     RDKit          3D

 22 21  0  0  1  0  0  0  0  0999 V2000
    7.0090  -11.8243   27.7702 C   0  0  0  0  0  0  0  0  0  0  0  0
    6.3079  -13.0460   27.1702 C   0  0  0  0  0  0  0  0  0  0  0  0
    7.1100  -13.5793   26.0073 C   0  0  2  0  0  0  0  0  0  0  0  0
    7.4140  -12.4904   25.0326 C   0  0  0  0  0  0  0  0  0  0  0  0
    6.4985  -14.7998   25.3691 C   0  0  2  0  0  0  0  0  0  0  0  0
    6.2888  -15.8439   26.3670 N   0  0  0  0  0  0  0  0  0  0  0  0
    7.2653  -15.3623   24.2593 C   0  0  0  0  0  0  0  0  0  0  0  0
    7.7752  -16.5207   24.2989 O   0  0  0  0  0  0  0  0  0  0  0  0
    7.4703  -14.6121   23.0701 N   0  0  0  0  0  0  0  0  0  0  0  0
    7.9939  -15.2176   21.8294 C   0  0  1  0  0  0  0  0  0  0  0  0
    7.6650  -14.3322   20.6590 C   0  0  0  0  0  0  0  0  0  0  0  0
    8.1201  -14.8401   19.3250 C   0  0  0  0  0  0  0  0  0  0  0  0
    8.1112  -13.6981   18.2968 C   0  0  0  0  0  0  0  0  0  0  0  0
    8.5704  -14.2071   16.9468 C   0  0  0  0  0  0  0  0  0  0  0  0
    8.4146  -13.1529   15.9632 N   0  0  0  0  0  0  0  0  0  0  0  0
    9.4447  -15.4505   21.9570 C   0  0  0  0  0  0  0  0  0  0  0  0
   10.1473  -15.9317   21.0476 O   0  0  0  0  0  0  0  0  0  0  0  0
   10.1613  -15.1296   23.1697 N   0  0  0  0  0  0  0  0  0  0  0  0
   11.5911  -15.2468   23.2678 C   0  0  0  0  0  0  0  0  0  0  0  0
   12.0609  -16.6296   23.3824 C   0  0  0  0  0  0  0  0  0  0  0  0
   11.1279  -17.6515   23.2917 O   0  0  0  0  0  0  0  0  0  0  0  0
   13.2612  -16.9537   23.5586 O   0  0  0  0  0  0  0  0  0  0  0  0
  2  1  1  0
  3  2  1  0
  3  5  1  0
  3  4  1  6
  5  6  1  1
  7  5  1  0
  7  8  2  0
  9  7  1  0
 10  9  1  0
 10 11  1  6
 12 11  1  0
 12 13  1  0
 13 14  1  0
 14 15  1  0
 16 10  1  0
 17 16  2  0
 18 16  1  0
 19 20  1  0
 19 18  1  0
 20 21  1  0
 22 20  2  0
M  END
$$$$
