IKG.pdb
     RDKit          3D

 22 21  0  0  1  0  0  0  0  0999 V2000
    7.0882  -12.1930   19.5588 C   0  0  0  0  0  0  0  0  0  0  0  0
    7.9589  -13.4521   19.5310 C   0  0  0  0  0  0  0  0  0  0  0  0
    8.0249  -14.0618   20.9109 C   0  0  2  0  0  0  0  0  0  0  0  0
    8.5188  -13.0642   21.9054 C   0  0  0  0  0  0  0  0  0  0  0  0
    8.7742  -15.3686   20.9517 C   0  0  2  0  0  0  0  0  0  0  0  0
    8.2020  -16.3126   19.9971 N   0  0  0  0  0  0  0  0  0  0  0  0
    8.8252  -16.0068   22.2656 C   0  0  0  0  0  0  0  0  0  0  0  0
    9.2730  -15.4188   23.2938 O   0  0  0  0  0  0  0  0  0  0  0  0
    8.3639  -17.3394   22.4393 N   0  0  0  0  0  0  0  0  0  0  0  0
    8.4490  -18.0472   23.7323 C   0  0  1  0  0  0  0  0  0  0  0  0
    7.6070  -19.2923   23.6814 C   0  0  0  0  0  0  0  0  0  0  0  0
    6.1264  -19.0636   23.6802 C   0  0  0  0  0  0  0  0  0  0  0  0
    5.5195  -19.5554   22.3569 C   0  0  0  0  0  0  0  0  0  0  0  0
    4.0192  -19.3511   22.3624 C   0  0  0  0  0  0  0  0  0  0  0  0
    3.4823  -19.7366   21.0717 N   0  0  0  0  0  0  0  0  0  0  0  0
    9.8581  -18.3443   24.0510 C   0  0  0  0  0  0  0  0  0  0  0  0
   10.5938  -19.0455   23.3303 O   0  0  0  0  0  0  0  0  0  0  0  0
   10.4911  -17.8314   25.2440 N   0  0  0  0  0  0  0  0  0  0  0  0
   10.4646  -18.5454   26.4919 C   0  0  0  0  0  0  0  0  0  0  0  0
   11.5313  -19.5410   26.6221 C   0  0  0  0  0  0  0  0  0  0  0  0
   12.5579  -19.2923   27.5205 O   0  0  0  0  0  0  0  0  0  0  0  0
   11.5784  -20.6128   25.9693 O   0  0  0  0  0  0  0  0  0  0  0  0
  2  1  1  0
  3  2  1  0
  3  5  1  0
  3  4  1  1
  5  6  1  6
  7  5  1  0
  7  8  2  0
  9  7  1  0
 10  9  1  0
 10 11  1  6
 12 11  1  0
 12 13  1  0
 13 14  1  0
 14 15  1  0
 16 10  1  0
 17 16  2  0
 18 16  1  0
 19 20  1  0
 19 18  1  0
 20 21  1  0
 22 20  2  0
M  END
$$$$
