IKG.pdb
     RDKit          3D

 22 21  0  0  1  0  0  0  0  0999 V2000
    6.8241  -11.9485   28.1004 C   0  0  0  0  0  0  0  0  0  0  0  0
    6.2207  -13.1940   27.4455 C   0  0  0  0  0  0  0  0  0  0  0  0
    7.1060  -13.6600   26.3146 C   0  0  2  0  0  0  0  0  0  0  0  0
    7.4562  -12.5215   25.4150 C   0  0  0  0  0  0  0  0  0  0  0  0
    6.5575  -14.8560   25.5800 C   0  0  2  0  0  0  0  0  0  0  0  0
    6.4242  -15.9920   26.4864 N   0  0  0  0  0  0  0  0  0  0  0  0
    7.3391  -15.2752   24.4183 C   0  0  0  0  0  0  0  0  0  0  0  0
    8.1530  -16.2445   24.4561 O   0  0  0  0  0  0  0  0  0  0  0  0
    7.2104  -14.5944   23.1778 N   0  0  0  0  0  0  0  0  0  0  0  0
    8.0300  -14.9330   21.9972 C   0  0  1  0  0  0  0  0  0  0  0  0
    7.6218  -14.0687   20.8360 C   0  0  0  0  0  0  0  0  0  0  0  0
    8.4152  -14.2675   19.5807 C   0  0  0  0  0  0  0  0  0  0  0  0
    7.8881  -13.3414   18.4735 C   0  0  0  0  0  0  0  0  0  0  0  0
    8.6863  -13.5401   17.2024 C   0  0  0  0  0  0  0  0  0  0  0  0
    8.5463  -14.9151   16.7633 N   0  0  0  0  0  0  0  0  0  0  0  0
    9.4616  -14.7864   22.3202 C   0  0  0  0  0  0  0  0  0  0  0  0
    9.9200  -13.8549   23.0091 O   0  0  0  0  0  0  0  0  0  0  0  0
   10.4468  -15.7324   21.8495 N   0  0  0  0  0  0  0  0  0  0  0  0
   11.8470  -15.5898   22.1440 C   0  0  0  0  0  0  0  0  0  0  0  0
   12.6782  -16.6545   21.5771 C   0  0  0  0  0  0  0  0  0  0  0  0
   14.0567  -16.5262   21.6562 O   0  0  0  0  0  0  0  0  0  0  0  0
   12.2222  -17.6834   21.0200 O   0  0  0  0  0  0  0  0  0  0  0  0
  2  1  1  0
  3  2  1  0
  3  5  1  0
  3  4  1  6
  5  6  1  1
  7  5  1  0
  7  8  2  0
  9  7  1  0
 10  9  1  0
 10 11  1  6
 12 11  1  0
 12 13  1  0
 13 14  1  0
 14 15  1  0
 16 10  1  0
 17 16  2  0
 18 16  1  0
 19 20  1  0
 19 18  1  0
 20 21  1  0
 22 20  2  0
M  END
$$$$
