RHF.pdb
     RDKit          3D

 33 34  0  0  1  0  0  0  0  0999 V2000
   32.0548  -26.2228  -16.8761 N   0  0  0  0  0  0  0  0  0  0  0  0
   31.7204  -25.3529  -15.8083 C   0  0  0  0  0  0  0  0  0  0  0  0
   32.1947  -25.5435  -14.6243 N   0  0  0  0  0  0  0  0  0  0  0  0
   30.8528  -24.2605  -16.0504 N   0  0  0  0  0  0  0  0  0  0  0  0
   30.6352  -23.3016  -14.9628 C   0  0  0  0  0  0  0  0  0  0  0  0
   29.6640  -22.2434  -15.3860 C   0  0  0  0  0  0  0  0  0  0  0  0
   28.3127  -22.7772  -15.6574 C   0  0  0  0  0  0  0  0  0  0  0  0
   27.2631  -21.7874  -15.9890 C   0  0  2  0  0  0  0  0  0  0  0  0
   27.6469  -20.8264  -16.9759 N   0  0  0  0  0  0  0  0  0  0  0  0
   26.7278  -21.0809  -14.7933 C   0  0  0  0  0  0  0  0  0  0  0  0
   27.1660  -19.9366  -14.5225 O   0  0  0  0  0  0  0  0  0  0  0  0
   31.9931  -24.9149  -13.8312 N   0  0  0  0  0  0  0  0  0  0  0  0
   25.7501  -21.6259  -13.9410 C   0  0  2  0  0  0  0  0  0  0  0  0
   25.0871  -20.8212  -12.8685 C   0  0  0  0  0  0  0  0  0  0  0  0
   23.6906  -21.3665  -12.8243 C   0  0  0  0  0  0  0  0  0  0  0  0
   22.8092  -20.7944  -11.8002 C   0  0  0  0  0  0  0  0  0  0  0  0
   22.2228  -19.5689  -11.7812 N   0  0  0  0  0  0  0  0  0  0  0  0
   21.4306  -19.4907  -10.6817 C   0  0  0  0  0  0  0  0  0  0  0  0
   21.5187  -20.6362  -10.0329 N   0  0  0  0  0  0  0  0  0  0  0  0
   22.3474  -21.4387  -10.6930 C   0  0  0  0  0  0  0  0  0  0  0  0
   25.7772  -21.2046  -11.5893 O   0  0  0  0  0  0  0  0  0  0  0  0
   26.1005  -22.3701  -11.3711 N   0  0  0  0  0  0  0  0  0  0  0  0
   26.0793  -20.2432  -10.5916 C   0  0  1  0  0  0  0  0  0  0  0  0
   26.6906  -20.6231   -9.3085 C   0  0  0  0  0  0  0  0  0  0  0  0
   27.5150  -19.4704   -8.7982 C   0  0  0  0  0  0  0  0  0  0  0  0
   28.1003  -19.7504   -7.4690 C   0  0  0  0  0  0  0  0  0  0  0  0
   27.4664  -19.3246   -6.3241 C   0  0  0  0  0  0  0  0  0  0  0  0
   27.9842  -19.5773   -5.0794 C   0  0  0  0  0  0  0  0  0  0  0  0
   29.1739  -20.2786   -4.9877 C   0  0  0  0  0  0  0  0  0  0  0  0
   29.8353  -20.7196   -6.1041 C   0  0  0  0  0  0  0  0  0  0  0  0
   29.2743  -20.4408   -7.3366 C   0  0  0  0  0  0  0  0  0  0  0  0
   25.6727  -21.1022   -8.3708 O   0  0  0  0  0  0  0  0  0  0  0  0
   25.9752  -22.0264   -7.5671 O   0  0  0  0  0  0  0  0  0  0  0  0
  2  3  2  0
  2  1  1  0
  4  2  1  0
  5  4  1  0
  6  5  1  0
  7  6  1  0
  8  9  1  6
  8  7  1  0
 10 12  1  0
 10  8  1  0
 11 10  2  0
 13 12  1  0
 13 14  1  6
 14 15  1  0
 15 16  2  0
 16 17  1  0
 18 17  1  0
 19 15  1  0
 19 18  2  0
 20 13  1  0
 21 20  2  0
 22 20  1  0
 23 31  1  0
 23 22  1  0
 24 25  1  0
 23 24  1  1
 25 30  1  0
 25 26  2  0
 26 27  1  0
 27 28  2  0
 29 28  1  0
 30 29  2  0
 31 33  1  0
 32 31  2  0
M  END
$$$$
