RHF.pdb
     RDKit          3D

 33 34  0  0  1  0  0  0  0  0999 V2000
   28.9505  -22.4140  -14.7987 N   0  0  0  0  0  0  0  0  0  0  0  0
   29.7319  -22.1605  -15.9536 C   0  0  0  0  0  0  0  0  0  0  0  0
   30.4887  -23.0758  -16.4563 N   0  0  0  0  0  0  0  0  0  0  0  0
   29.6772  -20.8824  -16.5603 N   0  0  0  0  0  0  0  0  0  0  0  0
   28.5221  -20.0295  -16.2631 C   0  0  0  0  0  0  0  0  0  0  0  0
   28.9488  -18.8265  -15.4802 C   0  0  0  0  0  0  0  0  0  0  0  0
   27.8649  -18.2696  -14.6437 C   0  0  0  0  0  0  0  0  0  0  0  0
   26.5195  -18.8608  -14.8220 C   0  0  2  0  0  0  0  0  0  0  0  0
   25.7074  -18.1998  -15.7958 N   0  0  0  0  0  0  0  0  0  0  0  0
   25.7615  -18.9827  -13.5469 C   0  0  0  0  0  0  0  0  0  0  0  0
   25.1019  -17.9955  -13.1406 O   0  0  0  0  0  0  0  0  0  0  0  0
   31.1012  -22.9128  -17.2706 N   0  0  0  0  0  0  0  0  0  0  0  0
   25.7408  -20.1510  -12.7632 C   0  0  2  0  0  0  0  0  0  0  0  0
   24.9375  -20.2553  -11.5059 C   0  0  0  0  0  0  0  0  0  0  0  0
   24.0322  -21.4246  -11.7561 C   0  0  0  0  0  0  0  0  0  0  0  0
   22.7646  -21.1235  -12.4309 C   0  0  0  0  0  0  0  0  0  0  0  0
   21.6294  -20.6002  -11.8986 N   0  0  0  0  0  0  0  0  0  0  0  0
   20.7311  -20.4192  -12.9001 C   0  0  0  0  0  0  0  0  0  0  0  0
   21.2905  -20.8171  -14.0268 N   0  0  0  0  0  0  0  0  0  0  0  0
   22.5208  -21.2464  -13.7649 C   0  0  0  0  0  0  0  0  0  0  0  0
   25.9146  -20.6446  -10.4320 O   0  0  0  0  0  0  0  0  0  0  0  0
   26.7941  -21.4751  -10.6495 N   0  0  0  0  0  0  0  0  0  0  0  0
   25.8596  -20.0730   -9.1354 C   0  0  1  0  0  0  0  0  0  0  0  0
   26.7750  -20.4934   -8.0632 C   0  0  0  0  0  0  0  0  0  0  0  0
   27.4782  -19.2793   -7.5151 C   0  0  0  0  0  0  0  0  0  0  0  0
   28.2553  -19.5896   -6.2955 C   0  0  0  0  0  0  0  0  0  0  0  0
   27.8450  -19.1198   -5.0687 C   0  0  0  0  0  0  0  0  0  0  0  0
   28.5435  -19.3991   -3.9219 C   0  0  0  0  0  0  0  0  0  0  0  0
   29.6869  -20.1733   -4.0155 C   0  0  0  0  0  0  0  0  0  0  0  0
   30.1281  -20.6598   -5.2184 C   0  0  0  0  0  0  0  0  0  0  0  0
   29.3907  -20.3517   -6.3466 C   0  0  0  0  0  0  0  0  0  0  0  0
   26.0660  -21.2884   -7.0581 O   0  0  0  0  0  0  0  0  0  0  0  0
   24.8163  -21.1539   -6.9491 O   0  0  0  0  0  0  0  0  0  0  0  0
  2  3  2  0
  2  1  1  0
  4  2  1  0
  5  4  1  0
  6  5  1  0
  7  6  1  0
  8  9  1  6
  8  7  1  0
 10 12  1  0
 10  8  1  0
 11 10  2  0
 13 12  1  0
 13 14  1  6
 14 15  1  0
 15 16  2  0
 16 17  1  0
 18 17  1  0
 19 15  1  0
 19 18  2  0
 20 13  1  0
 21 20  2  0
 22 20  1  0
 23 31  1  0
 23 22  1  0
 24 25  1  0
 23 24  1  1
 25 30  1  0
 25 26  2  0
 26 27  1  0
 27 28  2  0
 29 28  1  0
 30 29  2  0
 31 33  1  0
 32 31  2  0
M  END
$$$$
