RHF.pdb
     RDKit          3D

 33 34  0  0  1  0  0  0  0  0999 V2000
   31.8023  -23.5699  -17.6845 N   0  0  0  0  0  0  0  0  0  0  0  0
   31.3000  -23.1600  -18.9448 C   0  0  0  0  0  0  0  0  0  0  0  0
   31.7784  -23.6461  -20.0394 N   0  0  0  0  0  0  0  0  0  0  0  0
   30.2580  -22.2028  -18.9973 N   0  0  0  0  0  0  0  0  0  0  0  0
   29.6786  -21.7476  -17.7296 C   0  0  0  0  0  0  0  0  0  0  0  0
   29.1343  -22.9092  -16.9572 C   0  0  0  0  0  0  0  0  0  0  0  0
   28.4307  -22.5012  -15.7229 C   0  0  0  0  0  0  0  0  0  0  0  0
   26.9765  -22.2510  -15.8407 C   0  0  2  0  0  0  0  0  0  0  0  0
   26.5367  -21.9298  -17.1629 N   0  0  0  0  0  0  0  0  0  0  0  0
   26.4829  -21.2169  -14.8908 C   0  0  0  0  0  0  0  0  0  0  0  0
   26.7030  -20.0084  -15.1471 O   0  0  0  0  0  0  0  0  0  0  0  0
   31.4519  -23.3531  -20.9733 N   0  0  0  0  0  0  0  0  0  0  0  0
   25.7771  -21.5178  -13.7115 C   0  0  1  0  0  0  0  0  0  0  0  0
   25.1173  -20.4611  -12.8838 C   0  0  0  0  0  0  0  0  0  0  0  0
   23.7146  -20.4166  -13.4130 C   0  0  0  0  0  0  0  0  0  0  0  0
   23.4853  -19.5207  -14.5521 C   0  0  0  0  0  0  0  0  0  0  0  0
   24.3763  -18.7090  -15.1792 N   0  0  0  0  0  0  0  0  0  0  0  0
   23.7511  -18.1177  -16.2291 C   0  0  0  0  0  0  0  0  0  0  0  0
   22.5046  -18.5494  -16.2576 N   0  0  0  0  0  0  0  0  0  0  0  0
   22.3235  -19.3992  -15.2518 C   0  0  0  0  0  0  0  0  0  0  0  0
   25.0701  -21.0120  -11.4860 O   0  0  0  0  0  0  0  0  0  0  0  0
   24.9911  -22.2221  -11.2866 N   0  0  0  0  0  0  0  0  0  0  0  0
   25.1143  -20.1626  -10.3513 C   0  0  1  0  0  0  0  0  0  0  0  0
   24.9673  -20.6865   -8.9845 C   0  0  0  0  0  0  0  0  0  0  0  0
   25.5297  -19.6831   -8.0120 C   0  0  0  0  0  0  0  0  0  0  0  0
   26.9993  -19.7929   -7.8866 C   0  0  0  0  0  0  0  0  0  0  0  0
   27.8005  -18.6915   -8.0842 C   0  0  0  0  0  0  0  0  0  0  0  0
   29.1651  -18.7649   -7.9670 C   0  0  0  0  0  0  0  0  0  0  0  0
   29.7366  -19.9827   -7.6415 C   0  0  0  0  0  0  0  0  0  0  0  0
   28.9731  -21.1023   -7.4368 C   0  0  0  0  0  0  0  0  0  0  0  0
   27.6022  -20.9789   -7.5661 C   0  0  0  0  0  0  0  0  0  0  0  0
   23.5786  -21.0714   -8.7231 O   0  0  0  0  0  0  0  0  0  0  0  0
   22.6671  -20.5808   -9.4443 O   0  0  0  0  0  0  0  0  0  0  0  0
  2  3  2  0
  2  1  1  0
  4  2  1  0
  5  4  1  0
  6  5  1  0
  7  6  1  0
  8  9  1  6
  8  7  1  0
 10 12  1  0
 10  8  1  0
 11 10  2  0
 13 12  1  0
 13 14  1  1
 14 15  1  0
 15 16  2  0
 16 17  1  0
 18 17  1  0
 19 15  1  0
 19 18  2  0
 20 13  1  0
 21 20  2  0
 22 20  1  0
 23 31  1  0
 23 22  1  0
 24 25  1  0
 23 24  1  1
 25 30  1  0
 25 26  2  0
 26 27  1  0
 27 28  2  0
 29 28  1  0
 30 29  2  0
 31 33  1  0
 32 31  2  0
M  END
$$$$
