RHF.pdb
     RDKit          3D

 33 34  0  0  1  0  0  0  0  0999 V2000
   20.9875  -28.6249  -15.2567 N   0  0  0  0  0  0  0  0  0  0  0  0
   20.8797  -27.3576  -14.6314 C   0  0  0  0  0  0  0  0  0  0  0  0
   20.2136  -27.2128  -13.5366 N   0  0  0  0  0  0  0  0  0  0  0  0
   21.5143  -26.2378  -15.2213 N   0  0  0  0  0  0  0  0  0  0  0  0
   22.3082  -26.4578  -16.4342 C   0  0  0  0  0  0  0  0  0  0  0  0
   23.4886  -27.3291  -16.1350 C   0  0  0  0  0  0  0  0  0  0  0  0
   24.6992  -26.5578  -15.7823 C   0  0  0  0  0  0  0  0  0  0  0  0
   25.2264  -25.6412  -16.8182 C   0  0  2  0  0  0  0  0  0  0  0  0
   26.1294  -26.2515  -17.7438 N   0  0  0  0  0  0  0  0  0  0  0  0
   25.8535  -24.4167  -16.2502 C   0  0  0  0  0  0  0  0  0  0  0  0
   26.8679  -24.5410  -15.5220 O   0  0  0  0  0  0  0  0  0  0  0  0
   20.1632  -26.3184  -13.0246 N   0  0  0  0  0  0  0  0  0  0  0  0
   25.3713  -23.1159  -16.4843 C   0  0  2  0  0  0  0  0  0  0  0  0
   26.0551  -21.9010  -15.9426 C   0  0  0  0  0  0  0  0  0  0  0  0
   25.4921  -20.7784  -16.7626 C   0  0  0  0  0  0  0  0  0  0  0  0
   26.0325  -19.4435  -16.4819 C   0  0  0  0  0  0  0  0  0  0  0  0
   27.0911  -19.1099  -15.6983 N   0  0  0  0  0  0  0  0  0  0  0  0
   27.2827  -17.7689  -15.7861 C   0  0  0  0  0  0  0  0  0  0  0  0
   26.3699  -17.2789  -16.6032 N   0  0  0  0  0  0  0  0  0  0  0  0
   25.6039  -18.2755  -17.0353 C   0  0  0  0  0  0  0  0  0  0  0  0
   25.5517  -21.7468  -14.5346 O   0  0  0  0  0  0  0  0  0  0  0  0
   24.3897  -22.0238  -14.2456 N   0  0  0  0  0  0  0  0  0  0  0  0
   26.3921  -21.2787  -13.4927 C   0  0  2  0  0  0  0  0  0  0  0  0
   25.8955  -21.0928  -12.1204 C   0  0  0  0  0  0  0  0  0  0  0  0
   27.0496  -20.7170  -11.2284 C   0  0  0  0  0  0  0  0  0  0  0  0
   26.6202  -20.4800   -9.8330 C   0  0  0  0  0  0  0  0  0  0  0  0
   26.4744  -21.5336   -8.9596 C   0  0  0  0  0  0  0  0  0  0  0  0
   26.0844  -21.3404   -7.6590 C   0  0  0  0  0  0  0  0  0  0  0  0
   25.8347  -20.0491   -7.2280 C   0  0  0  0  0  0  0  0  0  0  0  0
   25.9685  -18.9736   -8.0669 C   0  0  0  0  0  0  0  0  0  0  0  0
   26.3640  -19.2184   -9.3689 C   0  0  0  0  0  0  0  0  0  0  0  0
   24.7782  -20.1462  -12.0970 O   0  0  0  0  0  0  0  0  0  0  0  0
   24.8400  -19.1165  -12.8235 O   0  0  0  0  0  0  0  0  0  0  0  0
  2  3  2  0
  2  1  1  0
  4  2  1  0
  5  4  1  0
  6  5  1  0
  7  6  1  0
  8  9  1  1
  8  7  1  0
 10 12  1  0
 10  8  1  0
 11 10  2  0
 13 12  1  0
 13 14  1  6
 14 15  1  0
 15 16  2  0
 16 17  1  0
 18 17  1  0
 19 15  1  0
 19 18  2  0
 20 13  1  0
 21 20  2  0
 22 20  1  0
 23 31  1  0
 23 22  1  0
 24 25  1  0
 23 24  1  6
 25 30  1  0
 25 26  2  0
 26 27  1  0
 27 28  2  0
 29 28  1  0
 30 29  2  0
 31 33  1  0
 32 31  2  0
M  END
$$$$
