RHF.pdb
     RDKit          3D

 33 34  0  0  1  0  0  0  0  0999 V2000
   29.0886  -22.3768   -9.8928 N   0  0  0  0  0  0  0  0  0  0  0  0
   29.7254  -21.4152  -10.7166 C   0  0  0  0  0  0  0  0  0  0  0  0
   30.8009  -20.8181  -10.3292 N   0  0  0  0  0  0  0  0  0  0  0  0
   29.1687  -21.1094  -11.9820 N   0  0  0  0  0  0  0  0  0  0  0  0
   27.8924  -21.7358  -12.3407 C   0  0  0  0  0  0  0  0  0  0  0  0
   26.7650  -20.7681  -12.1539 C   0  0  0  0  0  0  0  0  0  0  0  0
   25.4700  -21.4344  -11.9015 C   0  0  0  0  0  0  0  0  0  0  0  0
   24.8726  -22.1738  -13.0362 C   0  0  2  0  0  0  0  0  0  0  0  0
   25.8226  -22.8252  -13.8835 N   0  0  0  0  0  0  0  0  0  0  0  0
   23.9635  -21.3363  -13.8654 C   0  0  0  0  0  0  0  0  0  0  0  0
   24.3016  -21.0632  -15.0426 O   0  0  0  0  0  0  0  0  0  0  0  0
   31.2762  -20.0965  -10.8932 N   0  0  0  0  0  0  0  0  0  0  0  0
   22.7359  -20.8284  -13.4024 C   0  0  2  0  0  0  0  0  0  0  0  0
   21.8454  -19.9865  -14.2599 C   0  0  0  0  0  0  0  0  0  0  0  0
   20.5304  -20.0079  -13.5388 C   0  0  0  0  0  0  0  0  0  0  0  0
   19.6042  -21.0791  -13.9227 C   0  0  0  0  0  0  0  0  0  0  0  0
   19.7918  -22.0703  -14.8329 N   0  0  0  0  0  0  0  0  0  0  0  0
   18.7044  -22.8826  -14.8111 C   0  0  0  0  0  0  0  0  0  0  0  0
   17.8618  -22.4126  -13.9112 N   0  0  0  0  0  0  0  0  0  0  0  0
   18.3873  -21.3221  -13.3621 C   0  0  0  0  0  0  0  0  0  0  0  0
   22.4006  -18.5922  -14.1740 O   0  0  0  0  0  0  0  0  0  0  0  0
   22.9463  -18.1919  -13.1481 N   0  0  0  0  0  0  0  0  0  0  0  0
   22.3163  -17.6910  -15.2656 C   0  0  1  0  0  0  0  0  0  0  0  0
   23.3173  -16.6338  -15.4773 C   0  0  0  0  0  0  0  0  0  0  0  0
   24.6943  -17.2376  -15.3874 C   0  0  0  0  0  0  0  0  0  0  0  0
   25.7541  -16.2561  -15.7054 C   0  0  0  0  0  0  0  0  0  0  0  0
   26.1992  -15.3749  -14.7464 C   0  0  0  0  0  0  0  0  0  0  0  0
   27.1854  -14.4600  -15.0134 C   0  0  0  0  0  0  0  0  0  0  0  0
   27.7375  -14.4335  -16.2822 C   0  0  0  0  0  0  0  0  0  0  0  0
   27.3216  -15.2942  -17.2643 C   0  0  0  0  0  0  0  0  0  0  0  0
   26.3250  -16.1986  -16.9477 C   0  0  0  0  0  0  0  0  0  0  0  0
   23.0526  -15.9110  -16.7233 O   0  0  0  0  0  0  0  0  0  0  0  0
   23.0236  -14.6499  -16.6988 O   0  0  0  0  0  0  0  0  0  0  0  0
  2  3  2  0
  2  1  1  0
  4  2  1  0
  5  4  1  0
  6  5  1  0
  7  6  1  0
  8  9  1  6
  8  7  1  0
 10 12  1  0
 10  8  1  0
 11 10  2  0
 13 12  1  0
 13 14  1  6
 14 15  1  0
 15 16  2  0
 16 17  1  0
 18 17  1  0
 19 15  1  0
 19 18  2  0
 20 13  1  0
 21 20  2  0
 22 20  1  0
 23 31  1  0
 23 22  1  0
 24 25  1  0
 23 24  1  1
 25 30  1  0
 25 26  2  0
 26 27  1  0
 27 28  2  0
 29 28  1  0
 30 29  2  0
 31 33  1  0
 32 31  2  0
M  END
$$$$
