RHF.pdb
     RDKit          3D

 33 34  0  0  1  0  0  0  0  0999 V2000
   48.1718  -11.2185   -2.9388 N   0  0  0  0  0  0  0  0  0  0  0  0
   47.9559  -12.0418   -4.0721 C   0  0  0  0  0  0  0  0  0  0  0  0
   48.6946  -13.0760   -4.2909 N   0  0  0  0  0  0  0  0  0  0  0  0
   46.9129  -11.7196   -4.9737 N   0  0  0  0  0  0  0  0  0  0  0  0
   46.0462  -10.5837   -4.6445 C   0  0  0  0  0  0  0  0  0  0  0  0
   45.1026  -10.3024   -5.7726 C   0  0  0  0  0  0  0  0  0  0  0  0
   44.2752   -9.0990   -5.5449 C   0  0  0  0  0  0  0  0  0  0  0  0
   42.9442   -9.0774   -6.1924 C   0  0  2  0  0  0  0  0  0  0  0  0
   42.8544   -9.8596   -7.3861 N   0  0  0  0  0  0  0  0  0  0  0  0
   42.4497   -7.7004   -6.4655 C   0  0  0  0  0  0  0  0  0  0  0  0
   42.4157   -6.8737   -5.5221 O   0  0  0  0  0  0  0  0  0  0  0  0
   48.5714  -13.6902   -5.1108 N   0  0  0  0  0  0  0  0  0  0  0  0
   42.0142   -7.2674   -7.7313 C   0  0  1  0  0  0  0  0  0  0  0  0
   41.5918   -5.8562   -7.9910 C   0  0  0  0  0  0  0  0  0  0  0  0
   42.3122   -5.4945   -9.2558 C   0  0  0  0  0  0  0  0  0  0  0  0
   42.1033   -4.1274   -9.7461 C   0  0  0  0  0  0  0  0  0  0  0  0
   41.5929   -3.0605   -9.0774 N   0  0  0  0  0  0  0  0  0  0  0  0
   41.6525   -1.9764   -9.8923 C   0  0  0  0  0  0  0  0  0  0  0  0
   42.1868   -2.3557  -11.0375 N   0  0  0  0  0  0  0  0  0  0  0  0
   42.4670   -3.6532  -10.9696 C   0  0  0  0  0  0  0  0  0  0  0  0
   40.1214   -5.9231   -8.2957 O   0  0  0  0  0  0  0  0  0  0  0  0
   39.6891   -6.6857   -9.1572 N   0  0  0  0  0  0  0  0  0  0  0  0
   39.1827   -5.1143   -7.6061 C   0  0  1  0  0  0  0  0  0  0  0  0
   37.7606   -5.0850   -7.9818 C   0  0  0  0  0  0  0  0  0  0  0  0
   36.9525   -5.7409   -6.8930 C   0  0  0  0  0  0  0  0  0  0  0  0
   37.2973   -7.1698   -6.7281 C   0  0  0  0  0  0  0  0  0  0  0  0
   36.9817   -8.0812   -7.7098 C   0  0  0  0  0  0  0  0  0  0  0  0
   37.2965   -9.4103   -7.5847 C   0  0  0  0  0  0  0  0  0  0  0  0
   37.9474   -9.8309   -6.4381 C   0  0  0  0  0  0  0  0  0  0  0  0
   38.2788   -8.9544   -5.4380 C   0  0  0  0  0  0  0  0  0  0  0  0
   37.9408   -7.6248   -5.6095 C   0  0  0  0  0  0  0  0  0  0  0  0
   37.3393   -3.7216   -8.3116 O   0  0  0  0  0  0  0  0  0  0  0  0
   38.0641   -2.7568   -7.9433 O   0  0  0  0  0  0  0  0  0  0  0  0
  2  3  2  0
  2  1  1  0
  4  2  1  0
  5  4  1  0
  6  5  1  0
  7  6  1  0
  8  9  1  6
  8  7  1  0
 10 12  1  0
 10  8  1  0
 11 10  2  0
 13 12  1  0
 13 14  1  1
 14 15  1  0
 15 16  2  0
 16 17  1  0
 18 17  1  0
 19 15  1  0
 19 18  2  0
 20 13  1  0
 21 20  2  0
 22 20  1  0
 23 31  1  0
 23 22  1  0
 24 25  1  0
 23 24  1  6
 25 30  1  0
 25 26  2  0
 26 27  1  0
 27 28  2  0
 29 28  1  0
 30 29  2  0
 31 33  1  0
 32 31  2  0
M  END
$$$$
