RHF.pdb
     RDKit          3D

 33 34  0  0  1  0  0  0  0  0999 V2000
   29.1470  -22.0601  -17.9021 N   0  0  0  0  0  0  0  0  0  0  0  0
   28.4685  -21.4609  -18.9926 C   0  0  0  0  0  0  0  0  0  0  0  0
   28.7936  -21.7386  -20.2094 N   0  0  0  0  0  0  0  0  0  0  0  0
   27.4194  -20.5451  -18.7371 N   0  0  0  0  0  0  0  0  0  0  0  0
   27.0732  -20.2692  -17.3393 C   0  0  0  0  0  0  0  0  0  0  0  0
   27.9542  -19.1922  -16.7858 C   0  0  0  0  0  0  0  0  0  0  0  0
   27.6312  -18.8468  -15.3854 C   0  0  0  0  0  0  0  0  0  0  0  0
   27.8451  -19.9071  -14.3748 C   0  0  2  0  0  0  0  0  0  0  0  0
   27.5663  -21.2308  -14.8383 N   0  0  0  0  0  0  0  0  0  0  0  0
   27.1068  -19.6621  -13.1059 C   0  0  0  0  0  0  0  0  0  0  0  0
   27.1373  -18.5129  -12.6027 O   0  0  0  0  0  0  0  0  0  0  0  0
   28.2870  -21.3618  -21.0255 N   0  0  0  0  0  0  0  0  0  0  0  0
   26.3699  -20.6527  -12.4313 C   0  0  1  0  0  0  0  0  0  0  0  0
   25.5323  -20.3463  -11.2306 C   0  0  0  0  0  0  0  0  0  0  0  0
   24.2194  -21.0054  -11.5329 C   0  0  0  0  0  0  0  0  0  0  0  0
   23.3708  -20.3258  -12.5182 C   0  0  0  0  0  0  0  0  0  0  0  0
   23.6160  -19.1690  -13.1873 N   0  0  0  0  0  0  0  0  0  0  0  0
   22.5949  -18.9519  -14.0551 C   0  0  0  0  0  0  0  0  0  0  0  0
   21.7366  -19.9465  -13.9323 N   0  0  0  0  0  0  0  0  0  0  0  0
   22.1875  -20.7886  -13.0080 C   0  0  0  0  0  0  0  0  0  0  0  0
   26.1731  -21.0869  -10.0901 O   0  0  0  0  0  0  0  0  0  0  0  0
   26.7072  -22.1795  -10.2675 N   0  0  0  0  0  0  0  0  0  0  0  0
   26.1857  -20.5574   -8.7747 C   0  0  1  0  0  0  0  0  0  0  0  0
   26.6213  -21.3588   -7.6204 C   0  0  0  0  0  0  0  0  0  0  0  0
   28.0538  -21.0197   -7.3011 C   0  0  0  0  0  0  0  0  0  0  0  0
   28.1628  -20.0756   -6.1678 C   0  0  0  0  0  0  0  0  0  0  0  0
   28.5315  -20.5234   -4.9198 C   0  0  0  0  0  0  0  0  0  0  0  0
   28.6469  -19.6678   -3.8542 C   0  0  0  0  0  0  0  0  0  0  0  0
   28.3829  -18.3238   -4.0532 C   0  0  0  0  0  0  0  0  0  0  0  0
   28.0132  -17.8388   -5.2806 C   0  0  0  0  0  0  0  0  0  0  0  0
   27.9104  -18.7398   -6.3242 C   0  0  0  0  0  0  0  0  0  0  0  0
   25.6953  -21.1966   -6.4974 O   0  0  0  0  0  0  0  0  0  0  0  0
   24.7478  -20.3707   -6.6067 O   0  0  0  0  0  0  0  0  0  0  0  0
  2  3  2  0
  2  1  1  0
  4  2  1  0
  5  4  1  0
  6  5  1  0
  7  6  1  0
  8  9  1  6
  8  7  1  0
 10 12  1  0
 10  8  1  0
 11 10  2  0
 13 12  1  0
 13 14  1  6
 14 15  1  0
 15 16  2  0
 16 17  1  0
 18 17  1  0
 19 15  1  0
 19 18  2  0
 20 13  1  0
 21 20  2  0
 22 20  1  0
 23 31  1  0
 23 22  1  0
 24 25  1  0
 23 24  1  1
 25 30  1  0
 25 26  2  0
 26 27  1  0
 27 28  2  0
 29 28  1  0
 30 29  2  0
 31 33  1  0
 32 31  2  0
M  END
$$$$
