RHF.pdb
     RDKit          3D

 33 34  0  0  1  0  0  0  0  0999 V2000
   28.3626  -29.5766  -16.2920 N   0  0  0  0  0  0  0  0  0  0  0  0
   27.0034  -29.7856  -16.6350 C   0  0  0  0  0  0  0  0  0  0  0  0
   26.3775  -30.8451  -16.2493 N   0  0  0  0  0  0  0  0  0  0  0  0
   26.3277  -28.8140  -17.4123 N   0  0  0  0  0  0  0  0  0  0  0  0
   27.1146  -27.7064  -17.9636 C   0  0  0  0  0  0  0  0  0  0  0  0
   27.6819  -26.8687  -16.8597 C   0  0  0  0  0  0  0  0  0  0  0  0
   26.9224  -25.6207  -16.6352 C   0  0  0  0  0  0  0  0  0  0  0  0
   27.2944  -24.4584  -17.4731 C   0  0  2  0  0  0  0  0  0  0  0  0
   28.6247  -24.5073  -17.9953 N   0  0  0  0  0  0  0  0  0  0  0  0
   27.0792  -23.1534  -16.7904 C   0  0  0  0  0  0  0  0  0  0  0  0
   28.0312  -22.6423  -16.1525 O   0  0  0  0  0  0  0  0  0  0  0  0
   25.4036  -31.0516  -16.5207 N   0  0  0  0  0  0  0  0  0  0  0  0
   25.8595  -22.4528  -16.8189 C   0  0  2  0  0  0  0  0  0  0  0  0
   25.7042  -21.0946  -16.2121 C   0  0  0  0  0  0  0  0  0  0  0  0
   24.4755  -20.5456  -16.8742 C   0  0  0  0  0  0  0  0  0  0  0  0
   24.0127  -19.2403  -16.3894 C   0  0  0  0  0  0  0  0  0  0  0  0
   24.6402  -18.3853  -15.5401 N   0  0  0  0  0  0  0  0  0  0  0  0
   23.8848  -17.2631  -15.4274 C   0  0  0  0  0  0  0  0  0  0  0  0
   22.8160  -17.4126  -16.1864 N   0  0  0  0  0  0  0  0  0  0  0  0
   22.8743  -18.6018  -16.7773 C   0  0  0  0  0  0  0  0  0  0  0  0
   25.3848  -21.3327  -14.7626 O   0  0  0  0  0  0  0  0  0  0  0  0
   24.4844  -22.1014  -14.4324 N   0  0  0  0  0  0  0  0  0  0  0  0
   26.1046  -20.6839  -13.7274 C   0  0  1  0  0  0  0  0  0  0  0  0
   25.7074  -20.8010  -12.3157 C   0  0  0  0  0  0  0  0  0  0  0  0
   26.6790  -20.0232  -11.4671 C   0  0  0  0  0  0  0  0  0  0  0  0
   26.2832  -20.0060  -10.0421 C   0  0  0  0  0  0  0  0  0  0  0  0
   26.0457  -18.8129   -9.3985 C   0  0  0  0  0  0  0  0  0  0  0  0
   25.6707  -18.7697   -8.0799 C   0  0  0  0  0  0  0  0  0  0  0  0
   25.5318  -19.9626   -7.3922 C   0  0  0  0  0  0  0  0  0  0  0  0
   25.7592  -21.1711   -7.9974 C   0  0  0  0  0  0  0  0  0  0  0  0
   26.1351  -21.1638   -9.3279 C   0  0  0  0  0  0  0  0  0  0  0  0
   24.3052  -20.4172  -12.1379 O   0  0  0  0  0  0  0  0  0  0  0  0
   23.5674  -21.1354  -11.4089 O   0  0  0  0  0  0  0  0  0  0  0  0
  2  3  2  0
  2  1  1  0
  4  2  1  0
  5  4  1  0
  6  5  1  0
  7  6  1  0
  8  9  1  1
  8  7  1  0
 10 12  1  0
 10  8  1  0
 11 10  2  0
 13 12  1  0
 13 14  1  6
 14 15  1  0
 15 16  2  0
 16 17  1  0
 18 17  1  0
 19 15  1  0
 19 18  2  0
 20 13  1  0
 21 20  2  0
 22 20  1  0
 23 31  1  0
 23 22  1  0
 24 25  1  0
 23 24  1  1
 25 30  1  0
 25 26  2  0
 26 27  1  0
 27 28  2  0
 29 28  1  0
 30 29  2  0
 31 33  1  0
 32 31  2  0
M  END
$$$$
