RHF.pdb
     RDKit          3D

 33 34  0  0  1  0  0  0  0  0999 V2000
   27.8660  -28.8089  -15.8605 N   0  0  0  0  0  0  0  0  0  0  0  0
   27.1339  -28.7595  -17.0731 C   0  0  0  0  0  0  0  0  0  0  0  0
   26.2418  -29.6499  -17.3459 N   0  0  0  0  0  0  0  0  0  0  0  0
   27.3896  -27.7154  -17.9947 N   0  0  0  0  0  0  0  0  0  0  0  0
   28.1177  -26.5372  -17.5136 C   0  0  0  0  0  0  0  0  0  0  0  0
   27.3017  -25.7971  -16.4993 C   0  0  0  0  0  0  0  0  0  0  0  0
   27.8786  -24.4837  -16.1433 C   0  0  0  0  0  0  0  0  0  0  0  0
   27.7285  -23.4010  -17.1416 C   0  0  2  0  0  0  0  0  0  0  0  0
   28.9286  -23.0778  -17.8486 N   0  0  0  0  0  0  0  0  0  0  0  0
   27.1409  -22.1580  -16.5714 C   0  0  0  0  0  0  0  0  0  0  0  0
   27.6480  -21.6735  -15.5308 O   0  0  0  0  0  0  0  0  0  0  0  0
   25.7705  -29.7097  -18.2619 N   0  0  0  0  0  0  0  0  0  0  0  0
   26.0401  -21.4882  -17.1361 C   0  0  2  0  0  0  0  0  0  0  0  0
   25.4491  -20.2610  -16.5183 C   0  0  0  0  0  0  0  0  0  0  0  0
   25.0998  -19.4006  -17.6961 C   0  0  0  0  0  0  0  0  0  0  0  0
   24.3563  -18.1716  -17.3966 C   0  0  0  0  0  0  0  0  0  0  0  0
   24.0417  -17.6513  -16.1815 N   0  0  0  0  0  0  0  0  0  0  0  0
   23.4138  -16.4634  -16.3744 C   0  0  0  0  0  0  0  0  0  0  0  0
   23.3397  -16.2472  -17.6739 N   0  0  0  0  0  0  0  0  0  0  0  0
   23.9044  -17.2685  -18.3100 C   0  0  0  0  0  0  0  0  0  0  0  0
   24.1675  -20.7093  -15.8731 O   0  0  0  0  0  0  0  0  0  0  0  0
   23.4187  -21.5019  -16.4400 N   0  0  0  0  0  0  0  0  0  0  0  0
   23.7756  -20.2380  -14.5943 C   0  0  2  0  0  0  0  0  0  0  0  0
   22.4797  -20.5986  -13.9987 C   0  0  0  0  0  0  0  0  0  0  0  0
   22.5816  -20.4886  -12.4999 C   0  0  0  0  0  0  0  0  0  0  0  0
   21.3008  -20.8036  -11.8305 C   0  0  0  0  0  0  0  0  0  0  0  0
   20.9230  -22.1114  -11.6279 C   0  0  0  0  0  0  0  0  0  0  0  0
   19.7442  -22.4305  -11.0036 C   0  0  0  0  0  0  0  0  0  0  0  0
   18.9246  -21.4021  -10.5720 C   0  0  0  0  0  0  0  0  0  0  0  0
   19.2654  -20.0873  -10.7550 C   0  0  0  0  0  0  0  0  0  0  0  0
   20.4634  -19.8154  -11.3893 C   0  0  0  0  0  0  0  0  0  0  0  0
   21.3984  -19.8090  -14.5923 O   0  0  0  0  0  0  0  0  0  0  0  0
   20.3284  -20.3931  -14.9173 O   0  0  0  0  0  0  0  0  0  0  0  0
  2  3  2  0
  2  1  1  0
  4  2  1  0
  5  4  1  0
  6  5  1  0
  7  6  1  0
  8  9  1  1
  8  7  1  0
 10 12  1  0
 10  8  1  0
 11 10  2  0
 13 12  1  0
 13 14  1  6
 14 15  1  0
 15 16  2  0
 16 17  1  0
 18 17  1  0
 19 15  1  0
 19 18  2  0
 20 13  1  0
 21 20  2  0
 22 20  1  0
 23 31  1  0
 23 22  1  0
 24 25  1  0
 23 24  1  6
 25 30  1  0
 25 26  2  0
 26 27  1  0
 27 28  2  0
 29 28  1  0
 30 29  2  0
 31 33  1  0
 32 31  2  0
M  END
$$$$
