RHF.pdb
     RDKit          3D

 33 34  0  0  1  0  0  0  0  0999 V2000
   30.3656  -22.3473  -19.9627 N   0  0  0  0  0  0  0  0  0  0  0  0
   29.4018  -23.2883  -19.5221 C   0  0  0  0  0  0  0  0  0  0  0  0
   29.5249  -24.5422  -19.7975 N   0  0  0  0  0  0  0  0  0  0  0  0
   28.2896  -22.8401  -18.7691 N   0  0  0  0  0  0  0  0  0  0  0  0
   28.1964  -21.4084  -18.4669 C   0  0  0  0  0  0  0  0  0  0  0  0
   28.9583  -21.0874  -17.2184 C   0  0  0  0  0  0  0  0  0  0  0  0
   28.1070  -20.5114  -16.1562 C   0  0  0  0  0  0  0  0  0  0  0  0
   27.7119  -21.4208  -15.0571 C   0  0  2  0  0  0  0  0  0  0  0  0
   26.8942  -22.5208  -15.4646 N   0  0  0  0  0  0  0  0  0  0  0  0
   27.0599  -20.7148  -13.9206 C   0  0  0  0  0  0  0  0  0  0  0  0
   27.2069  -19.4728  -13.8179 O   0  0  0  0  0  0  0  0  0  0  0  0
   28.8987  -25.2656  -19.4113 N   0  0  0  0  0  0  0  0  0  0  0  0
   26.2809  -21.3644  -12.9456 C   0  0  2  0  0  0  0  0  0  0  0  0
   25.4910  -20.6117  -11.9225 C   0  0  0  0  0  0  0  0  0  0  0  0
   24.1103  -21.1846  -12.0444 C   0  0  0  0  0  0  0  0  0  0  0  0
   23.2978  -20.6734  -13.1541 C   0  0  0  0  0  0  0  0  0  0  0  0
   22.8767  -21.3331  -14.2647 N   0  0  0  0  0  0  0  0  0  0  0  0
   22.0869  -20.4968  -14.9854 C   0  0  0  0  0  0  0  0  0  0  0  0
   22.0155  -19.3472  -14.3418 N   0  0  0  0  0  0  0  0  0  0  0  0
   22.7408  -19.4333  -13.2313 C   0  0  0  0  0  0  0  0  0  0  0  0
   26.0517  -21.0278  -10.5913 O   0  0  0  0  0  0  0  0  0  0  0  0
   26.4183  -22.1841  -10.3942 N   0  0  0  0  0  0  0  0  0  0  0  0
   26.1780  -20.1087   -9.5188 C   0  0  1  0  0  0  0  0  0  0  0  0
   26.7619  -20.5005   -8.2266 C   0  0  0  0  0  0  0  0  0  0  0  0
   27.7674  -19.4602   -7.8076 C   0  0  0  0  0  0  0  0  0  0  0  0
   28.1096  -19.5634   -6.3723 C   0  0  0  0  0  0  0  0  0  0  0  0
   27.4336  -18.8118   -5.4384 C   0  0  0  0  0  0  0  0  0  0  0  0
   27.7266  -18.8940   -4.1010 C   0  0  0  0  0  0  0  0  0  0  0  0
   28.7287  -19.7580   -3.6951 C   0  0  0  0  0  0  0  0  0  0  0  0
   29.4247  -20.5232   -4.5942 C   0  0  0  0  0  0  0  0  0  0  0  0
   29.0936  -20.4059   -5.9314 C   0  0  0  0  0  0  0  0  0  0  0  0
   25.7109  -20.7596   -7.2399 O   0  0  0  0  0  0  0  0  0  0  0  0
   25.9993  -21.4234   -6.2065 O   0  0  0  0  0  0  0  0  0  0  0  0
  2  3  2  0
  2  1  1  0
  4  2  1  0
  5  4  1  0
  6  5  1  0
  7  6  1  0
  8  9  1  6
  8  7  1  0
 10 12  1  0
 10  8  1  0
 11 10  2  0
 13 12  1  0
 13 14  1  6
 14 15  1  0
 15 16  2  0
 16 17  1  0
 18 17  1  0
 19 15  1  0
 19 18  2  0
 20 13  1  0
 21 20  2  0
 22 20  1  0
 23 31  1  0
 23 22  1  0
 24 25  1  0
 23 24  1  1
 25 30  1  0
 25 26  2  0
 26 27  1  0
 27 28  2  0
 29 28  1  0
 30 29  2  0
 31 33  1  0
 32 31  2  0
M  END
$$$$
