RHF.pdb
     RDKit          3D

 33 34  0  0  1  0  0  0  0  0999 V2000
   28.6369  -24.4754  -18.4762 N   0  0  0  0  0  0  0  0  0  0  0  0
   29.8552  -24.7559  -17.8086 C   0  0  0  0  0  0  0  0  0  0  0  0
   30.6496  -25.6769  -18.2373 N   0  0  0  0  0  0  0  0  0  0  0  0
   30.2002  -24.0114  -16.6547 N   0  0  0  0  0  0  0  0  0  0  0  0
   29.2419  -23.0137  -16.1687 C   0  0  0  0  0  0  0  0  0  0  0  0
   29.5644  -21.6632  -16.7296 C   0  0  0  0  0  0  0  0  0  0  0  0
   28.5729  -20.6327  -16.3559 C   0  0  0  0  0  0  0  0  0  0  0  0
   27.5251  -20.3273  -17.3561 C   0  0  2  0  0  0  0  0  0  0  0  0
   27.9926  -19.6120  -18.5027 N   0  0  0  0  0  0  0  0  0  0  0  0
   26.3523  -19.6182  -16.7756 C   0  0  0  0  0  0  0  0  0  0  0  0
   26.4693  -18.4058  -16.4739 O   0  0  0  0  0  0  0  0  0  0  0  0
   31.5534  -25.8919  -17.7883 N   0  0  0  0  0  0  0  0  0  0  0  0
   25.1086  -20.2334  -16.5432 C   0  0  2  0  0  0  0  0  0  0  0  0
   24.0492  -19.5995  -15.6988 C   0  0  0  0  0  0  0  0  0  0  0  0
   22.7873  -19.8296  -16.4759 C   0  0  0  0  0  0  0  0  0  0  0  0
   21.5569  -19.3030  -15.8746 C   0  0  0  0  0  0  0  0  0  0  0  0
   21.4235  -18.5390  -14.7590 N   0  0  0  0  0  0  0  0  0  0  0  0
   20.1124  -18.2180  -14.6146 C   0  0  0  0  0  0  0  0  0  0  0  0
   19.4459  -18.7653  -15.6131 N   0  0  0  0  0  0  0  0  0  0  0  0
   20.3013  -19.4257  -16.3870 C   0  0  0  0  0  0  0  0  0  0  0  0
   23.9814  -20.4267  -14.4455 O   0  0  0  0  0  0  0  0  0  0  0  0
   24.1567  -21.6426  -14.4812 N   0  0  0  0  0  0  0  0  0  0  0  0
   23.7139  -19.8403  -13.1824 C   0  0  1  0  0  0  0  0  0  0  0  0
   23.6615  -20.6427  -11.9504 C   0  0  0  0  0  0  0  0  0  0  0  0
   24.4175  -19.9231  -10.8644 C   0  0  0  0  0  0  0  0  0  0  0  0
   25.8621  -19.8220  -11.1653 C   0  0  0  0  0  0  0  0  0  0  0  0
   26.3243  -18.8829  -12.0589 C   0  0  0  0  0  0  0  0  0  0  0  0
   27.6593  -18.7636  -12.3501 C   0  0  0  0  0  0  0  0  0  0  0  0
   28.5519  -19.6151  -11.7227 C   0  0  0  0  0  0  0  0  0  0  0  0
   28.1312  -20.5631  -10.8268 C   0  0  0  0  0  0  0  0  0  0  0  0
   26.7760  -20.6452  -10.5656 C   0  0  0  0  0  0  0  0  0  0  0  0
   22.2772  -20.9755  -11.6068 O   0  0  0  0  0  0  0  0  0  0  0  0
   21.3663  -20.1500  -11.8908 O   0  0  0  0  0  0  0  0  0  0  0  0
  2  3  2  0
  2  1  1  0
  4  2  1  0
  5  4  1  0
  6  5  1  0
  7  6  1  0
  8  9  1  6
  8  7  1  0
 10 12  1  0
 10  8  1  0
 11 10  2  0
 13 12  1  0
 13 14  1  6
 14 15  1  0
 15 16  2  0
 16 17  1  0
 18 17  1  0
 19 15  1  0
 19 18  2  0
 20 13  1  0
 21 20  2  0
 22 20  1  0
 23 31  1  0
 23 22  1  0
 24 25  1  0
 23 24  1  1
 25 30  1  0
 25 26  2  0
 26 27  1  0
 27 28  2  0
 29 28  1  0
 30 29  2  0
 31 33  1  0
 32 31  2  0
M  END
$$$$
