RHF.pdb
     RDKit          3D

 33 34  0  0  1  0  0  0  0  0999 V2000
   27.9619  -22.3465  -19.0101 N   0  0  0  0  0  0  0  0  0  0  0  0
   28.9805  -21.6228  -19.6791 C   0  0  0  0  0  0  0  0  0  0  0  0
   29.1507  -21.7404  -20.9521 N   0  0  0  0  0  0  0  0  0  0  0  0
   29.8205  -20.7599  -18.9345 N   0  0  0  0  0  0  0  0  0  0  0  0
   29.4211  -20.4267  -17.5636 C   0  0  0  0  0  0  0  0  0  0  0  0
   29.0845  -18.9715  -17.4567 C   0  0  0  0  0  0  0  0  0  0  0  0
   28.0156  -18.6983  -16.4731 C   0  0  0  0  0  0  0  0  0  0  0  0
   26.7336  -19.4111  -16.6721 C   0  0  2  0  0  0  0  0  0  0  0  0
   26.0782  -19.1155  -17.9082 N   0  0  0  0  0  0  0  0  0  0  0  0
   25.7777  -19.2189  -15.5476 C   0  0  0  0  0  0  0  0  0  0  0  0
   25.2721  -18.0837  -15.3732 O   0  0  0  0  0  0  0  0  0  0  0  0
   29.9526  -21.3254  -21.4516 N   0  0  0  0  0  0  0  0  0  0  0  0
   25.4041  -20.2450  -14.6605 C   0  0  2  0  0  0  0  0  0  0  0  0
   24.3921  -20.0368  -13.5790 C   0  0  0  0  0  0  0  0  0  0  0  0
   23.1778  -20.7596  -14.0818 C   0  0  0  0  0  0  0  0  0  0  0  0
   22.4315  -20.0934  -15.1550 C   0  0  0  0  0  0  0  0  0  0  0  0
   22.3183  -20.4618  -16.4579 N   0  0  0  0  0  0  0  0  0  0  0  0
   21.4705  -19.5993  -17.0743 C   0  0  0  0  0  0  0  0  0  0  0  0
   21.0643  -18.7176  -16.1807 N   0  0  0  0  0  0  0  0  0  0  0  0
   21.6337  -18.9990  -15.0131 C   0  0  0  0  0  0  0  0  0  0  0  0
   24.9166  -20.7832  -12.3843 O   0  0  0  0  0  0  0  0  0  0  0  0
   25.2556  -21.9611  -12.4746 N   0  0  0  0  0  0  0  0  0  0  0  0
   25.0394  -20.1616  -11.1157 C   0  0  1  0  0  0  0  0  0  0  0  0
   25.4108  -20.9220   -9.9123 C   0  0  0  0  0  0  0  0  0  0  0  0
   26.5767  -20.2422   -9.2435 C   0  0  0  0  0  0  0  0  0  0  0  0
   27.8410  -20.4506   -9.9823 C   0  0  0  0  0  0  0  0  0  0  0  0
   28.6768  -19.3899  -10.2476 C   0  0  0  0  0  0  0  0  0  0  0  0
   29.8579  -19.5573  -10.9245 C   0  0  0  0  0  0  0  0  0  0  0  0
   30.2050  -20.8294  -11.3450 C   0  0  0  0  0  0  0  0  0  0  0  0
   29.3998  -21.9111  -11.1002 C   0  0  0  0  0  0  0  0  0  0  0  0
   28.2194  -21.6926  -10.4144 C   0  0  0  0  0  0  0  0  0  0  0  0
   24.2473  -21.1222   -9.0456 O   0  0  0  0  0  0  0  0  0  0  0  0
   23.2024  -20.4511   -9.2682 O   0  0  0  0  0  0  0  0  0  0  0  0
  2  3  2  0
  2  1  1  0
  4  2  1  0
  5  4  1  0
  6  5  1  0
  7  6  1  0
  8  9  1  6
  8  7  1  0
 10 12  1  0
 10  8  1  0
 11 10  2  0
 13 12  1  0
 13 14  1  1
 14 15  1  0
 15 16  2  0
 16 17  1  0
 18 17  1  0
 19 15  1  0
 19 18  2  0
 20 13  1  0
 21 20  2  0
 22 20  1  0
 23 31  1  0
 23 22  1  0
 24 25  1  0
 23 24  1  1
 25 30  1  0
 25 26  2  0
 26 27  1  0
 27 28  2  0
 29 28  1  0
 30 29  2  0
 31 33  1  0
 32 31  2  0
M  END
$$$$
