SVG.pdb
     RDKit          3D

 18 17  0  0  1  0  0  0  0  0999 V2000
    6.6043  -19.6397   20.4351 O   0  0  0  0  0  0  0  0  0  0  0  0
    5.5273  -18.8608   20.0802 C   0  0  0  0  0  0  0  0  0  0  0  0
    5.9381  -17.9482   18.9252 C   0  0  2  0  0  0  0  0  0  0  0  0
    6.4408  -18.8248   17.8686 N   0  0  0  0  0  0  0  0  0  0  0  0
    7.0088  -17.0257   19.3218 C   0  0  0  0  0  0  0  0  0  0  0  0
    8.2235  -17.3090   19.1204 O   0  0  0  0  0  0  0  0  0  0  0  0
    8.5573  -12.5580   20.6062 C   0  0  0  0  0  0  0  0  0  0  0  0
    7.4060  -13.4897   20.3494 C   0  0  2  0  0  0  0  0  0  0  0  0
    6.2469  -13.2123   21.2759 C   0  0  0  0  0  0  0  0  0  0  0  0
    7.8460  -14.9330   20.3936 C   0  0  2  0  0  0  0  0  0  0  0  0
    6.7549  -15.7746   19.9474 N   0  0  0  0  0  0  0  0  0  0  0  0
    8.3514  -15.3312   21.7213 C   0  0  0  0  0  0  0  0  0  0  0  0
    7.5351  -15.5249   22.6430 O   0  0  0  0  0  0  0  0  0  0  0  0
    9.7297  -15.5101   22.0185 N   0  0  0  0  0  0  0  0  0  0  0  0
   10.2387  -15.9377   23.2800 C   0  0  0  0  0  0  0  0  0  0  0  0
   11.7023  -15.9983   23.3466 C   0  0  0  0  0  0  0  0  0  0  0  0
   12.4027  -16.3188   24.4964 O   0  0  0  0  0  0  0  0  0  0  0  0
   12.3662  -15.7475   22.3098 O   0  0  0  0  0  0  0  0  0  0  0  0
  1  2  1  0
  3  2  1  0
  3  4  1  6
  5 11  1  0
  5  3  1  0
  6  5  2  0
  8  7  1  1
  9  8  1  0
 10 11  1  1
 10  8  1  0
 12 13  2  0
 12 10  1  0
 14 12  1  0
 15 14  1  0
 15 16  1  0
 16 17  1  0
 18 16  2  0
M  END
$$$$
