SVG.pdb
     RDKit          3D

 18 17  0  0  1  0  0  0  0  0999 V2000
    7.3042  -16.9000   22.2581 O   0  0  0  0  0  0  0  0  0  0  0  0
    6.3398  -16.0311   21.8027 C   0  0  0  0  0  0  0  0  0  0  0  0
    6.9662  -14.6485   21.6247 C   0  0  2  0  0  0  0  0  0  0  0  0
    7.9233  -14.7702   20.5262 N   0  0  0  0  0  0  0  0  0  0  0  0
    7.6851  -14.2231   22.8316 C   0  0  0  0  0  0  0  0  0  0  0  0
    8.9408  -14.3336   22.9175 O   0  0  0  0  0  0  0  0  0  0  0  0
    7.8280  -11.6594   27.0203 C   0  0  0  0  0  0  0  0  0  0  0  0
    7.0025  -12.2497   25.9115 C   0  0  2  0  0  0  0  0  0  0  0  0
    5.6778  -12.7673   26.4175 C   0  0  0  0  0  0  0  0  0  0  0  0
    7.7761  -13.2969   25.1474 C   0  0  2  0  0  0  0  0  0  0  0  0
    7.0284  -13.6682   23.9638 N   0  0  0  0  0  0  0  0  0  0  0  0
    8.1218  -14.4655   25.9790 C   0  0  0  0  0  0  0  0  0  0  0  0
    7.3387  -14.8134   26.8839 O   0  0  0  0  0  0  0  0  0  0  0  0
    9.3084  -15.2294   25.8098 N   0  0  0  0  0  0  0  0  0  0  0  0
    9.6447  -16.3854   26.5740 C   0  0  0  0  0  0  0  0  0  0  0  0
   10.8769  -17.0524   26.1414 C   0  0  0  0  0  0  0  0  0  0  0  0
   11.6406  -16.6267   25.0686 O   0  0  0  0  0  0  0  0  0  0  0  0
   11.2697  -18.0660   26.7714 O   0  0  0  0  0  0  0  0  0  0  0  0
  1  2  1  0
  3  2  1  0
  3  4  1  6
  5 11  1  0
  5  3  1  0
  6  5  2  0
  8  7  1  1
  9  8  1  0
 10 11  1  6
 10  8  1  0
 12 13  2  0
 12 10  1  0
 14 12  1  0
 15 14  1  0
 15 16  1  0
 16 17  1  0
 18 16  2  0
M  END
$$$$
