SVG.pdb
     RDKit          3D

 18 17  0  0  1  0  0  0  0  0999 V2000
    7.3539  -17.1022   22.0559 O   0  0  0  0  0  0  0  0  0  0  0  0
    6.2131  -16.3491   21.9008 C   0  0  0  0  0  0  0  0  0  0  0  0
    6.6033  -14.8737   21.8210 C   0  0  2  0  0  0  0  0  0  0  0  0
    7.4221  -14.7305   20.6183 N   0  0  0  0  0  0  0  0  0  0  0  0
    7.3983  -14.4628   22.9844 C   0  0  0  0  0  0  0  0  0  0  0  0
    8.6600  -14.4201   22.9318 O   0  0  0  0  0  0  0  0  0  0  0  0
    6.3055  -11.6402   25.5572 C   0  0  0  0  0  0  0  0  0  0  0  0
    6.8477  -12.8393   26.2836 C   0  0  2  0  0  0  0  0  0  0  0  0
    7.6321  -12.4404   27.5101 C   0  0  0  0  0  0  0  0  0  0  0  0
    7.6396  -13.7313   25.3584 C   0  0  2  0  0  0  0  0  0  0  0  0
    6.8124  -14.0919   24.2255 N   0  0  0  0  0  0  0  0  0  0  0  0
    8.1911  -14.9144   26.0461 C   0  0  0  0  0  0  0  0  0  0  0  0
    7.4352  -15.6042   26.7573 O   0  0  0  0  0  0  0  0  0  0  0  0
    9.5492  -15.3216   25.9464 N   0  0  0  0  0  0  0  0  0  0  0  0
   10.1212  -16.4184   26.6557 C   0  0  0  0  0  0  0  0  0  0  0  0
   11.5233  -16.6846   26.3186 C   0  0  0  0  0  0  0  0  0  0  0  0
   12.2945  -17.6411   26.9555 O   0  0  0  0  0  0  0  0  0  0  0  0
   12.0636  -16.0141   25.4037 O   0  0  0  0  0  0  0  0  0  0  0  0
  1  2  1  0
  3  2  1  0
  3  4  1  6
  5 11  1  0
  5  3  1  0
  6  5  2  0
  8  7  1  6
  9  8  1  0
 10 11  1  6
 10  8  1  0
 12 13  2  0
 12 10  1  0
 14 12  1  0
 15 14  1  0
 15 16  1  0
 16 17  1  0
 18 16  2  0
M  END
$$$$
