SVG.pdb
     RDKit          3D

 18 17  0  0  1  0  0  0  0  0999 V2000
    6.4696  -19.5870   26.7341 O   0  0  0  0  0  0  0  0  0  0  0  0
    7.0464  -18.7157   25.8393 C   0  0  0  0  0  0  0  0  0  0  0  0
    5.9761  -17.7504   25.3313 C   0  0  2  0  0  0  0  0  0  0  0  0
    5.3391  -18.4074   24.1910 N   0  0  0  0  0  0  0  0  0  0  0  0
    6.5638  -16.4841   24.8779 C   0  0  0  0  0  0  0  0  0  0  0  0
    6.9994  -16.3505   23.6995 O   0  0  0  0  0  0  0  0  0  0  0  0
    7.4378  -13.1560   27.6150 C   0  0  0  0  0  0  0  0  0  0  0  0
    7.1916  -13.0268   26.1377 C   0  0  2  0  0  0  0  0  0  0  0  0
    5.7654  -12.6296   25.8428 C   0  0  0  0  0  0  0  0  0  0  0  0
    7.6057  -14.2770   25.3997 C   0  0  2  0  0  0  0  0  0  0  0  0
    6.6799  -15.3440   25.7193 N   0  0  0  0  0  0  0  0  0  0  0  0
    9.0067  -14.6548   25.6662 C   0  0  0  0  0  0  0  0  0  0  0  0
    9.3753  -14.8067   26.8470 O   0  0  0  0  0  0  0  0  0  0  0  0
    9.9752  -14.8592   24.6462 N   0  0  0  0  0  0  0  0  0  0  0  0
   11.3404  -15.1980   24.8800 C   0  0  0  0  0  0  0  0  0  0  0  0
   12.0908  -15.5351   23.6662 C   0  0  0  0  0  0  0  0  0  0  0  0
   11.5204  -15.5956   22.4067 O   0  0  0  0  0  0  0  0  0  0  0  0
   13.3185  -15.7841   23.7632 O   0  0  0  0  0  0  0  0  0  0  0  0
  1  2  1  0
  3  2  1  0
  3  4  1  6
  5 11  1  0
  5  3  1  0
  6  5  2  0
  8  7  1  1
  9  8  1  0
 10 11  1  1
 10  8  1  0
 12 13  2  0
 12 10  1  0
 14 12  1  0
 15 14  1  0
 15 16  1  0
 16 17  1  0
 18 16  2  0
M  END
$$$$
