SVG.pdb
     RDKit          3D

 18 17  0  0  1  0  0  0  0  0999 V2000
    6.9606  -16.5454   21.6813 O   0  0  0  0  0  0  0  0  0  0  0  0
    6.4596  -15.3057   21.3577 C   0  0  0  0  0  0  0  0  0  0  0  0
    7.5001  -14.2448   21.7146 C   0  0  2  0  0  0  0  0  0  0  0  0
    8.6530  -14.4941   20.8509 N   0  0  0  0  0  0  0  0  0  0  0  0
    7.9266  -14.3577   23.1146 C   0  0  0  0  0  0  0  0  0  0  0  0
    9.0094  -14.9305   23.4239 O   0  0  0  0  0  0  0  0  0  0  0  0
    5.5107  -13.0260   26.4818 C   0  0  0  0  0  0  0  0  0  0  0  0
    7.0088  -12.9204   26.4185 C   0  0  2  0  0  0  0  0  0  0  0  0
    7.4528  -11.5456   25.9811 C   0  0  0  0  0  0  0  0  0  0  0  0
    7.6018  -14.0157   25.5655 C   0  0  2  0  0  0  0  0  0  0  0  0
    7.1634  -13.8394   24.1963 N   0  0  0  0  0  0  0  0  0  0  0  0
    7.2959  -15.3640   26.0806 C   0  0  0  0  0  0  0  0  0  0  0  0
    6.1308  -15.7956   25.9832 O   0  0  0  0  0  0  0  0  0  0  0  0
    8.2603  -16.2124   26.6890 N   0  0  0  0  0  0  0  0  0  0  0  0
    7.9977  -17.5330   27.1583 C   0  0  0  0  0  0  0  0  0  0  0  0
    9.1454  -18.1795   27.8028 C   0  0  0  0  0  0  0  0  0  0  0  0
    9.1088  -19.4623   28.3209 O   0  0  0  0  0  0  0  0  0  0  0  0
   10.2251  -17.5436   27.8950 O   0  0  0  0  0  0  0  0  0  0  0  0
  1  2  1  0
  3  2  1  0
  3  4  1  6
  5 11  1  0
  5  3  1  0
  6  5  2  0
  8  7  1  6
  9  8  1  0
 10 11  1  6
 10  8  1  0
 12 13  2  0
 12 10  1  0
 14 12  1  0
 15 14  1  0
 15 16  1  0
 16 17  1  0
 18 16  2  0
M  END
$$$$
