SVG.pdb
     RDKit          3D

 18 17  0  0  1  0  0  0  0  0999 V2000
    7.9417  -19.3891   19.0087 O   0  0  0  0  0  0  0  0  0  0  0  0
    6.8373  -18.5860   18.8413 C   0  0  0  0  0  0  0  0  0  0  0  0
    7.2557  -17.3224   18.0905 C   0  0  2  0  0  0  0  0  0  0  0  0
    7.9723  -17.7721   16.8982 N   0  0  0  0  0  0  0  0  0  0  0  0
    8.1569  -16.4901   18.8964 C   0  0  0  0  0  0  0  0  0  0  0  0
    9.4039  -16.4906   18.6930 O   0  0  0  0  0  0  0  0  0  0  0  0
    6.8184  -13.6945   21.9813 C   0  0  0  0  0  0  0  0  0  0  0  0
    7.9862  -13.5240   21.0504 C   0  0  2  0  0  0  0  0  0  0  0  0
    7.6052  -12.7449   19.8149 C   0  0  0  0  0  0  0  0  0  0  0  0
    8.6246  -14.8516   20.7200 C   0  0  2  0  0  0  0  0  0  0  0  0
    7.6951  -15.6430   19.9406 N   0  0  0  0  0  0  0  0  0  0  0  0
    9.0978  -15.5674   21.9202 C   0  0  0  0  0  0  0  0  0  0  0  0
    8.2703  -16.1838   22.6190 O   0  0  0  0  0  0  0  0  0  0  0  0
   10.4571  -15.5980   22.3344 N   0  0  0  0  0  0  0  0  0  0  0  0
   10.9435  -16.3123   23.4685 C   0  0  0  0  0  0  0  0  0  0  0  0
   12.3996  -16.2563   23.6331 C   0  0  0  0  0  0  0  0  0  0  0  0
   13.0388  -16.4271   24.8486 O   0  0  0  0  0  0  0  0  0  0  0  0
   13.1150  -16.0423   22.6227 O   0  0  0  0  0  0  0  0  0  0  0  0
  1  2  1  0
  3  2  1  0
  3  4  1  6
  5 11  1  0
  5  3  1  0
  6  5  2  0
  8  7  1  1
  9  8  1  0
 10 11  1  1
 10  8  1  0
 12 13  2  0
 12 10  1  0
 14 12  1  0
 15 14  1  0
 15 16  1  0
 16 17  1  0
 18 16  2  0
M  END
$$$$
