SVG.pdb
     RDKit          3D

 18 17  0  0  1  0  0  0  0  0999 V2000
    9.4230  -19.1636   19.7141 O   0  0  0  0  0  0  0  0  0  0  0  0
    8.1607  -18.8885   19.2413 C   0  0  0  0  0  0  0  0  0  0  0  0
    8.2354  -17.6782   18.3113 C   0  0  2  0  0  0  0  0  0  0  0  0
    9.1627  -18.0403   17.2405 N   0  0  0  0  0  0  0  0  0  0  0  0
    8.7570  -16.4954   19.0067 C   0  0  0  0  0  0  0  0  0  0  0  0
    9.9714  -16.1612   18.9072 O   0  0  0  0  0  0  0  0  0  0  0  0
    6.8893  -12.9320   19.5168 C   0  0  0  0  0  0  0  0  0  0  0  0
    7.4229  -13.5190   20.7936 C   0  0  2  0  0  0  0  0  0  0  0  0
    7.8594  -12.4455   21.7610 C   0  0  0  0  0  0  0  0  0  0  0  0
    8.5130  -14.5274   20.5220 C   0  0  2  0  0  0  0  0  0  0  0  0
    7.9451  -15.6621   19.8237 N   0  0  0  0  0  0  0  0  0  0  0  0
    9.2325  -14.9280   21.7462 C   0  0  0  0  0  0  0  0  0  0  0  0
    9.8484  -14.0596   22.3941 O   0  0  0  0  0  0  0  0  0  0  0  0
    9.2673  -16.2607   22.2390 N   0  0  0  0  0  0  0  0  0  0  0  0
    9.8838  -16.6574   23.4621 C   0  0  0  0  0  0  0  0  0  0  0  0
   11.3447  -16.7624   23.3905 C   0  0  0  0  0  0  0  0  0  0  0  0
   12.1435  -17.0684   24.4784 O   0  0  0  0  0  0  0  0  0  0  0  0
   11.9123  -16.5659   22.2869 O   0  0  0  0  0  0  0  0  0  0  0  0
  1  2  1  0
  3  2  1  0
  3  4  1  6
  5 11  1  0
  5  3  1  0
  6  5  2  0
  8  7  1  6
  9  8  1  0
 10 11  1  1
 10  8  1  0
 12 13  2  0
 12 10  1  0
 14 12  1  0
 15 14  1  0
 15 16  1  0
 16 17  1  0
 18 16  2  0
M  END
$$$$
