SVG.pdb
     RDKit          3D

 18 17  0  0  1  0  0  0  0  0999 V2000
    6.2385  -16.5234   20.2037 O   0  0  0  0  0  0  0  0  0  0  0  0
    6.7043  -16.2020   21.4575 C   0  0  0  0  0  0  0  0  0  0  0  0
    7.0399  -14.7115   21.4918 C   0  0  2  0  0  0  0  0  0  0  0  0
    7.8700  -14.4508   20.3169 N   0  0  0  0  0  0  0  0  0  0  0  0
    7.8022  -14.3582   22.6954 C   0  0  0  0  0  0  0  0  0  0  0  0
    9.0487  -14.5539   22.7605 O   0  0  0  0  0  0  0  0  0  0  0  0
    8.1322  -12.3546   27.1801 C   0  0  0  0  0  0  0  0  0  0  0  0
    7.2920  -12.6403   25.9669 C   0  0  2  0  0  0  0  0  0  0  0  0
    5.8664  -12.9674   26.3405 C   0  0  0  0  0  0  0  0  0  0  0  0
    7.9197  -13.7063   25.1017 C   0  0  2  0  0  0  0  0  0  0  0  0
    7.1997  -13.7826   23.8473 N   0  0  0  0  0  0  0  0  0  0  0  0
    7.9986  -15.0138   25.7807 C   0  0  0  0  0  0  0  0  0  0  0  0
    6.9475  -15.6528   25.9806 O   0  0  0  0  0  0  0  0  0  0  0  0
    9.2153  -15.5976   26.2269 N   0  0  0  0  0  0  0  0  0  0  0  0
    9.3272  -16.8949   26.8079 C   0  0  0  0  0  0  0  0  0  0  0  0
   10.0308  -16.9170   28.0943 C   0  0  0  0  0  0  0  0  0  0  0  0
   10.1741  -18.0555   28.8681 O   0  0  0  0  0  0  0  0  0  0  0  0
   10.5347  -15.8504   28.5269 O   0  0  0  0  0  0  0  0  0  0  0  0
  1  2  1  0
  3  2  1  0
  3  4  1  6
  5 11  1  0
  5  3  1  0
  6  5  2  0
  8  7  1  1
  9  8  1  0
 10 11  1  6
 10  8  1  0
 12 13  2  0
 12 10  1  0
 14 12  1  0
 15 14  1  0
 15 16  1  0
 16 17  1  0
 18 16  2  0
M  END
$$$$
