SVG.pdb
     RDKit          3D

 18 17  0  0  1  0  0  0  0  0999 V2000
    6.3099  -16.6780   22.2336 O   0  0  0  0  0  0  0  0  0  0  0  0
    6.8333  -16.0688   21.1167 C   0  0  0  0  0  0  0  0  0  0  0  0
    6.8831  -14.5602   21.3555 C   0  0  2  0  0  0  0  0  0  0  0  0
    7.5097  -13.9778   20.1699 N   0  0  0  0  0  0  0  0  0  0  0  0
    7.6970  -14.2272   22.5308 C   0  0  0  0  0  0  0  0  0  0  0  0
    8.9588  -14.2097   22.4684 O   0  0  0  0  0  0  0  0  0  0  0  0
    8.1685  -12.5309   27.1256 C   0  0  0  0  0  0  0  0  0  0  0  0
    7.3187  -12.7656   25.9081 C   0  0  2  0  0  0  0  0  0  0  0  0
    5.9114  -13.1664   26.2794 C   0  0  0  0  0  0  0  0  0  0  0  0
    7.9680  -13.7498   24.9655 C   0  0  2  0  0  0  0  0  0  0  0  0
    7.1301  -13.9077   23.7947 N   0  0  0  0  0  0  0  0  0  0  0  0
    8.2710  -15.0402   25.6135 C   0  0  0  0  0  0  0  0  0  0  0  0
    7.3405  -15.8431   25.8206 O   0  0  0  0  0  0  0  0  0  0  0  0
    9.5755  -15.4297   26.0217 N   0  0  0  0  0  0  0  0  0  0  0  0
    9.9393  -16.7480   26.4253 C   0  0  0  0  0  0  0  0  0  0  0  0
    9.8590  -16.9757   27.8717 C   0  0  0  0  0  0  0  0  0  0  0  0
   10.4501  -16.1477   28.8100 O   0  0  0  0  0  0  0  0  0  0  0  0
    9.2217  -17.9732   28.2929 O   0  0  0  0  0  0  0  0  0  0  0  0
  1  2  1  0
  3  2  1  0
  3  4  1  6
  5 11  1  0
  5  3  1  0
  6  5  2  0
  8  7  1  1
  9  8  1  0
 10 11  1  6
 10  8  1  0
 12 13  2  0
 12 10  1  0
 14 12  1  0
 15 14  1  0
 15 16  1  0
 16 17  1  0
 18 16  2  0
M  END
$$$$
