SVG.pdb
     RDKit          3D

 18 17  0  0  1  0  0  0  0  0999 V2000
    8.0361  -19.2128   19.4412 O   0  0  0  0  0  0  0  0  0  0  0  0
    6.8414  -18.6563   19.0467 C   0  0  0  0  0  0  0  0  0  0  0  0
    7.1277  -17.3637   18.2834 C   0  0  2  0  0  0  0  0  0  0  0  0
    7.7557  -17.7614   17.0244 N   0  0  0  0  0  0  0  0  0  0  0  0
    8.0555  -16.4970   19.0200 C   0  0  0  0  0  0  0  0  0  0  0  0
    9.2945  -16.5061   18.7726 O   0  0  0  0  0  0  0  0  0  0  0  0
    6.8219  -13.4815   21.9242 C   0  0  0  0  0  0  0  0  0  0  0  0
    8.0113  -13.4305   21.0064 C   0  0  2  0  0  0  0  0  0  0  0  0
    7.6888  -12.7185   19.7149 C   0  0  0  0  0  0  0  0  0  0  0  0
    8.5884  -14.8064   20.7770 C   0  0  2  0  0  0  0  0  0  0  0  0
    7.6296  -15.6056   20.0422 N   0  0  0  0  0  0  0  0  0  0  0  0
    9.0152  -15.4584   22.0298 C   0  0  0  0  0  0  0  0  0  0  0  0
    8.1474  -15.9380   22.7849 O   0  0  0  0  0  0  0  0  0  0  0  0
   10.3727  -15.5749   22.4344 N   0  0  0  0  0  0  0  0  0  0  0  0
   10.8106  -16.2194   23.6286 C   0  0  0  0  0  0  0  0  0  0  0  0
   12.2617  -16.1764   23.8355 C   0  0  0  0  0  0  0  0  0  0  0  0
   12.8930  -16.7213   24.9400 O   0  0  0  0  0  0  0  0  0  0  0  0
   12.9802  -15.6172   22.9697 O   0  0  0  0  0  0  0  0  0  0  0  0
  1  2  1  0
  3  2  1  0
  3  4  1  6
  5 11  1  0
  5  3  1  0
  6  5  2  0
  8  7  1  1
  9  8  1  0
 10 11  1  1
 10  8  1  0
 12 13  2  0
 12 10  1  0
 14 12  1  0
 15 14  1  0
 15 16  1  0
 16 17  1  0
 18 16  2  0
M  END
$$$$
