SVG.pdb
     RDKit          3D

 18 17  0  0  1  0  0  0  0  0999 V2000
    6.0735  -19.3532   18.0094 O   0  0  0  0  0  0  0  0  0  0  0  0
    7.1869  -18.7890   18.5877 C   0  0  0  0  0  0  0  0  0  0  0  0
    7.3902  -17.3908   18.0055 C   0  0  2  0  0  0  0  0  0  0  0  0
    8.0366  -17.5770   16.7074 N   0  0  0  0  0  0  0  0  0  0  0  0
    8.2657  -16.5751   18.8555 C   0  0  0  0  0  0  0  0  0  0  0  0
    9.5229  -16.6861   18.7959 O   0  0  0  0  0  0  0  0  0  0  0  0
    6.8506  -13.7092   21.8678 C   0  0  0  0  0  0  0  0  0  0  0  0
    8.0085  -13.5155   20.9290 C   0  0  2  0  0  0  0  0  0  0  0  0
    7.6038  -12.7435   19.6965 C   0  0  0  0  0  0  0  0  0  0  0  0
    8.6704  -14.8302   20.5935 C   0  0  2  0  0  0  0  0  0  0  0  0
    7.7666  -15.6228   19.7857 N   0  0  0  0  0  0  0  0  0  0  0  0
    9.1297  -15.5560   21.7931 C   0  0  0  0  0  0  0  0  0  0  0  0
    8.2874  -16.1371   22.5045 O   0  0  0  0  0  0  0  0  0  0  0  0
   10.4913  -15.6348   22.1931 N   0  0  0  0  0  0  0  0  0  0  0  0
   10.9490  -16.2477   23.3964 C   0  0  0  0  0  0  0  0  0  0  0  0
   12.4086  -16.2849   23.5327 C   0  0  0  0  0  0  0  0  0  0  0  0
   13.0589  -16.6975   24.6826 O   0  0  0  0  0  0  0  0  0  0  0  0
   13.1166  -15.9249   22.5592 O   0  0  0  0  0  0  0  0  0  0  0  0
  1  2  1  0
  3  2  1  0
  3  4  1  6
  5 11  1  0
  5  3  1  0
  6  5  2  0
  8  7  1  1
  9  8  1  0
 10 11  1  1
 10  8  1  0
 12 13  2  0
 12 10  1  0
 14 12  1  0
 15 14  1  0
 15 16  1  0
 16 17  1  0
 18 16  2  0
M  END
$$$$
