GPY.pdb
     RDKit          3D

 24 25  0  0  1  0  0  0  0  0999 V2000
   26.5052  -22.8825  -17.2224 N   0  0  0  0  0  0  0  0  0  0  0  0
   26.0583  -21.7438  -16.4992 C   0  0  0  0  0  0  0  0  0  0  0  0
   26.6540  -21.5170  -15.1904 C   0  0  0  0  0  0  0  0  0  0  0  0
   26.9869  -22.5114  -14.5029 O   0  0  0  0  0  0  0  0  0  0  0  0
   26.8613  -20.2158  -14.6872 N   0  0  0  0  0  0  0  0  0  0  0  0
   26.5037  -18.9966  -15.3676 C   0  0  0  0  0  0  0  0  0  0  0  0
   26.9453  -17.8414  -14.4957 C   0  0  0  0  0  0  0  0  0  0  0  0
   27.8663  -18.4467  -13.4572 C   0  0  0  0  0  0  0  0  0  0  0  0
   27.4767  -19.9073  -13.3867 C   0  0  1  0  0  0  0  0  0  0  0  0
   26.4697  -20.1483  -12.2935 C   0  0  0  0  0  0  0  0  0  0  0  0
   25.2403  -20.0167  -12.5167 O   0  0  0  0  0  0  0  0  0  0  0  0
   28.8361  -18.4954   -5.1043 O   0  0  0  0  0  0  0  0  0  0  0  0
   28.3630  -19.3469   -6.0808 C   0  0  0  0  0  0  0  0  0  0  0  0
   29.2226  -19.8802   -7.0270 C   0  0  0  0  0  0  0  0  0  0  0  0
   28.7355  -20.7204   -7.9846 C   0  0  0  0  0  0  0  0  0  0  0  0
   27.4060  -21.0749   -8.0639 C   0  0  0  0  0  0  0  0  0  0  0  0
   26.8481  -21.9761   -9.0924 C   0  0  0  0  0  0  0  0  0  0  0  0
   25.9966  -21.1823  -10.0412 C   0  0  2  0  0  0  0  0  0  0  0  0
   26.9000  -20.5262  -11.0009 N   0  0  0  0  0  0  0  0  0  0  0  0
   25.1309  -20.1971   -9.3897 C   0  0  0  0  0  0  0  0  0  0  0  0
   23.9301  -20.5252   -8.8190 O   0  0  0  0  0  0  0  0  0  0  0  0
   26.5583  -20.5232   -7.0971 C   0  0  0  0  0  0  0  0  0  0  0  0
   27.0222  -19.6714   -6.1173 C   0  0  0  0  0  0  0  0  0  0  0  0
   25.5112  -18.9732   -9.3525 O   0  0  0  0  0  0  0  0  0  0  0  0
  1  2  1  0
  2  3  1  0
  3  4  2  0
  5  9  1  0
  5  3  1  0
  6  5  1  0
  7  6  1  0
  7  8  1  0
  8  9  1  0
  9 10  1  1
 10 11  2  0
 10 19  1  0
 12 13  1  0
 13 14  2  0
 14 15  1  0
 16 15  2  0
 16 17  1  0
 18 17  1  1
 18 20  1  0
 19 18  1  0
 20 24  2  0
 20 21  1  0
 22 16  1  0
 23 13  1  0
 23 22  2  0
M  END
$$$$
