GPY.pdb
     RDKit          3D

 24 25  0  0  1  0  0  0  0  0999 V2000
   25.8803  -19.2283  -16.7993 N   0  0  0  0  0  0  0  0  0  0  0  0
   26.5620  -18.9390  -15.5864 C   0  0  0  0  0  0  0  0  0  0  0  0
   26.4716  -19.9312  -14.5251 C   0  0  0  0  0  0  0  0  0  0  0  0
   25.4244  -20.6143  -14.4308 O   0  0  0  0  0  0  0  0  0  0  0  0
   27.5269  -20.1362  -13.6120 N   0  0  0  0  0  0  0  0  0  0  0  0
   28.7959  -19.4537  -13.6442 C   0  0  0  0  0  0  0  0  0  0  0  0
   29.6412  -20.0094  -12.5188 C   0  0  0  0  0  0  0  0  0  0  0  0
   28.9304  -21.2656  -12.0607 C   0  0  0  0  0  0  0  0  0  0  0  0
   27.4896  -21.0818  -12.4852 C   0  0  1  0  0  0  0  0  0  0  0  0
   26.6666  -20.4914  -11.3711 C   0  0  0  0  0  0  0  0  0  0  0  0
   26.4666  -19.2525  -11.3117 O   0  0  0  0  0  0  0  0  0  0  0  0
   28.6848  -19.9426   -4.4014 O   0  0  0  0  0  0  0  0  0  0  0  0
   27.9011  -19.8151   -5.5291 C   0  0  0  0  0  0  0  0  0  0  0  0
   27.8027  -18.5988   -6.1845 C   0  0  0  0  0  0  0  0  0  0  0  0
   27.0224  -18.4930   -7.2982 C   0  0  0  0  0  0  0  0  0  0  0  0
   26.3112  -19.5529   -7.8178 C   0  0  0  0  0  0  0  0  0  0  0  0
   25.4533  -19.4677   -9.0169 C   0  0  0  0  0  0  0  0  0  0  0  0
   25.0677  -20.8521   -9.4529 C   0  0  2  0  0  0  0  0  0  0  0  0
   26.1092  -21.3290  -10.3778 N   0  0  0  0  0  0  0  0  0  0  0  0
   23.7450  -20.9386  -10.0750 C   0  0  0  0  0  0  0  0  0  0  0  0
   23.5580  -21.3432  -11.3700 O   0  0  0  0  0  0  0  0  0  0  0  0
   26.4272  -20.7704   -7.1380 C   0  0  0  0  0  0  0  0  0  0  0  0
   27.2082  -20.9073   -6.0101 C   0  0  0  0  0  0  0  0  0  0  0  0
   22.7159  -20.6207   -9.3794 O   0  0  0  0  0  0  0  0  0  0  0  0
  1  2  1  0
  2  3  1  0
  3  4  2  0
  5  9  1  0
  5  3  1  0
  6  5  1  0
  7  6  1  0
  7  8  1  0
  8  9  1  0
  9 10  1  1
 10 11  2  0
 10 19  1  0
 12 13  1  0
 13 14  2  0
 14 15  1  0
 16 15  2  0
 16 17  1  0
 18 17  1  6
 18 20  1  0
 19 18  1  0
 20 24  2  0
 20 21  1  0
 22 16  1  0
 23 13  1  0
 23 22  2  0
M  END
$$$$
