GPY.pdb
     RDKit          3D

 24 25  0  0  1  0  0  0  0  0999 V2000
   27.7830  -18.6925  -16.8944 N   0  0  0  0  0  0  0  0  0  0  0  0
   28.4114  -18.7195  -15.6200 C   0  0  0  0  0  0  0  0  0  0  0  0
   27.8402  -19.6110  -14.6209 C   0  0  0  0  0  0  0  0  0  0  0  0
   26.6584  -20.0018  -14.7718 O   0  0  0  0  0  0  0  0  0  0  0  0
   28.5820  -20.0381  -13.4999 N   0  0  0  0  0  0  0  0  0  0  0  0
   29.9476  -19.6717  -13.2203 C   0  0  0  0  0  0  0  0  0  0  0  0
   30.3610  -20.3864  -11.9522 C   0  0  0  0  0  0  0  0  0  0  0  0
   29.2931  -21.4325  -11.7103 C   0  0  0  0  0  0  0  0  0  0  0  0
   28.0702  -20.9259  -12.4439 C   0  0  1  0  0  0  0  0  0  0  0  0
   27.1745  -20.1372  -11.5258 C   0  0  0  0  0  0  0  0  0  0  0  0
   27.4544  -18.9500  -11.2246 O   0  0  0  0  0  0  0  0  0  0  0  0
   20.8493  -23.1398  -13.3996 O   0  0  0  0  0  0  0  0  0  0  0  0
   21.6287  -22.2102  -12.7433 C   0  0  0  0  0  0  0  0  0  0  0  0
   21.2181  -21.6751  -11.5335 C   0  0  0  0  0  0  0  0  0  0  0  0
   22.0030  -20.7570  -10.9000 C   0  0  0  0  0  0  0  0  0  0  0  0
   23.2080  -20.3233  -11.4092 C   0  0  0  0  0  0  0  0  0  0  0  0
   24.0759  -19.3263  -10.7505 C   0  0  0  0  0  0  0  0  0  0  0  0
   25.1674  -20.0343  -10.0003 C   0  0  2  0  0  0  0  0  0  0  0  0
   26.0059  -20.7276  -10.9923 N   0  0  0  0  0  0  0  0  0  0  0  0
   24.6861  -20.9725   -8.9843 C   0  0  0  0  0  0  0  0  0  0  0  0
   23.9308  -20.5821   -7.9107 O   0  0  0  0  0  0  0  0  0  0  0  0
   23.6005  -20.8787  -12.6320 C   0  0  0  0  0  0  0  0  0  0  0  0
   22.8281  -21.8085  -13.2950 C   0  0  0  0  0  0  0  0  0  0  0  0
   24.9852  -22.2137   -9.1021 O   0  0  0  0  0  0  0  0  0  0  0  0
  1  2  1  0
  2  3  1  0
  3  4  2  0
  5  9  1  0
  5  3  1  0
  6  5  1  0
  7  6  1  0
  7  8  1  0
  8  9  1  0
  9 10  1  1
 10 11  2  0
 10 19  1  0
 12 13  1  0
 13 14  2  0
 14 15  1  0
 16 15  2  0
 16 17  1  0
 18 17  1  6
 18 20  1  0
 19 18  1  0
 20 24  2  0
 20 21  1  0
 22 16  1  0
 23 13  1  0
 23 22  2  0
M  END
$$$$
