GPY.pdb
     RDKit          3D

 24 25  0  0  1  0  0  0  0  0999 V2000
   27.7528  -21.6042  -15.4324 N   0  0  0  0  0  0  0  0  0  0  0  0
   27.3676  -20.9378  -14.2378 C   0  0  0  0  0  0  0  0  0  0  0  0
   26.0844  -21.3090  -13.6589 C   0  0  0  0  0  0  0  0  0  0  0  0
   25.2354  -21.8689  -14.3923 O   0  0  0  0  0  0  0  0  0  0  0  0
   25.7819  -21.0536  -12.3051 N   0  0  0  0  0  0  0  0  0  0  0  0
   26.6701  -20.4229  -11.3614 C   0  0  0  0  0  0  0  0  0  0  0  0
   25.9654  -20.3916  -10.0227 C   0  0  0  0  0  0  0  0  0  0  0  0
   24.7844  -21.3288  -10.1647 C   0  0  0  0  0  0  0  0  0  0  0  0
   24.5087  -21.3949  -11.6512 C   0  0  1  0  0  0  0  0  0  0  0  0
   23.4612  -20.3911  -12.0541 C   0  0  0  0  0  0  0  0  0  0  0  0
   23.7810  -19.2057  -12.3206 O   0  0  0  0  0  0  0  0  0  0  0  0
   18.5936  -19.3283  -18.8908 O   0  0  0  0  0  0  0  0  0  0  0  0
   19.4023  -19.6648  -17.8255 C   0  0  0  0  0  0  0  0  0  0  0  0
   20.3671  -18.7827  -17.3675 C   0  0  0  0  0  0  0  0  0  0  0  0
   21.1571  -19.1340  -16.3126 C   0  0  0  0  0  0  0  0  0  0  0  0
   21.0453  -20.3448  -15.6638 C   0  0  0  0  0  0  0  0  0  0  0  0
   21.8899  -20.7561  -14.5243 C   0  0  0  0  0  0  0  0  0  0  0  0
   21.2353  -20.3325  -13.2407 C   0  0  2  0  0  0  0  0  0  0  0  0
   22.1029  -20.7748  -12.1365 N   0  0  0  0  0  0  0  0  0  0  0  0
   19.8741  -20.8426  -13.0646 C   0  0  0  0  0  0  0  0  0  0  0  0
   19.6045  -22.1486  -12.7528 O   0  0  0  0  0  0  0  0  0  0  0  0
   20.0636  -21.2180  -16.1451 C   0  0  0  0  0  0  0  0  0  0  0  0
   19.2506  -20.8901  -17.2092 C   0  0  0  0  0  0  0  0  0  0  0  0
   18.8902  -20.0334  -13.2098 O   0  0  0  0  0  0  0  0  0  0  0  0
  1  2  1  0
  2  3  1  0
  3  4  2  0
  5  9  1  0
  5  3  1  0
  6  5  1  0
  7  6  1  0
  7  8  1  0
  8  9  1  0
  9 10  1  1
 10 11  2  0
 10 19  1  0
 12 13  1  0
 13 14  2  0
 14 15  1  0
 16 15  2  0
 16 17  1  0
 18 17  1  6
 18 20  1  0
 19 18  1  0
 20 24  2  0
 20 21  1  0
 22 16  1  0
 23 13  1  0
 23 22  2  0
M  END
$$$$
