GPY.pdb
     RDKit          3D

 24 25  0  0  1  0  0  0  0  0999 V2000
   28.1969  -22.6287  -18.1867 N   0  0  0  0  0  0  0  0  0  0  0  0
   27.3934  -21.6143  -17.5996 C   0  0  0  0  0  0  0  0  0  0  0  0
   27.5941  -21.3506  -16.1821 C   0  0  0  0  0  0  0  0  0  0  0  0
   27.9339  -22.3007  -15.4378 O   0  0  0  0  0  0  0  0  0  0  0  0
   27.4156  -20.0621  -15.6367 N   0  0  0  0  0  0  0  0  0  0  0  0
   27.0279  -18.8918  -16.3832 C   0  0  0  0  0  0  0  0  0  0  0  0
   27.0018  -17.7247  -15.4204 C   0  0  0  0  0  0  0  0  0  0  0  0
   27.7146  -18.2105  -14.1757 C   0  0  0  0  0  0  0  0  0  0  0  0
   27.5998  -19.7188  -14.2177 C   0  0  1  0  0  0  0  0  0  0  0  0
   26.4046  -20.1942  -13.4348 C   0  0  0  0  0  0  0  0  0  0  0  0
   25.2609  -20.1994  -13.9547 O   0  0  0  0  0  0  0  0  0  0  0  0
   28.2620  -18.4937   -6.4843 O   0  0  0  0  0  0  0  0  0  0  0  0
   27.7312  -19.3730   -7.4049 C   0  0  0  0  0  0  0  0  0  0  0  0
   26.3628  -19.4372   -7.6097 C   0  0  0  0  0  0  0  0  0  0  0  0
   25.8573  -20.3134   -8.5246 C   0  0  0  0  0  0  0  0  0  0  0  0
   26.6509  -21.1565   -9.2721 C   0  0  0  0  0  0  0  0  0  0  0  0
   26.1328  -22.1198  -10.2644 C   0  0  0  0  0  0  0  0  0  0  0  0
   25.4924  -21.3713  -11.3980 C   0  0  2  0  0  0  0  0  0  0  0  0
   26.5592  -20.6408  -12.1023 N   0  0  0  0  0  0  0  0  0  0  0  0
   24.4250  -20.4574  -10.9864 C   0  0  0  0  0  0  0  0  0  0  0  0
   24.5865  -19.0982  -10.9422 O   0  0  0  0  0  0  0  0  0  0  0  0
   28.0293  -21.0725   -9.0469 C   0  0  0  0  0  0  0  0  0  0  0  0
   28.5688  -20.1966   -8.1290 C   0  0  0  0  0  0  0  0  0  0  0  0
   23.2894  -20.9491  -10.6509 O   0  0  0  0  0  0  0  0  0  0  0  0
  1  2  1  0
  2  3  1  0
  3  4  2  0
  5  9  1  0
  5  3  1  0
  6  5  1  0
  7  6  1  0
  7  8  1  0
  8  9  1  0
  9 10  1  1
 10 11  2  0
 10 19  1  0
 12 13  1  0
 13 14  2  0
 14 15  1  0
 16 15  2  0
 16 17  1  0
 18 17  1  1
 18 20  1  0
 19 18  1  0
 20 24  2  0
 20 21  1  0
 22 16  1  0
 23 13  1  0
 23 22  2  0
M  END
$$$$
