GPY.pdb
     RDKit          3D

 24 25  0  0  1  0  0  0  0  0999 V2000
   30.8106  -22.8921  -14.1569 N   0  0  0  0  0  0  0  0  0  0  0  0
   29.5403  -22.3563  -14.5018 C   0  0  0  0  0  0  0  0  0  0  0  0
   28.9216  -21.4536  -13.5417 C   0  0  0  0  0  0  0  0  0  0  0  0
   29.5207  -21.2214  -12.4650 O   0  0  0  0  0  0  0  0  0  0  0  0
   27.6762  -20.8427  -13.7968 N   0  0  0  0  0  0  0  0  0  0  0  0
   26.8616  -21.0752  -14.9629 C   0  0  0  0  0  0  0  0  0  0  0  0
   25.6429  -20.1850  -14.8527 C   0  0  0  0  0  0  0  0  0  0  0  0
   25.9623  -19.1956  -13.7516 C   0  0  0  0  0  0  0  0  0  0  0  0
   27.0197  -19.8723  -12.9066 C   0  0  1  0  0  0  0  0  0  0  0  0
   26.4001  -20.6057  -11.7466 C   0  0  0  0  0  0  0  0  0  0  0  0
   25.9601  -21.7737  -11.8905 O   0  0  0  0  0  0  0  0  0  0  0  0
   30.2645  -19.9984   -5.1237 O   0  0  0  0  0  0  0  0  0  0  0  0
   29.1142  -19.9172   -5.8803 C   0  0  0  0  0  0  0  0  0  0  0  0
   28.4159  -21.0626   -6.2254 C   0  0  0  0  0  0  0  0  0  0  0  0
   27.2805  -20.9615   -6.9743 C   0  0  0  0  0  0  0  0  0  0  0  0
   26.7795  -19.7559   -7.4159 C   0  0  0  0  0  0  0  0  0  0  0  0
   25.5575  -19.6151   -8.2332 C   0  0  0  0  0  0  0  0  0  0  0  0
   25.5920  -20.6114   -9.3564 C   0  0  2  0  0  0  0  0  0  0  0  0
   26.3075  -19.9843  -10.4801 N   0  0  0  0  0  0  0  0  0  0  0  0
   24.2722  -21.0817   -9.7821 C   0  0  0  0  0  0  0  0  0  0  0  0
   23.5366  -20.4533  -10.7514 O   0  0  0  0  0  0  0  0  0  0  0  0
   27.5026  -18.6140   -7.0542 C   0  0  0  0  0  0  0  0  0  0  0  0
   28.6533  -18.6854   -6.2981 C   0  0  0  0  0  0  0  0  0  0  0  0
   23.7814  -22.1260   -9.2230 O   0  0  0  0  0  0  0  0  0  0  0  0
  1  2  1  0
  2  3  1  0
  3  4  2  0
  5  9  1  0
  5  3  1  0
  6  5  1  0
  7  6  1  0
  7  8  1  0
  8  9  1  0
  9 10  1  1
 10 11  2  0
 10 19  1  0
 12 13  1  0
 13 14  2  0
 14 15  1  0
 16 15  2  0
 16 17  1  0
 18 17  1  1
 18 20  1  0
 19 18  1  0
 20 24  2  0
 20 21  1  0
 22 16  1  0
 23 13  1  0
 23 22  2  0
M  END
$$$$
