GPY.pdb
     RDKit          3D

 24 25  0  0  1  0  0  0  0  0999 V2000
   27.9454  -20.5412  -15.4932 N   0  0  0  0  0  0  0  0  0  0  0  0
   27.5242  -20.3868  -14.1448 C   0  0  0  0  0  0  0  0  0  0  0  0
   26.1969  -20.8799  -13.8069 C   0  0  0  0  0  0  0  0  0  0  0  0
   25.4680  -21.3187  -14.7281 O   0  0  0  0  0  0  0  0  0  0  0  0
   25.7210  -20.8735  -12.4792 N   0  0  0  0  0  0  0  0  0  0  0  0
   26.4411  -20.3572  -11.3425 C   0  0  0  0  0  0  0  0  0  0  0  0
   25.5868  -20.5930  -10.1160 C   0  0  0  0  0  0  0  0  0  0  0  0
   24.5089  -21.5626  -10.5535 C   0  0  0  0  0  0  0  0  0  0  0  0
   24.4124  -21.3955  -12.0544 C   0  0  1  0  0  0  0  0  0  0  0  0
   23.3411  -20.4033  -12.4223 C   0  0  0  0  0  0  0  0  0  0  0  0
   23.5156  -19.1739  -12.2306 O   0  0  0  0  0  0  0  0  0  0  0  0
   20.3318  -24.1165  -18.0274 O   0  0  0  0  0  0  0  0  0  0  0  0
   20.5768  -23.0063  -17.2466 C   0  0  0  0  0  0  0  0  0  0  0  0
   21.8459  -22.7618  -16.7483 C   0  0  0  0  0  0  0  0  0  0  0  0
   22.0679  -21.6583  -15.9781 C   0  0  0  0  0  0  0  0  0  0  0  0
   21.0771  -20.7541  -15.6616 C   0  0  0  0  0  0  0  0  0  0  0  0
   21.2852  -19.5550  -14.8251 C   0  0  0  0  0  0  0  0  0  0  0  0
   21.0610  -19.9088  -13.3829 C   0  0  2  0  0  0  0  0  0  0  0  0
   22.1245  -20.8478  -12.9889 N   0  0  0  0  0  0  0  0  0  0  0  0
   19.7406  -20.4763  -13.1025 C   0  0  0  0  0  0  0  0  0  0  0  0
   19.5518  -21.7928  -12.7760 O   0  0  0  0  0  0  0  0  0  0  0  0
   19.8044  -21.0232  -16.1768 C   0  0  0  0  0  0  0  0  0  0  0  0
   19.5502  -22.1303  -16.9582 C   0  0  0  0  0  0  0  0  0  0  0  0
   18.7151  -19.7093  -13.1665 O   0  0  0  0  0  0  0  0  0  0  0  0
  1  2  1  0
  2  3  1  0
  3  4  2  0
  5  9  1  0
  5  3  1  0
  6  5  1  0
  7  6  1  0
  7  8  1  0
  8  9  1  0
  9 10  1  1
 10 11  2  0
 10 19  1  0
 12 13  1  0
 13 14  2  0
 14 15  1  0
 16 15  2  0
 16 17  1  0
 18 17  1  6
 18 20  1  0
 19 18  1  0
 20 24  2  0
 20 21  1  0
 22 16  1  0
 23 13  1  0
 23 22  2  0
M  END
$$$$
