GPY.pdb
     RDKit          3D

 24 25  0  0  1  0  0  0  0  0999 V2000
   28.0181  -19.5175  -17.8971 N   0  0  0  0  0  0  0  0  0  0  0  0
   28.3566  -19.2060  -16.5525 C   0  0  0  0  0  0  0  0  0  0  0  0
   27.8181  -20.0766  -15.5174 C   0  0  0  0  0  0  0  0  0  0  0  0
   26.7493  -20.6906  -15.7468 O   0  0  0  0  0  0  0  0  0  0  0  0
   28.4682  -20.2403  -14.2764 N   0  0  0  0  0  0  0  0  0  0  0  0
   29.6805  -19.5691  -13.8802 C   0  0  0  0  0  0  0  0  0  0  0  0
   30.0494  -20.0703  -12.5009 C   0  0  0  0  0  0  0  0  0  0  0  0
   29.1897  -21.2959  -12.2721 C   0  0  0  0  0  0  0  0  0  0  0  0
   28.0037  -21.1249  -13.1962 C   0  0  1  0  0  0  0  0  0  0  0  0
   26.8498  -20.4710  -12.4832 C   0  0  0  0  0  0  0  0  0  0  0  0
   26.7831  -19.2200  -12.3889 O   0  0  0  0  0  0  0  0  0  0  0  0
   18.7233  -18.9025   -9.9260 O   0  0  0  0  0  0  0  0  0  0  0  0
   19.8710  -19.4976  -10.4068 C   0  0  0  0  0  0  0  0  0  0  0  0
   20.4969  -20.5031   -9.6886 C   0  0  0  0  0  0  0  0  0  0  0  0
   21.6309  -21.0791  -10.1809 C   0  0  0  0  0  0  0  0  0  0  0  0
   22.2003  -20.7070  -11.3795 C   0  0  0  0  0  0  0  0  0  0  0  0
   23.4303  -21.3067  -11.9350 C   0  0  0  0  0  0  0  0  0  0  0  0
   24.6292  -20.6618  -11.3007 C   0  0  2  0  0  0  0  0  0  0  0  0
   25.8271  -21.2619  -11.9111 N   0  0  0  0  0  0  0  0  0  0  0  0
   24.6754  -20.7848   -9.8423 C   0  0  0  0  0  0  0  0  0  0  0  0
   24.2523  -19.7920   -8.9992 O   0  0  0  0  0  0  0  0  0  0  0  0
   21.5494  -19.6896  -12.0859 C   0  0  0  0  0  0  0  0  0  0  0  0
   20.4018  -19.0891  -11.6133 C   0  0  0  0  0  0  0  0  0  0  0  0
   25.1331  -21.8676   -9.3304 O   0  0  0  0  0  0  0  0  0  0  0  0
  1  2  1  0
  2  3  1  0
  3  4  2  0
  5  9  1  0
  5  3  1  0
  6  5  1  0
  7  6  1  0
  7  8  1  0
  8  9  1  0
  9 10  1  1
 10 11  2  0
 10 19  1  0
 12 13  1  0
 13 14  2  0
 14 15  1  0
 16 15  2  0
 16 17  1  0
 18 17  1  6
 18 20  1  0
 19 18  1  0
 20 24  2  0
 20 21  1  0
 22 16  1  0
 23 13  1  0
 23 22  2  0
M  END
$$$$
