GPY.pdb
     RDKit          3D

 24 25  0  0  1  0  0  0  0  0999 V2000
   20.6749  -12.9616  -17.8882 N   0  0  0  0  0  0  0  0  0  0  0  0
   21.6745  -11.9614  -17.7466 C   0  0  0  0  0  0  0  0  0  0  0  0
   21.7075  -11.2347  -16.4856 C   0  0  0  0  0  0  0  0  0  0  0  0
   20.6268  -11.0286  -15.8840 O   0  0  0  0  0  0  0  0  0  0  0  0
   22.9175  -10.7639  -15.9345 N   0  0  0  0  0  0  0  0  0  0  0  0
   24.2291  -11.0161  -16.4759 C   0  0  0  0  0  0  0  0  0  0  0  0
   25.2366  -10.3699  -15.5501 C   0  0  0  0  0  0  0  0  0  0  0  0
   24.4696  -10.0332  -14.2885 C   0  0  0  0  0  0  0  0  0  0  0  0
   23.0217   -9.9414  -14.7188 C   0  0  1  0  0  0  0  0  0  0  0  0
   22.6423   -8.5219  -15.0481 C   0  0  0  0  0  0  0  0  0  0  0  0
   22.6806   -8.1088  -16.2340 O   0  0  0  0  0  0  0  0  0  0  0  0
   17.6533   -7.5516   -9.6259 O   0  0  0  0  0  0  0  0  0  0  0  0
   18.2736   -7.3040  -10.8326 C   0  0  0  0  0  0  0  0  0  0  0  0
   18.5545   -8.3417  -11.7061 C   0  0  0  0  0  0  0  0  0  0  0  0
   19.1684   -8.0764  -12.8947 C   0  0  0  0  0  0  0  0  0  0  0  0
   19.5326   -6.8050  -13.2822 C   0  0  0  0  0  0  0  0  0  0  0  0
   20.2042   -6.4875  -14.5587 C   0  0  0  0  0  0  0  0  0  0  0  0
   21.6755   -6.3092  -14.3164 C   0  0  2  0  0  0  0  0  0  0  0  0
   22.2379   -7.6376  -14.0218 N   0  0  0  0  0  0  0  0  0  0  0  0
   21.9971   -5.3628  -13.2463 C   0  0  0  0  0  0  0  0  0  0  0  0
   21.7712   -4.0163  -13.3525 O   0  0  0  0  0  0  0  0  0  0  0  0
   19.2380   -5.7743  -12.3829 C   0  0  0  0  0  0  0  0  0  0  0  0
   18.6182   -6.0123  -11.1746 C   0  0  0  0  0  0  0  0  0  0  0  0
   22.5143   -5.8121  -12.1625 O   0  0  0  0  0  0  0  0  0  0  0  0
  1  2  1  0
  2  3  1  0
  3  4  2  0
  5  9  1  0
  5  3  1  0
  6  5  1  0
  7  6  1  0
  7  8  1  0
  8  9  1  0
  9 10  1  6
 10 11  2  0
 10 19  1  0
 12 13  1  0
 13 14  2  0
 14 15  1  0
 16 15  2  0
 16 17  1  0
 18 17  1  1
 18 20  1  0
 19 18  1  0
 20 24  2  0
 20 21  1  0
 22 16  1  0
 23 13  1  0
 23 22  2  0
M  END
$$$$
