GPY.pdb
     RDKit          3D

 24 25  0  0  1  0  0  0  0  0999 V2000
   22.9706  -15.9641  -15.6736 N   0  0  0  0  0  0  0  0  0  0  0  0
   24.3489  -16.2760  -15.5233 C   0  0  0  0  0  0  0  0  0  0  0  0
   24.6735  -17.5332  -14.8649 C   0  0  0  0  0  0  0  0  0  0  0  0
   23.7889  -18.0952  -14.1765 O   0  0  0  0  0  0  0  0  0  0  0  0
   25.9487  -18.1238  -14.9853 N   0  0  0  0  0  0  0  0  0  0  0  0
   27.0625  -17.5539  -15.7006 C   0  0  0  0  0  0  0  0  0  0  0  0
   28.2106  -18.5359  -15.6142 C   0  0  0  0  0  0  0  0  0  0  0  0
   27.6010  -19.8284  -15.1131 C   0  0  0  0  0  0  0  0  0  0  0  0
   26.3338  -19.4160  -14.3960 C   0  0  1  0  0  0  0  0  0  0  0  0
   26.5793  -19.2336  -12.9216 C   0  0  0  0  0  0  0  0  0  0  0  0
   27.2082  -18.2321  -12.4975 O   0  0  0  0  0  0  0  0  0  0  0  0
   27.9125  -19.7995   -4.4870 O   0  0  0  0  0  0  0  0  0  0  0  0
   27.3549  -19.8207   -5.7483 C   0  0  0  0  0  0  0  0  0  0  0  0
   26.6468  -20.9274   -6.1868 C   0  0  0  0  0  0  0  0  0  0  0  0
   26.1029  -20.9290   -7.4376 C   0  0  0  0  0  0  0  0  0  0  0  0
   26.2224  -19.8668   -8.3076 C   0  0  0  0  0  0  0  0  0  0  0  0
   25.6510  -19.8419   -9.6692 C   0  0  0  0  0  0  0  0  0  0  0  0
   26.6798  -20.3269  -10.6499 C   0  0  2  0  0  0  0  0  0  0  0  0
   26.1024  -20.1915  -11.9976 N   0  0  0  0  0  0  0  0  0  0  0  0
   27.1306  -21.7004  -10.4165 C   0  0  0  0  0  0  0  0  0  0  0  0
   28.3247  -21.9985   -9.8159 O   0  0  0  0  0  0  0  0  0  0  0  0
   26.9420  -18.7612   -7.8413 C   0  0  0  0  0  0  0  0  0  0  0  0
   27.5027  -18.7310   -6.5821 C   0  0  0  0  0  0  0  0  0  0  0  0
   26.3770  -22.6675  -10.7915 O   0  0  0  0  0  0  0  0  0  0  0  0
  1  2  1  0
  2  3  1  0
  3  4  2  0
  5  9  1  0
  5  3  1  0
  6  5  1  0
  7  6  1  0
  7  8  1  0
  8  9  1  0
  9 10  1  1
 10 11  2  0
 10 19  1  0
 12 13  1  0
 13 14  2  0
 14 15  1  0
 16 15  2  0
 16 17  1  0
 18 17  1  1
 18 20  1  0
 19 18  1  0
 20 24  2  0
 20 21  1  0
 22 16  1  0
 23 13  1  0
 23 22  2  0
M  END
$$$$
