GPY.pdb
     RDKit          3D

 24 25  0  0  1  0  0  0  0  0999 V2000
   18.1311  -14.0800  -16.2642 N   0  0  0  0  0  0  0  0  0  0  0  0
   18.6751  -13.1052  -17.1436 C   0  0  0  0  0  0  0  0  0  0  0  0
   19.8156  -12.3414  -16.6587 C   0  0  0  0  0  0  0  0  0  0  0  0
   19.8583  -12.0339  -15.4439 O   0  0  0  0  0  0  0  0  0  0  0  0
   20.8608  -11.9457  -17.5192 N   0  0  0  0  0  0  0  0  0  0  0  0
   20.9539  -12.2780  -18.9185 C   0  0  0  0  0  0  0  0  0  0  0  0
   22.2490  -11.6947  -19.4405 C   0  0  0  0  0  0  0  0  0  0  0  0
   23.0452  -11.3114  -18.2107 C   0  0  0  0  0  0  0  0  0  0  0  0
   22.0175  -11.1310  -17.1147 C   0  0  1  0  0  0  0  0  0  0  0  0
   21.5925   -9.6909  -17.0008 C   0  0  0  0  0  0  0  0  0  0  0  0
   20.5999   -9.2649  -17.6425 O   0  0  0  0  0  0  0  0  0  0  0  0
   20.9586   -1.4857  -14.0114 O   0  0  0  0  0  0  0  0  0  0  0  0
   21.2864   -2.8161  -14.1688 C   0  0  0  0  0  0  0  0  0  0  0  0
   22.4973   -3.1810  -14.7339 C   0  0  0  0  0  0  0  0  0  0  0  0
   22.8031   -4.5020  -14.8809 C   0  0  0  0  0  0  0  0  0  0  0  0
   21.9547   -5.5152  -14.4897 C   0  0  0  0  0  0  0  0  0  0  0  0
   22.2547   -6.9532  -14.6421 C   0  0  0  0  0  0  0  0  0  0  0  0
   21.9413   -7.3813  -16.0471 C   0  0  2  0  0  0  0  0  0  0  0  0
   22.3094   -8.8017  -16.1677 N   0  0  0  0  0  0  0  0  0  0  0  0
   22.6078   -6.5852  -17.0797 C   0  0  0  0  0  0  0  0  0  0  0  0
   23.8636   -6.8725  -17.5443 O   0  0  0  0  0  0  0  0  0  0  0  0
   20.7383   -5.1209  -13.9218 C   0  0  0  0  0  0  0  0  0  0  0  0
   20.4021   -3.7936  -13.7605 C   0  0  0  0  0  0  0  0  0  0  0  0
   21.9912   -5.5737  -17.5703 O   0  0  0  0  0  0  0  0  0  0  0  0
  1  2  1  0
  2  3  1  0
  3  4  2  0
  5  9  1  0
  5  3  1  0
  6  5  1  0
  7  6  1  0
  7  8  1  0
  8  9  1  0
  9 10  1  6
 10 11  2  0
 10 19  1  0
 12 13  1  0
 13 14  2  0
 14 15  1  0
 16 15  2  0
 16 17  1  0
 18 17  1  1
 18 20  1  0
 19 18  1  0
 20 24  2  0
 20 21  1  0
 22 16  1  0
 23 13  1  0
 23 22  2  0
M  END
$$$$
