AYW.pdb
     RDKit          3D

 32 34  0  0  1  0  0  0  0  0999 V2000
    7.4741  -20.5808   23.6363 C   0  0  0  0  0  0  0  0  0  0  0  0
    7.0749  -20.1447   22.2271 C   0  0  2  0  0  0  0  0  0  0  0  0
    7.6200  -21.0752   21.2516 N   0  0  0  0  0  0  0  0  0  0  0  0
    7.6993  -18.8208   21.9832 C   0  0  0  0  0  0  0  0  0  0  0  0
    8.8644  -18.7318   21.5029 O   0  0  0  0  0  0  0  0  0  0  0  0
    8.9635  -11.8099   17.8892 O   0  0  0  0  0  0  0  0  0  0  0  0
    8.3915  -12.7072   18.7733 C   0  0  0  0  0  0  0  0  0  0  0  0
    8.1647  -12.2917   20.0821 C   0  0  0  0  0  0  0  0  0  0  0  0
    7.5981  -13.1460   21.0005 C   0  0  0  0  0  0  0  0  0  0  0  0
    7.2590  -14.4192   20.6044 C   0  0  0  0  0  0  0  0  0  0  0  0
    6.6631  -15.3637   21.5369 C   0  0  0  0  0  0  0  0  0  0  0  0
    7.6894  -16.3440   22.0600 C   0  0  2  0  0  0  0  0  0  0  0  0
    7.0097  -17.6192   22.2802 N   0  0  0  0  0  0  0  0  0  0  0  0
    8.1962  -15.8687   23.3776 C   0  0  0  0  0  0  0  0  0  0  0  0
    8.1359  -14.6454   23.7001 O   0  0  0  0  0  0  0  0  0  0  0  0
    7.4807  -14.8470   19.2976 C   0  0  0  0  0  0  0  0  0  0  0  0
    8.0430  -13.9861   18.4023 C   0  0  0  0  0  0  0  0  0  0  0  0
    8.7532  -16.7773   24.2910 N   0  0  0  0  0  0  0  0  0  0  0  0
   10.0468  -16.4539   24.9222 C   0  0  1  0  0  0  0  0  0  0  0  0
    9.8272  -15.2503   25.7752 C   0  0  0  0  0  0  0  0  0  0  0  0
    8.4091  -14.9674   25.9743 C   0  0  0  0  0  0  0  0  0  0  0  0
    7.3780  -15.8934   25.9298 C   0  0  0  0  0  0  0  0  0  0  0  0
    6.2065  -15.2786   26.1183 N   0  0  0  0  0  0  0  0  0  0  0  0
    6.4625  -13.9746   26.2841 C   0  0  0  0  0  0  0  0  0  0  0  0
    5.6490  -12.8798   26.5291 C   0  0  0  0  0  0  0  0  0  0  0  0
    6.1412  -11.6014   26.6897 C   0  0  0  0  0  0  0  0  0  0  0  0
    7.4914  -11.3698   26.6091 C   0  0  0  0  0  0  0  0  0  0  0  0
    8.3133  -12.4439   26.3659 C   0  0  0  0  0  0  0  0  0  0  0  0
    7.8265  -13.7434   26.2008 C   0  0  0  0  0  0  0  0  0  0  0  0
   10.5809  -17.6520   25.5706 C   0  0  0  0  0  0  0  0  0  0  0  0
   11.7408  -17.6274   26.0624 O   0  0  0  0  0  0  0  0  0  0  0  0
    9.8974  -18.8473   25.6993 O   0  0  0  0  0  0  0  0  0  0  0  0
  2  1  1  1
  2  3  1  0
  4  2  1  0
  5  4  2  0
  7 17  2  0
  7  6  1  0
  8  7  1  0
  9 10  1  0
  9  8  2  0
 10 16  2  0
 12 11  1  1
 11 10  1  0
 12 13  1  0
 13  4  1  0
 14 18  1  0
 14 12  1  0
 15 14  2  0
 16 17  1  0
 19 20  1  1
 19 30  1  0
 19 18  1  0
 21 22  2  0
 21 20  1  0
 23 22  1  0
 24 29  2  0
 24 23  1  0
 25 24  1  0
 26 27  1  0
 26 25  2  0
 27 28  2  0
 28 29  1  0
 29 21  1  0
 30 32  1  0
 31 30  2  0
M  END
$$$$
