AYW.pdb
     RDKit          3D

 32 34  0  0  1  0  0  0  0  0999 V2000
    9.6463  -20.3756   20.6313 C   0  0  0  0  0  0  0  0  0  0  0  0
    9.0392  -19.1226   20.0016 C   0  0  2  0  0  0  0  0  0  0  0  0
    9.5152  -18.9792   18.6351 N   0  0  0  0  0  0  0  0  0  0  0  0
    9.5355  -17.9573   20.7750 C   0  0  0  0  0  0  0  0  0  0  0  0
   10.7599  -17.6458   20.7644 O   0  0  0  0  0  0  0  0  0  0  0  0
    7.8656  -13.2421   16.6652 O   0  0  0  0  0  0  0  0  0  0  0  0
    7.9271  -13.6224   17.9939 C   0  0  0  0  0  0  0  0  0  0  0  0
    8.8205  -14.6273   18.3529 C   0  0  0  0  0  0  0  0  0  0  0  0
    8.9202  -15.0421   19.6614 C   0  0  0  0  0  0  0  0  0  0  0  0
    8.1215  -14.4472   20.6108 C   0  0  0  0  0  0  0  0  0  0  0  0
    8.1830  -14.8524   22.0068 C   0  0  0  0  0  0  0  0  0  0  0  0
    9.1806  -15.9706   22.2128 C   0  0  2  0  0  0  0  0  0  0  0  0
    8.6540  -17.1602   21.5464 N   0  0  0  0  0  0  0  0  0  0  0  0
    9.2834  -16.2757   23.6672 C   0  0  0  0  0  0  0  0  0  0  0  0
    8.3747  -16.9230   24.2667 O   0  0  0  0  0  0  0  0  0  0  0  0
    7.2236  -13.4404   20.2645 C   0  0  0  0  0  0  0  0  0  0  0  0
    7.1395  -13.0431   18.9629 C   0  0  0  0  0  0  0  0  0  0  0  0
   10.3994  -15.8473   24.4028 N   0  0  0  0  0  0  0  0  0  0  0  0
   10.4337  -16.0921   25.8572 C   0  0  1  0  0  0  0  0  0  0  0  0
    9.9225  -14.8575   26.5196 C   0  0  0  0  0  0  0  0  0  0  0  0
    8.4857  -14.6846   26.3292 C   0  0  0  0  0  0  0  0  0  0  0  0
    7.5881  -15.6711   25.9497 C   0  0  0  0  0  0  0  0  0  0  0  0
    6.3625  -15.1509   25.8355 N   0  0  0  0  0  0  0  0  0  0  0  0
    6.4524  -13.8487   26.1346 C   0  0  0  0  0  0  0  0  0  0  0  0
    5.5138  -12.8312   26.1998 C   0  0  0  0  0  0  0  0  0  0  0  0
    5.8335  -11.5384   26.5586 C   0  0  0  0  0  0  0  0  0  0  0  0
    7.1295  -11.2125   26.8707 C   0  0  0  0  0  0  0  0  0  0  0  0
    8.0740  -12.2089   26.8106 C   0  0  0  0  0  0  0  0  0  0  0  0
    7.7624  -13.5220   26.4479 C   0  0  0  0  0  0  0  0  0  0  0  0
    9.7460  -17.3498   26.1517 C   0  0  0  0  0  0  0  0  0  0  0  0
    8.8804  -17.7875   25.3474 O   0  0  0  0  0  0  0  0  0  0  0  0
    9.9759  -18.1281   27.2714 O   0  0  0  0  0  0  0  0  0  0  0  0
  2  1  1  1
  2  3  1  0
  4  2  1  0
  5  4  2  0
  7 17  2  0
  7  6  1  0
  8  7  1  0
  9 10  1  0
  9  8  2  0
 10 16  2  0
 12 11  1  1
 11 10  1  0
 12 13  1  0
 13  4  1  0
 14 18  1  0
 14 12  1  0
 15 14  2  0
 16 17  1  0
 19 20  1  1
 19 30  1  0
 19 18  1  0
 21 22  2  0
 21 20  1  0
 23 22  1  0
 24 29  2  0
 24 23  1  0
 25 24  1  0
 26 27  1  0
 26 25  2  0
 27 28  2  0
 28 29  1  0
 29 21  1  0
 30 32  1  0
 31 30  2  0
M  END
$$$$
