AYW.pdb
     RDKit          3D

 32 34  0  0  1  0  0  0  0  0999 V2000
    9.4777  -18.1953   18.8413 C   0  0  0  0  0  0  0  0  0  0  0  0
    9.5261  -18.4782   20.3422 C   0  0  2  0  0  0  0  0  0  0  0  0
    8.1851  -18.7493   20.8349 N   0  0  0  0  0  0  0  0  0  0  0  0
   10.0079  -17.2423   21.0073 C   0  0  0  0  0  0  0  0  0  0  0  0
   11.1743  -16.8050   20.7967 O   0  0  0  0  0  0  0  0  0  0  0  0
    7.2839  -13.4163   16.8322 O   0  0  0  0  0  0  0  0  0  0  0  0
    7.5636  -13.6353   18.1692 C   0  0  0  0  0  0  0  0  0  0  0  0
    8.6303  -12.9490   18.7422 C   0  0  0  0  0  0  0  0  0  0  0  0
    8.9499  -13.1314   20.0683 C   0  0  0  0  0  0  0  0  0  0  0  0
    8.1978  -14.0044   20.8202 C   0  0  0  0  0  0  0  0  0  0  0  0
    8.4970  -14.2383   22.2247 C   0  0  0  0  0  0  0  0  0  0  0  0
    9.6363  -15.2195   22.3897 C   0  0  2  0  0  0  0  0  0  0  0  0
    9.1768  -16.5164   21.8961 N   0  0  0  0  0  0  0  0  0  0  0  0
    9.9478  -15.3719   23.8383 C   0  0  0  0  0  0  0  0  0  0  0  0
   10.5655  -14.4675   24.4743 O   0  0  0  0  0  0  0  0  0  0  0  0
    7.1279  -14.6971   20.2588 C   0  0  0  0  0  0  0  0  0  0  0  0
    6.8267  -14.5028   18.9432 C   0  0  0  0  0  0  0  0  0  0  0  0
    9.5578  -16.5306   24.5278 N   0  0  0  0  0  0  0  0  0  0  0  0
    9.8230  -16.6239   25.9760 C   0  0  1  0  0  0  0  0  0  0  0  0
    8.5070  -16.8249   26.6484 C   0  0  0  0  0  0  0  0  0  0  0  0
    7.5417  -15.7901   26.2908 C   0  0  0  0  0  0  0  0  0  0  0  0
    6.3804  -15.9760   25.5561 C   0  0  0  0  0  0  0  0  0  0  0  0
    5.7578  -14.8058   25.3862 N   0  0  0  0  0  0  0  0  0  0  0  0
    6.4946  -13.8694   25.9975 C   0  0  0  0  0  0  0  0  0  0  0  0
    6.3323  -12.5030   26.1617 C   0  0  0  0  0  0  0  0  0  0  0  0
    7.2263  -11.7208   26.8626 C   0  0  0  0  0  0  0  0  0  0  0  0
    8.3359  -12.2903   27.4349 C   0  0  0  0  0  0  0  0  0  0  0  0
    8.5135  -13.6443   27.2816 C   0  0  0  0  0  0  0  0  0  0  0  0
    7.6153  -14.4471   26.5733 C   0  0  0  0  0  0  0  0  0  0  0  0
   10.8620  -17.6266   26.2134 C   0  0  0  0  0  0  0  0  0  0  0  0
   11.3217  -18.2863   25.2431 O   0  0  0  0  0  0  0  0  0  0  0  0
   11.4049  -17.9185   27.4512 O   0  0  0  0  0  0  0  0  0  0  0  0
  2  1  1  6
  2  3  1  0
  4  2  1  0
  5  4  2  0
  7 17  2  0
  7  6  1  0
  8  7  1  0
  9 10  1  0
  9  8  2  0
 10 16  2  0
 12 11  1  1
 11 10  1  0
 12 13  1  0
 13  4  1  0
 14 18  1  0
 14 12  1  0
 15 14  2  0
 16 17  1  0
 19 20  1  1
 19 30  1  0
 19 18  1  0
 21 22  2  0
 21 20  1  0
 23 22  1  0
 24 29  2  0
 24 23  1  0
 25 24  1  0
 26 27  1  0
 26 25  2  0
 27 28  2  0
 28 29  1  0
 29 21  1  0
 30 32  1  0
 31 30  2  0
M  END
$$$$
