AYW.pdb
     RDKit          3D

 32 34  0  0  1  0  0  0  0  0999 V2000
    9.9288  -17.7456   17.6332 C   0  0  0  0  0  0  0  0  0  0  0  0
   10.2895  -16.6669   18.6536 C   0  0  2  0  0  0  0  0  0  0  0  0
   11.6454  -16.1985   18.4155 N   0  0  0  0  0  0  0  0  0  0  0  0
   10.2628  -17.3031   19.9940 C   0  0  0  0  0  0  0  0  0  0  0  0
    9.1954  -17.7955   20.4570 O   0  0  0  0  0  0  0  0  0  0  0  0
   12.7885  -20.9858   27.4608 O   0  0  0  0  0  0  0  0  0  0  0  0
   12.7794  -20.3198   26.2483 C   0  0  0  0  0  0  0  0  0  0  0  0
   12.9124  -18.9344   26.2543 C   0  0  0  0  0  0  0  0  0  0  0  0
   12.9096  -18.2249   25.0750 C   0  0  0  0  0  0  0  0  0  0  0  0
   12.7728  -18.9071   23.8881 C   0  0  0  0  0  0  0  0  0  0  0  0
   12.7575  -18.2048   22.6140 C   0  0  0  0  0  0  0  0  0  0  0  0
   11.3453  -18.0143   22.1065 C   0  0  2  0  0  0  0  0  0  0  0  0
   11.4303  -17.3781   20.7933 N   0  0  0  0  0  0  0  0  0  0  0  0
   10.6186  -17.0828   23.0137 C   0  0  0  0  0  0  0  0  0  0  0  0
   10.8911  -15.8461   23.0379 O   0  0  0  0  0  0  0  0  0  0  0  0
   12.6392  -20.2933   23.8685 C   0  0  0  0  0  0  0  0  0  0  0  0
   12.6444  -20.9787   25.0473 C   0  0  0  0  0  0  0  0  0  0  0  0
    9.6109  -17.5651   23.8634 N   0  0  0  0  0  0  0  0  0  0  0  0
    9.0335  -16.6585   24.8739 C   0  0  1  0  0  0  0  0  0  0  0  0
    8.1819  -15.6763   24.1430 C   0  0  0  0  0  0  0  0  0  0  0  0
    7.3018  -14.9346   25.0407 C   0  0  0  0  0  0  0  0  0  0  0  0
    6.2743  -15.4699   25.8028 C   0  0  0  0  0  0  0  0  0  0  0  0
    5.6534  -14.4968   26.4762 N   0  0  0  0  0  0  0  0  0  0  0  0
    6.2609  -13.3450   26.1637 C   0  0  0  0  0  0  0  0  0  0  0  0
    6.0599  -12.0351   26.5687 C   0  0  0  0  0  0  0  0  0  0  0  0
    6.8362  -10.9855   26.1238 C   0  0  0  0  0  0  0  0  0  0  0  0
    7.8612  -11.2151   25.2406 C   0  0  0  0  0  0  0  0  0  0  0  0
    8.0746  -12.5082   24.8275 C   0  0  0  0  0  0  0  0  0  0  0  0
    7.2945  -13.5796   25.2705 C   0  0  0  0  0  0  0  0  0  0  0  0
    8.3973  -17.4510   25.9268 C   0  0  0  0  0  0  0  0  0  0  0  0
    7.8924  -16.8683   26.9235 O   0  0  0  0  0  0  0  0  0  0  0  0
    8.2941  -18.8299   25.9192 O   0  0  0  0  0  0  0  0  0  0  0  0
  2  1  1  6
  2  3  1  0
  4  2  1  0
  5  4  2  0
  7 17  2  0
  7  6  1  0
  8  7  1  0
  9 10  1  0
  9  8  2  0
 10 16  2  0
 12 11  1  1
 11 10  1  0
 12 13  1  0
 13  4  1  0
 14 18  1  0
 14 12  1  0
 15 14  2  0
 16 17  1  0
 19 20  1  6
 19 30  1  0
 19 18  1  0
 21 22  2  0
 21 20  1  0
 23 22  1  0
 24 29  2  0
 24 23  1  0
 25 24  1  0
 26 27  1  0
 26 25  2  0
 27 28  2  0
 28 29  1  0
 29 21  1  0
 30 32  1  0
 31 30  2  0
M  END
$$$$
