AYW.pdb
     RDKit          3D

 32 34  0  0  1  0  0  0  0  0999 V2000
    7.6045  -12.8514   20.7319 C   0  0  0  0  0  0  0  0  0  0  0  0
    8.5785  -13.3086   19.6469 C   0  0  2  0  0  0  0  0  0  0  0  0
    7.8385  -13.7351   18.4700 N   0  0  0  0  0  0  0  0  0  0  0  0
    9.3021  -14.4913   20.1757 C   0  0  0  0  0  0  0  0  0  0  0  0
    8.8662  -15.6604   19.9775 O   0  0  0  0  0  0  0  0  0  0  0  0
   13.4904  -15.8229   15.7147 O   0  0  0  0  0  0  0  0  0  0  0  0
   13.2685  -15.7211   17.0764 C   0  0  0  0  0  0  0  0  0  0  0  0
   13.0163  -16.8867   17.7937 C   0  0  0  0  0  0  0  0  0  0  0  0
   12.7892  -16.8396   19.1504 C   0  0  0  0  0  0  0  0  0  0  0  0
   12.8152  -15.6205   19.7876 C   0  0  0  0  0  0  0  0  0  0  0  0
   12.5758  -15.5142   21.2187 C   0  0  0  0  0  0  0  0  0  0  0  0
   11.0962  -15.5306   21.5328 C   0  0  2  0  0  0  0  0  0  0  0  0
   10.5011  -14.3462   20.9166 N   0  0  0  0  0  0  0  0  0  0  0  0
   10.9051  -15.4180   23.0057 C   0  0  0  0  0  0  0  0  0  0  0  0
   11.4321  -14.4733   23.6644 O   0  0  0  0  0  0  0  0  0  0  0  0
   13.0667  -14.4469   19.0812 C   0  0  0  0  0  0  0  0  0  0  0  0
   13.2894  -14.5140   17.7376 C   0  0  0  0  0  0  0  0  0  0  0  0
   10.1306  -16.3654   23.6932 N   0  0  0  0  0  0  0  0  0  0  0  0
   10.3450  -16.5490   25.1412 C   0  0  1  0  0  0  0  0  0  0  0  0
   10.0263  -15.2483   25.7977 C   0  0  0  0  0  0  0  0  0  0  0  0
    8.5913  -14.9822   25.8256 C   0  0  0  0  0  0  0  0  0  0  0  0
    7.5863  -15.8954   25.5446 C   0  0  0  0  0  0  0  0  0  0  0  0
    6.3935  -15.2989   25.6299 N   0  0  0  0  0  0  0  0  0  0  0  0
    6.6099  -14.0196   25.9612 C   0  0  0  0  0  0  0  0  0  0  0  0
    5.7587  -12.9526   26.2006 C   0  0  0  0  0  0  0  0  0  0  0  0
    6.2101  -11.6989   26.5570 C   0  0  0  0  0  0  0  0  0  0  0  0
    7.5559  -11.4650   26.6886 C   0  0  0  0  0  0  0  0  0  0  0  0
    8.4150  -12.5116   26.4542 C   0  0  0  0  0  0  0  0  0  0  0  0
    7.9698  -13.7857   26.0920 C   0  0  0  0  0  0  0  0  0  0  0  0
    9.6094  -17.7307   25.5926 C   0  0  0  0  0  0  0  0  0  0  0  0
    8.8260  -18.3157   24.7978 O   0  0  0  0  0  0  0  0  0  0  0  0
    9.7074  -18.2823   26.8569 O   0  0  0  0  0  0  0  0  0  0  0  0
  2  1  1  1
  2  3  1  0
  4  2  1  0
  5  4  2  0
  7 17  2  0
  7  6  1  0
  8  7  1  0
  9 10  1  0
  9  8  2  0
 10 16  2  0
 12 11  1  1
 11 10  1  0
 12 13  1  0
 13  4  1  0
 14 18  1  0
 14 12  1  0
 15 14  2  0
 16 17  1  0
 19 20  1  1
 19 30  1  0
 19 18  1  0
 21 22  2  0
 21 20  1  0
 23 22  1  0
 24 29  2  0
 24 23  1  0
 25 24  1  0
 26 27  1  0
 26 25  2  0
 27 28  2  0
 28 29  1  0
 29 21  1  0
 30 32  1  0
 31 30  2  0
M  END
$$$$
