AYW.pdb
     RDKit          3D

 32 34  0  0  1  0  0  0  0  0999 V2000
    9.8495  -19.6700   21.6402 C   0  0  0  0  0  0  0  0  0  0  0  0
    9.2893  -18.7168   20.5855 C   0  0  2  0  0  0  0  0  0  0  0  0
    9.9348  -18.9646   19.3063 N   0  0  0  0  0  0  0  0  0  0  0  0
    9.6418  -17.3383   21.0072 C   0  0  0  0  0  0  0  0  0  0  0  0
   10.7141  -16.7953   20.6181 O   0  0  0  0  0  0  0  0  0  0  0  0
    7.3069  -13.3441   16.5957 O   0  0  0  0  0  0  0  0  0  0  0  0
    7.5117  -13.5654   17.9458 C   0  0  0  0  0  0  0  0  0  0  0  0
    6.7975  -14.5878   18.5636 C   0  0  0  0  0  0  0  0  0  0  0  0
    6.9649  -14.8487   19.9045 C   0  0  0  0  0  0  0  0  0  0  0  0
    7.8505  -14.0819   20.6263 C   0  0  0  0  0  0  0  0  0  0  0  0
    8.0605  -14.3120   22.0475 C   0  0  0  0  0  0  0  0  0  0  0  0
    9.2140  -15.2605   22.2878 C   0  0  2  0  0  0  0  0  0  0  0  0
    8.7887  -16.5908   21.8563 N   0  0  0  0  0  0  0  0  0  0  0  0
    9.4981  -15.3286   23.7485 C   0  0  0  0  0  0  0  0  0  0  0  0
    9.9776  -14.3345   24.3697 O   0  0  0  0  0  0  0  0  0  0  0  0
    8.5714  -13.0562   20.0198 C   0  0  0  0  0  0  0  0  0  0  0  0
    8.3918  -12.8131   18.6902 C   0  0  0  0  0  0  0  0  0  0  0  0
    9.2360  -16.5061   24.4660 N   0  0  0  0  0  0  0  0  0  0  0  0
    9.6773  -16.6003   25.8706 C   0  0  1  0  0  0  0  0  0  0  0  0
    8.4471  -16.6855   26.7095 C   0  0  0  0  0  0  0  0  0  0  0  0
    7.5327  -15.5752   26.4610 C   0  0  0  0  0  0  0  0  0  0  0  0
    6.2755  -15.6669   25.8830 C   0  0  0  0  0  0  0  0  0  0  0  0
    5.7351  -14.4496   25.7750 N   0  0  0  0  0  0  0  0  0  0  0  0
    6.6188  -13.5751   26.2726 C   0  0  0  0  0  0  0  0  0  0  0  0
    6.5921  -12.1990   26.4342 C   0  0  0  0  0  0  0  0  0  0  0  0
    7.6299  -11.4909   27.0032 C   0  0  0  0  0  0  0  0  0  0  0  0
    8.7529  -12.1484   27.4389 C   0  0  0  0  0  0  0  0  0  0  0  0
    8.7971  -13.5134   27.2858 C   0  0  0  0  0  0  0  0  0  0  0  0
    7.7525  -14.2417   26.7104 C   0  0  0  0  0  0  0  0  0  0  0  0
   10.6569  -17.6799   25.9980 C   0  0  0  0  0  0  0  0  0  0  0  0
   10.8653  -18.4478   25.0209 O   0  0  0  0  0  0  0  0  0  0  0  0
   11.4023  -17.9351   27.1344 O   0  0  0  0  0  0  0  0  0  0  0  0
  2  1  1  1
  2  3  1  0
  4  2  1  0
  5  4  2  0
  7 17  2  0
  7  6  1  0
  8  7  1  0
  9 10  1  0
  9  8  2  0
 10 16  2  0
 12 11  1  1
 11 10  1  0
 12 13  1  0
 13  4  1  0
 14 18  1  0
 14 12  1  0
 15 14  2  0
 16 17  1  0
 19 20  1  1
 19 30  1  0
 19 18  1  0
 21 22  2  0
 21 20  1  0
 23 22  1  0
 24 29  2  0
 24 23  1  0
 25 24  1  0
 26 27  1  0
 26 25  2  0
 27 28  2  0
 28 29  1  0
 29 21  1  0
 30 32  1  0
 31 30  2  0
M  END
$$$$
