AYW.pdb
     RDKit          3D

 32 34  0  0  1  0  0  0  0  0999 V2000
    8.1763  -12.4953   19.7533 C   0  0  0  0  0  0  0  0  0  0  0  0
    8.9593  -13.3220   18.7341 C   0  0  2  0  0  0  0  0  0  0  0  0
    8.0463  -13.8851   17.7524 N   0  0  0  0  0  0  0  0  0  0  0  0
    9.5814  -14.4513   19.4689 C   0  0  0  0  0  0  0  0  0  0  0  0
    9.0088  -15.5755   19.5358 O   0  0  0  0  0  0  0  0  0  0  0  0
   14.1639  -15.8384   15.1214 O   0  0  0  0  0  0  0  0  0  0  0  0
   13.8594  -15.7068   16.4644 C   0  0  0  0  0  0  0  0  0  0  0  0
   13.5974  -16.8597   17.1986 C   0  0  0  0  0  0  0  0  0  0  0  0
   13.2896  -16.7831   18.5379 C   0  0  0  0  0  0  0  0  0  0  0  0
   13.2445  -15.5471   19.1407 C   0  0  0  0  0  0  0  0  0  0  0  0
   12.9182  -15.4098   20.5520 C   0  0  0  0  0  0  0  0  0  0  0  0
   11.4239  -15.4644   20.7801 C   0  0  2  0  0  0  0  0  0  0  0  0
   10.8333  -14.3040   20.1159 N   0  0  0  0  0  0  0  0  0  0  0  0
   11.1445  -15.3412   22.2380 C   0  0  0  0  0  0  0  0  0  0  0  0
   11.6699  -14.4198   22.9303 O   0  0  0  0  0  0  0  0  0  0  0  0
   13.5048  -14.3859   18.4172 C   0  0  0  0  0  0  0  0  0  0  0  0
   13.8080  -14.4824   17.0913 C   0  0  0  0  0  0  0  0  0  0  0  0
   10.2865  -16.2523   22.8735 N   0  0  0  0  0  0  0  0  0  0  0  0
    9.9612  -16.0531   24.2986 C   0  0  1  0  0  0  0  0  0  0  0  0
    9.4142  -14.6721   24.4323 C   0  0  0  0  0  0  0  0  0  0  0  0
    8.1792  -14.6415   25.2097 C   0  0  0  0  0  0  0  0  0  0  0  0
    7.2808  -15.6876   25.3562 C   0  0  0  0  0  0  0  0  0  0  0  0
    6.2447  -15.2956   26.1037 N   0  0  0  0  0  0  0  0  0  0  0  0
    6.4580  -14.0177   26.4424 C   0  0  0  0  0  0  0  0  0  0  0  0
    5.7396  -13.1154   27.2107 C   0  0  0  0  0  0  0  0  0  0  0  0
    6.1684  -11.8265   27.4498 C   0  0  0  0  0  0  0  0  0  0  0  0
    7.3546  -11.3871   26.9177 C   0  0  0  0  0  0  0  0  0  0  0  0
    8.0799  -12.2683   26.1523 C   0  0  0  0  0  0  0  0  0  0  0  0
    7.6557  -13.5761   25.9025 C   0  0  0  0  0  0  0  0  0  0  0  0
    9.1220  -17.1589   24.7617 C   0  0  0  0  0  0  0  0  0  0  0  0
    8.4608  -17.8296   23.9247 O   0  0  0  0  0  0  0  0  0  0  0  0
    8.9922  -17.5476   26.0824 O   0  0  0  0  0  0  0  0  0  0  0  0
  2  1  1  1
  2  3  1  0
  4  2  1  0
  5  4  2  0
  7 17  2  0
  7  6  1  0
  8  7  1  0
  9 10  1  0
  9  8  2  0
 10 16  2  0
 12 11  1  1
 11 10  1  0
 12 13  1  0
 13  4  1  0
 14 18  1  0
 14 12  1  0
 15 14  2  0
 16 17  1  0
 19 20  1  6
 19 30  1  0
 19 18  1  0
 21 22  2  0
 21 20  1  0
 23 22  1  0
 24 29  2  0
 24 23  1  0
 25 24  1  0
 26 27  1  0
 26 25  2  0
 27 28  2  0
 28 29  1  0
 29 21  1  0
 30 32  1  0
 31 30  2  0
M  END
$$$$
