AYW.pdb
     RDKit          3D

 32 34  0  0  1  0  0  0  0  0999 V2000
    9.3615  -18.5814   21.3839 C   0  0  0  0  0  0  0  0  0  0  0  0
   10.7814  -18.0397   21.2243 C   0  0  2  0  0  0  0  0  0  0  0  0
   11.5861  -18.9852   20.4674 N   0  0  0  0  0  0  0  0  0  0  0  0
   11.3682  -17.9370   22.5834 C   0  0  0  0  0  0  0  0  0  0  0  0
   12.0816  -18.8676   23.0537 O   0  0  0  0  0  0  0  0  0  0  0  0
   17.4151  -15.8860   22.0896 O   0  0  0  0  0  0  0  0  0  0  0  0
   16.2210  -15.7948   22.7822 C   0  0  0  0  0  0  0  0  0  0  0  0
   15.1514  -15.1459   22.1725 C   0  0  0  0  0  0  0  0  0  0  0  0
   13.9421  -15.0283   22.8191 C   0  0  0  0  0  0  0  0  0  0  0  0
   13.8067  -15.5628   24.0797 C   0  0  0  0  0  0  0  0  0  0  0  0
   12.5521  -15.4609   24.8093 C   0  0  0  0  0  0  0  0  0  0  0  0
   11.7570  -16.7446   24.7206 C   0  0  2  0  0  0  0  0  0  0  0  0
   11.1475  -16.7953   23.3929 N   0  0  0  0  0  0  0  0  0  0  0  0
   10.6552  -16.7106   25.7225 C   0  0  0  0  0  0  0  0  0  0  0  0
   10.8961  -16.5547   26.9561 O   0  0  0  0  0  0  0  0  0  0  0  0
   14.8693  -16.2147   24.7005 C   0  0  0  0  0  0  0  0  0  0  0  0
   16.0594  -16.3212   24.0438 C   0  0  0  0  0  0  0  0  0  0  0  0
    9.3206  -16.8515   25.3115 N   0  0  0  0  0  0  0  0  0  0  0  0
    8.2581  -16.8909   26.3343 C   0  0  1  0  0  0  0  0  0  0  0  0
    7.0085  -16.4009   25.6844 C   0  0  0  0  0  0  0  0  0  0  0  0
    7.1631  -15.0570   25.1360 C   0  0  0  0  0  0  0  0  0  0  0  0
    7.4767  -14.7426   23.8223 C   0  0  0  0  0  0  0  0  0  0  0  0
    7.5752  -13.4172   23.6833 N   0  0  0  0  0  0  0  0  0  0  0  0
    7.3304  -12.8711   24.8813 C   0  0  0  0  0  0  0  0  0  0  0  0
    7.2778  -11.5591   25.3243 C   0  0  0  0  0  0  0  0  0  0  0  0
    6.9799  -11.2194   26.6275 C   0  0  0  0  0  0  0  0  0  0  0  0
    6.7191  -12.2005   27.5508 C   0  0  0  0  0  0  0  0  0  0  0  0
    6.7677  -13.5076   27.1293 C   0  0  0  0  0  0  0  0  0  0  0  0
    7.0690  -13.8642   25.8122 C   0  0  0  0  0  0  0  0  0  0  0  0
    8.2244  -18.2204   26.9449 C   0  0  0  0  0  0  0  0  0  0  0  0
    7.4237  -18.4494   27.8905 O   0  0  0  0  0  0  0  0  0  0  0  0
    9.0182  -19.2841   26.5568 O   0  0  0  0  0  0  0  0  0  0  0  0
  2  1  1  1
  2  3  1  0
  4  2  1  0
  5  4  2  0
  7 17  2  0
  7  6  1  0
  8  7  1  0
  9 10  1  0
  9  8  2  0
 10 16  2  0
 12 11  1  6
 11 10  1  0
 12 13  1  0
 13  4  1  0
 14 18  1  0
 14 12  1  0
 15 14  2  0
 16 17  1  0
 19 20  1  6
 19 30  1  0
 19 18  1  0
 21 22  2  0
 21 20  1  0
 23 22  1  0
 24 29  2  0
 24 23  1  0
 25 24  1  0
 26 27  1  0
 26 25  2  0
 27 28  2  0
 28 29  1  0
 29 21  1  0
 30 32  1  0
 31 30  2  0
M  END
$$$$
