AYW.pdb
     RDKit          3D

 32 34  0  0  1  0  0  0  0  0999 V2000
    8.1090  -12.2338   19.5541 C   0  0  0  0  0  0  0  0  0  0  0  0
    8.6675  -13.4711   18.8525 C   0  0  2  0  0  0  0  0  0  0  0  0
    7.7202  -13.9396   17.8538 N   0  0  0  0  0  0  0  0  0  0  0  0
    8.8021  -14.5350   19.8783 C   0  0  0  0  0  0  0  0  0  0  0  0
    7.8719  -15.3668   20.0759 O   0  0  0  0  0  0  0  0  0  0  0  0
   15.1931  -13.6343   18.5885 O   0  0  0  0  0  0  0  0  0  0  0  0
   14.2193  -14.3786   19.2302 C   0  0  0  0  0  0  0  0  0  0  0  0
   13.2705  -15.0359   18.4525 C   0  0  0  0  0  0  0  0  0  0  0  0
   12.2810  -15.7892   19.0420 C   0  0  0  0  0  0  0  0  0  0  0  0
   12.2439  -15.8826   20.4142 C   0  0  0  0  0  0  0  0  0  0  0  0
   11.2156  -16.6609   21.0878 C   0  0  0  0  0  0  0  0  0  0  0  0
   10.0950  -15.7771   21.5889 C   0  0  2  0  0  0  0  0  0  0  0  0
    9.9747  -14.6506   20.6652 N   0  0  0  0  0  0  0  0  0  0  0  0
   10.4612  -15.2289   22.9246 C   0  0  0  0  0  0  0  0  0  0  0  0
   10.5204  -13.9799   23.1265 O   0  0  0  0  0  0  0  0  0  0  0  0
   13.1876  -15.2299   21.2036 C   0  0  0  0  0  0  0  0  0  0  0  0
   14.1603  -14.4883   20.6010 C   0  0  0  0  0  0  0  0  0  0  0  0
   10.7487  -16.0957   23.9906 N   0  0  0  0  0  0  0  0  0  0  0  0
    9.7940  -16.1914   25.1113 C   0  0  1  0  0  0  0  0  0  0  0  0
    8.4483  -16.4391   24.5180 C   0  0  0  0  0  0  0  0  0  0  0  0
    7.4476  -15.4970   25.0096 C   0  0  0  0  0  0  0  0  0  0  0  0
    6.0983  -15.4985   24.6895 C   0  0  0  0  0  0  0  0  0  0  0  0
    5.4879  -14.4717   25.2886 N   0  0  0  0  0  0  0  0  0  0  0  0
    6.4170  -13.8090   25.9892 C   0  0  0  0  0  0  0  0  0  0  0  0
    6.3595  -12.6918   26.8073 C   0  0  0  0  0  0  0  0  0  0  0  0
    7.4628  -12.1835   27.4604 C   0  0  0  0  0  0  0  0  0  0  0  0
    8.6864  -12.7876   27.3146 C   0  0  0  0  0  0  0  0  0  0  0  0
    8.7623  -13.8964   26.5063 C   0  0  0  0  0  0  0  0  0  0  0  0
    7.6518  -14.4202   25.8390 C   0  0  0  0  0  0  0  0  0  0  0  0
   10.2903  -17.1625   26.0870 C   0  0  0  0  0  0  0  0  0  0  0  0
   10.7825  -18.2507   25.6851 O   0  0  0  0  0  0  0  0  0  0  0  0
   10.2699  -16.9805   27.4577 O   0  0  0  0  0  0  0  0  0  0  0  0
  2  1  1  1
  2  3  1  0
  4  2  1  0
  5  4  2  0
  7 17  2  0
  7  6  1  0
  8  7  1  0
  9 10  1  0
  9  8  2  0
 10 16  2  0
 12 11  1  6
 11 10  1  0
 12 13  1  0
 13  4  1  0
 14 18  1  0
 14 12  1  0
 15 14  2  0
 16 17  1  0
 19 20  1  6
 19 30  1  0
 19 18  1  0
 21 22  2  0
 21 20  1  0
 23 22  1  0
 24 29  2  0
 24 23  1  0
 25 24  1  0
 26 27  1  0
 26 25  2  0
 27 28  2  0
 28 29  1  0
 29 21  1  0
 30 32  1  0
 31 30  2  0
M  END
$$$$
