AYW.pdb
     RDKit          3D

 32 34  0  0  1  0  0  0  0  0999 V2000
    7.2392  -13.5601   21.1223 C   0  0  0  0  0  0  0  0  0  0  0  0
    7.5705  -14.8567   20.3846 C   0  0  2  0  0  0  0  0  0  0  0  0
    6.3686  -15.3901   19.7638 N   0  0  0  0  0  0  0  0  0  0  0  0
    8.0242  -15.8376   21.4016 C   0  0  0  0  0  0  0  0  0  0  0  0
    7.2083  -16.6379   21.9400 O   0  0  0  0  0  0  0  0  0  0  0  0
   12.8356  -21.8990   25.2176 O   0  0  0  0  0  0  0  0  0  0  0  0
   12.4332  -20.7915   24.4927 C   0  0  0  0  0  0  0  0  0  0  0  0
   11.3235  -20.9133   23.6616 C   0  0  0  0  0  0  0  0  0  0  0  0
   10.8826  -19.8414   22.9194 C   0  0  0  0  0  0  0  0  0  0  0  0
   11.5569  -18.6456   23.0116 C   0  0  0  0  0  0  0  0  0  0  0  0
   11.1362  -17.4834   22.2441 C   0  0  0  0  0  0  0  0  0  0  0  0
    9.7952  -16.9670   22.7164 C   0  0  2  0  0  0  0  0  0  0  0  0
    9.3826  -15.9066   21.7987 N   0  0  0  0  0  0  0  0  0  0  0  0
    9.9505  -16.3598   24.0677 C   0  0  0  0  0  0  0  0  0  0  0  0
   10.5513  -15.2560   24.2249 O   0  0  0  0  0  0  0  0  0  0  0  0
   12.6685  -18.5108   23.8397 C   0  0  0  0  0  0  0  0  0  0  0  0
   13.0901  -19.5842   24.5673 C   0  0  0  0  0  0  0  0  0  0  0  0
    9.4285  -17.0071   25.1984 N   0  0  0  0  0  0  0  0  0  0  0  0
    9.7572  -16.4827   26.5376 C   0  0  1  0  0  0  0  0  0  0  0  0
    8.4696  -16.3308   27.2747 C   0  0  0  0  0  0  0  0  0  0  0  0
    7.5849  -15.3564   26.6434 C   0  0  0  0  0  0  0  0  0  0  0  0
    6.5622  -15.6404   25.7511 C   0  0  0  0  0  0  0  0  0  0  0  0
    5.9847  -14.5056   25.3455 N   0  0  0  0  0  0  0  0  0  0  0  0
    6.6147  -13.4958   25.9594 C   0  0  0  0  0  0  0  0  0  0  0  0
    6.4361  -12.1218   25.9352 C   0  0  0  0  0  0  0  0  0  0  0  0
    7.2049  -11.2528   26.6810 C   0  0  0  0  0  0  0  0  0  0  0  0
    8.1989  -11.7385   27.4929 C   0  0  0  0  0  0  0  0  0  0  0  0
    8.3908  -13.0987   27.5287 C   0  0  0  0  0  0  0  0  0  0  0  0
    7.6190  -13.9890   26.7775 C   0  0  0  0  0  0  0  0  0  0  0  0
   10.7879  -17.3243   27.1464 C   0  0  0  0  0  0  0  0  0  0  0  0
   11.0627  -18.4407   26.6307 O   0  0  0  0  0  0  0  0  0  0  0  0
   11.5145  -16.9863   28.2734 O   0  0  0  0  0  0  0  0  0  0  0  0
  2  1  1  1
  2  3  1  0
  4  2  1  0
  5  4  2  0
  7 17  2  0
  7  6  1  0
  8  7  1  0
  9 10  1  0
  9  8  2  0
 10 16  2  0
 12 11  1  6
 11 10  1  0
 12 13  1  0
 13  4  1  0
 14 18  1  0
 14 12  1  0
 15 14  2  0
 16 17  1  0
 19 20  1  1
 19 30  1  0
 19 18  1  0
 21 22  2  0
 21 20  1  0
 23 22  1  0
 24 29  2  0
 24 23  1  0
 25 24  1  0
 26 27  1  0
 26 25  2  0
 27 28  2  0
 28 29  1  0
 29 21  1  0
 30 32  1  0
 31 30  2  0
M  END
$$$$
