AYW.pdb
     RDKit          3D

 32 34  0  0  1  0  0  0  0  0999 V2000
    9.7380  -19.5284   21.4206 C   0  0  0  0  0  0  0  0  0  0  0  0
    9.2877  -18.4827   20.4014 C   0  0  2  0  0  0  0  0  0  0  0  0
    9.9897  -18.6869   19.1444 N   0  0  0  0  0  0  0  0  0  0  0  0
    9.6872  -17.1543   20.9286 C   0  0  0  0  0  0  0  0  0  0  0  0
   10.7800  -16.6220   20.5845 O   0  0  0  0  0  0  0  0  0  0  0  0
    7.1286  -13.2687   16.6626 O   0  0  0  0  0  0  0  0  0  0  0  0
    7.3545  -13.5127   18.0055 C   0  0  0  0  0  0  0  0  0  0  0  0
    8.2398  -12.6835   18.6879 C   0  0  0  0  0  0  0  0  0  0  0  0
    8.4990  -12.8839   20.0246 C   0  0  0  0  0  0  0  0  0  0  0  0
    7.8686  -13.9183   20.6771 C   0  0  0  0  0  0  0  0  0  0  0  0
    8.1118  -14.1774   22.0880 C   0  0  0  0  0  0  0  0  0  0  0  0
    9.2793  -15.1192   22.2823 C   0  0  2  0  0  0  0  0  0  0  0  0
    8.8574  -16.4440   21.8311 N   0  0  0  0  0  0  0  0  0  0  0  0
    9.5962  -15.2162   23.7345 C   0  0  0  0  0  0  0  0  0  0  0  0
   10.0350  -14.2171   24.3775 O   0  0  0  0  0  0  0  0  0  0  0  0
    6.9804  -14.7549   20.0056 C   0  0  0  0  0  0  0  0  0  0  0  0
    6.7365  -14.5404   18.6814 C   0  0  0  0  0  0  0  0  0  0  0  0
    9.4113  -16.4271   24.4197 N   0  0  0  0  0  0  0  0  0  0  0  0
    9.7890  -16.5075   25.8436 C   0  0  1  0  0  0  0  0  0  0  0  0
    8.5382  -16.7693   26.6125 C   0  0  0  0  0  0  0  0  0  0  0  0
    7.5095  -15.7678   26.3489 C   0  0  0  0  0  0  0  0  0  0  0  0
    6.3163  -15.9811   25.6753 C   0  0  0  0  0  0  0  0  0  0  0  0
    5.6346  -14.8353   25.5844 N   0  0  0  0  0  0  0  0  0  0  0  0
    6.3646  -13.8879   26.1869 C   0  0  0  0  0  0  0  0  0  0  0  0
    6.1528  -12.5368   26.4103 C   0  0  0  0  0  0  0  0  0  0  0  0
    7.0514  -11.7392   27.0875 C   0  0  0  0  0  0  0  0  0  0  0  0
    8.2164  -12.2769   27.5743 C   0  0  0  0  0  0  0  0  0  0  0  0
    8.4435  -13.6153   27.3612 C   0  0  0  0  0  0  0  0  0  0  0  0
    7.5411  -14.4333   26.6762 C   0  0  0  0  0  0  0  0  0  0  0  0
   10.8883  -17.4608   25.9987 C   0  0  0  0  0  0  0  0  0  0  0  0
   11.1966  -18.2151   25.0375 O   0  0  0  0  0  0  0  0  0  0  0  0
   11.6469  -17.6063   27.1457 O   0  0  0  0  0  0  0  0  0  0  0  0
  2  1  1  1
  2  3  1  0
  4  2  1  0
  5  4  2  0
  7 17  2  0
  7  6  1  0
  8  7  1  0
  9 10  1  0
  9  8  2  0
 10 16  2  0
 12 11  1  1
 11 10  1  0
 12 13  1  0
 13  4  1  0
 14 18  1  0
 14 12  1  0
 15 14  2  0
 16 17  1  0
 19 20  1  1
 19 30  1  0
 19 18  1  0
 21 22  2  0
 21 20  1  0
 23 22  1  0
 24 29  2  0
 24 23  1  0
 25 24  1  0
 26 27  1  0
 26 25  2  0
 27 28  2  0
 28 29  1  0
 29 21  1  0
 30 32  1  0
 31 30  2  0
M  END
$$$$
