CDM.pdb
     RDKit          3D

 23 22  0  0  1  0  0  0  0  0999 V2000
   26.4163  -20.8408  -17.4991 N   0  0  0  0  0  0  0  0  0  0  0  0
   25.6890  -21.6842  -16.5765 C   0  0  1  0  0  0  0  0  0  0  0  0
   26.2401  -21.4297  -15.1921 C   0  0  0  0  0  0  0  0  0  0  0  0
   27.8614  -22.2453  -15.1067 S   0  0  0  0  0  0  0  0  0  0  0  0
   24.2187  -21.4023  -16.6453 C   0  0  0  0  0  0  0  0  0  0  0  0
   23.8258  -20.2196  -16.7907 O   0  0  0  0  0  0  0  0  0  0  0  0
   23.2540  -22.4429  -16.5497 N   0  0  0  0  0  0  0  0  0  0  0  0
   21.8228  -22.2211  -16.5158 C   0  0  1  0  0  0  0  0  0  0  0  0
   21.1462  -23.2119  -17.4147 C   0  0  0  0  0  0  0  0  0  0  0  0
   19.6947  -23.1158  -17.4573 C   0  0  0  0  0  0  0  0  0  0  0  0
   19.1590  -22.0055  -17.6915 O   0  0  0  0  0  0  0  0  0  0  0  0
   21.3260  -22.4101  -15.1236 C   0  0  0  0  0  0  0  0  0  0  0  0
   21.7317  -23.4098  -14.4551 O   0  0  0  0  0  0  0  0  0  0  0  0
   18.8798  -24.2088  -17.2483 O   0  0  0  0  0  0  0  0  0  0  0  0
   20.5806  -18.1559  -10.5169 C   0  0  0  0  0  0  0  0  0  0  0  0
   20.8965  -19.7587   -9.7307 S   0  0  0  0  0  0  0  0  0  0  0  0
   20.4719  -21.1303  -10.8024 C   0  0  0  0  0  0  0  0  0  0  0  0
   20.4120  -20.6863  -12.2220 C   0  0  0  0  0  0  0  0  0  0  0  0
   19.9930  -21.7985  -13.1170 C   0  0  2  0  0  0  0  0  0  0  0  0
   20.4255  -21.5427  -14.4933 N   0  0  0  0  0  0  0  0  0  0  0  0
   18.5444  -22.0751  -13.1718 C   0  0  0  0  0  0  0  0  0  0  0  0
   17.8567  -22.8394  -12.2308 O   0  0  0  0  0  0  0  0  0  0  0  0
   17.7976  -21.6260  -14.1092 O   0  0  0  0  0  0  0  0  0  0  0  0
  2  1  1  6
  2  3  1  0
  4  3  1  0
  5  2  1  0
  6  5  2  0
  7  5  1  0
  8 12  1  0
  8  7  1  0
  8  9  1  6
 10  9  1  0
 11 10  2  0
 12 20  1  0
 13 12  2  0
 14 10  1  0
 16 17  1  0
 16 15  1  0
 19 18  1  1
 18 17  1  0
 20 19  1  0
 21 22  1  0
 21 19  1  0
 23 21  2  0
M  END
$$$$
