CDM.pdb
     RDKit          3D

 23 22  0  0  1  0  0  0  0  0999 V2000
   17.3785  -13.1918  -18.9141 N   0  0  0  0  0  0  0  0  0  0  0  0
   17.5472  -12.6992  -17.5648 C   0  0  1  0  0  0  0  0  0  0  0  0
   18.3175  -13.7434  -16.7895 C   0  0  0  0  0  0  0  0  0  0  0  0
   18.3113  -13.2252  -15.0482 S   0  0  0  0  0  0  0  0  0  0  0  0
   18.2561  -11.3787  -17.5661 C   0  0  0  0  0  0  0  0  0  0  0  0
   19.2709  -11.2267  -18.2881 O   0  0  0  0  0  0  0  0  0  0  0  0
   17.8077  -10.2903  -16.7682 N   0  0  0  0  0  0  0  0  0  0  0  0
   18.4005   -8.9686  -16.7929 C   0  0  1  0  0  0  0  0  0  0  0  0
   17.4091   -7.9709  -16.2742 C   0  0  0  0  0  0  0  0  0  0  0  0
   16.2825   -7.7046  -17.1560 C   0  0  0  0  0  0  0  0  0  0  0  0
   16.4872   -7.5467  -18.3839 O   0  0  0  0  0  0  0  0  0  0  0  0
   19.6083   -8.9519  -15.9202 C   0  0  0  0  0  0  0  0  0  0  0  0
   19.5249   -9.4206  -14.7437 O   0  0  0  0  0  0  0  0  0  0  0  0
   14.9878   -7.6187  -16.6882 O   0  0  0  0  0  0  0  0  0  0  0  0
   27.0879  -10.6092  -15.2237 C   0  0  0  0  0  0  0  0  0  0  0  0
   25.6105  -10.3423  -16.2400 S   0  0  0  0  0  0  0  0  0  0  0  0
   24.3113   -9.5052  -15.3337 C   0  0  0  0  0  0  0  0  0  0  0  0
   23.0899   -9.3707  -16.1739 C   0  0  0  0  0  0  0  0  0  0  0  0
   22.0273   -8.6109  -15.4619 C   0  0  2  0  0  0  0  0  0  0  0  0
   20.8508   -8.4445  -16.3193 N   0  0  0  0  0  0  0  0  0  0  0  0
   22.4009   -7.2643  -14.9878 C   0  0  0  0  0  0  0  0  0  0  0  0
   22.9766   -7.0027  -13.7458 O   0  0  0  0  0  0  0  0  0  0  0  0
   22.2172   -6.2145  -15.6968 O   0  0  0  0  0  0  0  0  0  0  0  0
  2  1  1  6
  2  3  1  0
  4  3  1  0
  5  2  1  0
  6  5  2  0
  7  5  1  0
  8 12  1  0
  8  7  1  0
  8  9  1  1
 10  9  1  0
 11 10  2  0
 12 20  1  0
 13 12  2  0
 14 10  1  0
 16 17  1  0
 16 15  1  0
 19 18  1  6
 18 17  1  0
 20 19  1  0
 21 22  1  0
 21 19  1  0
 23 21  2  0
M  END
$$$$
