CDM.pdb
     RDKit          3D

 23 22  0  0  1  0  0  0  0  0999 V2000
   27.2289  -18.9997  -16.5447 N   0  0  0  0  0  0  0  0  0  0  0  0
   27.7678  -19.4372  -15.2759 C   0  0  1  0  0  0  0  0  0  0  0  0
   28.9922  -18.5997  -14.9857 C   0  0  0  0  0  0  0  0  0  0  0  0
   29.2814  -17.5566  -16.4449 S   0  0  0  0  0  0  0  0  0  0  0  0
   26.7421  -19.3093  -14.1907 C   0  0  0  0  0  0  0  0  0  0  0  0
   26.3526  -18.1679  -13.8447 O   0  0  0  0  0  0  0  0  0  0  0  0
   26.1971  -20.4507  -13.5407 N   0  0  0  0  0  0  0  0  0  0  0  0
   25.1563  -20.3911  -12.5346 C   0  0  1  0  0  0  0  0  0  0  0  0
   23.9982  -21.2382  -12.9686 C   0  0  0  0  0  0  0  0  0  0  0  0
   22.6854  -20.7088  -12.6304 C   0  0  0  0  0  0  0  0  0  0  0  0
   22.0946  -21.1370  -11.6096 O   0  0  0  0  0  0  0  0  0  0  0  0
   25.6854  -20.9161  -11.2442 C   0  0  0  0  0  0  0  0  0  0  0  0
   26.2469  -22.0541  -11.2259 O   0  0  0  0  0  0  0  0  0  0  0  0
   22.0619  -19.7462  -13.3966 O   0  0  0  0  0  0  0  0  0  0  0  0
   29.0889  -18.6327   -6.3906 C   0  0  0  0  0  0  0  0  0  0  0  0
   27.8219  -19.5436   -5.4675 S   0  0  0  0  0  0  0  0  0  0  0  0
   26.8645  -20.6262   -6.5264 C   0  0  0  0  0  0  0  0  0  0  0  0
   26.7376  -20.0454   -7.8912 C   0  0  0  0  0  0  0  0  0  0  0  0
   25.9010  -20.9083   -8.7680 C   0  0  2  0  0  0  0  0  0  0  0  0
   25.6025  -20.2249  -10.0293 N   0  0  0  0  0  0  0  0  0  0  0  0
   24.6082  -21.3438   -8.2051 C   0  0  0  0  0  0  0  0  0  0  0  0
   24.4763  -22.2621   -7.1650 O   0  0  0  0  0  0  0  0  0  0  0  0
   23.4888  -20.9028   -8.6419 O   0  0  0  0  0  0  0  0  0  0  0  0
  2  1  1  6
  2  3  1  0
  4  3  1  0
  5  2  1  0
  6  5  2  0
  7  5  1  0
  8 12  1  0
  8  7  1  0
  8  9  1  6
 10  9  1  0
 11 10  2  0
 12 20  1  0
 13 12  2  0
 14 10  1  0
 16 17  1  0
 16 15  1  0
 19 18  1  1
 18 17  1  0
 20 19  1  0
 21 22  1  0
 21 19  1  0
 23 21  2  0
M  END
$$$$
