CDM.pdb
     RDKit          3D

 23 22  0  0  1  0  0  0  0  0999 V2000
   17.8003  -11.1694  -17.0171 N   0  0  0  0  0  0  0  0  0  0  0  0
   19.1627  -10.9994  -17.4716 C   0  0  1  0  0  0  0  0  0  0  0  0
   19.2552  -11.5760  -18.8659 C   0  0  0  0  0  0  0  0  0  0  0  0
   19.0209  -13.3714  -18.7156 S   0  0  0  0  0  0  0  0  0  0  0  0
   19.5547   -9.5531  -17.4458 C   0  0  0  0  0  0  0  0  0  0  0  0
   20.7314   -9.2300  -17.7379 O   0  0  0  0  0  0  0  0  0  0  0  0
   18.6256   -8.5342  -17.0978 N   0  0  0  0  0  0  0  0  0  0  0  0
   18.9639   -7.1292  -16.9948 C   0  0  1  0  0  0  0  0  0  0  0  0
   17.7693   -6.3032  -17.3663 C   0  0  0  0  0  0  0  0  0  0  0  0
   17.9748   -4.8634  -17.3159 C   0  0  0  0  0  0  0  0  0  0  0  0
   17.5742   -4.2201  -16.3157 O   0  0  0  0  0  0  0  0  0  0  0  0
   19.3533   -6.8161  -15.5909 C   0  0  0  0  0  0  0  0  0  0  0  0
   18.7649   -7.4160  -14.6398 O   0  0  0  0  0  0  0  0  0  0  0  0
   18.5986   -4.1743  -18.3350 O   0  0  0  0  0  0  0  0  0  0  0  0
   23.2786   -8.9663  -10.0803 C   0  0  0  0  0  0  0  0  0  0  0  0
   22.6268   -8.8845  -11.7701 S   0  0  0  0  0  0  0  0  0  0  0  0
   22.0352   -7.2451  -12.1855 C   0  0  0  0  0  0  0  0  0  0  0  0
   21.4092   -7.2412  -13.5361 C   0  0  0  0  0  0  0  0  0  0  0  0
   20.9160   -5.8848  -13.8972 C   0  0  2  0  0  0  0  0  0  0  0  0
   20.3428   -5.8874  -15.2456 N   0  0  0  0  0  0  0  0  0  0  0  0
   21.9173   -4.8013  -13.8637 C   0  0  0  0  0  0  0  0  0  0  0  0
   22.3906   -4.2078  -12.6948 O   0  0  0  0  0  0  0  0  0  0  0  0
   22.4338   -4.3145  -14.9289 O   0  0  0  0  0  0  0  0  0  0  0  0
  2  1  1  6
  2  3  1  0
  4  3  1  0
  5  2  1  0
  6  5  2  0
  7  5  1  0
  8 12  1  0
  8  7  1  0
  8  9  1  1
 10  9  1  0
 11 10  2  0
 12 20  1  0
 13 12  2  0
 14 10  1  0
 16 17  1  0
 16 15  1  0
 19 18  1  6
 18 17  1  0
 20 19  1  0
 21 22  1  0
 21 19  1  0
 23 21  2  0
M  END
$$$$
