CDM.pdb
     RDKit          3D

 23 22  0  0  1  0  0  0  0  0999 V2000
   18.8705   -9.8614  -14.9646 N   0  0  0  0  0  0  0  0  0  0  0  0
   19.0895   -9.3446  -13.6317 C   0  0  1  0  0  0  0  0  0  0  0  0
   20.0744   -8.2031  -13.7395 C   0  0  0  0  0  0  0  0  0  0  0  0
   21.6989   -8.9340  -14.0969 S   0  0  0  0  0  0  0  0  0  0  0  0
   17.7974   -8.9019  -13.0147 C   0  0  0  0  0  0  0  0  0  0  0  0
   16.9621   -8.2817  -13.7160 O   0  0  0  0  0  0  0  0  0  0  0  0
   17.4921   -9.1669  -11.6512 N   0  0  0  0  0  0  0  0  0  0  0  0
   16.3252   -8.6492  -10.9662 C   0  0  1  0  0  0  0  0  0  0  0  0
   15.8910   -9.6284   -9.9174 C   0  0  0  0  0  0  0  0  0  0  0  0
   15.1244  -10.7625  -10.4115 C   0  0  0  0  0  0  0  0  0  0  0  0
   14.2101  -10.5682  -11.2487 O   0  0  0  0  0  0  0  0  0  0  0  0
   16.6699   -7.3562  -10.3104 C   0  0  0  0  0  0  0  0  0  0  0  0
   17.8366   -7.1974   -9.8368 O   0  0  0  0  0  0  0  0  0  0  0  0
   15.3678  -12.0531   -9.9902 O   0  0  0  0  0  0  0  0  0  0  0  0
   19.1588   -0.7259  -11.7322 C   0  0  0  0  0  0  0  0  0  0  0  0
   18.6032   -2.4279  -12.0181 S   0  0  0  0  0  0  0  0  0  0  0  0
   17.5753   -3.0347  -10.6820 C   0  0  0  0  0  0  0  0  0  0  0  0
   17.1529   -4.4382  -10.9425 C   0  0  0  0  0  0  0  0  0  0  0  0
   16.2705   -4.9452   -9.8573 C   0  0  2  0  0  0  0  0  0  0  0  0
   15.7762   -6.2863  -10.1800 N   0  0  0  0  0  0  0  0  0  0  0  0
   15.0872   -4.1202   -9.5460 C   0  0  0  0  0  0  0  0  0  0  0  0
   13.8175   -4.3393  -10.0775 O   0  0  0  0  0  0  0  0  0  0  0  0
   15.1417   -3.1195   -8.7498 O   0  0  0  0  0  0  0  0  0  0  0  0
  2  1  1  6
  2  3  1  0
  4  3  1  0
  5  2  1  0
  6  5  2  0
  7  5  1  0
  8 12  1  0
  8  7  1  0
  8  9  1  1
 10  9  1  0
 11 10  2  0
 12 20  1  0
 13 12  2  0
 14 10  1  0
 16 17  1  0
 16 15  1  0
 19 18  1  6
 18 17  1  0
 20 19  1  0
 21 22  1  0
 21 19  1  0
 23 21  2  0
M  END
$$$$
