CDM.pdb
     RDKit          3D

 23 22  0  0  1  0  0  0  0  0999 V2000
   27.6672  -21.3651  -15.8094 N   0  0  0  0  0  0  0  0  0  0  0  0
   27.0926  -20.3914  -14.9076 C   0  0  1  0  0  0  0  0  0  0  0  0
   26.7213  -19.1747  -15.7242 C   0  0  0  0  0  0  0  0  0  0  0  0
   28.2744  -18.4043  -16.2673 S   0  0  0  0  0  0  0  0  0  0  0  0
   25.9032  -20.9626  -14.1968 C   0  0  0  0  0  0  0  0  0  0  0  0
   25.2561  -21.8945  -14.7326 O   0  0  0  0  0  0  0  0  0  0  0  0
   25.4874  -20.4749  -12.9272 N   0  0  0  0  0  0  0  0  0  0  0  0
   24.3241  -20.9608  -12.2133 C   0  0  1  0  0  0  0  0  0  0  0  0
   24.3774  -20.4809  -10.7941 C   0  0  0  0  0  0  0  0  0  0  0  0
   25.3378  -21.1702   -9.9452 C   0  0  0  0  0  0  0  0  0  0  0  0
   25.5474  -20.7447   -8.7835 O   0  0  0  0  0  0  0  0  0  0  0  0
   23.0904  -20.4306  -12.8593 C   0  0  0  0  0  0  0  0  0  0  0  0
   23.0524  -19.2104  -13.2065 O   0  0  0  0  0  0  0  0  0  0  0  0
   26.0315  -22.2825  -10.3740 O   0  0  0  0  0  0  0  0  0  0  0  0
   21.1649  -21.5740  -18.3671 C   0  0  0  0  0  0  0  0  0  0  0  0
   19.5198  -21.4167  -17.6214 S   0  0  0  0  0  0  0  0  0  0  0  0
   19.5888  -20.6949  -15.9830 C   0  0  0  0  0  0  0  0  0  0  0  0
   20.7547  -21.2267  -15.2255 C   0  0  0  0  0  0  0  0  0  0  0  0
   20.8253  -20.6366  -13.8616 C   0  0  2  0  0  0  0  0  0  0  0  0
   21.9504  -21.2030  -13.1131 N   0  0  0  0  0  0  0  0  0  0  0  0
   19.6259  -20.8076  -13.0189 C   0  0  0  0  0  0  0  0  0  0  0  0
   18.4654  -20.0459  -13.1440 O   0  0  0  0  0  0  0  0  0  0  0  0
   19.5629  -21.6852  -12.0893 O   0  0  0  0  0  0  0  0  0  0  0  0
  2  1  1  6
  2  3  1  0
  4  3  1  0
  5  2  1  0
  6  5  2  0
  7  5  1  0
  8 12  1  0
  8  7  1  0
  8  9  1  1
 10  9  1  0
 11 10  2  0
 12 20  1  0
 13 12  2  0
 14 10  1  0
 16 17  1  0
 16 15  1  0
 19 18  1  6
 18 17  1  0
 20 19  1  0
 21 22  1  0
 21 19  1  0
 23 21  2  0
M  END
$$$$
