CDM.pdb
     RDKit          3D

 23 22  0  0  1  0  0  0  0  0999 V2000
   28.4580  -19.0297  -12.9437 N   0  0  0  0  0  0  0  0  0  0  0  0
   28.3804  -20.4106  -13.3664 C   0  0  1  0  0  0  0  0  0  0  0  0
   29.4962  -21.1632  -12.6783 C   0  0  0  0  0  0  0  0  0  0  0  0
   30.8677  -19.9930  -12.4537 S   0  0  0  0  0  0  0  0  0  0  0  0
   27.0386  -20.9920  -13.0380 C   0  0  0  0  0  0  0  0  0  0  0  0
   26.7269  -22.1168  -13.4984 O   0  0  0  0  0  0  0  0  0  0  0  0
   26.1065  -20.3005  -12.2161 N   0  0  0  0  0  0  0  0  0  0  0  0
   24.7983  -20.8141  -11.8646 C   0  0  1  0  0  0  0  0  0  0  0  0
   24.4430  -20.3600  -10.4808 C   0  0  0  0  0  0  0  0  0  0  0  0
   25.0925  -21.0934   -9.4047 C   0  0  0  0  0  0  0  0  0  0  0  0
   24.3885  -21.6425   -8.5229 O   0  0  0  0  0  0  0  0  0  0  0  0
   23.7864  -20.2876  -12.8234 C   0  0  0  0  0  0  0  0  0  0  0  0
   23.5862  -19.0357  -12.8823 O   0  0  0  0  0  0  0  0  0  0  0  0
   26.4643  -21.2083   -9.3177 O   0  0  0  0  0  0  0  0  0  0  0  0
   23.6829  -20.5565  -18.8640 C   0  0  0  0  0  0  0  0  0  0  0  0
   21.8831  -20.5970  -18.6489 S   0  0  0  0  0  0  0  0  0  0  0  0
   21.3996  -20.2754  -16.9540 C   0  0  0  0  0  0  0  0  0  0  0  0
   22.4420  -20.7644  -16.0105 C   0  0  0  0  0  0  0  0  0  0  0  0
   22.0588  -20.4960  -14.5982 C   0  0  2  0  0  0  0  0  0  0  0  0
   23.0284  -21.0968  -13.6786 N   0  0  0  0  0  0  0  0  0  0  0  0
   20.7268  -20.9788  -14.1855 C   0  0  0  0  0  0  0  0  0  0  0  0
   20.4624  -22.2790  -13.7587 O   0  0  0  0  0  0  0  0  0  0  0  0
   19.6935  -20.2234  -14.1920 O   0  0  0  0  0  0  0  0  0  0  0  0
  2  1  1  1
  2  3  1  0
  4  3  1  0
  5  2  1  0
  6  5  2  0
  7  5  1  0
  8 12  1  0
  8  7  1  0
  8  9  1  1
 10  9  1  0
 11 10  2  0
 12 20  1  0
 13 12  2  0
 14 10  1  0
 16 17  1  0
 16 15  1  0
 19 18  1  6
 18 17  1  0
 20 19  1  0
 21 22  1  0
 21 19  1  0
 23 21  2  0
M  END
$$$$
