CDM.pdb
     RDKit          3D

 23 22  0  0  1  0  0  0  0  0999 V2000
   16.5192  -13.9387  -16.4989 N   0  0  0  0  0  0  0  0  0  0  0  0
   16.6639  -12.9908  -15.4162 C   0  0  1  0  0  0  0  0  0  0  0  0
   17.4125  -13.6822  -14.2997 C   0  0  0  0  0  0  0  0  0  0  0  0
   16.2541  -14.8473  -13.5242 S   0  0  0  0  0  0  0  0  0  0  0  0
   17.3804  -11.7592  -15.8808 C   0  0  0  0  0  0  0  0  0  0  0  0
   18.3609  -11.8738  -16.6552 O   0  0  0  0  0  0  0  0  0  0  0  0
   16.9771  -10.4600  -15.4659 N   0  0  0  0  0  0  0  0  0  0  0  0
   17.6219   -9.2355  -15.8944 C   0  0  1  0  0  0  0  0  0  0  0  0
   16.7427   -8.0686  -15.5584 C   0  0  0  0  0  0  0  0  0  0  0  0
   17.2143   -6.7805  -16.0445 C   0  0  0  0  0  0  0  0  0  0  0  0
   18.2703   -6.7279  -16.7203 O   0  0  0  0  0  0  0  0  0  0  0  0
   18.9217   -9.0854  -15.1813 C   0  0  0  0  0  0  0  0  0  0  0  0
   18.9774   -9.3457  -13.9404 O   0  0  0  0  0  0  0  0  0  0  0  0
   16.5380   -5.6061  -15.7877 O   0  0  0  0  0  0  0  0  0  0  0  0
   26.2208  -11.0446  -14.4849 C   0  0  0  0  0  0  0  0  0  0  0  0
   24.7051  -10.9093  -15.4705 S   0  0  0  0  0  0  0  0  0  0  0  0
   23.5838   -9.6745  -14.8163 C   0  0  0  0  0  0  0  0  0  0  0  0
   22.3146   -9.6556  -15.5940 C   0  0  0  0  0  0  0  0  0  0  0  0
   21.3649   -8.6476  -15.0505 C   0  0  2  0  0  0  0  0  0  0  0  0
   20.1065   -8.6689  -15.8006 N   0  0  0  0  0  0  0  0  0  0  0  0
   21.8352   -7.2488  -15.0499 C   0  0  0  0  0  0  0  0  0  0  0  0
   22.5046   -6.6478  -13.9854 O   0  0  0  0  0  0  0  0  0  0  0  0
   21.6564   -6.4670  -16.0475 O   0  0  0  0  0  0  0  0  0  0  0  0
  2  1  1  6
  2  3  1  0
  4  3  1  0
  5  2  1  0
  6  5  2  0
  7  5  1  0
  8 12  1  0
  8  7  1  0
  8  9  1  1
 10  9  1  0
 11 10  2  0
 12 20  1  0
 13 12  2  0
 14 10  1  0
 16 17  1  0
 16 15  1  0
 19 18  1  6
 18 17  1  0
 20 19  1  0
 21 22  1  0
 21 19  1  0
 23 21  2  0
M  END
$$$$
