CDM.pdb
     RDKit          3D

 23 22  0  0  1  0  0  0  0  0999 V2000
   17.2222  -14.0866  -17.4554 N   0  0  0  0  0  0  0  0  0  0  0  0
   17.1345  -13.3376  -16.2213 C   0  0  1  0  0  0  0  0  0  0  0  0
   17.9229  -14.0889  -15.1730 C   0  0  0  0  0  0  0  0  0  0  0  0
   16.8193  -15.3578  -14.4854 S   0  0  0  0  0  0  0  0  0  0  0  0
   17.6530  -11.9439  -16.4078 C   0  0  0  0  0  0  0  0  0  0  0  0
   18.7237  -11.7656  -17.0373 O   0  0  0  0  0  0  0  0  0  0  0  0
   16.9617  -10.8147  -15.8887 N   0  0  0  0  0  0  0  0  0  0  0  0
   17.3541   -9.4415  -16.1319 C   0  0  1  0  0  0  0  0  0  0  0  0
   16.2791   -8.5232  -15.6335 C   0  0  0  0  0  0  0  0  0  0  0  0
   16.4937   -7.1116  -15.9154 C   0  0  0  0  0  0  0  0  0  0  0  0
   16.0205   -6.2504  -15.1350 O   0  0  0  0  0  0  0  0  0  0  0  0
   18.6188   -9.1515  -15.3992 C   0  0  0  0  0  0  0  0  0  0  0  0
   18.8123   -9.6906  -14.2667 O   0  0  0  0  0  0  0  0  0  0  0  0
   17.2036   -6.6822  -17.0172 O   0  0  0  0  0  0  0  0  0  0  0  0
   24.6914  -11.2475  -13.7594 C   0  0  0  0  0  0  0  0  0  0  0  0
   24.3360  -10.2110  -15.2038 S   0  0  0  0  0  0  0  0  0  0  0  0
   23.1738   -8.9014  -14.8239 C   0  0  0  0  0  0  0  0  0  0  0  0
   21.8883   -9.1176  -15.5427 C   0  0  0  0  0  0  0  0  0  0  0  0
   20.8644   -8.1216  -15.1266 C   0  0  2  0  0  0  0  0  0  0  0  0
   19.6255   -8.3087  -15.8861 N   0  0  0  0  0  0  0  0  0  0  0  0
   21.2430   -6.7029  -15.2748 C   0  0  0  0  0  0  0  0  0  0  0  0
   20.7751   -5.8691  -16.2889 O   0  0  0  0  0  0  0  0  0  0  0  0
   22.0484   -6.1222  -14.4671 O   0  0  0  0  0  0  0  0  0  0  0  0
  2  1  1  6
  2  3  1  0
  4  3  1  0
  5  2  1  0
  6  5  2  0
  7  5  1  0
  8 12  1  0
  8  7  1  0
  8  9  1  1
 10  9  1  0
 11 10  2  0
 12 20  1  0
 13 12  2  0
 14 10  1  0
 16 17  1  0
 16 15  1  0
 19 18  1  6
 18 17  1  0
 20 19  1  0
 21 22  1  0
 21 19  1  0
 23 21  2  0
M  END
$$$$
