CDM.pdb
     RDKit          3D

 23 22  0  0  1  0  0  0  0  0999 V2000
   13.1736  -11.9596  -11.1641 N   0  0  0  0  0  0  0  0  0  0  0  0
   13.2735  -11.1317  -12.3457 C   0  0  1  0  0  0  0  0  0  0  0  0
   12.0123  -10.3030  -12.4318 C   0  0  0  0  0  0  0  0  0  0  0  0
   10.6395  -11.4537  -12.7357 S   0  0  0  0  0  0  0  0  0  0  0  0
   14.4976  -10.2688  -12.2877 C   0  0  0  0  0  0  0  0  0  0  0  0
   14.7022   -9.5598  -11.2730 O   0  0  0  0  0  0  0  0  0  0  0  0
   15.4361  -10.2323  -13.3556 N   0  0  0  0  0  0  0  0  0  0  0  0
   16.5930   -9.3609  -13.3888 C   0  0  1  0  0  0  0  0  0  0  0  0
   17.7293  -10.0710  -14.0610 C   0  0  0  0  0  0  0  0  0  0  0  0
   18.9349   -9.2757  -14.2396 C   0  0  0  0  0  0  0  0  0  0  0  0
   19.5901   -8.9181  -13.2309 O   0  0  0  0  0  0  0  0  0  0  0  0
   16.2634   -8.1307  -14.1624 C   0  0  0  0  0  0  0  0  0  0  0  0
   15.6761   -8.2456  -15.2817 O   0  0  0  0  0  0  0  0  0  0  0  0
   19.3874   -8.8975  -15.4864 O   0  0  0  0  0  0  0  0  0  0  0  0
   12.6344   -1.6287  -15.1890 C   0  0  0  0  0  0  0  0  0  0  0  0
   13.2055   -2.9814  -14.1254 S   0  0  0  0  0  0  0  0  0  0  0  0
   14.7001   -3.7459  -14.7515 C   0  0  0  0  0  0  0  0  0  0  0  0
   14.9981   -4.9999  -14.0068 C   0  0  0  0  0  0  0  0  0  0  0  0
   16.2051   -5.6768  -14.5530 C   0  0  2  0  0  0  0  0  0  0  0  0
   16.5640   -6.8337  -13.7287 N   0  0  0  0  0  0  0  0  0  0  0  0
   17.4184   -4.8445  -14.6675 C   0  0  0  0  0  0  0  0  0  0  0  0
   17.5129   -3.7023  -15.4606 O   0  0  0  0  0  0  0  0  0  0  0  0
   18.4973   -5.1180  -14.0354 O   0  0  0  0  0  0  0  0  0  0  0  0
  2  1  1  1
  2  3  1  0
  4  3  1  0
  5  2  1  0
  6  5  2  0
  7  5  1  0
  8 12  1  0
  8  7  1  0
  8  9  1  6
 10  9  1  0
 11 10  2  0
 12 20  1  0
 13 12  2  0
 14 10  1  0
 16 17  1  0
 16 15  1  0
 19 18  1  1
 18 17  1  0
 20 19  1  0
 21 22  1  0
 21 19  1  0
 23 21  2  0
M  END
$$$$
