CDM.pdb
     RDKit          3D

 23 22  0  0  1  0  0  0  0  0999 V2000
   28.8661  -18.6784  -14.8403 N   0  0  0  0  0  0  0  0  0  0  0  0
   28.1652  -19.9056  -14.5332 C   0  0  1  0  0  0  0  0  0  0  0  0
   29.1923  -20.9185  -14.0816 C   0  0  0  0  0  0  0  0  0  0  0  0
   29.4859  -20.6261  -12.3127 S   0  0  0  0  0  0  0  0  0  0  0  0
   27.1215  -19.6727  -13.4831 C   0  0  0  0  0  0  0  0  0  0  0  0
   27.2076  -18.6620  -12.7445 O   0  0  0  0  0  0  0  0  0  0  0  0
   26.0329  -20.5695  -13.3011 N   0  0  0  0  0  0  0  0  0  0  0  0
   24.9944  -20.3928  -12.3064 C   0  0  1  0  0  0  0  0  0  0  0  0
   23.7385  -21.0626  -12.7768 C   0  0  0  0  0  0  0  0  0  0  0  0
   22.5422  -20.7357  -12.0152 C   0  0  0  0  0  0  0  0  0  0  0  0
   21.4773  -21.3577  -12.2466 O   0  0  0  0  0  0  0  0  0  0  0  0
   25.4266  -21.0169  -11.0241 C   0  0  0  0  0  0  0  0  0  0  0  0
   25.8770  -22.2034  -11.0373 O   0  0  0  0  0  0  0  0  0  0  0  0
   22.5359  -19.7596  -11.0406 O   0  0  0  0  0  0  0  0  0  0  0  0
   27.8572  -18.1454   -5.7917 C   0  0  0  0  0  0  0  0  0  0  0  0
   28.1485  -19.9118   -5.5052 S   0  0  0  0  0  0  0  0  0  0  0  0
   27.0589  -20.9422   -6.4856 C   0  0  0  0  0  0  0  0  0  0  0  0
   26.7208  -20.2718   -7.7710 C   0  0  0  0  0  0  0  0  0  0  0  0
   25.7521  -21.0788   -8.5608 C   0  0  2  0  0  0  0  0  0  0  0  0
   25.3677  -20.3695   -9.7839 N   0  0  0  0  0  0  0  0  0  0  0  0
   24.4998  -21.4448   -7.8710 C   0  0  0  0  0  0  0  0  0  0  0  0
   23.2264  -21.1147   -8.3316 O   0  0  0  0  0  0  0  0  0  0  0  0
   24.4910  -22.1041   -6.7739 O   0  0  0  0  0  0  0  0  0  0  0  0
  2  1  1  1
  2  3  1  0
  4  3  1  0
  5  2  1  0
  6  5  2  0
  7  5  1  0
  8 12  1  0
  8  7  1  0
  8  9  1  6
 10  9  1  0
 11 10  2  0
 12 20  1  0
 13 12  2  0
 14 10  1  0
 16 17  1  0
 16 15  1  0
 19 18  1  1
 18 17  1  0
 20 19  1  0
 21 22  1  0
 21 19  1  0
 23 21  2  0
M  END
$$$$
