WIM.pdb
     RDKit          3D

 31 32  0  0  1  0  0  0  0  0999 V2000
   29.8687  -22.7688  -15.1606 N   0  0  0  0  0  0  0  0  0  0  0  0
   29.2246  -22.1097  -14.0737 C   0  0  1  0  0  0  0  0  0  0  0  0
   30.1515  -21.1144  -13.4360 C   0  0  0  0  0  0  0  0  0  0  0  0
   31.1913  -21.8391  -12.6677 C   0  0  0  0  0  0  0  0  0  0  0  0
   32.1180  -22.7330  -13.2213 C   0  0  0  0  0  0  0  0  0  0  0  0
   32.9398  -23.1914  -12.2656 N   0  0  0  0  0  0  0  0  0  0  0  0
   32.5769  -22.6252  -11.1089 C   0  0  0  0  0  0  0  0  0  0  0  0
   33.1076  -22.7835   -9.8469 C   0  0  0  0  0  0  0  0  0  0  0  0
   32.5665  -22.1037   -8.7824 C   0  0  0  0  0  0  0  0  0  0  0  0
   31.4986  -21.2749   -9.0058 C   0  0  0  0  0  0  0  0  0  0  0  0
   30.9549  -21.1067  -10.2725 C   0  0  0  0  0  0  0  0  0  0  0  0
   31.5047  -21.7909  -11.3303 C   0  0  0  0  0  0  0  0  0  0  0  0
   27.9407  -21.4641  -14.4906 C   0  0  0  0  0  0  0  0  0  0  0  0
   28.0077  -20.4883  -15.2478 O   0  0  0  0  0  0  0  0  0  0  0  0
   25.0822  -23.0862  -17.1840 C   0  0  0  0  0  0  0  0  0  0  0  0
   25.1214  -21.7354  -16.4944 C   0  0  0  0  0  0  0  0  0  0  0  0
   24.5598  -21.7471  -15.1318 C   0  0  2  0  0  0  0  0  0  0  0  0
   23.1251  -21.2880  -15.0464 C   0  0  0  0  0  0  0  0  0  0  0  0
   25.4541  -21.1104  -14.1208 C   0  0  2  0  0  0  0  0  0  0  0  0
   26.6795  -21.9182  -14.0597 N   0  0  0  0  0  0  0  0  0  0  0  0
   24.9171  -20.9487  -12.7748 C   0  0  0  0  0  0  0  0  0  0  0  0
   23.8025  -20.3321  -12.6476 O   0  0  0  0  0  0  0  0  0  0  0  0
   28.0373  -20.4740   -6.7458 C   0  0  0  0  0  0  0  0  0  0  0  0
   26.6832  -19.3228   -7.1148 S   0  0  0  0  0  0  0  0  0  0  0  0
   25.3406  -20.1636   -8.0245 C   0  0  0  0  0  0  0  0  0  0  0  0
   25.8695  -20.5010   -9.3808 C   0  0  0  0  0  0  0  0  0  0  0  0
   24.8560  -21.1801  -10.2707 C   0  0  2  0  0  0  0  0  0  0  0  0
   25.4755  -21.3960  -11.5629 N   0  0  0  0  0  0  0  0  0  0  0  0
   23.6804  -20.2612  -10.4175 C   0  0  0  0  0  0  0  0  0  0  0  0
   22.4580  -20.4769   -9.8363 O   0  0  0  0  0  0  0  0  0  0  0  0
   23.8241  -19.2210  -11.1221 O   0  0  0  0  0  0  0  0  0  0  0  0
  2  1  1  6
  2 13  1  0
  2  3  1  0
  3  4  1  0
  4  5  2  0
  5  6  1  0
  7  6  1  0
  8  7  2  0
  9  8  1  0
 10 11  1  0
 10  9  2  0
 11 12  2  0
 12  4  1  0
 12  7  1  0
 13 14  2  0
 15 16  1  0
 16 17  1  0
 17 18  1  6
 19 17  1  0
 20 13  1  0
 19 20  1  1
 21 22  2  0
 21 19  1  0
 23 24  1  0
 24 25  1  0
 26 25  1  0
 27 26  1  1
 27 28  1  0
 28 21  1  0
 29 30  1  0
 29 27  1  0
 31 29  2  0
M  END
$$$$
