WIM.pdb
     RDKit          3D

 31 32  0  0  1  0  0  0  0  0999 V2000
   28.5741  -20.7734  -15.5069 N   0  0  0  0  0  0  0  0  0  0  0  0
   27.4558  -20.0313  -15.0279 C   0  0  1  0  0  0  0  0  0  0  0  0
   26.6779  -19.4502  -16.1741 C   0  0  0  0  0  0  0  0  0  0  0  0
   27.3893  -18.2572  -16.6911 C   0  0  0  0  0  0  0  0  0  0  0  0
   28.1737  -18.2340  -17.8524 C   0  0  0  0  0  0  0  0  0  0  0  0
   28.6493  -16.9972  -18.0595 N   0  0  0  0  0  0  0  0  0  0  0  0
   28.2004  -16.2161  -17.0702 C   0  0  0  0  0  0  0  0  0  0  0  0
   28.4207  -14.8756  -16.8383 C   0  0  0  0  0  0  0  0  0  0  0  0
   27.8634  -14.2663  -15.7400 C   0  0  0  0  0  0  0  0  0  0  0  0
   27.0928  -15.0173  -14.8919 C   0  0  0  0  0  0  0  0  0  0  0  0
   26.8630  -16.3685  -15.1146 C   0  0  0  0  0  0  0  0  0  0  0  0
   27.4246  -16.9676  -16.2169 C   0  0  0  0  0  0  0  0  0  0  0  0
   26.5768  -20.8529  -14.1384 C   0  0  0  0  0  0  0  0  0  0  0  0
   26.4052  -22.0406  -14.4386 O   0  0  0  0  0  0  0  0  0  0  0  0
   26.9963  -20.9486   -8.9067 C   0  0  0  0  0  0  0  0  0  0  0  0
   26.6391  -21.2724  -10.3452 C   0  0  0  0  0  0  0  0  0  0  0  0
   25.3023  -20.7992  -10.7466 C   0  0  2  0  0  0  0  0  0  0  0  0
   24.1965  -21.1760   -9.7918 C   0  0  0  0  0  0  0  0  0  0  0  0
   24.9820  -21.0826  -12.1765 C   0  0  2  0  0  0  0  0  0  0  0  0
   25.9475  -20.3330  -12.9912 N   0  0  0  0  0  0  0  0  0  0  0  0
   23.6299  -20.7696  -12.6236 C   0  0  0  0  0  0  0  0  0  0  0  0
   23.2781  -19.5390  -12.6426 O   0  0  0  0  0  0  0  0  0  0  0  0
   18.9867  -25.0789  -14.6398 C   0  0  0  0  0  0  0  0  0  0  0  0
   18.6774  -23.5513  -15.5703 S   0  0  0  0  0  0  0  0  0  0  0  0
   19.2643  -22.0912  -14.6425 C   0  0  0  0  0  0  0  0  0  0  0  0
   20.6757  -22.3647  -14.2346 C   0  0  0  0  0  0  0  0  0  0  0  0
   21.2932  -21.2536  -13.4195 C   0  0  2  0  0  0  0  0  0  0  0  0
   22.6330  -21.6659  -13.0521 N   0  0  0  0  0  0  0  0  0  0  0  0
   20.4618  -21.0686  -12.1855 C   0  0  0  0  0  0  0  0  0  0  0  0
   19.4644  -20.1365  -12.0624 O   0  0  0  0  0  0  0  0  0  0  0  0
   20.6943  -21.8191  -11.1947 O   0  0  0  0  0  0  0  0  0  0  0  0
  2  1  1  6
  2 13  1  0
  2  3  1  0
  3  4  1  0
  4  5  2  0
  5  6  1  0
  7  6  1  0
  8  7  2  0
  9  8  1  0
 10 11  1  0
 10  9  2  0
 11 12  2  0
 12  4  1  0
 12  7  1  0
 13 14  2  0
 15 16  1  0
 16 17  1  0
 17 18  1  1
 19 17  1  0
 20 13  1  0
 19 20  1  6
 21 22  2  0
 21 19  1  0
 23 24  1  0
 24 25  1  0
 26 25  1  0
 27 26  1  6
 27 28  1  0
 28 21  1  0
 29 30  1  0
 29 27  1  0
 31 29  2  0
M  END
$$$$
