WIM.pdb
     RDKit          3D

 31 32  0  0  1  0  0  0  0  0999 V2000
   26.3311  -18.0665  -17.3043 N   0  0  0  0  0  0  0  0  0  0  0  0
   25.7646  -17.8067  -16.0229 C   0  0  1  0  0  0  0  0  0  0  0  0
   24.6210  -16.8394  -16.1377 C   0  0  0  0  0  0  0  0  0  0  0  0
   25.1108  -15.5739  -16.7337 C   0  0  0  0  0  0  0  0  0  0  0  0
   24.6348  -15.0146  -17.9274 C   0  0  0  0  0  0  0  0  0  0  0  0
   25.2608  -13.8538  -18.1712 N   0  0  0  0  0  0  0  0  0  0  0  0
   26.1287  -13.6409  -17.1753 C   0  0  0  0  0  0  0  0  0  0  0  0
   27.0047  -12.5951  -16.9799 C   0  0  0  0  0  0  0  0  0  0  0  0
   27.8251  -12.5811  -15.8777 C   0  0  0  0  0  0  0  0  0  0  0  0
   27.7505  -13.6215  -14.9894 C   0  0  0  0  0  0  0  0  0  0  0  0
   26.8720  -14.6809  -15.1748 C   0  0  0  0  0  0  0  0  0  0  0  0
   26.0552  -14.6841  -16.2803 C   0  0  0  0  0  0  0  0  0  0  0  0
   25.3425  -19.0643  -15.3307 C   0  0  0  0  0  0  0  0  0  0  0  0
   24.9710  -20.0109  -16.0350 O   0  0  0  0  0  0  0  0  0  0  0  0
   28.3116  -20.8337  -11.4499 C   0  0  0  0  0  0  0  0  0  0  0  0
   27.3020  -20.7380  -12.5783 C   0  0  0  0  0  0  0  0  0  0  0  0
   25.9040  -20.6533  -12.1194 C   0  0  2  0  0  0  0  0  0  0  0  0
   25.4942  -21.7498  -11.1675 C   0  0  0  0  0  0  0  0  0  0  0  0
   24.9322  -20.4294  -13.2298 C   0  0  2  0  0  0  0  0  0  0  0  0
   25.3517  -19.2081  -13.9301 N   0  0  0  0  0  0  0  0  0  0  0  0
   23.5261  -20.3140  -12.8618 C   0  0  0  0  0  0  0  0  0  0  0  0
   23.1035  -19.1699  -12.4731 O   0  0  0  0  0  0  0  0  0  0  0  0
   20.2725  -18.1276  -15.9050 C   0  0  0  0  0  0  0  0  0  0  0  0
   18.7771  -18.9026  -15.2280 S   0  0  0  0  0  0  0  0  0  0  0  0
   19.1769  -19.9346  -13.7747 C   0  0  0  0  0  0  0  0  0  0  0  0
   20.6460  -20.2051  -13.8153 C   0  0  0  0  0  0  0  0  0  0  0  0
   21.1323  -21.0636  -12.6722 C   0  0  2  0  0  0  0  0  0  0  0  0
   22.5432  -21.3210  -12.8806 N   0  0  0  0  0  0  0  0  0  0  0  0
   20.3696  -22.3540  -12.7063 C   0  0  0  0  0  0  0  0  0  0  0  0
   19.1245  -22.5264  -12.1597 O   0  0  0  0  0  0  0  0  0  0  0  0
   20.9077  -23.3471  -13.2747 O   0  0  0  0  0  0  0  0  0  0  0  0
  2  1  1  6
  2 13  1  0
  2  3  1  0
  3  4  1  0
  4  5  2  0
  5  6  1  0
  7  6  1  0
  8  7  2  0
  9  8  1  0
 10 11  1  0
 10  9  2  0
 11 12  2  0
 12  4  1  0
 12  7  1  0
 13 14  2  0
 15 16  1  0
 16 17  1  0
 17 18  1  6
 19 17  1  0
 20 13  1  0
 19 20  1  1
 21 22  2  0
 21 19  1  0
 23 24  1  0
 24 25  1  0
 26 25  1  0
 27 26  1  6
 27 28  1  0
 28 21  1  0
 29 30  1  0
 29 27  1  0
 31 29  2  0
M  END
$$$$
