WIM.pdb
     RDKit          3D

 31 32  0  0  1  0  0  0  0  0999 V2000
   23.7871  -19.0065  -17.9296 N   0  0  0  0  0  0  0  0  0  0  0  0
   23.6923  -19.2847  -16.5352 C   0  0  1  0  0  0  0  0  0  0  0  0
   22.3837  -19.9503  -16.2175 C   0  0  0  0  0  0  0  0  0  0  0  0
   21.3074  -18.9314  -16.2106 C   0  0  0  0  0  0  0  0  0  0  0  0
   20.8116  -18.2832  -17.3501 C   0  0  0  0  0  0  0  0  0  0  0  0
   19.8220  -17.4456  -17.0068 N   0  0  0  0  0  0  0  0  0  0  0  0
   19.6590  -17.5277  -15.6813 C   0  0  0  0  0  0  0  0  0  0  0  0
   18.7768  -16.8594  -14.8601 C   0  0  0  0  0  0  0  0  0  0  0  0
   18.7870  -17.0909  -13.5056 C   0  0  0  0  0  0  0  0  0  0  0  0
   19.6862  -17.9921  -12.9994 C   0  0  0  0  0  0  0  0  0  0  0  0
   20.5799  -18.6721  -13.8162 C   0  0  0  0  0  0  0  0  0  0  0  0
   20.5604  -18.4336  -15.1697 C   0  0  0  0  0  0  0  0  0  0  0  0
   24.8474  -20.1005  -16.0462 C   0  0  0  0  0  0  0  0  0  0  0  0
   25.0852  -21.1661  -16.6277 O   0  0  0  0  0  0  0  0  0  0  0  0
   29.3995  -18.0855  -15.9358 C   0  0  0  0  0  0  0  0  0  0  0  0
   28.2178  -19.0347  -15.8693 C   0  0  0  0  0  0  0  0  0  0  0  0
   28.0010  -19.6213  -14.5347 C   0  0  2  0  0  0  0  0  0  0  0  0
   29.2325  -20.2380  -13.9188 C   0  0  0  0  0  0  0  0  0  0  0  0
   26.7938  -20.4960  -14.4649 C   0  0  2  0  0  0  0  0  0  0  0  0
   25.6604  -19.7073  -14.9660 N   0  0  0  0  0  0  0  0  0  0  0  0
   26.4551  -21.0488  -13.1588 C   0  0  0  0  0  0  0  0  0  0  0  0
   26.8193  -22.2499  -12.9071 O   0  0  0  0  0  0  0  0  0  0  0  0
   28.9987  -20.2116   -7.4004 C   0  0  0  0  0  0  0  0  0  0  0  0
   27.2580  -19.9891   -7.8645 S   0  0  0  0  0  0  0  0  0  0  0  0
   26.8681  -20.9050   -9.3962 C   0  0  0  0  0  0  0  0  0  0  0  0
   25.4471  -20.5999   -9.7441 C   0  0  0  0  0  0  0  0  0  0  0  0
   25.0271  -21.1408  -11.0899 C   0  0  2  0  0  0  0  0  0  0  0  0
   25.7643  -20.4184  -12.1073 N   0  0  0  0  0  0  0  0  0  0  0  0
   23.5579  -20.8888  -11.2513 C   0  0  0  0  0  0  0  0  0  0  0  0
   23.0176  -20.0801  -12.2171 O   0  0  0  0  0  0  0  0  0  0  0  0
   22.7658  -21.4573  -10.4461 O   0  0  0  0  0  0  0  0  0  0  0  0
  2  1  1  6
  2 13  1  0
  2  3  1  0
  3  4  1  0
  4  5  2  0
  5  6  1  0
  7  6  1  0
  8  7  2  0
  9  8  1  0
 10 11  1  0
 10  9  2  0
 11 12  2  0
 12  4  1  0
 12  7  1  0
 13 14  2  0
 15 16  1  0
 16 17  1  0
 17 18  1  6
 19 17  1  0
 20 13  1  0
 19 20  1  1
 21 22  2  0
 21 19  1  0
 23 24  1  0
 24 25  1  0
 26 25  1  0
 27 26  1  1
 27 28  1  0
 28 21  1  0
 29 30  1  0
 29 27  1  0
 31 29  2  0
M  END
$$$$
