WIM.pdb
     RDKit          3D

 31 32  0  0  1  0  0  0  0  0999 V2000
   26.3581  -20.2217  -12.0888 N   0  0  0  0  0  0  0  0  0  0  0  0
   25.5790  -20.2543  -10.8961 C   0  0  1  0  0  0  0  0  0  0  0  0
   24.3213  -21.0478  -11.1087 C   0  0  0  0  0  0  0  0  0  0  0  0
   23.4369  -20.3175  -12.0475 C   0  0  0  0  0  0  0  0  0  0  0  0
   23.6726  -20.1744  -13.4216 C   0  0  0  0  0  0  0  0  0  0  0  0
   22.6693  -19.4891  -13.9897 N   0  0  0  0  0  0  0  0  0  0  0  0
   21.7898  -19.1816  -13.0294 C   0  0  0  0  0  0  0  0  0  0  0  0
   20.6056  -18.4814  -13.1120 C   0  0  0  0  0  0  0  0  0  0  0  0
   19.8516  -18.2685  -11.9831 C   0  0  0  0  0  0  0  0  0  0  0  0
   20.3027  -18.7641  -10.7881 C   0  0  0  0  0  0  0  0  0  0  0  0
   21.4939  -19.4713  -10.6917 C   0  0  0  0  0  0  0  0  0  0  0  0
   22.2396  -19.6793  -11.8274 C   0  0  0  0  0  0  0  0  0  0  0  0
   26.3587  -20.7774   -9.7310 C   0  0  0  0  0  0  0  0  0  0  0  0
   26.8403  -21.9129   -9.8252 O   0  0  0  0  0  0  0  0  0  0  0  0
   29.6695  -18.7386   -5.0134 C   0  0  0  0  0  0  0  0  0  0  0  0
   28.8843  -19.8728   -5.6449 C   0  0  0  0  0  0  0  0  0  0  0  0
   28.0410  -19.4529   -6.7784 C   0  0  2  0  0  0  0  0  0  0  0  0
   27.2450  -18.1957   -6.5292 C   0  0  0  0  0  0  0  0  0  0  0  0
   27.2352  -20.5676   -7.3576 C   0  0  2  0  0  0  0  0  0  0  0  0
   26.5608  -20.0376   -8.5502 N   0  0  0  0  0  0  0  0  0  0  0  0
   26.2480  -21.1904   -6.4837 C   0  0  0  0  0  0  0  0  0  0  0  0
   25.0570  -20.7215   -6.5001 O   0  0  0  0  0  0  0  0  0  0  0  0
   26.3685  -27.2327   -4.3069 C   0  0  0  0  0  0  0  0  0  0  0  0
   25.5397  -26.4443   -2.8974 S   0  0  0  0  0  0  0  0  0  0  0  0
   24.8353  -24.8277   -3.3744 C   0  0  0  0  0  0  0  0  0  0  0  0
   25.8529  -24.1348   -4.2214 C   0  0  0  0  0  0  0  0  0  0  0  0
   25.3853  -22.8021   -4.7556 C   0  0  2  0  0  0  0  0  0  0  0  0
   26.4351  -22.2711   -5.6019 N   0  0  0  0  0  0  0  0  0  0  0  0
   25.1627  -21.8884   -3.5878 C   0  0  0  0  0  0  0  0  0  0  0  0
   26.0725  -20.9599   -3.1531 O   0  0  0  0  0  0  0  0  0  0  0  0
   24.0670  -21.9789   -2.9633 O   0  0  0  0  0  0  0  0  0  0  0  0
  2  1  1  6
  2 13  1  0
  2  3  1  0
  3  4  1  0
  4  5  2  0
  5  6  1  0
  7  6  1  0
  8  7  2  0
  9  8  1  0
 10 11  1  0
 10  9  2  0
 11 12  2  0
 12  4  1  0
 12  7  1  0
 13 14  2  0
 15 16  1  0
 16 17  1  0
 17 18  1  1
 19 17  1  0
 20 13  1  0
 19 20  1  6
 21 22  2  0
 21 19  1  0
 23 24  1  0
 24 25  1  0
 26 25  1  0
 27 26  1  1
 27 28  1  0
 28 21  1  0
 29 30  1  0
 29 27  1  0
 31 29  2  0
M  END
$$$$
