WIM.pdb
     RDKit          3D

 31 32  0  0  1  0  0  0  0  0999 V2000
   26.7971  -19.3646  -17.2061 N   0  0  0  0  0  0  0  0  0  0  0  0
   26.8688  -18.9779  -15.8364 C   0  0  1  0  0  0  0  0  0  0  0  0
   26.3388  -17.5844  -15.6530 C   0  0  0  0  0  0  0  0  0  0  0  0
   27.1453  -16.6448  -16.4674 C   0  0  0  0  0  0  0  0  0  0  0  0
   26.6501  -15.4812  -17.0718 C   0  0  0  0  0  0  0  0  0  0  0  0
   27.6406  -14.8378  -17.7073 N   0  0  0  0  0  0  0  0  0  0  0  0
   28.7631  -15.5456  -17.5362 C   0  0  0  0  0  0  0  0  0  0  0  0
   30.0371  -15.3013  -18.0016 C   0  0  0  0  0  0  0  0  0  0  0  0
   31.0554  -16.1774  -17.7124 C   0  0  0  0  0  0  0  0  0  0  0  0
   30.7742  -17.2866  -16.9588 C   0  0  0  0  0  0  0  0  0  0  0  0
   29.4949  -17.5439  -16.4839 C   0  0  0  0  0  0  0  0  0  0  0  0
   28.4841  -16.6603  -16.7783 C   0  0  0  0  0  0  0  0  0  0  0  0
   26.1629  -19.9478  -14.9421 C   0  0  0  0  0  0  0  0  0  0  0  0
   25.6591  -20.9494  -15.4647 O   0  0  0  0  0  0  0  0  0  0  0  0
   25.9406  -21.2470   -8.8991 C   0  0  0  0  0  0  0  0  0  0  0  0
   25.3542  -21.4227  -10.2872 C   0  0  0  0  0  0  0  0  0  0  0  0
   25.9981  -20.5849  -11.3148 C   0  0  2  0  0  0  0  0  0  0  0  0
   26.2564  -19.1620  -10.8849 C   0  0  0  0  0  0  0  0  0  0  0  0
   25.3532  -20.6982  -12.6559 C   0  0  2  0  0  0  0  0  0  0  0  0
   26.0518  -19.7656  -13.5503 N   0  0  0  0  0  0  0  0  0  0  0  0
   23.9189  -20.4439  -12.7211 C   0  0  0  0  0  0  0  0  0  0  0  0
   23.5291  -19.2247  -12.7238 O   0  0  0  0  0  0  0  0  0  0  0  0
   16.9738  -22.6301  -15.5899 C   0  0  0  0  0  0  0  0  0  0  0  0
   18.7709  -22.7737  -15.3776 S   0  0  0  0  0  0  0  0  0  0  0  0
   19.3703  -21.6252  -14.0897 C   0  0  0  0  0  0  0  0  0  0  0  0
   20.8466  -21.8250  -13.9717 C   0  0  0  0  0  0  0  0  0  0  0  0
   21.4752  -21.0256  -12.8555 C   0  0  2  0  0  0  0  0  0  0  0  0
   22.8769  -21.3875  -12.7865 N   0  0  0  0  0  0  0  0  0  0  0  0
   20.7898  -21.4005  -11.5757 C   0  0  0  0  0  0  0  0  0  0  0  0
   19.7187  -20.7256  -11.0503 O   0  0  0  0  0  0  0  0  0  0  0  0
   21.2265  -22.4022  -10.9394 O   0  0  0  0  0  0  0  0  0  0  0  0
  2  1  1  6
  2 13  1  0
  2  3  1  0
  3  4  1  0
  4  5  2  0
  5  6  1  0
  7  6  1  0
  8  7  2  0
  9  8  1  0
 10 11  1  0
 10  9  2  0
 11 12  2  0
 12  4  1  0
 12  7  1  0
 13 14  2  0
 15 16  1  0
 16 17  1  0
 17 18  1  1
 19 17  1  0
 20 13  1  0
 19 20  1  6
 21 22  2  0
 21 19  1  0
 23 24  1  0
 24 25  1  0
 26 25  1  0
 27 26  1  6
 27 28  1  0
 28 21  1  0
 29 30  1  0
 29 27  1  0
 31 29  2  0
M  END
$$$$
