WIM.pdb
     RDKit          3D

 31 32  0  0  1  0  0  0  0  0999 V2000
   23.2198  -21.5286  -15.8444 N   0  0  0  0  0  0  0  0  0  0  0  0
   23.2434  -21.2552  -14.4460 C   0  0  1  0  0  0  0  0  0  0  0  0
   22.0910  -21.9287  -13.7570 C   0  0  0  0  0  0  0  0  0  0  0  0
   20.8249  -21.2887  -14.1860 C   0  0  0  0  0  0  0  0  0  0  0  0
   20.3702  -20.0388  -13.7441 C   0  0  0  0  0  0  0  0  0  0  0  0
   19.2108  -19.7340  -14.3457 N   0  0  0  0  0  0  0  0  0  0  0  0
   18.8969  -20.7454  -15.1635 C   0  0  0  0  0  0  0  0  0  0  0  0
   17.8034  -20.9043  -15.9871 C   0  0  0  0  0  0  0  0  0  0  0  0
   17.6722  -22.0429  -16.7451 C   0  0  0  0  0  0  0  0  0  0  0  0
   18.6448  -23.0042  -16.6612 C   0  0  0  0  0  0  0  0  0  0  0  0
   19.7513  -22.8560  -15.8354 C   0  0  0  0  0  0  0  0  0  0  0  0
   19.8730  -21.7126  -15.0824 C   0  0  0  0  0  0  0  0  0  0  0  0
   24.5475  -21.6399  -13.8212 C   0  0  0  0  0  0  0  0  0  0  0  0
   24.9825  -22.7747  -14.0520 O   0  0  0  0  0  0  0  0  0  0  0  0
   28.6056  -18.6129  -14.4030 C   0  0  0  0  0  0  0  0  0  0  0  0
   27.5818  -19.6846  -14.0792 C   0  0  0  0  0  0  0  0  0  0  0  0
   27.5259  -20.0408  -12.6502 C   0  0  2  0  0  0  0  0  0  0  0  0
   28.8756  -20.2339  -12.0040 C   0  0  0  0  0  0  0  0  0  0  0  0
   26.5572  -21.1367  -12.3538 C   0  0  2  0  0  0  0  0  0  0  0  0
   25.2858  -20.7728  -12.9933 N   0  0  0  0  0  0  0  0  0  0  0  0
   26.3183  -21.4430  -10.9484 C   0  0  0  0  0  0  0  0  0  0  0  0
   25.2736  -22.1222  -10.6554 O   0  0  0  0  0  0  0  0  0  0  0  0
   30.0587  -20.6279   -5.1551 C   0  0  0  0  0  0  0  0  0  0  0  0
   28.5946  -19.5601   -5.2611 S   0  0  0  0  0  0  0  0  0  0  0  0
   27.2429  -20.3927   -6.1649 C   0  0  0  0  0  0  0  0  0  0  0  0
   27.6864  -20.5419   -7.5842 C   0  0  0  0  0  0  0  0  0  0  0  0
   26.6638  -21.2165   -8.4670 C   0  0  2  0  0  0  0  0  0  0  0  0
   27.1078  -21.0837   -9.8402 N   0  0  0  0  0  0  0  0  0  0  0  0
   25.3557  -20.5068   -8.2847 C   0  0  0  0  0  0  0  0  0  0  0  0
   24.3205  -20.9850   -7.5243 O   0  0  0  0  0  0  0  0  0  0  0  0
   25.1957  -19.3969   -8.8690 O   0  0  0  0  0  0  0  0  0  0  0  0
  2  1  1  6
  2 13  1  0
  2  3  1  0
  3  4  1  0
  4  5  2  0
  5  6  1  0
  7  6  1  0
  8  7  2  0
  9  8  1  0
 10 11  1  0
 10  9  2  0
 11 12  2  0
 12  4  1  0
 12  7  1  0
 13 14  2  0
 15 16  1  0
 16 17  1  0
 17 18  1  6
 19 17  1  0
 20 13  1  0
 19 20  1  1
 21 22  2  0
 21 19  1  0
 23 24  1  0
 24 25  1  0
 26 25  1  0
 27 26  1  1
 27 28  1  0
 28 21  1  0
 29 30  1  0
 29 27  1  0
 31 29  2  0
M  END
$$$$
