WIM.pdb
     RDKit          3D

 31 32  0  0  1  0  0  0  0  0999 V2000
   24.3145  -15.5027  -21.1576 N   0  0  0  0  0  0  0  0  0  0  0  0
   23.5588  -15.2720  -19.9716 C   0  0  1  0  0  0  0  0  0  0  0  0
   22.1022  -15.1042  -20.2982 C   0  0  0  0  0  0  0  0  0  0  0  0
   21.8947  -13.7827  -20.9365 C   0  0  0  0  0  0  0  0  0  0  0  0
   22.0912  -13.5117  -22.2975 C   0  0  0  0  0  0  0  0  0  0  0  0
   21.7857  -12.2321  -22.5586 N   0  0  0  0  0  0  0  0  0  0  0  0
   21.3979  -11.6626  -21.4116 C   0  0  0  0  0  0  0  0  0  0  0  0
   20.9954  -10.3680  -21.1639 C   0  0  0  0  0  0  0  0  0  0  0  0
   20.6452   -9.9877  -19.8907 C   0  0  0  0  0  0  0  0  0  0  0  0
   20.7062  -10.9179  -18.8866 C   0  0  0  0  0  0  0  0  0  0  0  0
   21.1098  -12.2253  -19.1233 C   0  0  0  0  0  0  0  0  0  0  0  0
   21.4570  -12.5951  -20.4008 C   0  0  0  0  0  0  0  0  0  0  0  0
   23.7651  -16.3515  -18.9562 C   0  0  0  0  0  0  0  0  0  0  0  0
   24.0532  -17.4814  -19.3693 O   0  0  0  0  0  0  0  0  0  0  0  0
   26.7561  -15.0690  -16.2629 C   0  0  0  0  0  0  0  0  0  0  0  0
   26.2322  -16.4912  -16.3317 C   0  0  0  0  0  0  0  0  0  0  0  0
   24.9402  -16.6824  -15.6488 C   0  0  2  0  0  0  0  0  0  0  0  0
   25.0304  -17.4420  -14.3484 C   0  0  0  0  0  0  0  0  0  0  0  0
   23.8615  -17.1732  -16.5560 C   0  0  2  0  0  0  0  0  0  0  0  0
   23.6450  -16.1330  -17.5705 N   0  0  0  0  0  0  0  0  0  0  0  0
   22.5859  -17.5155  -15.9382 C   0  0  0  0  0  0  0  0  0  0  0  0
   22.0848  -16.6833  -15.1045 O   0  0  0  0  0  0  0  0  0  0  0  0
   16.6852  -19.7824  -16.9524 C   0  0  0  0  0  0  0  0  0  0  0  0
   17.8808  -19.6675  -18.3134 S   0  0  0  0  0  0  0  0  0  0  0  0
   19.5255  -19.1648  -17.6975 C   0  0  0  0  0  0  0  0  0  0  0  0
   19.6871  -19.7569  -16.3349 C   0  0  0  0  0  0  0  0  0  0  0  0
   20.5799  -18.9449  -15.4274 C   0  0  2  0  0  0  0  0  0  0  0  0
   21.8087  -18.6704  -16.1450 N   0  0  0  0  0  0  0  0  0  0  0  0
   20.8752  -19.7698  -14.2107 C   0  0  0  0  0  0  0  0  0  0  0  0
   20.1109  -19.7634  -13.0729 O   0  0  0  0  0  0  0  0  0  0  0  0
   21.8934  -20.5192  -14.2339 O   0  0  0  0  0  0  0  0  0  0  0  0
  2  1  1  6
  2 13  1  0
  2  3  1  0
  3  4  1  0
  4  5  2  0
  5  6  1  0
  7  6  1  0
  8  7  2  0
  9  8  1  0
 10 11  1  0
 10  9  2  0
 11 12  2  0
 12  4  1  0
 12  7  1  0
 13 14  2  0
 15 16  1  0
 16 17  1  0
 17 18  1  1
 19 17  1  0
 20 13  1  0
 19 20  1  6
 21 22  2  0
 21 19  1  0
 23 24  1  0
 24 25  1  0
 26 25  1  0
 27 26  1  6
 27 28  1  0
 28 21  1  0
 29 30  1  0
 29 27  1  0
 31 29  2  0
M  END
$$$$
