WIM.pdb
     RDKit          3D

 31 32  0  0  1  0  0  0  0  0999 V2000
   21.9509  -19.2344  -17.3574 N   0  0  0  0  0  0  0  0  0  0  0  0
   22.6977  -18.5231  -16.3740 C   0  0  1  0  0  0  0  0  0  0  0  0
   21.7766  -17.8167  -15.4206 C   0  0  0  0  0  0  0  0  0  0  0  0
   21.3054  -16.5561  -16.0414 C   0  0  0  0  0  0  0  0  0  0  0  0
   19.9974  -16.3240  -16.4881 C   0  0  0  0  0  0  0  0  0  0  0  0
   19.8915  -15.0759  -16.9674 N   0  0  0  0  0  0  0  0  0  0  0  0
   21.0883  -14.4895  -16.8476 C   0  0  0  0  0  0  0  0  0  0  0  0
   21.4855  -13.2191  -17.2046 C   0  0  0  0  0  0  0  0  0  0  0  0
   22.7844  -12.8207  -16.9988 C   0  0  0  0  0  0  0  0  0  0  0  0
   23.6632  -13.7088  -16.4366 C   0  0  0  0  0  0  0  0  0  0  0  0
   23.2753  -14.9914  -16.0723 C   0  0  0  0  0  0  0  0  0  0  0  0
   21.9734  -15.3791  -16.2818 C   0  0  0  0  0  0  0  0  0  0  0  0
   23.6541  -19.4126  -15.6441 C   0  0  0  0  0  0  0  0  0  0  0  0
   23.2751  -20.5560  -15.3631 O   0  0  0  0  0  0  0  0  0  0  0  0
   28.8829  -19.2104  -16.7911 C   0  0  0  0  0  0  0  0  0  0  0  0
   27.5009  -19.6464  -16.3420 C   0  0  0  0  0  0  0  0  0  0  0  0
   27.2570  -19.4571  -14.9009 C   0  0  2  0  0  0  0  0  0  0  0  0
   28.3327  -20.0247  -14.0081 C   0  0  0  0  0  0  0  0  0  0  0  0
   25.8734  -19.8300  -14.4838 C   0  0  2  0  0  0  0  0  0  0  0  0
   24.9485  -19.0032  -15.2705 N   0  0  0  0  0  0  0  0  0  0  0  0
   25.5531  -19.6954  -13.0677 C   0  0  0  0  0  0  0  0  0  0  0  0
   24.9788  -18.6170  -12.6861 O   0  0  0  0  0  0  0  0  0  0  0  0
   21.2170  -22.5830   -9.0806 C   0  0  0  0  0  0  0  0  0  0  0  0
   21.4608  -20.8254   -9.4637 S   0  0  0  0  0  0  0  0  0  0  0  0
   23.2225  -20.3639   -9.3205 C   0  0  0  0  0  0  0  0  0  0  0  0
   23.8309  -20.5159  -10.6769 C   0  0  0  0  0  0  0  0  0  0  0  0
   25.3388  -20.4357  -10.6731 C   0  0  2  0  0  0  0  0  0  0  0  0
   25.7956  -20.6212  -12.0359 N   0  0  0  0  0  0  0  0  0  0  0  0
   25.8584  -21.5442   -9.8074 C   0  0  0  0  0  0  0  0  0  0  0  0
   26.0093  -21.4526   -8.4482 O   0  0  0  0  0  0  0  0  0  0  0  0
   26.1783  -22.6331  -10.3650 O   0  0  0  0  0  0  0  0  0  0  0  0
  2  1  1  6
  2 13  1  0
  2  3  1  0
  3  4  1  0
  4  5  2  0
  5  6  1  0
  7  6  1  0
  8  7  2  0
  9  8  1  0
 10 11  1  0
 10  9  2  0
 11 12  2  0
 12  4  1  0
 12  7  1  0
 13 14  2  0
 15 16  1  0
 16 17  1  0
 17 18  1  1
 19 17  1  0
 20 13  1  0
 19 20  1  6
 21 22  2  0
 21 19  1  0
 23 24  1  0
 24 25  1  0
 26 25  1  0
 27 26  1  6
 27 28  1  0
 28 21  1  0
 29 30  1  0
 29 27  1  0
 31 29  2  0
M  END
$$$$
