WIM.pdb
     RDKit          3D

 31 32  0  0  1  0  0  0  0  0999 V2000
   22.7051  -20.8498  -15.5115 N   0  0  0  0  0  0  0  0  0  0  0  0
   23.2466  -20.2712  -14.3272 C   0  0  1  0  0  0  0  0  0  0  0  0
   22.1944  -20.1713  -13.2598 C   0  0  0  0  0  0  0  0  0  0  0  0
   21.0357  -19.4122  -13.7868 C   0  0  0  0  0  0  0  0  0  0  0  0
   19.6951  -19.7935  -13.6393 C   0  0  0  0  0  0  0  0  0  0  0  0
   18.8933  -18.8763  -14.2004 N   0  0  0  0  0  0  0  0  0  0  0  0
   19.6692  -17.9118  -14.7084 C   0  0  0  0  0  0  0  0  0  0  0  0
   19.3170  -16.7648  -15.3865 C   0  0  0  0  0  0  0  0  0  0  0  0
   20.2899  -15.9047  -15.8359 C   0  0  0  0  0  0  0  0  0  0  0  0
   21.6028  -16.2138  -15.5954 C   0  0  0  0  0  0  0  0  0  0  0  0
   21.9706  -17.3661  -14.9132 C   0  0  0  0  0  0  0  0  0  0  0  0
   20.9892  -18.2188  -14.4673 C   0  0  0  0  0  0  0  0  0  0  0  0
   24.4467  -21.0178  -13.8362 C   0  0  0  0  0  0  0  0  0  0  0  0
   24.4711  -22.2427  -14.0074 O   0  0  0  0  0  0  0  0  0  0  0  0
   29.1007  -18.9286  -14.7904 C   0  0  0  0  0  0  0  0  0  0  0  0
   27.9323  -19.8344  -14.4495 C   0  0  0  0  0  0  0  0  0  0  0  0
   27.9049  -20.2642  -13.0400 C   0  0  2  0  0  0  0  0  0  0  0  0
   29.2093  -20.8317  -12.5373 C   0  0  0  0  0  0  0  0  0  0  0  0
   26.7169  -21.1024  -12.7030 C   0  0  2  0  0  0  0  0  0  0  0  0
   25.5317  -20.3886  -13.1963 N   0  0  0  0  0  0  0  0  0  0  0  0
   26.5253  -21.4388  -11.2972 C   0  0  0  0  0  0  0  0  0  0  0  0
   26.3801  -22.6740  -10.9941 O   0  0  0  0  0  0  0  0  0  0  0  0
   28.3548  -17.8401   -6.3973 C   0  0  0  0  0  0  0  0  0  0  0  0
   27.9219  -19.3609   -5.5057 S   0  0  0  0  0  0  0  0  0  0  0  0
   26.7409  -20.3688   -6.4682 C   0  0  0  0  0  0  0  0  0  0  0  0
   27.0737  -20.1803   -7.9129 C   0  0  0  0  0  0  0  0  0  0  0  0
   26.2046  -20.9935   -8.8422 C   0  0  2  0  0  0  0  0  0  0  0  0
   26.4805  -20.5614  -10.1978 N   0  0  0  0  0  0  0  0  0  0  0  0
   24.7722  -20.7116   -8.5004 C   0  0  0  0  0  0  0  0  0  0  0  0
   24.1520  -21.1533   -7.3607 O   0  0  0  0  0  0  0  0  0  0  0  0
   24.0918  -20.0231   -9.3140 O   0  0  0  0  0  0  0  0  0  0  0  0
  2  1  1  6
  2 13  1  0
  2  3  1  0
  3  4  1  0
  4  5  2  0
  5  6  1  0
  7  6  1  0
  8  7  2  0
  9  8  1  0
 10 11  1  0
 10  9  2  0
 11 12  2  0
 12  4  1  0
 12  7  1  0
 13 14  2  0
 15 16  1  0
 16 17  1  0
 17 18  1  6
 19 17  1  0
 20 13  1  0
 19 20  1  1
 21 22  2  0
 21 19  1  0
 23 24  1  0
 24 25  1  0
 26 25  1  0
 27 26  1  1
 27 28  1  0
 28 21  1  0
 29 30  1  0
 29 27  1  0
 31 29  2  0
M  END
$$$$
