WIM.pdb
     RDKit          3D

 31 32  0  0  1  0  0  0  0  0999 V2000
   25.2697  -18.9676  -18.3513 N   0  0  0  0  0  0  0  0  0  0  0  0
   25.6414  -18.6002  -17.0256 C   0  0  1  0  0  0  0  0  0  0  0  0
   25.3444  -17.1487  -16.7772 C   0  0  0  0  0  0  0  0  0  0  0  0
   26.1999  -16.3183  -17.6577 C   0  0  0  0  0  0  0  0  0  0  0  0
   25.7707  -15.1724  -18.3410 C   0  0  0  0  0  0  0  0  0  0  0  0
   26.7933  -14.6354  -19.0226 N   0  0  0  0  0  0  0  0  0  0  0  0
   27.8728  -15.3954  -18.8052 C   0  0  0  0  0  0  0  0  0  0  0  0
   29.1559  -15.2609  -19.2900 C   0  0  0  0  0  0  0  0  0  0  0  0
   30.1222  -16.1740  -18.9427 C   0  0  0  0  0  0  0  0  0  0  0  0
   29.7807  -17.2090  -18.1124 C   0  0  0  0  0  0  0  0  0  0  0  0
   28.4917  -17.3554  -17.6172 C   0  0  0  0  0  0  0  0  0  0  0  0
   27.5332  -16.4357  -17.9702 C   0  0  0  0  0  0  0  0  0  0  0  0
   24.9880  -19.4700  -15.9983 C   0  0  0  0  0  0  0  0  0  0  0  0
   23.9495  -20.0595  -16.3211 O   0  0  0  0  0  0  0  0  0  0  0  0
   28.3307  -21.5848  -12.3056 C   0  0  0  0  0  0  0  0  0  0  0  0
   27.2046  -21.3667  -13.2986 C   0  0  0  0  0  0  0  0  0  0  0  0
   25.9721  -20.8330  -12.6919 C   0  0  2  0  0  0  0  0  0  0  0  0
   25.4778  -21.6132  -11.4989 C   0  0  0  0  0  0  0  0  0  0  0  0
   24.9072  -20.5287  -13.6922 C   0  0  2  0  0  0  0  0  0  0  0  0
   25.5024  -19.6396  -14.6986 N   0  0  0  0  0  0  0  0  0  0  0  0
   23.6792  -19.9276  -13.1854 C   0  0  0  0  0  0  0  0  0  0  0  0
   23.6020  -18.6499  -13.1727 O   0  0  0  0  0  0  0  0  0  0  0  0
   19.3653  -16.7712  -16.2229 C   0  0  0  0  0  0  0  0  0  0  0  0
   18.9084  -17.6902  -14.7257 S   0  0  0  0  0  0  0  0  0  0  0  0
   20.3398  -17.8651  -13.6042 C   0  0  0  0  0  0  0  0  0  0  0  0
   20.8807  -19.2457  -13.7898 C   0  0  0  0  0  0  0  0  0  0  0  0
   21.2604  -19.9230  -12.4947 C   0  0  2  0  0  0  0  0  0  0  0  0
   22.5340  -20.5840  -12.6974 N   0  0  0  0  0  0  0  0  0  0  0  0
   20.2047  -20.9396  -12.1780 C   0  0  0  0  0  0  0  0  0  0  0  0
   19.0256  -20.6515  -11.5412 O   0  0  0  0  0  0  0  0  0  0  0  0
   20.4139  -22.1391  -12.5191 O   0  0  0  0  0  0  0  0  0  0  0  0
  2  1  1  6
  2 13  1  0
  2  3  1  0
  3  4  1  0
  4  5  2  0
  5  6  1  0
  7  6  1  0
  8  7  2  0
  9  8  1  0
 10 11  1  0
 10  9  2  0
 11 12  2  0
 12  4  1  0
 12  7  1  0
 13 14  2  0
 15 16  1  0
 16 17  1  0
 17 18  1  1
 19 17  1  0
 20 13  1  0
 19 20  1  6
 21 22  2  0
 21 19  1  0
 23 24  1  0
 24 25  1  0
 26 25  1  0
 27 26  1  6
 27 28  1  0
 28 21  1  0
 29 30  1  0
 29 27  1  0
 31 29  2  0
M  END
$$$$
