WIM.pdb
     RDKit          3D

 31 32  0  0  1  0  0  0  0  0999 V2000
   23.5171  -19.2275  -17.1234 N   0  0  0  0  0  0  0  0  0  0  0  0
   24.0941  -18.6371  -15.9618 C   0  0  1  0  0  0  0  0  0  0  0  0
   23.1272  -17.6848  -15.3180 C   0  0  0  0  0  0  0  0  0  0  0  0
   23.1439  -16.3997  -16.0562 C   0  0  0  0  0  0  0  0  0  0  0  0
   22.0732  -15.8931  -16.8053 C   0  0  0  0  0  0  0  0  0  0  0  0
   22.3984  -14.6975  -17.3190 N   0  0  0  0  0  0  0  0  0  0  0  0
   23.6458  -14.4111  -16.9287 C   0  0  0  0  0  0  0  0  0  0  0  0
   24.4223  -13.3064  -17.2043 C   0  0  0  0  0  0  0  0  0  0  0  0
   25.6987  -13.2198  -16.7029 C   0  0  0  0  0  0  0  0  0  0  0  0
   26.1732  -14.2479  -15.9316 C   0  0  0  0  0  0  0  0  0  0  0  0
   25.4008  -15.3661  -15.6465 C   0  0  0  0  0  0  0  0  0  0  0  0
   24.1250  -15.4419  -16.1524 C   0  0  0  0  0  0  0  0  0  0  0  0
   24.5699  -19.6673  -14.9865 C   0  0  0  0  0  0  0  0  0  0  0  0
   23.8441  -20.6492  -14.7880 O   0  0  0  0  0  0  0  0  0  0  0  0
   29.4822  -21.4394  -15.3206 C   0  0  0  0  0  0  0  0  0  0  0  0
   28.0103  -21.2286  -15.0195 C   0  0  0  0  0  0  0  0  0  0  0  0
   27.7454  -20.7615  -13.6470 C   0  0  2  0  0  0  0  0  0  0  0  0
   28.4830  -21.5268  -12.5762 C   0  0  0  0  0  0  0  0  0  0  0  0
   26.2929  -20.5757  -13.3582 C   0  0  2  0  0  0  0  0  0  0  0  0
   25.7930  -19.5624  -14.2969 N   0  0  0  0  0  0  0  0  0  0  0  0
   25.9355  -20.1896  -11.9983 C   0  0  0  0  0  0  0  0  0  0  0  0
   26.3023  -19.0327  -11.5911 O   0  0  0  0  0  0  0  0  0  0  0  0
   21.3011  -21.3363   -5.6966 C   0  0  0  0  0  0  0  0  0  0  0  0
   22.0094  -21.9099   -7.2664 S   0  0  0  0  0  0  0  0  0  0  0  0
   23.4548  -20.8978   -7.7394 C   0  0  0  0  0  0  0  0  0  0  0  0
   23.8359  -21.2936   -9.1291 C   0  0  0  0  0  0  0  0  0  0  0  0
   24.9903  -20.4962   -9.6874 C   0  0  2  0  0  0  0  0  0  0  0  0
   25.2179  -20.9397  -11.0482 N   0  0  0  0  0  0  0  0  0  0  0  0
   26.1997  -20.7850   -8.8495 C   0  0  0  0  0  0  0  0  0  0  0  0
   27.0743  -21.8127   -9.0895 O   0  0  0  0  0  0  0  0  0  0  0  0
   26.4286  -20.0341   -7.8582 O   0  0  0  0  0  0  0  0  0  0  0  0
  2  1  1  6
  2 13  1  0
  2  3  1  0
  3  4  1  0
  4  5  2  0
  5  6  1  0
  7  6  1  0
  8  7  2  0
  9  8  1  0
 10 11  1  0
 10  9  2  0
 11 12  2  0
 12  4  1  0
 12  7  1  0
 13 14  2  0
 15 16  1  0
 16 17  1  0
 17 18  1  1
 19 17  1  0
 20 13  1  0
 19 20  1  6
 21 22  2  0
 21 19  1  0
 23 24  1  0
 24 25  1  0
 26 25  1  0
 27 26  1  1
 27 28  1  0
 28 21  1  0
 29 30  1  0
 29 27  1  0
 31 29  2  0
M  END
$$$$
