WIM.pdb
     RDKit          3D

 31 32  0  0  1  0  0  0  0  0999 V2000
   24.2921  -19.6339   -9.2293 N   0  0  0  0  0  0  0  0  0  0  0  0
   25.6064  -20.0877   -9.5414 C   0  0  1  0  0  0  0  0  0  0  0  0
   25.9316  -21.3344   -8.7691 C   0  0  0  0  0  0  0  0  0  0  0  0
   25.9595  -21.0178   -7.3215 C   0  0  0  0  0  0  0  0  0  0  0  0
   24.9409  -21.3362   -6.4129 C   0  0  0  0  0  0  0  0  0  0  0  0
   25.2885  -20.9430   -5.1786 N   0  0  0  0  0  0  0  0  0  0  0  0
   26.4993  -20.3788   -5.2556 C   0  0  0  0  0  0  0  0  0  0  0  0
   27.2732  -19.8172   -4.2631 C   0  0  0  0  0  0  0  0  0  0  0  0
   28.4993  -19.2774   -4.5688 C   0  0  0  0  0  0  0  0  0  0  0  0
   28.9266  -19.3114   -5.8701 C   0  0  0  0  0  0  0  0  0  0  0  0
   28.1564  -19.8745   -6.8791 C   0  0  0  0  0  0  0  0  0  0  0  0
   26.9320  -20.4125   -6.5619 C   0  0  0  0  0  0  0  0  0  0  0  0
   25.7932  -20.2970  -11.0111 C   0  0  0  0  0  0  0  0  0  0  0  0
   24.8627  -19.9756  -11.7601 O   0  0  0  0  0  0  0  0  0  0  0  0
   31.1031  -20.7603  -11.9270 C   0  0  0  0  0  0  0  0  0  0  0  0
   29.6511  -20.3213  -11.9474 C   0  0  0  0  0  0  0  0  0  0  0  0
   28.8546  -20.9513  -13.0155 C   0  0  2  0  0  0  0  0  0  0  0  0
   29.4470  -20.8140  -14.3963 C   0  0  0  0  0  0  0  0  0  0  0  0
   27.4038  -20.6078  -12.9489 C   0  0  2  0  0  0  0  0  0  0  0  0
   26.9695  -20.8379  -11.5646 N   0  0  0  0  0  0  0  0  0  0  0  0
   26.5149  -21.3228  -13.8570 C   0  0  0  0  0  0  0  0  0  0  0  0
   26.0054  -22.4238  -13.4488 O   0  0  0  0  0  0  0  0  0  0  0  0
   27.4909  -25.5220  -16.3124 C   0  0  0  0  0  0  0  0  0  0  0  0
   25.7580  -25.7119  -16.8183 S   0  0  0  0  0  0  0  0  0  0  0  0
   24.8682  -24.1200  -16.7117 C   0  0  0  0  0  0  0  0  0  0  0  0
   25.7620  -23.1612  -15.9942 C   0  0  0  0  0  0  0  0  0  0  0  0
   25.2412  -21.7438  -15.9851 C   0  0  2  0  0  0  0  0  0  0  0  0
   26.1292  -20.9511  -15.1584 N   0  0  0  0  0  0  0  0  0  0  0  0
   23.8673  -21.7600  -15.3851 C   0  0  0  0  0  0  0  0  0  0  0  0
   23.6001  -22.0971  -14.0836 O   0  0  0  0  0  0  0  0  0  0  0  0
   22.8922  -21.4431  -16.1251 O   0  0  0  0  0  0  0  0  0  0  0  0
  2  1  1  6
  2 13  1  0
  2  3  1  0
  3  4  1  0
  4  5  2  0
  5  6  1  0
  7  6  1  0
  8  7  2  0
  9  8  1  0
 10 11  1  0
 10  9  2  0
 11 12  2  0
 12  4  1  0
 12  7  1  0
 13 14  2  0
 15 16  1  0
 16 17  1  0
 17 18  1  6
 19 17  1  0
 20 13  1  0
 19 20  1  1
 21 22  2  0
 21 19  1  0
 23 24  1  0
 24 25  1  0
 26 25  1  0
 27 26  1  1
 27 28  1  0
 28 21  1  0
 29 30  1  0
 29 27  1  0
 31 29  2  0
M  END
$$$$
