WIM.pdb
     RDKit          3D

 31 32  0  0  1  0  0  0  0  0999 V2000
   20.1042  -11.8422  -16.2110 N   0  0  0  0  0  0  0  0  0  0  0  0
   18.8612  -11.1890  -16.4538 C   0  0  1  0  0  0  0  0  0  0  0  0
   17.7346  -11.9391  -15.8024 C   0  0  0  0  0  0  0  0  0  0  0  0
   17.7703  -13.3533  -16.2446 C   0  0  0  0  0  0  0  0  0  0  0  0
   18.6111  -13.8576  -17.2461 C   0  0  0  0  0  0  0  0  0  0  0  0
   18.4208  -15.1782  -17.3822 N   0  0  0  0  0  0  0  0  0  0  0  0
   17.4833  -15.5485  -16.5023 C   0  0  0  0  0  0  0  0  0  0  0  0
   16.9410  -16.7931  -16.2657 C   0  0  0  0  0  0  0  0  0  0  0  0
   15.9678  -16.9493  -15.3082 C   0  0  0  0  0  0  0  0  0  0  0  0
   15.5557  -15.8486  -14.6041 C   0  0  0  0  0  0  0  0  0  0  0  0
   16.0944  -14.5893  -14.8329 C   0  0  0  0  0  0  0  0  0  0  0  0
   17.0680  -14.4448  -15.7923 C   0  0  0  0  0  0  0  0  0  0  0  0
   18.8842   -9.7586  -16.0153 C   0  0  0  0  0  0  0  0  0  0  0  0
   19.6529   -9.4517  -15.0961 O   0  0  0  0  0  0  0  0  0  0  0  0
   18.9659   -6.0372  -19.6753 C   0  0  0  0  0  0  0  0  0  0  0  0
   19.1023   -6.7786  -18.3587 C   0  0  0  0  0  0  0  0  0  0  0  0
   17.9944   -6.5300  -17.4191 C   0  0  2  0  0  0  0  0  0  0  0  0
   17.7176   -5.0704  -17.1560 C   0  0  0  0  0  0  0  0  0  0  0  0
   18.0765   -7.3573  -16.1797 C   0  0  2  0  0  0  0  0  0  0  0  0
   18.0761   -8.7648  -16.6001 N   0  0  0  0  0  0  0  0  0  0  0  0
   17.0338   -7.1535  -15.1809 C   0  0  0  0  0  0  0  0  0  0  0  0
   15.8491   -7.5445  -15.4675 O   0  0  0  0  0  0  0  0  0  0  0  0
   14.7607   -7.7510   -7.8235 C   0  0  0  0  0  0  0  0  0  0  0  0
   16.0627   -7.5558   -9.0733 S   0  0  0  0  0  0  0  0  0  0  0  0
   15.3874   -6.8445  -10.6144 C   0  0  0  0  0  0  0  0  0  0  0  0
   16.4360   -6.9968  -11.6682 C   0  0  0  0  0  0  0  0  0  0  0  0
   16.0482   -6.3908  -12.9958 C   0  0  2  0  0  0  0  0  0  0  0  0
   17.1611   -6.5703  -13.9065 N   0  0  0  0  0  0  0  0  0  0  0  0
   15.7979   -4.9282  -12.7809 C   0  0  0  0  0  0  0  0  0  0  0  0
   14.6254   -4.4118  -12.2938 O   0  0  0  0  0  0  0  0  0  0  0  0
   16.7261   -4.1185  -13.0668 O   0  0  0  0  0  0  0  0  0  0  0  0
  2  1  1  1
  2 13  1  0
  2  3  1  0
  3  4  1  0
  4  5  2  0
  5  6  1  0
  7  6  1  0
  8  7  2  0
  9  8  1  0
 10 11  1  0
 10  9  2  0
 11 12  2  0
 12  4  1  0
 12  7  1  0
 13 14  2  0
 15 16  1  0
 16 17  1  0
 17 18  1  1
 19 17  1  0
 20 13  1  0
 19 20  1  6
 21 22  2  0
 21 19  1  0
 23 24  1  0
 24 25  1  0
 26 25  1  0
 27 26  1  1
 27 28  1  0
 28 21  1  0
 29 30  1  0
 29 27  1  0
 31 29  2  0
M  END
$$$$
