GIY.pdb
     RDKit          3D

 25 25  0  0  1  0  0  0  0  0999 V2000
    8.0035  -15.4733   20.9466 N   0  0  0  0  0  0  0  0  0  0  0  0
    7.3031  -15.7491   22.1717 C   0  0  0  0  0  0  0  0  0  0  0  0
    8.0226  -15.0819   23.3254 C   0  0  0  0  0  0  0  0  0  0  0  0
    9.2195  -14.7390   23.2135 O   0  0  0  0  0  0  0  0  0  0  0  0
    5.3620  -11.5961   26.3149 C   0  0  0  0  0  0  0  0  0  0  0  0
    6.4049  -12.3708   25.5749 C   0  0  0  0  0  0  0  0  0  0  0  0
    7.1848  -13.3487   26.3644 C   0  0  2  0  0  0  0  0  0  0  0  0
    7.6433  -12.7814   27.6987 C   0  0  0  0  0  0  0  0  0  0  0  0
    8.1231  -14.2612   25.6954 C   0  0  2  0  0  0  0  0  0  0  0  0
    7.3697  -14.8324   24.5425 N   0  0  0  0  0  0  0  0  0  0  0  0
    8.7734  -15.3291   26.4296 C   0  0  0  0  0  0  0  0  0  0  0  0
    8.1501  -16.3827   26.8012 O   0  0  0  0  0  0  0  0  0  0  0  0
   11.9891  -17.5795   21.2324 O   0  0  0  0  0  0  0  0  0  0  0  0
   12.0252  -17.3555   22.6131 C   0  0  0  0  0  0  0  0  0  0  0  0
   12.5847  -16.2051   23.1250 C   0  0  0  0  0  0  0  0  0  0  0  0
   12.6283  -15.9690   24.4807 C   0  0  0  0  0  0  0  0  0  0  0  0
   12.1139  -16.8749   25.3734 C   0  0  0  0  0  0  0  0  0  0  0  0
   12.1562  -16.6602   26.8196 C   0  0  0  0  0  0  0  0  0  0  0  0
   10.7683  -16.4646   27.4487 C   0  0  2  0  0  0  0  0  0  0  0  0
   10.1447  -15.3133   26.7899 N   0  0  0  0  0  0  0  0  0  0  0  0
   10.9218  -16.1892   28.8671 C   0  0  0  0  0  0  0  0  0  0  0  0
   10.5953  -15.0682   29.3305 O   0  0  0  0  0  0  0  0  0  0  0  0
   11.5509  -18.0328   24.8596 C   0  0  0  0  0  0  0  0  0  0  0  0
   11.5067  -18.2698   23.5032 C   0  0  0  0  0  0  0  0  0  0  0  0
   11.4188  -17.1296   29.7345 O   0  0  0  0  0  0  0  0  0  0  0  0
  1  2  1  0
  2  3  1  0
  3 10  1  0
  3  4  2  0
  6  5  1  0
  7  8  1  1
  7  6  1  0
  9  7  1  0
  9 10  1  6
 11 12  2  0
 11  9  1  0
 14 13  1  0
 14 24  2  0
 15 14  1  0
 16 15  2  0
 16 17  1  0
 17 23  2  0
 18 17  1  0
 19 18  1  6
 19 20  1  0
 20 11  1  0
 21 19  1  0
 21 25  1  0
 22 21  2  0
 23 24  1  0
M  END
$$$$
