GIY.pdb
     RDKit          3D

 25 25  0  0  1  0  0  0  0  0999 V2000
   11.3146  -15.1557   14.6431 N   0  0  0  0  0  0  0  0  0  0  0  0
   10.3922  -15.7786   15.5536 C   0  0  0  0  0  0  0  0  0  0  0  0
   10.5568  -15.1724   16.9317 C   0  0  0  0  0  0  0  0  0  0  0  0
   11.6401  -14.6473   17.2687 O   0  0  0  0  0  0  0  0  0  0  0  0
    6.0985  -13.0797   19.1255 C   0  0  0  0  0  0  0  0  0  0  0  0
    7.5163  -13.3094   18.7104 C   0  0  0  0  0  0  0  0  0  0  0  0
    8.3462  -14.1279   19.6210 C   0  0  2  0  0  0  0  0  0  0  0  0
    8.2034  -13.7024   21.0739 C   0  0  0  0  0  0  0  0  0  0  0  0
    9.6860  -14.5688   19.2072 C   0  0  2  0  0  0  0  0  0  0  0  0
    9.5050  -15.1836   17.8610 N   0  0  0  0  0  0  0  0  0  0  0  0
   10.4697  -15.4547   20.0460 C   0  0  0  0  0  0  0  0  0  0  0  0
   10.3318  -16.7261   20.0155 O   0  0  0  0  0  0  0  0  0  0  0  0
   15.9974  -15.5443   16.4363 O   0  0  0  0  0  0  0  0  0  0  0  0
   15.4428  -15.5054   17.7204 C   0  0  0  0  0  0  0  0  0  0  0  0
   15.4725  -16.6174   18.5337 C   0  0  0  0  0  0  0  0  0  0  0  0
   14.9316  -16.5962   19.7996 C   0  0  0  0  0  0  0  0  0  0  0  0
   14.3417  -15.4623   20.2979 C   0  0  0  0  0  0  0  0  0  0  0  0
   13.7466  -15.4108   21.6330 C   0  0  0  0  0  0  0  0  0  0  0  0
   12.3093  -15.9514   21.6821 C   0  0  2  0  0  0  0  0  0  0  0  0
   11.4575  -15.0036   20.9578 N   0  0  0  0  0  0  0  0  0  0  0  0
   11.8773  -16.0336   23.0670 C   0  0  0  0  0  0  0  0  0  0  0  0
   10.9622  -15.2828   23.4875 O   0  0  0  0  0  0  0  0  0  0  0  0
   14.3111  -14.3430   19.4805 C   0  0  0  0  0  0  0  0  0  0  0  0
   14.8521  -14.3632   18.2137 C   0  0  0  0  0  0  0  0  0  0  0  0
   12.4440  -16.9208   23.9475 O   0  0  0  0  0  0  0  0  0  0  0  0
  1  2  1  0
  2  3  1  0
  3 10  1  0
  3  4  2  0
  6  5  1  0
  7  8  1  1
  7  6  1  0
  9  7  1  0
  9 10  1  6
 11 12  2  0
 11  9  1  0
 14 13  1  0
 14 24  2  0
 15 14  1  0
 16 15  2  0
 16 17  1  0
 17 23  2  0
 18 17  1  0
 19 18  1  1
 19 20  1  0
 20 11  1  0
 21 19  1  0
 21 25  1  0
 22 21  2  0
 23 24  1  0
M  END
$$$$
