GIY.pdb
     RDKit          3D

 25 25  0  0  1  0  0  0  0  0999 V2000
    4.4940  -18.5915   20.7640 N   0  0  0  0  0  0  0  0  0  0  0  0
    4.6569  -17.3942   21.5433 C   0  0  0  0  0  0  0  0  0  0  0  0
    6.0945  -16.9260   21.4545 C   0  0  0  0  0  0  0  0  0  0  0  0
    6.9893  -17.6984   21.0478 O   0  0  0  0  0  0  0  0  0  0  0  0
    7.2300  -12.6167   19.0642 C   0  0  0  0  0  0  0  0  0  0  0  0
    7.2699  -13.9526   19.7343 C   0  0  0  0  0  0  0  0  0  0  0  0
    7.9940  -14.0235   21.0221 C   0  0  2  0  0  0  0  0  0  0  0  0
    9.3652  -13.3698   20.9521 C   0  0  0  0  0  0  0  0  0  0  0  0
    7.8952  -15.2255   21.8624 C   0  0  2  0  0  0  0  0  0  0  0  0
    6.4584  -15.6217   21.8237 N   0  0  0  0  0  0  0  0  0  0  0  0
    8.3604  -15.2134   23.2358 C   0  0  0  0  0  0  0  0  0  0  0  0
    8.1887  -14.2079   24.0078 O   0  0  0  0  0  0  0  0  0  0  0  0
    6.0465  -11.0456   26.8924 O   0  0  0  0  0  0  0  0  0  0  0  0
    6.5818  -12.3240   26.6998 C   0  0  0  0  0  0  0  0  0  0  0  0
    5.7843  -13.3642   26.2748 C   0  0  0  0  0  0  0  0  0  0  0  0
    6.2949  -14.6279   26.0802 C   0  0  0  0  0  0  0  0  0  0  0  0
    7.6214  -14.8970   26.3037 C   0  0  0  0  0  0  0  0  0  0  0  0
    8.1921  -16.2310   26.1191 C   0  0  0  0  0  0  0  0  0  0  0  0
    9.4581  -16.2385   25.2486 C   0  0  2  0  0  0  0  0  0  0  0  0
    9.0291  -16.3032   23.8485 N   0  0  0  0  0  0  0  0  0  0  0  0
   10.2509  -17.4132   25.5694 C   0  0  0  0  0  0  0  0  0  0  0  0
   10.3235  -18.3664   24.7545 O   0  0  0  0  0  0  0  0  0  0  0  0
    8.4248  -13.8513   26.7315 C   0  0  0  0  0  0  0  0  0  0  0  0
    7.9147  -12.5865   26.9263 C   0  0  0  0  0  0  0  0  0  0  0  0
   10.9372  -17.5185   26.7533 O   0  0  0  0  0  0  0  0  0  0  0  0
  1  2  1  0
  2  3  1  0
  3 10  1  0
  3  4  2  0
  6  5  1  0
  7  8  1  6
  7  6  1  0
  9  7  1  0
  9 10  1  1
 11 12  2  0
 11  9  1  0
 14 13  1  0
 14 24  2  0
 15 14  1  0
 16 15  2  0
 16 17  1  0
 17 23  2  0
 18 17  1  0
 19 18  1  1
 19 20  1  0
 20 11  1  0
 21 19  1  0
 21 25  1  0
 22 21  2  0
 23 24  1  0
M  END
$$$$
