GIY.pdb
     RDKit          3D

 25 25  0  0  1  0  0  0  0  0999 V2000
    5.5893  -18.8342   19.7239 N   0  0  0  0  0  0  0  0  0  0  0  0
    5.5462  -17.9787   20.8788 C   0  0  0  0  0  0  0  0  0  0  0  0
    6.7963  -17.1247   20.9210 C   0  0  0  0  0  0  0  0  0  0  0  0
    7.8941  -17.5878   20.5427 O   0  0  0  0  0  0  0  0  0  0  0  0
    6.8948  -12.4385   18.8848 C   0  0  0  0  0  0  0  0  0  0  0  0
    7.2197  -13.7720   19.4777 C   0  0  0  0  0  0  0  0  0  0  0  0
    7.8111  -13.7650   20.8335 C   0  0  2  0  0  0  0  0  0  0  0  0
    8.9086  -12.7228   20.9809 C   0  0  0  0  0  0  0  0  0  0  0  0
    8.0194  -15.0272   21.5574 C   0  0  2  0  0  0  0  0  0  0  0  0
    6.7563  -15.7999   21.3827 N   0  0  0  0  0  0  0  0  0  0  0  0
    8.4016  -15.0281   22.9562 C   0  0  0  0  0  0  0  0  0  0  0  0
    7.9145  -14.1986   23.7995 O   0  0  0  0  0  0  0  0  0  0  0  0
    6.2732  -10.9599   27.3079 O   0  0  0  0  0  0  0  0  0  0  0  0
    6.8051  -12.1982   26.9314 C   0  0  0  0  0  0  0  0  0  0  0  0
    8.1496  -12.3341   26.6622 C   0  0  0  0  0  0  0  0  0  0  0  0
    8.6891  -13.5451   26.2907 C   0  0  0  0  0  0  0  0  0  0  0  0
    7.9034  -14.6638   26.1751 C   0  0  0  0  0  0  0  0  0  0  0  0
    8.4430  -15.9616   25.7700 C   0  0  0  0  0  0  0  0  0  0  0  0
    9.7223  -15.8544   24.9260 C   0  0  2  0  0  0  0  0  0  0  0  0
    9.3287  -15.9428   23.5169 N   0  0  0  0  0  0  0  0  0  0  0  0
   10.6051  -16.9608   25.2549 C   0  0  0  0  0  0  0  0  0  0  0  0
   10.7010  -17.9431   24.4778 O   0  0  0  0  0  0  0  0  0  0  0  0
    6.5505  -14.5283   26.4454 C   0  0  0  0  0  0  0  0  0  0  0  0
    6.0099  -13.3170   26.8173 C   0  0  0  0  0  0  0  0  0  0  0  0
   11.3530  -16.9689   26.4056 O   0  0  0  0  0  0  0  0  0  0  0  0
  1  2  1  0
  2  3  1  0
  3 10  1  0
  3  4  2  0
  6  5  1  0
  7  8  1  6
  7  6  1  0
  9  7  1  0
  9 10  1  1
 11 12  2  0
 11  9  1  0
 14 13  1  0
 14 24  2  0
 15 14  1  0
 16 15  2  0
 16 17  1  0
 17 23  2  0
 18 17  1  0
 19 18  1  1
 19 20  1  0
 20 11  1  0
 21 19  1  0
 21 25  1  0
 22 21  2  0
 23 24  1  0
M  END
$$$$
