GIY.pdb
     RDKit          3D

 25 25  0  0  1  0  0  0  0  0999 V2000
    6.8397  -15.1999   20.2990 N   0  0  0  0  0  0  0  0  0  0  0  0
    6.2524  -15.2474   21.6107 C   0  0  0  0  0  0  0  0  0  0  0  0
    7.2960  -14.8784   22.6444 C   0  0  0  0  0  0  0  0  0  0  0  0
    8.4994  -14.7752   22.3222 O   0  0  0  0  0  0  0  0  0  0  0  0
    6.0003  -11.3487   26.4491 C   0  0  0  0  0  0  0  0  0  0  0  0
    6.7176  -12.1815   25.4356 C   0  0  0  0  0  0  0  0  0  0  0  0
    7.3831  -13.4036   25.9374 C   0  0  2  0  0  0  0  0  0  0  0  0
    8.1467  -13.1581   27.2292 C   0  0  0  0  0  0  0  0  0  0  0  0
    7.9956  -14.3529   24.9970 C   0  0  2  0  0  0  0  0  0  0  0  0
    6.9427  -14.6442   23.9824 N   0  0  0  0  0  0  0  0  0  0  0  0
    8.5764  -15.5956   25.4670 C   0  0  0  0  0  0  0  0  0  0  0  0
    7.8656  -16.5455   25.9455 O   0  0  0  0  0  0  0  0  0  0  0  0
    9.8191  -17.5723   19.3958 O   0  0  0  0  0  0  0  0  0  0  0  0
   10.2615  -17.5647   20.7233 C   0  0  0  0  0  0  0  0  0  0  0  0
    9.8200  -18.5154   21.6177 C   0  0  0  0  0  0  0  0  0  0  0  0
   10.2453  -18.5223   22.9271 C   0  0  0  0  0  0  0  0  0  0  0  0
   11.1275  -17.5788   23.3894 C   0  0  0  0  0  0  0  0  0  0  0  0
   11.5885  -17.5507   24.7772 C   0  0  0  0  0  0  0  0  0  0  0  0
   10.4792  -17.2041   25.7821 C   0  0  2  0  0  0  0  0  0  0  0  0
    9.9656  -15.8771   25.4304 N   0  0  0  0  0  0  0  0  0  0  0  0
   11.0425  -17.1685   27.1211 C   0  0  0  0  0  0  0  0  0  0  0  0
   11.1519  -16.0753   27.7301 O   0  0  0  0  0  0  0  0  0  0  0  0
   11.5722  -16.6217   22.4905 C   0  0  0  0  0  0  0  0  0  0  0  0
   11.1472  -16.6140   21.1801 C   0  0  0  0  0  0  0  0  0  0  0  0
   11.4653  -18.3096   27.7559 O   0  0  0  0  0  0  0  0  0  0  0  0
  1  2  1  0
  2  3  1  0
  3 10  1  0
  3  4  2  0
  6  5  1  0
  7  8  1  1
  7  6  1  0
  9  7  1  0
  9 10  1  6
 11 12  2  0
 11  9  1  0
 14 13  1  0
 14 24  2  0
 15 14  1  0
 16 15  2  0
 16 17  1  0
 17 23  2  0
 18 17  1  0
 19 18  1  6
 19 20  1  0
 20 11  1  0
 21 19  1  0
 21 25  1  0
 22 21  2  0
 23 24  1  0
M  END
$$$$
