GIY.pdb
     RDKit          3D

 25 25  0  0  1  0  0  0  0  0999 V2000
    4.9366  -18.7005   23.5523 N   0  0  0  0  0  0  0  0  0  0  0  0
    5.1230  -17.8885   24.7243 C   0  0  0  0  0  0  0  0  0  0  0  0
    6.1658  -16.8271   24.4422 C   0  0  0  0  0  0  0  0  0  0  0  0
    6.8860  -16.9003   23.4230 O   0  0  0  0  0  0  0  0  0  0  0  0
    5.3457  -11.8185   26.3639 C   0  0  0  0  0  0  0  0  0  0  0  0
    5.7537  -12.9680   25.4993 C   0  0  0  0  0  0  0  0  0  0  0  0
    7.0895  -13.5477   25.7594 C   0  0  2  0  0  0  0  0  0  0  0  0
    8.1688  -12.4834   25.8804 C   0  0  0  0  0  0  0  0  0  0  0  0
    7.4919  -14.8028   25.1085 C   0  0  2  0  0  0  0  0  0  0  0  0
    6.3505  -15.7404   25.3110 N   0  0  0  0  0  0  0  0  0  0  0  0
    8.7330  -15.4617   25.4665 C   0  0  0  0  0  0  0  0  0  0  0  0
    8.9919  -15.8300   26.6639 O   0  0  0  0  0  0  0  0  0  0  0  0
    8.2101  -20.1746   29.4054 O   0  0  0  0  0  0  0  0  0  0  0  0
    8.8313  -19.6318   28.2750 C   0  0  0  0  0  0  0  0  0  0  0  0
   10.0621  -19.0203   28.3739 C   0  0  0  0  0  0  0  0  0  0  0  0
   10.6871  -18.4813   27.2719 C   0  0  0  0  0  0  0  0  0  0  0  0
   10.1038  -18.5345   26.0313 C   0  0  0  0  0  0  0  0  0  0  0  0
   10.7352  -17.9601   24.8435 C   0  0  0  0  0  0  0  0  0  0  0  0
   10.9853  -16.4484   24.9556 C   0  0  2  0  0  0  0  0  0  0  0  0
    9.7576  -15.7668   24.5351 N   0  0  0  0  0  0  0  0  0  0  0  0
   12.0754  -16.0780   24.0691 C   0  0  0  0  0  0  0  0  0  0  0  0
   11.8521  -15.3657   23.0588 O   0  0  0  0  0  0  0  0  0  0  0  0
    8.8654  -19.1493   25.9306 C   0  0  0  0  0  0  0  0  0  0  0  0
    8.2393  -19.6890   27.0328 C   0  0  0  0  0  0  0  0  0  0  0  0
   13.3649  -16.4857   24.3028 O   0  0  0  0  0  0  0  0  0  0  0  0
  1  2  1  0
  2  3  1  0
  3 10  1  0
  3  4  2  0
  6  5  1  0
  7  8  1  6
  7  6  1  0
  9  7  1  0
  9 10  1  1
 11 12  2  0
 11  9  1  0
 14 13  1  0
 14 24  2  0
 15 14  1  0
 16 15  2  0
 16 17  1  0
 17 23  2  0
 18 17  1  0
 19 18  1  6
 19 20  1  0
 20 11  1  0
 21 19  1  0
 21 25  1  0
 22 21  2  0
 23 24  1  0
M  END
$$$$
