GIY.pdb
     RDKit          3D

 25 25  0  0  1  0  0  0  0  0999 V2000
    5.3550  -18.9247   23.6805 N   0  0  0  0  0  0  0  0  0  0  0  0
    5.7515  -18.0544   24.7542 C   0  0  0  0  0  0  0  0  0  0  0  0
    6.5323  -16.8843   24.1931 C   0  0  0  0  0  0  0  0  0  0  0  0
    6.8381  -16.8481   22.9815 O   0  0  0  0  0  0  0  0  0  0  0  0
    5.5422  -12.0848   26.2718 C   0  0  0  0  0  0  0  0  0  0  0  0
    5.9067  -13.1260   25.2627 C   0  0  0  0  0  0  0  0  0  0  0  0
    7.3356  -13.5013   25.1884 C   0  0  2  0  0  0  0  0  0  0  0  0
    8.2458  -12.2906   25.0535 C   0  0  0  0  0  0  0  0  0  0  0  0
    7.7484  -14.7035   24.4502 C   0  0  2  0  0  0  0  0  0  0  0  0
    6.9309  -15.8165   25.0122 N   0  0  0  0  0  0  0  0  0  0  0  0
    9.1418  -15.1016   24.3965 C   0  0  0  0  0  0  0  0  0  0  0  0
   10.0200  -14.4335   23.7493 O   0  0  0  0  0  0  0  0  0  0  0  0
   10.5361  -14.2299   31.0093 O   0  0  0  0  0  0  0  0  0  0  0  0
   10.7609  -14.9900   29.8562 C   0  0  0  0  0  0  0  0  0  0  0  0
   10.8099  -14.3905   28.6166 C   0  0  0  0  0  0  0  0  0  0  0  0
   11.0303  -15.1236   27.4722 C   0  0  0  0  0  0  0  0  0  0  0  0
   11.2096  -16.4826   27.5263 C   0  0  0  0  0  0  0  0  0  0  0  0
   11.4326  -17.2916   26.3283 C   0  0  0  0  0  0  0  0  0  0  0  0
   11.0900  -16.5572   25.0231 C   0  0  2  0  0  0  0  0  0  0  0  0
    9.6581  -16.2455   25.0562 N   0  0  0  0  0  0  0  0  0  0  0  0
   11.3719  -17.4302   23.8962 C   0  0  0  0  0  0  0  0  0  0  0  0
   12.5567  -17.7495   23.6272 O   0  0  0  0  0  0  0  0  0  0  0  0
   11.1604  -17.0869   28.7729 C   0  0  0  0  0  0  0  0  0  0  0  0
   10.9400  -16.3542   29.9186 C   0  0  0  0  0  0  0  0  0  0  0  0
   10.3698  -17.9286   23.1019 O   0  0  0  0  0  0  0  0  0  0  0  0
  1  2  1  0
  2  3  1  0
  3 10  1  0
  3  4  2  0
  6  5  1  0
  7  8  1  6
  7  6  1  0
  9  7  1  0
  9 10  1  1
 11 12  2  0
 11  9  1  0
 14 13  1  0
 14 24  2  0
 15 14  1  0
 16 15  2  0
 16 17  1  0
 17 23  2  0
 18 17  1  0
 19 18  1  1
 19 20  1  0
 20 11  1  0
 21 19  1  0
 21 25  1  0
 22 21  2  0
 23 24  1  0
M  END
$$$$
