GIY.pdb
     RDKit          3D

 25 25  0  0  1  0  0  0  0  0999 V2000
    7.2826  -14.9685   20.1716 N   0  0  0  0  0  0  0  0  0  0  0  0
    6.5357  -15.0662   21.3964 C   0  0  0  0  0  0  0  0  0  0  0  0
    7.4346  -14.7183   22.5646 C   0  0  0  0  0  0  0  0  0  0  0  0
    8.6379  -14.4360   22.3772 O   0  0  0  0  0  0  0  0  0  0  0  0
    5.5084  -11.5320   26.2987 C   0  0  0  0  0  0  0  0  0  0  0  0
    6.3511  -12.3138   25.3427 C   0  0  0  0  0  0  0  0  0  0  0  0
    7.0598  -13.4884   25.8959 C   0  0  2  0  0  0  0  0  0  0  0  0
    7.6556  -13.2119   27.2674 C   0  0  0  0  0  0  0  0  0  0  0  0
    7.8488  -14.3605   25.0143 C   0  0  2  0  0  0  0  0  0  0  0  0
    6.9444  -14.7034   23.8797 N   0  0  0  0  0  0  0  0  0  0  0  0
    8.4701  -15.5676   25.5240 C   0  0  0  0  0  0  0  0  0  0  0  0
    7.7873  -16.5498   25.9773 O   0  0  0  0  0  0  0  0  0  0  0  0
   10.1737  -17.9710   19.6573 O   0  0  0  0  0  0  0  0  0  0  0  0
   10.5380  -17.8214   21.0001 C   0  0  0  0  0  0  0  0  0  0  0  0
   10.2531  -18.8064   21.9205 C   0  0  0  0  0  0  0  0  0  0  0  0
   10.6045  -18.6752   23.2452 C   0  0  0  0  0  0  0  0  0  0  0  0
   11.2534  -17.5542   23.6972 C   0  0  0  0  0  0  0  0  0  0  0  0
   11.6287  -17.3783   25.0999 C   0  0  0  0  0  0  0  0  0  0  0  0
   10.4384  -17.0485   26.0137 C   0  0  2  0  0  0  0  0  0  0  0  0
    9.8722  -15.7760   25.5570 N   0  0  0  0  0  0  0  0  0  0  0  0
   10.9107  -16.9082   27.3807 C   0  0  0  0  0  0  0  0  0  0  0  0
   11.3493  -17.9081   28.0018 O   0  0  0  0  0  0  0  0  0  0  0  0
   11.5404  -16.5624   22.7721 C   0  0  0  0  0  0  0  0  0  0  0  0
   11.1893  -16.6928   21.4464 C   0  0  0  0  0  0  0  0  0  0  0  0
   10.8954  -15.6981   28.0281 O   0  0  0  0  0  0  0  0  0  0  0  0
  1  2  1  0
  2  3  1  0
  3 10  1  0
  3  4  2  0
  6  5  1  0
  7  8  1  1
  7  6  1  0
  9  7  1  0
  9 10  1  6
 11 12  2  0
 11  9  1  0
 14 13  1  0
 14 24  2  0
 15 14  1  0
 16 15  2  0
 16 17  1  0
 17 23  2  0
 18 17  1  0
 19 18  1  6
 19 20  1  0
 20 11  1  0
 21 19  1  0
 21 25  1  0
 22 21  2  0
 23 24  1  0
M  END
$$$$
