GIY.pdb
     RDKit          3D

 25 25  0  0  1  0  0  0  0  0999 V2000
    5.9892  -19.0023   25.2755 N   0  0  0  0  0  0  0  0  0  0  0  0
    6.0808  -17.7944   26.0502 C   0  0  0  0  0  0  0  0  0  0  0  0
    6.6471  -16.6845   25.1893 C   0  0  0  0  0  0  0  0  0  0  0  0
    7.0206  -16.9170   24.0191 O   0  0  0  0  0  0  0  0  0  0  0  0
    4.9125  -11.8770   26.4554 C   0  0  0  0  0  0  0  0  0  0  0  0
    5.3604  -13.0279   25.6128 C   0  0  0  0  0  0  0  0  0  0  0  0
    6.7927  -13.0580   25.2445 C   0  0  2  0  0  0  0  0  0  0  0  0
    7.2133  -11.8285   24.4547 C   0  0  0  0  0  0  0  0  0  0  0  0
    7.4311  -14.3235   24.8553 C   0  0  2  0  0  0  0  0  0  0  0  0
    6.7671  -15.3745   25.6784 N   0  0  0  0  0  0  0  0  0  0  0  0
    8.8704  -14.4841   24.9289 C   0  0  0  0  0  0  0  0  0  0  0  0
    9.5747  -13.9336   25.8439 O   0  0  0  0  0  0  0  0  0  0  0  0
   10.5232  -15.0094   30.7631 O   0  0  0  0  0  0  0  0  0  0  0  0
   10.5777  -15.4769   29.4453 C   0  0  0  0  0  0  0  0  0  0  0  0
    9.7681  -14.9334   28.4717 C   0  0  0  0  0  0  0  0  0  0  0  0
    9.8092  -15.3815   27.1706 C   0  0  0  0  0  0  0  0  0  0  0  0
   10.6614  -16.3893   26.7961 C   0  0  0  0  0  0  0  0  0  0  0  0
   10.7200  -16.8969   25.4256 C   0  0  0  0  0  0  0  0  0  0  0  0
   10.9389  -15.7967   24.3758 C   0  0  2  0  0  0  0  0  0  0  0  0
    9.6217  -15.2649   24.0143 N   0  0  0  0  0  0  0  0  0  0  0  0
   11.5687  -16.3761   23.2015 C   0  0  0  0  0  0  0  0  0  0  0  0
   10.8706  -16.7100   22.2119 O   0  0  0  0  0  0  0  0  0  0  0  0
   11.4762  -16.9371   27.7748 C   0  0  0  0  0  0  0  0  0  0  0  0
   11.4359  -16.4892   29.0770 C   0  0  0  0  0  0  0  0  0  0  0  0
   12.9252  -16.5732   23.1341 O   0  0  0  0  0  0  0  0  0  0  0  0
  1  2  1  0
  2  3  1  0
  3 10  1  0
  3  4  2  0
  6  5  1  0
  7  8  1  6
  7  6  1  0
  9  7  1  0
  9 10  1  1
 11 12  2  0
 11  9  1  0
 14 13  1  0
 14 24  2  0
 15 14  1  0
 16 15  2  0
 16 17  1  0
 17 23  2  0
 18 17  1  0
 19 18  1  1
 19 20  1  0
 20 11  1  0
 21 19  1  0
 21 25  1  0
 22 21  2  0
 23 24  1  0
M  END
$$$$
