GIY.pdb
     RDKit          3D

 25 25  0  0  1  0  0  0  0  0999 V2000
    5.1509  -18.7967   24.1108 N   0  0  0  0  0  0  0  0  0  0  0  0
    5.2627  -17.8366   25.1754 C   0  0  0  0  0  0  0  0  0  0  0  0
    6.2554  -16.7620   24.7835 C   0  0  0  0  0  0  0  0  0  0  0  0
    6.8724  -16.8334   23.6986 O   0  0  0  0  0  0  0  0  0  0  0  0
    5.4275  -11.8847   26.8855 C   0  0  0  0  0  0  0  0  0  0  0  0
    5.7975  -12.9529   25.9070 C   0  0  0  0  0  0  0  0  0  0  0  0
    7.1951  -13.4350   25.9535 C   0  0  2  0  0  0  0  0  0  0  0  0
    8.2025  -12.2989   25.8712 C   0  0  0  0  0  0  0  0  0  0  0  0
    7.5720  -14.6813   25.2712 C   0  0  2  0  0  0  0  0  0  0  0  0
    6.5077  -15.6649   25.6218 N   0  0  0  0  0  0  0  0  0  0  0  0
    8.8762  -15.2792   25.4812 C   0  0  0  0  0  0  0  0  0  0  0  0
    9.3708  -15.4507   26.6484 O   0  0  0  0  0  0  0  0  0  0  0  0
    8.3236  -19.9304   29.3340 O   0  0  0  0  0  0  0  0  0  0  0  0
    8.9418  -19.4199   28.1872 C   0  0  0  0  0  0  0  0  0  0  0  0
    8.2286  -19.2477   27.0208 C   0  0  0  0  0  0  0  0  0  0  0  0
    8.8213  -18.7466   25.8837 C   0  0  0  0  0  0  0  0  0  0  0  0
   10.1485  -18.3996   25.8719 C   0  0  0  0  0  0  0  0  0  0  0  0
   10.8111  -17.8770   24.6772 C   0  0  0  0  0  0  0  0  0  0  0  0
   11.0097  -16.3538   24.7061 C   0  0  2  0  0  0  0  0  0  0  0  0
    9.7101  -15.7351   24.4289 N   0  0  0  0  0  0  0  0  0  0  0  0
   11.9585  -15.9766   23.6722 C   0  0  0  0  0  0  0  0  0  0  0  0
   11.5690  -15.3425   22.6602 O   0  0  0  0  0  0  0  0  0  0  0  0
   10.8672  -18.5726   27.0447 C   0  0  0  0  0  0  0  0  0  0  0  0
   10.2749  -19.0738   28.1831 C   0  0  0  0  0  0  0  0  0  0  0  0
   13.2906  -16.2935   23.7657 O   0  0  0  0  0  0  0  0  0  0  0  0
  1  2  1  0
  2  3  1  0
  3 10  1  0
  3  4  2  0
  6  5  1  0
  7  8  1  6
  7  6  1  0
  9  7  1  0
  9 10  1  1
 11 12  2  0
 11  9  1  0
 14 13  1  0
 14 24  2  0
 15 14  1  0
 16 15  2  0
 16 17  1  0
 17 23  2  0
 18 17  1  0
 19 18  1  6
 19 20  1  0
 20 11  1  0
 21 19  1  0
 21 25  1  0
 22 21  2  0
 23 24  1  0
M  END
$$$$
