GIY.pdb
     RDKit          3D

 25 25  0  0  1  0  0  0  0  0999 V2000
    4.8970  -18.2310   19.9788 N   0  0  0  0  0  0  0  0  0  0  0  0
    5.0962  -17.6145   21.2625 C   0  0  0  0  0  0  0  0  0  0  0  0
    6.4652  -16.9681   21.3047 C   0  0  0  0  0  0  0  0  0  0  0  0
    7.4889  -17.6318   21.0326 O   0  0  0  0  0  0  0  0  0  0  0  0
    7.1173  -12.4245   18.9462 C   0  0  0  0  0  0  0  0  0  0  0  0
    7.2443  -13.7546   19.6170 C   0  0  0  0  0  0  0  0  0  0  0  0
    7.8977  -13.7647   20.9440 C   0  0  2  0  0  0  0  0  0  0  0  0
    9.1234  -12.8660   20.9926 C   0  0  0  0  0  0  0  0  0  0  0  0
    7.9810  -15.0108   21.7193 C   0  0  2  0  0  0  0  0  0  0  0  0
    6.6203  -15.6160   21.6481 N   0  0  0  0  0  0  0  0  0  0  0  0
    8.4387  -15.0016   23.0952 C   0  0  0  0  0  0  0  0  0  0  0  0
    8.0045  -14.1603   23.9555 O   0  0  0  0  0  0  0  0  0  0  0  0
    5.8351  -11.2763   27.1537 O   0  0  0  0  0  0  0  0  0  0  0  0
    6.5214  -12.4569   26.8488 C   0  0  0  0  0  0  0  0  0  0  0  0
    7.8987  -12.4950   26.8667 C   0  0  0  0  0  0  0  0  0  0  0  0
    8.5895  -13.6482   26.5694 C   0  0  0  0  0  0  0  0  0  0  0  0
    7.9279  -14.8050   26.2436 C   0  0  0  0  0  0  0  0  0  0  0  0
    8.6320  -16.0429   25.9101 C   0  0  0  0  0  0  0  0  0  0  0  0
    9.8514  -15.8257   25.0010 C   0  0  2  0  0  0  0  0  0  0  0  0
    9.3881  -15.9184   23.6135 N   0  0  0  0  0  0  0  0  0  0  0  0
   10.8299  -16.8688   25.2579 C   0  0  0  0  0  0  0  0  0  0  0  0
   11.0219  -17.7756   24.4100 O   0  0  0  0  0  0  0  0  0  0  0  0
    6.5422  -14.7680   26.2251 C   0  0  0  0  0  0  0  0  0  0  0  0
    5.8501  -13.6145   26.5225 C   0  0  0  0  0  0  0  0  0  0  0  0
   11.5665  -16.8971   26.4156 O   0  0  0  0  0  0  0  0  0  0  0  0
  1  2  1  0
  2  3  1  0
  3 10  1  0
  3  4  2  0
  6  5  1  0
  7  8  1  6
  7  6  1  0
  9  7  1  0
  9 10  1  1
 11 12  2  0
 11  9  1  0
 14 13  1  0
 14 24  2  0
 15 14  1  0
 16 15  2  0
 16 17  1  0
 17 23  2  0
 18 17  1  0
 19 18  1  1
 19 20  1  0
 20 11  1  0
 21 19  1  0
 21 25  1  0
 22 21  2  0
 23 24  1  0
M  END
$$$$
