GIY.pdb
     RDKit          3D

 25 25  0  0  1  0  0  0  0  0999 V2000
    6.8447  -15.0934   20.4121 N   0  0  0  0  0  0  0  0  0  0  0  0
    6.2239  -15.1786   21.7063 C   0  0  0  0  0  0  0  0  0  0  0  0
    7.2347  -14.8196   22.7754 C   0  0  0  0  0  0  0  0  0  0  0  0
    8.4592  -14.8445   22.5248 O   0  0  0  0  0  0  0  0  0  0  0  0
    6.2286  -10.9185   26.1822 C   0  0  0  0  0  0  0  0  0  0  0  0
    6.8923  -11.9299   25.3036 C   0  0  0  0  0  0  0  0  0  0  0  0
    7.3727  -13.1634   25.9636 C   0  0  2  0  0  0  0  0  0  0  0  0
    8.1721  -12.8719   27.2239 C   0  0  0  0  0  0  0  0  0  0  0  0
    7.8324  -14.3038   25.1581 C   0  0  2  0  0  0  0  0  0  0  0  0
    6.8270  -14.4520   24.0671 N   0  0  0  0  0  0  0  0  0  0  0  0
    8.0812  -15.5946   25.7700 C   0  0  0  0  0  0  0  0  0  0  0  0
    7.1356  -16.3971   26.0838 O   0  0  0  0  0  0  0  0  0  0  0  0
   13.8969  -17.3980   21.8863 O   0  0  0  0  0  0  0  0  0  0  0  0
   12.8479  -17.6472   22.7782 C   0  0  0  0  0  0  0  0  0  0  0  0
   13.0830  -18.2687   23.9852 C   0  0  0  0  0  0  0  0  0  0  0  0
   12.0625  -18.5212   24.8742 C   0  0  0  0  0  0  0  0  0  0  0  0
   10.7700  -18.1613   24.5881 C   0  0  0  0  0  0  0  0  0  0  0  0
    9.6616  -18.4269   25.5048 C   0  0  0  0  0  0  0  0  0  0  0  0
    9.5665  -17.4151   26.6571 C   0  0  2  0  0  0  0  0  0  0  0  0
    9.3775  -16.0883   26.0635 N   0  0  0  0  0  0  0  0  0  0  0  0
   10.8061  -17.4370   27.4150 C   0  0  0  0  0  0  0  0  0  0  0  0
   11.5522  -16.4266   27.4322 O   0  0  0  0  0  0  0  0  0  0  0  0
   10.5320  -17.5360   23.3739 C   0  0  0  0  0  0  0  0  0  0  0  0
   11.5526  -17.2829   22.4838 C   0  0  0  0  0  0  0  0  0  0  0  0
   11.1962  -18.5434   28.1272 O   0  0  0  0  0  0  0  0  0  0  0  0
  1  2  1  0
  2  3  1  0
  3 10  1  0
  3  4  2  0
  6  5  1  0
  7  8  1  1
  7  6  1  0
  9  7  1  0
  9 10  1  6
 11 12  2  0
 11  9  1  0
 14 13  1  0
 14 24  2  0
 15 14  1  0
 16 15  2  0
 16 17  1  0
 17 23  2  0
 18 17  1  0
 19 18  1  6
 19 20  1  0
 20 11  1  0
 21 19  1  0
 21 25  1  0
 22 21  2  0
 23 24  1  0
M  END
$$$$
