GIY.pdb
     RDKit          3D

 25 25  0  0  1  0  0  0  0  0999 V2000
    7.5112  -19.5837   19.7457 N   0  0  0  0  0  0  0  0  0  0  0  0
    6.8528  -18.5064   20.4337 C   0  0  0  0  0  0  0  0  0  0  0  0
    7.8141  -17.3470   20.5928 C   0  0  0  0  0  0  0  0  0  0  0  0
    9.0253  -17.4845   20.3155 O   0  0  0  0  0  0  0  0  0  0  0  0
    6.4425  -12.7237   18.7664 C   0  0  0  0  0  0  0  0  0  0  0  0
    7.2069  -13.9092   19.2621 C   0  0  0  0  0  0  0  0  0  0  0  0
    7.7648  -13.8105   20.6284 C   0  0  2  0  0  0  0  0  0  0  0  0
    8.4862  -12.4930   20.8654 C   0  0  0  0  0  0  0  0  0  0  0  0
    8.3516  -14.9923   21.2762 C   0  0  2  0  0  0  0  0  0  0  0  0
    7.3744  -16.0958   21.0524 N   0  0  0  0  0  0  0  0  0  0  0  0
    8.7382  -14.9597   22.6734 C   0  0  0  0  0  0  0  0  0  0  0  0
    8.0732  -14.3107   23.5527 O   0  0  0  0  0  0  0  0  0  0  0  0
   10.9182  -14.9837   30.9173 O   0  0  0  0  0  0  0  0  0  0  0  0
   10.5062  -15.1379   29.5890 C   0  0  0  0  0  0  0  0  0  0  0  0
   10.4112  -16.3904   29.0225 C   0  0  0  0  0  0  0  0  0  0  0  0
   10.0074  -16.5599   27.7172 C   0  0  0  0  0  0  0  0  0  0  0  0
    9.6841  -15.4829   26.9313 C   0  0  0  0  0  0  0  0  0  0  0  0
    9.2644  -15.6279   25.5377 C   0  0  0  0  0  0  0  0  0  0  0  0
   10.3871  -15.3408   24.5290 C   0  0  2  0  0  0  0  0  0  0  0  0
    9.8663  -15.6438   23.1927 N   0  0  0  0  0  0  0  0  0  0  0  0
   11.5198  -16.2043   24.8170 C   0  0  0  0  0  0  0  0  0  0  0  0
   11.5631  -17.3665   24.3423 O   0  0  0  0  0  0  0  0  0  0  0  0
    9.7794  -14.2222   27.5001 C   0  0  0  0  0  0  0  0  0  0  0  0
   10.1833  -14.0517   28.8061 C   0  0  0  0  0  0  0  0  0  0  0  0
   12.5641  -15.7855   25.6029 O   0  0  0  0  0  0  0  0  0  0  0  0
  1  2  1  0
  2  3  1  0
  3 10  1  0
  3  4  2  0
  6  5  1  0
  7  8  1  6
  7  6  1  0
  9  7  1  0
  9 10  1  1
 11 12  2  0
 11  9  1  0
 14 13  1  0
 14 24  2  0
 15 14  1  0
 16 15  2  0
 16 17  1  0
 17 23  2  0
 18 17  1  0
 19 18  1  1
 19 20  1  0
 20 11  1  0
 21 19  1  0
 21 25  1  0
 22 21  2  0
 23 24  1  0
M  END
$$$$
