GIY.pdb
     RDKit          3D

 25 25  0  0  1  0  0  0  0  0999 V2000
    4.8664  -18.2227   22.6407 N   0  0  0  0  0  0  0  0  0  0  0  0
    5.3191  -17.7964   23.9372 C   0  0  0  0  0  0  0  0  0  0  0  0
    6.3127  -16.6645   23.7776 C   0  0  0  0  0  0  0  0  0  0  0  0
    7.0102  -16.5735   22.7442 O   0  0  0  0  0  0  0  0  0  0  0  0
    5.2892  -11.9637   26.0617 C   0  0  0  0  0  0  0  0  0  0  0  0
    5.8467  -12.9442   25.0804 C   0  0  0  0  0  0  0  0  0  0  0  0
    7.1645  -13.5301   25.4091 C   0  0  2  0  0  0  0  0  0  0  0  0
    8.2221  -12.4682   25.6668 C   0  0  0  0  0  0  0  0  0  0  0  0
    7.6259  -14.7466   24.7250 C   0  0  2  0  0  0  0  0  0  0  0  0
    6.4760  -15.6942   24.7785 N   0  0  0  0  0  0  0  0  0  0  0  0
    8.8359  -15.4245   25.1482 C   0  0  0  0  0  0  0  0  0  0  0  0
    8.8843  -16.1420   26.2062 O   0  0  0  0  0  0  0  0  0  0  0  0
   11.4440  -17.4341   31.2349 O   0  0  0  0  0  0  0  0  0  0  0  0
   11.4124  -16.7295   30.0264 C   0  0  0  0  0  0  0  0  0  0  0  0
   11.2066  -15.3671   30.0112 C   0  0  0  0  0  0  0  0  0  0  0  0
   11.1728  -14.6587   28.8312 C   0  0  0  0  0  0  0  0  0  0  0  0
   11.3435  -15.2871   27.6237 C   0  0  0  0  0  0  0  0  0  0  0  0
   11.3000  -14.5658   26.3520 C   0  0  0  0  0  0  0  0  0  0  0  0
   11.3464  -15.4888   25.1246 C   0  0  2  0  0  0  0  0  0  0  0  0
   10.0593  -15.3673   24.4338 N   0  0  0  0  0  0  0  0  0  0  0  0
   11.5342  -16.8604   25.5658 C   0  0  0  0  0  0  0  0  0  0  0  0
   10.5808  -17.6764   25.5109 O   0  0  0  0  0  0  0  0  0  0  0  0
   11.5504  -16.6579   27.6376 C   0  0  0  0  0  0  0  0  0  0  0  0
   11.5845  -17.3675   28.8179 C   0  0  0  0  0  0  0  0  0  0  0  0
   12.7403  -17.3040   26.0478 O   0  0  0  0  0  0  0  0  0  0  0  0
  1  2  1  0
  2  3  1  0
  3 10  1  0
  3  4  2  0
  6  5  1  0
  7  8  1  6
  7  6  1  0
  9  7  1  0
  9 10  1  1
 11 12  2  0
 11  9  1  0
 14 13  1  0
 14 24  2  0
 15 14  1  0
 16 15  2  0
 16 17  1  0
 17 23  2  0
 18 17  1  0
 19 18  1  1
 19 20  1  0
 20 11  1  0
 21 19  1  0
 21 25  1  0
 22 21  2  0
 23 24  1  0
M  END
$$$$
