SSY.pdb
     RDKit          3D

 25 25  0  0  1  0  0  0  0  0999 V2000
    9.3899  -15.1547   14.8678 O   0  0  0  0  0  0  0  0  0  0  0  0
    9.9043  -14.6813   16.0872 C   0  0  0  0  0  0  0  0  0  0  0  0
    8.6835  -14.3951   16.9599 C   0  0  2  0  0  0  0  0  0  0  0  0
    8.4741  -12.9608   16.9062 N   0  0  0  0  0  0  0  0  0  0  0  0
    8.9429  -14.7654   18.3763 C   0  0  0  0  0  0  0  0  0  0  0  0
    9.6708  -14.0656   19.1305 O   0  0  0  0  0  0  0  0  0  0  0  0
    7.7223  -18.4764   19.8782 O   0  0  0  0  0  0  0  0  0  0  0  0
    7.8098  -17.4398   20.8034 C   0  0  0  0  0  0  0  0  0  0  0  0
    8.7272  -16.3632   20.2649 C   0  0  2  0  0  0  0  0  0  0  0  0
    8.3757  -15.9372   18.9484 N   0  0  0  0  0  0  0  0  0  0  0  0
   10.1601  -16.7828   20.3612 C   0  0  0  0  0  0  0  0  0  0  0  0
   10.8928  -16.8748   19.3267 O   0  0  0  0  0  0  0  0  0  0  0  0
   15.5863  -13.7894   17.3983 O   0  0  0  0  0  0  0  0  0  0  0  0
   14.7482  -14.1367   18.4579 C   0  0  0  0  0  0  0  0  0  0  0  0
   13.3766  -14.0734   18.3272 C   0  0  0  0  0  0  0  0  0  0  0  0
   12.5454  -14.4176   19.3771 C   0  0  0  0  0  0  0  0  0  0  0  0
   13.0396  -14.8382   20.5989 C   0  0  0  0  0  0  0  0  0  0  0  0
   12.1412  -15.2040   21.7231 C   0  0  0  0  0  0  0  0  0  0  0  0
   12.0575  -16.6830   21.9768 C   0  0  2  0  0  0  0  0  0  0  0  0
   10.6876  -17.0787   21.6476 N   0  0  0  0  0  0  0  0  0  0  0  0
   12.4287  -17.0935   23.3345 C   0  0  0  0  0  0  0  0  0  0  0  0
   11.4701  -17.5680   24.1967 O   0  0  0  0  0  0  0  0  0  0  0  0
   14.4133  -14.8995   20.7238 C   0  0  0  0  0  0  0  0  0  0  0  0
   15.2423  -14.5558   19.6751 C   0  0  0  0  0  0  0  0  0  0  0  0
   13.6131  -17.0131   23.7096 O   0  0  0  0  0  0  0  0  0  0  0  0
  1  2  1  0
  3  4  1  1
  3  2  1  0
  5  3  1  0
  5 10  1  0
  6  5  2  0
  8  7  1  0
  9 10  1  0
  9  8  1  6
 11  9  1  0
 12 11  2  0
 13 14  1  0
 14 15  2  0
 15 16  1  0
 17 16  2  0
 17 18  1  0
 19 18  1  1
 19 20  1  0
 20 11  1  0
 21 22  1  0
 21 19  1  0
 23 17  1  0
 24 14  1  0
 24 23  2  0
 25 21  2  0
M  END
$$$$
