SSY.pdb
     RDKit          3D

 25 25  0  0  1  0  0  0  0  0999 V2000
    6.9526  -13.8038   17.8538 O   0  0  0  0  0  0  0  0  0  0  0  0
    7.4459  -12.6540   18.4941 C   0  0  0  0  0  0  0  0  0  0  0  0
    8.8335  -13.0370   19.0056 C   0  0  2  0  0  0  0  0  0  0  0  0
    9.5422  -13.6002   17.8723 N   0  0  0  0  0  0  0  0  0  0  0  0
    8.7432  -14.0869   20.0545 C   0  0  0  0  0  0  0  0  0  0  0  0
    8.1460  -13.8942   21.1475 O   0  0  0  0  0  0  0  0  0  0  0  0
   10.8452  -17.8572   19.9891 O   0  0  0  0  0  0  0  0  0  0  0  0
    9.4896  -17.7786   20.2961 C   0  0  0  0  0  0  0  0  0  0  0  0
    9.1781  -16.4016   20.8416 C   0  0  2  0  0  0  0  0  0  0  0  0
    9.3326  -15.3678   19.8692 N   0  0  0  0  0  0  0  0  0  0  0  0
    9.9604  -16.1293   22.0876 C   0  0  0  0  0  0  0  0  0  0  0  0
   11.1197  -15.6104   22.0399 O   0  0  0  0  0  0  0  0  0  0  0  0
   10.7132  -14.6659   30.8159 O   0  0  0  0  0  0  0  0  0  0  0  0
   10.3884  -14.7700   29.4634 C   0  0  0  0  0  0  0  0  0  0  0  0
   11.0944  -15.6095   28.6271 C   0  0  0  0  0  0  0  0  0  0  0  0
   10.7727  -15.7131   27.2864 C   0  0  0  0  0  0  0  0  0  0  0  0
    9.7387  -14.9892   26.7201 C   0  0  0  0  0  0  0  0  0  0  0  0
    9.4003  -15.1035   25.2789 C   0  0  0  0  0  0  0  0  0  0  0  0
   10.1127  -16.2243   24.5751 C   0  0  2  0  0  0  0  0  0  0  0  0
    9.3719  -16.4673   23.3366 N   0  0  0  0  0  0  0  0  0  0  0  0
   10.2604  -17.4492   25.3673 C   0  0  0  0  0  0  0  0  0  0  0  0
    9.1813  -18.2766   25.5635 O   0  0  0  0  0  0  0  0  0  0  0  0
    9.0356  -14.1506   27.5621 C   0  0  0  0  0  0  0  0  0  0  0  0
    9.3575  -14.0478   28.9003 C   0  0  0  0  0  0  0  0  0  0  0  0
   11.3635  -17.7425   25.8643 O   0  0  0  0  0  0  0  0  0  0  0  0
  1  2  1  0
  3  4  1  6
  3  2  1  0
  5  3  1  0
  5 10  1  0
  6  5  2  0
  8  7  1  0
  9 10  1  0
  9  8  1  6
 11  9  1  0
 12 11  2  0
 13 14  1  0
 14 15  2  0
 15 16  1  0
 17 16  2  0
 17 18  1  0
 19 18  1  1
 19 20  1  0
 20 11  1  0
 21 22  1  0
 21 19  1  0
 23 17  1  0
 24 14  1  0
 24 23  2  0
 25 21  2  0
M  END
$$$$
