SSY.pdb
     RDKit          3D

 25 25  0  0  1  0  0  0  0  0999 V2000
   10.7566  -20.6216   17.9916 O   0  0  0  0  0  0  0  0  0  0  0  0
   10.4491  -19.8052   19.0936 C   0  0  0  0  0  0  0  0  0  0  0  0
    9.3126  -18.8990   18.6238 C   0  0  2  0  0  0  0  0  0  0  0  0
    9.8807  -18.0267   17.6138 N   0  0  0  0  0  0  0  0  0  0  0  0
    8.8169  -18.0463   19.7364 C   0  0  0  0  0  0  0  0  0  0  0  0
    8.8716  -16.7879   19.6933 O   0  0  0  0  0  0  0  0  0  0  0  0
    6.9153  -19.6183   23.2486 O   0  0  0  0  0  0  0  0  0  0  0  0
    6.4984  -18.4502   22.6160 C   0  0  0  0  0  0  0  0  0  0  0  0
    7.6818  -17.8010   21.9314 C   0  0  2  0  0  0  0  0  0  0  0  0
    8.2536  -18.6185   20.9101 N   0  0  0  0  0  0  0  0  0  0  0  0
    8.6987  -17.3502   22.9321 C   0  0  0  0  0  0  0  0  0  0  0  0
    9.7920  -17.9782   23.0922 O   0  0  0  0  0  0  0  0  0  0  0  0
    5.1007  -11.6602   27.3603 O   0  0  0  0  0  0  0  0  0  0  0  0
    6.1491  -12.2966   26.6959 C   0  0  0  0  0  0  0  0  0  0  0  0
    7.4186  -12.3216   27.2343 C   0  0  0  0  0  0  0  0  0  0  0  0
    8.4582  -12.9524   26.5760 C   0  0  0  0  0  0  0  0  0  0  0  0
    8.2818  -13.5837   25.3578 C   0  0  0  0  0  0  0  0  0  0  0  0
    9.4032  -14.2571   24.6552 C   0  0  0  0  0  0  0  0  0  0  0  0
    9.3562  -15.7573   24.7350 C   0  0  2  0  0  0  0  0  0  0  0  0
    8.4111  -16.1932   23.7062 N   0  0  0  0  0  0  0  0  0  0  0  0
    9.0040  -16.2896   26.0550 C   0  0  0  0  0  0  0  0  0  0  0  0
    7.8156  -16.9553   26.2342 O   0  0  0  0  0  0  0  0  0  0  0  0
    7.0088  -13.5555   24.8237 C   0  0  0  0  0  0  0  0  0  0  0  0
    5.9717  -12.9256   25.4816 C   0  0  0  0  0  0  0  0  0  0  0  0
    9.7804  -16.1397   27.0165 O   0  0  0  0  0  0  0  0  0  0  0  0
  1  2  1  0
  3  4  1  6
  3  2  1  0
  5  3  1  0
  5 10  1  0
  6  5  2  0
  8  7  1  0
  9 10  1  0
  9  8  1  1
 11  9  1  0
 12 11  2  0
 13 14  1  0
 14 15  2  0
 15 16  1  0
 17 16  2  0
 17 18  1  0
 19 18  1  1
 19 20  1  0
 20 11  1  0
 21 22  1  0
 21 19  1  0
 23 17  1  0
 24 14  1  0
 24 23  2  0
 25 21  2  0
M  END
$$$$
