SSY.pdb
     RDKit          3D

 25 25  0  0  1  0  0  0  0  0999 V2000
   10.2708  -19.5457   21.6975 O   0  0  0  0  0  0  0  0  0  0  0  0
   11.1537  -18.8741   20.8344 C   0  0  0  0  0  0  0  0  0  0  0  0
   10.2640  -18.1523   19.8238 C   0  0  2  0  0  0  0  0  0  0  0  0
   11.0677  -17.9761   18.6293 N   0  0  0  0  0  0  0  0  0  0  0  0
    9.8814  -16.8036   20.3191 C   0  0  0  0  0  0  0  0  0  0  0  0
   10.7057  -15.8522   20.3802 O   0  0  0  0  0  0  0  0  0  0  0  0
    5.9398  -15.9157   21.5434 O   0  0  0  0  0  0  0  0  0  0  0  0
    6.7199  -14.9122   20.9753 C   0  0  0  0  0  0  0  0  0  0  0  0
    8.1830  -15.2237   21.2055 C   0  0  2  0  0  0  0  0  0  0  0  0
    8.5553  -16.5246   20.7501 N   0  0  0  0  0  0  0  0  0  0  0  0
    8.5613  -14.9937   22.6347 C   0  0  0  0  0  0  0  0  0  0  0  0
    8.2623  -13.9122   23.2317 O   0  0  0  0  0  0  0  0  0  0  0  0
    5.9615  -10.8533   26.6977 O   0  0  0  0  0  0  0  0  0  0  0  0
    6.4885  -12.1040   26.3758 C   0  0  0  0  0  0  0  0  0  0  0  0
    5.6624  -13.1585   26.0475 C   0  0  0  0  0  0  0  0  0  0  0  0
    6.1844  -14.3984   25.7282 C   0  0  0  0  0  0  0  0  0  0  0  0
    7.5459  -14.6435   25.7214 C   0  0  0  0  0  0  0  0  0  0  0  0
    8.0995  -15.9784   25.3799 C   0  0  0  0  0  0  0  0  0  0  0  0
    9.4686  -15.9276   24.7619 C   0  0  2  0  0  0  0  0  0  0  0  0
    9.2691  -16.0216   23.3151 N   0  0  0  0  0  0  0  0  0  0  0  0
   10.3986  -16.9515   25.2483 C   0  0  0  0  0  0  0  0  0  0  0  0
   11.1787  -16.7046   26.3519 O   0  0  0  0  0  0  0  0  0  0  0  0
    8.3679  -13.5842   26.0509 C   0  0  0  0  0  0  0  0  0  0  0  0
    7.8459  -12.3468   26.3694 C   0  0  0  0  0  0  0  0  0  0  0  0
   10.4839  -18.0467   24.6627 O   0  0  0  0  0  0  0  0  0  0  0  0
  1  2  1  0
  3  4  1  6
  3  2  1  0
  5  3  1  0
  5 10  1  0
  6  5  2  0
  8  7  1  0
  9 10  1  0
  9  8  1  1
 11  9  1  0
 12 11  2  0
 13 14  1  0
 14 15  2  0
 15 16  1  0
 17 16  2  0
 17 18  1  0
 19 18  1  1
 19 20  1  0
 20 11  1  0
 21 22  1  0
 21 19  1  0
 23 17  1  0
 24 14  1  0
 24 23  2  0
 25 21  2  0
M  END
$$$$
