SSY.pdb
     RDKit          3D

 25 25  0  0  1  0  0  0  0  0999 V2000
    5.0782  -18.3287   20.1931 O   0  0  0  0  0  0  0  0  0  0  0  0
    4.3080  -17.9877   19.0679 C   0  0  0  0  0  0  0  0  0  0  0  0
    5.3170  -17.6694   17.9658 C   0  0  2  0  0  0  0  0  0  0  0  0
    5.5982  -18.9260   17.2983 N   0  0  0  0  0  0  0  0  0  0  0  0
    6.5913  -17.1631   18.5407 C   0  0  0  0  0  0  0  0  0  0  0  0
    7.4333  -17.9278   19.0837 O   0  0  0  0  0  0  0  0  0  0  0  0
    7.4562  -13.0134   19.2658 O   0  0  0  0  0  0  0  0  0  0  0  0
    8.4244  -13.8549   18.7248 C   0  0  0  0  0  0  0  0  0  0  0  0
    8.1152  -15.2862   19.1076 C   0  0  2  0  0  0  0  0  0  0  0  0
    6.9198  -15.7800   18.5030 N   0  0  0  0  0  0  0  0  0  0  0  0
    8.1097  -15.4540   20.5943 C   0  0  0  0  0  0  0  0  0  0  0  0
    7.0480  -15.2911   21.2738 O   0  0  0  0  0  0  0  0  0  0  0  0
    8.5871  -19.2516   28.2408 O   0  0  0  0  0  0  0  0  0  0  0  0
    8.5478  -18.7543   26.9381 C   0  0  0  0  0  0  0  0  0  0  0  0
    7.7862  -17.6482   26.6240 C   0  0  0  0  0  0  0  0  0  0  0  0
    7.7469  -17.1549   25.3329 C   0  0  0  0  0  0  0  0  0  0  0  0
    8.4606  -17.7376   24.3010 C   0  0  0  0  0  0  0  0  0  0  0  0
    8.4120  -17.2041   22.9162 C   0  0  0  0  0  0  0  0  0  0  0  0
    9.3454  -16.0506   22.6770 C   0  0  2  0  0  0  0  0  0  0  0  0
    9.3298  -15.8029   21.2347 N   0  0  0  0  0  0  0  0  0  0  0  0
   10.7087  -16.2519   23.1775 C   0  0  0  0  0  0  0  0  0  0  0  0
   11.0596  -15.7918   24.4236 O   0  0  0  0  0  0  0  0  0  0  0  0
    9.2213  -18.8446   24.6214 C   0  0  0  0  0  0  0  0  0  0  0  0
    9.2598  -19.3362   25.9106 C   0  0  0  0  0  0  0  0  0  0  0  0
   11.5516  -16.8398   22.4750 O   0  0  0  0  0  0  0  0  0  0  0  0
  1  2  1  0
  3  4  1  1
  3  2  1  0
  5  3  1  0
  5 10  1  0
  6  5  2  0
  8  7  1  0
  9 10  1  0
  9  8  1  1
 11  9  1  0
 12 11  2  0
 13 14  1  0
 14 15  2  0
 15 16  1  0
 17 16  2  0
 17 18  1  0
 19 18  1  6
 19 20  1  0
 20 11  1  0
 21 22  1  0
 21 19  1  0
 23 17  1  0
 24 14  1  0
 24 23  2  0
 25 21  2  0
M  END
$$$$
