SSY.pdb
     RDKit          3D

 25 25  0  0  1  0  0  0  0  0999 V2000
   10.1910  -11.9168   18.6999 O   0  0  0  0  0  0  0  0  0  0  0  0
    9.3897  -12.3792   19.7581 C   0  0  0  0  0  0  0  0  0  0  0  0
    8.7815  -13.6908   19.2646 C   0  0  2  0  0  0  0  0  0  0  0  0
    7.6080  -13.3285   18.4928 N   0  0  0  0  0  0  0  0  0  0  0  0
    8.3348  -14.5330   20.4055 C   0  0  0  0  0  0  0  0  0  0  0  0
    7.2258  -14.3554   20.9772 O   0  0  0  0  0  0  0  0  0  0  0  0
   10.3086  -18.1248   21.3987 O   0  0  0  0  0  0  0  0  0  0  0  0
    8.9364  -17.9450   21.5506 C   0  0  0  0  0  0  0  0  0  0  0  0
    8.6551  -16.4973   21.8907 C   0  0  2  0  0  0  0  0  0  0  0  0
    9.1473  -15.5869   20.9072 N   0  0  0  0  0  0  0  0  0  0  0  0
    9.1434  -16.1652   23.2654 C   0  0  0  0  0  0  0  0  0  0  0  0
   10.2108  -15.4987   23.4445 O   0  0  0  0  0  0  0  0  0  0  0  0
    6.0735  -10.5641   26.3277 O   0  0  0  0  0  0  0  0  0  0  0  0
    6.4521  -11.9055   26.3840 C   0  0  0  0  0  0  0  0  0  0  0  0
    7.7646  -12.2630   26.6115 C   0  0  0  0  0  0  0  0  0  0  0  0
    8.1404  -13.5924   26.6674 C   0  0  0  0  0  0  0  0  0  0  0  0
    7.2309  -14.6213   26.5001 C   0  0  0  0  0  0  0  0  0  0  0  0
    7.6417  -16.0470   26.5589 C   0  0  0  0  0  0  0  0  0  0  0  0
    8.8587  -16.3624   25.7352 C   0  0  2  0  0  0  0  0  0  0  0  0
    8.3794  -16.6162   24.3760 N   0  0  0  0  0  0  0  0  0  0  0  0
    9.6688  -17.4751   26.2407 C   0  0  0  0  0  0  0  0  0  0  0  0
   10.3974  -17.3271   27.3961 O   0  0  0  0  0  0  0  0  0  0  0  0
    5.9185  -14.2575   26.2725 C   0  0  0  0  0  0  0  0  0  0  0  0
    5.5444  -12.9300   26.2169 C   0  0  0  0  0  0  0  0  0  0  0  0
    9.6989  -18.5563   25.6244 O   0  0  0  0  0  0  0  0  0  0  0  0
  1  2  1  0
  3  4  1  6
  3  2  1  0
  5  3  1  0
  5 10  1  0
  6  5  2  0
  8  7  1  0
  9 10  1  0
  9  8  1  6
 11  9  1  0
 12 11  2  0
 13 14  1  0
 14 15  2  0
 15 16  1  0
 17 16  2  0
 17 18  1  0
 19 18  1  1
 19 20  1  0
 20 11  1  0
 21 22  1  0
 21 19  1  0
 23 17  1  0
 24 14  1  0
 24 23  2  0
 25 21  2  0
M  END
$$$$
