SSY.pdb
     RDKit          3D

 25 25  0  0  1  0  0  0  0  0999 V2000
    6.2207  -19.4823   26.6103 O   0  0  0  0  0  0  0  0  0  0  0  0
    7.0372  -19.5929   25.4715 C   0  0  0  0  0  0  0  0  0  0  0  0
    6.2339  -18.9669   24.3328 C   0  0  2  0  0  0  0  0  0  0  0  0
    5.6292  -20.0691   23.6095 N   0  0  0  0  0  0  0  0  0  0  0  0
    7.1241  -18.2375   23.3915 C   0  0  0  0  0  0  0  0  0  0  0  0
    7.9111  -18.8372   22.6108 O   0  0  0  0  0  0  0  0  0  0  0  0
    6.7988  -14.1068   22.5439 O   0  0  0  0  0  0  0  0  0  0  0  0
    7.4236  -15.0139   21.6924 C   0  0  0  0  0  0  0  0  0  0  0  0
    8.0632  -16.1131   22.5129 C   0  0  2  0  0  0  0  0  0  0  0  0
    7.1272  -16.8167   23.3298 N   0  0  0  0  0  0  0  0  0  0  0  0
    9.2215  -15.5884   23.3014 C   0  0  0  0  0  0  0  0  0  0  0  0
    9.0665  -14.6851   24.1820 O   0  0  0  0  0  0  0  0  0  0  0  0
    8.4898  -13.6491   29.0668 O   0  0  0  0  0  0  0  0  0  0  0  0
    9.2481  -14.3140   28.1032 C   0  0  0  0  0  0  0  0  0  0  0  0
   10.6264  -14.2743   28.1338 C   0  0  0  0  0  0  0  0  0  0  0  0
   11.3785  -14.9332   27.1789 C   0  0  0  0  0  0  0  0  0  0  0  0
   10.7953  -15.6581   26.1550 C   0  0  0  0  0  0  0  0  0  0  0  0
   11.6090  -16.3614   25.1313 C   0  0  0  0  0  0  0  0  0  0  0  0
   11.6629  -15.6529   23.8069 C   0  0  2  0  0  0  0  0  0  0  0  0
   10.5103  -16.1282   23.0405 N   0  0  0  0  0  0  0  0  0  0  0  0
   12.9163  -15.8313   23.0674 C   0  0  0  0  0  0  0  0  0  0  0  0
   14.0566  -15.1852   23.4791 O   0  0  0  0  0  0  0  0  0  0  0  0
    9.4152  -15.6943   26.1294 C   0  0  0  0  0  0  0  0  0  0  0  0
    8.6653  -15.0362   27.0832 C   0  0  0  0  0  0  0  0  0  0  0  0
   12.9504  -16.5682   22.0646 O   0  0  0  0  0  0  0  0  0  0  0  0
  1  2  1  0
  3  4  1  6
  3  2  1  0
  5  3  1  0
  5 10  1  0
  6  5  2  0
  8  7  1  0
  9 10  1  0
  9  8  1  1
 11  9  1  0
 12 11  2  0
 13 14  1  0
 14 15  2  0
 15 16  1  0
 17 16  2  0
 17 18  1  0
 19 18  1  1
 19 20  1  0
 20 11  1  0
 21 22  1  0
 21 19  1  0
 23 17  1  0
 24 14  1  0
 24 23  2  0
 25 21  2  0
M  END
$$$$
