SSY.pdb
     RDKit          3D

 25 25  0  0  1  0  0  0  0  0999 V2000
   10.2140  -16.2005   16.1092 O   0  0  0  0  0  0  0  0  0  0  0  0
   10.0061  -15.4732   17.2938 C   0  0  0  0  0  0  0  0  0  0  0  0
    8.4896  -15.3638   17.4431 C   0  0  2  0  0  0  0  0  0  0  0  0
    8.1058  -14.1278   16.7883 N   0  0  0  0  0  0  0  0  0  0  0  0
    8.1016  -15.2611   18.8747 C   0  0  0  0  0  0  0  0  0  0  0  0
    8.3165  -14.2224   19.5555 O   0  0  0  0  0  0  0  0  0  0  0  0
    6.5426  -18.5085   21.2822 O   0  0  0  0  0  0  0  0  0  0  0  0
    5.9798  -17.2351   21.2823 C   0  0  0  0  0  0  0  0  0  0  0  0
    7.0362  -16.2200   20.9025 C   0  0  2  0  0  0  0  0  0  0  0  0
    7.4644  -16.3408   19.5459 N   0  0  0  0  0  0  0  0  0  0  0  0
    8.1823  -16.2541   21.8638 C   0  0  0  0  0  0  0  0  0  0  0  0
    9.2834  -16.8114   21.5599 O   0  0  0  0  0  0  0  0  0  0  0  0
    5.3719  -11.4833   27.3127 O   0  0  0  0  0  0  0  0  0  0  0  0
    6.3634  -12.1606   26.6029 C   0  0  0  0  0  0  0  0  0  0  0  0
    7.4435  -12.7206   27.2526 C   0  0  0  0  0  0  0  0  0  0  0  0
    8.4266  -13.3921   26.5495 C   0  0  0  0  0  0  0  0  0  0  0  0
    8.3792  -13.5358   25.1743 C   0  0  0  0  0  0  0  0  0  0  0  0
    9.4398  -14.2562   24.4252 C   0  0  0  0  0  0  0  0  0  0  0  0
    9.0979  -15.6861   24.1130 C   0  0  2  0  0  0  0  0  0  0  0  0
    8.0094  -15.6434   23.1357 N   0  0  0  0  0  0  0  0  0  0  0  0
    8.7463  -16.5007   25.2803 C   0  0  0  0  0  0  0  0  0  0  0  0
    9.7098  -16.8383   26.1997 O   0  0  0  0  0  0  0  0  0  0  0  0
    7.2957  -12.9732   24.5294 C   0  0  0  0  0  0  0  0  0  0  0  0
    6.3148  -12.3031   25.2322 C   0  0  0  0  0  0  0  0  0  0  0  0
    7.5744  -16.8886   25.4413 O   0  0  0  0  0  0  0  0  0  0  0  0
  1  2  1  0
  3  4  1  6
  3  2  1  0
  5  3  1  0
  5 10  1  0
  6  5  2  0
  8  7  1  0
  9 10  1  0
  9  8  1  1
 11  9  1  0
 12 11  2  0
 13 14  1  0
 14 15  2  0
 15 16  1  0
 17 16  2  0
 17 18  1  0
 19 18  1  1
 19 20  1  0
 20 11  1  0
 21 22  1  0
 21 19  1  0
 23 17  1  0
 24 14  1  0
 24 23  2  0
 25 21  2  0
M  END
$$$$
