SSY.pdb
     RDKit          3D

 25 25  0  0  1  0  0  0  0  0999 V2000
   10.4852  -13.5984   16.7238 O   0  0  0  0  0  0  0  0  0  0  0  0
    9.9143  -13.3093   17.9752 C   0  0  0  0  0  0  0  0  0  0  0  0
    8.5621  -14.0200   17.9792 C   0  0  2  0  0  0  0  0  0  0  0  0
    7.5984  -13.0608   17.4740 N   0  0  0  0  0  0  0  0  0  0  0  0
    8.1578  -14.3875   19.3620 C   0  0  0  0  0  0  0  0  0  0  0  0
    7.6731  -13.5462   20.1656 O   0  0  0  0  0  0  0  0  0  0  0  0
    8.4727  -18.3721   21.0417 O   0  0  0  0  0  0  0  0  0  0  0  0
    7.3684  -17.5387   21.1974 C   0  0  0  0  0  0  0  0  0  0  0  0
    7.8169  -16.0947   21.1328 C   0  0  2  0  0  0  0  0  0  0  0  0
    8.3016  -15.7177   19.8439 N   0  0  0  0  0  0  0  0  0  0  0  0
    8.7993  -15.7896   22.2193 C   0  0  0  0  0  0  0  0  0  0  0  0
   10.0443  -15.7019   21.9791 O   0  0  0  0  0  0  0  0  0  0  0  0
   11.2278  -14.6355   30.7422 O   0  0  0  0  0  0  0  0  0  0  0  0
   10.5488  -14.6652   29.5241 C   0  0  0  0  0  0  0  0  0  0  0  0
    9.9776  -15.8311   29.0588 C   0  0  0  0  0  0  0  0  0  0  0  0
    9.3044  -15.8610   27.8515 C   0  0  0  0  0  0  0  0  0  0  0  0
    9.1701  -14.7369   27.0565 C   0  0  0  0  0  0  0  0  0  0  0  0
    8.4478  -14.7766   25.7597 C   0  0  0  0  0  0  0  0  0  0  0  0
    9.2424  -15.3897   24.6409 C   0  0  2  0  0  0  0  0  0  0  0  0
    8.3036  -15.5986   23.5378 N   0  0  0  0  0  0  0  0  0  0  0  0
    9.9458  -16.6264   24.9953 C   0  0  0  0  0  0  0  0  0  0  0  0
    9.3205  -17.8408   24.8472 O   0  0  0  0  0  0  0  0  0  0  0  0
    9.7439  -13.5726   27.5273 C   0  0  0  0  0  0  0  0  0  0  0  0
   10.4157  -13.5438   28.7327 C   0  0  0  0  0  0  0  0  0  0  0  0
   11.1108  -16.5794   25.4313 O   0  0  0  0  0  0  0  0  0  0  0  0
  1  2  1  0
  3  4  1  1
  3  2  1  0
  5  3  1  0
  5 10  1  0
  6  5  2  0
  8  7  1  0
  9 10  1  0
  9  8  1  6
 11  9  1  0
 12 11  2  0
 13 14  1  0
 14 15  2  0
 15 16  1  0
 17 16  2  0
 17 18  1  0
 19 18  1  1
 19 20  1  0
 20 11  1  0
 21 22  1  0
 21 19  1  0
 23 17  1  0
 24 14  1  0
 24 23  2  0
 25 21  2  0
M  END
$$$$
