SSY.pdb
     RDKit          3D

 25 25  0  0  1  0  0  0  0  0999 V2000
    3.0918  -19.1126   22.2872 O   0  0  0  0  0  0  0  0  0  0  0  0
    2.6556  -18.2424   21.2733 C   0  0  0  0  0  0  0  0  0  0  0  0
    3.7092  -18.3413   20.1714 C   0  0  2  0  0  0  0  0  0  0  0  0
    3.7653  -19.7391   19.7883 N   0  0  0  0  0  0  0  0  0  0  0  0
    5.0510  -17.9540   20.6816 C   0  0  0  0  0  0  0  0  0  0  0  0
    5.8708  -18.8021   21.1254 O   0  0  0  0  0  0  0  0  0  0  0  0
    6.1298  -13.9450   21.5377 O   0  0  0  0  0  0  0  0  0  0  0  0
    7.0908  -14.7716   20.9618 C   0  0  0  0  0  0  0  0  0  0  0  0
    6.7375  -16.2176   21.2355 C   0  0  2  0  0  0  0  0  0  0  0  0
    5.4730  -16.5960   20.6914 N   0  0  0  0  0  0  0  0  0  0  0  0
    6.8420  -16.5275   22.6956 C   0  0  0  0  0  0  0  0  0  0  0  0
    5.8052  -16.6903   23.4124 O   0  0  0  0  0  0  0  0  0  0  0  0
    8.4911  -20.8623   29.8724 O   0  0  0  0  0  0  0  0  0  0  0  0
    8.3042  -20.2660   28.6252 C   0  0  0  0  0  0  0  0  0  0  0  0
    7.1386  -19.5907   28.3296 C   0  0  0  0  0  0  0  0  0  0  0  0
    6.9529  -18.9995   27.0935 C   0  0  0  0  0  0  0  0  0  0  0  0
    7.9147  -19.0537   26.1006 C   0  0  0  0  0  0  0  0  0  0  0  0
    7.7077  -18.4186   24.7744 C   0  0  0  0  0  0  0  0  0  0  0  0
    8.2812  -17.0334   24.6686 C   0  0  2  0  0  0  0  0  0  0  0  0
    8.1389  -16.6366   23.2672 N   0  0  0  0  0  0  0  0  0  0  0  0
    9.6675  -16.9076   25.1293 C   0  0  0  0  0  0  0  0  0  0  0  0
   10.7046  -17.2312   24.2883 O   0  0  0  0  0  0  0  0  0  0  0  0
    9.0794  -19.7311   26.4022 C   0  0  0  0  0  0  0  0  0  0  0  0
    9.2638  -20.3209   27.6364 C   0  0  0  0  0  0  0  0  0  0  0  0
    9.9084  -16.5077   26.2833 O   0  0  0  0  0  0  0  0  0  0  0  0
  1  2  1  0
  3  4  1  1
  3  2  1  0
  5  3  1  0
  5 10  1  0
  6  5  2  0
  8  7  1  0
  9 10  1  0
  9  8  1  1
 11  9  1  0
 12 11  2  0
 13 14  1  0
 14 15  2  0
 15 16  1  0
 17 16  2  0
 17 18  1  0
 19 18  1  6
 19 20  1  0
 20 11  1  0
 21 22  1  0
 21 19  1  0
 23 17  1  0
 24 14  1  0
 24 23  2  0
 25 21  2  0
M  END
$$$$
