SSY.pdb
     RDKit          3D

 25 25  0  0  1  0  0  0  0  0999 V2000
   11.3808  -18.5301   20.0434 O   0  0  0  0  0  0  0  0  0  0  0  0
   10.4458  -18.5412   18.9940 C   0  0  0  0  0  0  0  0  0  0  0  0
   10.2433  -17.0754   18.6143 C   0  0  2  0  0  0  0  0  0  0  0  0
   11.5185  -16.6087   18.1044 N   0  0  0  0  0  0  0  0  0  0  0  0
    9.9030  -16.2581   19.8087 C   0  0  0  0  0  0  0  0  0  0  0  0
   10.7877  -15.7599   20.5554 O   0  0  0  0  0  0  0  0  0  0  0  0
    5.9754  -15.9029   21.3630 O   0  0  0  0  0  0  0  0  0  0  0  0
    6.7645  -14.7577   21.2991 C   0  0  0  0  0  0  0  0  0  0  0  0
    8.2244  -15.1557   21.2695 C   0  0  2  0  0  0  0  0  0  0  0  0
    8.5507  -15.9997   20.1652 N   0  0  0  0  0  0  0  0  0  0  0  0
    8.6454  -15.7463   22.5782 C   0  0  0  0  0  0  0  0  0  0  0  0
    8.9048  -16.9854   22.6911 O   0  0  0  0  0  0  0  0  0  0  0  0
   10.8089  -15.6980   31.2363 O   0  0  0  0  0  0  0  0  0  0  0  0
   10.4413  -15.3410   29.9389 C   0  0  0  0  0  0  0  0  0  0  0  0
   10.4204  -16.2760   28.9251 C   0  0  0  0  0  0  0  0  0  0  0  0
   10.0562  -15.9226   27.6390 C   0  0  0  0  0  0  0  0  0  0  0  0
    9.6980  -14.6287   27.3053 C   0  0  0  0  0  0  0  0  0  0  0  0
    9.3102  -14.2556   25.9214 C   0  0  0  0  0  0  0  0  0  0  0  0
    9.1162  -15.4327   25.0072 C   0  0  2  0  0  0  0  0  0  0  0  0
    8.7494  -14.8820   23.7019 N   0  0  0  0  0  0  0  0  0  0  0  0
    8.1351  -16.4166   25.4753 C   0  0  0  0  0  0  0  0  0  0  0  0
    8.5577  -17.5878   26.0561 O   0  0  0  0  0  0  0  0  0  0  0  0
    9.7208  -13.6971   28.3242 C   0  0  0  0  0  0  0  0  0  0  0  0
   10.0846  -14.0508   29.6078 C   0  0  0  0  0  0  0  0  0  0  0  0
    6.9170  -16.1936   25.3476 O   0  0  0  0  0  0  0  0  0  0  0  0
  1  2  1  0
  3  4  1  1
  3  2  1  0
  5  3  1  0
  5 10  1  0
  6  5  2  0
  8  7  1  0
  9 10  1  0
  9  8  1  1
 11  9  1  0
 12 11  2  0
 13 14  1  0
 14 15  2  0
 15 16  1  0
 17 16  2  0
 17 18  1  0
 19 18  1  1
 19 20  1  0
 20 11  1  0
 21 22  1  0
 21 19  1  0
 23 17  1  0
 24 14  1  0
 24 23  2  0
 25 21  2  0
M  END
$$$$
