SSY.pdb
     RDKit          3D

 25 25  0  0  1  0  0  0  0  0999 V2000
   12.9600  -18.7089   15.9229 O   0  0  0  0  0  0  0  0  0  0  0  0
   11.9475  -18.0378   15.2158 C   0  0  0  0  0  0  0  0  0  0  0  0
   10.6336  -18.6009   15.7546 C   0  0  2  0  0  0  0  0  0  0  0  0
    9.5768  -17.9665   14.9900 N   0  0  0  0  0  0  0  0  0  0  0  0
   10.4444  -18.2366   17.1836 C   0  0  0  0  0  0  0  0  0  0  0  0
    9.9891  -17.1154   17.5359 O   0  0  0  0  0  0  0  0  0  0  0  0
   11.3984  -20.9037   20.3257 O   0  0  0  0  0  0  0  0  0  0  0  0
   10.2753  -20.0884   20.4366 C   0  0  0  0  0  0  0  0  0  0  0  0
   10.4698  -18.8491   19.5900 C   0  0  2  0  0  0  0  0  0  0  0  0
   10.7720  -19.1460   18.2266 N   0  0  0  0  0  0  0  0  0  0  0  0
   11.4776  -17.9314   20.2070 C   0  0  0  0  0  0  0  0  0  0  0  0
   12.6484  -17.8161   19.7259 O   0  0  0  0  0  0  0  0  0  0  0  0
    9.8197  -12.8843   17.0318 O   0  0  0  0  0  0  0  0  0  0  0  0
   10.2227  -13.3912   18.2673 C   0  0  0  0  0  0  0  0  0  0  0  0
    9.2950  -13.7734   19.2137 C   0  0  0  0  0  0  0  0  0  0  0  0
    9.6940  -14.2760   20.4385 C   0  0  0  0  0  0  0  0  0  0  0  0
   11.0281  -14.4201   20.7750 C   0  0  0  0  0  0  0  0  0  0  0  0
   11.4495  -14.9583   22.0932 C   0  0  0  0  0  0  0  0  0  0  0  0
   12.0706  -16.3250   22.0203 C   0  0  2  0  0  0  0  0  0  0  0  0
   11.0920  -17.1851   21.3537 N   0  0  0  0  0  0  0  0  0  0  0  0
   12.4868  -16.8782   23.3128 C   0  0  0  0  0  0  0  0  0  0  0  0
   11.8515  -17.9833   23.8254 O   0  0  0  0  0  0  0  0  0  0  0  0
   11.9521  -14.0358   19.8237 C   0  0  0  0  0  0  0  0  0  0  0  0
   11.5529  -13.5342   18.6013 C   0  0  0  0  0  0  0  0  0  0  0  0
   13.4164  -16.3483   23.9489 O   0  0  0  0  0  0  0  0  0  0  0  0
  1  2  1  0
  3  4  1  6
  3  2  1  0
  5  3  1  0
  5 10  1  0
  6  5  2  0
  8  7  1  0
  9 10  1  0
  9  8  1  1
 11  9  1  0
 12 11  2  0
 13 14  1  0
 14 15  2  0
 15 16  1  0
 17 16  2  0
 17 18  1  0
 19 18  1  1
 19 20  1  0
 20 11  1  0
 21 22  1  0
 21 19  1  0
 23 17  1  0
 24 14  1  0
 24 23  2  0
 25 21  2  0
M  END
$$$$
