SSY.pdb
     RDKit          3D

 25 25  0  0  1  0  0  0  0  0999 V2000
    6.0249  -18.5553   23.8618 O   0  0  0  0  0  0  0  0  0  0  0  0
    6.4214  -19.7311   23.2016 C   0  0  0  0  0  0  0  0  0  0  0  0
    6.6896  -19.3152   21.7563 C   0  0  2  0  0  0  0  0  0  0  0  0
    7.2057  -20.4927   21.0847 N   0  0  0  0  0  0  0  0  0  0  0  0
    7.7336  -18.2587   21.6913 C   0  0  0  0  0  0  0  0  0  0  0  0
    8.9548  -18.5093   21.8767 O   0  0  0  0  0  0  0  0  0  0  0  0
    6.7446  -14.2980   20.7932 O   0  0  0  0  0  0  0  0  0  0  0  0
    8.0789  -14.6722   20.6597 C   0  0  0  0  0  0  0  0  0  0  0  0
    8.3588  -15.8592   21.5560 C   0  0  2  0  0  0  0  0  0  0  0  0
    7.3973  -16.9050   21.4142 N   0  0  0  0  0  0  0  0  0  0  0  0
    8.5224  -15.4288   22.9796 C   0  0  0  0  0  0  0  0  0  0  0  0
    8.0694  -14.3142   23.3893 O   0  0  0  0  0  0  0  0  0  0  0  0
    6.4292  -10.4674   27.1173 O   0  0  0  0  0  0  0  0  0  0  0  0
    6.7630  -11.7791   26.7799 C   0  0  0  0  0  0  0  0  0  0  0  0
    8.0776  -12.1962   26.7703 C   0  0  0  0  0  0  0  0  0  0  0  0
    8.4090  -13.4962   26.4360 C   0  0  0  0  0  0  0  0  0  0  0  0
    7.4513  -14.4355   26.0977 C   0  0  0  0  0  0  0  0  0  0  0  0
    7.8145  -15.8294   25.7374 C   0  0  0  0  0  0  0  0  0  0  0  0
    9.2434  -15.9907   25.3001 C   0  0  2  0  0  0  0  0  0  0  0  0
    9.2021  -16.3030   23.8709 N   0  0  0  0  0  0  0  0  0  0  0  0
   10.0046  -16.9932   26.0520 C   0  0  0  0  0  0  0  0  0  0  0  0
   10.4693  -18.1212   25.4202 O   0  0  0  0  0  0  0  0  0  0  0  0
    6.1371  -14.0123   26.1091 C   0  0  0  0  0  0  0  0  0  0  0  0
    5.8073  -12.7142   26.4430 C   0  0  0  0  0  0  0  0  0  0  0  0
   10.2316  -16.8251   27.2644 O   0  0  0  0  0  0  0  0  0  0  0  0
  1  2  1  0
  3  4  1  6
  3  2  1  0
  5  3  1  0
  5 10  1  0
  6  5  2  0
  8  7  1  0
  9 10  1  0
  9  8  1  6
 11  9  1  0
 12 11  2  0
 13 14  1  0
 14 15  2  0
 15 16  1  0
 17 16  2  0
 17 18  1  0
 19 18  1  1
 19 20  1  0
 20 11  1  0
 21 22  1  0
 21 19  1  0
 23 17  1  0
 24 14  1  0
 24 23  2  0
 25 21  2  0
M  END
$$$$
