VMG.pdb
     RDKit          3D

 20 19  0  0  1  0  0  0  0  0999 V2000
   15.6790  -19.7384    0.4426 C   0  0  0  0  0  0  0  0  0  0  0  0
   15.8881  -20.4500    1.7451 C   0  0  1  0  0  0  0  0  0  0  0  0
   15.1675  -19.7137    2.8749 C   0  0  0  0  0  0  0  0  0  0  0  0
   15.3896  -21.8719    1.7624 C   0  0  2  0  0  0  0  0  0  0  0  0
   13.9174  -21.7564    1.6772 N   0  0  0  0  0  0  0  0  0  0  0  0
   15.6615  -22.5316    3.0685 C   0  0  0  0  0  0  0  0  0  0  0  0
   14.7245  -22.7685    3.9116 O   0  0  0  0  0  0  0  0  0  0  0  0
   21.3553  -25.9554    5.2702 C   0  0  0  0  0  0  0  0  0  0  0  0
   20.8941  -25.2102    3.6615 S   0  0  0  0  0  0  0  0  0  0  0  0
   19.5721  -24.0088    3.8875 C   0  0  0  0  0  0  0  0  0  0  0  0
   18.3419  -24.6123    4.4989 C   0  0  0  0  0  0  0  0  0  0  0  0
   17.2281  -23.6014    4.7230 C   0  0  2  0  0  0  0  0  0  0  0  0
   16.9659  -22.9287    3.4388 N   0  0  0  0  0  0  0  0  0  0  0  0
   17.6921  -22.5895    5.6894 C   0  0  0  0  0  0  0  0  0  0  0  0
   18.2070  -21.4927    5.3144 O   0  0  0  0  0  0  0  0  0  0  0  0
   17.6007  -22.7619    7.0990 N   0  0  0  0  0  0  0  0  0  0  0  0
   18.1602  -21.8006    8.0193 C   0  0  0  0  0  0  0  0  0  0  0  0
   17.2686  -20.6417    8.2276 C   0  0  0  0  0  0  0  0  0  0  0  0
   17.4634  -19.9044    9.2461 O   0  0  0  0  0  0  0  0  0  0  0  0
   16.2446  -20.3534    7.3469 O   0  0  0  0  0  0  0  0  0  0  0  0
  2  1  1  6
  3  2  1  0
  4  2  1  0
  4  5  1  1
  6  4  1  0
  7  6  2  0
  9  8  1  0
  9 10  1  0
 10 11  1  0
 12 11  1  6
 12 13  1  0
 13  6  1  0
 14 15  2  0
 14 12  1  0
 16 14  1  0
 17 16  1  0
 17 18  1  0
 18 20  1  0
 19 18  2  0
M  END
$$$$
