VMG.pdb
     RDKit          3D

 20 19  0  0  1  0  0  0  0  0999 V2000
   17.6554  -10.7446  -19.9375 C   0  0  0  0  0  0  0  0  0  0  0  0
   18.2380  -10.0710  -18.7318 C   0  0  1  0  0  0  0  0  0  0  0  0
   17.1523   -9.3076  -17.9728 C   0  0  0  0  0  0  0  0  0  0  0  0
   18.8815  -11.0115  -17.7460 C   0  0  2  0  0  0  0  0  0  0  0  0
   17.7698  -11.8460  -17.2401 N   0  0  0  0  0  0  0  0  0  0  0  0
   19.4052  -10.2845  -16.5576 C   0  0  0  0  0  0  0  0  0  0  0  0
   18.7688  -10.2665  -15.4443 O   0  0  0  0  0  0  0  0  0  0  0  0
   24.3322  -13.1301  -13.9366 C   0  0  0  0  0  0  0  0  0  0  0  0
   24.3361  -11.4091  -14.5641 S   0  0  0  0  0  0  0  0  0  0  0  0
   22.6584  -10.7565  -14.6036 C   0  0  0  0  0  0  0  0  0  0  0  0
   22.5883   -9.3796  -15.1959 C   0  0  0  0  0  0  0  0  0  0  0  0
   21.1637   -8.8939  -15.4130 C   0  0  2  0  0  0  0  0  0  0  0  0
   20.6300   -9.5815  -16.6016 N   0  0  0  0  0  0  0  0  0  0  0  0
   21.1922   -7.4461  -15.6895 C   0  0  0  0  0  0  0  0  0  0  0  0
   21.6576   -6.6141  -14.8529 O   0  0  0  0  0  0  0  0  0  0  0  0
   20.7058   -6.8766  -16.8996 N   0  0  0  0  0  0  0  0  0  0  0  0
   20.7631   -5.4554  -17.1465 C   0  0  0  0  0  0  0  0  0  0  0  0
   19.6018   -4.7421  -16.5774 C   0  0  0  0  0  0  0  0  0  0  0  0
   19.5202   -3.4843  -16.7514 O   0  0  0  0  0  0  0  0  0  0  0  0
   18.6211   -5.4107  -15.8713 O   0  0  0  0  0  0  0  0  0  0  0  0
  2  1  1  6
  3  2  1  0
  4  2  1  0
  4  5  1  1
  6  4  1  0
  7  6  2  0
  9  8  1  0
  9 10  1  0
 10 11  1  0
 12 11  1  6
 12 13  1  0
 13  6  1  0
 14 15  2  0
 14 12  1  0
 16 14  1  0
 17 16  1  0
 17 18  1  0
 18 20  1  0
 19 18  2  0
M  END
$$$$
