VMG.pdb
     RDKit          3D

 20 19  0  0  1  0  0  0  0  0999 V2000
   26.4469  -18.2214  -16.0525 C   0  0  0  0  0  0  0  0  0  0  0  0
   27.3923  -19.2564  -16.5830 C   0  0  1  0  0  0  0  0  0  0  0  0
   28.4665  -18.6003  -17.4510 C   0  0  0  0  0  0  0  0  0  0  0  0
   28.1114  -20.0439  -15.5184 C   0  0  2  0  0  0  0  0  0  0  0  0
   28.7529  -21.1615  -16.2446 N   0  0  0  0  0  0  0  0  0  0  0  0
   27.1572  -20.6816  -14.5707 C   0  0  0  0  0  0  0  0  0  0  0  0
   26.4934  -21.7321  -14.8878 O   0  0  0  0  0  0  0  0  0  0  0  0
   25.0604  -21.3026   -6.9285 C   0  0  0  0  0  0  0  0  0  0  0  0
   26.0346  -20.4113   -8.1983 S   0  0  0  0  0  0  0  0  0  0  0  0
   25.5772  -20.9771   -9.8454 C   0  0  0  0  0  0  0  0  0  0  0  0
   26.4117  -20.3504  -10.9235 C   0  0  0  0  0  0  0  0  0  0  0  0
   26.0405  -20.8260  -12.3194 C   0  0  2  0  0  0  0  0  0  0  0  0
   26.9402  -20.1585  -13.2762 N   0  0  0  0  0  0  0  0  0  0  0  0
   24.6584  -20.4052  -12.6128 C   0  0  0  0  0  0  0  0  0  0  0  0
   24.3443  -19.1833  -12.7425 O   0  0  0  0  0  0  0  0  0  0  0  0
   23.5834  -21.3243  -12.7706 N   0  0  0  0  0  0  0  0  0  0  0  0
   22.2616  -20.8880  -13.1535 C   0  0  0  0  0  0  0  0  0  0  0  0
   21.3386  -20.8250  -12.0023 C   0  0  0  0  0  0  0  0  0  0  0  0
   21.8031  -21.0604  -10.8414 O   0  0  0  0  0  0  0  0  0  0  0  0
   20.0018  -20.5194  -12.1668 O   0  0  0  0  0  0  0  0  0  0  0  0
  2  1  1  1
  3  2  1  0
  4  2  1  0
  4  5  1  6
  6  4  1  0
  7  6  2  0
  9  8  1  0
  9 10  1  0
 10 11  1  0
 12 11  1  1
 12 13  1  0
 13  6  1  0
 14 15  2  0
 14 12  1  0
 16 14  1  0
 17 16  1  0
 17 18  1  0
 18 20  1  0
 19 18  2  0
M  END
$$$$
