VMG.pdb
     RDKit          3D

 20 19  0  0  1  0  0  0  0  0999 V2000
   23.1421  -21.3513  -14.9921 C   0  0  0  0  0  0  0  0  0  0  0  0
   21.9529  -20.7850  -14.2766 C   0  0  1  0  0  0  0  0  0  0  0  0
   20.6597  -21.3507  -14.8642 C   0  0  0  0  0  0  0  0  0  0  0  0
   21.9236  -21.0727  -12.7978 C   0  0  2  0  0  0  0  0  0  0  0  0
   20.7370  -20.3460  -12.2958 N   0  0  0  0  0  0  0  0  0  0  0  0
   23.0877  -20.4638  -12.0984 C   0  0  0  0  0  0  0  0  0  0  0  0
   23.2748  -19.1952  -12.0805 O   0  0  0  0  0  0  0  0  0  0  0  0
   26.7057  -18.6460   -6.9190 C   0  0  0  0  0  0  0  0  0  0  0  0
   26.4718  -20.4518   -7.1196 S   0  0  0  0  0  0  0  0  0  0  0  0
   26.7739  -20.9332   -8.8282 C   0  0  0  0  0  0  0  0  0  0  0  0
   25.5317  -21.4100   -9.5218 C   0  0  0  0  0  0  0  0  0  0  0  0
   25.2433  -20.6611  -10.8135 C   0  0  2  0  0  0  0  0  0  0  0  0
   24.0402  -21.2570  -11.4201 N   0  0  0  0  0  0  0  0  0  0  0  0
   26.3738  -20.8571  -11.7391 C   0  0  0  0  0  0  0  0  0  0  0  0
   27.4957  -20.2954  -11.5534 O   0  0  0  0  0  0  0  0  0  0  0  0
   26.2958  -21.6800  -12.8976 N   0  0  0  0  0  0  0  0  0  0  0  0
   27.4502  -21.9368  -13.7255 C   0  0  0  0  0  0  0  0  0  0  0  0
   27.5058  -21.0426  -14.8997 C   0  0  0  0  0  0  0  0  0  0  0  0
   26.5949  -20.1646  -15.0347 O   0  0  0  0  0  0  0  0  0  0  0  0
   28.5157  -21.1456  -15.8362 O   0  0  0  0  0  0  0  0  0  0  0  0
  2  1  1  6
  3  2  1  0
  4  2  1  0
  4  5  1  1
  6  4  1  0
  7  6  2  0
  9  8  1  0
  9 10  1  0
 10 11  1  0
 12 11  1  1
 12 13  1  0
 13  6  1  0
 14 15  2  0
 14 12  1  0
 16 14  1  0
 17 16  1  0
 17 18  1  0
 18 20  1  0
 19 18  2  0
M  END
$$$$
