VMG.pdb
     RDKit          3D

 20 19  0  0  1  0  0  0  0  0999 V2000
   18.7657  -11.7624  -21.2399 C   0  0  0  0  0  0  0  0  0  0  0  0
   19.0246  -11.5103  -19.7851 C   0  0  1  0  0  0  0  0  0  0  0  0
   20.0996  -12.4641  -19.2633 C   0  0  0  0  0  0  0  0  0  0  0  0
   19.4907  -10.1123  -19.4711 C   0  0  2  0  0  0  0  0  0  0  0  0
   20.7188   -9.9345  -20.2762 N   0  0  0  0  0  0  0  0  0  0  0  0
   19.9237   -9.9852  -18.0528 C   0  0  0  0  0  0  0  0  0  0  0  0
   19.1035  -10.1491  -17.0806 O   0  0  0  0  0  0  0  0  0  0  0  0
   23.7052  -14.5823  -15.5099 C   0  0  0  0  0  0  0  0  0  0  0  0
   24.1346  -12.8130  -15.7126 S   0  0  0  0  0  0  0  0  0  0  0  0
   22.6409  -11.8288  -15.9181 C   0  0  0  0  0  0  0  0  0  0  0  0
   22.9327  -10.3691  -16.1065 C   0  0  0  0  0  0  0  0  0  0  0  0
   21.6805   -9.5302  -16.3083 C   0  0  2  0  0  0  0  0  0  0  0  0
   21.2605   -9.6793  -17.7126 N   0  0  0  0  0  0  0  0  0  0  0  0
   22.0144   -8.1138  -16.0729 C   0  0  0  0  0  0  0  0  0  0  0  0
   22.8872   -7.5080  -16.7656 O   0  0  0  0  0  0  0  0  0  0  0  0
   21.3926   -7.3264  -15.0636 N   0  0  0  0  0  0  0  0  0  0  0  0
   21.6890   -5.9223  -14.9059 C   0  0  0  0  0  0  0  0  0  0  0  0
   22.0326   -5.5768  -13.5117 C   0  0  0  0  0  0  0  0  0  0  0  0
   22.0228   -6.5029  -12.6393 O   0  0  0  0  0  0  0  0  0  0  0  0
   22.3586   -4.2845  -13.1493 O   0  0  0  0  0  0  0  0  0  0  0  0
  2  1  1  6
  3  2  1  0
  4  2  1  0
  4  5  1  6
  6  4  1  0
  7  6  2  0
  9  8  1  0
  9 10  1  0
 10 11  1  0
 12 11  1  6
 12 13  1  0
 13  6  1  0
 14 15  2  0
 14 12  1  0
 16 14  1  0
 17 16  1  0
 17 18  1  0
 18 20  1  0
 19 18  2  0
M  END
$$$$
