VMG.pdb
     RDKit          3D

 20 19  0  0  1  0  0  0  0  0999 V2000
   20.8492  -12.9868  -18.9758 C   0  0  0  0  0  0  0  0  0  0  0  0
   22.0170  -12.2555  -19.5658 C   0  0  1  0  0  0  0  0  0  0  0  0
   22.1625  -12.5951  -21.0495 C   0  0  0  0  0  0  0  0  0  0  0  0
   21.9230  -10.7548  -19.4680 C   0  0  2  0  0  0  0  0  0  0  0  0
   23.0612  -10.2528  -20.2684 N   0  0  0  0  0  0  0  0  0  0  0  0
   22.1734  -10.2799  -18.0799 C   0  0  0  0  0  0  0  0  0  0  0  0
   21.4326  -10.6453  -17.0989 O   0  0  0  0  0  0  0  0  0  0  0  0
   27.8106  -10.7910  -16.6914 C   0  0  0  0  0  0  0  0  0  0  0  0
   26.7594  -11.0315  -15.2105 S   0  0  0  0  0  0  0  0  0  0  0  0
   25.0455  -10.6321  -15.5914 C   0  0  0  0  0  0  0  0  0  0  0  0
   24.8631   -9.1989  -15.9965 C   0  0  0  0  0  0  0  0  0  0  0  0
   23.4390   -8.8737  -16.4194 C   0  0  2  0  0  0  0  0  0  0  0  0
   23.2411   -9.4047  -17.7793 N   0  0  0  0  0  0  0  0  0  0  0  0
   23.2800   -7.4089  -16.4667 C   0  0  0  0  0  0  0  0  0  0  0  0
   23.7810   -6.7113  -17.4001 O   0  0  0  0  0  0  0  0  0  0  0  0
   22.5628   -6.6731  -15.4822 N   0  0  0  0  0  0  0  0  0  0  0  0
   22.3756   -5.2455  -15.5882 C   0  0  0  0  0  0  0  0  0  0  0  0
   21.7044   -4.6802  -14.4003 C   0  0  0  0  0  0  0  0  0  0  0  0
   21.2615   -5.4820  -13.5173 O   0  0  0  0  0  0  0  0  0  0  0  0
   21.5539   -3.3168  -14.2387 O   0  0  0  0  0  0  0  0  0  0  0  0
  2  1  1  6
  3  2  1  0
  4  2  1  0
  4  5  1  6
  6  4  1  0
  7  6  2  0
  9  8  1  0
  9 10  1  0
 10 11  1  0
 12 11  1  6
 12 13  1  0
 13  6  1  0
 14 15  2  0
 14 12  1  0
 16 14  1  0
 17 16  1  0
 17 18  1  0
 18 20  1  0
 19 18  2  0
M  END
$$$$
