VMG.pdb
     RDKit          3D

 20 19  0  0  1  0  0  0  0  0999 V2000
   28.3835  -17.8514  -15.7896 C   0  0  0  0  0  0  0  0  0  0  0  0
   27.4420  -18.6458  -14.9356 C   0  0  1  0  0  0  0  0  0  0  0  0
   26.1859  -19.0112  -15.7270 C   0  0  0  0  0  0  0  0  0  0  0  0
   28.0184  -19.9352  -14.4106 C   0  0  2  0  0  0  0  0  0  0  0  0
   28.1358  -20.8074  -15.5995 N   0  0  0  0  0  0  0  0  0  0  0  0
   27.0672  -20.6297  -13.5007 C   0  0  0  0  0  0  0  0  0  0  0  0
   26.3325  -21.5993  -13.9067 O   0  0  0  0  0  0  0  0  0  0  0  0
   27.3999  -19.7679   -7.0983 C   0  0  0  0  0  0  0  0  0  0  0  0
   25.8241  -20.7016   -7.1234 S   0  0  0  0  0  0  0  0  0  0  0  0
   25.4008  -21.1646   -8.8112 C   0  0  0  0  0  0  0  0  0  0  0  0
   26.2752  -20.4947   -9.8301 C   0  0  0  0  0  0  0  0  0  0  0  0
   25.9636  -20.9188  -11.2568 C   0  0  2  0  0  0  0  0  0  0  0  0
   26.9314  -20.2528  -12.1457 N   0  0  0  0  0  0  0  0  0  0  0  0
   24.6118  -20.4474  -11.6082 C   0  0  0  0  0  0  0  0  0  0  0  0
   24.3481  -19.2145  -11.7466 O   0  0  0  0  0  0  0  0  0  0  0  0
   23.5120  -21.3263  -11.8161 N   0  0  0  0  0  0  0  0  0  0  0  0
   22.1811  -20.8295  -12.0729 C   0  0  0  0  0  0  0  0  0  0  0  0
   21.4143  -21.7214  -12.9661 C   0  0  0  0  0  0  0  0  0  0  0  0
   22.0411  -22.6355  -13.5911 O   0  0  0  0  0  0  0  0  0  0  0  0
   20.0503  -21.5784  -13.1289 O   0  0  0  0  0  0  0  0  0  0  0  0
  2  1  1  6
  3  2  1  0
  4  2  1  0
  4  5  1  6
  6  4  1  0
  7  6  2  0
  9  8  1  0
  9 10  1  0
 10 11  1  0
 12 11  1  1
 12 13  1  0
 13  6  1  0
 14 15  2  0
 14 12  1  0
 16 14  1  0
 17 16  1  0
 17 18  1  0
 18 20  1  0
 19 18  2  0
M  END
$$$$
