VMG.pdb
     RDKit          3D

 20 19  0  0  1  0  0  0  0  0999 V2000
   21.3308  -15.5326  -18.1798 C   0  0  0  0  0  0  0  0  0  0  0  0
   20.1099  -14.8492  -18.7174 C   0  0  1  0  0  0  0  0  0  0  0  0
   18.9506  -15.8400  -18.8267 C   0  0  0  0  0  0  0  0  0  0  0  0
   19.6227  -13.6974  -17.8768 C   0  0  2  0  0  0  0  0  0  0  0  0
   18.3625  -13.2672  -18.5209 N   0  0  0  0  0  0  0  0  0  0  0  0
   20.5365  -12.5264  -17.9703 C   0  0  0  0  0  0  0  0  0  0  0  0
   21.7324  -12.5664  -17.5088 O   0  0  0  0  0  0  0  0  0  0  0  0
   20.7164  -11.8062  -23.0147 C   0  0  0  0  0  0  0  0  0  0  0  0
   21.8924  -10.4646  -22.5988 S   0  0  0  0  0  0  0  0  0  0  0  0
   22.1990  -10.4325  -20.8248 C   0  0  0  0  0  0  0  0  0  0  0  0
   21.1311   -9.6992  -20.0676 C   0  0  0  0  0  0  0  0  0  0  0  0
   21.0159  -10.1414  -18.6171 C   0  0  2  0  0  0  0  0  0  0  0  0
   20.1278  -11.3161  -18.5740 N   0  0  0  0  0  0  0  0  0  0  0  0
   20.3887   -9.0581  -17.8385 C   0  0  0  0  0  0  0  0  0  0  0  0
   19.1517   -8.7947  -17.9346 O   0  0  0  0  0  0  0  0  0  0  0  0
   21.1120   -8.2341  -16.9313 N   0  0  0  0  0  0  0  0  0  0  0  0
   20.4737   -7.1618  -16.2054 C   0  0  0  0  0  0  0  0  0  0  0  0
   21.4513   -6.2848  -15.5297 C   0  0  0  0  0  0  0  0  0  0  0  0
   22.6722   -6.6426  -15.5103 O   0  0  0  0  0  0  0  0  0  0  0  0
   21.0642   -5.1028  -14.9294 O   0  0  0  0  0  0  0  0  0  0  0  0
  2  1  1  1
  3  2  1  0
  4  2  1  0
  4  5  1  6
  6  4  1  0
  7  6  2  0
  9  8  1  0
  9 10  1  0
 10 11  1  0
 12 11  1  6
 12 13  1  0
 13  6  1  0
 14 15  2  0
 14 12  1  0
 16 14  1  0
 17 16  1  0
 17 18  1  0
 18 20  1  0
 19 18  2  0
M  END
$$$$
