VMG.pdb
     RDKit          3D

 20 19  0  0  1  0  0  0  0  0999 V2000
   20.6981  -19.4676  -13.1791 C   0  0  0  0  0  0  0  0  0  0  0  0
   21.2767  -20.8388  -13.0002 C   0  0  1  0  0  0  0  0  0  0  0  0
   20.3210  -21.8956  -13.5546 C   0  0  0  0  0  0  0  0  0  0  0  0
   22.6029  -21.0467  -13.6846 C   0  0  2  0  0  0  0  0  0  0  0  0
   22.8760  -22.4938  -13.5457 N   0  0  0  0  0  0  0  0  0  0  0  0
   23.7071  -20.3625  -12.9581 C   0  0  0  0  0  0  0  0  0  0  0  0
   23.9131  -19.1023  -13.0777 O   0  0  0  0  0  0  0  0  0  0  0  0
   25.7895  -19.9650   -6.7816 C   0  0  0  0  0  0  0  0  0  0  0  0
   27.1509  -20.8447   -7.6351 S   0  0  0  0  0  0  0  0  0  0  0  0
   27.1424  -20.4510   -9.3921 C   0  0  0  0  0  0  0  0  0  0  0  0
   25.9334  -20.9899  -10.0986 C   0  0  0  0  0  0  0  0  0  0  0  0
   25.7575  -20.4240  -11.4991 C   0  0  2  0  0  0  0  0  0  0  0  0
   24.5788  -21.0711  -12.1011 N   0  0  0  0  0  0  0  0  0  0  0  0
   26.9406  -20.7748  -12.3055 C   0  0  0  0  0  0  0  0  0  0  0  0
   28.0978  -20.3417  -12.0193 O   0  0  0  0  0  0  0  0  0  0  0  0
   26.8777  -21.6147  -13.4526 N   0  0  0  0  0  0  0  0  0  0  0  0
   28.0655  -22.0018  -14.1761 C   0  0  0  0  0  0  0  0  0  0  0  0
   28.0980  -21.4368  -15.5403 C   0  0  0  0  0  0  0  0  0  0  0  0
   27.1493  -20.6686  -15.8992 O   0  0  0  0  0  0  0  0  0  0  0  0
   29.1263  -21.7264  -16.4156 O   0  0  0  0  0  0  0  0  0  0  0  0
  2  1  1  6
  3  2  1  0
  4  2  1  0
  4  5  1  1
  6  4  1  0
  7  6  2  0
  9  8  1  0
  9 10  1  0
 10 11  1  0
 12 11  1  1
 12 13  1  0
 13  6  1  0
 14 15  2  0
 14 12  1  0
 16 14  1  0
 17 16  1  0
 17 18  1  0
 18 20  1  0
 19 18  2  0
M  END
$$$$
