VMG.pdb
     RDKit          3D

 20 19  0  0  1  0  0  0  0  0999 V2000
   17.7076  -11.7380  -15.2671 C   0  0  0  0  0  0  0  0  0  0  0  0
   16.7788  -12.8564  -14.9019 C   0  0  1  0  0  0  0  0  0  0  0  0
   17.3462  -14.1948  -15.3755 C   0  0  0  0  0  0  0  0  0  0  0  0
   16.5197  -12.9899  -13.4236 C   0  0  2  0  0  0  0  0  0  0  0  0
   15.6326  -14.1672  -13.3012 N   0  0  0  0  0  0  0  0  0  0  0  0
   15.7306  -11.8417  -12.9001 C   0  0  0  0  0  0  0  0  0  0  0  0
   14.5003  -11.6690  -13.2181 O   0  0  0  0  0  0  0  0  0  0  0  0
   11.6290   -8.1897   -8.4700 C   0  0  0  0  0  0  0  0  0  0  0  0
   12.6697   -9.5455   -9.1294 S   0  0  0  0  0  0  0  0  0  0  0  0
   14.3421   -8.9537   -9.4376 C   0  0  0  0  0  0  0  0  0  0  0  0
   15.2216  -10.0028  -10.0519 C   0  0  0  0  0  0  0  0  0  0  0  0
   15.5216   -9.7466  -11.5205 C   0  0  2  0  0  0  0  0  0  0  0  0
   16.3017  -10.8893  -12.0265 N   0  0  0  0  0  0  0  0  0  0  0  0
   16.3521   -8.5337  -11.6314 C   0  0  0  0  0  0  0  0  0  0  0  0
   17.4718   -8.4335  -11.0440 O   0  0  0  0  0  0  0  0  0  0  0  0
   15.9677   -7.3959  -12.3948 N   0  0  0  0  0  0  0  0  0  0  0  0
   16.8087   -6.2264  -12.4905 C   0  0  0  0  0  0  0  0  0  0  0  0
   16.1938   -5.1614  -13.3084 C   0  0  0  0  0  0  0  0  0  0  0  0
   15.1303   -5.4315  -13.9525 O   0  0  0  0  0  0  0  0  0  0  0  0
   16.7486   -3.8987  -13.3817 O   0  0  0  0  0  0  0  0  0  0  0  0
  2  1  1  1
  3  2  1  0
  4  2  1  0
  4  5  1  6
  6  4  1  0
  7  6  2  0
  9  8  1  0
  9 10  1  0
 10 11  1  0
 12 11  1  1
 12 13  1  0
 13  6  1  0
 14 15  2  0
 14 12  1  0
 16 14  1  0
 17 16  1  0
 17 18  1  0
 18 20  1  0
 19 18  2  0
M  END
$$$$
