VMG.pdb
     RDKit          3D

 20 19  0  0  1  0  0  0  0  0999 V2000
   28.7203  -19.7220  -15.4564 C   0  0  0  0  0  0  0  0  0  0  0  0
   28.3702  -20.4629  -14.2013 C   0  0  1  0  0  0  0  0  0  0  0  0
   29.2747  -20.0183  -13.0515 C   0  0  0  0  0  0  0  0  0  0  0  0
   26.9491  -20.2664  -13.7407 C   0  0  2  0  0  0  0  0  0  0  0  0
   26.7921  -18.8008  -13.6169 N   0  0  0  0  0  0  0  0  0  0  0  0
   26.7384  -20.8057  -12.3695 C   0  0  0  0  0  0  0  0  0  0  0  0
   26.6996  -22.0668  -12.1401 O   0  0  0  0  0  0  0  0  0  0  0  0
   27.2825  -20.2236   -4.5849 C   0  0  0  0  0  0  0  0  0  0  0  0
   27.6314  -19.4843   -6.2242 S   0  0  0  0  0  0  0  0  0  0  0  0
   26.6127  -20.2630   -7.4885 C   0  0  0  0  0  0  0  0  0  0  0  0
   26.9453  -19.7868   -8.8720 C   0  0  0  0  0  0  0  0  0  0  0  0
   26.1201  -20.4673   -9.9530 C   0  0  2  0  0  0  0  0  0  0  0  0
   26.5730  -19.9512  -11.2565 N   0  0  0  0  0  0  0  0  0  0  0  0
   24.7046  -20.0962   -9.7746 C   0  0  0  0  0  0  0  0  0  0  0  0
   24.2730  -18.9414  -10.0726 O   0  0  0  0  0  0  0  0  0  0  0  0
   23.7255  -20.9919   -9.2606 N   0  0  0  0  0  0  0  0  0  0  0  0
   22.3399  -20.6083   -9.1299 C   0  0  0  0  0  0  0  0  0  0  0  0
   21.5535  -20.9339  -10.3369 C   0  0  0  0  0  0  0  0  0  0  0  0
   21.9628  -20.4995  -11.4605 O   0  0  0  0  0  0  0  0  0  0  0  0
   20.4003  -21.6903  -10.2628 O   0  0  0  0  0  0  0  0  0  0  0  0
  2  1  1  6
  3  2  1  0
  4  2  1  0
  4  5  1  1
  6  4  1  0
  7  6  2  0
  9  8  1  0
  9 10  1  0
 10 11  1  0
 12 11  1  1
 12 13  1  0
 13  6  1  0
 14 15  2  0
 14 12  1  0
 16 14  1  0
 17 16  1  0
 17 18  1  0
 18 20  1  0
 19 18  2  0
M  END
$$$$
