VMG.pdb
     RDKit          3D

 20 19  0  0  1  0  0  0  0  0999 V2000
   29.5390  -19.2606  -15.4000 C   0  0  0  0  0  0  0  0  0  0  0  0
   28.7201  -20.2288  -14.6010 C   0  0  1  0  0  0  0  0  0  0  0  0
   29.0803  -20.1329  -13.1181 C   0  0  0  0  0  0  0  0  0  0  0  0
   27.2320  -20.0156  -14.7039 C   0  0  2  0  0  0  0  0  0  0  0  0
   27.0180  -18.6246  -14.2485 N   0  0  0  0  0  0  0  0  0  0  0  0
   26.4884  -20.8689  -13.7374 C   0  0  0  0  0  0  0  0  0  0  0  0
   26.3374  -22.1281  -13.9278 O   0  0  0  0  0  0  0  0  0  0  0  0
   26.7798  -19.0339   -7.7128 C   0  0  0  0  0  0  0  0  0  0  0  0
   26.0744  -20.7162   -7.8804 S   0  0  0  0  0  0  0  0  0  0  0  0
   26.0525  -21.2132   -9.6109 C   0  0  0  0  0  0  0  0  0  0  0  0
   24.9196  -20.5937  -10.3752 C   0  0  0  0  0  0  0  0  0  0  0  0
   24.8598  -21.0450  -11.8261 C   0  0  2  0  0  0  0  0  0  0  0  0
   25.9157  -20.3297  -12.5637 N   0  0  0  0  0  0  0  0  0  0  0  0
   23.5553  -20.6556  -12.3916 C   0  0  0  0  0  0  0  0  0  0  0  0
   23.2303  -19.4397  -12.5489 O   0  0  0  0  0  0  0  0  0  0  0  0
   22.5718  -21.6001  -12.7988 N   0  0  0  0  0  0  0  0  0  0  0  0
   21.3371  -21.1890  -13.4238 C   0  0  0  0  0  0  0  0  0  0  0  0
   20.2043  -21.1879  -12.4762 C   0  0  0  0  0  0  0  0  0  0  0  0
   20.4307  -21.4975  -11.2630 O   0  0  0  0  0  0  0  0  0  0  0  0
   18.9255  -20.8610  -12.8827 O   0  0  0  0  0  0  0  0  0  0  0  0
  2  1  1  6
  3  2  1  0
  4  2  1  0
  4  5  1  1
  6  4  1  0
  7  6  2  0
  9  8  1  0
  9 10  1  0
 10 11  1  0
 12 11  1  1
 12 13  1  0
 13  6  1  0
 14 15  2  0
 14 12  1  0
 16 14  1  0
 17 16  1  0
 17 18  1  0
 18 20  1  0
 19 18  2  0
M  END
$$$$
