VMG.pdb
     RDKit          3D

 20 19  0  0  1  0  0  0  0  0999 V2000
   26.3029  -18.7220  -15.8807 C   0  0  0  0  0  0  0  0  0  0  0  0
   27.1600  -19.8761  -16.3055 C   0  0  1  0  0  0  0  0  0  0  0  0
   28.3275  -19.3845  -17.1616 C   0  0  0  0  0  0  0  0  0  0  0  0
   27.7544  -20.6604  -15.1645 C   0  0  2  0  0  0  0  0  0  0  0  0
   28.3404  -21.8619  -15.7978 N   0  0  0  0  0  0  0  0  0  0  0  0
   26.7022  -21.1699  -14.2434 C   0  0  0  0  0  0  0  0  0  0  0  0
   25.9210  -22.1302  -14.5784 O   0  0  0  0  0  0  0  0  0  0  0  0
   26.9740  -19.9343   -7.9333 C   0  0  0  0  0  0  0  0  0  0  0  0
   25.3096  -20.6994   -7.9354 S   0  0  0  0  0  0  0  0  0  0  0  0
   24.8361  -21.1568   -9.6114 C   0  0  0  0  0  0  0  0  0  0  0  0
   25.8304  -20.6986  -10.6375 C   0  0  0  0  0  0  0  0  0  0  0  0
   25.4621  -21.1129  -12.0536 C   0  0  2  0  0  0  0  0  0  0  0  0
   26.5169  -20.6188  -12.9557 N   0  0  0  0  0  0  0  0  0  0  0  0
   24.1930  -20.4610  -12.4246 C   0  0  0  0  0  0  0  0  0  0  0  0
   24.0882  -19.1998  -12.5087 O   0  0  0  0  0  0  0  0  0  0  0  0
   23.0026  -21.1856  -12.7127 N   0  0  0  0  0  0  0  0  0  0  0  0
   21.7728  -20.5163  -13.0647 C   0  0  0  0  0  0  0  0  0  0  0  0
   20.7275  -20.6903  -12.0359 C   0  0  0  0  0  0  0  0  0  0  0  0
   20.9975  -21.3975  -11.0133 O   0  0  0  0  0  0  0  0  0  0  0  0
   19.4831  -20.1059  -12.1675 O   0  0  0  0  0  0  0  0  0  0  0  0
  2  1  1  1
  3  2  1  0
  4  2  1  0
  4  5  1  6
  6  4  1  0
  7  6  2  0
  9  8  1  0
  9 10  1  0
 10 11  1  0
 12 11  1  1
 12 13  1  0
 13  6  1  0
 14 15  2  0
 14 12  1  0
 16 14  1  0
 17 16  1  0
 17 18  1  0
 18 20  1  0
 19 18  2  0
M  END
$$$$
