VMG.pdb
     RDKit          3D

 20 19  0  0  1  0  0  0  0  0999 V2000
   28.0498  -19.0765  -15.3477 C   0  0  0  0  0  0  0  0  0  0  0  0
   28.0263  -19.7619  -14.0149 C   0  0  1  0  0  0  0  0  0  0  0  0
   28.4573  -18.7948  -12.9119 C   0  0  0  0  0  0  0  0  0  0  0  0
   26.6769  -20.3030  -13.6192 C   0  0  2  0  0  0  0  0  0  0  0  0
   25.7917  -19.1185  -13.5826 N   0  0  0  0  0  0  0  0  0  0  0  0
   26.6865  -20.8349  -12.2291 C   0  0  0  0  0  0  0  0  0  0  0  0
   27.1971  -21.9773  -11.9483 O   0  0  0  0  0  0  0  0  0  0  0  0
   27.4936  -19.8924   -4.5844 C   0  0  0  0  0  0  0  0  0  0  0  0
   27.3869  -19.1210   -6.2425 S   0  0  0  0  0  0  0  0  0  0  0  0
   26.5972  -20.2475   -7.4043 C   0  0  0  0  0  0  0  0  0  0  0  0
   26.6176  -19.7316   -8.8131 C   0  0  0  0  0  0  0  0  0  0  0  0
   25.9973  -20.6960   -9.8120 C   0  0  2  0  0  0  0  0  0  0  0  0
   26.1339  -20.1034  -11.1539 N   0  0  0  0  0  0  0  0  0  0  0  0
   24.5608  -20.8335   -9.5108 C   0  0  0  0  0  0  0  0  0  0  0  0
   23.7293  -19.9151   -9.7824 O   0  0  0  0  0  0  0  0  0  0  0  0
   24.0026  -21.9910   -8.8994 N   0  0  0  0  0  0  0  0  0  0  0  0
   22.5756  -22.1691   -8.7724 C   0  0  0  0  0  0  0  0  0  0  0  0
   22.0498  -21.5916   -7.5189 C   0  0  0  0  0  0  0  0  0  0  0  0
   22.8597  -20.9893   -6.7443 O   0  0  0  0  0  0  0  0  0  0  0  0
   20.7142  -21.6953   -7.1828 O   0  0  0  0  0  0  0  0  0  0  0  0
  2  1  1  6
  3  2  1  0
  4  2  1  0
  4  5  1  1
  6  4  1  0
  7  6  2  0
  9  8  1  0
  9 10  1  0
 10 11  1  0
 12 11  1  1
 12 13  1  0
 13  6  1  0
 14 15  2  0
 14 12  1  0
 16 14  1  0
 17 16  1  0
 17 18  1  0
 18 20  1  0
 19 18  2  0
M  END
$$$$
