VMG.pdb
     RDKit          3D

 20 19  0  0  1  0  0  0  0  0999 V2000
   28.8321  -20.5661  -17.4938 C   0  0  0  0  0  0  0  0  0  0  0  0
   27.8951  -21.2141  -16.5196 C   0  0  1  0  0  0  0  0  0  0  0  0
   28.5025  -21.2130  -15.1165 C   0  0  0  0  0  0  0  0  0  0  0  0
   26.5494  -20.5444  -16.4139 C   0  0  2  0  0  0  0  0  0  0  0  0
   26.8545  -19.1352  -16.0837 N   0  0  0  0  0  0  0  0  0  0  0  0
   25.7690  -21.0634  -15.2577 C   0  0  0  0  0  0  0  0  0  0  0  0
   25.0676  -22.1336  -15.3442 O   0  0  0  0  0  0  0  0  0  0  0  0
   24.8885  -20.9705   -7.3723 C   0  0  0  0  0  0  0  0  0  0  0  0
   25.7168  -20.2682   -8.8476 S   0  0  0  0  0  0  0  0  0  0  0  0
   24.9614  -20.9097  -10.3509 C   0  0  0  0  0  0  0  0  0  0  0  0
   25.6458  -20.4226  -11.5942 C   0  0  0  0  0  0  0  0  0  0  0  0
   24.9800  -20.9078  -12.8724 C   0  0  2  0  0  0  0  0  0  0  0  0
   25.7667  -20.4003  -14.0100 N   0  0  0  0  0  0  0  0  0  0  0  0
   23.6259  -20.3305  -12.9517 C   0  0  0  0  0  0  0  0  0  0  0  0
   23.4347  -19.0777  -13.0044 O   0  0  0  0  0  0  0  0  0  0  0  0
   22.4438  -21.1225  -12.9743 N   0  0  0  0  0  0  0  0  0  0  0  0
   21.1392  -20.5339  -13.1633 C   0  0  0  0  0  0  0  0  0  0  0  0
   20.3828  -20.4336  -11.8987 C   0  0  0  0  0  0  0  0  0  0  0  0
   20.9265  -20.8667  -10.8330 O   0  0  0  0  0  0  0  0  0  0  0  0
   19.1156  -19.8857  -11.8589 O   0  0  0  0  0  0  0  0  0  0  0  0
  2  1  1  6
  3  2  1  0
  4  2  1  0
  4  5  1  1
  6  4  1  0
  7  6  2  0
  9  8  1  0
  9 10  1  0
 10 11  1  0
 12 11  1  1
 12 13  1  0
 13  6  1  0
 14 15  2  0
 14 12  1  0
 16 14  1  0
 17 16  1  0
 17 18  1  0
 18 20  1  0
 19 18  2  0
M  END
$$$$
