FIA.pdb
     RDKit          3D

 25 25  0  0  1  0  0  0  0  0999 V2000
    6.3848  -17.0076   25.7727 N   0  0  0  0  0  0  0  0  0  0  0  0
    6.7980  -15.8279   25.0161 C   0  0  1  0  0  0  0  0  0  0  0  0
    7.9220  -15.1176   25.7703 C   0  0  0  0  0  0  0  0  0  0  0  0
    7.3986  -13.8665   26.3642 C   0  0  0  0  0  0  0  0  0  0  0  0
    7.8978  -13.3841   27.5553 C   0  0  0  0  0  0  0  0  0  0  0  0
    7.4143  -12.2108   28.1226 C   0  0  0  0  0  0  0  0  0  0  0  0
    6.4103  -11.5392   27.4493 C   0  0  0  0  0  0  0  0  0  0  0  0
    5.8940  -11.9953   26.2624 C   0  0  0  0  0  0  0  0  0  0  0  0
    6.4020  -13.1641   25.7334 C   0  0  0  0  0  0  0  0  0  0  0  0
    7.3012  -16.2990   23.7008 C   0  0  0  0  0  0  0  0  0  0  0  0
    7.1634  -17.5007   23.3146 O   0  0  0  0  0  0  0  0  0  0  0  0
    7.1710  -12.3919   20.0955 C   0  0  0  0  0  0  0  0  0  0  0  0
    6.9985  -13.8042   20.6604 C   0  0  0  0  0  0  0  0  0  0  0  0
    8.3405  -14.4750   20.7206 C   0  0  2  0  0  0  0  0  0  0  0  0
    8.9521  -14.6157   19.3269 C   0  0  0  0  0  0  0  0  0  0  0  0
    8.4121  -15.7521   21.4831 C   0  0  2  0  0  0  0  0  0  0  0  0
    7.9488  -15.4029   22.8508 N   0  0  0  0  0  0  0  0  0  0  0  0
    9.7286  -16.3547   21.6453 C   0  0  0  0  0  0  0  0  0  0  0  0
   10.2338  -17.1197   20.7515 O   0  0  0  0  0  0  0  0  0  0  0  0
   12.8206  -15.7428   23.5341 C   0  0  0  0  0  0  0  0  0  0  0  0
   11.8883  -16.7520   22.8646 C   0  0  2  0  0  0  0  0  0  0  0  0
   10.5564  -16.1550   22.7749 N   0  0  0  0  0  0  0  0  0  0  0  0
   11.8382  -17.9328   23.7569 C   0  0  0  0  0  0  0  0  0  0  0  0
   10.7456  -18.2302   24.2958 O   0  0  0  0  0  0  0  0  0  0  0  0
   12.9466  -18.7224   24.0215 O   0  0  0  0  0  0  0  0  0  0  0  0
  2  1  1  1
  2  3  1  0
  4  3  1  0
  5  4  2  0
  6  5  1  0
  7  6  2  0
  7  8  1  0
  8  9  2  0
  9  4  1  0
 10  2  1  0
 10 17  1  0
 11 10  2  0
 13 12  1  0
 14 16  1  0
 14 13  1  0
 14 15  1  6
 16 17  1  1
 18 16  1  0
 19 18  2  0
 21 20  1  1
 21 23  1  0
 21 22  1  0
 22 18  1  0
 23 25  1  0
 24 23  2  0
M  END
$$$$
