FIA.pdb
     RDKit          3D

 25 25  0  0  1  0  0  0  0  0999 V2000
    6.2190  -17.3042   25.7723 N   0  0  0  0  0  0  0  0  0  0  0  0
    6.7353  -16.1050   25.1166 C   0  0  1  0  0  0  0  0  0  0  0  0
    7.8202  -15.4817   25.9948 C   0  0  0  0  0  0  0  0  0  0  0  0
    7.4186  -14.1063   26.3670 C   0  0  0  0  0  0  0  0  0  0  0  0
    6.3267  -13.5032   25.7801 C   0  0  0  0  0  0  0  0  0  0  0  0
    5.9401  -12.2122   26.1214 C   0  0  0  0  0  0  0  0  0  0  0  0
    6.6910  -11.5489   27.0745 C   0  0  0  0  0  0  0  0  0  0  0  0
    7.7825  -12.1237   27.6756 C   0  0  0  0  0  0  0  0  0  0  0  0
    8.1324  -13.4068   27.3082 C   0  0  0  0  0  0  0  0  0  0  0  0
    7.3254  -16.5277   23.8211 C   0  0  0  0  0  0  0  0  0  0  0  0
    7.3034  -17.7353   23.4295 O   0  0  0  0  0  0  0  0  0  0  0  0
    6.9721  -12.6511   20.1783 C   0  0  0  0  0  0  0  0  0  0  0  0
    6.9098  -14.0847   20.7116 C   0  0  0  0  0  0  0  0  0  0  0  0
    8.3079  -14.6041   20.8847 C   0  0  2  0  0  0  0  0  0  0  0  0
    9.0501  -14.6520   19.5494 C   0  0  0  0  0  0  0  0  0  0  0  0
    8.4550  -15.8785   21.6408 C   0  0  2  0  0  0  0  0  0  0  0  0
    7.9272  -15.5776   22.9965 N   0  0  0  0  0  0  0  0  0  0  0  0
    9.8086  -16.3803   21.8377 C   0  0  0  0  0  0  0  0  0  0  0  0
   10.4735  -16.9166   20.8839 O   0  0  0  0  0  0  0  0  0  0  0  0
   12.8041  -15.5767   23.2201 C   0  0  0  0  0  0  0  0  0  0  0  0
   11.8808  -16.7945   23.1953 C   0  0  2  0  0  0  0  0  0  0  0  0
   10.5029  -16.3215   23.0688 N   0  0  0  0  0  0  0  0  0  0  0  0
   12.0488  -17.4746   24.5000 C   0  0  0  0  0  0  0  0  0  0  0  0
   11.0716  -17.5138   25.2851 O   0  0  0  0  0  0  0  0  0  0  0  0
   13.2389  -18.0692   24.8900 O   0  0  0  0  0  0  0  0  0  0  0  0
  2  1  1  1
  2  3  1  0
  4  3  1  0
  5  4  2  0
  6  5  1  0
  7  6  2  0
  7  8  1  0
  8  9  2  0
  9  4  1  0
 10  2  1  0
 10 17  1  0
 11 10  2  0
 13 12  1  0
 14 16  1  0
 14 13  1  0
 14 15  1  6
 16 17  1  1
 18 16  1  0
 19 18  2  0
 21 20  1  1
 21 23  1  0
 21 22  1  0
 22 18  1  0
 23 25  1  0
 24 23  2  0
M  END
$$$$
