FIA.pdb
     RDKit          3D

 25 25  0  0  1  0  0  0  0  0999 V2000
   11.1381  -16.3550   21.9762 N   0  0  0  0  0  0  0  0  0  0  0  0
    9.9985  -15.4858   22.2598 C   0  0  1  0  0  0  0  0  0  0  0  0
    8.7784  -15.9927   21.4910 C   0  0  0  0  0  0  0  0  0  0  0  0
    8.1039  -14.8500   20.8345 C   0  0  0  0  0  0  0  0  0  0  0  0
    6.7718  -14.5832   21.0686 C   0  0  0  0  0  0  0  0  0  0  0  0
    6.1277  -13.5133   20.4580 C   0  0  0  0  0  0  0  0  0  0  0  0
    6.8713  -12.7206   19.6030 C   0  0  0  0  0  0  0  0  0  0  0  0
    8.1984  -12.9617   19.3508 C   0  0  0  0  0  0  0  0  0  0  0  0
    8.7997  -14.0340   19.9774 C   0  0  0  0  0  0  0  0  0  0  0  0
    9.7347  -15.5630   23.7191 C   0  0  0  0  0  0  0  0  0  0  0  0
   10.5105  -16.1764   24.5154 O   0  0  0  0  0  0  0  0  0  0  0  0
    6.5402  -11.3146   25.2269 C   0  0  0  0  0  0  0  0  0  0  0  0
    7.7646  -12.2331   25.1980 C   0  0  0  0  0  0  0  0  0  0  0  0
    7.3768  -13.5830   25.7289 C   0  0  2  0  0  0  0  0  0  0  0  0
    6.7405  -13.4713   27.1141 C   0  0  0  0  0  0  0  0  0  0  0  0
    8.4257  -14.6393   25.6901 C   0  0  2  0  0  0  0  0  0  0  0  0
    8.6010  -14.9459   24.2470 N   0  0  0  0  0  0  0  0  0  0  0  0
    8.1141  -15.9073   26.3363 C   0  0  0  0  0  0  0  0  0  0  0  0
    8.1077  -16.0300   27.6108 O   0  0  0  0  0  0  0  0  0  0  0  0
    6.8837  -19.3148   25.2978 C   0  0  0  0  0  0  0  0  0  0  0  0
    7.3761  -18.3082   26.3371 C   0  0  2  0  0  0  0  0  0  0  0  0
    7.7930  -17.0941   25.6367 N   0  0  0  0  0  0  0  0  0  0  0  0
    8.5518  -18.9245   26.9937 C   0  0  0  0  0  0  0  0  0  0  0  0
    9.6814  -18.4155   26.7996 O   0  0  0  0  0  0  0  0  0  0  0  0
    8.4568  -20.0390   27.8128 O   0  0  0  0  0  0  0  0  0  0  0  0
  2  1  1  1
  2  3  1  0
  4  3  1  0
  5  4  2  0
  6  5  1  0
  7  6  2  0
  7  8  1  0
  8  9  2  0
  9  4  1  0
 10  2  1  0
 10 17  1  0
 11 10  2  0
 13 12  1  0
 14 16  1  0
 14 13  1  0
 14 15  1  1
 16 17  1  6
 18 16  1  0
 19 18  2  0
 21 20  1  6
 21 23  1  0
 21 22  1  0
 22 18  1  0
 23 25  1  0
 24 23  2  0
M  END
$$$$
