FIA.pdb
     RDKit          3D

 25 25  0  0  1  0  0  0  0  0999 V2000
    5.2577  -17.7082   24.9168 N   0  0  0  0  0  0  0  0  0  0  0  0
    5.9694  -16.4323   24.9399 C   0  0  1  0  0  0  0  0  0  0  0  0
    6.4881  -16.1737   26.3544 C   0  0  0  0  0  0  0  0  0  0  0  0
    6.7456  -14.7257   26.5243 C   0  0  0  0  0  0  0  0  0  0  0  0
    5.7102  -13.8156   26.5157 C   0  0  0  0  0  0  0  0  0  0  0  0
    5.9397  -12.4538   26.6742 C   0  0  0  0  0  0  0  0  0  0  0  0
    7.2483  -12.0393   26.8417 C   0  0  0  0  0  0  0  0  0  0  0  0
    8.2990  -12.9220   26.8545 C   0  0  0  0  0  0  0  0  0  0  0  0
    8.0277  -14.2653   26.6939 C   0  0  0  0  0  0  0  0  0  0  0  0
    7.1154  -16.5473   24.0026 C   0  0  0  0  0  0  0  0  0  0  0  0
    7.7845  -17.6194   23.8802 O   0  0  0  0  0  0  0  0  0  0  0  0
    7.1215  -12.5485   20.1780 C   0  0  0  0  0  0  0  0  0  0  0  0
    7.1347  -13.9702   20.7456 C   0  0  0  0  0  0  0  0  0  0  0  0
    8.4307  -14.1968   21.4691 C   0  0  2  0  0  0  0  0  0  0  0  0
    9.6277  -13.9473   20.5520 C   0  0  0  0  0  0  0  0  0  0  0  0
    8.5638  -15.4827   22.2081 C   0  0  2  0  0  0  0  0  0  0  0  0
    7.4806  -15.4492   23.2244 N   0  0  0  0  0  0  0  0  0  0  0  0
    9.8016  -15.6987   22.9456 C   0  0  0  0  0  0  0  0  0  0  0  0
   10.2103  -14.8705   23.8325 O   0  0  0  0  0  0  0  0  0  0  0  0
   12.3105  -18.3960   23.5453 C   0  0  0  0  0  0  0  0  0  0  0  0
   11.9440  -16.9167   23.4305 C   0  0  2  0  0  0  0  0  0  0  0  0
   10.6478  -16.8171   22.7609 N   0  0  0  0  0  0  0  0  0  0  0  0
   12.9844  -16.2916   22.5820 C   0  0  0  0  0  0  0  0  0  0  0  0
   14.1440  -16.1746   23.0450 O   0  0  0  0  0  0  0  0  0  0  0  0
   12.7312  -15.8307   21.2993 O   0  0  0  0  0  0  0  0  0  0  0  0
  2  1  1  1
  2  3  1  0
  4  3  1  0
  5  4  2  0
  6  5  1  0
  7  6  2  0
  7  8  1  0
  8  9  2  0
  9  4  1  0
 10  2  1  0
 10 17  1  0
 11 10  2  0
 13 12  1  0
 14 16  1  0
 14 13  1  0
 14 15  1  6
 16 17  1  1
 18 16  1  0
 19 18  2  0
 21 20  1  6
 21 23  1  0
 21 22  1  0
 22 18  1  0
 23 25  1  0
 24 23  2  0
M  END
$$$$
