FIA.pdb
     RDKit          3D

 25 25  0  0  1  0  0  0  0  0999 V2000
    5.4681  -17.9469   24.9038 N   0  0  0  0  0  0  0  0  0  0  0  0
    6.1115  -16.6353   24.8775 C   0  0  1  0  0  0  0  0  0  0  0  0
    6.7242  -16.3504   26.2487 C   0  0  0  0  0  0  0  0  0  0  0  0
    6.9831  -14.8985   26.3771 C   0  0  0  0  0  0  0  0  0  0  0  0
    8.2582  -14.4223   26.5960 C   0  0  0  0  0  0  0  0  0  0  0  0
    8.5135  -13.0613   26.7184 C   0  0  0  0  0  0  0  0  0  0  0  0
    7.4404  -12.1956   26.6128 C   0  0  0  0  0  0  0  0  0  0  0  0
    6.1606  -12.6404   26.3952 C   0  0  0  0  0  0  0  0  0  0  0  0
    5.9504  -13.9993   26.2796 C   0  0  0  0  0  0  0  0  0  0  0  0
    7.1856  -16.6892   23.8537 C   0  0  0  0  0  0  0  0  0  0  0  0
    7.7480  -17.7775   23.5196 O   0  0  0  0  0  0  0  0  0  0  0  0
    6.6726  -12.6869   20.1733 C   0  0  0  0  0  0  0  0  0  0  0  0
    6.8519  -14.0960   20.7440 C   0  0  0  0  0  0  0  0  0  0  0  0
    8.2125  -14.2014   21.3703 C   0  0  2  0  0  0  0  0  0  0  0  0
    9.3098  -13.8163   20.3785 C   0  0  0  0  0  0  0  0  0  0  0  0
    8.5264  -15.4789   22.0679 C   0  0  2  0  0  0  0  0  0  0  0  0
    7.6012  -15.5133   23.2298 N   0  0  0  0  0  0  0  0  0  0  0  0
    9.8682  -15.6223   22.6171 C   0  0  0  0  0  0  0  0  0  0  0  0
   10.8996  -15.7034   21.8627 O   0  0  0  0  0  0  0  0  0  0  0  0
   11.5134  -15.4634   25.9961 C   0  0  0  0  0  0  0  0  0  0  0  0
   11.5277  -15.7624   24.4974 C   0  0  2  0  0  0  0  0  0  0  0  0
   10.1545  -15.6803   24.0012 N   0  0  0  0  0  0  0  0  0  0  0  0
   12.0203  -17.1513   24.3516 C   0  0  0  0  0  0  0  0  0  0  0  0
   13.2044  -17.4042   24.6785 O   0  0  0  0  0  0  0  0  0  0  0  0
   11.2291  -18.1827   23.8696 O   0  0  0  0  0  0  0  0  0  0  0  0
  2  1  1  1
  2  3  1  0
  4  3  1  0
  5  4  2  0
  6  5  1  0
  7  6  2  0
  7  8  1  0
  8  9  2  0
  9  4  1  0
 10  2  1  0
 10 17  1  0
 11 10  2  0
 13 12  1  0
 14 16  1  0
 14 13  1  0
 14 15  1  6
 16 17  1  1
 18 16  1  0
 19 18  2  0
 21 20  1  1
 21 23  1  0
 21 22  1  0
 22 18  1  0
 23 25  1  0
 24 23  2  0
M  END
$$$$
