FIA.pdb
     RDKit          3D

 25 25  0  0  1  0  0  0  0  0999 V2000
    8.4528  -15.8083   25.8943 N   0  0  0  0  0  0  0  0  0  0  0  0
    7.2483  -16.5188   25.4709 C   0  0  1  0  0  0  0  0  0  0  0  0
    6.0186  -15.7700   25.9844 C   0  0  0  0  0  0  0  0  0  0  0  0
    6.3699  -14.3500   26.2123 C   0  0  0  0  0  0  0  0  0  0  0  0
    7.6730  -13.9149   26.0984 C   0  0  0  0  0  0  0  0  0  0  0  0
    8.0149  -12.5842   26.3101 C   0  0  0  0  0  0  0  0  0  0  0  0
    6.9991  -11.7060   26.6406 C   0  0  0  0  0  0  0  0  0  0  0  0
    5.6933  -12.1102   26.7610 C   0  0  0  0  0  0  0  0  0  0  0  0
    5.3966  -13.4399   26.5426 C   0  0  0  0  0  0  0  0  0  0  0  0
    7.2399  -16.5307   23.9860 C   0  0  0  0  0  0  0  0  0  0  0  0
    6.4139  -17.2277   23.3196 O   0  0  0  0  0  0  0  0  0  0  0  0
    8.0767  -12.2040   20.8131 C   0  0  0  0  0  0  0  0  0  0  0  0
    8.6780  -13.3815   21.5848 C   0  0  0  0  0  0  0  0  0  0  0  0
    7.9311  -14.6340   21.2273 C   0  0  2  0  0  0  0  0  0  0  0  0
    6.4272  -14.4614   21.4390 C   0  0  0  0  0  0  0  0  0  0  0  0
    8.4289  -15.9006   21.8318 C   0  0  2  0  0  0  0  0  0  0  0  0
    8.1643  -15.7555   23.2865 N   0  0  0  0  0  0  0  0  0  0  0  0
    9.8534  -16.1799   21.7074 C   0  0  0  0  0  0  0  0  0  0  0  0
   10.3942  -16.4294   20.5740 O   0  0  0  0  0  0  0  0  0  0  0  0
   12.9588  -15.9178   23.7645 C   0  0  0  0  0  0  0  0  0  0  0  0
   12.1629  -16.5495   22.6228 C   0  0  2  0  0  0  0  0  0  0  0  0
   10.7542  -16.1981   22.7979 N   0  0  0  0  0  0  0  0  0  0  0  0
   12.3242  -18.0152   22.7601 C   0  0  0  0  0  0  0  0  0  0  0  0
   13.4572  -18.5143   22.5602 O   0  0  0  0  0  0  0  0  0  0  0  0
   11.2771  -18.8579   23.0998 O   0  0  0  0  0  0  0  0  0  0  0  0
  2  1  1  6
  2  3  1  0
  4  3  1  0
  5  4  2  0
  6  5  1  0
  7  6  2  0
  7  8  1  0
  8  9  2  0
  9  4  1  0
 10  2  1  0
 10 17  1  0
 11 10  2  0
 13 12  1  0
 14 16  1  0
 14 13  1  0
 14 15  1  1
 16 17  1  1
 18 16  1  0
 19 18  2  0
 21 20  1  1
 21 23  1  0
 21 22  1  0
 22 18  1  0
 23 25  1  0
 24 23  2  0
M  END
$$$$
