FIA.pdb
     RDKit          3D

 25 25  0  0  1  0  0  0  0  0999 V2000
    5.8624  -18.0929   25.0828 N   0  0  0  0  0  0  0  0  0  0  0  0
    6.4009  -16.7378   24.9903 C   0  0  1  0  0  0  0  0  0  0  0  0
    7.0445  -16.3625   26.3251 C   0  0  0  0  0  0  0  0  0  0  0  0
    7.1778  -14.8904   26.4076 C   0  0  0  0  0  0  0  0  0  0  0  0
    8.4190  -14.2923   26.4537 C   0  0  0  0  0  0  0  0  0  0  0  0
    8.5566  -12.9112   26.5314 C   0  0  0  0  0  0  0  0  0  0  0  0
    7.4010  -12.1524   26.5610 C   0  0  0  0  0  0  0  0  0  0  0  0
    6.1523  -12.7197   26.5164 C   0  0  0  0  0  0  0  0  0  0  0  0
    6.0599  -14.0943   26.4396 C   0  0  0  0  0  0  0  0  0  0  0  0
    7.4338  -16.7434   23.9236 C   0  0  0  0  0  0  0  0  0  0  0  0
    8.1761  -17.7502   23.7057 O   0  0  0  0  0  0  0  0  0  0  0  0
    7.9136  -11.9736   20.6866 C   0  0  0  0  0  0  0  0  0  0  0  0
    8.3856  -13.0522   21.6650 C   0  0  0  0  0  0  0  0  0  0  0  0
    7.9808  -14.3998   21.1410 C   0  0  2  0  0  0  0  0  0  0  0  0
    6.4755  -14.4643   20.8833 C   0  0  0  0  0  0  0  0  0  0  0  0
    8.4575  -15.5829   21.9094 C   0  0  2  0  0  0  0  0  0  0  0  0
    7.6058  -15.6122   23.1264 N   0  0  0  0  0  0  0  0  0  0  0  0
    9.8352  -15.5552   22.3825 C   0  0  0  0  0  0  0  0  0  0  0  0
   10.8257  -15.5446   21.5712 O   0  0  0  0  0  0  0  0  0  0  0  0
   11.7111  -15.0496   25.5821 C   0  0  0  0  0  0  0  0  0  0  0  0
   11.6008  -15.6184   24.1678 C   0  0  2  0  0  0  0  0  0  0  0  0
   10.2024  -15.5339   23.7484 N   0  0  0  0  0  0  0  0  0  0  0  0
   12.0020  -17.0411   24.2556 C   0  0  0  0  0  0  0  0  0  0  0  0
   11.1289  -17.9221   24.0705 O   0  0  0  0  0  0  0  0  0  0  0  0
   13.3003  -17.4402   24.5334 O   0  0  0  0  0  0  0  0  0  0  0  0
  2  1  1  1
  2  3  1  0
  4  3  1  0
  5  4  2  0
  6  5  1  0
  7  6  2  0
  7  8  1  0
  8  9  2  0
  9  4  1  0
 10  2  1  0
 10 17  1  0
 11 10  2  0
 13 12  1  0
 14 16  1  0
 14 13  1  0
 14 15  1  1
 16 17  1  1
 18 16  1  0
 19 18  2  0
 21 20  1  1
 21 23  1  0
 21 22  1  0
 22 18  1  0
 23 25  1  0
 24 23  2  0
M  END
$$$$
