FIA.pdb
     RDKit          3D

 25 25  0  0  1  0  0  0  0  0999 V2000
    5.8132  -17.7400   25.5960 N   0  0  0  0  0  0  0  0  0  0  0  0
    6.3875  -16.4349   25.2775 C   0  0  1  0  0  0  0  0  0  0  0  0
    7.1096  -15.8912   26.5103 C   0  0  0  0  0  0  0  0  0  0  0  0
    6.8866  -14.4306   26.6039 C   0  0  0  0  0  0  0  0  0  0  0  0
    5.6166  -13.9006   26.5224 C   0  0  0  0  0  0  0  0  0  0  0  0
    5.3949  -12.5310   26.6089 C   0  0  0  0  0  0  0  0  0  0  0  0
    6.4964  -11.7127   26.7802 C   0  0  0  0  0  0  0  0  0  0  0  0
    7.7720  -12.2117   26.8646 C   0  0  0  0  0  0  0  0  0  0  0  0
    7.9484  -13.5772   26.7741 C   0  0  0  0  0  0  0  0  0  0  0  0
    7.3641  -16.6371   24.1774 C   0  0  0  0  0  0  0  0  0  0  0  0
    7.9883  -17.7314   24.0194 O   0  0  0  0  0  0  0  0  0  0  0  0
    8.1219  -12.2174   20.5592 C   0  0  0  0  0  0  0  0  0  0  0  0
    8.5180  -13.2441   21.6234 C   0  0  0  0  0  0  0  0  0  0  0  0
    8.0521  -14.6039   21.1896 C   0  0  2  0  0  0  0  0  0  0  0  0
    6.5522  -14.6074   20.8951 C   0  0  0  0  0  0  0  0  0  0  0  0
    8.4441  -15.7492   22.0568 C   0  0  2  0  0  0  0  0  0  0  0  0
    7.6143  -15.5994   23.2800 N   0  0  0  0  0  0  0  0  0  0  0  0
    9.8275  -15.7938   22.5114 C   0  0  0  0  0  0  0  0  0  0  0  0
   10.2860  -14.9487   23.3570 O   0  0  0  0  0  0  0  0  0  0  0  0
   12.6937  -18.1701   22.4925 C   0  0  0  0  0  0  0  0  0  0  0  0
   12.1527  -16.7423   22.5606 C   0  0  2  0  0  0  0  0  0  0  0  0
   10.7727  -16.7524   22.0770 N   0  0  0  0  0  0  0  0  0  0  0  0
   12.9883  -15.9331   21.6440 C   0  0  0  0  0  0  0  0  0  0  0  0
   14.1800  -15.7068   21.9627 O   0  0  0  0  0  0  0  0  0  0  0  0
   12.5098  -15.4158   20.4501 O   0  0  0  0  0  0  0  0  0  0  0  0
  2  1  1  1
  2  3  1  0
  4  3  1  0
  5  4  2  0
  6  5  1  0
  7  6  2  0
  7  8  1  0
  8  9  2  0
  9  4  1  0
 10  2  1  0
 10 17  1  0
 11 10  2  0
 13 12  1  0
 14 16  1  0
 14 13  1  0
 14 15  1  1
 16 17  1  1
 18 16  1  0
 19 18  2  0
 21 20  1  6
 21 23  1  0
 21 22  1  0
 22 18  1  0
 23 25  1  0
 24 23  2  0
M  END
$$$$
