FIA.pdb
     RDKit          3D

 25 25  0  0  1  0  0  0  0  0999 V2000
   10.5684  -16.5864   21.4826 N   0  0  0  0  0  0  0  0  0  0  0  0
    9.6514  -15.5663   21.9859 C   0  0  1  0  0  0  0  0  0  0  0  0
    8.2533  -15.8299   21.4266 C   0  0  0  0  0  0  0  0  0  0  0  0
    7.7631  -14.6131   20.7404 C   0  0  0  0  0  0  0  0  0  0  0  0
    6.5091  -14.5780   20.1688 C   0  0  0  0  0  0  0  0  0  0  0  0
    6.0381  -13.4413   19.5218 C   0  0  0  0  0  0  0  0  0  0  0  0
    6.8734  -12.3405   19.4700 C   0  0  0  0  0  0  0  0  0  0  0  0
    8.1263  -12.3462   20.0297 C   0  0  0  0  0  0  0  0  0  0  0  0
    8.5555  -13.4947   20.6626 C   0  0  0  0  0  0  0  0  0  0  0  0
    9.6260  -15.6847   23.4658 C   0  0  0  0  0  0  0  0  0  0  0  0
   10.3928  -16.4778   24.0945 O   0  0  0  0  0  0  0  0  0  0  0  0
    6.2377  -11.8872   25.7817 C   0  0  0  0  0  0  0  0  0  0  0  0
    7.5376  -12.5802   25.3649 C   0  0  0  0  0  0  0  0  0  0  0  0
    7.6092  -13.9260   26.0268 C   0  0  2  0  0  0  0  0  0  0  0  0
    7.4220  -13.8098   27.5394 C   0  0  0  0  0  0  0  0  0  0  0  0
    8.7831  -14.7749   25.6825 C   0  0  2  0  0  0  0  0  0  0  0  0
    8.7354  -14.9051   24.2033 N   0  0  0  0  0  0  0  0  0  0  0  0
    8.7950  -16.1343   26.2063 C   0  0  0  0  0  0  0  0  0  0  0  0
    7.7764  -16.9037   26.1057 O   0  0  0  0  0  0  0  0  0  0  0  0
   10.9540  -18.9031   26.7284 C   0  0  0  0  0  0  0  0  0  0  0  0
    9.8490  -18.0818   27.3918 C   0  0  2  0  0  0  0  0  0  0  0  0
    9.9053  -16.7221   26.8565 N   0  0  0  0  0  0  0  0  0  0  0  0
   10.1596  -18.0528   28.8395 C   0  0  0  0  0  0  0  0  0  0  0  0
   10.1730  -19.1363   29.4709 O   0  0  0  0  0  0  0  0  0  0  0  0
   10.4360  -16.8803   29.5256 O   0  0  0  0  0  0  0  0  0  0  0  0
  2  1  1  6
  2  3  1  0
  4  3  1  0
  5  4  2  0
  6  5  1  0
  7  6  2  0
  7  8  1  0
  8  9  2  0
  9  4  1  0
 10  2  1  0
 10 17  1  0
 11 10  2  0
 13 12  1  0
 14 16  1  0
 14 13  1  0
 14 15  1  1
 16 17  1  6
 18 16  1  0
 19 18  2  0
 21 20  1  6
 21 23  1  0
 21 22  1  0
 22 18  1  0
 23 25  1  0
 24 23  2  0
M  END
$$$$
