FIA.pdb
     RDKit          3D

 25 25  0  0  1  0  0  0  0  0999 V2000
  -13.3886  -44.8607  -58.2041 N   0  0  0  0  0  0  0  0  0  0  0  0
  -12.4763  -43.7939  -57.7984 C   0  0  1  0  0  0  0  0  0  0  0  0
  -13.0894  -42.4432  -58.1678 C   0  0  0  0  0  0  0  0  0  0  0  0
  -12.0178  -41.4251  -58.2495 C   0  0  0  0  0  0  0  0  0  0  0  0
  -10.9338  -41.6019  -59.0827 C   0  0  0  0  0  0  0  0  0  0  0  0
   -9.9214  -40.6530  -59.1677 C   0  0  0  0  0  0  0  0  0  0  0  0
  -10.0379  -39.5192  -58.3846 C   0  0  0  0  0  0  0  0  0  0  0  0
  -11.1051  -39.3160  -57.5462 C   0  0  0  0  0  0  0  0  0  0  0  0
  -12.0883  -40.2826  -57.4916 C   0  0  0  0  0  0  0  0  0  0  0  0
  -12.3185  -43.8827  -56.3246 C   0  0  0  0  0  0  0  0  0  0  0  0
  -13.1424  -43.3446  -55.5222 O   0  0  0  0  0  0  0  0  0  0  0  0
   -7.3165  -43.9778  -55.0046 C   0  0  0  0  0  0  0  0  0  0  0  0
   -8.6690  -43.9570  -55.7216 C   0  0  0  0  0  0  0  0  0  0  0  0
   -9.0352  -45.3584  -56.1170 C   0  0  2  0  0  0  0  0  0  0  0  0
   -8.0408  -45.9258  -57.1297 C   0  0  0  0  0  0  0  0  0  0  0  0
  -10.4436  -45.5819  -56.5461 C   0  0  2  0  0  0  0  0  0  0  0  0
  -11.2339  -44.5769  -55.7893 N   0  0  0  0  0  0  0  0  0  0  0  0
  -11.0343  -46.8766  -56.2344 C   0  0  0  0  0  0  0  0  0  0  0  0
  -11.8366  -47.4628  -57.0420 O   0  0  0  0  0  0  0  0  0  0  0  0
  -11.9306  -49.6594  -54.5014 C   0  0  0  0  0  0  0  0  0  0  0  0
  -10.6365  -49.0499  -55.0396 C   0  0  2  0  0  0  0  0  0  0  0  0
  -10.7824  -47.5948  -55.0420 N   0  0  0  0  0  0  0  0  0  0  0  0
  -10.4939  -49.5314  -56.4327 C   0  0  0  0  0  0  0  0  0  0  0  0
  -10.3930  -48.6842  -57.3519 O   0  0  0  0  0  0  0  0  0  0  0  0
  -10.4673  -50.8774  -56.7637 O   0  0  0  0  0  0  0  0  0  0  0  0
  2  1  1  1
  2  3  1  0
  4  3  1  0
  5  4  2  0
  6  5  1  0
  7  6  2  0
  7  8  1  0
  8  9  2  0
  9  4  1  0
 10  2  1  0
 10 17  1  0
 11 10  2  0
 13 12  1  0
 14 16  1  0
 14 13  1  0
 14 15  1  6
 16 17  1  1
 18 16  1  0
 19 18  2  0
 21 20  1  6
 21 23  1  0
 21 22  1  0
 22 18  1  0
 23 25  1  0
 24 23  2  0
M  END
$$$$
