FIA.pdb
     RDKit          3D

 25 25  0  0  1  0  0  0  0  0999 V2000
    5.8051  -17.8005   22.3976 N   0  0  0  0  0  0  0  0  0  0  0  0
    6.2570  -17.8060   23.7870 C   0  0  1  0  0  0  0  0  0  0  0  0
    7.0096  -19.1074   24.0637 C   0  0  0  0  0  0  0  0  0  0  0  0
    6.0365  -20.2125   24.2176 C   0  0  0  0  0  0  0  0  0  0  0  0
    5.6078  -20.6110   25.4657 C   0  0  0  0  0  0  0  0  0  0  0  0
    4.6946  -21.6473   25.6227 C   0  0  0  0  0  0  0  0  0  0  0  0
    4.2275  -22.2690   24.4792 C   0  0  0  0  0  0  0  0  0  0  0  0
    4.6362  -21.8940   23.2240 C   0  0  0  0  0  0  0  0  0  0  0  0
    5.5438  -20.8607   23.1123 C   0  0  0  0  0  0  0  0  0  0  0  0
    7.1768  -16.6529   23.9582 C   0  0  0  0  0  0  0  0  0  0  0  0
    7.9659  -16.2744   23.0383 O   0  0  0  0  0  0  0  0  0  0  0  0
    5.4790  -12.3772   26.5369 C   0  0  0  0  0  0  0  0  0  0  0  0
    6.3012  -13.1947   25.5373 C   0  0  0  0  0  0  0  0  0  0  0  0
    7.4167  -13.8841   26.2687 C   0  0  2  0  0  0  0  0  0  0  0  0
    8.3434  -12.8737   26.9444 C   0  0  0  0  0  0  0  0  0  0  0  0
    8.1832  -14.9052   25.5024 C   0  0  2  0  0  0  0  0  0  0  0  0
    7.1853  -15.9527   25.1642 N   0  0  0  0  0  0  0  0  0  0  0  0
    9.2624  -15.5883   26.2034 C   0  0  0  0  0  0  0  0  0  0  0  0
    9.0654  -16.1985   27.3117 O   0  0  0  0  0  0  0  0  0  0  0  0
   12.7828  -16.6232   25.3648 C   0  0  0  0  0  0  0  0  0  0  0  0
   11.5567  -16.6078   26.2772 C   0  0  2  0  0  0  0  0  0  0  0  0
   10.5969  -15.6454   25.7377 N   0  0  0  0  0  0  0  0  0  0  0  0
   12.0262  -16.1427   27.6025 C   0  0  0  0  0  0  0  0  0  0  0  0
   12.8639  -16.8422   28.2204 O   0  0  0  0  0  0  0  0  0  0  0  0
   11.5795  -14.9684   28.1885 O   0  0  0  0  0  0  0  0  0  0  0  0
  2  1  1  6
  2  3  1  0
  4  3  1  0
  5  4  2  0
  6  5  1  0
  7  6  2  0
  7  8  1  0
  8  9  2  0
  9  4  1  0
 10  2  1  0
 10 17  1  0
 11 10  2  0
 13 12  1  0
 14 16  1  0
 14 13  1  0
 14 15  1  6
 16 17  1  1
 18 16  1  0
 19 18  2  0
 21 20  1  6
 21 23  1  0
 21 22  1  0
 22 18  1  0
 23 25  1  0
 24 23  2  0
M  END
$$$$
