FIA.pdb
     RDKit          3D

 25 25  0  0  1  0  0  0  0  0999 V2000
    5.7576  -18.0227   25.0054 N   0  0  0  0  0  0  0  0  0  0  0  0
    6.2242  -16.6441   24.8770 C   0  0  1  0  0  0  0  0  0  0  0  0
    6.7489  -16.1649   26.2304 C   0  0  0  0  0  0  0  0  0  0  0  0
    6.6806  -14.6871   26.2866 C   0  0  0  0  0  0  0  0  0  0  0  0
    7.8239  -13.9291   26.4234 C   0  0  0  0  0  0  0  0  0  0  0  0
    7.7722  -12.5410   26.4774 C   0  0  0  0  0  0  0  0  0  0  0  0
    6.5291  -11.9418   26.3890 C   0  0  0  0  0  0  0  0  0  0  0  0
    5.3742  -12.6702   26.2524 C   0  0  0  0  0  0  0  0  0  0  0  0
    5.4696  -14.0459   26.2029 C   0  0  0  0  0  0  0  0  0  0  0  0
    7.3293  -16.6411   23.8852 C   0  0  0  0  0  0  0  0  0  0  0  0
    7.9814  -17.6914   23.5954 O   0  0  0  0  0  0  0  0  0  0  0  0
    6.7848  -12.3424   20.4735 C   0  0  0  0  0  0  0  0  0  0  0  0
    6.9005  -13.8027   20.9182 C   0  0  0  0  0  0  0  0  0  0  0  0
    8.2822  -14.0434   21.4545 C   0  0  2  0  0  0  0  0  0  0  0  0
    9.3488  -13.6577   20.4299 C   0  0  0  0  0  0  0  0  0  0  0  0
    8.5436  -15.3874   22.0398 C   0  0  2  0  0  0  0  0  0  0  0  0
    7.6738  -15.4524   23.2425 N   0  0  0  0  0  0  0  0  0  0  0  0
    9.8974  -15.6554   22.5068 C   0  0  0  0  0  0  0  0  0  0  0  0
   10.8719  -15.8146   21.6916 O   0  0  0  0  0  0  0  0  0  0  0  0
   11.8236  -15.6885   25.7191 C   0  0  0  0  0  0  0  0  0  0  0  0
   11.6052  -16.1540   24.2799 C   0  0  2  0  0  0  0  0  0  0  0  0
   10.2578  -15.7593   23.8708 N   0  0  0  0  0  0  0  0  0  0  0  0
   11.6997  -17.6317   24.2982 C   0  0  0  0  0  0  0  0  0  0  0  0
   10.6726  -18.3009   24.0334 O   0  0  0  0  0  0  0  0  0  0  0  0
   12.8740  -18.3061   24.5952 O   0  0  0  0  0  0  0  0  0  0  0  0
  2  1  1  1
  2  3  1  0
  4  3  1  0
  5  4  2  0
  6  5  1  0
  7  6  2  0
  7  8  1  0
  8  9  2  0
  9  4  1  0
 10  2  1  0
 10 17  1  0
 11 10  2  0
 13 12  1  0
 14 16  1  0
 14 13  1  0
 14 15  1  6
 16 17  1  1
 18 16  1  0
 19 18  2  0
 21 20  1  1
 21 23  1  0
 21 22  1  0
 22 18  1  0
 23 25  1  0
 24 23  2  0
M  END
$$$$
