FIA.pdb
     RDKit          3D

 25 25  0  0  1  0  0  0  0  0999 V2000
    5.5032  -17.8035   25.2756 N   0  0  0  0  0  0  0  0  0  0  0  0
    6.1602  -16.5004   25.2050 C   0  0  1  0  0  0  0  0  0  0  0  0
    6.7381  -16.1559   26.5777 C   0  0  0  0  0  0  0  0  0  0  0  0
    6.9785  -14.6972   26.6556 C   0  0  0  0  0  0  0  0  0  0  0  0
    8.2598  -14.1918   26.7121 C   0  0  0  0  0  0  0  0  0  0  0  0
    8.4979  -12.8242   26.7855 C   0  0  0  0  0  0  0  0  0  0  0  0
    7.4010  -11.9823   26.8001 C   0  0  0  0  0  0  0  0  0  0  0  0
    6.1145  -12.4564   26.7450 C   0  0  0  0  0  0  0  0  0  0  0  0
    5.9219  -13.8209   26.6728 C   0  0  0  0  0  0  0  0  0  0  0  0
    7.2614  -16.6126   24.2152 C   0  0  0  0  0  0  0  0  0  0  0  0
    7.9283  -17.6824   24.0632 O   0  0  0  0  0  0  0  0  0  0  0  0
    6.9699  -12.7293   20.3302 C   0  0  0  0  0  0  0  0  0  0  0  0
    7.0780  -14.1393   20.9166 C   0  0  0  0  0  0  0  0  0  0  0  0
    8.4146  -14.2911   21.5837 C   0  0  2  0  0  0  0  0  0  0  0  0
    9.5565  -14.0359   20.6002 C   0  0  0  0  0  0  0  0  0  0  0  0
    8.6306  -15.5412   22.3634 C   0  0  2  0  0  0  0  0  0  0  0  0
    7.5854  -15.5146   23.4189 N   0  0  0  0  0  0  0  0  0  0  0  0
    9.9030  -15.6769   23.0599 C   0  0  0  0  0  0  0  0  0  0  0  0
   10.3016  -14.8064   23.9101 O   0  0  0  0  0  0  0  0  0  0  0  0
   12.5587  -18.2638   23.5783 C   0  0  0  0  0  0  0  0  0  0  0  0
   12.0907  -16.8091   23.5511 C   0  0  2  0  0  0  0  0  0  0  0  0
   10.7965  -16.7575   22.8722 N   0  0  0  0  0  0  0  0  0  0  0  0
   13.0920  -16.0612   22.7569 C   0  0  0  0  0  0  0  0  0  0  0  0
   14.0887  -15.5818   23.3483 O   0  0  0  0  0  0  0  0  0  0  0  0
   12.9748  -15.8685   21.3890 O   0  0  0  0  0  0  0  0  0  0  0  0
  2  1  1  1
  2  3  1  0
  4  3  1  0
  5  4  2  0
  6  5  1  0
  7  6  2  0
  7  8  1  0
  8  9  2  0
  9  4  1  0
 10  2  1  0
 10 17  1  0
 11 10  2  0
 13 12  1  0
 14 16  1  0
 14 13  1  0
 14 15  1  6
 16 17  1  1
 18 16  1  0
 19 18  2  0
 21 20  1  6
 21 23  1  0
 21 22  1  0
 22 18  1  0
 23 25  1  0
 24 23  2  0
M  END
$$$$
