FIA.pdb
     RDKit          3D

 25 25  0  0  1  0  0  0  0  0999 V2000
    7.7538  -17.0318   26.7171 N   0  0  0  0  0  0  0  0  0  0  0  0
    7.0441  -16.3009   25.6698 C   0  0  1  0  0  0  0  0  0  0  0  0
    7.1674  -14.8004   25.9347 C   0  0  0  0  0  0  0  0  0  0  0  0
    8.3764  -14.5449   26.7501 C   0  0  0  0  0  0  0  0  0  0  0  0
    9.6376  -14.7334   26.2264 C   0  0  0  0  0  0  0  0  0  0  0  0
   10.7800  -14.4969   26.9823 C   0  0  0  0  0  0  0  0  0  0  0  0
   10.6090  -14.0639   28.2844 C   0  0  0  0  0  0  0  0  0  0  0  0
    9.3664  -13.8675   28.8325 C   0  0  0  0  0  0  0  0  0  0  0  0
    8.2583  -14.1139   28.0481 C   0  0  0  0  0  0  0  0  0  0  0  0
    7.6962  -16.6335   24.3778 C   0  0  0  0  0  0  0  0  0  0  0  0
    7.6880  -17.8094   23.8987 O   0  0  0  0  0  0  0  0  0  0  0  0
    6.8274  -12.6440   20.9766 C   0  0  0  0  0  0  0  0  0  0  0  0
    6.9528  -14.0414   21.5891 C   0  0  0  0  0  0  0  0  0  0  0  0
    8.4025  -14.4304   21.6289 C   0  0  2  0  0  0  0  0  0  0  0  0
    9.0607  -14.2545   20.2607 C   0  0  0  0  0  0  0  0  0  0  0  0
    8.7186  -15.7585   22.2236 C   0  0  2  0  0  0  0  0  0  0  0  0
    8.3431  -15.6313   23.6554 N   0  0  0  0  0  0  0  0  0  0  0  0
   10.1142  -16.1766   22.2088 C   0  0  0  0  0  0  0  0  0  0  0  0
   10.7135  -16.4841   21.1199 O   0  0  0  0  0  0  0  0  0  0  0  0
   13.1559  -15.8042   24.1785 C   0  0  0  0  0  0  0  0  0  0  0  0
   12.3136  -16.7215   23.2925 C   0  0  2  0  0  0  0  0  0  0  0  0
   10.9224  -16.2769   23.3654 N   0  0  0  0  0  0  0  0  0  0  0  0
   12.4257  -18.0806   23.8697 C   0  0  0  0  0  0  0  0  0  0  0  0
   13.5628  -18.6023   23.9567 O   0  0  0  0  0  0  0  0  0  0  0  0
   11.3284  -18.7999   24.3174 O   0  0  0  0  0  0  0  0  0  0  0  0
  2  1  1  1
  2  3  1  0
  4  3  1  0
  5  4  2  0
  6  5  1  0
  7  6  2  0
  7  8  1  0
  8  9  2  0
  9  4  1  0
 10  2  1  0
 10 17  1  0
 11 10  2  0
 13 12  1  0
 14 16  1  0
 14 13  1  0
 14 15  1  6
 16 17  1  1
 18 16  1  0
 19 18  2  0
 21 20  1  1
 21 23  1  0
 21 22  1  0
 22 18  1  0
 23 25  1  0
 24 23  2  0
M  END
$$$$
