PKY.pdb
     RDKit          3D

 29 30  0  0  1  0  0  0  0  0999 V2000
    7.4498  -19.3779   21.0654 N   0  0  0  0  0  0  0  0  0  0  0  0
    6.0816  -19.7314   20.8075 C   0  0  0  0  0  0  0  0  0  0  0  0
    5.9692  -19.8875   19.2986 C   0  0  0  0  0  0  0  0  0  0  0  0
    7.0230  -18.9487   18.8163 C   0  0  0  0  0  0  0  0  0  0  0  0
    8.0821  -18.9729   19.8597 C   0  0  1  0  0  0  0  0  0  0  0  0
    8.8123  -17.6852   19.9773 C   0  0  0  0  0  0  0  0  0  0  0  0
    9.9399  -17.5886   19.4230 O   0  0  0  0  0  0  0  0  0  0  0  0
    8.3277  -16.5510   20.6727 N   0  0  0  0  0  0  0  0  0  0  0  0
    9.0037  -15.2986   20.7548 C   0  0  1  0  0  0  0  0  0  0  0  0
    8.2100  -14.1528   20.1777 C   0  0  0  0  0  0  0  0  0  0  0  0
    7.7611  -14.4844   18.7723 C   0  0  0  0  0  0  0  0  0  0  0  0
    8.0076  -13.2410   17.9396 C   0  0  0  0  0  0  0  0  0  0  0  0
    7.4952  -13.4842   16.5278 C   0  0  0  0  0  0  0  0  0  0  0  0
    7.5755  -12.2250   15.8266 N   0  0  0  0  0  0  0  0  0  0  0  0
    9.3987  -14.9663   22.1711 C   0  0  0  0  0  0  0  0  0  0  0  0
    8.6575  -14.1675   22.7971 O   0  0  0  0  0  0  0  0  0  0  0  0
   10.8024  -14.9984   30.5640 O   0  0  0  0  0  0  0  0  0  0  0  0
   10.5304  -15.2083   29.2010 C   0  0  0  0  0  0  0  0  0  0  0  0
   10.0633  -14.1744   28.4397 C   0  0  0  0  0  0  0  0  0  0  0  0
    9.7843  -14.3530   27.0824 C   0  0  0  0  0  0  0  0  0  0  0  0
    9.9680  -15.5690   26.4668 C   0  0  0  0  0  0  0  0  0  0  0  0
    9.6581  -15.7459   25.0377 C   0  0  0  0  0  0  0  0  0  0  0  0
   10.8179  -15.3307   24.1942 C   0  0  2  0  0  0  0  0  0  0  0  0
   10.5349  -15.5136   22.7749 N   0  0  0  0  0  0  0  0  0  0  0  0
   12.0769  -16.0025   24.5703 C   0  0  0  0  0  0  0  0  0  0  0  0
   12.9504  -15.2913   25.4163 O   0  0  0  0  0  0  0  0  0  0  0  0
   10.4466  -16.6066   27.2710 C   0  0  0  0  0  0  0  0  0  0  0  0
   10.7187  -16.4253   28.6016 C   0  0  0  0  0  0  0  0  0  0  0  0
   12.4284  -17.1486   24.1991 O   0  0  0  0  0  0  0  0  0  0  0  0
  1  5  1  0
  2  1  1  0
  3  2  1  0
  3  4  1  0
  4  5  1  0
  5  6  1  1
  6  7  2  0
  8  9  1  0
  8  6  1  0
  9 15  1  0
 10 11  1  0
  9 10  1  1
 11 12  1  0
 13 12  1  0
 14 13  1  0
 15 16  2  0
 15 24  1  0
 17 18  1  0
 18 19  2  0
 18 28  1  0
 19 20  1  0
 20 21  2  0
 21 22  1  0
 23 22  1  1
 23 25  1  0
 24 23  1  0
 25 29  2  0
 25 26  1  0
 27 21  1  0
 28 27  2  0
M  END
$$$$
