PKY.pdb
     RDKit          3D

 29 30  0  0  1  0  0  0  0  0999 V2000
    8.8383  -14.5816   19.2949 N   0  0  0  0  0  0  0  0  0  0  0  0
    8.2203  -14.0162   18.1279 C   0  0  0  0  0  0  0  0  0  0  0  0
    7.7478  -12.6296   18.5375 C   0  0  0  0  0  0  0  0  0  0  0  0
    7.4949  -12.8128   19.9959 C   0  0  0  0  0  0  0  0  0  0  0  0
    8.4859  -13.8262   20.4450 C   0  0  1  0  0  0  0  0  0  0  0  0
    7.9963  -14.6585   21.5732 C   0  0  0  0  0  0  0  0  0  0  0  0
    7.6328  -14.0742   22.6288 O   0  0  0  0  0  0  0  0  0  0  0  0
    7.9084  -16.0714   21.5460 N   0  0  0  0  0  0  0  0  0  0  0  0
    7.4584  -16.8782   22.6318 C   0  0  1  0  0  0  0  0  0  0  0  0
    7.3659  -18.3442   22.2881 C   0  0  0  0  0  0  0  0  0  0  0  0
    6.7774  -19.1161   23.4475 C   0  0  0  0  0  0  0  0  0  0  0  0
    6.7960  -20.5775   23.0422 C   0  0  0  0  0  0  0  0  0  0  0  0
    6.2100  -21.4097   24.1732 C   0  0  0  0  0  0  0  0  0  0  0  0
    6.3213  -22.7942   23.7802 N   0  0  0  0  0  0  0  0  0  0  0  0
    8.3245  -16.7076   23.8538 C   0  0  0  0  0  0  0  0  0  0  0  0
    9.5687  -16.7307   23.6783 O   0  0  0  0  0  0  0  0  0  0  0  0
    6.2071  -10.4220   25.5427 O   0  0  0  0  0  0  0  0  0  0  0  0
    6.6453  -11.6810   25.9883 C   0  0  0  0  0  0  0  0  0  0  0  0
    5.7300  -12.6647   26.2358 C   0  0  0  0  0  0  0  0  0  0  0  0
    6.1357  -13.9259   26.6792 C   0  0  0  0  0  0  0  0  0  0  0  0
    7.4635  -14.2215   26.8821 C   0  0  0  0  0  0  0  0  0  0  0  0
    7.8758  -15.5518   27.3616 C   0  0  0  0  0  0  0  0  0  0  0  0
    8.6239  -16.2843   26.2973 C   0  0  2  0  0  0  0  0  0  0  0  0
    7.7834  -16.5309   25.1309 N   0  0  0  0  0  0  0  0  0  0  0  0
    9.2364  -17.5378   26.7787 C   0  0  0  0  0  0  0  0  0  0  0  0
    8.8127  -18.7316   26.1623 O   0  0  0  0  0  0  0  0  0  0  0  0
    8.3754  -13.1957   26.6205 C   0  0  0  0  0  0  0  0  0  0  0  0
    7.9715  -11.9608   26.1855 C   0  0  0  0  0  0  0  0  0  0  0  0
   10.0983  -17.6237   27.6867 O   0  0  0  0  0  0  0  0  0  0  0  0
  1  5  1  0
  2  1  1  0
  3  2  1  0
  3  4  1  0
  4  5  1  0
  5  6  1  1
  6  7  2  0
  8  9  1  0
  8  6  1  0
  9 15  1  0
 10 11  1  0
  9 10  1  6
 11 12  1  0
 13 12  1  0
 14 13  1  0
 15 16  2  0
 15 24  1  0
 17 18  1  0
 18 19  2  0
 18 28  1  0
 19 20  1  0
 20 21  2  0
 21 22  1  0
 23 22  1  1
 23 25  1  0
 24 23  1  0
 25 29  2  0
 25 26  1  0
 27 21  1  0
 28 27  2  0
M  END
$$$$
