PKY.pdb
     RDKit          3D

 29 30  0  0  1  0  0  0  0  0999 V2000
    8.9164  -14.7857   18.3250 N   0  0  0  0  0  0  0  0  0  0  0  0
    8.0475  -14.2135   17.3344 C   0  0  0  0  0  0  0  0  0  0  0  0
    7.7990  -12.7796   17.7769 C   0  0  0  0  0  0  0  0  0  0  0  0
    7.9359  -12.8902   19.2580 C   0  0  0  0  0  0  0  0  0  0  0  0
    8.9392  -13.9641   19.4834 C   0  0  1  0  0  0  0  0  0  0  0  0
    8.7153  -14.7136   20.7457 C   0  0  0  0  0  0  0  0  0  0  0  0
    8.5944  -14.0561   21.8139 O   0  0  0  0  0  0  0  0  0  0  0  0
    8.6274  -16.1240   20.8341 N   0  0  0  0  0  0  0  0  0  0  0  0
    8.3607  -16.8476   22.0331 C   0  0  1  0  0  0  0  0  0  0  0  0
    8.3137  -18.3418   21.8306 C   0  0  0  0  0  0  0  0  0  0  0  0
    7.4981  -18.6767   20.6021 C   0  0  0  0  0  0  0  0  0  0  0  0
    7.5868  -20.1806   20.4262 C   0  0  0  0  0  0  0  0  0  0  0  0
    6.8215  -20.5757   19.1721 C   0  0  0  0  0  0  0  0  0  0  0  0
    6.8887  -22.0142   19.0720 N   0  0  0  0  0  0  0  0  0  0  0  0
    9.3570  -16.5237   23.1169 C   0  0  0  0  0  0  0  0  0  0  0  0
   10.5684  -16.4852   22.7846 O   0  0  0  0  0  0  0  0  0  0  0  0
    5.0214  -12.4220   27.3890 O   0  0  0  0  0  0  0  0  0  0  0  0
    6.2727  -12.9336   27.0039 C   0  0  0  0  0  0  0  0  0  0  0  0
    6.4938  -13.2607   25.6959 C   0  0  0  0  0  0  0  0  0  0  0  0
    7.7272  -13.7709   25.2835 C   0  0  0  0  0  0  0  0  0  0  0  0
    8.7577  -13.9622   26.1739 C   0  0  0  0  0  0  0  0  0  0  0  0
   10.0489  -14.5125   25.7271 C   0  0  0  0  0  0  0  0  0  0  0  0
    9.9374  -15.9815   25.4852 C   0  0  2  0  0  0  0  0  0  0  0  0
    8.9670  -16.2751   24.4364 N   0  0  0  0  0  0  0  0  0  0  0  0
    9.6368  -16.7485   26.7097 C   0  0  0  0  0  0  0  0  0  0  0  0
   10.5563  -16.6398   27.7714 O   0  0  0  0  0  0  0  0  0  0  0  0
    8.5016  -13.6186   27.5038 C   0  0  0  0  0  0  0  0  0  0  0  0
    7.2899  -13.1182   27.9023 C   0  0  0  0  0  0  0  0  0  0  0  0
    8.6343  -17.4843   26.8787 O   0  0  0  0  0  0  0  0  0  0  0  0
  1  5  1  0
  2  1  1  0
  3  2  1  0
  3  4  1  0
  4  5  1  0
  5  6  1  1
  6  7  2  0
  8  9  1  0
  8  6  1  0
  9 15  1  0
 10 11  1  0
  9 10  1  6
 11 12  1  0
 13 12  1  0
 14 13  1  0
 15 16  2  0
 15 24  1  0
 17 18  1  0
 18 19  2  0
 18 28  1  0
 19 20  1  0
 20 21  2  0
 21 22  1  0
 23 22  1  1
 23 25  1  0
 24 23  1  0
 25 29  2  0
 25 26  1  0
 27 21  1  0
 28 27  2  0
M  END
$$$$
