PKY.pdb
     RDKit          3D

 29 30  0  0  1  0  0  0  0  0999 V2000
    8.4103  -14.7651   18.2540 N   0  0  0  0  0  0  0  0  0  0  0  0
    7.5641  -14.4501   17.1367 C   0  0  0  0  0  0  0  0  0  0  0  0
    7.0934  -13.0212   17.3608 C   0  0  0  0  0  0  0  0  0  0  0  0
    7.1139  -12.9239   18.8489 C   0  0  0  0  0  0  0  0  0  0  0  0
    8.2249  -13.8091   19.2880 C   0  0  1  0  0  0  0  0  0  0  0  0
    7.9913  -14.4176   20.6223 C   0  0  0  0  0  0  0  0  0  0  0  0
    7.8359  -13.6476   21.6077 O   0  0  0  0  0  0  0  0  0  0  0  0
    7.9302  -15.8109   20.8668 N   0  0  0  0  0  0  0  0  0  0  0  0
    7.7358  -16.4026   22.1491 C   0  0  1  0  0  0  0  0  0  0  0  0
    7.1218  -17.7791   22.0845 C   0  0  0  0  0  0  0  0  0  0  0  0
    7.0721  -18.3939   23.4652 C   0  0  0  0  0  0  0  0  0  0  0  0
    6.4503  -19.7673   23.3001 C   0  0  0  0  0  0  0  0  0  0  0  0
    6.3213  -20.4174   24.6696 C   0  0  0  0  0  0  0  0  0  0  0  0
    5.7718  -21.7358   24.4612 N   0  0  0  0  0  0  0  0  0  0  0  0
    9.0191  -16.4670   22.9375 C   0  0  0  0  0  0  0  0  0  0  0  0
    9.5877  -17.5854   23.0104 O   0  0  0  0  0  0  0  0  0  0  0  0
   10.8599  -15.2174   31.2679 O   0  0  0  0  0  0  0  0  0  0  0  0
   10.3853  -15.2082   29.9448 C   0  0  0  0  0  0  0  0  0  0  0  0
   10.3925  -14.0414   29.2341 C   0  0  0  0  0  0  0  0  0  0  0  0
    9.9274  -14.0015   27.9173 C   0  0  0  0  0  0  0  0  0  0  0  0
    9.4475  -15.1286   27.2922 C   0  0  0  0  0  0  0  0  0  0  0  0
    8.9488  -15.0692   25.9075 C   0  0  0  0  0  0  0  0  0  0  0  0
   10.0432  -15.3841   24.9419 C   0  0  2  0  0  0  0  0  0  0  0  0
    9.5646  -15.3427   23.5646 N   0  0  0  0  0  0  0  0  0  0  0  0
   10.7152  -16.6667   25.2270 C   0  0  0  0  0  0  0  0  0  0  0  0
    9.8983  -17.8124   25.2959 O   0  0  0  0  0  0  0  0  0  0  0  0
    9.4527  -16.3062   28.0442 C   0  0  0  0  0  0  0  0  0  0  0  0
    9.9106  -16.3391   29.3353 C   0  0  0  0  0  0  0  0  0  0  0  0
   11.9474  -16.8165   25.4113 O   0  0  0  0  0  0  0  0  0  0  0  0
  1  5  1  0
  2  1  1  0
  3  2  1  0
  3  4  1  0
  4  5  1  0
  5  6  1  1
  6  7  2  0
  8  9  1  0
  8  6  1  0
  9 15  1  0
 10 11  1  0
  9 10  1  6
 11 12  1  0
 13 12  1  0
 14 13  1  0
 15 16  2  0
 15 24  1  0
 17 18  1  0
 18 19  2  0
 18 28  1  0
 19 20  1  0
 20 21  2  0
 21 22  1  0
 23 22  1  1
 23 25  1  0
 24 23  1  0
 25 29  2  0
 25 26  1  0
 27 21  1  0
 28 27  2  0
M  END
$$$$
