PKY.pdb
     RDKit          3D

 29 30  0  0  1  0  0  0  0  0999 V2000
    9.0952  -14.2327   19.2673 N   0  0  0  0  0  0  0  0  0  0  0  0
    8.5686  -13.7293   18.0292 C   0  0  0  0  0  0  0  0  0  0  0  0
    7.7383  -12.5087   18.3956 C   0  0  0  0  0  0  0  0  0  0  0  0
    7.2948  -12.8465   19.7790 C   0  0  0  0  0  0  0  0  0  0  0  0
    8.3983  -13.6549   20.3618 C   0  0  1  0  0  0  0  0  0  0  0  0
    7.9265  -14.6518   21.3563 C   0  0  0  0  0  0  0  0  0  0  0  0
    7.2261  -14.2433   22.3210 O   0  0  0  0  0  0  0  0  0  0  0  0
    8.2099  -16.0377   21.2965 N   0  0  0  0  0  0  0  0  0  0  0  0
    7.7761  -16.9976   22.2570 C   0  0  1  0  0  0  0  0  0  0  0  0
    7.9655  -18.4238   21.8033 C   0  0  0  0  0  0  0  0  0  0  0  0
    7.3891  -19.3777   22.8253 C   0  0  0  0  0  0  0  0  0  0  0  0
    7.5200  -20.7684   22.2346 C   0  0  0  0  0  0  0  0  0  0  0  0
    6.8513  -21.7654   23.1692 C   0  0  0  0  0  0  0  0  0  0  0  0
    7.1066  -23.0819   22.6350 N   0  0  0  0  0  0  0  0  0  0  0  0
    8.4556  -16.8050   23.5887 C   0  0  0  0  0  0  0  0  0  0  0  0
    9.7085  -16.7074   23.5805 O   0  0  0  0  0  0  0  0  0  0  0  0
    7.0162  -10.2933   25.6422 O   0  0  0  0  0  0  0  0  0  0  0  0
    7.1030  -11.6528   25.9886 C   0  0  0  0  0  0  0  0  0  0  0  0
    8.3257  -12.2608   26.0318 C   0  0  0  0  0  0  0  0  0  0  0  0
    8.4433  -13.6105   26.3730 C   0  0  0  0  0  0  0  0  0  0  0  0
    7.3388  -14.3721   26.6755 C   0  0  0  0  0  0  0  0  0  0  0  0
    7.4766  -15.7972   27.0217 C   0  0  0  0  0  0  0  0  0  0  0  0
    8.3950  -16.4830   26.0650 C   0  0  2  0  0  0  0  0  0  0  0  0
    7.7386  -16.7359   24.7871 N   0  0  0  0  0  0  0  0  0  0  0  0
    8.9784  -17.7236   26.6114 C   0  0  0  0  0  0  0  0  0  0  0  0
    9.8772  -17.5850   27.6873 O   0  0  0  0  0  0  0  0  0  0  0  0
    6.1028  -13.7227   26.6229 C   0  0  0  0  0  0  0  0  0  0  0  0
    5.9939  -12.3986   26.2879 C   0  0  0  0  0  0  0  0  0  0  0  0
    8.7391  -18.8835   26.1965 O   0  0  0  0  0  0  0  0  0  0  0  0
  1  5  1  0
  2  1  1  0
  3  2  1  0
  3  4  1  0
  4  5  1  0
  5  6  1  1
  6  7  2  0
  8  9  1  0
  8  6  1  0
  9 15  1  0
 10 11  1  0
  9 10  1  6
 11 12  1  0
 13 12  1  0
 14 13  1  0
 15 16  2  0
 15 24  1  0
 17 18  1  0
 18 19  2  0
 18 28  1  0
 19 20  1  0
 20 21  2  0
 21 22  1  0
 23 22  1  1
 23 25  1  0
 24 23  1  0
 25 29  2  0
 25 26  1  0
 27 21  1  0
 28 27  2  0
M  END
$$$$
