PKY.pdb
     RDKit          3D

 29 30  0  0  1  0  0  0  0  0999 V2000
    9.0458  -14.3546   17.9648 N   0  0  0  0  0  0  0  0  0  0  0  0
    8.2069  -13.8595   16.9090 C   0  0  0  0  0  0  0  0  0  0  0  0
    7.5905  -12.5726   17.4359 C   0  0  0  0  0  0  0  0  0  0  0  0
    7.5560  -12.8307   18.9045 C   0  0  0  0  0  0  0  0  0  0  0  0
    8.7354  -13.6924   19.1824 C   0  0  1  0  0  0  0  0  0  0  0  0
    8.5227  -14.6192   20.3231 C   0  0  0  0  0  0  0  0  0  0  0  0
    8.0593  -14.1458   21.3951 O   0  0  0  0  0  0  0  0  0  0  0  0
    8.8054  -16.0062   20.2908 N   0  0  0  0  0  0  0  0  0  0  0  0
    8.4993  -16.9221   21.3394 C   0  0  1  0  0  0  0  0  0  0  0  0
    8.7675  -18.3607   20.9727 C   0  0  0  0  0  0  0  0  0  0  0  0
    7.8915  -18.7755   19.8120 C   0  0  0  0  0  0  0  0  0  0  0  0
    8.2025  -20.2351   19.5412 C   0  0  0  0  0  0  0  0  0  0  0  0
    7.4056  -20.6915   18.3282 C   0  0  0  0  0  0  0  0  0  0  0  0
    7.7873  -22.0580   18.0619 N   0  0  0  0  0  0  0  0  0  0  0  0
    9.2377  -16.5869   22.6101 C   0  0  0  0  0  0  0  0  0  0  0  0
   10.4882  -16.4883   22.5336 O   0  0  0  0  0  0  0  0  0  0  0  0
   11.1703  -14.5397   30.9362 O   0  0  0  0  0  0  0  0  0  0  0  0
   10.4859  -14.7183   29.7215 C   0  0  0  0  0  0  0  0  0  0  0  0
   10.0426  -15.9630   29.3741 C   0  0  0  0  0  0  0  0  0  0  0  0
    9.3592  -16.1711   28.1734 C   0  0  0  0  0  0  0  0  0  0  0  0
    9.1098  -15.1366   27.3021 C   0  0  0  0  0  0  0  0  0  0  0  0
    8.3989  -15.3729   26.0338 C   0  0  0  0  0  0  0  0  0  0  0  0
    9.2940  -16.0491   25.0488 C   0  0  2  0  0  0  0  0  0  0  0  0
    8.5758  -16.3916   23.8262 N   0  0  0  0  0  0  0  0  0  0  0  0
    9.9784  -17.2321   25.6057 C   0  0  0  0  0  0  0  0  0  0  0  0
   11.2966  -17.0470   26.0671 O   0  0  0  0  0  0  0  0  0  0  0  0
    9.5752  -13.8760   27.6847 C   0  0  0  0  0  0  0  0  0  0  0  0
   10.2446  -13.6781   28.8638 C   0  0  0  0  0  0  0  0  0  0  0  0
    9.4829  -18.3811   25.7003 O   0  0  0  0  0  0  0  0  0  0  0  0
  1  5  1  0
  2  1  1  0
  3  2  1  0
  3  4  1  0
  4  5  1  0
  5  6  1  1
  6  7  2  0
  8  9  1  0
  8  6  1  0
  9 15  1  0
 10 11  1  0
  9 10  1  6
 11 12  1  0
 13 12  1  0
 14 13  1  0
 15 16  2  0
 15 24  1  0
 17 18  1  0
 18 19  2  0
 18 28  1  0
 19 20  1  0
 20 21  2  0
 21 22  1  0
 23 22  1  1
 23 25  1  0
 24 23  1  0
 25 29  2  0
 25 26  1  0
 27 21  1  0
 28 27  2  0
M  END
$$$$
