PKY.pdb
     RDKit          3D

 29 30  0  0  1  0  0  0  0  0999 V2000
    8.0884  -19.9445   21.5795 N   0  0  0  0  0  0  0  0  0  0  0  0
    6.8840  -20.5508   21.0843 C   0  0  0  0  0  0  0  0  0  0  0  0
    7.2125  -21.0462   19.6842 C   0  0  0  0  0  0  0  0  0  0  0  0
    8.2714  -20.0845   19.2618 C   0  0  0  0  0  0  0  0  0  0  0  0
    8.9941  -19.7191   20.5088 C   0  0  1  0  0  0  0  0  0  0  0  0
    9.5449  -18.3403   20.4792 C   0  0  0  0  0  0  0  0  0  0  0  0
   10.6016  -18.1364   19.8236 O   0  0  0  0  0  0  0  0  0  0  0  0
    8.9625  -17.2316   21.1396 N   0  0  0  0  0  0  0  0  0  0  0  0
    9.5201  -15.9199   21.1704 C   0  0  1  0  0  0  0  0  0  0  0  0
    8.5977  -14.8658   20.6101 C   0  0  0  0  0  0  0  0  0  0  0  0
    9.1259  -14.3601   19.2865 C   0  0  0  0  0  0  0  0  0  0  0  0
    8.0094  -13.5441   18.6637 C   0  0  0  0  0  0  0  0  0  0  0  0
    8.5045  -12.9524   17.3524 C   0  0  0  0  0  0  0  0  0  0  0  0
    7.4157  -12.1833   16.7984 N   0  0  0  0  0  0  0  0  0  0  0  0
    9.9422  -15.5226   22.5619 C   0  0  0  0  0  0  0  0  0  0  0  0
    9.0273  -15.3268   23.4010 O   0  0  0  0  0  0  0  0  0  0  0  0
    9.0047  -13.8937   29.5840 O   0  0  0  0  0  0  0  0  0  0  0  0
    9.4661  -14.5805   28.4476 C   0  0  0  0  0  0  0  0  0  0  0  0
    8.7194  -14.5692   27.3036 C   0  0  0  0  0  0  0  0  0  0  0  0
    9.1524  -15.2424   26.1585 C   0  0  0  0  0  0  0  0  0  0  0  0
   10.3390  -15.9376   26.1414 C   0  0  0  0  0  0  0  0  0  0  0  0
   10.7772  -16.6530   24.9307 C   0  0  0  0  0  0  0  0  0  0  0  0
   11.8034  -15.8574   24.1938 C   0  0  2  0  0  0  0  0  0  0  0  0
   11.2860  -15.3745   22.9183 N   0  0  0  0  0  0  0  0  0  0  0  0
   13.0735  -16.5849   24.0048 C   0  0  0  0  0  0  0  0  0  0  0  0
   14.1579  -16.1945   24.8148 O   0  0  0  0  0  0  0  0  0  0  0  0
   11.0803  -15.9308   27.3258 C   0  0  0  0  0  0  0  0  0  0  0  0
   10.6505  -15.2684   28.4456 C   0  0  0  0  0  0  0  0  0  0  0  0
   13.2625  -17.5167   23.1858 O   0  0  0  0  0  0  0  0  0  0  0  0
  1  5  1  0
  2  1  1  0
  3  2  1  0
  3  4  1  0
  4  5  1  0
  5  6  1  6
  6  7  2  0
  8  9  1  0
  8  6  1  0
  9 15  1  0
 10 11  1  0
  9 10  1  1
 11 12  1  0
 13 12  1  0
 14 13  1  0
 15 16  2  0
 15 24  1  0
 17 18  1  0
 18 19  2  0
 18 28  1  0
 19 20  1  0
 20 21  2  0
 21 22  1  0
 23 22  1  6
 23 25  1  0
 24 23  1  0
 25 29  2  0
 25 26  1  0
 27 21  1  0
 28 27  2  0
M  END
$$$$
