PKY.pdb
     RDKit          3D

 29 30  0  0  1  0  0  0  0  0999 V2000
    5.4997  -18.6400   22.4318 N   0  0  0  0  0  0  0  0  0  0  0  0
    4.1990  -18.6633   21.8225 C   0  0  0  0  0  0  0  0  0  0  0  0
    4.3881  -19.3172   20.4623 C   0  0  0  0  0  0  0  0  0  0  0  0
    5.7991  -18.9536   20.1434 C   0  0  0  0  0  0  0  0  0  0  0  0
    6.4982  -18.8945   21.4543 C   0  0  1  0  0  0  0  0  0  0  0  0
    7.6121  -17.9125   21.4758 C   0  0  0  0  0  0  0  0  0  0  0  0
    8.7649  -18.3145   21.1635 O   0  0  0  0  0  0  0  0  0  0  0  0
    7.4690  -16.5477   21.8244 N   0  0  0  0  0  0  0  0  0  0  0  0
    8.5278  -15.5931   21.8198 C   0  0  1  0  0  0  0  0  0  0  0  0
    8.2356  -14.3817   20.9695 C   0  0  0  0  0  0  0  0  0  0  0  0
    8.4773  -14.6973   19.5106 C   0  0  0  0  0  0  0  0  0  0  0  0
    8.2216  -13.4124   18.7464 C   0  0  0  0  0  0  0  0  0  0  0  0
    8.4122  -13.6769   17.2604 C   0  0  0  0  0  0  0  0  0  0  0  0
    8.0458  -12.4659   16.5654 N   0  0  0  0  0  0  0  0  0  0  0  0
    8.8867  -15.1470   23.2143 C   0  0  0  0  0  0  0  0  0  0  0  0
    8.1746  -14.2465   23.7257 O   0  0  0  0  0  0  0  0  0  0  0  0
    5.4288  -11.4066   26.4534 O   0  0  0  0  0  0  0  0  0  0  0  0
    6.2202  -12.5624   26.3361 C   0  0  0  0  0  0  0  0  0  0  0  0
    7.5599  -12.4913   26.5944 C   0  0  0  0  0  0  0  0  0  0  0  0
    8.3716  -13.6233   26.4864 C   0  0  0  0  0  0  0  0  0  0  0  0
    7.8548  -14.8433   26.1177 C   0  0  0  0  0  0  0  0  0  0  0  0
    8.7246  -16.0258   25.9960 C   0  0  0  0  0  0  0  0  0  0  0  0
   10.0310  -15.6544   25.3759 C   0  0  2  0  0  0  0  0  0  0  0  0
    9.9598  -15.7000   23.9196 N   0  0  0  0  0  0  0  0  0  0  0  0
   11.1590  -16.4659   25.8731 C   0  0  0  0  0  0  0  0  0  0  0  0
   11.4405  -16.3888   27.2513 O   0  0  0  0  0  0  0  0  0  0  0  0
    6.4821  -14.8845   25.8602 C   0  0  0  0  0  0  0  0  0  0  0  0
    5.6910  -13.7709   25.9681 C   0  0  0  0  0  0  0  0  0  0  0  0
   11.8818  -17.2135   25.1706 O   0  0  0  0  0  0  0  0  0  0  0  0
  1  5  1  0
  2  1  1  0
  3  2  1  0
  3  4  1  0
  4  5  1  0
  5  6  1  6
  6  7  2  0
  8  9  1  0
  8  6  1  0
  9 15  1  0
 10 11  1  0
  9 10  1  6
 11 12  1  0
 13 12  1  0
 14 13  1  0
 15 16  2  0
 15 24  1  0
 17 18  1  0
 18 19  2  0
 18 28  1  0
 19 20  1  0
 20 21  2  0
 21 22  1  0
 23 22  1  1
 23 25  1  0
 24 23  1  0
 25 29  2  0
 25 26  1  0
 27 21  1  0
 28 27  2  0
M  END
$$$$
