PKY.pdb
     RDKit          3D

 29 30  0  0  1  0  0  0  0  0999 V2000
    8.8352  -14.3897   19.0357 N   0  0  0  0  0  0  0  0  0  0  0  0
    8.2023  -13.8797   17.8512 C   0  0  0  0  0  0  0  0  0  0  0  0
    7.6617  -12.5082   18.2256 C   0  0  0  0  0  0  0  0  0  0  0  0
    7.4041  -12.6708   19.6857 C   0  0  0  0  0  0  0  0  0  0  0  0
    8.4372  -13.6264   20.1655 C   0  0  1  0  0  0  0  0  0  0  0  0
    7.9766  -14.4557   21.3081 C   0  0  0  0  0  0  0  0  0  0  0  0
    7.5448  -13.8659   22.3346 O   0  0  0  0  0  0  0  0  0  0  0  0
    7.9882  -15.8715   21.3253 N   0  0  0  0  0  0  0  0  0  0  0  0
    7.5486  -16.6740   22.4185 C   0  0  1  0  0  0  0  0  0  0  0  0
    7.4068  -18.1344   22.0677 C   0  0  0  0  0  0  0  0  0  0  0  0
    8.6862  -18.6489   21.4472 C   0  0  0  0  0  0  0  0  0  0  0  0
    8.4627  -20.1221   21.1646 C   0  0  0  0  0  0  0  0  0  0  0  0
    9.7146  -20.6948   20.5168 C   0  0  0  0  0  0  0  0  0  0  0  0
   10.6407  -20.9972   21.5819 N   0  0  0  0  0  0  0  0  0  0  0  0
    8.4542  -16.5357   23.6156 C   0  0  0  0  0  0  0  0  0  0  0  0
    9.6557  -16.2436   23.3907 O   0  0  0  0  0  0  0  0  0  0  0  0
    6.5709  -10.6391   25.5861 O   0  0  0  0  0  0  0  0  0  0  0  0
    6.9362  -11.9365   25.9850 C   0  0  0  0  0  0  0  0  0  0  0  0
    8.2434  -12.2104   26.2731 C   0  0  0  0  0  0  0  0  0  0  0  0
    8.6362  -13.4903   26.6723 C   0  0  0  0  0  0  0  0  0  0  0  0
    7.7269  -14.5155   26.7886 C   0  0  0  0  0  0  0  0  0  0  0  0
    8.1573  -15.8632   27.1988 C   0  0  0  0  0  0  0  0  0  0  0  0
    8.8662  -16.5509   26.0792 C   0  0  2  0  0  0  0  0  0  0  0  0
    7.9936  -16.7208   24.9227 N   0  0  0  0  0  0  0  0  0  0  0  0
    9.4669  -17.8384   26.4787 C   0  0  0  0  0  0  0  0  0  0  0  0
   10.4344  -17.7997   27.5020 O   0  0  0  0  0  0  0  0  0  0  0  0
    6.3983  -14.2049   26.4874 C   0  0  0  0  0  0  0  0  0  0  0  0
    6.0190  -12.9476   26.0967 C   0  0  0  0  0  0  0  0  0  0  0  0
    9.1862  -18.9564   25.9828 O   0  0  0  0  0  0  0  0  0  0  0  0
  1  5  1  0
  2  1  1  0
  3  2  1  0
  3  4  1  0
  4  5  1  0
  5  6  1  1
  6  7  2  0
  8  9  1  0
  8  6  1  0
  9 15  1  0
 10 11  1  0
  9 10  1  6
 11 12  1  0
 13 12  1  0
 14 13  1  0
 15 16  2  0
 15 24  1  0
 17 18  1  0
 18 19  2  0
 18 28  1  0
 19 20  1  0
 20 21  2  0
 21 22  1  0
 23 22  1  1
 23 25  1  0
 24 23  1  0
 25 29  2  0
 25 26  1  0
 27 21  1  0
 28 27  2  0
M  END
$$$$
