PKY.pdb
     RDKit          3D

 29 30  0  0  1  0  0  0  0  0999 V2000
    8.7943  -14.6668   19.1820 N   0  0  0  0  0  0  0  0  0  0  0  0
    8.3273  -14.1052   17.9451 C   0  0  0  0  0  0  0  0  0  0  0  0
    7.8204  -12.7121   18.2854 C   0  0  0  0  0  0  0  0  0  0  0  0
    7.3909  -12.8826   19.7036 C   0  0  0  0  0  0  0  0  0  0  0  0
    8.3115  -13.9002   20.2760 C   0  0  1  0  0  0  0  0  0  0  0  0
    7.6817  -14.7205   21.3418 C   0  0  0  0  0  0  0  0  0  0  0  0
    7.1222  -14.1224   22.2995 O   0  0  0  0  0  0  0  0  0  0  0  0
    7.6652  -16.1361   21.3576 N   0  0  0  0  0  0  0  0  0  0  0  0
    7.0488  -16.9299   22.3686 C   0  0  1  0  0  0  0  0  0  0  0  0
    6.8815  -18.3761   21.9729 C   0  0  0  0  0  0  0  0  0  0  0  0
    6.1400  -18.4753   20.6588 C   0  0  0  0  0  0  0  0  0  0  0  0
    6.0650  -19.9518   20.3200 C   0  0  0  0  0  0  0  0  0  0  0  0
    5.4723  -20.1080   18.9275 C   0  0  0  0  0  0  0  0  0  0  0  0
    5.4497  -21.5213   18.6343 N   0  0  0  0  0  0  0  0  0  0  0  0
    7.7976  -16.8552   23.6747 C   0  0  0  0  0  0  0  0  0  0  0  0
    9.0522  -16.8196   23.6112 O   0  0  0  0  0  0  0  0  0  0  0  0
    6.9780  -10.3058   26.0578 O   0  0  0  0  0  0  0  0  0  0  0  0
    6.9581  -11.6828   26.3394 C   0  0  0  0  0  0  0  0  0  0  0  0
    8.0879  -12.4266   26.1469 C   0  0  0  0  0  0  0  0  0  0  0  0
    8.0984  -13.7971   26.4183 C   0  0  0  0  0  0  0  0  0  0  0  0
    6.9783  -14.4438   26.8858 C   0  0  0  0  0  0  0  0  0  0  0  0
    7.0003  -15.8916   27.1560 C   0  0  0  0  0  0  0  0  0  0  0  0
    7.8575  -16.5984   26.1586 C   0  0  2  0  0  0  0  0  0  0  0  0
    7.1408  -16.8259   24.9087 N   0  0  0  0  0  0  0  0  0  0  0  0
    8.4275  -17.8580   26.6749 C   0  0  0  0  0  0  0  0  0  0  0  0
    7.8749  -19.0565   26.1821 O   0  0  0  0  0  0  0  0  0  0  0  0
    5.8389  -13.6569   27.0726 C   0  0  0  0  0  0  0  0  0  0  0  0
    5.8348  -12.3131   26.8050 C   0  0  0  0  0  0  0  0  0  0  0  0
    9.3585  -17.9453   27.5117 O   0  0  0  0  0  0  0  0  0  0  0  0
  1  5  1  0
  2  1  1  0
  3  2  1  0
  3  4  1  0
  4  5  1  0
  5  6  1  1
  6  7  2  0
  8  9  1  0
  8  6  1  0
  9 15  1  0
 10 11  1  0
  9 10  1  6
 11 12  1  0
 13 12  1  0
 14 13  1  0
 15 16  2  0
 15 24  1  0
 17 18  1  0
 18 19  2  0
 18 28  1  0
 19 20  1  0
 20 21  2  0
 21 22  1  0
 23 22  1  1
 23 25  1  0
 24 23  1  0
 25 29  2  0
 25 26  1  0
 27 21  1  0
 28 27  2  0
M  END
$$$$
