PKY.pdb
     RDKit          3D

 29 30  0  0  1  0  0  0  0  0999 V2000
    9.2396  -14.2185   17.8871 N   0  0  0  0  0  0  0  0  0  0  0  0
    8.4870  -13.8438   16.7224 C   0  0  0  0  0  0  0  0  0  0  0  0
    7.5996  -12.6865   17.1547 C   0  0  0  0  0  0  0  0  0  0  0  0
    7.4027  -12.9789   18.6039 C   0  0  0  0  0  0  0  0  0  0  0  0
    8.6571  -13.6427   19.0475 C   0  0  1  0  0  0  0  0  0  0  0  0
    8.4421  -14.6165   20.1479 C   0  0  0  0  0  0  0  0  0  0  0  0
    7.8198  -14.2278   21.1724 O   0  0  0  0  0  0  0  0  0  0  0  0
    8.8898  -15.9596   20.1267 N   0  0  0  0  0  0  0  0  0  0  0  0
    8.7616  -16.8756   21.2115 C   0  0  1  0  0  0  0  0  0  0  0  0
    9.2531  -18.2634   20.8822 C   0  0  0  0  0  0  0  0  0  0  0  0
    8.3640  -18.8976   19.8363 C   0  0  0  0  0  0  0  0  0  0  0  0
    8.9622  -20.2581   19.5338 C   0  0  0  0  0  0  0  0  0  0  0  0
    8.0389  -21.0009   18.5796 C   0  0  0  0  0  0  0  0  0  0  0  0
    8.6835  -22.2513   18.2560 N   0  0  0  0  0  0  0  0  0  0  0  0
    9.4638  -16.3801   22.4499 C   0  0  0  0  0  0  0  0  0  0  0  0
   10.6717  -16.0550   22.3286 O   0  0  0  0  0  0  0  0  0  0  0  0
   11.2141  -14.3736   30.8392 O   0  0  0  0  0  0  0  0  0  0  0  0
   10.5515  -14.5816   29.6171 C   0  0  0  0  0  0  0  0  0  0  0  0
   10.1236  -15.8365   29.2873 C   0  0  0  0  0  0  0  0  0  0  0  0
    9.4620  -16.0737   28.0799 C   0  0  0  0  0  0  0  0  0  0  0  0
    9.2193  -15.0587   27.1841 C   0  0  0  0  0  0  0  0  0  0  0  0
    8.5315  -15.3257   25.9092 C   0  0  0  0  0  0  0  0  0  0  0  0
    9.5012  -15.8058   24.8805 C   0  0  2  0  0  0  0  0  0  0  0  0
    8.8148  -16.2810   23.6843 N   0  0  0  0  0  0  0  0  0  0  0  0
   10.4311  -16.8298   25.3952 C   0  0  0  0  0  0  0  0  0  0  0  0
   10.0059  -18.1709   25.3220 O   0  0  0  0  0  0  0  0  0  0  0  0
    9.6686  -13.7871   27.5492 C   0  0  0  0  0  0  0  0  0  0  0  0
   10.3166  -13.5605   28.7350 C   0  0  0  0  0  0  0  0  0  0  0  0
   11.5620  -16.6022   25.8890 O   0  0  0  0  0  0  0  0  0  0  0  0
  1  5  1  0
  2  1  1  0
  3  2  1  0
  3  4  1  0
  4  5  1  0
  5  6  1  1
  6  7  2  0
  8  9  1  0
  8  6  1  0
  9 15  1  0
 10 11  1  0
  9 10  1  6
 11 12  1  0
 13 12  1  0
 14 13  1  0
 15 16  2  0
 15 24  1  0
 17 18  1  0
 18 19  2  0
 18 28  1  0
 19 20  1  0
 20 21  2  0
 21 22  1  0
 23 22  1  1
 23 25  1  0
 24 23  1  0
 25 29  2  0
 25 26  1  0
 27 21  1  0
 28 27  2  0
M  END
$$$$
