PKY.pdb
     RDKit          3D

 29 30  0  0  1  0  0  0  0  0999 V2000
    8.6793  -14.7221   18.2303 N   0  0  0  0  0  0  0  0  0  0  0  0
    8.0205  -14.1213   17.1040 C   0  0  0  0  0  0  0  0  0  0  0  0
    7.7555  -12.6765   17.4988 C   0  0  0  0  0  0  0  0  0  0  0  0
    7.6267  -12.7847   18.9808 C   0  0  0  0  0  0  0  0  0  0  0  0
    8.5316  -13.8961   19.3763 C   0  0  1  0  0  0  0  0  0  0  0  0
    8.0608  -14.6298   20.5786 C   0  0  0  0  0  0  0  0  0  0  0  0
    7.9630  -13.9942   21.6623 O   0  0  0  0  0  0  0  0  0  0  0  0
    7.7117  -16.0019   20.5929 N   0  0  0  0  0  0  0  0  0  0  0  0
    7.1376  -16.6822   21.7064 C   0  0  1  0  0  0  0  0  0  0  0  0
    6.8480  -18.1372   21.4324 C   0  0  0  0  0  0  0  0  0  0  0  0
    6.2187  -18.7819   22.6469 C   0  0  0  0  0  0  0  0  0  0  0  0
    5.8849  -20.2073   22.2503 C   0  0  0  0  0  0  0  0  0  0  0  0
    5.2193  -20.9032   23.4282 C   0  0  0  0  0  0  0  0  0  0  0  0
    5.0096  -22.2783   23.0428 N   0  0  0  0  0  0  0  0  0  0  0  0
    8.0001  -16.5701   22.9376 C   0  0  0  0  0  0  0  0  0  0  0  0
    9.1788  -16.9970   22.8486 O   0  0  0  0  0  0  0  0  0  0  0  0
   11.0404  -14.7124   30.9664 O   0  0  0  0  0  0  0  0  0  0  0  0
   10.2277  -14.7644   29.8206 C   0  0  0  0  0  0  0  0  0  0  0  0
    9.4599  -15.8704   29.5883 C   0  0  0  0  0  0  0  0  0  0  0  0
    8.6422  -15.9506   28.4583 C   0  0  0  0  0  0  0  0  0  0  0  0
    8.5810  -14.9254   27.5436 C   0  0  0  0  0  0  0  0  0  0  0  0
    7.7237  -15.0287   26.3504 C   0  0  0  0  0  0  0  0  0  0  0  0
    8.3779  -15.8711   25.3057 C   0  0  2  0  0  0  0  0  0  0  0  0
    7.5251  -16.0189   24.1315 N   0  0  0  0  0  0  0  0  0  0  0  0
    8.8095  -17.1887   25.8115 C   0  0  0  0  0  0  0  0  0  0  0  0
   10.1802  -17.3434   26.0978 O   0  0  0  0  0  0  0  0  0  0  0  0
    9.3772  -13.8081   27.8084 C   0  0  0  0  0  0  0  0  0  0  0  0
   10.1769  -13.7351   28.9185 C   0  0  0  0  0  0  0  0  0  0  0  0
    8.0579  -18.1747   26.0054 O   0  0  0  0  0  0  0  0  0  0  0  0
  1  5  1  0
  2  1  1  0
  3  2  1  0
  3  4  1  0
  4  5  1  0
  5  6  1  1
  6  7  2  0
  8  9  1  0
  8  6  1  0
  9 15  1  0
 10 11  1  0
  9 10  1  6
 11 12  1  0
 13 12  1  0
 14 13  1  0
 15 16  2  0
 15 24  1  0
 17 18  1  0
 18 19  2  0
 18 28  1  0
 19 20  1  0
 20 21  2  0
 21 22  1  0
 23 22  1  1
 23 25  1  0
 24 23  1  0
 25 29  2  0
 25 26  1  0
 27 21  1  0
 28 27  2  0
M  END
$$$$
