HIN.pdb
     RDKit          3D

 27 27  0  0  1  0  0  0  0  0999 V2000
   10.6777  -15.8657   14.8389 N   0  0  0  0  0  0  0  0  0  0  0  0
   10.0310  -16.5064   15.9606 C   0  0  1  0  0  0  0  0  0  0  0  0
   10.5556  -17.9236   16.0310 C   0  0  0  0  0  0  0  0  0  0  0  0
   10.0180  -18.6605   14.8577 C   0  0  0  0  0  0  0  0  0  0  0  0
    8.6738  -18.7914   14.4968 C   0  0  0  0  0  0  0  0  0  0  0  0
    8.5687  -19.5228   13.3846 N   0  0  0  0  0  0  0  0  0  0  0  0
    9.8196  -19.8664   13.0207 C   0  0  0  0  0  0  0  0  0  0  0  0
   10.6849  -19.3468   13.9075 N   0  0  0  0  0  0  0  0  0  0  0  0
   10.2841  -15.7706   17.2304 C   0  0  0  0  0  0  0  0  0  0  0  0
   11.4757  -15.4874   17.5125 O   0  0  0  0  0  0  0  0  0  0  0  0
    6.5830  -12.1720   19.2908 C   0  0  0  0  0  0  0  0  0  0  0  0
    7.8719  -12.7911   18.9410 C   0  0  0  0  0  0  0  0  0  0  0  0
    8.3848  -13.8943   19.8129 C   0  0  2  0  0  0  0  0  0  0  0  0
    8.7251  -13.2368   21.1345 C   0  0  0  0  0  0  0  0  0  0  0  0
    9.5988  -14.6210   19.3060 C   0  0  2  0  0  0  0  0  0  0  0  0
    9.2611  -15.3912   18.1032 N   0  0  0  0  0  0  0  0  0  0  0  0
    9.9445  -15.6659   20.3138 C   0  0  0  0  0  0  0  0  0  0  0  0
    9.2484  -16.7471   20.3580 O   0  0  0  0  0  0  0  0  0  0  0  0
   13.5536  -18.5633   20.8168 N   0  0  0  0  0  0  0  0  0  0  0  0
   13.4703  -17.2187   21.2695 C   0  0  0  0  0  0  0  0  0  0  0  0
   14.0599  -16.3404   20.6082 O   0  0  0  0  0  0  0  0  0  0  0  0
   12.7162  -16.8300   22.4854 C   0  0  0  0  0  0  0  0  0  0  0  0
   11.2428  -16.7043   22.1738 C   0  0  2  0  0  0  0  0  0  0  0  0
   10.9893  -15.6014   21.2542 N   0  0  0  0  0  0  0  0  0  0  0  0
   10.5563  -16.4825   23.4828 C   0  0  0  0  0  0  0  0  0  0  0  0
   10.0798  -15.3392   23.6905 O   0  0  0  0  0  0  0  0  0  0  0  0
   10.4158  -17.4403   24.4611 O   0  0  0  0  0  0  0  0  0  0  0  0
  2  1  1  6
  3  2  1  0
  4  3  1  0
  5  4  2  0
  6  7  1  0
  6  5  1  0
  7  8  2  0
  8  4  1  0
  9 16  1  0
  9  2  1  0
 10  9  2  0
 11 12  1  0
 13 15  1  0
 13 12  1  0
 13 14  1  1
 15 16  1  6
 17 18  2  0
 17 15  1  0
 20 19  1  0
 20 21  2  0
 23 22  1  1
 22 20  1  0
 23 24  1  0
 24 17  1  0
 25 23  1  0
 26 25  2  0
 27 25  1  0
M  END
$$$$
