HIN.pdb
     RDKit          3D

 27 27  0  0  1  0  0  0  0  0999 V2000
   10.0701  -14.5331   20.9303 N   0  0  0  0  0  0  0  0  0  0  0  0
    8.7579  -14.3431   21.5039 C   0  0  1  0  0  0  0  0  0  0  0  0
    7.8157  -15.2876   20.7906 C   0  0  0  0  0  0  0  0  0  0  0  0
    7.6927  -14.8224   19.3845 C   0  0  0  0  0  0  0  0  0  0  0  0
    8.4166  -13.7913   18.7786 C   0  0  0  0  0  0  0  0  0  0  0  0
    8.0386  -13.6551   17.5052 N   0  0  0  0  0  0  0  0  0  0  0  0
    7.0845  -14.5787   17.2777 C   0  0  0  0  0  0  0  0  0  0  0  0
    6.8808  -15.2761   18.4080 N   0  0  0  0  0  0  0  0  0  0  0  0
    8.7631  -14.5888   22.9728 C   0  0  0  0  0  0  0  0  0  0  0  0
    9.7841  -15.1272   23.4702 O   0  0  0  0  0  0  0  0  0  0  0  0
    6.2741  -10.9040   26.2429 C   0  0  0  0  0  0  0  0  0  0  0  0
    7.2452  -11.8920   25.7453 C   0  0  0  0  0  0  0  0  0  0  0  0
    6.9342  -13.3441   25.9331 C   0  0  2  0  0  0  0  0  0  0  0  0
    6.9894  -13.5766   27.4290 C   0  0  0  0  0  0  0  0  0  0  0  0
    7.8685  -14.3082   25.2576 C   0  0  2  0  0  0  0  0  0  0  0  0
    7.6915  -14.2476   23.8019 N   0  0  0  0  0  0  0  0  0  0  0  0
    7.4203  -15.6859   25.6150 C   0  0  0  0  0  0  0  0  0  0  0  0
    6.3807  -16.1754   25.0361 O   0  0  0  0  0  0  0  0  0  0  0  0
    6.6077  -17.7686   23.3326 N   0  0  0  0  0  0  0  0  0  0  0  0
    7.2594  -18.7318   24.1496 C   0  0  0  0  0  0  0  0  0  0  0  0
    6.8175  -19.8984   24.1455 O   0  0  0  0  0  0  0  0  0  0  0  0
    8.4313  -18.4008   24.9952 C   0  0  0  0  0  0  0  0  0  0  0  0
    7.9835  -17.9927   26.3797 C   0  0  2  0  0  0  0  0  0  0  0  0
    8.0331  -16.5449   26.5459 N   0  0  0  0  0  0  0  0  0  0  0  0
    8.9066  -18.6765   27.3359 C   0  0  0  0  0  0  0  0  0  0  0  0
    8.7057  -19.8980   27.5479 O   0  0  0  0  0  0  0  0  0  0  0  0
    9.9486  -18.0592   27.9894 O   0  0  0  0  0  0  0  0  0  0  0  0
  2  1  1  6
  3  2  1  0
  4  3  1  0
  5  4  2  0
  6  7  1  0
  6  5  1  0
  7  8  2  0
  8  4  1  0
  9 16  1  0
  9  2  1  0
 10  9  2  0
 11 12  1  0
 13 15  1  0
 13 12  1  0
 13 14  1  1
 15 16  1  6
 17 18  2  0
 17 15  1  0
 20 19  1  0
 20 21  2  0
 23 22  1  6
 22 20  1  0
 23 24  1  0
 24 17  1  0
 25 23  1  0
 26 25  2  0
 27 25  1  0
M  END
$$$$
