HIN.pdb
     RDKit          3D

 27 27  0  0  1  0  0  0  0  0999 V2000
   10.0076  -13.7397   20.4183 N   0  0  0  0  0  0  0  0  0  0  0  0
    8.8176  -14.0827   21.1622 C   0  0  1  0  0  0  0  0  0  0  0  0
    8.2155  -15.3055   20.5060 C   0  0  0  0  0  0  0  0  0  0  0  0
    7.7404  -14.9032   19.1565 C   0  0  0  0  0  0  0  0  0  0  0  0
    7.9780  -13.6837   18.5157 C   0  0  0  0  0  0  0  0  0  0  0  0
    7.3959  -13.6783   17.3139 N   0  0  0  0  0  0  0  0  0  0  0  0
    6.7872  -14.8713   17.1670 C   0  0  0  0  0  0  0  0  0  0  0  0
    6.9969  -15.6020   18.2748 N   0  0  0  0  0  0  0  0  0  0  0  0
    9.1241  -14.3329   22.5980 C   0  0  0  0  0  0  0  0  0  0  0  0
   10.2895  -14.7023   22.8895 O   0  0  0  0  0  0  0  0  0  0  0  0
    6.0744  -11.5902   26.3680 C   0  0  0  0  0  0  0  0  0  0  0  0
    7.2267  -12.1656   25.6551 C   0  0  0  0  0  0  0  0  0  0  0  0
    7.5619  -13.6038   25.8999 C   0  0  2  0  0  0  0  0  0  0  0  0
    8.0370  -13.6666   27.3369 C   0  0  0  0  0  0  0  0  0  0  0  0
    8.6230  -14.1907   25.0121 C   0  0  2  0  0  0  0  0  0  0  0  0
    8.1778  -14.1741   23.6136 N   0  0  0  0  0  0  0  0  0  0  0  0
    8.7219  -15.6436   25.3382 C   0  0  0  0  0  0  0  0  0  0  0  0
    7.6618  -16.3707   25.2830 O   0  0  0  0  0  0  0  0  0  0  0  0
   12.2033  -17.8310   23.4527 N   0  0  0  0  0  0  0  0  0  0  0  0
   11.1505  -18.4737   24.1587 C   0  0  0  0  0  0  0  0  0  0  0  0
   10.2656  -19.0495   23.4941 O   0  0  0  0  0  0  0  0  0  0  0  0
   11.0698  -18.4826   25.6391 C   0  0  0  0  0  0  0  0  0  0  0  0
    9.8397  -17.7381   26.1041 C   0  0  2  0  0  0  0  0  0  0  0  0
    9.8897  -16.3355   25.7088 N   0  0  0  0  0  0  0  0  0  0  0  0
    9.8045  -17.8773   27.5919 C   0  0  0  0  0  0  0  0  0  0  0  0
    9.6267  -19.0321   28.0527 O   0  0  0  0  0  0  0  0  0  0  0  0
    9.9530  -16.8331   28.4760 O   0  0  0  0  0  0  0  0  0  0  0  0
  2  1  1  6
  3  2  1  0
  4  3  1  0
  5  4  2  0
  6  7  1  0
  6  5  1  0
  7  8  2  0
  8  4  1  0
  9 16  1  0
  9  2  1  0
 10  9  2  0
 11 12  1  0
 13 15  1  0
 13 12  1  0
 13 14  1  1
 15 16  1  6
 17 18  2  0
 17 15  1  0
 20 19  1  0
 20 21  2  0
 23 22  1  1
 22 20  1  0
 23 24  1  0
 24 17  1  0
 25 23  1  0
 26 25  2  0
 27 25  1  0
M  END
$$$$
