HIN.pdb
     RDKit          3D

 27 27  0  0  1  0  0  0  0  0999 V2000
    9.1709  -15.3347   20.3916 N   0  0  0  0  0  0  0  0  0  0  0  0
    8.3280  -15.7430   21.4915 C   0  0  1  0  0  0  0  0  0  0  0  0
    8.2562  -17.2539   21.4644 C   0  0  0  0  0  0  0  0  0  0  0  0
    7.4792  -17.6452   20.2594 C   0  0  0  0  0  0  0  0  0  0  0  0
    7.0203  -16.7959   19.2483 C   0  0  0  0  0  0  0  0  0  0  0  0
    6.3593  -17.4996   18.3259 N   0  0  0  0  0  0  0  0  0  0  0  0
    6.3828  -18.7870   18.7225 C   0  0  0  0  0  0  0  0  0  0  0  0
    7.0557  -18.8688   19.8826 N   0  0  0  0  0  0  0  0  0  0  0  0
    8.8523  -15.2481   22.7946 C   0  0  0  0  0  0  0  0  0  0  0  0
   10.0993  -15.1624   22.9265 O   0  0  0  0  0  0  0  0  0  0  0  0
    5.9753  -11.8330   26.1077 C   0  0  0  0  0  0  0  0  0  0  0  0
    7.1396  -12.4582   25.4592 C   0  0  0  0  0  0  0  0  0  0  0  0
    7.6199  -13.7738   25.9874 C   0  0  2  0  0  0  0  0  0  0  0  0
    8.2490  -13.4623   27.3298 C   0  0  0  0  0  0  0  0  0  0  0  0
    8.6266  -14.4950   25.1357 C   0  0  2  0  0  0  0  0  0  0  0  0
    8.0208  -14.8825   23.8562 N   0  0  0  0  0  0  0  0  0  0  0  0
    8.9199  -15.7980   25.8013 C   0  0  0  0  0  0  0  0  0  0  0  0
    7.9431  -16.5761   26.1110 O   0  0  0  0  0  0  0  0  0  0  0  0
   11.0053  -18.3304   24.1830 N   0  0  0  0  0  0  0  0  0  0  0  0
   12.0194  -18.3894   25.1771 C   0  0  0  0  0  0  0  0  0  0  0  0
   13.1786  -18.6746   24.8150 O   0  0  0  0  0  0  0  0  0  0  0  0
   11.7491  -18.1266   26.6110 C   0  0  0  0  0  0  0  0  0  0  0  0
   10.3499  -17.5855   26.7928 C   0  0  2  0  0  0  0  0  0  0  0  0
   10.1938  -16.2927   26.1368 N   0  0  0  0  0  0  0  0  0  0  0  0
   10.1347  -17.4706   28.2674 C   0  0  0  0  0  0  0  0  0  0  0  0
   10.1482  -16.3142   28.7575 O   0  0  0  0  0  0  0  0  0  0  0  0
    9.9255  -18.5385   29.1100 O   0  0  0  0  0  0  0  0  0  0  0  0
  2  1  1  6
  3  2  1  0
  4  3  1  0
  5  4  2  0
  6  7  1  0
  6  5  1  0
  7  8  2  0
  8  4  1  0
  9 16  1  0
  9  2  1  0
 10  9  2  0
 11 12  1  0
 13 15  1  0
 13 12  1  0
 13 14  1  1
 15 16  1  6
 17 18  2  0
 17 15  1  0
 20 19  1  0
 20 21  2  0
 23 22  1  1
 22 20  1  0
 23 24  1  0
 24 17  1  0
 25 23  1  0
 26 25  2  0
 27 25  1  0
M  END
$$$$
