HIN.pdb
     RDKit          3D

 27 27  0  0  1  0  0  0  0  0999 V2000
    9.5725  -17.9407   17.6660 N   0  0  0  0  0  0  0  0  0  0  0  0
   10.8698  -17.4125   18.0196 C   0  0  1  0  0  0  0  0  0  0  0  0
   11.4779  -16.8365   16.7599 C   0  0  0  0  0  0  0  0  0  0  0  0
   11.5566  -17.9311   15.7577 C   0  0  0  0  0  0  0  0  0  0  0  0
   11.9773  -19.2446   15.9857 C   0  0  0  0  0  0  0  0  0  0  0  0
   11.9158  -19.9471   14.8517 N   0  0  0  0  0  0  0  0  0  0  0  0
   11.4634  -19.1119   13.8962 C   0  0  0  0  0  0  0  0  0  0  0  0
   11.2495  -17.9042   14.4449 N   0  0  0  0  0  0  0  0  0  0  0  0
   10.7672  -16.3841   19.0918 C   0  0  0  0  0  0  0  0  0  0  0  0
   11.8304  -15.8359   19.4774 O   0  0  0  0  0  0  0  0  0  0  0  0
    6.5601  -12.7680   19.9433 C   0  0  0  0  0  0  0  0  0  0  0  0
    7.9142  -13.3453   19.9522 C   0  0  0  0  0  0  0  0  0  0  0  0
    8.2150  -14.4244   20.9450 C   0  0  2  0  0  0  0  0  0  0  0  0
    8.1338  -13.7561   22.3020 C   0  0  0  0  0  0  0  0  0  0  0  0
    9.5581  -15.0852   20.8094 C   0  0  2  0  0  0  0  0  0  0  0  0
    9.5517  -16.0143   19.6732 N   0  0  0  0  0  0  0  0  0  0  0  0
    9.7388  -15.9725   21.9955 C   0  0  0  0  0  0  0  0  0  0  0  0
    9.0008  -17.0201   22.1112 O   0  0  0  0  0  0  0  0  0  0  0  0
   13.9133  -17.8264   22.8342 N   0  0  0  0  0  0  0  0  0  0  0  0
   12.8600  -18.0425   23.7635 C   0  0  0  0  0  0  0  0  0  0  0  0
   12.4575  -19.2114   23.9311 O   0  0  0  0  0  0  0  0  0  0  0  0
   12.2319  -16.9400   24.5302 C   0  0  0  0  0  0  0  0  0  0  0  0
   10.7895  -16.7645   24.1149 C   0  0  2  0  0  0  0  0  0  0  0  0
   10.6642  -15.7880   23.0393 N   0  0  0  0  0  0  0  0  0  0  0  0
   10.0543  -16.3169   25.3369 C   0  0  0  0  0  0  0  0  0  0  0  0
    9.8401  -15.0849   25.4544 O   0  0  0  0  0  0  0  0  0  0  0  0
    9.6038  -17.1593   26.3275 O   0  0  0  0  0  0  0  0  0  0  0  0
  2  1  1  6
  3  2  1  0
  4  3  1  0
  5  4  2  0
  6  7  1  0
  6  5  1  0
  7  8  2  0
  8  4  1  0
  9 16  1  0
  9  2  1  0
 10  9  2  0
 11 12  1  0
 13 15  1  0
 13 12  1  0
 13 14  1  1
 15 16  1  6
 17 18  2  0
 17 15  1  0
 20 19  1  0
 20 21  2  0
 23 22  1  1
 22 20  1  0
 23 24  1  0
 24 17  1  0
 25 23  1  0
 26 25  2  0
 27 25  1  0
M  END
$$$$
