HIN.pdb
     RDKit          3D

 27 27  0  0  1  0  0  0  0  0999 V2000
    9.2603  -15.1465   20.2545 N   0  0  0  0  0  0  0  0  0  0  0  0
    8.3146  -15.5733   21.2598 C   0  0  1  0  0  0  0  0  0  0  0  0
    8.1844  -17.0760   21.1437 C   0  0  0  0  0  0  0  0  0  0  0  0
    7.5067  -17.3699   19.8541 C   0  0  0  0  0  0  0  0  0  0  0  0
    7.2347  -16.4618   18.8266 C   0  0  0  0  0  0  0  0  0  0  0  0
    6.6141  -17.0831   17.8206 N   0  0  0  0  0  0  0  0  0  0  0  0
    6.4803  -18.3748   18.1794 C   0  0  0  0  0  0  0  0  0  0  0  0
    7.0173  -18.5414   19.3997 N   0  0  0  0  0  0  0  0  0  0  0  0
    8.7504  -15.1704   22.6257 C   0  0  0  0  0  0  0  0  0  0  0  0
    9.9800  -15.2150   22.8822 O   0  0  0  0  0  0  0  0  0  0  0  0
    5.7005  -11.6691   25.7011 C   0  0  0  0  0  0  0  0  0  0  0  0
    6.8481  -12.3538   25.0837 C   0  0  0  0  0  0  0  0  0  0  0  0
    7.3310  -13.6254   25.7085 C   0  0  2  0  0  0  0  0  0  0  0  0
    7.9119  -13.2200   27.0474 C   0  0  0  0  0  0  0  0  0  0  0  0
    8.3751  -14.3813   24.9356 C   0  0  2  0  0  0  0  0  0  0  0  0
    7.8556  -14.7523   23.6140 N   0  0  0  0  0  0  0  0  0  0  0  0
    8.5745  -15.6914   25.6217 C   0  0  0  0  0  0  0  0  0  0  0  0
    7.5616  -16.4643   25.8008 O   0  0  0  0  0  0  0  0  0  0  0  0
   12.2686  -17.9333   24.0959 N   0  0  0  0  0  0  0  0  0  0  0  0
   11.1489  -18.3712   24.8539 C   0  0  0  0  0  0  0  0  0  0  0  0
   10.1814  -18.8630   24.2388 O   0  0  0  0  0  0  0  0  0  0  0  0
   11.0930  -18.2642   26.3316 C   0  0  0  0  0  0  0  0  0  0  0  0
    9.8598  -17.5021   26.7584 C   0  0  2  0  0  0  0  0  0  0  0  0
    9.7933  -16.1982   26.1092 N   0  0  0  0  0  0  0  0  0  0  0  0
    9.9495  -17.3603   28.2436 C   0  0  0  0  0  0  0  0  0  0  0  0
   10.0873  -16.1977   28.6983 O   0  0  0  0  0  0  0  0  0  0  0  0
    9.8911  -18.4102   29.1316 O   0  0  0  0  0  0  0  0  0  0  0  0
  2  1  1  6
  3  2  1  0
  4  3  1  0
  5  4  2  0
  6  7  1  0
  6  5  1  0
  7  8  2  0
  8  4  1  0
  9 16  1  0
  9  2  1  0
 10  9  2  0
 11 12  1  0
 13 15  1  0
 13 12  1  0
 13 14  1  1
 15 16  1  6
 17 18  2  0
 17 15  1  0
 20 19  1  0
 20 21  2  0
 23 22  1  6
 22 20  1  0
 23 24  1  0
 24 17  1  0
 25 23  1  0
 26 25  2  0
 27 25  1  0
M  END
$$$$
