HIN.pdb
     RDKit          3D

 27 27  0  0  1  0  0  0  0  0999 V2000
    7.4194  -15.9560   21.4388 N   0  0  0  0  0  0  0  0  0  0  0  0
    8.3118  -14.8200   21.4306 C   0  0  1  0  0  0  0  0  0  0  0  0
    7.5526  -13.6577   20.8296 C   0  0  0  0  0  0  0  0  0  0  0  0
    7.5915  -13.8117   19.3519 C   0  0  0  0  0  0  0  0  0  0  0  0
    8.2103  -12.9538   18.4380 C   0  0  0  0  0  0  0  0  0  0  0  0
    8.0389  -13.4104   17.1949 N   0  0  0  0  0  0  0  0  0  0  0  0
    7.3212  -14.5467   17.2893 C   0  0  0  0  0  0  0  0  0  0  0  0
    7.0555  -14.7828   18.5850 N   0  0  0  0  0  0  0  0  0  0  0  0
    8.7999  -14.4989   22.8005 C   0  0  0  0  0  0  0  0  0  0  0  0
    9.7831  -13.7225   22.9019 O   0  0  0  0  0  0  0  0  0  0  0  0
    6.1348  -12.1325   26.4703 C   0  0  0  0  0  0  0  0  0  0  0  0
    7.2802  -12.7101   25.7482 C   0  0  0  0  0  0  0  0  0  0  0  0
    7.7550  -14.0713   26.1511 C   0  0  2  0  0  0  0  0  0  0  0  0
    8.3369  -13.8994   27.5390 C   0  0  0  0  0  0  0  0  0  0  0  0
    8.7954  -14.6932   25.2625 C   0  0  2  0  0  0  0  0  0  0  0  0
    8.2132  -15.0215   23.9558 N   0  0  0  0  0  0  0  0  0  0  0  0
    9.1397  -16.0234   25.8446 C   0  0  0  0  0  0  0  0  0  0  0  0
    8.2084  -16.8971   26.0025 O   0  0  0  0  0  0  0  0  0  0  0  0
   11.0300  -18.6832   24.1819 N   0  0  0  0  0  0  0  0  0  0  0  0
   12.1490  -18.5419   25.0465 C   0  0  0  0  0  0  0  0  0  0  0  0
   13.2892  -18.6306   24.5481 O   0  0  0  0  0  0  0  0  0  0  0  0
   12.0085  -18.2959   26.5018 C   0  0  0  0  0  0  0  0  0  0  0  0
   10.6251  -17.7758   26.8171 C   0  0  2  0  0  0  0  0  0  0  0  0
   10.4181  -16.4479   26.2514 N   0  0  0  0  0  0  0  0  0  0  0  0
   10.5185  -17.7487   28.3077 C   0  0  0  0  0  0  0  0  0  0  0  0
   10.5303  -16.6208   28.8600 O   0  0  0  0  0  0  0  0  0  0  0  0
   10.4098  -18.8677   29.1016 O   0  0  0  0  0  0  0  0  0  0  0  0
  2  1  1  1
  3  2  1  0
  4  3  1  0
  5  4  2  0
  6  7  1  0
  6  5  1  0
  7  8  2  0
  8  4  1  0
  9 16  1  0
  9  2  1  0
 10  9  2  0
 11 12  1  0
 13 15  1  0
 13 12  1  0
 13 14  1  1
 15 16  1  6
 17 18  2  0
 17 15  1  0
 20 19  1  0
 20 21  2  0
 23 22  1  1
 22 20  1  0
 23 24  1  0
 24 17  1  0
 25 23  1  0
 26 25  2  0
 27 25  1  0
M  END
$$$$
