HIN.pdb
     RDKit          3D

 27 27  0  0  1  0  0  0  0  0999 V2000
    9.0653  -17.2284   15.0160 N   0  0  0  0  0  0  0  0  0  0  0  0
    8.3214  -17.3870   16.2442 C   0  0  1  0  0  0  0  0  0  0  0  0
    8.2185  -18.8713   16.5176 C   0  0  0  0  0  0  0  0  0  0  0  0
    7.2801  -19.4479   15.5197 C   0  0  0  0  0  0  0  0  0  0  0  0
    5.9452  -19.0842   15.3197 C   0  0  0  0  0  0  0  0  0  0  0  0
    5.4147  -19.8164   14.3371 N   0  0  0  0  0  0  0  0  0  0  0  0
    6.3819  -20.6457   13.8990 C   0  0  0  0  0  0  0  0  0  0  0  0
    7.4986  -20.4206   14.6116 N   0  0  0  0  0  0  0  0  0  0  0  0
    8.9748  -16.6712   17.3750 C   0  0  0  0  0  0  0  0  0  0  0  0
   10.2142  -16.8206   17.5211 O   0  0  0  0  0  0  0  0  0  0  0  0
    7.9688  -11.7534   21.0748 C   0  0  0  0  0  0  0  0  0  0  0  0
    8.7783  -12.8845   20.5928 C   0  0  0  0  0  0  0  0  0  0  0  0
    8.1572  -13.8302   19.6129 C   0  0  2  0  0  0  0  0  0  0  0  0
    6.9260  -14.3762   20.3064 C   0  0  0  0  0  0  0  0  0  0  0  0
    9.0184  -14.9818   19.1758 C   0  0  2  0  0  0  0  0  0  0  0  0
    8.2704  -15.8542   18.2628 N   0  0  0  0  0  0  0  0  0  0  0  0
    9.2564  -15.8388   20.3740 C   0  0  0  0  0  0  0  0  0  0  0  0
    8.4418  -16.8024   20.6257 O   0  0  0  0  0  0  0  0  0  0  0  0
   13.3543  -17.3533   20.4182 N   0  0  0  0  0  0  0  0  0  0  0  0
   12.3984  -17.8455   21.3476 C   0  0  0  0  0  0  0  0  0  0  0  0
   11.9272  -18.9844   21.1555 O   0  0  0  0  0  0  0  0  0  0  0  0
   11.9485  -17.0608   22.5224 C   0  0  0  0  0  0  0  0  0  0  0  0
   10.4957  -16.6730   22.3719 C   0  0  2  0  0  0  0  0  0  0  0  0
   10.3149  -15.7098   21.2922 N   0  0  0  0  0  0  0  0  0  0  0  0
   10.0795  -16.0939   23.6854 C   0  0  0  0  0  0  0  0  0  0  0  0
    9.9104  -14.8503   23.7327 O   0  0  0  0  0  0  0  0  0  0  0  0
    9.8730  -16.8288   24.8306 O   0  0  0  0  0  0  0  0  0  0  0  0
  2  1  1  6
  3  2  1  0
  4  3  1  0
  5  4  2  0
  6  7  1  0
  6  5  1  0
  7  8  2  0
  8  4  1  0
  9 16  1  0
  9  2  1  0
 10  9  2  0
 11 12  1  0
 13 15  1  0
 13 12  1  0
 13 14  1  1
 15 16  1  6
 17 18  2  0
 17 15  1  0
 20 19  1  0
 20 21  2  0
 23 22  1  1
 22 20  1  0
 23 24  1  0
 24 17  1  0
 25 23  1  0
 26 25  2  0
 27 25  1  0
M  END
$$$$
