HIN.pdb
     RDKit          3D

 27 27  0  0  1  0  0  0  0  0999 V2000
    9.9420  -14.0781   20.5703 N   0  0  0  0  0  0  0  0  0  0  0  0
    8.7153  -14.0959   21.3333 C   0  0  1  0  0  0  0  0  0  0  0  0
    7.8318  -15.1692   20.7368 C   0  0  0  0  0  0  0  0  0  0  0  0
    7.4825  -14.7470   19.3553 C   0  0  0  0  0  0  0  0  0  0  0  0
    7.5201  -13.4466   18.8437 C   0  0  0  0  0  0  0  0  0  0  0  0
    7.1392  -13.4482   17.5639 N   0  0  0  0  0  0  0  0  0  0  0  0
    6.8565  -14.7249   17.2397 C   0  0  0  0  0  0  0  0  0  0  0  0
    7.0640  -15.4998   18.3176 N   0  0  0  0  0  0  0  0  0  0  0  0
    8.9743  -14.3474   22.7781 C   0  0  0  0  0  0  0  0  0  0  0  0
   10.1187  -14.7528   23.1033 O   0  0  0  0  0  0  0  0  0  0  0  0
    5.7600  -11.7907   26.6004 C   0  0  0  0  0  0  0  0  0  0  0  0
    6.9590  -12.3001   25.9149 C   0  0  0  0  0  0  0  0  0  0  0  0
    7.2922  -13.7521   26.0606 C   0  0  2  0  0  0  0  0  0  0  0  0
    7.7037  -13.9267   27.5079 C   0  0  0  0  0  0  0  0  0  0  0  0
    8.3952  -14.2642   25.1775 C   0  0  2  0  0  0  0  0  0  0  0  0
    8.0065  -14.1519   23.7667 N   0  0  0  0  0  0  0  0  0  0  0  0
    8.4987  -15.7357   25.4035 C   0  0  0  0  0  0  0  0  0  0  0  0
    7.4232  -16.4414   25.4318 O   0  0  0  0  0  0  0  0  0  0  0  0
   10.1031  -18.5629   23.2279 N   0  0  0  0  0  0  0  0  0  0  0  0
   11.1443  -18.4506   24.1888 C   0  0  0  0  0  0  0  0  0  0  0  0
   12.2997  -18.2238   23.7766 O   0  0  0  0  0  0  0  0  0  0  0  0
   10.9063  -18.5920   25.6453 C   0  0  0  0  0  0  0  0  0  0  0  0
    9.6524  -17.8513   26.0486 C   0  0  2  0  0  0  0  0  0  0  0  0
    9.6860  -16.4671   25.5914 N   0  0  0  0  0  0  0  0  0  0  0  0
    9.5854  -17.9243   27.5400 C   0  0  0  0  0  0  0  0  0  0  0  0
    9.9145  -16.8931   28.1769 O   0  0  0  0  0  0  0  0  0  0  0  0
    9.1909  -19.0361   28.2488 O   0  0  0  0  0  0  0  0  0  0  0  0
  2  1  1  6
  3  2  1  0
  4  3  1  0
  5  4  2  0
  6  7  1  0
  6  5  1  0
  7  8  2  0
  8  4  1  0
  9 16  1  0
  9  2  1  0
 10  9  2  0
 11 12  1  0
 13 15  1  0
 13 12  1  0
 13 14  1  1
 15 16  1  6
 17 18  2  0
 17 15  1  0
 20 19  1  0
 20 21  2  0
 23 22  1  1
 22 20  1  0
 23 24  1  0
 24 17  1  0
 25 23  1  0
 26 25  2  0
 27 25  1  0
M  END
$$$$
