HIN.pdb
     RDKit          3D

 27 27  0  0  1  0  0  0  0  0999 V2000
    9.1911  -15.9205   20.6590 N   0  0  0  0  0  0  0  0  0  0  0  0
    8.4259  -16.3236   21.8161 C   0  0  1  0  0  0  0  0  0  0  0  0
    8.4397  -17.8357   21.8582 C   0  0  0  0  0  0  0  0  0  0  0  0
    7.6334  -18.3245   20.7094 C   0  0  0  0  0  0  0  0  0  0  0  0
    7.0332  -17.5440   19.7169 C   0  0  0  0  0  0  0  0  0  0  0  0
    6.3897  -18.3268   18.8473 N   0  0  0  0  0  0  0  0  0  0  0  0
    6.5632  -19.5976   19.2596 C   0  0  0  0  0  0  0  0  0  0  0  0
    7.3097  -19.5906   20.3767 N   0  0  0  0  0  0  0  0  0  0  0  0
    8.9819  -15.7409   23.0688 C   0  0  0  0  0  0  0  0  0  0  0  0
   10.2323  -15.6656   23.1718 O   0  0  0  0  0  0  0  0  0  0  0  0
    5.9476  -12.1366   25.9418 C   0  0  0  0  0  0  0  0  0  0  0  0
    7.1844  -12.7077   25.3839 C   0  0  0  0  0  0  0  0  0  0  0  0
    7.7903  -13.8896   26.0742 C   0  0  2  0  0  0  0  0  0  0  0  0
    8.4551  -13.3325   27.3160 C   0  0  0  0  0  0  0  0  0  0  0  0
    8.8093  -14.6606   25.2829 C   0  0  2  0  0  0  0  0  0  0  0  0
    8.1760  -15.2835   24.1146 N   0  0  0  0  0  0  0  0  0  0  0  0
    9.2363  -15.8207   26.1188 C   0  0  0  0  0  0  0  0  0  0  0  0
    8.3618  -16.6996   26.4626 O   0  0  0  0  0  0  0  0  0  0  0  0
   13.7026  -18.9719   28.7769 N   0  0  0  0  0  0  0  0  0  0  0  0
   12.5198  -18.9353   27.9898 C   0  0  0  0  0  0  0  0  0  0  0  0
   11.7291  -19.8963   28.0760 O   0  0  0  0  0  0  0  0  0  0  0  0
   12.1986  -17.8082   27.0818 C   0  0  0  0  0  0  0  0  0  0  0  0
   10.8309  -17.2493   27.3992 C   0  0  2  0  0  0  0  0  0  0  0  0
   10.5388  -16.0739   26.5873 N   0  0  0  0  0  0  0  0  0  0  0  0
   10.8463  -16.9083   28.8544 C   0  0  0  0  0  0  0  0  0  0  0  0
   11.0411  -15.7048   29.1562 O   0  0  0  0  0  0  0  0  0  0  0  0
   10.6628  -17.8187   29.8701 O   0  0  0  0  0  0  0  0  0  0  0  0
  2  1  1  6
  3  2  1  0
  4  3  1  0
  5  4  2  0
  6  7  1  0
  6  5  1  0
  7  8  2  0
  8  4  1  0
  9 16  1  0
  9  2  1  0
 10  9  2  0
 11 12  1  0
 13 15  1  0
 13 12  1  0
 13 14  1  1
 15 16  1  6
 17 18  2  0
 17 15  1  0
 20 19  1  0
 20 21  2  0
 23 22  1  6
 22 20  1  0
 23 24  1  0
 24 17  1  0
 25 23  1  0
 26 25  2  0
 27 25  1  0
M  END
$$$$
