HIN.pdb
     RDKit          3D

 27 27  0  0  1  0  0  0  0  0999 V2000
   10.5712  -18.0040   16.9261 N   0  0  0  0  0  0  0  0  0  0  0  0
    9.5480  -18.0321   17.9455 C   0  0  1  0  0  0  0  0  0  0  0  0
    9.5164  -19.4351   18.5105 C   0  0  0  0  0  0  0  0  0  0  0  0
    8.8741  -20.3129   17.4976 C   0  0  0  0  0  0  0  0  0  0  0  0
    8.3925  -19.9282   16.2429 C   0  0  0  0  0  0  0  0  0  0  0  0
    7.8811  -20.9849   15.6065 N   0  0  0  0  0  0  0  0  0  0  0  0
    8.0236  -22.0442   16.4267 C   0  0  0  0  0  0  0  0  0  0  0  0
    8.6196  -21.6357   17.5595 N   0  0  0  0  0  0  0  0  0  0  0  0
    9.8099  -17.0244   19.0103 C   0  0  0  0  0  0  0  0  0  0  0  0
   10.9987  -16.8716   19.3887 O   0  0  0  0  0  0  0  0  0  0  0  0
    6.9881  -12.2686   19.4132 C   0  0  0  0  0  0  0  0  0  0  0  0
    8.0932  -13.2369   19.5023 C   0  0  0  0  0  0  0  0  0  0  0  0
    8.1136  -14.1798   20.6647 C   0  0  2  0  0  0  0  0  0  0  0  0
    8.3706  -13.3134   21.8804 C   0  0  0  0  0  0  0  0  0  0  0  0
    9.1538  -15.2634   20.6127 C   0  0  2  0  0  0  0  0  0  0  0  0
    8.7980  -16.2568   19.5926 N   0  0  0  0  0  0  0  0  0  0  0  0
    9.0698  -16.0221   21.8949 C   0  0  0  0  0  0  0  0  0  0  0  0
    8.1077  -16.8593   22.0645 O   0  0  0  0  0  0  0  0  0  0  0  0
   12.5094  -19.7988   24.1987 N   0  0  0  0  0  0  0  0  0  0  0  0
   11.1850  -19.3233   23.9989 C   0  0  0  0  0  0  0  0  0  0  0  0
   10.2614  -19.8828   24.6234 O   0  0  0  0  0  0  0  0  0  0  0  0
   10.8688  -18.1993   23.0852 C   0  0  0  0  0  0  0  0  0  0  0  0
   10.2178  -17.0682   23.8471 C   0  0  2  0  0  0  0  0  0  0  0  0
    9.9615  -15.9249   22.9791 N   0  0  0  0  0  0  0  0  0  0  0  0
   11.1626  -16.7076   24.9477 C   0  0  0  0  0  0  0  0  0  0  0  0
   12.1015  -15.9246   24.6598 O   0  0  0  0  0  0  0  0  0  0  0  0
   11.0689  -17.1738   26.2392 O   0  0  0  0  0  0  0  0  0  0  0  0
  2  1  1  6
  3  2  1  0
  4  3  1  0
  5  4  2  0
  6  7  1  0
  6  5  1  0
  7  8  2  0
  8  4  1  0
  9 16  1  0
  9  2  1  0
 10  9  2  0
 11 12  1  0
 13 15  1  0
 13 12  1  0
 13 14  1  1
 15 16  1  6
 17 18  2  0
 17 15  1  0
 20 19  1  0
 20 21  2  0
 23 22  1  6
 22 20  1  0
 23 24  1  0
 24 17  1  0
 25 23  1  0
 26 25  2  0
 27 25  1  0
M  END
$$$$
