LFS.pdb
     RDKit          3D

 26 26  0  0  1  0  0  0  0  0999 V2000
   27.6137  -18.8897  -18.3484 C   0  0  0  0  0  0  0  0  0  0  0  0
   28.0928  -19.5935  -17.0876 C   0  0  1  0  0  0  0  0  0  0  0  0
   28.4185  -18.5049  -16.0834 C   0  0  0  0  0  0  0  0  0  0  0  0
   27.0186  -20.4671  -16.5016 C   0  0  0  0  0  0  0  0  0  0  0  0
   27.4402  -21.0359  -15.1609 C   0  0  2  0  0  0  0  0  0  0  0  0
   28.1307  -22.2821  -15.2883 N   0  0  0  0  0  0  0  0  0  0  0  0
   26.2395  -21.2154  -14.3119 C   0  0  0  0  0  0  0  0  0  0  0  0
   25.6414  -22.3064  -14.3353 O   0  0  0  0  0  0  0  0  0  0  0  0
   25.7515  -20.1832  -13.4745 N   0  0  0  0  0  0  0  0  0  0  0  0
   24.6399  -20.4222  -12.6218 C   0  0  1  0  0  0  0  0  0  0  0  0
   24.6004  -19.5742  -11.3861 C   0  0  0  0  0  0  0  0  0  0  0  0
   25.3364  -20.1446  -10.2496 C   0  0  0  0  0  0  0  0  0  0  0  0
   24.7033  -20.5942   -9.1095 C   0  0  0  0  0  0  0  0  0  0  0  0
   25.4227  -21.1335   -8.0395 C   0  0  0  0  0  0  0  0  0  0  0  0
   26.7915  -21.2289   -8.1002 C   0  0  0  0  0  0  0  0  0  0  0  0
   27.4379  -20.7833   -9.2339 C   0  0  0  0  0  0  0  0  0  0  0  0
   26.7156  -20.2533  -10.2823 C   0  0  0  0  0  0  0  0  0  0  0  0
   23.3841  -20.1171  -13.3939 C   0  0  0  0  0  0  0  0  0  0  0  0
   23.1946  -18.9727  -13.9080 O   0  0  0  0  0  0  0  0  0  0  0  0
   20.6616  -23.1923  -14.0763 O   0  0  0  0  0  0  0  0  0  0  0  0
   20.8389  -22.1972  -15.0174 C   0  0  0  0  0  0  0  0  0  0  0  0
   21.1847  -20.8693  -14.3869 C   0  0  2  0  0  0  0  0  0  0  0  0
   22.3724  -21.0764  -13.5797 N   0  0  0  0  0  0  0  0  0  0  0  0
   20.0843  -20.5213  -13.4533 C   0  0  0  0  0  0  0  0  0  0  0  0
   18.8053  -20.1646  -13.8474 O   0  0  0  0  0  0  0  0  0  0  0  0
   20.3304  -20.5528  -12.2226 O   0  0  0  0  0  0  0  0  0  0  0  0
  2  1  1  6
  2  4  1  0
  2  3  1  0
  5  4  1  0
  5  6  1  6
  7  5  1  0
  8  7  2  0
  9  7  1  0
 10  9  1  0
 10 11  1  1
 11 12  1  0
 12 17  2  0
 13 12  1  0
 13 14  2  0
 14 15  1  0
 15 16  2  0
 17 16  1  0
 18 23  1  0
 18 10  1  0
 19 18  2  0
 20 21  1  0
 22 21  1  1
 22 24  1  0
 22 23  1  0
 24 25  1  0
 26 24  2  0
M  END
$$$$
