LFS.pdb
     RDKit          3D

 26 26  0  0  1  0  0  0  0  0999 V2000
   28.7317  -25.6347  -18.3340 C   0  0  0  0  0  0  0  0  0  0  0  0
   28.1550  -24.2346  -18.1881 C   0  0  1  0  0  0  0  0  0  0  0  0
   27.2846  -23.9974  -19.4071 C   0  0  0  0  0  0  0  0  0  0  0  0
   27.2900  -24.1192  -16.9637 C   0  0  0  0  0  0  0  0  0  0  0  0
   26.7657  -22.7073  -16.7896 C   0  0  2  0  0  0  0  0  0  0  0  0
   27.7763  -21.7182  -17.0043 N   0  0  0  0  0  0  0  0  0  0  0  0
   26.2083  -22.5628  -15.4245 C   0  0  0  0  0  0  0  0  0  0  0  0
   25.3581  -23.3812  -15.0300 O   0  0  0  0  0  0  0  0  0  0  0  0
   26.6136  -21.5214  -14.5549 N   0  0  0  0  0  0  0  0  0  0  0  0
   26.0244  -21.3974  -13.2676 C   0  0  1  0  0  0  0  0  0  0  0  0
   26.8483  -20.6427  -12.2680 C   0  0  0  0  0  0  0  0  0  0  0  0
   26.2634  -20.6071  -10.9207 C   0  0  0  0  0  0  0  0  0  0  0  0
   26.1662  -21.7313  -10.1271 C   0  0  0  0  0  0  0  0  0  0  0  0
   25.6061  -21.6755   -8.8479 C   0  0  0  0  0  0  0  0  0  0  0  0
   25.1348  -20.4866   -8.3469 C   0  0  0  0  0  0  0  0  0  0  0  0
   25.2254  -19.3546   -9.1291 C   0  0  0  0  0  0  0  0  0  0  0  0
   25.7804  -19.4240  -10.3897 C   0  0  0  0  0  0  0  0  0  0  0  0
   24.7302  -20.6430  -13.4163 C   0  0  0  0  0  0  0  0  0  0  0  0
   24.7092  -19.4694  -13.8980 O   0  0  0  0  0  0  0  0  0  0  0  0
   20.0831  -20.8648  -14.2090 O   0  0  0  0  0  0  0  0  0  0  0  0
   21.3611  -21.3705  -14.0748 C   0  0  0  0  0  0  0  0  0  0  0  0
   22.2179  -20.5243  -13.1635 C   0  0  2  0  0  0  0  0  0  0  0  0
   23.4961  -21.1981  -13.0323 N   0  0  0  0  0  0  0  0  0  0  0  0
   21.5843  -20.5366  -11.8210 C   0  0  0  0  0  0  0  0  0  0  0  0
   21.7177  -21.5630  -10.9007 O   0  0  0  0  0  0  0  0  0  0  0  0
   20.8795  -19.5489  -11.4987 O   0  0  0  0  0  0  0  0  0  0  0  0
  2  1  1  6
  2  4  1  0
  2  3  1  0
  5  4  1  0
  5  6  1  1
  7  5  1  0
  8  7  2  0
  9  7  1  0
 10  9  1  0
 10 11  1  1
 11 12  1  0
 12 17  2  0
 13 12  1  0
 13 14  2  0
 14 15  1  0
 15 16  2  0
 17 16  1  0
 18 23  1  0
 18 10  1  0
 19 18  2  0
 20 21  1  0
 22 21  1  6
 22 24  1  0
 22 23  1  0
 24 25  1  0
 26 24  2  0
M  END
$$$$
