LFS.pdb
     RDKit          3D

 26 26  0  0  1  0  0  0  0  0999 V2000
   16.0964  -26.4906   -3.0462 C   0  0  0  0  0  0  0  0  0  0  0  0
   15.1367  -25.3487   -3.3455 C   0  0  1  0  0  0  0  0  0  0  0  0
   13.7366  -25.9145   -3.2065 C   0  0  0  0  0  0  0  0  0  0  0  0
   15.2899  -24.2260   -2.3571 C   0  0  0  0  0  0  0  0  0  0  0  0
   14.3035  -23.1085   -2.6342 C   0  0  2  0  0  0  0  0  0  0  0  0
   14.5097  -22.5017   -3.9129 N   0  0  0  0  0  0  0  0  0  0  0  0
   14.4216  -22.0838   -1.5708 C   0  0  0  0  0  0  0  0  0  0  0  0
   15.2491  -21.1646   -1.7077 O   0  0  0  0  0  0  0  0  0  0  0  0
   13.6214  -22.1184   -0.4031 N   0  0  0  0  0  0  0  0  0  0  0  0
   13.6718  -21.0460    0.5280 C   0  0  1  0  0  0  0  0  0  0  0  0
   12.3358  -20.5740    1.0178 C   0  0  0  0  0  0  0  0  0  0  0  0
   11.7290  -19.5316    0.1787 C   0  0  0  0  0  0  0  0  0  0  0  0
   11.7978  -18.1917    0.4992 C   0  0  0  0  0  0  0  0  0  0  0  0
   11.2135  -17.2159   -0.3131 C   0  0  0  0  0  0  0  0  0  0  0  0
   10.5505  -17.5737   -1.4615 C   0  0  0  0  0  0  0  0  0  0  0  0
   10.4738  -18.9097   -1.7945 C   0  0  0  0  0  0  0  0  0  0  0  0
   11.0549  -19.8620   -0.9838 C   0  0  0  0  0  0  0  0  0  0  0  0
   14.4338  -21.5136    1.7391 C   0  0  0  0  0  0  0  0  0  0  0  0
   14.4795  -22.7433    2.0482 O   0  0  0  0  0  0  0  0  0  0  0  0
   17.3301  -20.0410    5.3961 O   0  0  0  0  0  0  0  0  0  0  0  0
   16.6051  -19.7897    4.2479 C   0  0  0  0  0  0  0  0  0  0  0  0
   15.8495  -21.0072    3.7711 C   0  0  2  0  0  0  0  0  0  0  0  0
   15.1239  -20.6184    2.5763 N   0  0  0  0  0  0  0  0  0  0  0  0
   14.8349  -21.3326    4.8048 C   0  0  0  0  0  0  0  0  0  0  0  0
   15.0545  -22.1777    5.8800 O   0  0  0  0  0  0  0  0  0  0  0  0
   13.7006  -20.8055    4.6963 O   0  0  0  0  0  0  0  0  0  0  0  0
  2  1  1  1
  2  4  1  0
  2  3  1  0
  5  4  1  0
  5  6  1  6
  7  5  1  0
  8  7  2  0
  9  7  1  0
 10  9  1  0
 10 11  1  1
 11 12  1  0
 12 17  2  0
 13 12  1  0
 13 14  2  0
 14 15  1  0
 15 16  2  0
 17 16  1  0
 18 23  1  0
 18 10  1  0
 19 18  2  0
 20 21  1  0
 22 21  1  1
 22 24  1  0
 22 23  1  0
 24 25  1  0
 26 24  2  0
M  END
$$$$
