LFS.pdb
     RDKit          3D

 26 26  0  0  1  0  0  0  0  0999 V2000
   22.5757  -20.0040  -14.2868 C   0  0  0  0  0  0  0  0  0  0  0  0
   24.0395  -20.3602  -14.0747 C   0  0  1  0  0  0  0  0  0  0  0  0
   24.8417  -19.1297  -14.4515 C   0  0  0  0  0  0  0  0  0  0  0  0
   24.3251  -20.6844  -12.6346 C   0  0  0  0  0  0  0  0  0  0  0  0
   25.8002  -20.9546  -12.4119 C   0  0  2  0  0  0  0  0  0  0  0  0
   26.2563  -22.1131  -13.1160 N   0  0  0  0  0  0  0  0  0  0  0  0
   26.0480  -21.1231  -10.9610 C   0  0  0  0  0  0  0  0  0  0  0  0
   26.0018  -22.2653  -10.4695 O   0  0  0  0  0  0  0  0  0  0  0  0
   26.3357  -20.0237  -10.1163 N   0  0  0  0  0  0  0  0  0  0  0  0
   26.6482  -20.2392   -8.7468 C   0  0  1  0  0  0  0  0  0  0  0  0
   27.4439  -19.1439   -8.1026 C   0  0  0  0  0  0  0  0  0  0  0  0
   27.8251  -19.4248   -6.7117 C   0  0  0  0  0  0  0  0  0  0  0  0
   27.2125  -18.8109   -5.6390 C   0  0  0  0  0  0  0  0  0  0  0  0
   27.5905  -19.0926   -4.3233 C   0  0  0  0  0  0  0  0  0  0  0  0
   28.5917  -19.9972   -4.0664 C   0  0  0  0  0  0  0  0  0  0  0  0
   29.2130  -20.6186   -5.1292 C   0  0  0  0  0  0  0  0  0  0  0  0
   28.8300  -20.3312   -6.4224 C   0  0  0  0  0  0  0  0  0  0  0  0
   25.3554  -20.3392   -7.9822 C   0  0  0  0  0  0  0  0  0  0  0  0
   24.4448  -19.4665   -8.1205 O   0  0  0  0  0  0  0  0  0  0  0  0
   24.5166  -23.7053   -5.4910 O   0  0  0  0  0  0  0  0  0  0  0  0
   23.5891  -23.0478   -6.2749 C   0  0  0  0  0  0  0  0  0  0  0  0
   23.8579  -21.5639   -6.3552 C   0  0  2  0  0  0  0  0  0  0  0  0
   25.0987  -21.3940   -7.0877 N   0  0  0  0  0  0  0  0  0  0  0  0
   24.1039  -21.0821   -4.9728 C   0  0  0  0  0  0  0  0  0  0  0  0
   25.3594  -20.9230   -4.4100 O   0  0  0  0  0  0  0  0  0  0  0  0
   23.1053  -20.7996   -4.2663 O   0  0  0  0  0  0  0  0  0  0  0  0
  2  1  1  1
  2  4  1  0
  2  3  1  0
  5  4  1  0
  5  6  1  6
  7  5  1  0
  8  7  2  0
  9  7  1  0
 10  9  1  0
 10 11  1  1
 11 12  1  0
 12 17  2  0
 13 12  1  0
 13 14  2  0
 14 15  1  0
 15 16  2  0
 17 16  1  0
 18 23  1  0
 18 10  1  0
 19 18  2  0
 20 21  1  0
 22 21  1  1
 22 24  1  0
 22 23  1  0
 24 25  1  0
 26 24  2  0
M  END
$$$$
