LFS.pdb
     RDKit          3D

 26 26  0  0  1  0  0  0  0  0999 V2000
   26.7178  -18.7637  -16.0985 C   0  0  0  0  0  0  0  0  0  0  0  0
   27.1383  -18.4087  -14.6802 C   0  0  1  0  0  0  0  0  0  0  0  0
   26.5036  -17.0680  -14.3650 C   0  0  0  0  0  0  0  0  0  0  0  0
   26.6292  -19.4149  -13.6857 C   0  0  0  0  0  0  0  0  0  0  0  0
   27.7337  -20.3484  -13.2305 C   0  0  2  0  0  0  0  0  0  0  0  0
   27.8329  -21.5178  -14.0482 N   0  0  0  0  0  0  0  0  0  0  0  0
   27.4855  -20.7426  -11.8242 C   0  0  0  0  0  0  0  0  0  0  0  0
   26.8755  -21.8022  -11.5931 O   0  0  0  0  0  0  0  0  0  0  0  0
   27.9215  -19.9502  -10.7347 N   0  0  0  0  0  0  0  0  0  0  0  0
   27.6541  -20.3623   -9.4011 C   0  0  1  0  0  0  0  0  0  0  0  0
   28.5633  -19.7721   -8.3654 C   0  0  0  0  0  0  0  0  0  0  0  0
   28.1513  -20.0521   -6.9832 C   0  0  0  0  0  0  0  0  0  0  0  0
   28.4551  -21.2378   -6.3470 C   0  0  0  0  0  0  0  0  0  0  0  0
   28.0534  -21.4840   -5.0312 C   0  0  0  0  0  0  0  0  0  0  0  0
   27.3390  -20.5401   -4.3346 C   0  0  0  0  0  0  0  0  0  0  0  0
   27.0280  -19.3500   -4.9580 C   0  0  0  0  0  0  0  0  0  0  0  0
   27.4308  -19.1203   -6.2568 C   0  0  0  0  0  0  0  0  0  0  0  0
   26.2576  -19.9254   -9.0476 C   0  0  0  0  0  0  0  0  0  0  0  0
   25.9225  -18.7027   -9.0987 O   0  0  0  0  0  0  0  0  0  0  0  0
   23.3194  -20.9371  -10.6164 O   0  0  0  0  0  0  0  0  0  0  0  0
   23.0100  -21.2243   -9.3015 C   0  0  0  0  0  0  0  0  0  0  0  0
   23.8992  -20.4847   -8.3304 C   0  0  2  0  0  0  0  0  0  0  0  0
   25.2689  -20.8426   -8.6482 N   0  0  0  0  0  0  0  0  0  0  0  0
   23.6173  -21.0198   -6.9747 C   0  0  0  0  0  0  0  0  0  0  0  0
   22.4030  -20.8960   -6.3201 O   0  0  0  0  0  0  0  0  0  0  0  0
   24.5432  -21.6258   -6.3817 O   0  0  0  0  0  0  0  0  0  0  0  0
  2  1  1  6
  2  4  1  0
  2  3  1  0
  5  4  1  0
  5  6  1  6
  7  5  1  0
  8  7  2  0
  9  7  1  0
 10  9  1  0
 10 11  1  1
 11 12  1  0
 12 17  2  0
 13 12  1  0
 13 14  2  0
 14 15  1  0
 15 16  2  0
 17 16  1  0
 18 23  1  0
 18 10  1  0
 19 18  2  0
 20 21  1  0
 22 21  1  6
 22 24  1  0
 22 23  1  0
 24 25  1  0
 26 24  2  0
M  END
$$$$
