LFS.pdb
     RDKit          3D

 26 26  0  0  1  0  0  0  0  0999 V2000
   27.0806  -20.3292  -20.4946 C   0  0  0  0  0  0  0  0  0  0  0  0
   27.7126  -19.9048  -19.1774 C   0  0  1  0  0  0  0  0  0  0  0  0
   27.7819  -18.3901  -19.2006 C   0  0  0  0  0  0  0  0  0  0  0  0
   26.8701  -20.3186  -18.0028 C   0  0  0  0  0  0  0  0  0  0  0  0
   27.6456  -21.2129  -17.0554 C   0  0  2  0  0  0  0  0  0  0  0  0
   27.9655  -22.4795  -17.6378 N   0  0  0  0  0  0  0  0  0  0  0  0
   26.8499  -21.4175  -15.8225 C   0  0  0  0  0  0  0  0  0  0  0  0
   26.0276  -22.3505  -15.7828 O   0  0  0  0  0  0  0  0  0  0  0  0
   26.9968  -20.5835  -14.6877 N   0  0  0  0  0  0  0  0  0  0  0  0
   26.2455  -20.8434  -13.5096 C   0  0  1  0  0  0  0  0  0  0  0  0
   26.7999  -20.2270  -12.2605 C   0  0  0  0  0  0  0  0  0  0  0  0
   25.9817  -20.4687  -11.0643 C   0  0  0  0  0  0  0  0  0  0  0  0
   24.9521  -19.6301  -10.6911 C   0  0  0  0  0  0  0  0  0  0  0  0
   24.1858  -19.8785   -9.5489 C   0  0  0  0  0  0  0  0  0  0  0  0
   24.4440  -20.9757   -8.7640 C   0  0  0  0  0  0  0  0  0  0  0  0
   25.4705  -21.8228   -9.1250 C   0  0  0  0  0  0  0  0  0  0  0  0
   26.2186  -21.5657  -10.2545 C   0  0  0  0  0  0  0  0  0  0  0  0
   24.8668  -20.2692  -13.6980 C   0  0  0  0  0  0  0  0  0  0  0  0
   24.7036  -19.0536  -14.0228 O   0  0  0  0  0  0  0  0  0  0  0  0
   21.8258  -22.5065  -14.8959 O   0  0  0  0  0  0  0  0  0  0  0  0
   21.7531  -21.1275  -14.8854 C   0  0  0  0  0  0  0  0  0  0  0  0
   22.3537  -20.5329  -13.6338 C   0  0  2  0  0  0  0  0  0  0  0  0
   23.7066  -21.0454  -13.5246 N   0  0  0  0  0  0  0  0  0  0  0  0
   21.5939  -21.0718  -12.4779 C   0  0  0  0  0  0  0  0  0  0  0  0
   20.2866  -20.7318  -12.1720 O   0  0  0  0  0  0  0  0  0  0  0  0
   22.1769  -21.8916  -11.7267 O   0  0  0  0  0  0  0  0  0  0  0  0
  2  1  1  6
  2  4  1  0
  2  3  1  0
  5  4  1  0
  5  6  1  6
  7  5  1  0
  8  7  2  0
  9  7  1  0
 10  9  1  0
 10 11  1  1
 11 12  1  0
 12 17  2  0
 13 12  1  0
 13 14  2  0
 14 15  1  0
 15 16  2  0
 17 16  1  0
 18 23  1  0
 18 10  1  0
 19 18  2  0
 20 21  1  0
 22 21  1  6
 22 24  1  0
 22 23  1  0
 24 25  1  0
 26 24  2  0
M  END
$$$$
