LFS.pdb
     RDKit          3D

 26 26  0  0  1  0  0  0  0  0999 V2000
   22.1574  -20.5131  -13.7832 C   0  0  0  0  0  0  0  0  0  0  0  0
   23.6769  -20.5025  -13.7086 C   0  0  1  0  0  0  0  0  0  0  0  0
   24.1056  -19.0547  -13.8493 C   0  0  0  0  0  0  0  0  0  0  0  0
   24.1675  -21.0108  -12.3813 C   0  0  0  0  0  0  0  0  0  0  0  0
   25.6652  -20.8233  -12.2380 C   0  0  2  0  0  0  0  0  0  0  0  0
   26.4101  -21.7117  -13.0757 N   0  0  0  0  0  0  0  0  0  0  0  0
   26.0464  -21.0354  -10.8222 C   0  0  0  0  0  0  0  0  0  0  0  0
   26.1817  -22.1986  -10.4014 O   0  0  0  0  0  0  0  0  0  0  0  0
   26.2616  -19.9547   -9.9331 N   0  0  0  0  0  0  0  0  0  0  0  0
   26.6750  -20.2025   -8.5962 C   0  0  1  0  0  0  0  0  0  0  0  0
   27.3977  -19.0650   -7.9394 C   0  0  0  0  0  0  0  0  0  0  0  0
   27.9341  -19.3891   -6.6105 C   0  0  0  0  0  0  0  0  0  0  0  0
   28.8701  -20.3830   -6.4134 C   0  0  0  0  0  0  0  0  0  0  0  0
   29.3674  -20.6753   -5.1403 C   0  0  0  0  0  0  0  0  0  0  0  0
   28.9301  -19.9713   -4.0450 C   0  0  0  0  0  0  0  0  0  0  0  0
   27.9945  -18.9748   -4.2271 C   0  0  0  0  0  0  0  0  0  0  0  0
   27.5123  -18.6970   -5.4889 C   0  0  0  0  0  0  0  0  0  0  0  0
   25.4462  -20.4675   -7.7681 C   0  0  0  0  0  0  0  0  0  0  0  0
   24.3868  -19.7895   -7.9348 O   0  0  0  0  0  0  0  0  0  0  0  0
   24.2041  -24.1559   -6.4975 O   0  0  0  0  0  0  0  0  0  0  0  0
   24.4331  -23.2242   -5.5042 C   0  0  0  0  0  0  0  0  0  0  0  0
   24.2441  -21.8082   -5.9941 C   0  0  2  0  0  0  0  0  0  0  0  0
   25.4151  -21.4689   -6.7808 N   0  0  0  0  0  0  0  0  0  0  0  0
   24.2532  -20.9218   -4.8032 C   0  0  0  0  0  0  0  0  0  0  0  0
   25.3432  -20.7430   -3.9676 O   0  0  0  0  0  0  0  0  0  0  0  0
   23.2008  -20.2917   -4.5360 O   0  0  0  0  0  0  0  0  0  0  0  0
  2  1  1  1
  2  4  1  0
  2  3  1  0
  5  4  1  0
  5  6  1  6
  7  5  1  0
  8  7  2  0
  9  7  1  0
 10  9  1  0
 10 11  1  1
 11 12  1  0
 12 17  2  0
 13 12  1  0
 13 14  2  0
 14 15  1  0
 15 16  2  0
 17 16  1  0
 18 23  1  0
 18 10  1  0
 19 18  2  0
 20 21  1  0
 22 21  1  1
 22 24  1  0
 22 23  1  0
 24 25  1  0
 26 24  2  0
M  END
$$$$
