LFS.pdb
     RDKit          3D

 26 26  0  0  1  0  0  0  0  0999 V2000
   18.9237  -12.3770  -20.6874 C   0  0  0  0  0  0  0  0  0  0  0  0
   20.2461  -11.8715  -20.1304 C   0  0  1  0  0  0  0  0  0  0  0  0
   20.6022  -10.6298  -20.9248 C   0  0  0  0  0  0  0  0  0  0  0  0
   20.1227  -11.4838  -18.6829 C   0  0  0  0  0  0  0  0  0  0  0  0
   21.4084  -10.8698  -18.1646 C   0  0  2  0  0  0  0  0  0  0  0  0
   22.4047  -11.8533  -17.8715 N   0  0  0  0  0  0  0  0  0  0  0  0
   21.1116  -10.0817  -16.9458 C   0  0  0  0  0  0  0  0  0  0  0  0
   20.7115  -10.6736  -15.9270 O   0  0  0  0  0  0  0  0  0  0  0  0
   21.2693   -8.6752  -16.9048 N   0  0  0  0  0  0  0  0  0  0  0  0
   20.9871   -7.9604  -15.7093 C   0  0  1  0  0  0  0  0  0  0  0  0
   22.1748   -7.3020  -15.0740 C   0  0  0  0  0  0  0  0  0  0  0  0
   23.2712   -8.2283  -14.7601 C   0  0  0  0  0  0  0  0  0  0  0  0
   24.4137   -8.3091  -15.5290 C   0  0  0  0  0  0  0  0  0  0  0  0
   25.4452   -9.1975  -15.2126 C   0  0  0  0  0  0  0  0  0  0  0  0
   25.3429  -10.0191  -14.1166 C   0  0  0  0  0  0  0  0  0  0  0  0
   24.2063   -9.9492  -13.3388 C   0  0  0  0  0  0  0  0  0  0  0  0
   23.1962   -9.0679  -13.6626 C   0  0  0  0  0  0  0  0  0  0  0  0
   20.0117   -6.8626  -16.0399 C   0  0  0  0  0  0  0  0  0  0  0  0
   20.1901   -6.1106  -17.0461 O   0  0  0  0  0  0  0  0  0  0  0  0
   16.0945   -7.3124  -15.7757 O   0  0  0  0  0  0  0  0  0  0  0  0
   16.5295   -6.2139  -15.0609 C   0  0  0  0  0  0  0  0  0  0  0  0
   17.8313   -5.6642  -15.5935 C   0  0  2  0  0  0  0  0  0  0  0  0
   18.8684   -6.6214  -15.2568 N   0  0  0  0  0  0  0  0  0  0  0  0
   18.1302   -4.4214  -14.8386 C   0  0  0  0  0  0  0  0  0  0  0  0
   17.3935   -3.2521  -14.9306 O   0  0  0  0  0  0  0  0  0  0  0  0
   19.1182   -4.4316  -14.0642 O   0  0  0  0  0  0  0  0  0  0  0  0
  2  1  1  6
  2  4  1  0
  2  3  1  0
  5  4  1  0
  5  6  1  1
  7  5  1  0
  8  7  2  0
  9  7  1  0
 10  9  1  0
 10 11  1  6
 11 12  1  0
 12 17  2  0
 13 12  1  0
 13 14  2  0
 14 15  1  0
 15 16  2  0
 17 16  1  0
 18 23  1  0
 18 10  1  0
 19 18  2  0
 20 21  1  0
 22 21  1  1
 22 24  1  0
 22 23  1  0
 24 25  1  0
 26 24  2  0
M  END
$$$$
