LFS.pdb
     RDKit          3D

 26 26  0  0  1  0  0  0  0  0999 V2000
   27.5816  -18.1505  -21.0853 C   0  0  0  0  0  0  0  0  0  0  0  0
   26.5300  -18.1678  -19.9861 C   0  0  1  0  0  0  0  0  0  0  0  0
   25.1972  -17.9052  -20.6602 C   0  0  0  0  0  0  0  0  0  0  0  0
   26.4590  -19.5099  -19.3118 C   0  0  0  0  0  0  0  0  0  0  0  0
   27.6596  -19.7411  -18.4153 C   0  0  2  0  0  0  0  0  0  0  0  0
   28.6172  -20.6272  -19.0016 N   0  0  0  0  0  0  0  0  0  0  0  0
   27.1977  -20.2920  -17.1200 C   0  0  0  0  0  0  0  0  0  0  0  0
   26.9726  -21.5124  -17.0291 O   0  0  0  0  0  0  0  0  0  0  0  0
   27.0044  -19.4720  -15.9820 N   0  0  0  0  0  0  0  0  0  0  0  0
   26.5435  -20.0401  -14.7636 C   0  0  1  0  0  0  0  0  0  0  0  0
   27.0686  -19.3814  -13.5234 C   0  0  0  0  0  0  0  0  0  0  0  0
   26.5554  -19.9657  -12.2768 C   0  0  0  0  0  0  0  0  0  0  0  0
   25.5128  -19.4024  -11.5707 C   0  0  0  0  0  0  0  0  0  0  0  0
   25.0397  -19.9747  -10.3866 C   0  0  0  0  0  0  0  0  0  0  0  0
   25.6090  -21.1236   -9.8942 C   0  0  0  0  0  0  0  0  0  0  0  0
   26.6523  -21.6978  -10.5896 C   0  0  0  0  0  0  0  0  0  0  0  0
   27.1090  -21.1225  -11.7567 C   0  0  0  0  0  0  0  0  0  0  0  0
   25.0448  -19.9045  -14.7217 C   0  0  0  0  0  0  0  0  0  0  0  0
   24.4788  -18.8098  -15.0235 O   0  0  0  0  0  0  0  0  0  0  0  0
   20.8333  -22.2180  -14.7955 O   0  0  0  0  0  0  0  0  0  0  0  0
   22.2122  -22.1689  -14.8539 C   0  0  0  0  0  0  0  0  0  0  0  0
   22.7643  -20.8935  -14.2632 C   0  0  2  0  0  0  0  0  0  0  0  0
   24.2104  -20.9740  -14.3498 N   0  0  0  0  0  0  0  0  0  0  0  0
   22.4186  -20.8872  -12.8195 C   0  0  0  0  0  0  0  0  0  0  0  0
   21.3280  -20.2275  -12.2775 O   0  0  0  0  0  0  0  0  0  0  0  0
   23.1663  -21.5233  -12.0370 O   0  0  0  0  0  0  0  0  0  0  0  0
  2  1  1  6
  2  4  1  0
  2  3  1  0
  5  4  1  0
  5  6  1  6
  7  5  1  0
  8  7  2  0
  9  7  1  0
 10  9  1  0
 10 11  1  1
 11 12  1  0
 12 17  2  0
 13 12  1  0
 13 14  2  0
 14 15  1  0
 15 16  2  0
 17 16  1  0
 18 23  1  0
 18 10  1  0
 19 18  2  0
 20 21  1  0
 22 21  1  6
 22 24  1  0
 22 23  1  0
 24 25  1  0
 26 24  2  0
M  END
$$$$
