LFS.pdb
     RDKit          3D

 26 26  0  0  1  0  0  0  0  0999 V2000
   26.4322  -37.2340  -14.2541 C   0  0  0  0  0  0  0  0  0  0  0  0
   25.2606  -36.3317  -13.8968 C   0  0  1  0  0  0  0  0  0  0  0  0
   24.4720  -37.0542  -12.8218 C   0  0  0  0  0  0  0  0  0  0  0  0
   25.7278  -35.0181  -13.3339 C   0  0  0  0  0  0  0  0  0  0  0  0
   24.5703  -34.2147  -12.7741 C   0  0  2  0  0  0  0  0  0  0  0  0
   24.0426  -33.2825  -13.7219 N   0  0  0  0  0  0  0  0  0  0  0  0
   25.0235  -33.4920  -11.5628 C   0  0  0  0  0  0  0  0  0  0  0  0
   25.6896  -32.4494  -11.6960 O   0  0  0  0  0  0  0  0  0  0  0  0
   24.7219  -33.9515  -10.2580 N   0  0  0  0  0  0  0  0  0  0  0  0
   25.0631  -33.1615   -9.1270 C   0  0  1  0  0  0  0  0  0  0  0  0
   23.8990  -32.5234   -8.4302 C   0  0  0  0  0  0  0  0  0  0  0  0
   23.2970  -31.4099   -9.1760 C   0  0  0  0  0  0  0  0  0  0  0  0
   23.8168  -30.1325   -9.1446 C   0  0  0  0  0  0  0  0  0  0  0  0
   23.2284  -29.0871   -9.8618 C   0  0  0  0  0  0  0  0  0  0  0  0
   22.1069  -29.3112  -10.6224 C   0  0  0  0  0  0  0  0  0  0  0  0
   21.5763  -30.5833  -10.6632 C   0  0  0  0  0  0  0  0  0  0  0  0
   22.1671  -31.6056   -9.9506 C   0  0  0  0  0  0  0  0  0  0  0  0
   25.7325  -34.0550   -8.1171 C   0  0  0  0  0  0  0  0  0  0  0  0
   25.3921  -35.2709   -7.9927 O   0  0  0  0  0  0  0  0  0  0  0  0
   29.0030  -34.1151   -4.4752 O   0  0  0  0  0  0  0  0  0  0  0  0
   28.3595  -33.4729   -5.5147 C   0  0  0  0  0  0  0  0  0  0  0  0
   27.3495  -34.3630   -6.1989 C   0  0  2  0  0  0  0  0  0  0  0  0
   26.7562  -33.5885   -7.2728 N   0  0  0  0  0  0  0  0  0  0  0  0
   26.2686  -34.6417   -5.2202 C   0  0  0  0  0  0  0  0  0  0  0  0
   26.1606  -35.8092   -4.4830 O   0  0  0  0  0  0  0  0  0  0  0  0
   25.3930  -33.7583   -5.0497 O   0  0  0  0  0  0  0  0  0  0  0  0
  2  1  1  1
  2  4  1  0
  2  3  1  0
  5  4  1  0
  5  6  1  6
  7  5  1  0
  8  7  2  0
  9  7  1  0
 10  9  1  0
 10 11  1  1
 11 12  1  0
 12 17  2  0
 13 12  1  0
 13 14  2  0
 14 15  1  0
 15 16  2  0
 17 16  1  0
 18 23  1  0
 18 10  1  0
 19 18  2  0
 20 21  1  0
 22 21  1  1
 22 24  1  0
 22 23  1  0
 24 25  1  0
 26 24  2  0
M  END
$$$$
