LFS.pdb
     RDKit          3D

 26 26  0  0  1  0  0  0  0  0999 V2000
   25.0956  -21.4384  -15.1539 C   0  0  0  0  0  0  0  0  0  0  0  0
   26.5475  -21.7675  -14.8407 C   0  0  1  0  0  0  0  0  0  0  0  0
   27.3747  -20.6088  -15.3629 C   0  0  0  0  0  0  0  0  0  0  0  0
   26.7801  -21.8810  -13.3596 C   0  0  0  0  0  0  0  0  0  0  0  0
   25.8165  -21.0069  -12.5811 C   0  0  2  0  0  0  0  0  0  0  0  0
   25.9435  -19.6217  -12.9142 N   0  0  0  0  0  0  0  0  0  0  0  0
   26.0552  -21.1953  -11.1312 C   0  0  0  0  0  0  0  0  0  0  0  0
   26.1220  -22.3513  -10.6757 O   0  0  0  0  0  0  0  0  0  0  0  0
   26.2097  -20.0997  -10.2476 N   0  0  0  0  0  0  0  0  0  0  0  0
   26.4921  -20.3262   -8.8733 C   0  0  1  0  0  0  0  0  0  0  0  0
   27.2925  -19.2466   -8.2087 C   0  0  0  0  0  0  0  0  0  0  0  0
   27.6802  -19.5591   -6.8264 C   0  0  0  0  0  0  0  0  0  0  0  0
   27.0320  -19.0168   -5.7362 C   0  0  0  0  0  0  0  0  0  0  0  0
   27.4171  -19.3274   -4.4291 C   0  0  0  0  0  0  0  0  0  0  0  0
   28.4613  -20.1894   -4.1986 C   0  0  0  0  0  0  0  0  0  0  0  0
   29.1187  -20.7391   -5.2790 C   0  0  0  0  0  0  0  0  0  0  0  0
   28.7282  -20.4238   -6.5635 C   0  0  0  0  0  0  0  0  0  0  0  0
   25.1833  -20.4089   -8.1343 C   0  0  0  0  0  0  0  0  0  0  0  0
   24.2445  -19.5896   -8.3735 O   0  0  0  0  0  0  0  0  0  0  0  0
   22.2491  -23.4030   -5.7991 O   0  0  0  0  0  0  0  0  0  0  0  0
   23.4728  -23.0843   -6.3541 C   0  0  0  0  0  0  0  0  0  0  0  0
   23.6649  -21.5932   -6.4968 C   0  0  2  0  0  0  0  0  0  0  0  0
   24.9421  -21.3883   -7.1539 N   0  0  0  0  0  0  0  0  0  0  0  0
   23.7881  -21.0288   -5.1293 C   0  0  0  0  0  0  0  0  0  0  0  0
   24.9785  -20.6092   -4.5590 O   0  0  0  0  0  0  0  0  0  0  0  0
   22.7416  -20.9250   -4.4437 O   0  0  0  0  0  0  0  0  0  0  0  0
  2  1  1  1
  2  4  1  0
  2  3  1  0
  5  4  1  0
  5  6  1  6
  7  5  1  0
  8  7  2  0
  9  7  1  0
 10  9  1  0
 10 11  1  1
 11 12  1  0
 12 17  2  0
 13 12  1  0
 13 14  2  0
 14 15  1  0
 15 16  2  0
 17 16  1  0
 18 23  1  0
 18 10  1  0
 19 18  2  0
 20 21  1  0
 22 21  1  1
 22 24  1  0
 22 23  1  0
 24 25  1  0
 26 24  2  0
M  END
$$$$
