LFS.pdb
     RDKit          3D

 26 26  0  0  1  0  0  0  0  0999 V2000
   24.6591  -15.0238  -15.4811 C   0  0  0  0  0  0  0  0  0  0  0  0
   25.3527  -14.0342  -16.4053 C   0  0  1  0  0  0  0  0  0  0  0  0
   24.6641  -14.1459  -17.7517 C   0  0  0  0  0  0  0  0  0  0  0  0
   25.1994  -12.6211  -15.9150 C   0  0  0  0  0  0  0  0  0  0  0  0
   25.8160  -11.6311  -16.8836 C   0  0  2  0  0  0  0  0  0  0  0  0
   27.2344  -11.7815  -16.9904 N   0  0  0  0  0  0  0  0  0  0  0  0
   25.4923  -10.2548  -16.4408 C   0  0  0  0  0  0  0  0  0  0  0  0
   25.7399   -9.9246  -15.2669 O   0  0  0  0  0  0  0  0  0  0  0  0
   24.9096   -9.3035  -17.3128 N   0  0  0  0  0  0  0  0  0  0  0  0
   24.5636   -8.0122  -16.8308 C   0  0  1  0  0  0  0  0  0  0  0  0
   24.6375   -6.9179  -17.8530 C   0  0  0  0  0  0  0  0  0  0  0  0
   24.2153   -5.6039  -17.3491 C   0  0  0  0  0  0  0  0  0  0  0  0
   22.9707   -5.0738  -17.6190 C   0  0  0  0  0  0  0  0  0  0  0  0
   22.5890   -3.8215  -17.1297 C   0  0  0  0  0  0  0  0  0  0  0  0
   23.4546   -3.0826  -16.3606 C   0  0  0  0  0  0  0  0  0  0  0  0
   24.7022   -3.6001  -16.0828 C   0  0  0  0  0  0  0  0  0  0  0  0
   25.0657   -4.8371  -16.5721 C   0  0  0  0  0  0  0  0  0  0  0  0
   23.1373   -8.0584  -16.3518 C   0  0  0  0  0  0  0  0  0  0  0  0
   22.2221   -8.5631  -17.0711 O   0  0  0  0  0  0  0  0  0  0  0  0
   20.2629   -8.2259  -12.5643 O   0  0  0  0  0  0  0  0  0  0  0  0
   21.4446   -8.3357  -13.2704 C   0  0  0  0  0  0  0  0  0  0  0  0
   21.4019   -7.5801  -14.5772 C   0  0  2  0  0  0  0  0  0  0  0  0
   22.7561   -7.5496  -15.0971 N   0  0  0  0  0  0  0  0  0  0  0  0
   21.0276   -6.1775  -14.2667 C   0  0  0  0  0  0  0  0  0  0  0  0
   19.7366   -5.6793  -14.3257 O   0  0  0  0  0  0  0  0  0  0  0  0
   21.9444   -5.3896  -13.9276 O   0  0  0  0  0  0  0  0  0  0  0  0
  2  1  1  1
  2  4  1  0
  2  3  1  0
  5  4  1  0
  5  6  1  1
  7  5  1  0
  8  7  2  0
  9  7  1  0
 10  9  1  0
 10 11  1  6
 11 12  1  0
 12 17  2  0
 13 12  1  0
 13 14  2  0
 14 15  1  0
 15 16  2  0
 17 16  1  0
 18 23  1  0
 18 10  1  0
 19 18  2  0
 20 21  1  0
 22 21  1  1
 22 24  1  0
 22 23  1  0
 24 25  1  0
 26 24  2  0
M  END
$$$$
