WSM.pdb
     RDKit          3D

 29 30  0  0  1  0  0  0  0  0999 V2000
   24.5794  -21.4961  -12.2555 N   0  0  0  0  0  0  0  0  0  0  0  0
   24.3203  -21.2506  -10.8791 C   0  0  1  0  0  0  0  0  0  0  0  0
   25.2353  -20.2445  -10.2347 C   0  0  0  0  0  0  0  0  0  0  0  0
   26.5666  -20.7713   -9.8874 C   0  0  0  0  0  0  0  0  0  0  0  0
   27.4007  -21.4549  -10.7575 C   0  0  0  0  0  0  0  0  0  0  0  0
   28.5418  -21.7794  -10.1467 N   0  0  0  0  0  0  0  0  0  0  0  0
   28.4637  -21.3151   -8.8835 C   0  0  0  0  0  0  0  0  0  0  0  0
   29.3643  -21.3866   -7.8389 C   0  0  0  0  0  0  0  0  0  0  0  0
   29.0331  -20.8239   -6.6135 C   0  0  0  0  0  0  0  0  0  0  0  0
   27.8318  -20.2073   -6.4421 C   0  0  0  0  0  0  0  0  0  0  0  0
   26.9311  -20.1303   -7.4704 C   0  0  0  0  0  0  0  0  0  0  0  0
   27.2395  -20.6804   -8.6921 C   0  0  0  0  0  0  0  0  0  0  0  0
   22.8823  -20.8815  -10.6517 C   0  0  0  0  0  0  0  0  0  0  0  0
   22.5071  -19.7009  -10.5365 O   0  0  0  0  0  0  0  0  0  0  0  0
   19.9305  -22.2900  -12.3972 O   0  0  0  0  0  0  0  0  0  0  0  0
   19.6470  -21.3863  -11.3469 C   0  0  0  0  0  0  0  0  0  0  0  0
   20.5457  -21.7517  -10.2116 C   0  0  2  0  0  0  0  0  0  0  0  0
   21.9197  -21.9329  -10.5659 N   0  0  0  0  0  0  0  0  0  0  0  0
   20.0211  -23.0086   -9.5969 C   0  0  0  0  0  0  0  0  0  0  0  0
   20.3697  -24.1134  -10.0989 O   0  0  0  0  0  0  0  0  0  0  0  0
   17.9714  -24.0699   -3.4136 C   0  0  0  0  0  0  0  0  0  0  0  0
   16.8447  -25.1482   -4.3530 S   0  0  0  0  0  0  0  0  0  0  0  0
   17.3782  -25.3299   -6.0607 C   0  0  0  0  0  0  0  0  0  0  0  0
   18.0030  -24.1116   -6.6310 C   0  0  0  0  0  0  0  0  0  0  0  0
   18.5893  -24.2771   -8.0148 C   0  0  2  0  0  0  0  0  0  0  0  0
   19.1631  -23.0321   -8.4937 N   0  0  0  0  0  0  0  0  0  0  0  0
   17.6198  -24.7386   -9.0241 C   0  0  0  0  0  0  0  0  0  0  0  0
   17.5388  -25.9532   -9.3165 O   0  0  0  0  0  0  0  0  0  0  0  0
   16.7836  -23.8499   -9.6669 O   0  0  0  0  0  0  0  0  0  0  0  0
  2  1  1  6
  2 13  1  0
  2  3  1  0
  3  4  1  0
  4  5  2  0
  4 12  1  0
  5  6  1  0
  6  7  1  0
  7  8  2  0
  8  9  1  0
 10  9  2  0
 11 10  1  0
 12 11  2  0
 12  7  1  0
 13 18  1  0
 14 13  2  0
 17 16  1  6
 16 15  1  0
 17 19  1  0
 18 17  1  0
 19 26  1  0
 19 20  2  0
 21 22  1  0
 23 24  1  0
 23 22  1  0
 25 24  1  1
 25 27  1  0
 26 25  1  0
 27 29  1  0
 28 27  2  0
M  END
$$$$
