WSM.pdb
     RDKit          3D

 29 30  0  0  1  0  0  0  0  0999 V2000
   27.5079  -22.1586  -10.8749 N   0  0  0  0  0  0  0  0  0  0  0  0
   26.4832  -21.3893  -10.2584 C   0  0  1  0  0  0  0  0  0  0  0  0
   26.9612  -20.1416   -9.5659 C   0  0  0  0  0  0  0  0  0  0  0  0
   28.0231  -20.3700   -8.5707 C   0  0  0  0  0  0  0  0  0  0  0  0
   29.2260  -21.0085   -8.8266 C   0  0  0  0  0  0  0  0  0  0  0  0
   29.9790  -21.0371   -7.7254 N   0  0  0  0  0  0  0  0  0  0  0  0
   29.2809  -20.4234   -6.7491 C   0  0  0  0  0  0  0  0  0  0  0  0
   29.5970  -20.1879   -5.4255 C   0  0  0  0  0  0  0  0  0  0  0  0
   28.6840  -19.5286   -4.6133 C   0  0  0  0  0  0  0  0  0  0  0  0
   27.4878  -19.1176   -5.1161 C   0  0  0  0  0  0  0  0  0  0  0  0
   27.1635  -19.3454   -6.4267 C   0  0  0  0  0  0  0  0  0  0  0  0
   28.0535  -19.9961   -7.2481 C   0  0  0  0  0  0  0  0  0  0  0  0
   25.3828  -21.0684  -11.2291 C   0  0  0  0  0  0  0  0  0  0  0  0
   25.6036  -20.5624  -12.3439 O   0  0  0  0  0  0  0  0  0  0  0  0
   21.4478  -21.5852   -9.9616 O   0  0  0  0  0  0  0  0  0  0  0  0
   21.7396  -22.1682  -11.2167 C   0  0  0  0  0  0  0  0  0  0  0  0
   22.9361  -21.4544  -11.7541 C   0  0  2  0  0  0  0  0  0  0  0  0
   24.0378  -21.3589  -10.8466 N   0  0  0  0  0  0  0  0  0  0  0  0
   22.5076  -20.0820  -12.1614 C   0  0  0  0  0  0  0  0  0  0  0  0
   22.5186  -19.1668  -11.2917 O   0  0  0  0  0  0  0  0  0  0  0  0
   21.8724  -14.5679  -17.7096 C   0  0  0  0  0  0  0  0  0  0  0  0
   21.8922  -16.3541  -17.3580 S   0  0  0  0  0  0  0  0  0  0  0  0
   21.6718  -16.6825  -15.6037 C   0  0  0  0  0  0  0  0  0  0  0  0
   21.7529  -18.1189  -15.2434 C   0  0  0  0  0  0  0  0  0  0  0  0
   21.6027  -18.4218  -13.7697 C   0  0  2  0  0  0  0  0  0  0  0  0
   22.0935  -19.7517  -13.4548 N   0  0  0  0  0  0  0  0  0  0  0  0
   20.2164  -18.3301  -13.2782 C   0  0  0  0  0  0  0  0  0  0  0  0
   19.4716  -19.3362  -13.2906 O   0  0  0  0  0  0  0  0  0  0  0  0
   19.7092  -17.1418  -12.7957 O   0  0  0  0  0  0  0  0  0  0  0  0
  2  1  1  6
  2 13  1  0
  2  3  1  0
  3  4  1  0
  4  5  2  0
  4 12  1  0
  5  6  1  0
  6  7  1  0
  7  8  2  0
  8  9  1  0
 10  9  2  0
 11 10  1  0
 12 11  2  0
 12  7  1  0
 13 18  1  0
 14 13  2  0
 17 16  1  1
 16 15  1  0
 17 19  1  0
 18 17  1  0
 19 26  1  0
 19 20  2  0
 21 22  1  0
 23 24  1  0
 23 22  1  0
 25 24  1  6
 25 27  1  0
 26 25  1  0
 27 29  1  0
 28 27  2  0
M  END
$$$$
