WSM.pdb
     RDKit          3D

 29 30  0  0  1  0  0  0  0  0999 V2000
   26.8405  -21.0493  -15.1971 N   0  0  0  0  0  0  0  0  0  0  0  0
   26.0520  -20.3211  -14.2645 C   0  0  1  0  0  0  0  0  0  0  0  0
   24.9134  -19.5458  -14.8707 C   0  0  0  0  0  0  0  0  0  0  0  0
   25.3113  -18.6372  -15.9599 C   0  0  0  0  0  0  0  0  0  0  0  0
   24.9822  -18.8077  -17.2951 C   0  0  0  0  0  0  0  0  0  0  0  0
   25.4733  -17.8046  -18.0252 N   0  0  0  0  0  0  0  0  0  0  0  0
   26.1220  -16.9776  -17.1811 C   0  0  0  0  0  0  0  0  0  0  0  0
   26.8075  -15.8025  -17.4186 C   0  0  0  0  0  0  0  0  0  0  0  0
   27.4027  -15.1338  -16.3572 C   0  0  0  0  0  0  0  0  0  0  0  0
   27.3121  -15.6313  -15.0935 C   0  0  0  0  0  0  0  0  0  0  0  0
   26.6350  -16.7953  -14.8459 C   0  0  0  0  0  0  0  0  0  0  0  0
   26.0379  -17.4728  -15.8827 C   0  0  0  0  0  0  0  0  0  0  0  0
   25.5591  -21.2077  -13.1567 C   0  0  0  0  0  0  0  0  0  0  0  0
   25.0337  -22.3146  -13.3723 O   0  0  0  0  0  0  0  0  0  0  0  0
   25.3186  -19.3653   -9.4172 O   0  0  0  0  0  0  0  0  0  0  0  0
   25.4454  -20.7727   -9.3601 C   0  0  0  0  0  0  0  0  0  0  0  0
   25.0066  -21.2978  -10.6874 C   0  0  2  0  0  0  0  0  0  0  0  0
   25.7041  -20.7523  -11.8109 N   0  0  0  0  0  0  0  0  0  0  0  0
   23.5446  -21.0233  -10.8293 C   0  0  0  0  0  0  0  0  0  0  0  0
   23.1788  -20.1145  -11.6258 O   0  0  0  0  0  0  0  0  0  0  0  0
   19.5843  -22.8254  -14.7856 C   0  0  0  0  0  0  0  0  0  0  0  0
   18.7054  -23.2729  -13.2552 S   0  0  0  0  0  0  0  0  0  0  0  0
   19.2286  -22.2496  -11.8720 C   0  0  0  0  0  0  0  0  0  0  0  0
   20.6621  -22.3961  -11.5208 C   0  0  0  0  0  0  0  0  0  0  0  0
   21.1456  -21.4988  -10.4040 C   0  0  2  0  0  0  0  0  0  0  0  0
   22.5544  -21.7173  -10.1281 N   0  0  0  0  0  0  0  0  0  0  0  0
   20.4114  -21.6708   -9.1379 C   0  0  0  0  0  0  0  0  0  0  0  0
   20.9289  -22.2963   -8.1848 O   0  0  0  0  0  0  0  0  0  0  0  0
   19.1448  -21.1504   -8.9729 O   0  0  0  0  0  0  0  0  0  0  0  0
  2  1  1  6
  2 13  1  0
  2  3  1  0
  3  4  1  0
  4  5  2  0
  4 12  1  0
  5  6  1  0
  6  7  1  0
  7  8  2  0
  8  9  1  0
 10  9  2  0
 11 10  1  0
 12 11  2  0
 12  7  1  0
 13 18  1  0
 14 13  2  0
 17 16  1  1
 16 15  1  0
 17 19  1  0
 18 17  1  0
 19 26  1  0
 19 20  2  0
 21 22  1  0
 23 24  1  0
 23 22  1  0
 25 24  1  6
 25 27  1  0
 26 25  1  0
 27 29  1  0
 28 27  2  0
M  END
$$$$
