WSM.pdb
     RDKit          3D

 29 30  0  0  1  0  0  0  0  0999 V2000
   17.8724   -9.4846  -12.0058 N   0  0  0  0  0  0  0  0  0  0  0  0
   16.7469   -8.9827  -11.2964 C   0  0  1  0  0  0  0  0  0  0  0  0
   16.3318   -9.8068  -10.1076 C   0  0  0  0  0  0  0  0  0  0  0  0
   15.4895  -10.9687  -10.4402 C   0  0  0  0  0  0  0  0  0  0  0  0
   15.9509  -12.1476  -11.0037 C   0  0  0  0  0  0  0  0  0  0  0  0
   14.9454  -13.0104  -11.1616 N   0  0  0  0  0  0  0  0  0  0  0  0
   13.8283  -12.4082  -10.7071 C   0  0  0  0  0  0  0  0  0  0  0  0
   12.5232  -12.8558  -10.6462 C   0  0  0  0  0  0  0  0  0  0  0  0
   11.5399  -12.0224  -10.1301 C   0  0  0  0  0  0  0  0  0  0  0  0
   11.8582  -10.7750   -9.6879 C   0  0  0  0  0  0  0  0  0  0  0  0
   13.1486  -10.3205   -9.7432 C   0  0  0  0  0  0  0  0  0  0  0  0
   14.1375  -11.1301  -10.2501 C   0  0  0  0  0  0  0  0  0  0  0  0
   16.9458   -7.5469  -10.9027 C   0  0  0  0  0  0  0  0  0  0  0  0
   17.8553   -7.1860  -10.1344 O   0  0  0  0  0  0  0  0  0  0  0  0
   15.0693   -4.7213  -13.1386 O   0  0  0  0  0  0  0  0  0  0  0  0
   16.0275   -4.2331  -12.2200 C   0  0  0  0  0  0  0  0  0  0  0  0
   16.0455   -5.1864  -11.0707 C   0  0  2  0  0  0  0  0  0  0  0  0
   16.0515   -6.5695  -11.4360 N   0  0  0  0  0  0  0  0  0  0  0  0
   14.8504   -4.9024  -10.2198 C   0  0  0  0  0  0  0  0  0  0  0  0
   13.7624   -5.4777  -10.5017 O   0  0  0  0  0  0  0  0  0  0  0  0
   11.7292   -2.5131   -3.3553 C   0  0  0  0  0  0  0  0  0  0  0  0
   13.2088   -2.9027   -4.3421 S   0  0  0  0  0  0  0  0  0  0  0  0
   12.7875   -3.2308   -6.0593 C   0  0  0  0  0  0  0  0  0  0  0  0
   13.9411   -3.6410   -6.8963 C   0  0  0  0  0  0  0  0  0  0  0  0
   13.6569   -3.7430   -8.3778 C   0  0  2  0  0  0  0  0  0  0  0  0
   14.8674   -4.0331   -9.1255 N   0  0  0  0  0  0  0  0  0  0  0  0
   13.0555   -2.5284   -8.9567 C   0  0  0  0  0  0  0  0  0  0  0  0
   11.8112   -2.4021   -9.0128 O   0  0  0  0  0  0  0  0  0  0  0  0
   13.8432   -1.5082   -9.4472 O   0  0  0  0  0  0  0  0  0  0  0  0
  2  1  1  1
  2 13  1  0
  2  3  1  0
  3  4  1  0
  4  5  2  0
  4 12  1  0
  5  6  1  0
  6  7  1  0
  7  8  2  0
  8  9  1  0
 10  9  2  0
 11 10  1  0
 12 11  2  0
 12  7  1  0
 13 18  1  0
 14 13  2  0
 17 16  1  6
 16 15  1  0
 17 19  1  0
 18 17  1  0
 19 26  1  0
 19 20  2  0
 21 22  1  0
 23 24  1  0
 23 22  1  0
 25 24  1  1
 25 27  1  0
 26 25  1  0
 27 29  1  0
 28 27  2  0
M  END
$$$$
