WSM.pdb
     RDKit          3D

 29 30  0  0  1  0  0  0  0  0999 V2000
   23.1482  -19.4412  -14.1823 N   0  0  0  0  0  0  0  0  0  0  0  0
   21.8617  -20.0326  -14.0524 C   0  0  1  0  0  0  0  0  0  0  0  0
   21.3238  -20.6557  -15.3122 C   0  0  0  0  0  0  0  0  0  0  0  0
   21.2809  -19.7440  -16.4686 C   0  0  0  0  0  0  0  0  0  0  0  0
   22.2090  -19.7235  -17.4974 C   0  0  0  0  0  0  0  0  0  0  0  0
   21.8781  -18.7998  -18.4017 N   0  0  0  0  0  0  0  0  0  0  0  0
   20.7414  -18.2138  -17.9755 C   0  0  0  0  0  0  0  0  0  0  0  0
   19.9849  -17.2012  -18.5319 C   0  0  0  0  0  0  0  0  0  0  0  0
   18.8398  -16.7671  -17.8775 C   0  0  0  0  0  0  0  0  0  0  0  0
   18.4653  -17.3337  -16.6979 C   0  0  0  0  0  0  0  0  0  0  0  0
   19.2073  -18.3383  -16.1368 C   0  0  0  0  0  0  0  0  0  0  0  0
   20.3444  -18.7834  -16.7687 C   0  0  0  0  0  0  0  0  0  0  0  0
   21.8249  -21.0155  -12.9173 C   0  0  0  0  0  0  0  0  0  0  0  0
   22.1321  -22.2124  -13.0615 O   0  0  0  0  0  0  0  0  0  0  0  0
   21.2600  -19.3073   -9.2730 O   0  0  0  0  0  0  0  0  0  0  0  0
   21.8931  -20.5705   -9.2115 C   0  0  0  0  0  0  0  0  0  0  0  0
   21.4688  -21.3233  -10.4294 C   0  0  2  0  0  0  0  0  0  0  0  0
   21.4204  -20.5473  -11.6302 N   0  0  0  0  0  0  0  0  0  0  0  0
   20.1202  -21.9082  -10.1611 C   0  0  0  0  0  0  0  0  0  0  0  0
   19.1007  -21.2088  -10.4172 O   0  0  0  0  0  0  0  0  0  0  0  0
   14.7827  -26.2392   -8.3876 C   0  0  0  0  0  0  0  0  0  0  0  0
   16.2908  -25.3947   -8.9594 S   0  0  0  0  0  0  0  0  0  0  0  0
   17.5853  -25.4421   -7.7119 C   0  0  0  0  0  0  0  0  0  0  0  0
   18.8468  -24.7807   -8.1254 C   0  0  0  0  0  0  0  0  0  0  0  0
   18.6754  -23.5507   -8.9879 C   0  0  2  0  0  0  0  0  0  0  0  0
   19.9213  -23.1901   -9.6408 N   0  0  0  0  0  0  0  0  0  0  0  0
   18.1982  -22.3661   -8.2525 C   0  0  0  0  0  0  0  0  0  0  0  0
   18.9437  -21.7880   -7.4295 O   0  0  0  0  0  0  0  0  0  0  0  0
   16.9273  -21.8686   -8.4517 O   0  0  0  0  0  0  0  0  0  0  0  0
  2  1  1  6
  2 13  1  0
  2  3  1  0
  3  4  1  0
  4  5  2  0
  4 12  1  0
  5  6  1  0
  6  7  1  0
  7  8  2  0
  8  9  1  0
 10  9  2  0
 11 10  1  0
 12 11  2  0
 12  7  1  0
 13 18  1  0
 14 13  2  0
 17 16  1  1
 16 15  1  0
 17 19  1  0
 18 17  1  0
 19 26  1  0
 19 20  2  0
 21 22  1  0
 23 24  1  0
 23 22  1  0
 25 24  1  1
 25 27  1  0
 26 25  1  0
 27 29  1  0
 28 27  2  0
M  END
$$$$
