WSM.pdb
     RDKit          3D

 29 30  0  0  1  0  0  0  0  0999 V2000
   23.8080  -22.1590  -15.9895 N   0  0  0  0  0  0  0  0  0  0  0  0
   24.0329  -21.2901  -14.8867 C   0  0  1  0  0  0  0  0  0  0  0  0
   22.8715  -21.1606  -13.9384 C   0  0  0  0  0  0  0  0  0  0  0  0
   21.7383  -20.3842  -14.4709 C   0  0  0  0  0  0  0  0  0  0  0  0
   20.4038  -20.6418  -14.2008 C   0  0  0  0  0  0  0  0  0  0  0  0
   19.6259  -19.7483  -14.8148 N   0  0  0  0  0  0  0  0  0  0  0  0
   20.4380  -18.9070  -15.4856 C   0  0  0  0  0  0  0  0  0  0  0  0
   20.1480  -17.8160  -16.2812 C   0  0  0  0  0  0  0  0  0  0  0  0
   21.1859  -17.1089  -16.8734 C   0  0  0  0  0  0  0  0  0  0  0  0
   22.4780  -17.4868  -16.6726 C   0  0  0  0  0  0  0  0  0  0  0  0
   22.7775  -18.5666  -15.8858 C   0  0  0  0  0  0  0  0  0  0  0  0
   21.7648  -19.2802  -15.2895 C   0  0  0  0  0  0  0  0  0  0  0  0
   25.2843  -21.6631  -14.1443 C   0  0  0  0  0  0  0  0  0  0  0  0
   25.7174  -22.8289  -14.1111 O   0  0  0  0  0  0  0  0  0  0  0  0
   27.3458  -18.5489  -12.3230 O   0  0  0  0  0  0  0  0  0  0  0  0
   28.0866  -19.7392  -12.5089 C   0  0  0  0  0  0  0  0  0  0  0  0
   27.0969  -20.8557  -12.5716 C   0  0  2  0  0  0  0  0  0  0  0  0
   25.9938  -20.6332  -13.4548 N   0  0  0  0  0  0  0  0  0  0  0  0
   26.5854  -21.0942  -11.1880 C   0  0  0  0  0  0  0  0  0  0  0  0
   25.3666  -21.3896  -11.0411 O   0  0  0  0  0  0  0  0  0  0  0  0
   29.9849  -20.6748   -5.2626 C   0  0  0  0  0  0  0  0  0  0  0  0
   28.4359  -19.7290   -5.1175 S   0  0  0  0  0  0  0  0  0  0  0  0
   27.2213  -20.2646   -6.3307 C   0  0  0  0  0  0  0  0  0  0  0  0
   27.7803  -20.4904   -7.6857 C   0  0  0  0  0  0  0  0  0  0  0  0
   26.7892  -20.9815   -8.7167 C   0  0  2  0  0  0  0  0  0  0  0  0
   27.3814  -21.0087  -10.0423 N   0  0  0  0  0  0  0  0  0  0  0  0
   25.5581  -20.1753   -8.7947 C   0  0  0  0  0  0  0  0  0  0  0  0
   25.5687  -19.0541   -9.3517 O   0  0  0  0  0  0  0  0  0  0  0  0
   24.3721  -20.6330   -8.2596 O   0  0  0  0  0  0  0  0  0  0  0  0
  2  1  1  6
  2 13  1  0
  2  3  1  0
  3  4  1  0
  4  5  2  0
  4 12  1  0
  5  6  1  0
  6  7  1  0
  7  8  2  0
  8  9  1  0
 10  9  2  0
 11 10  1  0
 12 11  2  0
 12  7  1  0
 13 18  1  0
 14 13  2  0
 17 16  1  1
 16 15  1  0
 17 19  1  0
 18 17  1  0
 19 26  1  0
 19 20  2  0
 21 22  1  0
 23 24  1  0
 23 22  1  0
 25 24  1  1
 25 27  1  0
 26 25  1  0
 27 29  1  0
 28 27  2  0
M  END
$$$$
