WSM.pdb
     RDKit          3D

 29 30  0  0  1  0  0  0  0  0999 V2000
   22.2118  -22.2969  -15.0288 N   0  0  0  0  0  0  0  0  0  0  0  0
   22.8907  -21.2775  -14.3065 C   0  0  1  0  0  0  0  0  0  0  0  0
   21.9956  -20.3620  -13.5156 C   0  0  0  0  0  0  0  0  0  0  0  0
   21.1176  -19.5128  -14.3393 C   0  0  0  0  0  0  0  0  0  0  0  0
   19.7983  -19.2116  -14.0411 C   0  0  0  0  0  0  0  0  0  0  0  0
   19.2858  -18.4037  -14.9712 N   0  0  0  0  0  0  0  0  0  0  0  0
   20.2569  -18.1724  -15.8772 C   0  0  0  0  0  0  0  0  0  0  0  0
   20.2516  -17.4144  -17.0316 C   0  0  0  0  0  0  0  0  0  0  0  0
   21.4015  -17.3445  -17.8067 C   0  0  0  0  0  0  0  0  0  0  0  0
   22.5245  -18.0167  -17.4331 C   0  0  0  0  0  0  0  0  0  0  0  0
   22.5416  -18.7712  -16.2906 C   0  0  0  0  0  0  0  0  0  0  0  0
   21.4138  -18.8534  -15.5086 C   0  0  0  0  0  0  0  0  0  0  0  0
   23.9668  -21.8532  -13.4309 C   0  0  0  0  0  0  0  0  0  0  0  0
   23.9021  -23.0048  -12.9647 O   0  0  0  0  0  0  0  0  0  0  0  0
   27.2951  -19.4409  -12.7964 O   0  0  0  0  0  0  0  0  0  0  0  0
   27.5196  -20.8342  -12.7044 C   0  0  0  0  0  0  0  0  0  0  0  0
   26.2136  -21.4561  -12.3333 C   0  0  2  0  0  0  0  0  0  0  0  0
   25.1006  -21.0389  -13.1291 N   0  0  0  0  0  0  0  0  0  0  0  0
   25.9451  -21.1384  -10.8981 C   0  0  0  0  0  0  0  0  0  0  0  0
   24.8437  -20.5986  -10.5985 O   0  0  0  0  0  0  0  0  0  0  0  0
   29.6987  -21.4010   -4.4203 C   0  0  0  0  0  0  0  0  0  0  0  0
   29.4191  -20.0147   -5.5670 S   0  0  0  0  0  0  0  0  0  0  0  0
   27.8429  -20.1719   -6.4183 C   0  0  0  0  0  0  0  0  0  0  0  0
   27.9475  -20.7469   -7.7815 C   0  0  0  0  0  0  0  0  0  0  0  0
   26.6396  -20.8690   -8.5302 C   0  0  2  0  0  0  0  0  0  0  0  0
   26.8466  -21.4051   -9.8638 N   0  0  0  0  0  0  0  0  0  0  0  0
   25.9088  -19.5969   -8.6693 C   0  0  0  0  0  0  0  0  0  0  0  0
   26.1447  -18.8324   -9.6323 O   0  0  0  0  0  0  0  0  0  0  0  0
   24.9537  -19.2199   -7.7486 O   0  0  0  0  0  0  0  0  0  0  0  0
  2  1  1  1
  2 13  1  0
  2  3  1  0
  3  4  1  0
  4  5  2  0
  4 12  1  0
  5  6  1  0
  6  7  1  0
  7  8  2  0
  8  9  1  0
 10  9  2  0
 11 10  1  0
 12 11  2  0
 12  7  1  0
 13 18  1  0
 14 13  2  0
 17 16  1  6
 16 15  1  0
 17 19  1  0
 18 17  1  0
 19 26  1  0
 19 20  2  0
 21 22  1  0
 23 24  1  0
 23 22  1  0
 25 24  1  6
 25 27  1  0
 26 25  1  0
 27 29  1  0
 28 27  2  0
M  END
$$$$
