WSM.pdb
     RDKit          3D

 29 30  0  0  1  0  0  0  0  0999 V2000
   27.7216  -21.0276  -15.3073 N   0  0  0  0  0  0  0  0  0  0  0  0
   26.9860  -21.6308  -14.2506 C   0  0  1  0  0  0  0  0  0  0  0  0
   27.0806  -20.9175  -12.9288 C   0  0  0  0  0  0  0  0  0  0  0  0
   28.4581  -20.6295  -12.4930 C   0  0  0  0  0  0  0  0  0  0  0  0
   29.3230  -19.7512  -13.1260 C   0  0  0  0  0  0  0  0  0  0  0  0
   30.4864  -19.6965  -12.4749 N   0  0  0  0  0  0  0  0  0  0  0  0
   30.3928  -20.5311  -11.4205 C   0  0  0  0  0  0  0  0  0  0  0  0
   31.3089  -20.8482  -10.4368 C   0  0  0  0  0  0  0  0  0  0  0  0
   30.9606  -21.7596   -9.4490 C   0  0  0  0  0  0  0  0  0  0  0  0
   29.7276  -22.3363   -9.4492 C   0  0  0  0  0  0  0  0  0  0  0  0
   28.8112  -22.0296  -10.4192 C   0  0  0  0  0  0  0  0  0  0  0  0
   29.1357  -21.1292  -11.4062 C   0  0  0  0  0  0  0  0  0  0  0  0
   25.5501  -21.8430  -14.6368 C   0  0  0  0  0  0  0  0  0  0  0  0
   24.7827  -20.8986  -14.8957 O   0  0  0  0  0  0  0  0  0  0  0  0
   23.9738  -25.6814  -14.1320 O   0  0  0  0  0  0  0  0  0  0  0  0
   23.4878  -24.9953  -15.2692 C   0  0  0  0  0  0  0  0  0  0  0  0
   23.7103  -23.5398  -15.0204 C   0  0  2  0  0  0  0  0  0  0  0  0
   25.0592  -23.1823  -14.7055 N   0  0  0  0  0  0  0  0  0  0  0  0
   22.8117  -23.1225  -13.9018 C   0  0  0  0  0  0  0  0  0  0  0  0
   23.2821  -23.0999  -12.7303 O   0  0  0  0  0  0  0  0  0  0  0  0
   19.8279  -17.7787  -10.5131 C   0  0  0  0  0  0  0  0  0  0  0  0
   19.1247  -18.6361  -11.9571 S   0  0  0  0  0  0  0  0  0  0  0  0
   19.4528  -20.4032  -11.8980 C   0  0  0  0  0  0  0  0  0  0  0  0
   20.3925  -20.8781  -12.9426 C   0  0  0  0  0  0  0  0  0  0  0  0
   20.6470  -22.3685  -12.9492 C   0  0  2  0  0  0  0  0  0  0  0  0
   21.4750  -22.7543  -14.0781 N   0  0  0  0  0  0  0  0  0  0  0  0
   19.4208  -23.1846  -12.9961 C   0  0  0  0  0  0  0  0  0  0  0  0
   19.0376  -23.6917  -14.0747 O   0  0  0  0  0  0  0  0  0  0  0  0
   18.6706  -23.4084  -11.8606 O   0  0  0  0  0  0  0  0  0  0  0  0
  2  1  1  6
  2 13  1  0
  2  3  1  0
  3  4  1  0
  4  5  2  0
  4 12  1  0
  5  6  1  0
  6  7  1  0
  7  8  2  0
  8  9  1  0
 10  9  2  0
 11 10  1  0
 12 11  2  0
 12  7  1  0
 13 18  1  0
 14 13  2  0
 17 16  1  1
 16 15  1  0
 17 19  1  0
 18 17  1  0
 19 26  1  0
 19 20  2  0
 21 22  1  0
 23 24  1  0
 23 22  1  0
 25 24  1  6
 25 27  1  0
 26 25  1  0
 27 29  1  0
 28 27  2  0
M  END
$$$$
