WSM.pdb
     RDKit          3D

 29 30  0  0  1  0  0  0  0  0999 V2000
   22.2778  -19.3429  -17.0715 N   0  0  0  0  0  0  0  0  0  0  0  0
   22.6303  -18.9638  -15.7472 C   0  0  1  0  0  0  0  0  0  0  0  0
   21.4933  -18.9838  -14.7615 C   0  0  0  0  0  0  0  0  0  0  0  0
   20.4219  -18.0155  -15.0527 C   0  0  0  0  0  0  0  0  0  0  0  0
   19.8613  -17.8049  -16.3023 C   0  0  0  0  0  0  0  0  0  0  0  0
   18.9025  -16.8797  -16.2301 N   0  0  0  0  0  0  0  0  0  0  0  0
   18.8291  -16.4811  -14.9445 C   0  0  0  0  0  0  0  0  0  0  0  0
   18.0145  -15.5475  -14.3345 C   0  0  0  0  0  0  0  0  0  0  0  0
   18.1456  -15.3147  -12.9720 C   0  0  0  0  0  0  0  0  0  0  0  0
   19.0686  -15.9997  -12.2430 C   0  0  0  0  0  0  0  0  0  0  0  0
   19.8816  -16.9277  -12.8368 C   0  0  0  0  0  0  0  0  0  0  0  0
   19.7677  -17.1739  -14.1846 C   0  0  0  0  0  0  0  0  0  0  0  0
   23.7880  -19.7737  -15.2375 C   0  0  0  0  0  0  0  0  0  0  0  0
   23.6535  -20.9351  -14.8123 O   0  0  0  0  0  0  0  0  0  0  0  0
   27.4383  -17.7946  -14.9290 O   0  0  0  0  0  0  0  0  0  0  0  0
   27.5502  -19.1751  -15.2152 C   0  0  0  0  0  0  0  0  0  0  0  0
   26.2756  -19.8114  -14.7672 C   0  0  2  0  0  0  0  0  0  0  0  0
   25.0858  -19.1777  -15.2459 N   0  0  0  0  0  0  0  0  0  0  0  0
   26.2672  -19.8200  -13.2730 C   0  0  0  0  0  0  0  0  0  0  0  0
   25.8418  -18.7961  -12.6690 O   0  0  0  0  0  0  0  0  0  0  0  0
   26.9380  -19.6972   -6.4719 C   0  0  0  0  0  0  0  0  0  0  0  0
   26.4625  -19.2017   -8.1580 S   0  0  0  0  0  0  0  0  0  0  0  0
   25.4527  -20.4591   -8.9538 C   0  0  0  0  0  0  0  0  0  0  0  0
   25.4901  -20.4146  -10.4359 C   0  0  0  0  0  0  0  0  0  0  0  0
   26.8141  -20.7974  -11.0577 C   0  0  2  0  0  0  0  0  0  0  0  0
   26.7051  -20.9005  -12.5020 N   0  0  0  0  0  0  0  0  0  0  0  0
   27.3629  -22.0712  -10.5597 C   0  0  0  0  0  0  0  0  0  0  0  0
   26.8854  -23.1617  -10.9471 O   0  0  0  0  0  0  0  0  0  0  0  0
   28.4089  -22.0931   -9.6611 O   0  0  0  0  0  0  0  0  0  0  0  0
  2  1  1  6
  2 13  1  0
  2  3  1  0
  3  4  1  0
  4  5  2  0
  4 12  1  0
  5  6  1  0
  6  7  1  0
  7  8  2  0
  8  9  1  0
 10  9  2  0
 11 10  1  0
 12 11  2  0
 12  7  1  0
 13 18  1  0
 14 13  2  0
 17 16  1  1
 16 15  1  0
 17 19  1  0
 18 17  1  0
 19 26  1  0
 19 20  2  0
 21 22  1  0
 23 24  1  0
 23 22  1  0
 25 24  1  1
 25 27  1  0
 26 25  1  0
 27 29  1  0
 28 27  2  0
M  END
$$$$
