WSM.pdb
     RDKit          3D

 29 30  0  0  1  0  0  0  0  0999 V2000
   26.0070  -18.2921  -16.9277 N   0  0  0  0  0  0  0  0  0  0  0  0
   24.8396  -19.0960  -17.0398 C   0  0  1  0  0  0  0  0  0  0  0  0
   25.1016  -20.5626  -17.2527 C   0  0  0  0  0  0  0  0  0  0  0  0
   25.8984  -20.8676  -18.4537 C   0  0  0  0  0  0  0  0  0  0  0  0
   27.2563  -21.1438  -18.4555 C   0  0  0  0  0  0  0  0  0  0  0  0
   27.6757  -21.3992  -19.6962 N   0  0  0  0  0  0  0  0  0  0  0  0
   26.6052  -21.2927  -20.5086 C   0  0  0  0  0  0  0  0  0  0  0  0
   26.4910  -21.4516  -21.8757 C   0  0  0  0  0  0  0  0  0  0  0  0
   25.2538  -21.2768  -22.4814 C   0  0  0  0  0  0  0  0  0  0  0  0
   24.1627  -20.9516  -21.7354 C   0  0  0  0  0  0  0  0  0  0  0  0
   24.2639  -20.7917  -20.3794 C   0  0  0  0  0  0  0  0  0  0  0  0
   25.4796  -20.9607  -19.7597 C   0  0  0  0  0  0  0  0  0  0  0  0
   23.9181  -18.8862  -15.8724 C   0  0  0  0  0  0  0  0  0  0  0  0
   24.3385  -18.6822  -14.7194 O   0  0  0  0  0  0  0  0  0  0  0  0
   20.9591  -16.4178  -15.6705 O   0  0  0  0  0  0  0  0  0  0  0  0
   20.4177  -17.7228  -15.6052 C   0  0  0  0  0  0  0  0  0  0  0  0
   21.5129  -18.6188  -15.1278 C   0  0  2  0  0  0  0  0  0  0  0  0
   22.5099  -18.9249  -16.1069 N   0  0  0  0  0  0  0  0  0  0  0  0
   20.8896  -19.8863  -14.6404 C   0  0  0  0  0  0  0  0  0  0  0  0
   20.6957  -20.8179  -15.4703 O   0  0  0  0  0  0  0  0  0  0  0  0
   18.8917  -25.3918   -9.9049 C   0  0  0  0  0  0  0  0  0  0  0  0
   19.9270  -23.9919  -10.4371 S   0  0  0  0  0  0  0  0  0  0  0  0
   18.9257  -22.5771  -10.9165 C   0  0  0  0  0  0  0  0  0  0  0  0
   19.7116  -21.4224  -11.4152 C   0  0  0  0  0  0  0  0  0  0  0  0
   19.8059  -21.3105  -12.9201 C   0  0  2  0  0  0  0  0  0  0  0  0
   20.5070  -20.1011  -13.3133 N   0  0  0  0  0  0  0  0  0  0  0  0
   18.5000  -21.3109  -13.6031 C   0  0  0  0  0  0  0  0  0  0  0  0
   17.9415  -22.3907  -13.9024 O   0  0  0  0  0  0  0  0  0  0  0  0
   17.8653  -20.1300  -13.9268 O   0  0  0  0  0  0  0  0  0  0  0  0
  2  1  1  1
  2 13  1  0
  2  3  1  0
  3  4  1  0
  4  5  2  0
  4 12  1  0
  5  6  1  0
  6  7  1  0
  7  8  2  0
  8  9  1  0
 10  9  2  0
 11 10  1  0
 12 11  2  0
 12  7  1  0
 13 18  1  0
 14 13  2  0
 17 16  1  6
 16 15  1  0
 17 19  1  0
 18 17  1  0
 19 26  1  0
 19 20  2  0
 21 22  1  0
 23 24  1  0
 23 22  1  0
 25 24  1  1
 25 27  1  0
 26 25  1  0
 27 29  1  0
 28 27  2  0
M  END
$$$$
