WSM.pdb
     RDKit          3D

 29 30  0  0  1  0  0  0  0  0999 V2000
   24.8779  -22.3076  -17.0729 N   0  0  0  0  0  0  0  0  0  0  0  0
   24.5483  -21.8887  -15.7547 C   0  0  1  0  0  0  0  0  0  0  0  0
   23.3910  -22.6210  -15.1308 C   0  0  0  0  0  0  0  0  0  0  0  0
   22.1069  -22.4298  -15.8271 C   0  0  0  0  0  0  0  0  0  0  0  0
   21.2978  -23.4533  -16.2942 C   0  0  0  0  0  0  0  0  0  0  0  0
   20.1967  -22.9530  -16.8580 N   0  0  0  0  0  0  0  0  0  0  0  0
   20.2762  -21.6105  -16.7653 C   0  0  0  0  0  0  0  0  0  0  0  0
   19.4094  -20.6239  -17.1926 C   0  0  0  0  0  0  0  0  0  0  0  0
   19.7339  -19.2912  -16.9773 C   0  0  0  0  0  0  0  0  0  0  0  0
   20.8957  -18.9588  -16.3510 C   0  0  0  0  0  0  0  0  0  0  0  0
   21.7627  -19.9283  -15.9229 C   0  0  0  0  0  0  0  0  0  0  0  0
   21.4602  -21.2540  -16.1257 C   0  0  0  0  0  0  0  0  0  0  0  0
   25.7490  -21.9287  -14.8530 C   0  0  0  0  0  0  0  0  0  0  0  0
   26.6631  -22.7602  -14.9965 O   0  0  0  0  0  0  0  0  0  0  0  0
   26.5875  -18.5667  -12.9584 O   0  0  0  0  0  0  0  0  0  0  0  0
   27.6006  -19.5463  -12.8394 C   0  0  0  0  0  0  0  0  0  0  0  0
   26.9194  -20.8748  -12.8705 C   0  0  2  0  0  0  0  0  0  0  0  0
   25.8327  -20.9724  -13.7957 N   0  0  0  0  0  0  0  0  0  0  0  0
   26.4258  -21.1702  -11.4914 C   0  0  0  0  0  0  0  0  0  0  0  0
   25.1792  -21.2005  -11.2935 O   0  0  0  0  0  0  0  0  0  0  0  0
   28.0553  -19.4215   -4.0090 C   0  0  0  0  0  0  0  0  0  0  0  0
   28.6070  -19.5549   -5.7389 S   0  0  0  0  0  0  0  0  0  0  0  0
   27.3587  -20.3380   -6.7697 C   0  0  0  0  0  0  0  0  0  0  0  0
   27.8051  -20.6089   -8.1579 C   0  0  0  0  0  0  0  0  0  0  0  0
   26.7862  -21.2961   -9.0386 C   0  0  2  0  0  0  0  0  0  0  0  0
   27.2680  -21.4158  -10.4032 N   0  0  0  0  0  0  0  0  0  0  0  0
   25.4797  -20.6158   -9.0850 C   0  0  0  0  0  0  0  0  0  0  0  0
   25.2763  -19.6887   -9.9014 O   0  0  0  0  0  0  0  0  0  0  0  0
   24.4560  -20.9815   -8.2362 O   0  0  0  0  0  0  0  0  0  0  0  0
  2  1  1  6
  2 13  1  0
  2  3  1  0
  3  4  1  0
  4  5  2  0
  4 12  1  0
  5  6  1  0
  6  7  1  0
  7  8  2  0
  8  9  1  0
 10  9  2  0
 11 10  1  0
 12 11  2  0
 12  7  1  0
 13 18  1  0
 14 13  2  0
 17 16  1  1
 16 15  1  0
 17 19  1  0
 18 17  1  0
 19 26  1  0
 19 20  2  0
 21 22  1  0
 23 24  1  0
 23 22  1  0
 25 24  1  1
 25 27  1  0
 26 25  1  0
 27 29  1  0
 28 27  2  0
M  END
$$$$
