WSM.pdb
     RDKit          3D

 29 30  0  0  1  0  0  0  0  0999 V2000
   28.1645  -21.7358  -10.7329 N   0  0  0  0  0  0  0  0  0  0  0  0
   26.9818  -21.1394  -10.2159 C   0  0  1  0  0  0  0  0  0  0  0  0
   27.2145  -20.0638   -9.1894 C   0  0  0  0  0  0  0  0  0  0  0  0
   28.2191  -20.4079   -8.1683 C   0  0  0  0  0  0  0  0  0  0  0  0
   29.3863  -21.1144   -8.4105 C   0  0  0  0  0  0  0  0  0  0  0  0
   30.0920  -21.2432   -7.2853 N   0  0  0  0  0  0  0  0  0  0  0  0
   29.3982  -20.6278   -6.3070 C   0  0  0  0  0  0  0  0  0  0  0  0
   29.6770  -20.4736   -4.9632 C   0  0  0  0  0  0  0  0  0  0  0  0
   28.7784  -19.7908   -4.1544 C   0  0  0  0  0  0  0  0  0  0  0  0
   27.6325  -19.2777   -4.6800 C   0  0  0  0  0  0  0  0  0  0  0  0
   27.3456  -19.4241   -6.0108 C   0  0  0  0  0  0  0  0  0  0  0  0
   28.2222  -20.0963   -6.8294 C   0  0  0  0  0  0  0  0  0  0  0  0
   26.0969  -20.6358  -11.3202 C   0  0  0  0  0  0  0  0  0  0  0  0
   26.3181  -19.5668  -11.9169 O   0  0  0  0  0  0  0  0  0  0  0  0
   24.0032  -23.5144  -13.1261 O   0  0  0  0  0  0  0  0  0  0  0  0
   24.1903  -22.3153  -13.8523 C   0  0  0  0  0  0  0  0  0  0  0  0
   24.1662  -21.2022  -12.8572 C   0  0  2  0  0  0  0  0  0  0  0  0
   24.9629  -21.4214  -11.6895 N   0  0  0  0  0  0  0  0  0  0  0  0
   22.7450  -20.9775  -12.4539 C   0  0  0  0  0  0  0  0  0  0  0  0
   22.3026  -21.5938  -11.4447 O   0  0  0  0  0  0  0  0  0  0  0  0
   18.6804  -16.4619  -15.0916 C   0  0  0  0  0  0  0  0  0  0  0  0
   17.7162  -17.0461  -13.6620 S   0  0  0  0  0  0  0  0  0  0  0  0
   18.4354  -18.5301  -12.9447 C   0  0  0  0  0  0  0  0  0  0  0  0
   19.8571  -18.7479  -13.3071 C   0  0  0  0  0  0  0  0  0  0  0  0
   20.4795  -20.0047  -12.7420 C   0  0  2  0  0  0  0  0  0  0  0  0
   21.8734  -20.1209  -13.1323 N   0  0  0  0  0  0  0  0  0  0  0  0
   19.7973  -21.2457  -13.1498 C   0  0  0  0  0  0  0  0  0  0  0  0
   20.1655  -21.8644  -14.1740 O   0  0  0  0  0  0  0  0  0  0  0  0
   18.7438  -21.7525  -12.4181 O   0  0  0  0  0  0  0  0  0  0  0  0
  2  1  1  6
  2 13  1  0
  2  3  1  0
  3  4  1  0
  4  5  2  0
  4 12  1  0
  5  6  1  0
  6  7  1  0
  7  8  2  0
  8  9  1  0
 10  9  2  0
 11 10  1  0
 12 11  2  0
 12  7  1  0
 13 18  1  0
 14 13  2  0
 17 16  1  6
 16 15  1  0
 17 19  1  0
 18 17  1  0
 19 26  1  0
 19 20  2  0
 21 22  1  0
 23 24  1  0
 23 22  1  0
 25 24  1  6
 25 27  1  0
 26 25  1  0
 27 29  1  0
 28 27  2  0
M  END
$$$$
