WSM.pdb
     RDKit          3D

 29 30  0  0  1  0  0  0  0  0999 V2000
   24.8710  -19.0970  -11.7721 N   0  0  0  0  0  0  0  0  0  0  0  0
   25.9032  -20.0193  -12.0974 C   0  0  1  0  0  0  0  0  0  0  0  0
   26.0516  -21.1657  -11.1337 C   0  0  0  0  0  0  0  0  0  0  0  0
   26.2680  -20.7571   -9.7350 C   0  0  0  0  0  0  0  0  0  0  0  0
   25.2616  -20.5358   -8.8085 C   0  0  0  0  0  0  0  0  0  0  0  0
   25.7843  -20.1991   -7.6279 N   0  0  0  0  0  0  0  0  0  0  0  0
   27.1246  -20.1971   -7.7714 C   0  0  0  0  0  0  0  0  0  0  0  0
   28.1284  -19.9150   -6.8658 C   0  0  0  0  0  0  0  0  0  0  0  0
   29.4537  -19.9796   -7.2748 C   0  0  0  0  0  0  0  0  0  0  0  0
   29.7620  -20.3176   -8.5568 C   0  0  0  0  0  0  0  0  0  0  0  0
   28.7754  -20.5994   -9.4633 C   0  0  0  0  0  0  0  0  0  0  0  0
   27.4567  -20.5418   -9.0787 C   0  0  0  0  0  0  0  0  0  0  0  0
   25.7598  -20.5249  -13.5045 C   0  0  0  0  0  0  0  0  0  0  0  0
   24.6819  -20.4766  -14.1238 O   0  0  0  0  0  0  0  0  0  0  0  0
   28.9129  -22.5704  -15.3798 O   0  0  0  0  0  0  0  0  0  0  0  0
   28.5616  -21.3276  -15.9564 C   0  0  0  0  0  0  0  0  0  0  0  0
   27.1504  -21.0510  -15.5540 C   0  0  2  0  0  0  0  0  0  0  0  0
   26.9099  -21.0797  -14.1441 N   0  0  0  0  0  0  0  0  0  0  0  0
   26.2751  -22.0573  -16.2279 C   0  0  0  0  0  0  0  0  0  0  0  0
   25.7623  -22.9729  -15.5258 O   0  0  0  0  0  0  0  0  0  0  0  0
   22.7226  -25.7710  -17.4930 C   0  0  0  0  0  0  0  0  0  0  0  0
   21.7183  -24.2631  -17.6727 S   0  0  0  0  0  0  0  0  0  0  0  0
   22.5221  -23.0599  -18.7406 C   0  0  0  0  0  0  0  0  0  0  0  0
   23.6056  -22.2936  -18.0785 C   0  0  0  0  0  0  0  0  0  0  0  0
   24.9795  -22.9195  -18.1617 C   0  0  2  0  0  0  0  0  0  0  0  0
   25.9902  -22.0436  -17.5962 N   0  0  0  0  0  0  0  0  0  0  0  0
   25.4002  -23.2590  -19.5327 C   0  0  0  0  0  0  0  0  0  0  0  0
   26.1518  -22.4901  -20.1739 O   0  0  0  0  0  0  0  0  0  0  0  0
   24.9792  -24.4242  -20.1387 O   0  0  0  0  0  0  0  0  0  0  0  0
  2  1  1  1
  2 13  1  0
  2  3  1  0
  3  4  1  0
  4  5  2  0
  4 12  1  0
  5  6  1  0
  6  7  1  0
  7  8  2  0
  8  9  1  0
 10  9  2  0
 11 10  1  0
 12 11  2  0
 12  7  1  0
 13 18  1  0
 14 13  2  0
 17 16  1  1
 16 15  1  0
 17 19  1  0
 18 17  1  0
 19 26  1  0
 19 20  2  0
 21 22  1  0
 23 24  1  0
 23 22  1  0
 25 24  1  6
 25 27  1  0
 26 25  1  0
 27 29  1  0
 28 27  2  0
M  END
$$$$
