WSM.pdb
     RDKit          3D

 29 30  0  0  1  0  0  0  0  0999 V2000
   22.3961  -21.3754  -13.8416 N   0  0  0  0  0  0  0  0  0  0  0  0
   23.3911  -20.3622  -13.7698 C   0  0  1  0  0  0  0  0  0  0  0  0
   23.0152  -19.1668  -12.9365 C   0  0  0  0  0  0  0  0  0  0  0  0
   21.9817  -19.4364  -11.9218 C   0  0  0  0  0  0  0  0  0  0  0  0
   20.6155  -19.3754  -12.1455 C   0  0  0  0  0  0  0  0  0  0  0  0
   19.9493  -19.6937  -11.0341 N   0  0  0  0  0  0  0  0  0  0  0  0
   20.8660  -19.9628  -10.0830 C   0  0  0  0  0  0  0  0  0  0  0  0
   20.7127  -20.3346   -8.7618 C   0  0  0  0  0  0  0  0  0  0  0  0
   21.8392  -20.5492   -7.9789 C   0  0  0  0  0  0  0  0  0  0  0  0
   23.0838  -20.3947   -8.5076 C   0  0  0  0  0  0  0  0  0  0  0  0
   23.2480  -20.0266   -9.8162 C   0  0  0  0  0  0  0  0  0  0  0  0
   22.1459  -19.8097  -10.6090 C   0  0  0  0  0  0  0  0  0  0  0  0
   24.7113  -20.9242  -13.3253 C   0  0  0  0  0  0  0  0  0  0  0  0
   24.8094  -21.7308  -12.3833 O   0  0  0  0  0  0  0  0  0  0  0  0
   28.1916  -19.2241  -14.8624 O   0  0  0  0  0  0  0  0  0  0  0  0
   28.2259  -20.6362  -14.7921 C   0  0  0  0  0  0  0  0  0  0  0  0
   27.1979  -21.0414  -13.7876 C   0  0  2  0  0  0  0  0  0  0  0  0
   25.8900  -20.5094  -14.0168 N   0  0  0  0  0  0  0  0  0  0  0  0
   27.6793  -20.6129  -12.4394 C   0  0  0  0  0  0  0  0  0  0  0  0
   27.3445  -19.4710  -12.0174 O   0  0  0  0  0  0  0  0  0  0  0  0
   29.0015  -20.0890   -5.0225 C   0  0  0  0  0  0  0  0  0  0  0  0
   28.1072  -20.7247   -6.4754 S   0  0  0  0  0  0  0  0  0  0  0  0
   29.1184  -20.6401   -7.9601 C   0  0  0  0  0  0  0  0  0  0  0  0
   28.4027  -21.0249   -9.2008 C   0  0  0  0  0  0  0  0  0  0  0  0
   29.1867  -20.8374  -10.4800 C   0  0  2  0  0  0  0  0  0  0  0  0
   28.4822  -21.4064  -11.6152 N   0  0  0  0  0  0  0  0  0  0  0  0
   30.5347  -21.4320  -10.4482 C   0  0  0  0  0  0  0  0  0  0  0  0
   30.7793  -22.4827  -11.0834 O   0  0  0  0  0  0  0  0  0  0  0  0
   31.5529  -20.8495   -9.7228 O   0  0  0  0  0  0  0  0  0  0  0  0
  2  1  1  1
  2 13  1  0
  2  3  1  0
  3  4  1  0
  4  5  2  0
  4 12  1  0
  5  6  1  0
  6  7  1  0
  7  8  2  0
  8  9  1  0
 10  9  2  0
 11 10  1  0
 12 11  2  0
 12  7  1  0
 13 18  1  0
 14 13  2  0
 17 16  1  6
 16 15  1  0
 17 19  1  0
 18 17  1  0
 19 26  1  0
 19 20  2  0
 21 22  1  0
 23 24  1  0
 23 22  1  0
 25 24  1  1
 25 27  1  0
 26 25  1  0
 27 29  1  0
 28 27  2  0
M  END
$$$$
