WSM.pdb
     RDKit          3D

 29 30  0  0  1  0  0  0  0  0999 V2000
   22.5667  -21.4038  -20.3120 N   0  0  0  0  0  0  0  0  0  0  0  0
   21.7583  -21.3416  -19.1439 C   0  0  1  0  0  0  0  0  0  0  0  0
   21.0884  -22.6365  -18.7706 C   0  0  0  0  0  0  0  0  0  0  0  0
   20.1991  -23.1805  -19.8114 C   0  0  0  0  0  0  0  0  0  0  0  0
   20.3712  -24.4021  -20.4426 C   0  0  0  0  0  0  0  0  0  0  0  0
   19.3871  -24.6139  -21.3185 N   0  0  0  0  0  0  0  0  0  0  0  0
   18.5710  -23.5422  -21.2680 C   0  0  0  0  0  0  0  0  0  0  0  0
   17.4163  -23.2539  -21.9685 C   0  0  0  0  0  0  0  0  0  0  0  0
   16.7554  -22.0562  -21.7304 C   0  0  0  0  0  0  0  0  0  0  0  0
   17.2405  -21.1733  -20.8150 C   0  0  0  0  0  0  0  0  0  0  0  0
   18.3843  -21.4484  -20.1144 C   0  0  0  0  0  0  0  0  0  0  0  0
   19.0537  -22.6290  -20.3346 C   0  0  0  0  0  0  0  0  0  0  0  0
   22.5256  -20.7864  -17.9781 C   0  0  0  0  0  0  0  0  0  0  0  0
   23.7386  -21.0075  -17.8120 O   0  0  0  0  0  0  0  0  0  0  0  0
   20.6622  -18.0980  -15.0001 O   0  0  0  0  0  0  0  0  0  0  0  0
   21.8722  -17.9006  -15.7051 C   0  0  0  0  0  0  0  0  0  0  0  0
   22.4450  -19.2554  -15.9631 C   0  0  2  0  0  0  0  0  0  0  0  0
   21.8261  -19.9769  -17.0320 N   0  0  0  0  0  0  0  0  0  0  0  0
   22.3367  -20.0476  -14.7008 C   0  0  0  0  0  0  0  0  0  0  0  0
   21.4118  -20.9018  -14.6055 O   0  0  0  0  0  0  0  0  0  0  0  0
   24.8675  -21.2383   -7.2232 C   0  0  0  0  0  0  0  0  0  0  0  0
   25.1950  -20.5180   -8.8629 S   0  0  0  0  0  0  0  0  0  0  0  0
   23.8967  -20.9333  -10.0359 C   0  0  0  0  0  0  0  0  0  0  0  0
   24.1086  -20.3753  -11.3937 C   0  0  0  0  0  0  0  0  0  0  0  0
   22.9742  -20.6033  -12.3670 C   0  0  2  0  0  0  0  0  0  0  0  0
   23.2037  -19.8970  -13.6148 N   0  0  0  0  0  0  0  0  0  0  0  0
   21.6553  -20.1894  -11.8562 C   0  0  0  0  0  0  0  0  0  0  0  0
   20.9203  -21.0094  -11.2606 O   0  0  0  0  0  0  0  0  0  0  0  0
   21.2016  -18.8974  -12.0205 O   0  0  0  0  0  0  0  0  0  0  0  0
  2  1  1  6
  2 13  1  0
  2  3  1  0
  3  4  1  0
  4  5  2  0
  4 12  1  0
  5  6  1  0
  6  7  1  0
  7  8  2  0
  8  9  1  0
 10  9  2  0
 11 10  1  0
 12 11  2  0
 12  7  1  0
 13 18  1  0
 14 13  2  0
 17 16  1  1
 16 15  1  0
 17 19  1  0
 18 17  1  0
 19 26  1  0
 19 20  2  0
 21 22  1  0
 23 24  1  0
 23 22  1  0
 25 24  1  1
 25 27  1  0
 26 25  1  0
 27 29  1  0
 28 27  2  0
M  END
$$$$
