KWN.pdb
     RDKit          3D

 32 33  0  0  1  0  0  0  0  0999 V2000
    7.6786  -16.1492   18.4036 N   0  0  0  0  0  0  0  0  0  0  0  0
    8.6668  -15.1614   18.6876 C   0  0  1  0  0  0  0  0  0  0  0  0
    8.4443  -13.8871   17.9825 C   0  0  0  0  0  0  0  0  0  0  0  0
    7.6005  -14.0017   16.7618 C   0  0  0  0  0  0  0  0  0  0  0  0
    8.2858  -13.4981   15.5329 C   0  0  0  0  0  0  0  0  0  0  0  0
    7.3101  -13.6711   14.3564 C   0  0  0  0  0  0  0  0  0  0  0  0
    7.9739  -13.1516   13.1838 N   0  0  0  0  0  0  0  0  0  0  0  0
    8.8858  -14.9865   20.1592 C   0  0  0  0  0  0  0  0  0  0  0  0
    9.9032  -14.3825   20.5883 O   0  0  0  0  0  0  0  0  0  0  0  0
    7.9819  -15.4787   21.1423 N   0  0  0  0  0  0  0  0  0  0  0  0
    8.1749  -15.2671   22.5569 C   0  0  1  0  0  0  0  0  0  0  0  0
    6.9221  -15.5200   23.3611 C   0  0  0  0  0  0  0  0  0  0  0  0
    7.0061  -15.1277   24.7637 C   0  0  0  0  0  0  0  0  0  0  0  0
    6.9496  -15.9209   25.8828 C   0  0  0  0  0  0  0  0  0  0  0  0
    7.0704  -15.1305   26.9631 N   0  0  0  0  0  0  0  0  0  0  0  0
    7.2024  -13.8594   26.5807 C   0  0  0  0  0  0  0  0  0  0  0  0
    7.3568  -12.6671   27.2612 C   0  0  0  0  0  0  0  0  0  0  0  0
    7.4756  -11.4507   26.6430 C   0  0  0  0  0  0  0  0  0  0  0  0
    7.4376  -11.4252   25.2532 C   0  0  0  0  0  0  0  0  0  0  0  0
    7.2836  -12.6130   24.5656 C   0  0  0  0  0  0  0  0  0  0  0  0
    7.1648  -13.8359   25.2101 C   0  0  0  0  0  0  0  0  0  0  0  0
    9.1815  -16.2631   23.0243 C   0  0  0  0  0  0  0  0  0  0  0  0
    9.1230  -17.4364   22.5278 O   0  0  0  0  0  0  0  0  0  0  0  0
   14.1914  -18.2815   23.4476 N   0  0  0  0  0  0  0  0  0  0  0  0
   13.7169  -17.2014   24.2301 C   0  0  0  0  0  0  0  0  0  0  0  0
   14.3198  -17.0086   25.3349 O   0  0  0  0  0  0  0  0  0  0  0  0
   12.6106  -16.3015   23.8780 C   0  0  0  0  0  0  0  0  0  0  0  0
   11.2984  -16.9444   24.1769 C   0  0  2  0  0  0  0  0  0  0  0  0
   10.1828  -16.0116   23.9626 N   0  0  0  0  0  0  0  0  0  0  0  0
   11.2323  -17.3899   25.5812 C   0  0  0  0  0  0  0  0  0  0  0  0
   11.7357  -18.4221   26.0481 O   0  0  0  0  0  0  0  0  0  0  0  0
   10.5365  -16.5838   26.5022 O   0  0  0  0  0  0  0  0  0  0  0  0
  2  3  1  0
  2  1  1  1
  3  4  1  0
  5  4  1  0
  6  5  1  0
  7  6  1  0
  8  2  1  0
  8  9  2  0
 10  8  1  0
 11 22  1  0
 11 10  1  0
 11 12  1  1
 13 14  2  0
 13 12  1  0
 15 14  1  0
 16 21  2  0
 16 15  1  0
 17 16  1  0
 18 19  1  0
 18 17  2  0
 19 20  2  0
 20 21  1  0
 21 13  1  0
 22 29  1  0
 23 22  2  0
 24 25  1  0
 25 27  1  0
 26 25  2  0
 28 27  1  1
 28 30  1  0
 29 28  1  0
 30 31  2  0
 30 32  1  0
M  END
$$$$
