KWN.pdb
     RDKit          3D

 32 33  0  0  1  0  0  0  0  0999 V2000
    8.4244  -16.2394   20.2367 N   0  0  0  0  0  0  0  0  0  0  0  0
    9.0527  -17.1477   21.1385 C   0  0  1  0  0  0  0  0  0  0  0  0
   10.1220  -17.9483   20.5169 C   0  0  0  0  0  0  0  0  0  0  0  0
    9.6951  -18.7097   19.3114 C   0  0  0  0  0  0  0  0  0  0  0  0
    9.9584  -17.9748   18.0370 C   0  0  0  0  0  0  0  0  0  0  0  0
    9.5256  -18.8895   16.8786 C   0  0  0  0  0  0  0  0  0  0  0  0
    9.7785  -18.1631   15.6563 N   0  0  0  0  0  0  0  0  0  0  0  0
    9.4840  -16.4783   22.4073 C   0  0  0  0  0  0  0  0  0  0  0  0
   10.1702  -15.4237   22.3742 O   0  0  0  0  0  0  0  0  0  0  0  0
    9.1548  -16.9775   23.6989 N   0  0  0  0  0  0  0  0  0  0  0  0
    9.6124  -16.3539   24.9175 C   0  0  1  0  0  0  0  0  0  0  0  0
    8.5311  -16.2614   25.9675 C   0  0  0  0  0  0  0  0  0  0  0  0
    7.4317  -15.3618   25.6355 C   0  0  0  0  0  0  0  0  0  0  0  0
    6.2781  -15.6337   24.9427 C   0  0  0  0  0  0  0  0  0  0  0  0
    5.5526  -14.5042   24.8773 N   0  0  0  0  0  0  0  0  0  0  0  0
    6.1962  -13.5168   25.5019 C   0  0  0  0  0  0  0  0  0  0  0  0
    5.9123  -12.1842   25.7300 C   0  0  0  0  0  0  0  0  0  0  0  0
    6.7437  -11.3379   26.4145 C   0  0  0  0  0  0  0  0  0  0  0  0
    7.9371  -11.8586   26.9029 C   0  0  0  0  0  0  0  0  0  0  0  0
    8.2281  -13.1900   26.6789 C   0  0  0  0  0  0  0  0  0  0  0  0
    7.3726  -14.0318   25.9828 C   0  0  0  0  0  0  0  0  0  0  0  0
   10.6800  -17.2233   25.4904 C   0  0  0  0  0  0  0  0  0  0  0  0
   10.4365  -18.4720   25.5812 O   0  0  0  0  0  0  0  0  0  0  0  0
   14.6291  -15.3545   24.4677 N   0  0  0  0  0  0  0  0  0  0  0  0
   14.4786  -16.7034   24.8698 C   0  0  0  0  0  0  0  0  0  0  0  0
   14.4890  -17.5667   23.9339 O   0  0  0  0  0  0  0  0  0  0  0  0
   14.3175  -17.1795   26.2500 C   0  0  0  0  0  0  0  0  0  0  0  0
   12.9372  -17.7021   26.4650 C   0  0  2  0  0  0  0  0  0  0  0  0
   11.9248  -16.7774   25.9350 N   0  0  0  0  0  0  0  0  0  0  0  0
   12.6550  -17.8831   27.9011 C   0  0  0  0  0  0  0  0  0  0  0  0
   11.7229  -17.3687   28.5363 O   0  0  0  0  0  0  0  0  0  0  0  0
   13.5111  -18.7155   28.6470 O   0  0  0  0  0  0  0  0  0  0  0  0
  2  3  1  0
  2  1  1  6
  3  4  1  0
  5  4  1  0
  6  5  1  0
  7  6  1  0
  8  2  1  0
  8  9  2  0
 10  8  1  0
 11 22  1  0
 11 10  1  0
 11 12  1  1
 13 14  2  0
 13 12  1  0
 15 14  1  0
 16 21  2  0
 16 15  1  0
 17 16  1  0
 18 19  1  0
 18 17  2  0
 19 20  2  0
 20 21  1  0
 21 13  1  0
 22 29  1  0
 23 22  2  0
 24 25  1  0
 25 27  1  0
 26 25  2  0
 28 27  1  1
 28 30  1  0
 29 28  1  0
 30 31  2  0
 30 32  1  0
M  END
$$$$
