KWN.pdb
     RDKit          3D

 32 33  0  0  1  0  0  0  0  0999 V2000
    7.3585  -16.4184   20.5134 N   0  0  0  0  0  0  0  0  0  0  0  0
    8.4991  -15.5970   20.2737 C   0  0  1  0  0  0  0  0  0  0  0  0
    8.1947  -14.3779   19.5045 C   0  0  0  0  0  0  0  0  0  0  0  0
    7.5999  -14.6319   18.1640 C   0  0  0  0  0  0  0  0  0  0  0  0
    8.0799  -13.6716   17.1243 C   0  0  0  0  0  0  0  0  0  0  0  0
    7.4591  -14.0957   15.7824 C   0  0  0  0  0  0  0  0  0  0  0  0
    7.9230  -13.1531   14.7914 N   0  0  0  0  0  0  0  0  0  0  0  0
    9.2717  -15.3216   21.5271 C   0  0  0  0  0  0  0  0  0  0  0  0
   10.2706  -14.5560   21.5089 O   0  0  0  0  0  0  0  0  0  0  0  0
    8.9360  -15.8921   22.7871 N   0  0  0  0  0  0  0  0  0  0  0  0
    9.6853  -15.6234   23.9911 C   0  0  1  0  0  0  0  0  0  0  0  0
    8.9323  -16.0023   25.2439 C   0  0  0  0  0  0  0  0  0  0  0  0
    7.7070  -15.2447   25.4736 C   0  0  0  0  0  0  0  0  0  0  0  0
    6.4045  -15.6695   25.3848 C   0  0  0  0  0  0  0  0  0  0  0  0
    5.6041  -14.6319   25.6834 N   0  0  0  0  0  0  0  0  0  0  0  0
    6.3429  -13.5564   25.9608 C   0  0  0  0  0  0  0  0  0  0  0  0
    6.0425  -12.2568   26.3204 C   0  0  0  0  0  0  0  0  0  0  0  0
    6.9905  -11.2981   26.5616 C   0  0  0  0  0  0  0  0  0  0  0  0
    8.3263  -11.6632   26.4349 C   0  0  0  0  0  0  0  0  0  0  0  0
    8.6347  -12.9607   26.0757 C   0  0  0  0  0  0  0  0  0  0  0  0
    7.6596  -13.9180   25.8354 C   0  0  0  0  0  0  0  0  0  0  0  0
   10.9046  -16.4814   23.9590 C   0  0  0  0  0  0  0  0  0  0  0  0
   10.7962  -17.6389   23.4345 O   0  0  0  0  0  0  0  0  0  0  0  0
   16.1688  -17.8609   22.9698 N   0  0  0  0  0  0  0  0  0  0  0  0
   15.7488  -17.0778   24.0717 C   0  0  0  0  0  0  0  0  0  0  0  0
   16.4699  -17.1588   25.1181 O   0  0  0  0  0  0  0  0  0  0  0  0
   14.5750  -16.1954   24.1057 C   0  0  0  0  0  0  0  0  0  0  0  0
   13.3306  -16.9888   24.3212 C   0  0  2  0  0  0  0  0  0  0  0  0
   12.1552  -16.1167   24.4581 N   0  0  0  0  0  0  0  0  0  0  0  0
   13.4216  -17.7964   25.5518 C   0  0  0  0  0  0  0  0  0  0  0  0
   13.0815  -17.4409   26.6897 O   0  0  0  0  0  0  0  0  0  0  0  0
   13.9411  -19.1013   25.4537 O   0  0  0  0  0  0  0  0  0  0  0  0
  2  3  1  0
  2  1  1  1
  3  4  1  0
  5  4  1  0
  6  5  1  0
  7  6  1  0
  8  2  1  0
  8  9  2  0
 10  8  1  0
 11 22  1  0
 11 10  1  0
 11 12  1  1
 13 14  2  0
 13 12  1  0
 15 14  1  0
 16 21  2  0
 16 15  1  0
 17 16  1  0
 18 19  1  0
 18 17  2  0
 19 20  2  0
 20 21  1  0
 21 13  1  0
 22 29  1  0
 23 22  2  0
 24 25  1  0
 25 27  1  0
 26 25  2  0
 28 27  1  1
 28 30  1  0
 29 28  1  0
 30 31  2  0
 30 32  1  0
M  END
$$$$
