KWN.pdb
     RDKit          3D

 32 33  0  0  1  0  0  0  0  0999 V2000
    7.9339  -16.5838   18.4352 N   0  0  0  0  0  0  0  0  0  0  0  0
    8.7983  -15.4724   18.6611 C   0  0  1  0  0  0  0  0  0  0  0  0
    8.5108  -14.3177   17.7924 C   0  0  0  0  0  0  0  0  0  0  0  0
    7.7937  -14.6612   16.5342 C   0  0  0  0  0  0  0  0  0  0  0  0
    7.8445  -13.5655   15.5192 C   0  0  0  0  0  0  0  0  0  0  0  0
    7.0236  -14.0250   14.3022 C   0  0  0  0  0  0  0  0  0  0  0  0
    7.1517  -12.9941   13.2991 N   0  0  0  0  0  0  0  0  0  0  0  0
    8.8841  -15.1077   20.1115 C   0  0  0  0  0  0  0  0  0  0  0  0
    9.7042  -14.2383   20.5061 O   0  0  0  0  0  0  0  0  0  0  0  0
    8.0658  -15.7043   21.1115 N   0  0  0  0  0  0  0  0  0  0  0  0
    8.1797  -15.3762   22.5125 C   0  0  1  0  0  0  0  0  0  0  0  0
    6.8658  -15.4919   23.2477 C   0  0  0  0  0  0  0  0  0  0  0  0
    6.9383  -15.2117   24.6775 C   0  0  0  0  0  0  0  0  0  0  0  0
    6.7913  -16.0787   25.7317 C   0  0  0  0  0  0  0  0  0  0  0  0
    6.9391  -15.3817   26.8712 N   0  0  0  0  0  0  0  0  0  0  0  0
    7.1758  -14.0995   26.5893 C   0  0  0  0  0  0  0  0  0  0  0  0
    7.3983  -12.9759   27.3616 C   0  0  0  0  0  0  0  0  0  0  0  0
    7.6244  -11.7297   26.8402 C   0  0  0  0  0  0  0  0  0  0  0  0
    7.6283  -11.5989   25.4558 C   0  0  0  0  0  0  0  0  0  0  0  0
    7.4066  -12.7176   24.6769 C   0  0  0  0  0  0  0  0  0  0  0  0
    7.1793  -13.9721   25.2240 C   0  0  0  0  0  0  0  0  0  0  0  0
    9.0965  -16.3759   23.1322 C   0  0  0  0  0  0  0  0  0  0  0  0
    9.0255  -17.5785   22.7134 O   0  0  0  0  0  0  0  0  0  0  0  0
   13.8676  -18.6289   23.9760 N   0  0  0  0  0  0  0  0  0  0  0  0
   13.4605  -17.4747   24.6872 C   0  0  0  0  0  0  0  0  0  0  0  0
   14.0531  -17.2665   25.7948 O   0  0  0  0  0  0  0  0  0  0  0  0
   12.4336  -16.5153   24.2597 C   0  0  0  0  0  0  0  0  0  0  0  0
   11.0693  -17.0615   24.5147 C   0  0  2  0  0  0  0  0  0  0  0  0
   10.0261  -16.0983   24.1346 N   0  0  0  0  0  0  0  0  0  0  0  0
   10.8792  -17.3707   25.9441 C   0  0  0  0  0  0  0  0  0  0  0  0
   10.8851  -16.5557   26.8783 O   0  0  0  0  0  0  0  0  0  0  0  0
   10.6686  -18.7134   26.3115 O   0  0  0  0  0  0  0  0  0  0  0  0
  2  3  1  0
  2  1  1  1
  3  4  1  0
  5  4  1  0
  6  5  1  0
  7  6  1  0
  8  2  1  0
  8  9  2  0
 10  8  1  0
 11 22  1  0
 11 10  1  0
 11 12  1  1
 13 14  2  0
 13 12  1  0
 15 14  1  0
 16 21  2  0
 16 15  1  0
 17 16  1  0
 18 19  1  0
 18 17  2  0
 19 20  2  0
 20 21  1  0
 21 13  1  0
 22 29  1  0
 23 22  2  0
 24 25  1  0
 25 27  1  0
 26 25  2  0
 28 27  1  1
 28 30  1  0
 29 28  1  0
 30 31  2  0
 30 32  1  0
M  END
$$$$
