KWN.pdb
     RDKit          3D

 32 33  0  0  1  0  0  0  0  0999 V2000
    8.6427  -16.5208   18.8431 N   0  0  0  0  0  0  0  0  0  0  0  0
    9.2150  -15.2464   19.1285 C   0  0  1  0  0  0  0  0  0  0  0  0
    8.7072  -14.1667   18.2642 C   0  0  0  0  0  0  0  0  0  0  0  0
    8.6180  -14.5267   16.8228 C   0  0  0  0  0  0  0  0  0  0  0  0
    8.0859  -13.4143   15.9783 C   0  0  0  0  0  0  0  0  0  0  0  0
    7.8888  -13.9675   14.5567 C   0  0  0  0  0  0  0  0  0  0  0  0
    8.0206  -12.8497   13.6519 N   0  0  0  0  0  0  0  0  0  0  0  0
    9.1488  -14.9100   20.5867 C   0  0  0  0  0  0  0  0  0  0  0  0
    9.5932  -13.8117   21.0117 O   0  0  0  0  0  0  0  0  0  0  0  0
    8.5941  -15.7866   21.5611 N   0  0  0  0  0  0  0  0  0  0  0  0
    8.4922  -15.4380   22.9580 C   0  0  1  0  0  0  0  0  0  0  0  0
    7.0763  -15.5147   23.4770 C   0  0  0  0  0  0  0  0  0  0  0  0
    6.9214  -15.1668   24.8852 C   0  0  0  0  0  0  0  0  0  0  0  0
    6.6682  -15.9933   25.9518 C   0  0  0  0  0  0  0  0  0  0  0  0
    6.6075  -15.2380   27.0619 N   0  0  0  0  0  0  0  0  0  0  0  0
    6.8123  -13.9575   26.7492 C   0  0  0  0  0  0  0  0  0  0  0  0
    6.8562  -12.7888   27.4844 C   0  0  0  0  0  0  0  0  0  0  0  0
    7.0880  -11.5556   26.9355 C   0  0  0  0  0  0  0  0  0  0  0  0
    7.2891  -11.4868   25.5612 C   0  0  0  0  0  0  0  0  0  0  0  0
    7.2467  -12.6509   24.8193 C   0  0  0  0  0  0  0  0  0  0  0  0
    7.0104  -13.8915   25.3939 C   0  0  0  0  0  0  0  0  0  0  0  0
    9.2763  -16.4460   23.7282 C   0  0  0  0  0  0  0  0  0  0  0  0
    8.9627  -17.6734   23.5806 O   0  0  0  0  0  0  0  0  0  0  0  0
   13.4507  -15.7347   22.8350 N   0  0  0  0  0  0  0  0  0  0  0  0
   12.9430  -16.8549   23.5357 C   0  0  0  0  0  0  0  0  0  0  0  0
   12.7548  -17.9059   22.8418 O   0  0  0  0  0  0  0  0  0  0  0  0
   12.6244  -16.9045   24.9688 C   0  0  0  0  0  0  0  0  0  0  0  0
   11.1774  -17.2029   25.1727 C   0  0  2  0  0  0  0  0  0  0  0  0
   10.3265  -16.1511   24.5978 N   0  0  0  0  0  0  0  0  0  0  0  0
   10.8506  -17.2940   26.6079 C   0  0  0  0  0  0  0  0  0  0  0  0
   11.3744  -18.0567   27.4328 O   0  0  0  0  0  0  0  0  0  0  0  0
    9.8506  -16.4437   27.1171 O   0  0  0  0  0  0  0  0  0  0  0  0
  2  3  1  0
  2  1  1  1
  3  4  1  0
  5  4  1  0
  6  5  1  0
  7  6  1  0
  8  2  1  0
  8  9  2  0
 10  8  1  0
 11 22  1  0
 11 10  1  0
 11 12  1  1
 13 14  2  0
 13 12  1  0
 15 14  1  0
 16 21  2  0
 16 15  1  0
 17 16  1  0
 18 19  1  0
 18 17  2  0
 19 20  2  0
 20 21  1  0
 21 13  1  0
 22 29  1  0
 23 22  2  0
 24 25  1  0
 25 27  1  0
 26 25  2  0
 28 27  1  1
 28 30  1  0
 29 28  1  0
 30 31  2  0
 30 32  1  0
M  END
$$$$
