KWN.pdb
     RDKit          3D

 32 33  0  0  1  0  0  0  0  0999 V2000
    9.4755  -16.2680   18.9931 N   0  0  0  0  0  0  0  0  0  0  0  0
   10.1315  -15.0804   19.4318 C   0  0  1  0  0  0  0  0  0  0  0  0
    9.8967  -13.9206   18.5542 C   0  0  0  0  0  0  0  0  0  0  0  0
    9.5899  -14.2736   17.1412 C   0  0  0  0  0  0  0  0  0  0  0  0
    8.1610  -14.0282   16.7785 C   0  0  0  0  0  0  0  0  0  0  0  0
    8.0157  -14.2924   15.2702 C   0  0  0  0  0  0  0  0  0  0  0  0
    6.6018  -14.2683   14.9766 N   0  0  0  0  0  0  0  0  0  0  0  0
    9.8638  -14.7863   20.8760 C   0  0  0  0  0  0  0  0  0  0  0  0
   10.5235  -13.9029   21.4830 O   0  0  0  0  0  0  0  0  0  0  0  0
    8.8724  -15.4683   21.6362 N   0  0  0  0  0  0  0  0  0  0  0  0
    8.6627  -15.2255   23.0434 C   0  0  1  0  0  0  0  0  0  0  0  0
    7.2137  -15.3550   23.4483 C   0  0  0  0  0  0  0  0  0  0  0  0
    6.9270  -14.9697   24.8258 C   0  0  0  0  0  0  0  0  0  0  0  0
    6.4435  -15.7434   25.8517 C   0  0  0  0  0  0  0  0  0  0  0  0
    6.3364  -14.9697   26.9454 N   0  0  0  0  0  0  0  0  0  0  0  0
    6.7329  -13.7281   26.6614 C   0  0  0  0  0  0  0  0  0  0  0  0
    6.8261  -12.5622   27.3966 C   0  0  0  0  0  0  0  0  0  0  0  0
    7.2730  -11.3744   26.8816 C   0  0  0  0  0  0  0  0  0  0  0  0
    7.6517  -11.3512   25.5438 C   0  0  0  0  0  0  0  0  0  0  0  0
    7.5614  -12.5128   24.8021 C   0  0  0  0  0  0  0  0  0  0  0  0
    7.1059  -13.7069   25.3420 C   0  0  0  0  0  0  0  0  0  0  0  0
    9.4037  -16.2798   23.7938 C   0  0  0  0  0  0  0  0  0  0  0  0
    8.8526  -17.4253   23.8982 O   0  0  0  0  0  0  0  0  0  0  0  0
   14.0845  -15.6606   23.3776 N   0  0  0  0  0  0  0  0  0  0  0  0
   13.3324  -16.7811   23.8048 C   0  0  0  0  0  0  0  0  0  0  0  0
   13.1101  -17.6708   22.9214 O   0  0  0  0  0  0  0  0  0  0  0  0
   12.8005  -16.9988   25.1566 C   0  0  0  0  0  0  0  0  0  0  0  0
   11.3238  -17.2031   25.1108 C   0  0  2  0  0  0  0  0  0  0  0  0
   10.6532  -16.1111   24.3908 N   0  0  0  0  0  0  0  0  0  0  0  0
   10.7510  -17.2481   26.4690 C   0  0  0  0  0  0  0  0  0  0  0  0
    9.8816  -16.4906   26.9242 O   0  0  0  0  0  0  0  0  0  0  0  0
   11.2187  -18.2370   27.3553 O   0  0  0  0  0  0  0  0  0  0  0  0
  2  3  1  0
  2  1  1  6
  3  4  1  0
  5  4  1  0
  6  5  1  0
  7  6  1  0
  8  2  1  0
  8  9  2  0
 10  8  1  0
 11 22  1  0
 11 10  1  0
 11 12  1  6
 13 14  2  0
 13 12  1  0
 15 14  1  0
 16 21  2  0
 16 15  1  0
 17 16  1  0
 18 19  1  0
 18 17  2  0
 19 20  2  0
 20 21  1  0
 21 13  1  0
 22 29  1  0
 23 22  2  0
 24 25  1  0
 25 27  1  0
 26 25  2  0
 28 27  1  1
 28 30  1  0
 29 28  1  0
 30 31  2  0
 30 32  1  0
M  END
$$$$
