KWN.pdb
     RDKit          3D

 32 33  0  0  1  0  0  0  0  0999 V2000
    7.1058  -16.0446   20.7770 N   0  0  0  0  0  0  0  0  0  0  0  0
    8.2605  -15.2244   20.6119 C   0  0  1  0  0  0  0  0  0  0  0  0
    7.9617  -13.8936   20.0550 C   0  0  0  0  0  0  0  0  0  0  0  0
    7.2395  -13.9220   18.7539 C   0  0  0  0  0  0  0  0  0  0  0  0
    8.0801  -13.4479   17.6127 C   0  0  0  0  0  0  0  0  0  0  0  0
    7.2537  -13.6220   16.3272 C   0  0  0  0  0  0  0  0  0  0  0  0
    8.0790  -13.1618   15.2350 N   0  0  0  0  0  0  0  0  0  0  0  0
    9.0955  -15.1659   21.8542 C   0  0  0  0  0  0  0  0  0  0  0  0
   10.1775  -14.5231   21.8692 O   0  0  0  0  0  0  0  0  0  0  0  0
    8.7300  -15.8159   23.0665 N   0  0  0  0  0  0  0  0  0  0  0  0
    9.5384  -15.7544   24.2606 C   0  0  1  0  0  0  0  0  0  0  0  0
    8.7527  -16.0591   25.5136 C   0  0  0  0  0  0  0  0  0  0  0  0
    7.5315  -15.2775   25.6750 C   0  0  0  0  0  0  0  0  0  0  0  0
    6.2269  -15.6865   25.5516 C   0  0  0  0  0  0  0  0  0  0  0  0
    5.4321  -14.6289   25.7886 N   0  0  0  0  0  0  0  0  0  0  0  0
    6.1765  -13.5557   26.0598 C   0  0  0  0  0  0  0  0  0  0  0  0
    5.8832  -12.2415   26.3681 C   0  0  0  0  0  0  0  0  0  0  0  0
    6.8363  -11.2892   26.6144 C   0  0  0  0  0  0  0  0  0  0  0  0
    8.1701  -11.6769   26.5479 C   0  0  0  0  0  0  0  0  0  0  0  0
    8.4715  -12.9891   26.2403 C   0  0  0  0  0  0  0  0  0  0  0  0
    7.4913  -13.9396   25.9939 C   0  0  0  0  0  0  0  0  0  0  0  0
   10.5799  -16.8159   24.1501 C   0  0  0  0  0  0  0  0  0  0  0  0
   10.1929  -17.9894   23.8338 O   0  0  0  0  0  0  0  0  0  0  0  0
   13.9783  -15.2492   22.0841 N   0  0  0  0  0  0  0  0  0  0  0  0
   14.3558  -16.2633   22.9968 C   0  0  0  0  0  0  0  0  0  0  0  0
   15.2821  -15.9577   23.8152 O   0  0  0  0  0  0  0  0  0  0  0  0
   13.7767  -17.6108   23.0774 C   0  0  0  0  0  0  0  0  0  0  0  0
   12.9063  -17.7346   24.2822 C   0  0  2  0  0  0  0  0  0  0  0  0
   11.9449  -16.6258   24.3657 N   0  0  0  0  0  0  0  0  0  0  0  0
   13.7068  -17.7136   25.5206 C   0  0  0  0  0  0  0  0  0  0  0  0
   13.6347  -16.8706   26.4268 O   0  0  0  0  0  0  0  0  0  0  0  0
   14.6519  -18.7382   25.7187 O   0  0  0  0  0  0  0  0  0  0  0  0
  2  3  1  0
  2  1  1  1
  3  4  1  0
  5  4  1  0
  6  5  1  0
  7  6  1  0
  8  2  1  0
  8  9  2  0
 10  8  1  0
 11 22  1  0
 11 10  1  0
 11 12  1  1
 13 14  2  0
 13 12  1  0
 15 14  1  0
 16 21  2  0
 16 15  1  0
 17 16  1  0
 18 19  1  0
 18 17  2  0
 19 20  2  0
 20 21  1  0
 21 13  1  0
 22 29  1  0
 23 22  2  0
 24 25  1  0
 25 27  1  0
 26 25  2  0
 28 27  1  6
 28 30  1  0
 29 28  1  0
 30 31  2  0
 30 32  1  0
M  END
$$$$
