KWN.pdb
     RDKit          3D

 32 33  0  0  1  0  0  0  0  0999 V2000
    7.4834  -16.6368   20.4669 N   0  0  0  0  0  0  0  0  0  0  0  0
    8.5481  -15.6883   20.4677 C   0  0  1  0  0  0  0  0  0  0  0  0
    8.1615  -14.3699   19.9358 C   0  0  0  0  0  0  0  0  0  0  0  0
    7.5838  -14.4079   18.5647 C   0  0  0  0  0  0  0  0  0  0  0  0
    8.1651  -13.3695   17.6606 C   0  0  0  0  0  0  0  0  0  0  0  0
    7.5001  -13.5320   16.2832 C   0  0  0  0  0  0  0  0  0  0  0  0
    8.0416  -12.4973   15.4336 N   0  0  0  0  0  0  0  0  0  0  0  0
    9.2319  -15.6061   21.7979 C   0  0  0  0  0  0  0  0  0  0  0  0
   10.2545  -14.8880   21.9494 O   0  0  0  0  0  0  0  0  0  0  0  0
    8.7824  -16.3156   22.9469 N   0  0  0  0  0  0  0  0  0  0  0  0
    9.4078  -16.1835   24.2410 C   0  0  1  0  0  0  0  0  0  0  0  0
    8.4518  -16.4438   25.3805 C   0  0  0  0  0  0  0  0  0  0  0  0
    7.3793  -15.4641   25.5149 C   0  0  0  0  0  0  0  0  0  0  0  0
    6.0310  -15.6337   25.3198 C   0  0  0  0  0  0  0  0  0  0  0  0
    5.4222  -14.4595   25.5583 N   0  0  0  0  0  0  0  0  0  0  0  0
    6.3281  -13.5417   25.8993 C   0  0  0  0  0  0  0  0  0  0  0  0
    6.2536  -12.2050   26.2400 C   0  0  0  0  0  0  0  0  0  0  0  0
    7.3449  -11.4421   26.5612 C   0  0  0  0  0  0  0  0  0  0  0  0
    8.5922  -12.0565   26.5403 C   0  0  0  0  0  0  0  0  0  0  0  0
    8.6749  -13.3927   26.2007 C   0  0  0  0  0  0  0  0  0  0  0  0
    7.5573  -14.1490   25.8782 C   0  0  0  0  0  0  0  0  0  0  0  0
   10.4663  -17.2298   24.3344 C   0  0  0  0  0  0  0  0  0  0  0  0
   10.2715  -18.3219   23.7051 O   0  0  0  0  0  0  0  0  0  0  0  0
   15.6533  -19.1203   26.5093 N   0  0  0  0  0  0  0  0  0  0  0  0
   14.9714  -18.8152   25.3070 C   0  0  0  0  0  0  0  0  0  0  0  0
   15.2139  -19.5827   24.3203 O   0  0  0  0  0  0  0  0  0  0  0  0
   14.0241  -17.7101   25.1087 C   0  0  0  0  0  0  0  0  0  0  0  0
   12.6199  -18.2106   25.1555 C   0  0  2  0  0  0  0  0  0  0  0  0
   11.6536  -17.1073   25.0565 N   0  0  0  0  0  0  0  0  0  0  0  0
   12.3491  -18.9167   26.4215 C   0  0  0  0  0  0  0  0  0  0  0  0
   12.6037  -20.1047   26.6682 O   0  0  0  0  0  0  0  0  0  0  0  0
   11.7435  -18.1959   27.4684 O   0  0  0  0  0  0  0  0  0  0  0  0
  2  3  1  0
  2  1  1  1
  3  4  1  0
  5  4  1  0
  6  5  1  0
  7  6  1  0
  8  2  1  0
  8  9  2  0
 10  8  1  0
 11 22  1  0
 11 10  1  0
 11 12  1  1
 13 14  2  0
 13 12  1  0
 15 14  1  0
 16 21  2  0
 16 15  1  0
 17 16  1  0
 18 19  1  0
 18 17  2  0
 19 20  2  0
 20 21  1  0
 21 13  1  0
 22 29  1  0
 23 22  2  0
 24 25  1  0
 25 27  1  0
 26 25  2  0
 28 27  1  1
 28 30  1  0
 29 28  1  0
 30 31  2  0
 30 32  1  0
M  END
$$$$
