KWN.pdb
     RDKit          3D

 32 33  0  0  1  0  0  0  0  0999 V2000
    7.8183  -16.8348   20.7519 N   0  0  0  0  0  0  0  0  0  0  0  0
    8.7590  -15.7639   20.7916 C   0  0  1  0  0  0  0  0  0  0  0  0
    8.2575  -14.5179   20.1864 C   0  0  0  0  0  0  0  0  0  0  0  0
    8.5665  -14.3729   18.7377 C   0  0  0  0  0  0  0  0  0  0  0  0
    7.5905  -13.4972   18.0205 C   0  0  0  0  0  0  0  0  0  0  0  0
    7.9973  -13.4707   16.5373 C   0  0  0  0  0  0  0  0  0  0  0  0
    6.9858  -12.7109   15.8407 N   0  0  0  0  0  0  0  0  0  0  0  0
    9.3290  -15.5618   22.1621 C   0  0  0  0  0  0  0  0  0  0  0  0
   10.1747  -14.6547   22.3769 O   0  0  0  0  0  0  0  0  0  0  0  0
    8.9616  -16.3608   23.2812 N   0  0  0  0  0  0  0  0  0  0  0  0
    9.5253  -16.1701   24.5961 C   0  0  1  0  0  0  0  0  0  0  0  0
    8.5100  -16.3542   25.6986 C   0  0  0  0  0  0  0  0  0  0  0  0
    7.4207  -15.3839   25.6951 C   0  0  0  0  0  0  0  0  0  0  0  0
    6.0953  -15.5810   25.3965 C   0  0  0  0  0  0  0  0  0  0  0  0
    5.4574  -14.4051   25.5257 N   0  0  0  0  0  0  0  0  0  0  0  0
    6.3225  -13.4598   25.8962 C   0  0  0  0  0  0  0  0  0  0  0  0
    6.2069  -12.1095   26.1640 C   0  0  0  0  0  0  0  0  0  0  0  0
    7.2599  -11.3174   26.5378 C   0  0  0  0  0  0  0  0  0  0  0  0
    8.5104  -11.9150   26.6511 C   0  0  0  0  0  0  0  0  0  0  0  0
    8.6341  -13.2646   26.3850 C   0  0  0  0  0  0  0  0  0  0  0  0
    7.5549  -14.0506   26.0075 C   0  0  0  0  0  0  0  0  0  0  0  0
   10.5584  -17.2268   24.7967 C   0  0  0  0  0  0  0  0  0  0  0  0
   10.2149  -18.4350   24.5758 O   0  0  0  0  0  0  0  0  0  0  0  0
   14.3661  -17.6549   22.9018 N   0  0  0  0  0  0  0  0  0  0  0  0
   14.5461  -17.0411   24.1646 C   0  0  0  0  0  0  0  0  0  0  0  0
   15.0355  -15.8657   24.1466 O   0  0  0  0  0  0  0  0  0  0  0  0
   14.2189  -17.6356   25.4674 C   0  0  0  0  0  0  0  0  0  0  0  0
   12.8016  -18.0996   25.4892 C   0  0  2  0  0  0  0  0  0  0  0  0
   11.8716  -16.9968   25.2071 N   0  0  0  0  0  0  0  0  0  0  0  0
   12.4420  -18.6478   26.8102 C   0  0  0  0  0  0  0  0  0  0  0  0
   12.6075  -19.8164   27.1895 O   0  0  0  0  0  0  0  0  0  0  0  0
   11.8522  -17.7822   27.7509 O   0  0  0  0  0  0  0  0  0  0  0  0
  2  3  1  0
  2  1  1  1
  3  4  1  0
  5  4  1  0
  6  5  1  0
  7  6  1  0
  8  2  1  0
  8  9  2  0
 10  8  1  0
 11 22  1  0
 11 10  1  0
 11 12  1  1
 13 14  2  0
 13 12  1  0
 15 14  1  0
 16 21  2  0
 16 15  1  0
 17 16  1  0
 18 19  1  0
 18 17  2  0
 19 20  2  0
 20 21  1  0
 21 13  1  0
 22 29  1  0
 23 22  2  0
 24 25  1  0
 25 27  1  0
 26 25  2  0
 28 27  1  1
 28 30  1  0
 29 28  1  0
 30 31  2  0
 30 32  1  0
M  END
$$$$
