KWN.pdb
     RDKit          3D

 32 33  0  0  1  0  0  0  0  0999 V2000
    7.1525  -16.1884   19.8675 N   0  0  0  0  0  0  0  0  0  0  0  0
    8.2878  -15.3261   19.8946 C   0  0  1  0  0  0  0  0  0  0  0  0
    8.0187  -13.9824   19.3537 C   0  0  0  0  0  0  0  0  0  0  0  0
    7.2964  -13.9793   18.0523 C   0  0  0  0  0  0  0  0  0  0  0  0
    8.0809  -13.3369   16.9543 C   0  0  0  0  0  0  0  0  0  0  0  0
    7.2562  -13.4642   15.6622 C   0  0  0  0  0  0  0  0  0  0  0  0
    8.0228  -12.8327   14.6138 N   0  0  0  0  0  0  0  0  0  0  0  0
    8.9432  -15.2954   21.2412 C   0  0  0  0  0  0  0  0  0  0  0  0
   10.0088  -14.6501   21.4206 O   0  0  0  0  0  0  0  0  0  0  0  0
    8.4179  -15.9755   22.3758 N   0  0  0  0  0  0  0  0  0  0  0  0
    8.9995  -15.8641   23.6921 C   0  0  1  0  0  0  0  0  0  0  0  0
    8.0733  -16.3477   24.7822 C   0  0  0  0  0  0  0  0  0  0  0  0
    7.1389  -15.3444   25.2805 C   0  0  0  0  0  0  0  0  0  0  0  0
    5.8231  -15.4989   25.6401 C   0  0  0  0  0  0  0  0  0  0  0  0
    5.3555  -14.3047   26.0421 N   0  0  0  0  0  0  0  0  0  0  0  0
    6.3211  -13.3885   25.9546 C   0  0  0  0  0  0  0  0  0  0  0  0
    6.3848  -12.0368   26.2324 C   0  0  0  0  0  0  0  0  0  0  0  0
    7.5131  -11.2795   26.0612 C   0  0  0  0  0  0  0  0  0  0  0  0
    8.6524  -11.9160   25.5807 C   0  0  0  0  0  0  0  0  0  0  0  0
    8.5967  -13.2672   25.3007 C   0  0  0  0  0  0  0  0  0  0  0  0
    7.4436  -14.0176   25.4808 C   0  0  0  0  0  0  0  0  0  0  0  0
   10.1936  -16.7567   23.7297 C   0  0  0  0  0  0  0  0  0  0  0  0
   10.1111  -17.8759   23.1238 O   0  0  0  0  0  0  0  0  0  0  0  0
   14.8675  -18.9994   24.2352 N   0  0  0  0  0  0  0  0  0  0  0  0
   14.9320  -17.6103   23.9709 C   0  0  0  0  0  0  0  0  0  0  0  0
   16.0918  -17.1439   23.7284 O   0  0  0  0  0  0  0  0  0  0  0  0
   13.7938  -16.6820   23.9509 C   0  0  0  0  0  0  0  0  0  0  0  0
   12.5388  -17.3849   24.3453 C   0  0  2  0  0  0  0  0  0  0  0  0
   11.3944  -16.4629   24.3761 N   0  0  0  0  0  0  0  0  0  0  0  0
   12.6609  -17.9756   25.6910 C   0  0  0  0  0  0  0  0  0  0  0  0
   12.0132  -17.6502   26.6968 O   0  0  0  0  0  0  0  0  0  0  0  0
   13.5958  -19.0112   25.8802 O   0  0  0  0  0  0  0  0  0  0  0  0
  2  3  1  0
  2  1  1  1
  3  4  1  0
  5  4  1  0
  6  5  1  0
  7  6  1  0
  8  2  1  0
  8  9  2  0
 10  8  1  0
 11 22  1  0
 11 10  1  0
 11 12  1  1
 13 14  2  0
 13 12  1  0
 15 14  1  0
 16 21  2  0
 16 15  1  0
 17 16  1  0
 18 19  1  0
 18 17  2  0
 19 20  2  0
 20 21  1  0
 21 13  1  0
 22 29  1  0
 23 22  2  0
 24 25  1  0
 25 27  1  0
 26 25  2  0
 28 27  1  1
 28 30  1  0
 29 28  1  0
 30 31  2  0
 30 32  1  0
M  END
$$$$
