KWN.pdb
     RDKit          3D

 32 33  0  0  1  0  0  0  0  0999 V2000
   10.3320  -15.8736   18.2760 N   0  0  0  0  0  0  0  0  0  0  0  0
    9.7320  -16.7263   19.2487 C   0  0  1  0  0  0  0  0  0  0  0  0
   10.3351  -18.0692   19.3055 C   0  0  0  0  0  0  0  0  0  0  0  0
   10.1227  -18.8885   18.0812 C   0  0  0  0  0  0  0  0  0  0  0  0
    9.1468  -20.0011   18.2891 C   0  0  0  0  0  0  0  0  0  0  0  0
    9.9376  -21.3201   18.2606 C   0  0  0  0  0  0  0  0  0  0  0  0
    8.9721  -22.3881   18.3743 N   0  0  0  0  0  0  0  0  0  0  0  0
    9.6333  -16.0708   20.5921 C   0  0  0  0  0  0  0  0  0  0  0  0
   10.6371  -15.5145   21.1089 O   0  0  0  0  0  0  0  0  0  0  0  0
    8.4302  -16.0351   21.3517 N   0  0  0  0  0  0  0  0  0  0  0  0
    8.3780  -15.5505   22.7102 C   0  0  1  0  0  0  0  0  0  0  0  0
    6.9681  -15.4562   23.2425 C   0  0  0  0  0  0  0  0  0  0  0  0
    6.8697  -15.0997   24.6537 C   0  0  0  0  0  0  0  0  0  0  0  0
    6.6208  -15.9141   25.7304 C   0  0  0  0  0  0  0  0  0  0  0  0
    6.6217  -15.1546   26.8393 N   0  0  0  0  0  0  0  0  0  0  0  0
    6.8619  -13.8829   26.5159 C   0  0  0  0  0  0  0  0  0  0  0  0
    6.9701  -12.7148   27.2454 C   0  0  0  0  0  0  0  0  0  0  0  0
    7.2282  -11.4919   26.6853 C   0  0  0  0  0  0  0  0  0  0  0  0
    7.3885  -11.4335   25.3052 C   0  0  0  0  0  0  0  0  0  0  0  0
    7.2818  -12.5971   24.5689 C   0  0  0  0  0  0  0  0  0  0  0  0
    7.0197  -13.8271   25.1549 C   0  0  0  0  0  0  0  0  0  0  0  0
    9.0840  -16.5461   23.5670 C   0  0  0  0  0  0  0  0  0  0  0  0
    8.7718  -17.7742   23.4215 O   0  0  0  0  0  0  0  0  0  0  0  0
   13.3803  -15.9021   23.2485 N   0  0  0  0  0  0  0  0  0  0  0  0
   12.8314  -17.0109   23.9362 C   0  0  0  0  0  0  0  0  0  0  0  0
   12.8495  -18.1187   23.3086 O   0  0  0  0  0  0  0  0  0  0  0  0
   12.2566  -16.9896   25.2879 C   0  0  0  0  0  0  0  0  0  0  0  0
   10.7956  -17.2858   25.2394 C   0  0  2  0  0  0  0  0  0  0  0  0
   10.0598  -16.2393   24.5156 N   0  0  0  0  0  0  0  0  0  0  0  0
   10.2238  -17.3634   26.5966 C   0  0  0  0  0  0  0  0  0  0  0  0
   10.6026  -18.1100   27.5109 O   0  0  0  0  0  0  0  0  0  0  0  0
    9.1421  -16.5190   26.9114 O   0  0  0  0  0  0  0  0  0  0  0  0
  2  3  1  0
  2  1  1  6
  3  4  1  0
  5  4  1  0
  6  5  1  0
  7  6  1  0
  8  2  1  0
  8  9  2  0
 10  8  1  0
 11 22  1  0
 11 10  1  0
 11 12  1  1
 13 14  2  0
 13 12  1  0
 15 14  1  0
 16 21  2  0
 16 15  1  0
 17 16  1  0
 18 19  1  0
 18 17  2  0
 19 20  2  0
 20 21  1  0
 21 13  1  0
 22 29  1  0
 23 22  2  0
 24 25  1  0
 25 27  1  0
 26 25  2  0
 28 27  1  1
 28 30  1  0
 29 28  1  0
 30 31  2  0
 30 32  1  0
M  END
$$$$
