KWN.pdb
     RDKit          3D

 32 33  0  0  1  0  0  0  0  0999 V2000
    7.5281  -16.5353   21.1311 N   0  0  0  0  0  0  0  0  0  0  0  0
    8.5292  -15.5219   21.0673 C   0  0  1  0  0  0  0  0  0  0  0  0
    8.0318  -14.2359   20.5484 C   0  0  0  0  0  0  0  0  0  0  0  0
    7.3914  -14.3227   19.2077 C   0  0  0  0  0  0  0  0  0  0  0  0
    8.1494  -13.5831   18.1531 C   0  0  0  0  0  0  0  0  0  0  0  0
    7.4141  -13.7985   16.8193 C   0  0  0  0  0  0  0  0  0  0  0  0
    8.1273  -13.0359   15.8217 N   0  0  0  0  0  0  0  0  0  0  0  0
    9.2773  -15.3833   22.3577 C   0  0  0  0  0  0  0  0  0  0  0  0
   10.1845  -14.5198   22.4828 O   0  0  0  0  0  0  0  0  0  0  0  0
    9.0185  -16.1972   23.4962 N   0  0  0  0  0  0  0  0  0  0  0  0
    9.7555  -16.0709   24.7308 C   0  0  1  0  0  0  0  0  0  0  0  0
    8.8723  -16.1763   25.9511 C   0  0  0  0  0  0  0  0  0  0  0  0
    7.6859  -15.3280   25.9225 C   0  0  0  0  0  0  0  0  0  0  0  0
    6.3806  -15.6835   25.6889 C   0  0  0  0  0  0  0  0  0  0  0  0
    5.6249  -14.5744   25.7615 N   0  0  0  0  0  0  0  0  0  0  0  0
    6.3951  -13.5196   26.0330 C   0  0  0  0  0  0  0  0  0  0  0  0
    6.1441  -12.1730   26.2117 C   0  0  0  0  0  0  0  0  0  0  0  0
    7.1173  -11.2503   26.4897 C   0  0  0  0  0  0  0  0  0  0  0  0
    8.4274  -11.7043   26.5961 C   0  0  0  0  0  0  0  0  0  0  0  0
    8.6865  -13.0492   26.4187 C   0  0  0  0  0  0  0  0  0  0  0  0
    7.6864  -13.9689   26.1374 C   0  0  0  0  0  0  0  0  0  0  0  0
   10.7075  -17.2166   24.8018 C   0  0  0  0  0  0  0  0  0  0  0  0
   11.3470  -17.3835   25.8926 O   0  0  0  0  0  0  0  0  0  0  0  0
   15.6722  -18.5678   22.7886 N   0  0  0  0  0  0  0  0  0  0  0  0
   14.3641  -19.0505   22.5445 C   0  0  0  0  0  0  0  0  0  0  0  0
   14.2775  -20.2754   22.2077 O   0  0  0  0  0  0  0  0  0  0  0  0
   13.1233  -18.2711   22.6484 C   0  0  0  0  0  0  0  0  0  0  0  0
   12.2164  -18.8660   23.6722 C   0  0  2  0  0  0  0  0  0  0  0  0
   10.9532  -18.1204   23.7680 N   0  0  0  0  0  0  0  0  0  0  0  0
   12.8384  -18.8462   25.0092 C   0  0  0  0  0  0  0  0  0  0  0  0
   12.9906  -17.8514   25.7330 O   0  0  0  0  0  0  0  0  0  0  0  0
   13.3141  -20.0608   25.5391 O   0  0  0  0  0  0  0  0  0  0  0  0
  2  3  1  0
  2  1  1  1
  3  4  1  0
  5  4  1  0
  6  5  1  0
  7  6  1  0
  8  2  1  0
  8  9  2  0
 10  8  1  0
 11 22  1  0
 11 10  1  0
 11 12  1  1
 13 14  2  0
 13 12  1  0
 15 14  1  0
 16 21  2  0
 16 15  1  0
 17 16  1  0
 18 19  1  0
 18 17  2  0
 19 20  2  0
 20 21  1  0
 21 13  1  0
 22 29  1  0
 23 22  2  0
 24 25  1  0
 25 27  1  0
 26 25  2  0
 28 27  1  6
 28 30  1  0
 29 28  1  0
 30 31  2  0
 30 32  1  0
M  END
$$$$
