KWN.pdb
     RDKit          3D

 32 33  0  0  1  0  0  0  0  0999 V2000
    7.2781  -16.9729   21.0374 N   0  0  0  0  0  0  0  0  0  0  0  0
    8.3729  -16.0722   20.8851 C   0  0  1  0  0  0  0  0  0  0  0  0
    7.9936  -14.7821   20.2832 C   0  0  0  0  0  0  0  0  0  0  0  0
    7.6248  -14.8627   18.8435 C   0  0  0  0  0  0  0  0  0  0  0  0
    7.4728  -13.5191   18.2068 C   0  0  0  0  0  0  0  0  0  0  0  0
    8.5729  -13.3867   17.1400 C   0  0  0  0  0  0  0  0  0  0  0  0
    8.3144  -12.1593   16.4241 N   0  0  0  0  0  0  0  0  0  0  0  0
    9.1606  -15.9196   22.1501 C   0  0  0  0  0  0  0  0  0  0  0  0
   10.1896  -15.1955   22.1809 O   0  0  0  0  0  0  0  0  0  0  0  0
    8.8065  -16.5662   23.3677 N   0  0  0  0  0  0  0  0  0  0  0  0
    9.4879  -16.3117   24.6144 C   0  0  1  0  0  0  0  0  0  0  0  0
    8.5498  -16.2857   25.7974 C   0  0  0  0  0  0  0  0  0  0  0  0
    7.4259  -15.3649   25.6667 C   0  0  0  0  0  0  0  0  0  0  0  0
    6.1259  -15.6392   25.3209 C   0  0  0  0  0  0  0  0  0  0  0  0
    5.4380  -14.4846   25.3283 N   0  0  0  0  0  0  0  0  0  0  0  0
    6.2465  -13.4787   25.6657 C   0  0  0  0  0  0  0  0  0  0  0  0
    6.0661  -12.1181   25.8226 C   0  0  0  0  0  0  0  0  0  0  0  0
    7.0677  -11.2568   26.1841 C   0  0  0  0  0  0  0  0  0  0  0  0
    8.3327  -11.7914   26.4032 C   0  0  0  0  0  0  0  0  0  0  0  0
    8.5211  -13.1508   26.2483 C   0  0  0  0  0  0  0  0  0  0  0  0
    7.4932  -14.0075   25.8813 C   0  0  0  0  0  0  0  0  0  0  0  0
   10.4278  -17.4454   24.8492 C   0  0  0  0  0  0  0  0  0  0  0  0
   10.0749  -18.5982   24.4333 O   0  0  0  0  0  0  0  0  0  0  0  0
   14.7226  -19.0111   23.4590 N   0  0  0  0  0  0  0  0  0  0  0  0
   14.4138  -17.9898   24.3892 C   0  0  0  0  0  0  0  0  0  0  0  0
   14.5635  -16.7956   23.9734 O   0  0  0  0  0  0  0  0  0  0  0  0
   13.9420  -18.1902   25.7658 C   0  0  0  0  0  0  0  0  0  0  0  0
   12.4887  -18.5252   25.7767 C   0  0  2  0  0  0  0  0  0  0  0  0
   11.6635  -17.3434   25.4885 N   0  0  0  0  0  0  0  0  0  0  0  0
   12.0716  -19.0388   27.0947 C   0  0  0  0  0  0  0  0  0  0  0  0
   12.0898  -20.2234   27.4600 O   0  0  0  0  0  0  0  0  0  0  0  0
   11.6033  -18.1164   28.0498 O   0  0  0  0  0  0  0  0  0  0  0  0
  2  3  1  0
  2  1  1  1
  3  4  1  0
  5  4  1  0
  6  5  1  0
  7  6  1  0
  8  2  1  0
  8  9  2  0
 10  8  1  0
 11 22  1  0
 11 10  1  0
 11 12  1  1
 13 14  2  0
 13 12  1  0
 15 14  1  0
 16 21  2  0
 16 15  1  0
 17 16  1  0
 18 19  1  0
 18 17  2  0
 19 20  2  0
 20 21  1  0
 21 13  1  0
 22 29  1  0
 23 22  2  0
 24 25  1  0
 25 27  1  0
 26 25  2  0
 28 27  1  1
 28 30  1  0
 29 28  1  0
 30 31  2  0
 30 32  1  0
M  END
$$$$
