AFK.pdb
     RDKit          3D

 26 26  0  0  1  0  0  0  0  0999 V2000
   22.8774  -23.1019   -6.9016 C   0  0  0  0  0  0  0  0  0  0  0  0
   23.0655  -21.7028   -6.4173 C   0  0  2  0  0  0  0  0  0  0  0  0
   21.8054  -21.0539   -6.1675 N   0  0  0  0  0  0  0  0  0  0  0  0
   23.9546  -20.8913   -7.2871 C   0  0  0  0  0  0  0  0  0  0  0  0
   23.4929  -19.9205   -7.9391 O   0  0  0  0  0  0  0  0  0  0  0  0
   25.3455  -21.1574   -7.4303 N   0  0  0  0  0  0  0  0  0  0  0  0
   26.1623  -20.3321   -8.2988 C   0  0  1  0  0  0  0  0  0  0  0  0
   27.6108  -20.3335   -7.8864 C   0  0  0  0  0  0  0  0  0  0  0  0
   27.8500  -19.7664   -6.5606 C   0  0  0  0  0  0  0  0  0  0  0  0
   27.6129  -18.4357   -6.2912 C   0  0  0  0  0  0  0  0  0  0  0  0
   27.8499  -17.9343   -5.0286 C   0  0  0  0  0  0  0  0  0  0  0  0
   28.3224  -18.7720   -4.0482 C   0  0  0  0  0  0  0  0  0  0  0  0
   28.5689  -20.1073   -4.2877 C   0  0  0  0  0  0  0  0  0  0  0  0
   28.3240  -20.5817   -5.5559 C   0  0  0  0  0  0  0  0  0  0  0  0
   26.0872  -20.9200   -9.6613 C   0  0  0  0  0  0  0  0  0  0  0  0
   25.7968  -22.1515   -9.7792 O   0  0  0  0  0  0  0  0  0  0  0  0
   26.3175  -20.2022  -10.8488 N   0  0  0  0  0  0  0  0  0  0  0  0
   25.4623  -20.3557  -12.0103 C   0  0  1  0  0  0  0  0  0  0  0  0
   24.0289  -20.0488  -11.6459 C   0  0  0  0  0  0  0  0  0  0  0  0
   23.0648  -20.8182  -12.4713 C   0  0  0  0  0  0  0  0  0  0  0  0
   21.6242  -20.4590  -12.2301 C   0  0  0  0  0  0  0  0  0  0  0  0
   20.7607  -21.3704  -13.0781 C   0  0  0  0  0  0  0  0  0  0  0  0
   19.3601  -21.1197  -12.9304 N   0  0  0  0  0  0  0  0  0  0  0  0
   26.0012  -19.4828  -13.0714 C   0  0  0  0  0  0  0  0  0  0  0  0
   26.6414  -19.9504  -14.0745 O   0  0  0  0  0  0  0  0  0  0  0  0
   25.8652  -18.0926  -13.0800 O   0  0  0  0  0  0  0  0  0  0  0  0
  2  1  1  6
  3  2  1  0
  4  2  1  0
  4  5  2  0
  6  4  1  0
  7  6  1  0
  7  8  1  1
  9  8  1  0
  9 10  2  0
 11 10  1  0
 12 11  2  0
 13 14  2  0
 13 12  1  0
 14  9  1  0
 15  7  1  0
 16 15  2  0
 17 15  1  0
 18 19  1  1
 18 17  1  0
 20 19  1  0
 21 22  1  0
 21 20  1  0
 23 22  1  0
 24 26  1  0
 24 18  1  0
 25 24  2  0
M  END
$$$$
