AFK.pdb
     RDKit          3D

 26 26  0  0  1  0  0  0  0  0999 V2000
   27.2408  -19.6870  -17.2763 C   0  0  0  0  0  0  0  0  0  0  0  0
   27.7041  -20.9108  -16.5584 C   0  0  2  0  0  0  0  0  0  0  0  0
   27.7094  -22.0623  -17.4218 N   0  0  0  0  0  0  0  0  0  0  0  0
   26.9760  -21.1618  -15.2885 C   0  0  0  0  0  0  0  0  0  0  0  0
   25.9428  -21.8780  -15.2788 O   0  0  0  0  0  0  0  0  0  0  0  0
   27.3938  -20.6207  -14.0401 N   0  0  0  0  0  0  0  0  0  0  0  0
   26.6214  -20.8720  -12.8390 C   0  0  1  0  0  0  0  0  0  0  0  0
   27.3071  -20.3514  -11.6033 C   0  0  0  0  0  0  0  0  0  0  0  0
   26.4795  -20.4039  -10.3996 C   0  0  0  0  0  0  0  0  0  0  0  0
   25.9681  -21.5931   -9.9267 C   0  0  0  0  0  0  0  0  0  0  0  0
   25.1908  -21.6057   -8.7876 C   0  0  0  0  0  0  0  0  0  0  0  0
   24.9337  -20.4257   -8.1338 C   0  0  0  0  0  0  0  0  0  0  0  0
   25.4314  -19.2208   -8.5828 C   0  0  0  0  0  0  0  0  0  0  0  0
   26.2039  -19.2365   -9.7214 C   0  0  0  0  0  0  0  0  0  0  0  0
   25.3388  -20.1353  -12.9797 C   0  0  0  0  0  0  0  0  0  0  0  0
   25.3739  -18.9010  -13.2798 O   0  0  0  0  0  0  0  0  0  0  0  0
   24.0686  -20.7130  -12.8022 N   0  0  0  0  0  0  0  0  0  0  0  0
   22.8534  -19.9270  -12.8998 C   0  0  1  0  0  0  0  0  0  0  0  0
   22.2980  -19.9987  -14.3027 C   0  0  0  0  0  0  0  0  0  0  0  0
   21.0651  -19.1872  -14.4585 C   0  0  0  0  0  0  0  0  0  0  0  0
   20.4442  -19.2675  -15.8262 C   0  0  0  0  0  0  0  0  0  0  0  0
   19.2703  -18.3108  -15.8700 C   0  0  0  0  0  0  0  0  0  0  0  0
   18.6676  -18.2151  -17.1638 N   0  0  0  0  0  0  0  0  0  0  0  0
   21.9221  -20.4277  -11.8702 C   0  0  0  0  0  0  0  0  0  0  0  0
   21.4040  -19.6568  -10.9915 O   0  0  0  0  0  0  0  0  0  0  0  0
   21.5268  -21.7631  -11.7610 O   0  0  0  0  0  0  0  0  0  0  0  0
  2  1  1  6
  3  2  1  0
  4  2  1  0
  4  5  2  0
  6  4  1  0
  7  6  1  0
  7  8  1  1
  9  8  1  0
  9 10  2  0
 11 10  1  0
 12 11  2  0
 13 14  2  0
 13 12  1  0
 14  9  1  0
 15  7  1  0
 16 15  2  0
 17 15  1  0
 18 19  1  6
 18 17  1  0
 20 19  1  0
 21 22  1  0
 21 20  1  0
 23 22  1  0
 24 26  1  0
 24 18  1  0
 25 24  2  0
M  END
$$$$
