AFK.pdb
     RDKit          3D

 26 26  0  0  1  0  0  0  0  0999 V2000
   27.1081  -20.7095  -18.0846 C   0  0  0  0  0  0  0  0  0  0  0  0
   27.9390  -21.2766  -16.9821 C   0  0  2  0  0  0  0  0  0  0  0  0
   28.6540  -22.4512  -17.4069 N   0  0  0  0  0  0  0  0  0  0  0  0
   27.1791  -21.5028  -15.7263 C   0  0  0  0  0  0  0  0  0  0  0  0
   26.7199  -22.6419  -15.4572 O   0  0  0  0  0  0  0  0  0  0  0  0
   26.9321  -20.4707  -14.7778 N   0  0  0  0  0  0  0  0  0  0  0  0
   26.2028  -20.7578  -13.5579 C   0  0  1  0  0  0  0  0  0  0  0  0
   26.5798  -19.8246  -12.4376 C   0  0  0  0  0  0  0  0  0  0  0  0
   25.8627  -20.0772  -11.1892 C   0  0  0  0  0  0  0  0  0  0  0  0
   24.6265  -19.5205  -10.9415 C   0  0  0  0  0  0  0  0  0  0  0  0
   23.9783  -19.7804   -9.7523 C   0  0  0  0  0  0  0  0  0  0  0  0
   24.5759  -20.5960   -8.8230 C   0  0  0  0  0  0  0  0  0  0  0  0
   25.8115  -21.1672   -9.0424 C   0  0  0  0  0  0  0  0  0  0  0  0
   26.4364  -20.8915  -10.2370 C   0  0  0  0  0  0  0  0  0  0  0  0
   24.7611  -20.5453  -13.8478 C   0  0  0  0  0  0  0  0  0  0  0  0
   24.4146  -19.5035  -14.4877 O   0  0  0  0  0  0  0  0  0  0  0  0
   23.7356  -21.4264  -13.4599 N   0  0  0  0  0  0  0  0  0  0  0  0
   22.3402  -21.1388  -13.7317 C   0  0  1  0  0  0  0  0  0  0  0  0
   21.7316  -22.2464  -14.5590 C   0  0  0  0  0  0  0  0  0  0  0  0
   21.2258  -21.7559  -15.8653 C   0  0  0  0  0  0  0  0  0  0  0  0
   20.7145  -22.8402  -16.7738 C   0  0  0  0  0  0  0  0  0  0  0  0
   20.2485  -22.1964  -18.0636 C   0  0  0  0  0  0  0  0  0  0  0  0
   19.6978  -23.1321  -18.9950 N   0  0  0  0  0  0  0  0  0  0  0  0
   21.6713  -20.9378  -12.4315 C   0  0  0  0  0  0  0  0  0  0  0  0
   21.9827  -21.6199  -11.3959 O   0  0  0  0  0  0  0  0  0  0  0  0
   20.6564  -20.0030  -12.2141 O   0  0  0  0  0  0  0  0  0  0  0  0
  2  1  1  6
  3  2  1  0
  4  2  1  0
  4  5  2  0
  6  4  1  0
  7  6  1  0
  7  8  1  1
  9  8  1  0
  9 10  2  0
 11 10  1  0
 12 11  2  0
 13 14  2  0
 13 12  1  0
 14  9  1  0
 15  7  1  0
 16 15  2  0
 17 15  1  0
 18 19  1  1
 18 17  1  0
 20 19  1  0
 21 22  1  0
 21 20  1  0
 23 22  1  0
 24 26  1  0
 24 18  1  0
 25 24  2  0
M  END
$$$$
