AFK.pdb
     RDKit          3D

 26 26  0  0  1  0  0  0  0  0999 V2000
   27.7245  -18.3138  -14.6467 C   0  0  0  0  0  0  0  0  0  0  0  0
   28.2798  -19.5243  -13.9729 C   0  0  2  0  0  0  0  0  0  0  0  0
   29.1122  -20.2913  -14.8619 N   0  0  0  0  0  0  0  0  0  0  0  0
   27.2450  -20.3581  -13.3100 C   0  0  0  0  0  0  0  0  0  0  0  0
   26.8603  -21.4326  -13.8374 O   0  0  0  0  0  0  0  0  0  0  0  0
   26.6433  -19.9998  -12.0708 N   0  0  0  0  0  0  0  0  0  0  0  0
   25.6500  -20.8639  -11.4634 C   0  0  1  0  0  0  0  0  0  0  0  0
   25.3804  -20.4978  -10.0275 C   0  0  0  0  0  0  0  0  0  0  0  0
   26.5382  -20.6528   -9.1490 C   0  0  0  0  0  0  0  0  0  0  0  0
   27.5121  -21.5958   -9.3979 C   0  0  0  0  0  0  0  0  0  0  0  0
   28.5912  -21.7144   -8.5476 C   0  0  0  0  0  0  0  0  0  0  0  0
   28.6836  -20.8863   -7.4558 C   0  0  0  0  0  0  0  0  0  0  0  0
   27.7253  -19.9338   -7.1810 C   0  0  0  0  0  0  0  0  0  0  0  0
   26.6591  -19.8365   -8.0453 C   0  0  0  0  0  0  0  0  0  0  0  0
   24.3832  -20.6737  -12.2162 C   0  0  0  0  0  0  0  0  0  0  0  0
   24.0334  -19.4941  -12.5337 O   0  0  0  0  0  0  0  0  0  0  0  0
   23.5294  -21.7201  -12.6095 N   0  0  0  0  0  0  0  0  0  0  0  0
   22.4236  -21.4995  -13.5218 C   0  0  1  0  0  0  0  0  0  0  0  0
   22.3641  -22.6083  -14.5459 C   0  0  0  0  0  0  0  0  0  0  0  0
   21.9886  -23.9100  -13.9399 C   0  0  0  0  0  0  0  0  0  0  0  0
   21.8942  -25.0430  -14.9248 C   0  0  0  0  0  0  0  0  0  0  0  0
   21.4000  -26.2710  -14.1878 C   0  0  0  0  0  0  0  0  0  0  0  0
   21.2027  -27.4012  -15.0422 N   0  0  0  0  0  0  0  0  0  0  0  0
   21.1984  -21.3823  -12.7073 C   0  0  0  0  0  0  0  0  0  0  0  0
   20.0709  -21.0649  -13.2199 O   0  0  0  0  0  0  0  0  0  0  0  0
   21.1558  -21.6025  -11.3286 O   0  0  0  0  0  0  0  0  0  0  0  0
  2  1  1  6
  3  2  1  0
  4  2  1  0
  4  5  2  0
  6  4  1  0
  7  6  1  0
  7  8  1  1
  9  8  1  0
  9 10  2  0
 11 10  1  0
 12 11  2  0
 13 14  2  0
 13 12  1  0
 14  9  1  0
 15  7  1  0
 16 15  2  0
 17 15  1  0
 18 19  1  6
 18 17  1  0
 20 19  1  0
 21 22  1  0
 21 20  1  0
 23 22  1  0
 24 26  1  0
 24 18  1  0
 25 24  2  0
M  END
$$$$
