AFK.pdb
     RDKit          3D

 26 26  0  0  1  0  0  0  0  0999 V2000
   28.0977  -23.0067  -16.8009 C   0  0  0  0  0  0  0  0  0  0  0  0
   27.3240  -21.8242  -16.3207 C   0  0  2  0  0  0  0  0  0  0  0  0
   27.9795  -20.5883  -16.6589 N   0  0  0  0  0  0  0  0  0  0  0  0
   26.9669  -21.8972  -14.8810 C   0  0  0  0  0  0  0  0  0  0  0  0
   26.1831  -22.7877  -14.4645 O   0  0  0  0  0  0  0  0  0  0  0  0
   27.4773  -20.9872  -13.9127 N   0  0  0  0  0  0  0  0  0  0  0  0
   27.0636  -21.0864  -12.5266 C   0  0  1  0  0  0  0  0  0  0  0  0
   27.9810  -20.3273  -11.6043 C   0  0  0  0  0  0  0  0  0  0  0  0
   27.5716  -20.3611  -10.2015 C   0  0  0  0  0  0  0  0  0  0  0  0
   27.8571  -21.4394   -9.3921 C   0  0  0  0  0  0  0  0  0  0  0  0
   27.4555  -21.4375   -8.0728 C   0  0  0  0  0  0  0  0  0  0  0  0
   26.7714  -20.3544   -7.5779 C   0  0  0  0  0  0  0  0  0  0  0  0
   26.4713  -19.2615   -8.3631 C   0  0  0  0  0  0  0  0  0  0  0  0
   26.8836  -19.2891   -9.6756 C   0  0  0  0  0  0  0  0  0  0  0  0
   25.7174  -20.4659  -12.4245 C   0  0  0  0  0  0  0  0  0  0  0  0
   25.5055  -19.3661  -13.0248 O   0  0  0  0  0  0  0  0  0  0  0  0
   24.6436  -21.0152  -11.7009 N   0  0  0  0  0  0  0  0  0  0  0  0
   23.3080  -20.4544  -11.7757 C   0  0  1  0  0  0  0  0  0  0  0  0
   22.5696  -21.0241  -12.9639 C   0  0  0  0  0  0  0  0  0  0  0  0
   21.2081  -20.4502  -13.1043 C   0  0  0  0  0  0  0  0  0  0  0  0
   20.4009  -21.0475  -14.2243 C   0  0  0  0  0  0  0  0  0  0  0  0
   19.1016  -20.2761  -14.3350 C   0  0  0  0  0  0  0  0  0  0  0  0
   18.2055  -20.8163  -15.3104 N   0  0  0  0  0  0  0  0  0  0  0  0
   22.6452  -20.7237  -10.4848 C   0  0  0  0  0  0  0  0  0  0  0  0
   23.0489  -21.6435   -9.6938 O   0  0  0  0  0  0  0  0  0  0  0  0
   21.5377  -20.0137  -10.0150 O   0  0  0  0  0  0  0  0  0  0  0  0
  2  1  1  1
  3  2  1  0
  4  2  1  0
  4  5  2  0
  6  4  1  0
  7  6  1  0
  7  8  1  1
  9  8  1  0
  9 10  2  0
 11 10  1  0
 12 11  2  0
 13 14  2  0
 13 12  1  0
 14  9  1  0
 15  7  1  0
 16 15  2  0
 17 15  1  0
 18 19  1  6
 18 17  1  0
 20 19  1  0
 21 22  1  0
 21 20  1  0
 23 22  1  0
 24 26  1  0
 24 18  1  0
 25 24  2  0
M  END
$$$$
