AFK.pdb
     RDKit          3D

 26 26  0  0  1  0  0  0  0  0999 V2000
   26.4635  -21.1296  -17.7849 C   0  0  0  0  0  0  0  0  0  0  0  0
   27.3033  -20.9948  -16.5585 C   0  0  2  0  0  0  0  0  0  0  0  0
   28.6006  -21.5924  -16.7354 N   0  0  0  0  0  0  0  0  0  0  0  0
   26.6273  -21.4702  -15.3245 C   0  0  0  0  0  0  0  0  0  0  0  0
   26.4299  -22.6982  -15.1405 O   0  0  0  0  0  0  0  0  0  0  0  0
   26.1748  -20.5872  -14.3040 N   0  0  0  0  0  0  0  0  0  0  0  0
   25.5121  -21.1104  -13.1253 C   0  0  1  0  0  0  0  0  0  0  0  0
   25.9869  -20.4410  -11.8624 C   0  0  0  0  0  0  0  0  0  0  0  0
   27.4238  -20.5701  -11.6275 C   0  0  0  0  0  0  0  0  0  0  0  0
   28.3443  -19.8827  -12.3888 C   0  0  0  0  0  0  0  0  0  0  0  0
   29.6928  -20.0283  -12.1393 C   0  0  0  0  0  0  0  0  0  0  0  0
   30.1053  -20.8619  -11.1288 C   0  0  0  0  0  0  0  0  0  0  0  0
   29.2082  -21.5624  -10.3506 C   0  0  0  0  0  0  0  0  0  0  0  0
   27.8689  -21.3990  -10.6206 C   0  0  0  0  0  0  0  0  0  0  0  0
   24.0632  -20.8141  -13.2680 C   0  0  0  0  0  0  0  0  0  0  0  0
   23.4036  -20.4823  -12.2338 O   0  0  0  0  0  0  0  0  0  0  0  0
   23.3570  -20.8747  -14.4830 N   0  0  0  0  0  0  0  0  0  0  0  0
   21.9886  -20.4068  -14.5934 C   0  0  1  0  0  0  0  0  0  0  0  0
   21.9101  -18.9393  -14.2440 C   0  0  0  0  0  0  0  0  0  0  0  0
   20.5933  -18.3506  -14.5936 C   0  0  0  0  0  0  0  0  0  0  0  0
   19.4807  -18.7301  -13.6551 C   0  0  0  0  0  0  0  0  0  0  0  0
   18.1620  -18.4544  -14.3483 C   0  0  0  0  0  0  0  0  0  0  0  0
   17.0241  -18.8312  -13.5677 N   0  0  0  0  0  0  0  0  0  0  0  0
   21.5283  -20.7128  -15.9619 C   0  0  0  0  0  0  0  0  0  0  0  0
   20.2876  -20.8142  -16.2536 O   0  0  0  0  0  0  0  0  0  0  0  0
   22.3868  -20.9160  -17.0450 O   0  0  0  0  0  0  0  0  0  0  0  0
  2  1  1  6
  3  2  1  0
  4  2  1  0
  4  5  2  0
  6  4  1  0
  7  6  1  0
  7  8  1  1
  9  8  1  0
  9 10  2  0
 11 10  1  0
 12 11  2  0
 13 14  2  0
 13 12  1  0
 14  9  1  0
 15  7  1  0
 16 15  2  0
 17 15  1  0
 18 19  1  6
 18 17  1  0
 20 19  1  0
 21 22  1  0
 21 20  1  0
 23 22  1  0
 24 26  1  0
 24 18  1  0
 25 24  2  0
M  END
$$$$
