AFK.pdb
     RDKit          3D

 26 26  0  0  1  0  0  0  0  0999 V2000
   25.8479  -16.2339  -23.8678 C   0  0  0  0  0  0  0  0  0  0  0  0
   25.1639  -14.9126  -23.7489 C   0  0  2  0  0  0  0  0  0  0  0  0
   26.0442  -13.8268  -24.0917 N   0  0  0  0  0  0  0  0  0  0  0  0
   24.5002  -14.7072  -22.4364 C   0  0  0  0  0  0  0  0  0  0  0  0
   23.6814  -15.5548  -21.9982 O   0  0  0  0  0  0  0  0  0  0  0  0
   24.7451  -13.5686  -21.6181 N   0  0  0  0  0  0  0  0  0  0  0  0
   24.0492  -13.4121  -20.3557 C   0  0  1  0  0  0  0  0  0  0  0  0
   25.0003  -13.2745  -19.1961 C   0  0  0  0  0  0  0  0  0  0  0  0
   25.7466  -14.4944  -18.8937 C   0  0  0  0  0  0  0  0  0  0  0  0
   25.2277  -15.4736  -18.0743 C   0  0  0  0  0  0  0  0  0  0  0  0
   25.9598  -16.6121  -17.8104 C   0  0  0  0  0  0  0  0  0  0  0  0
   27.2052  -16.7577  -18.3706 C   0  0  0  0  0  0  0  0  0  0  0  0
   27.7505  -15.7956  -19.1940 C   0  0  0  0  0  0  0  0  0  0  0  0
   26.9991  -14.6696  -19.4409 C   0  0  0  0  0  0  0  0  0  0  0  0
   23.2651  -12.1528  -20.4397 C   0  0  0  0  0  0  0  0  0  0  0  0
   23.7987  -11.1371  -20.9859 O   0  0  0  0  0  0  0  0  0  0  0  0
   21.9549  -12.0002  -19.9513 N   0  0  0  0  0  0  0  0  0  0  0  0
   21.2003  -10.7794  -20.1620 C   0  0  1  0  0  0  0  0  0  0  0  0
   19.7265  -11.0353  -19.9521 C   0  0  0  0  0  0  0  0  0  0  0  0
   18.8946   -9.8723  -20.3497 C   0  0  0  0  0  0  0  0  0  0  0  0
   17.4217  -10.0574  -20.1067 C   0  0  0  0  0  0  0  0  0  0  0  0
   16.6902   -8.8755  -20.7096 C   0  0  0  0  0  0  0  0  0  0  0  0
   15.2862   -8.8810  -20.4361 N   0  0  0  0  0  0  0  0  0  0  0  0
   21.7565   -9.7567  -19.2549 C   0  0  0  0  0  0  0  0  0  0  0  0
   22.1112  -10.0323  -18.0578 O   0  0  0  0  0  0  0  0  0  0  0  0
   21.9443   -8.4191  -19.6112 O   0  0  0  0  0  0  0  0  0  0  0  0
  2  1  1  1
  3  2  1  0
  4  2  1  0
  4  5  2  0
  6  4  1  0
  7  6  1  0
  7  8  1  1
  9  8  1  0
  9 10  2  0
 11 10  1  0
 12 11  2  0
 13 14  2  0
 13 12  1  0
 14  9  1  0
 15  7  1  0
 16 15  2  0
 17 15  1  0
 18 19  1  1
 18 17  1  0
 20 19  1  0
 21 22  1  0
 21 20  1  0
 23 22  1  0
 24 26  1  0
 24 18  1  0
 25 24  2  0
M  END
$$$$
