AFK.pdb
     RDKit          3D

 26 26  0  0  1  0  0  0  0  0999 V2000
   21.1807  -18.9401  -15.6718 C   0  0  0  0  0  0  0  0  0  0  0  0
   21.9433  -17.6600  -15.7579 C   0  0  2  0  0  0  0  0  0  0  0  0
   21.2635  -16.6916  -16.5775 N   0  0  0  0  0  0  0  0  0  0  0  0
   23.3610  -17.8431  -16.1605 C   0  0  0  0  0  0  0  0  0  0  0  0
   23.6756  -17.8908  -17.3769 O   0  0  0  0  0  0  0  0  0  0  0  0
   24.4198  -17.9721  -15.2181 N   0  0  0  0  0  0  0  0  0  0  0  0
   25.7928  -18.0819  -15.6712 C   0  0  1  0  0  0  0  0  0  0  0  0
   26.6900  -17.0645  -15.0168 C   0  0  0  0  0  0  0  0  0  0  0  0
   26.5399  -15.7118  -15.5500 C   0  0  0  0  0  0  0  0  0  0  0  0
   25.7381  -14.7771  -14.9313 C   0  0  0  0  0  0  0  0  0  0  0  0
   25.6196  -13.5098  -15.4623 C   0  0  0  0  0  0  0  0  0  0  0  0
   26.3063  -13.1921  -16.6084 C   0  0  0  0  0  0  0  0  0  0  0  0
   27.1158  -14.1058  -17.2494 C   0  0  0  0  0  0  0  0  0  0  0  0
   27.2163  -15.3628  -16.6987 C   0  0  0  0  0  0  0  0  0  0  0  0
   26.2807  -19.4273  -15.2721 C   0  0  0  0  0  0  0  0  0  0  0  0
   25.6770  -20.0432  -14.3388 O   0  0  0  0  0  0  0  0  0  0  0  0
   27.3791  -20.0797  -15.8609 N   0  0  0  0  0  0  0  0  0  0  0  0
   27.3522  -21.4988  -16.1595 C   0  0  1  0  0  0  0  0  0  0  0  0
   26.1320  -21.8347  -16.9840 C   0  0  0  0  0  0  0  0  0  0  0  0
   26.0996  -23.2651  -17.3785 C   0  0  0  0  0  0  0  0  0  0  0  0
   25.9284  -24.2173  -16.2267 C   0  0  0  0  0  0  0  0  0  0  0  0
   25.8592  -25.6250  -16.7827 C   0  0  0  0  0  0  0  0  0  0  0  0
   25.6649  -26.6214  -15.7749 N   0  0  0  0  0  0  0  0  0  0  0  0
   28.6255  -21.8316  -16.8275 C   0  0  0  0  0  0  0  0  0  0  0  0
   29.3805  -22.7779  -16.4158 O   0  0  0  0  0  0  0  0  0  0  0  0
   29.1157  -21.1586  -17.9491 O   0  0  0  0  0  0  0  0  0  0  0  0
  2  1  1  6
  3  2  1  0
  4  2  1  0
  4  5  2  0
  6  4  1  0
  7  6  1  0
  7  8  1  1
  9  8  1  0
  9 10  2  0
 11 10  1  0
 12 11  2  0
 13 14  2  0
 13 12  1  0
 14  9  1  0
 15  7  1  0
 16 15  2  0
 17 15  1  0
 18 19  1  6
 18 17  1  0
 20 19  1  0
 21 22  1  0
 21 20  1  0
 23 22  1  0
 24 26  1  0
 24 18  1  0
 25 24  2  0
M  END
$$$$
