AFK.pdb
     RDKit          3D

 26 26  0  0  1  0  0  0  0  0999 V2000
   26.7789  -21.6329  -18.7433 C   0  0  0  0  0  0  0  0  0  0  0  0
   27.6326  -22.0056  -17.5772 C   0  0  2  0  0  0  0  0  0  0  0  0
   28.4557  -23.1503  -17.8667 N   0  0  0  0  0  0  0  0  0  0  0  0
   26.8691  -22.1656  -16.3134 C   0  0  0  0  0  0  0  0  0  0  0  0
   26.3208  -23.2625  -16.0362 O   0  0  0  0  0  0  0  0  0  0  0  0
   26.7169  -21.1143  -15.3661 N   0  0  0  0  0  0  0  0  0  0  0  0
   26.0108  -21.3482  -14.1215 C   0  0  1  0  0  0  0  0  0  0  0  0
   26.4694  -20.4225  -13.0255 C   0  0  0  0  0  0  0  0  0  0  0  0
   25.7380  -20.5823  -11.7701 C   0  0  0  0  0  0  0  0  0  0  0  0
   24.5596  -19.9089  -11.5305 C   0  0  0  0  0  0  0  0  0  0  0  0
   23.8959  -20.0835  -10.3344 C   0  0  0  0  0  0  0  0  0  0  0  0
   24.4201  -20.9316   -9.3900 C   0  0  0  0  0  0  0  0  0  0  0  0
   25.5967  -21.6187   -9.6009 C   0  0  0  0  0  0  0  0  0  0  0  0
   26.2387  -21.4264  -10.8027 C   0  0  0  0  0  0  0  0  0  0  0  0
   24.5740  -21.0638  -14.3715 C   0  0  0  0  0  0  0  0  0  0  0  0
   24.2605  -19.9896  -14.9737 O   0  0  0  0  0  0  0  0  0  0  0  0
   23.5189  -21.9097  -13.9846 N   0  0  0  0  0  0  0  0  0  0  0  0
   22.1361  -21.5882  -14.2819 C   0  0  1  0  0  0  0  0  0  0  0  0
   21.5621  -22.5990  -15.2465 C   0  0  0  0  0  0  0  0  0  0  0  0
   21.9917  -22.3451  -16.6443 C   0  0  0  0  0  0  0  0  0  0  0  0
   21.5166  -23.3762  -17.6310 C   0  0  0  0  0  0  0  0  0  0  0  0
   22.0325  -22.9917  -19.0027 C   0  0  0  0  0  0  0  0  0  0  0  0
   21.4089  -21.8182  -19.5321 N   0  0  0  0  0  0  0  0  0  0  0  0
   21.4138  -21.5232  -12.9964 C   0  0  0  0  0  0  0  0  0  0  0  0
   21.6033  -22.3811  -12.0676 O   0  0  0  0  0  0  0  0  0  0  0  0
   20.4748  -20.5387  -12.6798 O   0  0  0  0  0  0  0  0  0  0  0  0
  2  1  1  6
  3  2  1  0
  4  2  1  0
  4  5  2  0
  6  4  1  0
  7  6  1  0
  7  8  1  1
  9  8  1  0
  9 10  2  0
 11 10  1  0
 12 11  2  0
 13 14  2  0
 13 12  1  0
 14  9  1  0
 15  7  1  0
 16 15  2  0
 17 15  1  0
 18 19  1  6
 18 17  1  0
 20 19  1  0
 21 22  1  0
 21 20  1  0
 23 22  1  0
 24 26  1  0
 24 18  1  0
 25 24  2  0
M  END
$$$$
