AFK.pdb
     RDKit          3D

 26 26  0  0  1  0  0  0  0  0999 V2000
   28.3288  -23.1102  -17.4218 C   0  0  0  0  0  0  0  0  0  0  0  0
   27.4545  -21.9524  -17.0716 C   0  0  2  0  0  0  0  0  0  0  0  0
   28.1343  -20.6980  -17.2605 N   0  0  0  0  0  0  0  0  0  0  0  0
   26.8397  -22.0629  -15.7242 C   0  0  0  0  0  0  0  0  0  0  0  0
   26.0937  -23.0353  -15.4434 O   0  0  0  0  0  0  0  0  0  0  0  0
   27.0529  -21.1000  -14.6979 N   0  0  0  0  0  0  0  0  0  0  0  0
   26.3622  -21.2191  -13.4286 C   0  0  1  0  0  0  0  0  0  0  0  0
   27.0662  -20.4721  -12.3265 C   0  0  0  0  0  0  0  0  0  0  0  0
   26.3354  -20.4561  -11.0607 C   0  0  0  0  0  0  0  0  0  0  0  0
   25.6194  -19.3507  -10.6546 C   0  0  0  0  0  0  0  0  0  0  0  0
   24.9415  -19.3705   -9.4538 C   0  0  0  0  0  0  0  0  0  0  0  0
   24.9882  -20.4985   -8.6718 C   0  0  0  0  0  0  0  0  0  0  0  0
   25.6958  -21.6193   -9.0515 C   0  0  0  0  0  0  0  0  0  0  0  0
   26.3630  -21.5730  -10.2540 C   0  0  0  0  0  0  0  0  0  0  0  0
   25.0215  -20.6017  -13.5986 C   0  0  0  0  0  0  0  0  0  0  0  0
   24.9436  -19.4476  -14.1245 O   0  0  0  0  0  0  0  0  0  0  0  0
   23.8132  -21.2105  -13.2139 N   0  0  0  0  0  0  0  0  0  0  0  0
   22.5380  -20.5361  -13.3648 C   0  0  1  0  0  0  0  0  0  0  0  0
   21.8608  -20.9814  -14.6394 C   0  0  0  0  0  0  0  0  0  0  0  0
   20.5297  -20.3490  -14.8161 C   0  0  0  0  0  0  0  0  0  0  0  0
   19.8087  -20.7720  -16.0666 C   0  0  0  0  0  0  0  0  0  0  0  0
   18.5500  -19.9380  -16.1923 C   0  0  0  0  0  0  0  0  0  0  0  0
   17.8194  -20.1959  -17.3947 N   0  0  0  0  0  0  0  0  0  0  0  0
   21.7479  -20.8125  -12.1492 C   0  0  0  0  0  0  0  0  0  0  0  0
   21.8556  -21.9121  -11.5056 O   0  0  0  0  0  0  0  0  0  0  0  0
   20.8274  -19.9178  -11.5985 O   0  0  0  0  0  0  0  0  0  0  0  0
  2  1  1  1
  3  2  1  0
  4  2  1  0
  4  5  2  0
  6  4  1  0
  7  6  1  0
  7  8  1  1
  9  8  1  0
  9 10  2  0
 11 10  1  0
 12 11  2  0
 13 14  2  0
 13 12  1  0
 14  9  1  0
 15  7  1  0
 16 15  2  0
 17 15  1  0
 18 19  1  6
 18 17  1  0
 20 19  1  0
 21 22  1  0
 21 20  1  0
 23 22  1  0
 24 26  1  0
 24 18  1  0
 25 24  2  0
M  END
$$$$
