AFK.pdb
     RDKit          3D

 26 26  0  0  1  0  0  0  0  0999 V2000
   26.1548  -22.8948  -18.4511 C   0  0  0  0  0  0  0  0  0  0  0  0
   26.8932  -23.3773  -17.2471 C   0  0  2  0  0  0  0  0  0  0  0  0
   27.3413  -24.7355  -17.4085 N   0  0  0  0  0  0  0  0  0  0  0  0
   26.1488  -23.1764  -15.9778 C   0  0  0  0  0  0  0  0  0  0  0  0
   25.4398  -24.1000  -15.5035 O   0  0  0  0  0  0  0  0  0  0  0  0
   26.1926  -21.9585  -15.2425 N   0  0  0  0  0  0  0  0  0  0  0  0
   25.4977  -21.8442  -13.9751 C   0  0  1  0  0  0  0  0  0  0  0  0
   26.0340  -20.7167  -13.1328 C   0  0  0  0  0  0  0  0  0  0  0  0
   25.3928  -20.5974  -11.8246 C   0  0  0  0  0  0  0  0  0  0  0  0
   24.1713  -19.9774  -11.6734 C   0  0  0  0  0  0  0  0  0  0  0  0
   23.5954  -19.8827  -10.4240 C   0  0  0  0  0  0  0  0  0  0  0  0
   24.2500  -20.4104   -9.3381 C   0  0  0  0  0  0  0  0  0  0  0  0
   25.4727  -21.0362   -9.4582 C   0  0  0  0  0  0  0  0  0  0  0  0
   26.0249  -21.1171  -10.7159 C   0  0  0  0  0  0  0  0  0  0  0  0
   24.0767  -21.5349  -14.2796 C   0  0  0  0  0  0  0  0  0  0  0  0
   23.8188  -20.6730  -15.1771 O   0  0  0  0  0  0  0  0  0  0  0  0
   22.9788  -22.1355  -13.6374 N   0  0  0  0  0  0  0  0  0  0  0  0
   21.6135  -21.7560  -13.9471 C   0  0  1  0  0  0  0  0  0  0  0  0
   20.9462  -22.8349  -14.7671 C   0  0  0  0  0  0  0  0  0  0  0  0
   19.5809  -22.4452  -15.1994 C   0  0  0  0  0  0  0  0  0  0  0  0
   18.8600  -23.5032  -15.9890 C   0  0  0  0  0  0  0  0  0  0  0  0
   19.3017  -23.3985  -17.4344 C   0  0  0  0  0  0  0  0  0  0  0  0
   18.6735  -24.3591  -18.2880 N   0  0  0  0  0  0  0  0  0  0  0  0
   20.9323  -21.4817  -12.6669 C   0  0  0  0  0  0  0  0  0  0  0  0
   19.8401  -20.8196  -12.6079 O   0  0  0  0  0  0  0  0  0  0  0  0
   21.4065  -21.9106  -11.4249 O   0  0  0  0  0  0  0  0  0  0  0  0
  2  1  1  6
  3  2  1  0
  4  2  1  0
  4  5  2  0
  6  4  1  0
  7  6  1  0
  7  8  1  1
  9  8  1  0
  9 10  2  0
 11 10  1  0
 12 11  2  0
 13 14  2  0
 13 12  1  0
 14  9  1  0
 15  7  1  0
 16 15  2  0
 17 15  1  0
 18 19  1  1
 18 17  1  0
 20 19  1  0
 21 22  1  0
 21 20  1  0
 23 22  1  0
 24 26  1  0
 24 18  1  0
 25 24  2  0
M  END
$$$$
