AFK.pdb
     RDKit          3D

 26 26  0  0  1  0  0  0  0  0999 V2000
   22.3083  -23.0444   -6.9853 C   0  0  0  0  0  0  0  0  0  0  0  0
   22.8674  -21.8696   -6.2540 C   0  0  2  0  0  0  0  0  0  0  0  0
   21.8340  -21.1113   -5.5993 N   0  0  0  0  0  0  0  0  0  0  0  0
   23.7473  -21.0161   -7.0925 C   0  0  0  0  0  0  0  0  0  0  0  0
   23.2722  -20.0349   -7.7187 O   0  0  0  0  0  0  0  0  0  0  0  0
   25.1439  -21.2523   -7.2332 N   0  0  0  0  0  0  0  0  0  0  0  0
   25.9585  -20.3624   -8.0375 C   0  0  1  0  0  0  0  0  0  0  0  0
   27.4277  -20.5165   -7.7440 C   0  0  0  0  0  0  0  0  0  0  0  0
   27.8403  -19.9403   -6.4656 C   0  0  0  0  0  0  0  0  0  0  0  0
   28.5121  -20.6860   -5.5211 C   0  0  0  0  0  0  0  0  0  0  0  0
   28.8863  -20.1097   -4.3254 C   0  0  0  0  0  0  0  0  0  0  0  0
   28.5834  -18.7914   -4.0883 C   0  0  0  0  0  0  0  0  0  0  0  0
   27.9125  -18.0204   -5.0138 C   0  0  0  0  0  0  0  0  0  0  0  0
   27.5507  -18.6198   -6.1984 C   0  0  0  0  0  0  0  0  0  0  0  0
   25.7471  -20.7385   -9.4593 C   0  0  0  0  0  0  0  0  0  0  0  0
   25.7395  -21.9707   -9.7698 O   0  0  0  0  0  0  0  0  0  0  0  0
   25.5518  -19.8162  -10.5032 N   0  0  0  0  0  0  0  0  0  0  0  0
   25.1483  -20.2411  -11.8301 C   0  0  1  0  0  0  0  0  0  0  0  0
   23.7240  -19.8178  -12.1019 C   0  0  0  0  0  0  0  0  0  0  0  0
   23.2463  -20.2807  -13.4286 C   0  0  0  0  0  0  0  0  0  0  0  0
   21.8482  -19.8409  -13.7671 C   0  0  0  0  0  0  0  0  0  0  0  0
   21.4645  -20.4631  -15.0942 C   0  0  0  0  0  0  0  0  0  0  0  0
   20.1036  -20.2181  -15.4603 N   0  0  0  0  0  0  0  0  0  0  0  0
   26.1229  -19.6809  -12.7864 C   0  0  0  0  0  0  0  0  0  0  0  0
   26.8596  -18.6774  -12.4947 O   0  0  0  0  0  0  0  0  0  0  0  0
   26.3283  -20.1837  -14.0733 O   0  0  0  0  0  0  0  0  0  0  0  0
  2  1  1  6
  3  2  1  0
  4  2  1  0
  4  5  2  0
  6  4  1  0
  7  6  1  0
  7  8  1  1
  9  8  1  0
  9 10  2  0
 11 10  1  0
 12 11  2  0
 13 14  2  0
 13 12  1  0
 14  9  1  0
 15  7  1  0
 16 15  2  0
 17 15  1  0
 18 19  1  6
 18 17  1  0
 20 19  1  0
 21 22  1  0
 21 20  1  0
 23 22  1  0
 24 26  1  0
 24 18  1  0
 25 24  2  0
M  END
$$$$
