AFK.pdb
     RDKit          3D

 26 26  0  0  1  0  0  0  0  0999 V2000
   21.8898  -19.1813  -14.3054 C   0  0  0  0  0  0  0  0  0  0  0  0
   22.7774  -20.3657  -14.1134 C   0  0  2  0  0  0  0  0  0  0  0  0
   23.1116  -20.5591  -12.7269 N   0  0  0  0  0  0  0  0  0  0  0  0
   23.9791  -20.3508  -14.9860 C   0  0  0  0  0  0  0  0  0  0  0  0
   23.8619  -20.1855  -16.2268 O   0  0  0  0  0  0  0  0  0  0  0  0
   25.2999  -20.5183  -14.4825 N   0  0  0  0  0  0  0  0  0  0  0  0
   26.4405  -20.4078  -15.3708 C   0  0  1  0  0  0  0  0  0  0  0  0
   27.5353  -19.5547  -14.7862 C   0  0  0  0  0  0  0  0  0  0  0  0
   27.5155  -18.1675  -15.2465 C   0  0  0  0  0  0  0  0  0  0  0  0
   28.1916  -17.7738  -16.3811 C   0  0  0  0  0  0  0  0  0  0  0  0
   28.1511  -16.4563  -16.7864 C   0  0  0  0  0  0  0  0  0  0  0  0
   27.4332  -15.5461  -16.0500 C   0  0  0  0  0  0  0  0  0  0  0  0
   26.7469  -15.9101  -14.9109 C   0  0  0  0  0  0  0  0  0  0  0  0
   26.8038  -17.2308  -14.5288 C   0  0  0  0  0  0  0  0  0  0  0  0
   26.9910  -21.7760  -15.5510 C   0  0  0  0  0  0  0  0  0  0  0  0
   26.9815  -22.5727  -14.5610 O   0  0  0  0  0  0  0  0  0  0  0  0
   27.5303  -22.2618  -16.7558 N   0  0  0  0  0  0  0  0  0  0  0  0
   27.7074  -23.6816  -16.9939 C   0  0  1  0  0  0  0  0  0  0  0  0
   26.4085  -24.4155  -16.7571 C   0  0  0  0  0  0  0  0  0  0  0  0
   26.5205  -25.8637  -17.0618 C   0  0  0  0  0  0  0  0  0  0  0  0
   25.2265  -26.6205  -16.9383 C   0  0  0  0  0  0  0  0  0  0  0  0
   25.4994  -28.0784  -17.2472 C   0  0  0  0  0  0  0  0  0  0  0  0
   24.3159  -28.8815  -17.2724 N   0  0  0  0  0  0  0  0  0  0  0  0
   28.2304  -23.8356  -18.3654 C   0  0  0  0  0  0  0  0  0  0  0  0
   29.0734  -24.7468  -18.6716 O   0  0  0  0  0  0  0  0  0  0  0  0
   27.8615  -23.0176  -19.4359 O   0  0  0  0  0  0  0  0  0  0  0  0
  2  1  1  1
  3  2  1  0
  4  2  1  0
  4  5  2  0
  6  4  1  0
  7  6  1  0
  7  8  1  1
  9  8  1  0
  9 10  2  0
 11 10  1  0
 12 11  2  0
 13 14  2  0
 13 12  1  0
 14  9  1  0
 15  7  1  0
 16 15  2  0
 17 15  1  0
 18 19  1  6
 18 17  1  0
 20 19  1  0
 21 22  1  0
 21 20  1  0
 23 22  1  0
 24 26  1  0
 24 18  1  0
 25 24  2  0
M  END
$$$$
