QPI.pdb
     RDKit          3D

 25 25  0  0  1  0  0  0  0  0999 V2000
   13.2200  -14.0463   20.3049 N   0  0  0  0  0  0  0  0  0  0  0  0
   12.9016  -14.3663   18.9652 C   0  0  0  0  0  0  0  0  0  0  0  0
   13.8051  -14.5264   18.1205 O   0  0  0  0  0  0  0  0  0  0  0  0
   11.4774  -14.5199   18.5305 C   0  0  0  0  0  0  0  0  0  0  0  0
   10.5574  -14.3043   19.6848 C   0  0  0  0  0  0  0  0  0  0  0  0
    9.1218  -14.4096   19.3134 C   0  0  2  0  0  0  0  0  0  0  0  0
    8.7063  -13.2730   18.4838 N   0  0  0  0  0  0  0  0  0  0  0  0
    8.2486  -14.4759   20.4910 C   0  0  0  0  0  0  0  0  0  0  0  0
    7.6338  -13.4958   20.9712 O   0  0  0  0  0  0  0  0  0  0  0  0
    8.0639  -15.7161   21.1600 N   0  0  0  0  0  0  0  0  0  0  0  0
    8.6025  -17.0297   20.9727 C   0  0  0  0  0  0  0  0  0  0  0  0
    7.3040  -17.8552   20.9574 C   0  0  0  0  0  0  0  0  0  0  0  0
    6.6309  -17.2599   22.2078 C   0  0  0  0  0  0  0  0  0  0  0  0
    7.1940  -15.8613   22.3269 C   0  0  1  0  0  0  0  0  0  0  0  0
    8.0454  -15.7742   23.5369 C   0  0  0  0  0  0  0  0  0  0  0  0
    9.2618  -16.1769   23.5230 O   0  0  0  0  0  0  0  0  0  0  0  0
    6.1778  -11.5468   26.2535 C   0  0  0  0  0  0  0  0  0  0  0  0
    7.0935  -12.4887   25.4546 C   0  0  0  0  0  0  0  0  0  0  0  0
    7.5154  -13.5606   26.3944 C   0  0  2  0  0  0  0  0  0  0  0  0
    8.3140  -13.0259   27.5741 C   0  0  0  0  0  0  0  0  0  0  0  0
    8.3111  -14.6810   25.7923 C   0  0  2  0  0  0  0  0  0  0  0  0
    7.4776  -15.2304   24.7188 N   0  0  0  0  0  0  0  0  0  0  0  0
    8.7190  -15.7281   26.7406 C   0  0  0  0  0  0  0  0  0  0  0  0
    8.0355  -16.9266   26.9010 O   0  0  0  0  0  0  0  0  0  0  0  0
    9.7333  -15.5662   27.4603 O   0  0  0  0  0  0  0  0  0  0  0  0
  2  1  1  0
  2  3  2  0
  4  2  1  0
  5  4  1  0
  6  5  1  0
  6  7  1  1
  8  6  1  0
  8 10  1  0
  9  8  2  0
 10 14  1  0
 10 11  1  0
 11 12  1  0
 13 12  1  0
 14 13  1  0
 14 15  1  1
 16 15  2  0
 18 17  1  0
 19 18  1  0
 19 21  1  0
 19 20  1  1
 21 22  1  6
 21 23  1  0
 22 15  1  0
 23 25  2  0
 23 24  1  0
M  END
$$$$
