QPI.pdb
     RDKit          3D

 25 25  0  0  1  0  0  0  0  0999 V2000
   10.8760  -21.7784   22.3009 N   0  0  0  0  0  0  0  0  0  0  0  0
   11.8013  -20.8909   21.7053 C   0  0  0  0  0  0  0  0  0  0  0  0
   13.0097  -20.9376   22.0101 O   0  0  0  0  0  0  0  0  0  0  0  0
   11.3538  -19.8778   20.6982 C   0  0  0  0  0  0  0  0  0  0  0  0
   11.0825  -18.5707   21.3637 C   0  0  0  0  0  0  0  0  0  0  0  0
   10.8285  -17.4676   20.3999 C   0  0  2  0  0  0  0  0  0  0  0  0
   12.0698  -17.0460   19.7409 N   0  0  0  0  0  0  0  0  0  0  0  0
   10.2183  -16.2988   21.0443 C   0  0  0  0  0  0  0  0  0  0  0  0
   10.8431  -15.2615   21.3646 O   0  0  0  0  0  0  0  0  0  0  0  0
    8.8288  -16.3066   21.3429 N   0  0  0  0  0  0  0  0  0  0  0  0
    7.7759  -17.2519   21.1226 C   0  0  0  0  0  0  0  0  0  0  0  0
    6.7270  -16.3401   20.4623 C   0  0  0  0  0  0  0  0  0  0  0  0
    6.7742  -15.1663   21.4576 C   0  0  0  0  0  0  0  0  0  0  0  0
    8.1667  -15.2082   22.0462 C   0  0  1  0  0  0  0  0  0  0  0  0
    8.0852  -15.5755   23.4797 C   0  0  0  0  0  0  0  0  0  0  0  0
    8.2261  -16.7902   23.8626 O   0  0  0  0  0  0  0  0  0  0  0  0
    5.9214  -11.8360   27.2457 C   0  0  0  0  0  0  0  0  0  0  0  0
    6.2077  -12.9106   26.1840 C   0  0  0  0  0  0  0  0  0  0  0  0
    7.5358  -13.4883   26.5190 C   0  0  2  0  0  0  0  0  0  0  0  0
    8.6837  -12.5378   26.2118 C   0  0  0  0  0  0  0  0  0  0  0  0
    7.8605  -14.8001   25.8673 C   0  0  2  0  0  0  0  0  0  0  0  0
    7.8457  -14.5432   24.4242 N   0  0  0  0  0  0  0  0  0  0  0  0
    6.9587  -15.9060   26.2220 C   0  0  0  0  0  0  0  0  0  0  0  0
    5.9206  -16.3408   25.4080 O   0  0  0  0  0  0  0  0  0  0  0  0
    7.1037  -16.5133   27.3097 O   0  0  0  0  0  0  0  0  0  0  0  0
  2  1  1  0
  2  3  2  0
  4  2  1  0
  5  4  1  0
  6  5  1  0
  6  7  1  1
  8  6  1  0
  8 10  1  0
  9  8  2  0
 10 14  1  0
 10 11  1  0
 11 12  1  0
 13 12  1  0
 14 13  1  0
 14 15  1  1
 16 15  2  0
 18 17  1  0
 19 18  1  0
 19 21  1  0
 19 20  1  6
 21 22  1  6
 21 23  1  0
 22 15  1  0
 23 25  2  0
 23 24  1  0
M  END
$$$$
