QPI.pdb
     RDKit          3D

 25 25  0  0  1  0  0  0  0  0999 V2000
   12.7020  -18.2652   19.9286 N   0  0  0  0  0  0  0  0  0  0  0  0
   12.2825  -17.8352   21.2083 C   0  0  0  0  0  0  0  0  0  0  0  0
   13.0544  -17.9074   22.1851 O   0  0  0  0  0  0  0  0  0  0  0  0
   10.9066  -17.2848   21.4201 C   0  0  0  0  0  0  0  0  0  0  0  0
   10.1601  -17.2454   20.1292 C   0  0  0  0  0  0  0  0  0  0  0  0
    8.7760  -17.7768   20.2399 C   0  0  2  0  0  0  0  0  0  0  0  0
    8.0498  -17.6262   18.9740 N   0  0  0  0  0  0  0  0  0  0  0  0
    8.0114  -17.1132   21.3022 C   0  0  0  0  0  0  0  0  0  0  0  0
    7.4038  -16.0267   21.1626 O   0  0  0  0  0  0  0  0  0  0  0  0
    7.9326  -17.7104   22.5894 N   0  0  0  0  0  0  0  0  0  0  0  0
    8.5329  -18.8687   23.1799 C   0  0  0  0  0  0  0  0  0  0  0  0
    7.2837  -19.5564   23.7580 C   0  0  0  0  0  0  0  0  0  0  0  0
    6.6464  -18.3408   24.4558 C   0  0  0  0  0  0  0  0  0  0  0  0
    7.1360  -17.1409   23.6760 C   0  0  1  0  0  0  0  0  0  0  0  0
    8.0448  -16.3373   24.5273 C   0  0  0  0  0  0  0  0  0  0  0  0
    9.3177  -16.4395   24.4204 O   0  0  0  0  0  0  0  0  0  0  0  0
    5.7082  -11.6559   26.1766 C   0  0  0  0  0  0  0  0  0  0  0  0
    6.7120  -12.6191   25.5221 C   0  0  0  0  0  0  0  0  0  0  0  0
    7.3391  -13.3879   26.6292 C   0  0  2  0  0  0  0  0  0  0  0  0
    8.0873  -12.4983   27.6112 C   0  0  0  0  0  0  0  0  0  0  0  0
    8.2807  -14.4798   26.2145 C   0  0  2  0  0  0  0  0  0  0  0  0
    7.4681  -15.4460   25.4696 N   0  0  0  0  0  0  0  0  0  0  0  0
    9.0005  -15.1279   27.3207 C   0  0  0  0  0  0  0  0  0  0  0  0
    8.6028  -16.3278   27.8964 O   0  0  0  0  0  0  0  0  0  0  0  0
   10.0333  -14.5988   27.7964 O   0  0  0  0  0  0  0  0  0  0  0  0
  2  1  1  0
  2  3  2  0
  4  2  1  0
  5  4  1  0
  6  5  1  0
  6  7  1  6
  8  6  1  0
  8 10  1  0
  9  8  2  0
 10 14  1  0
 10 11  1  0
 11 12  1  0
 13 12  1  0
 14 13  1  0
 14 15  1  1
 16 15  2  0
 18 17  1  0
 19 18  1  0
 19 21  1  0
 19 20  1  1
 21 22  1  1
 21 23  1  0
 22 15  1  0
 23 25  2  0
 23 24  1  0
M  END
$$$$
