QPI.pdb
     RDKit          3D

 25 25  0  0  1  0  0  0  0  0999 V2000
    5.8695  -19.5334   25.2680 N   0  0  0  0  0  0  0  0  0  0  0  0
    7.2799  -19.4698   25.1961 C   0  0  0  0  0  0  0  0  0  0  0  0
    7.9752  -19.6654   26.2128 O   0  0  0  0  0  0  0  0  0  0  0  0
    7.9696  -19.1672   23.9024 C   0  0  0  0  0  0  0  0  0  0  0  0
    6.9894  -18.6586   22.8995 C   0  0  0  0  0  0  0  0  0  0  0  0
    7.6294  -18.2092   21.6351 C   0  0  2  0  0  0  0  0  0  0  0  0
    8.4412  -19.2793   21.0448 N   0  0  0  0  0  0  0  0  0  0  0  0
    8.4795  -17.0296   21.8336 C   0  0  0  0  0  0  0  0  0  0  0  0
    9.7317  -17.0559   21.8534 O   0  0  0  0  0  0  0  0  0  0  0  0
    7.8799  -15.7548   22.0211 N   0  0  0  0  0  0  0  0  0  0  0  0
    6.5414  -15.3220   22.2892 C   0  0  0  0  0  0  0  0  0  0  0  0
    6.3770  -14.2549   21.1928 C   0  0  0  0  0  0  0  0  0  0  0  0
    7.6967  -13.4912   21.4068 C   0  0  0  0  0  0  0  0  0  0  0  0
    8.6477  -14.5100   21.9942 C   0  0  1  0  0  0  0  0  0  0  0  0
    8.9594  -14.1428   23.3957 C   0  0  0  0  0  0  0  0  0  0  0  0
    9.2851  -12.9442   23.7111 O   0  0  0  0  0  0  0  0  0  0  0  0
    6.3448  -12.0383   25.6855 C   0  0  0  0  0  0  0  0  0  0  0  0
    7.6233  -12.7615   25.2312 C   0  0  0  0  0  0  0  0  0  0  0  0
    7.7481  -13.9706   26.0870 C   0  0  2  0  0  0  0  0  0  0  0  0
    7.7605  -13.6397   27.5722 C   0  0  0  0  0  0  0  0  0  0  0  0
    8.9398  -14.8413   25.8173 C   0  0  2  0  0  0  0  0  0  0  0  0
    8.8881  -15.1566   24.3867 N   0  0  0  0  0  0  0  0  0  0  0  0
    9.0085  -16.0639   26.6314 C   0  0  0  0  0  0  0  0  0  0  0  0
    8.7271  -17.3313   26.1376 O   0  0  0  0  0  0  0  0  0  0  0  0
    9.3350  -15.9985   27.8405 O   0  0  0  0  0  0  0  0  0  0  0  0
  2  1  1  0
  2  3  2  0
  4  2  1  0
  5  4  1  0
  6  5  1  0
  6  7  1  1
  8  6  1  0
  8 10  1  0
  9  8  2  0
 10 14  1  0
 10 11  1  0
 11 12  1  0
 13 12  1  0
 14 13  1  0
 14 15  1  1
 16 15  2  0
 18 17  1  0
 19 18  1  0
 19 21  1  0
 19 20  1  1
 21 22  1  6
 21 23  1  0
 22 15  1  0
 23 25  2  0
 23 24  1  0
M  END
$$$$
