QPI.pdb
     RDKit          3D

 25 25  0  0  1  0  0  0  0  0999 V2000
   10.8289  -19.9329   23.5200 N   0  0  0  0  0  0  0  0  0  0  0  0
   12.0823  -19.6148   22.9487 C   0  0  0  0  0  0  0  0  0  0  0  0
   13.1405  -19.9621   23.5101 O   0  0  0  0  0  0  0  0  0  0  0  0
   12.1685  -18.8563   21.6610 C   0  0  0  0  0  0  0  0  0  0  0  0
   10.8019  -18.5366   21.1557 C   0  0  0  0  0  0  0  0  0  0  0  0
   10.7774  -17.3617   20.2452 C   0  0  2  0  0  0  0  0  0  0  0  0
   12.1294  -17.0171   19.7912 N   0  0  0  0  0  0  0  0  0  0  0  0
   10.1799  -16.1813   20.8803 C   0  0  0  0  0  0  0  0  0  0  0  0
   10.8112  -15.1391   21.1707 O   0  0  0  0  0  0  0  0  0  0  0  0
    8.7962  -16.1826   21.2049 N   0  0  0  0  0  0  0  0  0  0  0  0
    7.7434  -17.1391   21.0399 C   0  0  0  0  0  0  0  0  0  0  0  0
    6.6786  -16.2563   20.3657 C   0  0  0  0  0  0  0  0  0  0  0  0
    6.7394  -15.0459   21.3154 C   0  0  0  0  0  0  0  0  0  0  0  0
    8.1428  -15.0609   21.8789 C   0  0  1  0  0  0  0  0  0  0  0  0
    8.0894  -15.3746   23.3264 C   0  0  0  0  0  0  0  0  0  0  0  0
    8.4988  -16.5022   23.7768 O   0  0  0  0  0  0  0  0  0  0  0  0
    6.0851  -11.0645   26.1215 C   0  0  0  0  0  0  0  0  0  0  0  0
    7.1813  -11.9545   25.5132 C   0  0  0  0  0  0  0  0  0  0  0  0
    7.1137  -13.2540   26.2320 C   0  0  2  0  0  0  0  0  0  0  0  0
    7.5260  -13.1392   27.6921 C   0  0  0  0  0  0  0  0  0  0  0  0
    7.9125  -14.3739   25.6329 C   0  0  2  0  0  0  0  0  0  0  0  0
    7.5707  -14.3899   24.2075 N   0  0  0  0  0  0  0  0  0  0  0  0
    7.6905  -15.6899   26.2500 C   0  0  0  0  0  0  0  0  0  0  0  0
    8.5812  -16.2820   27.1362 O   0  0  0  0  0  0  0  0  0  0  0  0
    6.6526  -16.3427   25.9862 O   0  0  0  0  0  0  0  0  0  0  0  0
  2  1  1  0
  2  3  2  0
  4  2  1  0
  5  4  1  0
  6  5  1  0
  6  7  1  1
  8  6  1  0
  8 10  1  0
  9  8  2  0
 10 14  1  0
 10 11  1  0
 11 12  1  0
 13 12  1  0
 14 13  1  0
 14 15  1  1
 16 15  2  0
 18 17  1  0
 19 18  1  0
 19 21  1  0
 19 20  1  1
 21 22  1  6
 21 23  1  0
 22 15  1  0
 23 25  2  0
 23 24  1  0
M  END
$$$$
