QPI.pdb
     RDKit          3D

 25 25  0  0  1  0  0  0  0  0999 V2000
    8.6041  -20.7063   22.6751 N   0  0  0  0  0  0  0  0  0  0  0  0
    8.6195  -20.1084   21.3942 C   0  0  0  0  0  0  0  0  0  0  0  0
    7.9621  -20.6026   20.4568 O   0  0  0  0  0  0  0  0  0  0  0  0
    9.4227  -18.8723   21.1339 C   0  0  0  0  0  0  0  0  0  0  0  0
    8.5664  -17.8187   20.5162 C   0  0  0  0  0  0  0  0  0  0  0  0
    9.2703  -16.5201   20.3477 C   0  0  2  0  0  0  0  0  0  0  0  0
   10.5318  -16.6941   19.6189 N   0  0  0  0  0  0  0  0  0  0  0  0
    9.5560  -15.8742   21.6340 C   0  0  0  0  0  0  0  0  0  0  0  0
   10.6869  -15.4643   21.9835 O   0  0  0  0  0  0  0  0  0  0  0  0
    8.5067  -15.6846   22.5736 N   0  0  0  0  0  0  0  0  0  0  0  0
    7.1593  -16.1619   22.6600 C   0  0  0  0  0  0  0  0  0  0  0  0
    6.4166  -14.8352   22.8967 C   0  0  0  0  0  0  0  0  0  0  0  0
    7.3080  -14.2614   24.0133 C   0  0  0  0  0  0  0  0  0  0  0  0
    8.6683  -14.8820   23.7857 C   0  0  1  0  0  0  0  0  0  0  0  0
    8.9805  -15.8075   24.9003 C   0  0  0  0  0  0  0  0  0  0  0  0
    8.9669  -17.0778   24.7319 O   0  0  0  0  0  0  0  0  0  0  0  0
    9.7864  -12.9933   29.4679 C   0  0  0  0  0  0  0  0  0  0  0  0
   10.3414  -13.7458   28.2474 C   0  0  0  0  0  0  0  0  0  0  0  0
    9.9740  -15.1744   28.4324 C   0  0  2  0  0  0  0  0  0  0  0  0
   10.8367  -15.8720   29.4738 C   0  0  0  0  0  0  0  0  0  0  0  0
   10.0021  -16.0215   27.1944 C   0  0  2  0  0  0  0  0  0  0  0  0
    9.2970  -15.2499   26.1668 N   0  0  0  0  0  0  0  0  0  0  0  0
    9.4184  -17.3621   27.3499 C   0  0  0  0  0  0  0  0  0  0  0  0
   10.1687  -18.4986   27.6233 O   0  0  0  0  0  0  0  0  0  0  0  0
    8.1804  -17.5275   27.2367 O   0  0  0  0  0  0  0  0  0  0  0  0
  2  1  1  0
  2  3  2  0
  4  2  1  0
  5  4  1  0
  6  5  1  0
  6  7  1  1
  8  6  1  0
  8 10  1  0
  9  8  2  0
 10 14  1  0
 10 11  1  0
 11 12  1  0
 13 12  1  0
 14 13  1  0
 14 15  1  1
 16 15  2  0
 18 17  1  0
 19 18  1  0
 19 21  1  0
 19 20  1  1
 21 22  1  6
 21 23  1  0
 22 15  1  0
 23 25  2  0
 23 24  1  0
M  END
$$$$
