QPI.pdb
     RDKit          3D

 25 25  0  0  1  0  0  0  0  0999 V2000
   10.5492  -20.5808   22.4668 N   0  0  0  0  0  0  0  0  0  0  0  0
   11.3601  -19.5579   23.0094 C   0  0  0  0  0  0  0  0  0  0  0  0
   11.9238  -19.7140   24.1109 O   0  0  0  0  0  0  0  0  0  0  0  0
   11.5605  -18.2677   22.2772 C   0  0  0  0  0  0  0  0  0  0  0  0
   10.8687  -18.3090   20.9563 C   0  0  0  0  0  0  0  0  0  0  0  0
   10.8926  -17.0038   20.2448 C   0  0  2  0  0  0  0  0  0  0  0  0
   12.2674  -16.5990   19.9304 N   0  0  0  0  0  0  0  0  0  0  0  0
   10.2551  -15.9364   21.0244 C   0  0  0  0  0  0  0  0  0  0  0  0
   10.8655  -14.9597   21.5169 O   0  0  0  0  0  0  0  0  0  0  0  0
    8.8542  -15.9788   21.2596 N   0  0  0  0  0  0  0  0  0  0  0  0
    7.8433  -16.9673   21.0320 C   0  0  0  0  0  0  0  0  0  0  0  0
    6.7979  -16.1191   20.2868 C   0  0  0  0  0  0  0  0  0  0  0  0
    6.7612  -14.9047   21.2326 C   0  0  0  0  0  0  0  0  0  0  0  0
    8.1254  -14.8755   21.8850 C   0  0  1  0  0  0  0  0  0  0  0  0
    7.9886  -15.1866   23.3276 C   0  0  0  0  0  0  0  0  0  0  0  0
    8.3512  -16.3216   23.7991 O   0  0  0  0  0  0  0  0  0  0  0  0
    6.0655  -10.8055   25.9914 C   0  0  0  0  0  0  0  0  0  0  0  0
    7.1695  -11.8038   25.6062 C   0  0  0  0  0  0  0  0  0  0  0  0
    6.7657  -13.1163   26.1757 C   0  0  2  0  0  0  0  0  0  0  0  0
    6.8848  -13.1598   27.6920 C   0  0  0  0  0  0  0  0  0  0  0  0
    7.4950  -14.3129   25.6396 C   0  0  2  0  0  0  0  0  0  0  0  0
    7.4430  -14.1910   24.1798 N   0  0  0  0  0  0  0  0  0  0  0  0
    6.9658  -15.6101   26.0863 C   0  0  0  0  0  0  0  0  0  0  0  0
    7.5675  -16.3875   27.0675 O   0  0  0  0  0  0  0  0  0  0  0  0
    5.9168  -16.0719   25.5771 O   0  0  0  0  0  0  0  0  0  0  0  0
  2  1  1  0
  2  3  2  0
  4  2  1  0
  5  4  1  0
  6  5  1  0
  6  7  1  1
  8  6  1  0
  8 10  1  0
  9  8  2  0
 10 14  1  0
 10 11  1  0
 11 12  1  0
 13 12  1  0
 14 13  1  0
 14 15  1  1
 16 15  2  0
 18 17  1  0
 19 18  1  0
 19 21  1  0
 19 20  1  1
 21 22  1  6
 21 23  1  0
 22 15  1  0
 23 25  2  0
 23 24  1  0
M  END
$$$$
