QPI.pdb
     RDKit          3D

 25 25  0  0  1  0  0  0  0  0999 V2000
    8.2363  -19.6888   27.0626 N   0  0  0  0  0  0  0  0  0  0  0  0
    7.4071  -19.8234   25.9257 C   0  0  0  0  0  0  0  0  0  0  0  0
    6.2201  -20.1864   26.0470 O   0  0  0  0  0  0  0  0  0  0  0  0
    7.9324  -19.5343   24.5540 C   0  0  0  0  0  0  0  0  0  0  0  0
    6.8514  -18.9728   23.6931 C   0  0  0  0  0  0  0  0  0  0  0  0
    7.3046  -18.6745   22.3089 C   0  0  2  0  0  0  0  0  0  0  0  0
    7.9640  -19.8387   21.7068 N   0  0  0  0  0  0  0  0  0  0  0  0
    8.2280  -17.5350   22.2621 C   0  0  0  0  0  0  0  0  0  0  0  0
    9.4761  -17.6373   22.2312 O   0  0  0  0  0  0  0  0  0  0  0  0
    7.7108  -16.2113   22.2515 N   0  0  0  0  0  0  0  0  0  0  0  0
    6.4040  -15.6593   22.4475 C   0  0  0  0  0  0  0  0  0  0  0  0
    6.2985  -14.7637   21.2008 C   0  0  0  0  0  0  0  0  0  0  0  0
    7.6650  -14.0609   21.2984 C   0  0  0  0  0  0  0  0  0  0  0  0
    8.5547  -15.0361   22.0365 C   0  0  1  0  0  0  0  0  0  0  0  0
    8.8993  -14.4797   23.3662 C   0  0  0  0  0  0  0  0  0  0  0  0
    9.3340  -13.2808   23.4917 O   0  0  0  0  0  0  0  0  0  0  0  0
    6.7516  -11.6753   25.4296 C   0  0  0  0  0  0  0  0  0  0  0  0
    7.9220  -12.6076   25.0761 C   0  0  0  0  0  0  0  0  0  0  0  0
    7.8649  -13.7372   26.0408 C   0  0  2  0  0  0  0  0  0  0  0  0
    7.9303  -13.2758   27.4893 C   0  0  0  0  0  0  0  0  0  0  0  0
    8.9109  -14.7984   25.8663 C   0  0  2  0  0  0  0  0  0  0  0  0
    8.7354  -15.3118   24.5045 N   0  0  0  0  0  0  0  0  0  0  0  0
    8.8607  -15.8841   26.8568 C   0  0  0  0  0  0  0  0  0  0  0  0
    9.5772  -15.8709   28.0466 O   0  0  0  0  0  0  0  0  0  0  0  0
    8.1436  -16.8922   26.6511 O   0  0  0  0  0  0  0  0  0  0  0  0
  2  1  1  0
  2  3  2  0
  4  2  1  0
  5  4  1  0
  6  5  1  0
  6  7  1  1
  8  6  1  0
  8 10  1  0
  9  8  2  0
 10 14  1  0
 10 11  1  0
 11 12  1  0
 13 12  1  0
 14 13  1  0
 14 15  1  1
 16 15  2  0
 18 17  1  0
 19 18  1  0
 19 21  1  0
 19 20  1  1
 21 22  1  6
 21 23  1  0
 22 15  1  0
 23 25  2  0
 23 24  1  0
M  END
$$$$
