QPI.pdb
     RDKit          3D

 25 25  0  0  1  0  0  0  0  0999 V2000
   10.8980  -21.0513   21.0338 N   0  0  0  0  0  0  0  0  0  0  0  0
   10.1811  -20.3129   22.0029 C   0  0  0  0  0  0  0  0  0  0  0  0
    9.5164  -20.8983   22.8809 O   0  0  0  0  0  0  0  0  0  0  0  0
   10.2028  -18.8161   21.9980 C   0  0  0  0  0  0  0  0  0  0  0  0
   11.2143  -18.3160   21.0223 C   0  0  0  0  0  0  0  0  0  0  0  0
   10.7065  -17.2056   20.1740 C   0  0  2  0  0  0  0  0  0  0  0  0
   11.7660  -16.6755   19.3084 N   0  0  0  0  0  0  0  0  0  0  0  0
   10.1579  -16.1042   20.9737 C   0  0  0  0  0  0  0  0  0  0  0  0
   10.8463  -15.1921   21.4868 O   0  0  0  0  0  0  0  0  0  0  0  0
    8.7575  -16.0336   21.2054 N   0  0  0  0  0  0  0  0  0  0  0  0
    7.6547  -16.8790   20.8592 C   0  0  0  0  0  0  0  0  0  0  0  0
    6.7075  -15.8437   20.2278 C   0  0  0  0  0  0  0  0  0  0  0  0
    6.7836  -14.7585   21.3174 C   0  0  0  0  0  0  0  0  0  0  0  0
    8.1372  -14.9484   21.9649 C   0  0  1  0  0  0  0  0  0  0  0  0
    7.9553  -15.4204   23.3580 C   0  0  0  0  0  0  0  0  0  0  0  0
    8.2771  -16.6120   23.7024 O   0  0  0  0  0  0  0  0  0  0  0  0
    6.0283  -11.2169   26.3280 C   0  0  0  0  0  0  0  0  0  0  0  0
    7.0999  -12.0834   25.6462 C   0  0  0  0  0  0  0  0  0  0  0  0
    7.1054  -13.3856   26.3633 C   0  0  2  0  0  0  0  0  0  0  0  0
    7.6283  -13.2690   27.7875 C   0  0  0  0  0  0  0  0  0  0  0  0
    7.8700  -14.4930   25.7000 C   0  0  2  0  0  0  0  0  0  0  0  0
    7.4126  -14.5154   24.3075 N   0  0  0  0  0  0  0  0  0  0  0  0
    7.7203  -15.8120   26.3325 C   0  0  0  0  0  0  0  0  0  0  0  0
    8.6892  -16.3883   27.1438 O   0  0  0  0  0  0  0  0  0  0  0  0
    6.6755  -16.4821   26.1529 O   0  0  0  0  0  0  0  0  0  0  0  0
  2  1  1  0
  2  3  2  0
  4  2  1  0
  5  4  1  0
  6  5  1  0
  6  7  1  1
  8  6  1  0
  8 10  1  0
  9  8  2  0
 10 14  1  0
 10 11  1  0
 11 12  1  0
 13 12  1  0
 14 13  1  0
 14 15  1  1
 16 15  2  0
 18 17  1  0
 19 18  1  0
 19 21  1  0
 19 20  1  1
 21 22  1  6
 21 23  1  0
 22 15  1  0
 23 25  2  0
 23 24  1  0
M  END
$$$$
