QPI.pdb
     RDKit          3D

 25 25  0  0  1  0  0  0  0  0999 V2000
    8.5790  -20.3907   22.6656 N   0  0  0  0  0  0  0  0  0  0  0  0
    9.3621  -20.3489   21.4894 C   0  0  0  0  0  0  0  0  0  0  0  0
    9.4267  -21.3406   20.7360 O   0  0  0  0  0  0  0  0  0  0  0  0
   10.1295  -19.1173   21.1218 C   0  0  0  0  0  0  0  0  0  0  0  0
    9.3371  -18.2752   20.1793 C   0  0  0  0  0  0  0  0  0  0  0  0
    9.9557  -16.9479   19.9228 C   0  0  2  0  0  0  0  0  0  0  0  0
   11.3236  -17.0926   19.4124 N   0  0  0  0  0  0  0  0  0  0  0  0
    9.9897  -16.1107   21.1275 C   0  0  0  0  0  0  0  0  0  0  0  0
   11.0252  -15.5779   21.5891 O   0  0  0  0  0  0  0  0  0  0  0  0
    8.7890  -15.8660   21.8474 N   0  0  0  0  0  0  0  0  0  0  0  0
    7.4389  -16.3204   21.7010 C   0  0  0  0  0  0  0  0  0  0  0  0
    6.6941  -14.9746   21.7422 C   0  0  0  0  0  0  0  0  0  0  0  0
    7.3757  -14.3652   22.9811 C   0  0  0  0  0  0  0  0  0  0  0  0
    8.7409  -15.0139   23.0353 C   0  0  1  0  0  0  0  0  0  0  0  0
    8.8213  -15.8944   24.2247 C   0  0  0  0  0  0  0  0  0  0  0  0
    8.6783  -17.1637   24.1217 O   0  0  0  0  0  0  0  0  0  0  0  0
   10.1457  -12.8972   28.7032 C   0  0  0  0  0  0  0  0  0  0  0  0
   10.3452  -13.7609   27.4469 C   0  0  0  0  0  0  0  0  0  0  0  0
    9.7369  -15.0839   27.7462 C   0  0  2  0  0  0  0  0  0  0  0  0
   10.4350  -15.8057   28.8895 C   0  0  0  0  0  0  0  0  0  0  0  0
    9.6630  -16.0440   26.5957 C   0  0  2  0  0  0  0  0  0  0  0  0
    9.0620  -15.2945   25.4885 N   0  0  0  0  0  0  0  0  0  0  0  0
    8.9169  -17.2809   26.8702 C   0  0  0  0  0  0  0  0  0  0  0  0
    9.5180  -18.4656   27.2758 O   0  0  0  0  0  0  0  0  0  0  0  0
    7.6695  -17.3062   26.7423 O   0  0  0  0  0  0  0  0  0  0  0  0
  2  1  1  0
  2  3  2  0
  4  2  1  0
  5  4  1  0
  6  5  1  0
  6  7  1  1
  8  6  1  0
  8 10  1  0
  9  8  2  0
 10 14  1  0
 10 11  1  0
 11 12  1  0
 13 12  1  0
 14 13  1  0
 14 15  1  1
 16 15  2  0
 18 17  1  0
 19 18  1  0
 19 21  1  0
 19 20  1  1
 21 22  1  6
 21 23  1  0
 22 15  1  0
 23 25  2  0
 23 24  1  0
M  END
$$$$
