QPI.pdb
     RDKit          3D

 25 25  0  0  1  0  0  0  0  0999 V2000
    9.0309  -12.3012   18.5066 N   0  0  0  0  0  0  0  0  0  0  0  0
    8.7285  -13.5642   17.9483 C   0  0  0  0  0  0  0  0  0  0  0  0
    9.2804  -13.9393   16.8946 O   0  0  0  0  0  0  0  0  0  0  0  0
    7.7423  -14.4781   18.6063 C   0  0  0  0  0  0  0  0  0  0  0  0
    8.4523  -15.5770   19.3227 C   0  0  0  0  0  0  0  0  0  0  0  0
    7.5361  -16.6396   19.8144 C   0  0  2  0  0  0  0  0  0  0  0  0
    6.2856  -16.6552   19.0471 N   0  0  0  0  0  0  0  0  0  0  0  0
    7.2128  -16.4774   21.2367 C   0  0  0  0  0  0  0  0  0  0  0  0
    6.2610  -15.7885   21.6711 O   0  0  0  0  0  0  0  0  0  0  0  0
    8.0100  -17.1276   22.2172 N   0  0  0  0  0  0  0  0  0  0  0  0
    9.2593  -17.8261   22.1707 C   0  0  0  0  0  0  0  0  0  0  0  0
    8.8723  -19.1224   22.9039 C   0  0  0  0  0  0  0  0  0  0  0  0
    8.1609  -18.5022   24.1205 C   0  0  0  0  0  0  0  0  0  0  0  0
    7.6432  -17.1675   23.6326 C   0  0  1  0  0  0  0  0  0  0  0  0
    8.3736  -16.0752   24.3181 C   0  0  0  0  0  0  0  0  0  0  0  0
    9.5062  -15.6605   23.8855 O   0  0  0  0  0  0  0  0  0  0  0  0
    5.2477  -12.2721   26.3288 C   0  0  0  0  0  0  0  0  0  0  0  0
    6.3406  -13.0794   25.6091 C   0  0  0  0  0  0  0  0  0  0  0  0
    7.3070  -13.5036   26.6560 C   0  0  2  0  0  0  0  0  0  0  0  0
    7.9400  -12.3259   27.3823 C   0  0  0  0  0  0  0  0  0  0  0  0
    8.4247  -14.3905   26.1920 C   0  0  2  0  0  0  0  0  0  0  0  0
    7.7847  -15.4957   25.4724 N   0  0  0  0  0  0  0  0  0  0  0  0
    9.3035  -14.8873   27.2612 C   0  0  0  0  0  0  0  0  0  0  0  0
   10.5056  -14.2845   27.6085 O   0  0  0  0  0  0  0  0  0  0  0  0
    8.9837  -15.9076   27.9167 O   0  0  0  0  0  0  0  0  0  0  0  0
  2  1  1  0
  2  3  2  0
  4  2  1  0
  5  4  1  0
  6  5  1  0
  6  7  1  6
  8  6  1  0
  8 10  1  0
  9  8  2  0
 10 14  1  0
 10 11  1  0
 11 12  1  0
 13 12  1  0
 14 13  1  0
 14 15  1  1
 16 15  2  0
 18 17  1  0
 19 18  1  0
 19 21  1  0
 19 20  1  6
 21 22  1  1
 21 23  1  0
 22 15  1  0
 23 25  2  0
 23 24  1  0
M  END
$$$$
