QPI.pdb
     RDKit          3D

 25 25  0  0  1  0  0  0  0  0999 V2000
    9.0225  -21.0844   21.5073 N   0  0  0  0  0  0  0  0  0  0  0  0
    9.6488  -20.2311   22.4444 C   0  0  0  0  0  0  0  0  0  0  0  0
    9.7396  -20.5646   23.6426 O   0  0  0  0  0  0  0  0  0  0  0  0
   10.2156  -18.9116   22.0218 C   0  0  0  0  0  0  0  0  0  0  0  0
    9.9912  -18.6947   20.5632 C   0  0  0  0  0  0  0  0  0  0  0  0
   10.4897  -17.3777   20.0863 C   0  0  2  0  0  0  0  0  0  0  0  0
   11.9539  -17.3698   19.9930 N   0  0  0  0  0  0  0  0  0  0  0  0
   10.0686  -16.2767   20.9603 C   0  0  0  0  0  0  0  0  0  0  0  0
   10.8490  -15.5932   21.6622 O   0  0  0  0  0  0  0  0  0  0  0  0
    8.6919  -15.9337   21.0448 N   0  0  0  0  0  0  0  0  0  0  0  0
    7.4893  -16.5484   20.5689 C   0  0  0  0  0  0  0  0  0  0  0  0
    6.8341  -15.3496   19.8610 C   0  0  0  0  0  0  0  0  0  0  0  0
    7.0028  -14.2977   20.9726 C   0  0  0  0  0  0  0  0  0  0  0  0
    8.2167  -14.7466   21.7551 C   0  0  1  0  0  0  0  0  0  0  0  0
    7.7990  -15.1710   23.1123 C   0  0  0  0  0  0  0  0  0  0  0  0
    7.8842  -16.3955   23.4805 O   0  0  0  0  0  0  0  0  0  0  0  0
    6.9343  -11.1145   27.6337 C   0  0  0  0  0  0  0  0  0  0  0  0
    7.5047  -12.5134   27.3483 C   0  0  0  0  0  0  0  0  0  0  0  0
    7.2142  -12.8015   25.9191 C   0  0  2  0  0  0  0  0  0  0  0  0
    5.7264  -12.7602   25.6028 C   0  0  0  0  0  0  0  0  0  0  0  0
    7.7425  -14.1044   25.3951 C   0  0  2  0  0  0  0  0  0  0  0  0
    7.2991  -14.1826   24.0001 N   0  0  0  0  0  0  0  0  0  0  0  0
    7.3242  -15.2912   26.1557 C   0  0  0  0  0  0  0  0  0  0  0  0
    8.0419  -15.8086   27.2264 O   0  0  0  0  0  0  0  0  0  0  0  0
    6.2683  -15.8954   25.8507 O   0  0  0  0  0  0  0  0  0  0  0  0
  2  1  1  0
  2  3  2  0
  4  2  1  0
  5  4  1  0
  6  5  1  0
  6  7  1  1
  8  6  1  0
  8 10  1  0
  9  8  2  0
 10 14  1  0
 10 11  1  0
 11 12  1  0
 13 12  1  0
 14 13  1  0
 14 15  1  1
 16 15  2  0
 18 17  1  0
 19 18  1  0
 19 21  1  0
 19 20  1  1
 21 22  1  6
 21 23  1  0
 22 15  1  0
 23 25  2  0
 23 24  1  0
M  END
$$$$
