EYH.pdb
     RDKit          3D

 32 33  0  0  1  0  0  0  0  0999 V2000
    8.2261  -15.4545   18.8862 N   0  0  0  0  0  0  0  0  0  0  0  0
    7.4246  -15.8995   20.0092 C   0  0  1  0  0  0  0  0  0  0  0  0
    7.2869  -17.3999   19.9098 C   0  0  0  0  0  0  0  0  0  0  0  0
    7.6166  -17.7934   18.4820 C   0  0  0  0  0  0  0  0  0  0  0  0
    7.5152  -19.2449   18.2502 C   0  0  0  0  0  0  0  0  0  0  0  0
    7.9157  -19.6840   17.1251 O   0  0  0  0  0  0  0  0  0  0  0  0
    8.0927  -15.4753   21.2624 C   0  0  0  0  0  0  0  0  0  0  0  0
    9.3217  -15.3297   21.3101 O   0  0  0  0  0  0  0  0  0  0  0  0
    7.0201  -20.1618   19.1597 O   0  0  0  0  0  0  0  0  0  0  0  0
    9.3758  -13.2306   29.7624 O   0  0  0  0  0  0  0  0  0  0  0  0
    8.7817  -13.5432   28.5378 C   0  0  0  0  0  0  0  0  0  0  0  0
    8.3224  -14.8115   28.2314 C   0  0  0  0  0  0  0  0  0  0  0  0
    7.7421  -15.0947   27.0215 C   0  0  0  0  0  0  0  0  0  0  0  0
    7.5970  -14.1334   26.0757 C   0  0  0  0  0  0  0  0  0  0  0  0
    6.9723  -14.3720   24.7362 C   0  0  0  0  0  0  0  0  0  0  0  0
    7.9351  -14.8342   23.6932 C   0  0  2  0  0  0  0  0  0  0  0  0
    7.3704  -15.2198   22.4475 N   0  0  0  0  0  0  0  0  0  0  0  0
    8.6517  -15.9976   24.2682 C   0  0  0  0  0  0  0  0  0  0  0  0
    8.0413  -17.0840   24.3975 O   0  0  0  0  0  0  0  0  0  0  0  0
    8.0495  -12.8595   26.3622 C   0  0  0  0  0  0  0  0  0  0  0  0
    8.6444  -12.5527   27.5922 C   0  0  0  0  0  0  0  0  0  0  0  0
   10.0008  -15.9551   24.6855 N   0  0  0  0  0  0  0  0  0  0  0  0
   10.7051  -17.1255   25.2361 C   0  0  1  0  0  0  0  0  0  0  0  0
   12.1123  -17.1894   24.7095 C   0  0  0  0  0  0  0  0  0  0  0  0
   12.1018  -17.6396   23.3207 C   0  0  0  0  0  0  0  0  0  0  0  0
   11.0747  -18.2935   22.6563 C   0  0  0  0  0  0  0  0  0  0  0  0
   11.4525  -18.5413   21.3916 N   0  0  0  0  0  0  0  0  0  0  0  0
   12.6909  -18.0560   21.2552 C   0  0  0  0  0  0  0  0  0  0  0  0
   13.0833  -17.5094   22.4261 N   0  0  0  0  0  0  0  0  0  0  0  0
   10.6095  -17.0354   26.7025 C   0  0  0  0  0  0  0  0  0  0  0  0
   11.1241  -18.0277   27.5174 O   0  0  0  0  0  0  0  0  0  0  0  0
   10.0549  -16.0508   27.2411 O   0  0  0  0  0  0  0  0  0  0  0  0
  2  1  1  6
  2  3  1  0
  4  3  1  0
  5  6  2  0
  5  4  1  0
  7  2  1  0
  8  7  2  0
  9  5  1  0
 10 11  1  0
 11 12  2  0
 12 13  1  0
 14 15  1  0
 14 13  2  0
 16 15  1  1
 16 17  1  0
 17  7  1  0
 18 16  1  0
 19 18  2  0
 20 14  1  0
 21 20  2  0
 21 11  1  0
 22 18  1  0
 23 22  1  0
 23 24  1  1
 24 25  1  0
 25 29  1  0
 26 25  2  0
 26 27  1  0
 27 28  1  0
 29 28  2  0
 30 31  1  0
 30 23  1  0
 32 30  2  0
M  END
$$$$
