EYH.pdb
     RDKit          3D

 32 33  0  0  1  0  0  0  0  0999 V2000
    9.5769  -18.4758   20.3384 N   0  0  0  0  0  0  0  0  0  0  0  0
   10.8157  -17.7595   20.5704 C   0  0  1  0  0  0  0  0  0  0  0  0
   11.2875  -17.2152   19.2433 C   0  0  0  0  0  0  0  0  0  0  0  0
   11.4437  -18.3921   18.2985 C   0  0  0  0  0  0  0  0  0  0  0  0
   12.0358  -18.0123   17.0039 C   0  0  0  0  0  0  0  0  0  0  0  0
   11.2869  -18.0846   15.9778 O   0  0  0  0  0  0  0  0  0  0  0  0
   10.5618  -16.6879   21.5625 C   0  0  0  0  0  0  0  0  0  0  0  0
   11.4409  -15.8633   21.8471 O   0  0  0  0  0  0  0  0  0  0  0  0
   13.3384  -17.5847   16.8211 O   0  0  0  0  0  0  0  0  0  0  0  0
    6.5256  -11.2304   27.2312 O   0  0  0  0  0  0  0  0  0  0  0  0
    6.7621  -12.2349   26.2902 C   0  0  0  0  0  0  0  0  0  0  0  0
    6.3892  -13.5516   26.4921 C   0  0  0  0  0  0  0  0  0  0  0  0
    6.6321  -14.5211   25.5530 C   0  0  0  0  0  0  0  0  0  0  0  0
    7.2512  -14.2203   24.3843 C   0  0  0  0  0  0  0  0  0  0  0  0
    7.5459  -15.2271   23.3160 C   0  0  0  0  0  0  0  0  0  0  0  0
    8.9954  -15.5562   23.1781 C   0  0  2  0  0  0  0  0  0  0  0  0
    9.3216  -16.5564   22.2228 N   0  0  0  0  0  0  0  0  0  0  0  0
    9.4527  -16.0101   24.5132 C   0  0  0  0  0  0  0  0  0  0  0  0
    8.7154  -15.8142   25.5071 O   0  0  0  0  0  0  0  0  0  0  0  0
    7.6319  -12.9104   24.1632 C   0  0  0  0  0  0  0  0  0  0  0  0
    7.3918  -11.9079   25.1110 C   0  0  0  0  0  0  0  0  0  0  0  0
   10.6874  -16.6593   24.7364 N   0  0  0  0  0  0  0  0  0  0  0  0
   11.1881  -16.9850   26.0826 C   0  0  1  0  0  0  0  0  0  0  0  0
   10.1218  -16.7412   27.1146 C   0  0  0  0  0  0  0  0  0  0  0  0
   10.4215  -15.5210   27.8582 C   0  0  0  0  0  0  0  0  0  0  0  0
   11.2061  -14.4549   27.4438 C   0  0  0  0  0  0  0  0  0  0  0  0
   11.2400  -13.5266   28.4136 N   0  0  0  0  0  0  0  0  0  0  0  0
   10.4942  -13.9918   29.4213 C   0  0  0  0  0  0  0  0  0  0  0  0
    9.9984  -15.2015   29.0827 N   0  0  0  0  0  0  0  0  0  0  0  0
   11.6810  -18.3715   26.0353 C   0  0  0  0  0  0  0  0  0  0  0  0
   12.3213  -18.9429   27.1202 O   0  0  0  0  0  0  0  0  0  0  0  0
   11.5284  -19.0623   25.0026 O   0  0  0  0  0  0  0  0  0  0  0  0
  2  1  1  6
  2  3  1  0
  4  3  1  0
  5  6  2  0
  5  4  1  0
  7  2  1  0
  8  7  2  0
  9  5  1  0
 10 11  1  0
 11 12  2  0
 12 13  1  0
 14 15  1  0
 14 13  2  0
 16 15  1  1
 16 17  1  0
 17  7  1  0
 18 16  1  0
 19 18  2  0
 20 14  1  0
 21 20  2  0
 21 11  1  0
 22 18  1  0
 23 22  1  0
 23 24  1  1
 24 25  1  0
 25 29  1  0
 26 25  2  0
 26 27  1  0
 27 28  1  0
 29 28  2  0
 30 31  1  0
 30 23  1  0
 32 30  2  0
M  END
$$$$
