EYH.pdb
     RDKit          3D

 32 33  0  0  1  0  0  0  0  0999 V2000
    9.6617  -19.2117   20.1273 N   0  0  0  0  0  0  0  0  0  0  0  0
   10.9772  -18.6075   20.2046 C   0  0  1  0  0  0  0  0  0  0  0  0
   11.1946  -17.8155   18.9375 C   0  0  0  0  0  0  0  0  0  0  0  0
   10.8482  -18.7206   17.7702 C   0  0  0  0  0  0  0  0  0  0  0  0
   11.0167  -18.0601   16.4639 C   0  0  0  0  0  0  0  0  0  0  0  0
   10.2423  -18.4255   15.5228 O   0  0  0  0  0  0  0  0  0  0  0  0
   11.0354  -17.7588   21.4184 C   0  0  0  0  0  0  0  0  0  0  0  0
   12.0395  -17.0795   21.6720 O   0  0  0  0  0  0  0  0  0  0  0  0
   11.9488  -17.0770   16.1854 O   0  0  0  0  0  0  0  0  0  0  0  0
    7.6594  -12.7558   18.9580 O   0  0  0  0  0  0  0  0  0  0  0  0
    7.9429  -13.5256   20.0883 C   0  0  0  0  0  0  0  0  0  0  0  0
    9.1364  -13.4266   20.7805 C   0  0  0  0  0  0  0  0  0  0  0  0
    9.3924  -14.1933   21.8883 C   0  0  0  0  0  0  0  0  0  0  0  0
    8.4769  -15.0825   22.3476 C   0  0  0  0  0  0  0  0  0  0  0  0
    8.6894  -15.9489   23.5500 C   0  0  0  0  0  0  0  0  0  0  0  0
    9.8968  -16.8222   23.4607 C   0  0  2  0  0  0  0  0  0  0  0  0
    9.9633  -17.6842   22.3329 N   0  0  0  0  0  0  0  0  0  0  0  0
    9.9091  -17.6501   24.6904 C   0  0  0  0  0  0  0  0  0  0  0  0
    8.8917  -18.3206   24.9817 O   0  0  0  0  0  0  0  0  0  0  0  0
    7.2780  -15.1968   21.6701 C   0  0  0  0  0  0  0  0  0  0  0  0
    7.0000  -14.4219   20.5373 C   0  0  0  0  0  0  0  0  0  0  0  0
   11.0144  -17.7299   25.5667 N   0  0  0  0  0  0  0  0  0  0  0  0
   11.0543  -18.6410   26.7231 C   0  0  1  0  0  0  0  0  0  0  0  0
   12.4657  -19.0807   26.9990 C   0  0  0  0  0  0  0  0  0  0  0  0
   13.0043  -19.7776   25.8346 C   0  0  0  0  0  0  0  0  0  0  0  0
   12.3387  -20.0879   24.6580 C   0  0  0  0  0  0  0  0  0  0  0  0
   13.1771  -20.7349   23.8322 N   0  0  0  0  0  0  0  0  0  0  0  0
   14.3487  -20.8336   24.4692 C   0  0  0  0  0  0  0  0  0  0  0  0
   14.2421  -20.2525   25.6836 N   0  0  0  0  0  0  0  0  0  0  0  0
   10.4062  -17.9418   27.8451 C   0  0  0  0  0  0  0  0  0  0  0  0
   10.1596  -18.5847   29.0448 O   0  0  0  0  0  0  0  0  0  0  0  0
   10.0638  -16.7433   27.7306 O   0  0  0  0  0  0  0  0  0  0  0  0
  2  1  1  6
  2  3  1  0
  4  3  1  0
  5  6  2  0
  5  4  1  0
  7  2  1  0
  8  7  2  0
  9  5  1  0
 10 11  1  0
 11 12  2  0
 12 13  1  0
 14 15  1  0
 14 13  2  0
 16 15  1  6
 16 17  1  0
 17  7  1  0
 18 16  1  0
 19 18  2  0
 20 14  1  0
 21 20  2  0
 21 11  1  0
 22 18  1  0
 23 22  1  0
 23 24  1  1
 24 25  1  0
 25 29  1  0
 26 25  2  0
 26 27  1  0
 27 28  1  0
 29 28  2  0
 30 31  1  0
 30 23  1  0
 32 30  2  0
M  END
$$$$
