EYH.pdb
     RDKit          3D

 32 33  0  0  1  0  0  0  0  0999 V2000
    8.2491  -14.9078   19.7771 N   0  0  0  0  0  0  0  0  0  0  0  0
    7.9401  -16.0123   20.6638 C   0  0  1  0  0  0  0  0  0  0  0  0
    8.5070  -17.2689   20.0476 C   0  0  0  0  0  0  0  0  0  0  0  0
    9.3417  -16.8523   18.8510 C   0  0  0  0  0  0  0  0  0  0  0  0
    9.8828  -18.0004   18.1027 C   0  0  0  0  0  0  0  0  0  0  0  0
    9.3003  -18.3134   17.0157 O   0  0  0  0  0  0  0  0  0  0  0  0
    8.5224  -15.7242   21.9961 C   0  0  0  0  0  0  0  0  0  0  0  0
    9.5832  -15.0941   22.1038 O   0  0  0  0  0  0  0  0  0  0  0  0
   10.9717  -18.7596   18.4912 O   0  0  0  0  0  0  0  0  0  0  0  0
    6.6545  -10.0905   26.7406 O   0  0  0  0  0  0  0  0  0  0  0  0
    6.7907  -11.4437   26.4232 C   0  0  0  0  0  0  0  0  0  0  0  0
    5.9547  -12.0904   25.5309 C   0  0  0  0  0  0  0  0  0  0  0  0
    6.1080  -13.4207   25.2347 C   0  0  0  0  0  0  0  0  0  0  0  0
    7.0926  -14.1543   25.8109 C   0  0  0  0  0  0  0  0  0  0  0  0
    7.3180  -15.6081   25.5326 C   0  0  0  0  0  0  0  0  0  0  0  0
    8.3691  -15.8717   24.5059 C   0  0  2  0  0  0  0  0  0  0  0  0
    7.9044  -16.1482   23.1918 N   0  0  0  0  0  0  0  0  0  0  0  0
    9.1454  -17.0387   24.9886 C   0  0  0  0  0  0  0  0  0  0  0  0
    8.6252  -18.1774   24.9386 O   0  0  0  0  0  0  0  0  0  0  0  0
    7.9386  -13.5269   26.7054 C   0  0  0  0  0  0  0  0  0  0  0  0
    7.7965  -12.1696   27.0194 C   0  0  0  0  0  0  0  0  0  0  0  0
   10.4552  -16.9436   25.5095 N   0  0  0  0  0  0  0  0  0  0  0  0
   11.2163  -18.1138   25.9788 C   0  0  1  0  0  0  0  0  0  0  0  0
   12.6707  -17.9738   25.6226 C   0  0  0  0  0  0  0  0  0  0  0  0
   12.8147  -17.8229   24.1776 C   0  0  0  0  0  0  0  0  0  0  0  0
   12.5384  -16.6956   23.4181 C   0  0  0  0  0  0  0  0  0  0  0  0
   12.7966  -16.9576   22.1265 N   0  0  0  0  0  0  0  0  0  0  0  0
   13.2271  -18.2221   22.0663 C   0  0  0  0  0  0  0  0  0  0  0  0
   13.2375  -18.7455   23.3112 N   0  0  0  0  0  0  0  0  0  0  0  0
   10.9552  -18.2473   27.4217 C   0  0  0  0  0  0  0  0  0  0  0  0
   10.0800  -17.3977   28.0741 O   0  0  0  0  0  0  0  0  0  0  0  0
   11.5269  -19.1395   28.0881 O   0  0  0  0  0  0  0  0  0  0  0  0
  2  1  1  6
  2  3  1  0
  4  3  1  0
  5  6  2  0
  5  4  1  0
  7  2  1  0
  8  7  2  0
  9  5  1  0
 10 11  1  0
 11 12  2  0
 12 13  1  0
 14 15  1  0
 14 13  2  0
 16 15  1  1
 16 17  1  0
 17  7  1  0
 18 16  1  0
 19 18  2  0
 20 14  1  0
 21 20  2  0
 21 11  1  0
 22 18  1  0
 23 22  1  0
 23 24  1  1
 24 25  1  0
 25 29  1  0
 26 25  2  0
 26 27  1  0
 27 28  1  0
 29 28  2  0
 30 31  1  0
 30 23  1  0
 32 30  2  0
M  END
$$$$
