EYH.pdb
     RDKit          3D

 32 33  0  0  1  0  0  0  0  0999 V2000
    8.2692  -14.2963   19.2480 N   0  0  0  0  0  0  0  0  0  0  0  0
    7.7196  -15.1737   20.2628 C   0  0  1  0  0  0  0  0  0  0  0  0
    7.5228  -16.5337   19.6369 C   0  0  0  0  0  0  0  0  0  0  0  0
    6.6473  -17.3437   20.5747 C   0  0  0  0  0  0  0  0  0  0  0  0
    6.4221  -18.7207   20.1015 C   0  0  0  0  0  0  0  0  0  0  0  0
    7.0442  -19.0849   19.0530 O   0  0  0  0  0  0  0  0  0  0  0  0
    8.6559  -15.2104   21.4112 C   0  0  0  0  0  0  0  0  0  0  0  0
    9.8806  -15.2540   21.2322 O   0  0  0  0  0  0  0  0  0  0  0  0
    5.5894  -19.6431   20.7089 O   0  0  0  0  0  0  0  0  0  0  0  0
    4.8121  -11.6571   27.1194 O   0  0  0  0  0  0  0  0  0  0  0  0
    5.9415  -12.1730   26.4802 C   0  0  0  0  0  0  0  0  0  0  0  0
    7.0974  -11.4364   26.2940 C   0  0  0  0  0  0  0  0  0  0  0  0
    8.1944  -11.9647   25.6630 C   0  0  0  0  0  0  0  0  0  0  0  0
    8.1842  -13.2381   25.1959 C   0  0  0  0  0  0  0  0  0  0  0  0
    9.3452  -13.8781   24.5001 C   0  0  0  0  0  0  0  0  0  0  0  0
    9.0328  -15.2095   23.9017 C   0  0  2  0  0  0  0  0  0  0  0  0
    8.2034  -15.1977   22.7478 N   0  0  0  0  0  0  0  0  0  0  0  0
    8.3592  -15.9990   24.9604 C   0  0  0  0  0  0  0  0  0  0  0  0
    7.7125  -15.3970   25.8487 O   0  0  0  0  0  0  0  0  0  0  0  0
    7.0388  -13.9908   25.3718 C   0  0  0  0  0  0  0  0  0  0  0  0
    5.9096  -13.4674   26.0137 C   0  0  0  0  0  0  0  0  0  0  0  0
    8.4031  -17.4093   25.0297 N   0  0  0  0  0  0  0  0  0  0  0  0
    9.6379  -18.1580   25.3188 C   0  0  1  0  0  0  0  0  0  0  0  0
   10.7079  -17.8157   24.3191 C   0  0  0  0  0  0  0  0  0  0  0  0
   11.9208  -18.5737   24.6122 C   0  0  0  0  0  0  0  0  0  0  0  0
   12.1249  -19.4631   25.6568 C   0  0  0  0  0  0  0  0  0  0  0  0
   13.3734  -19.9523   25.5845 N   0  0  0  0  0  0  0  0  0  0  0  0
   13.9498  -19.3870   24.5185 C   0  0  0  0  0  0  0  0  0  0  0  0
   13.0674  -18.5512   23.9299 N   0  0  0  0  0  0  0  0  0  0  0  0
    9.9992  -17.8702   26.7168 C   0  0  0  0  0  0  0  0  0  0  0  0
   10.1360  -18.8856   27.6461 O   0  0  0  0  0  0  0  0  0  0  0  0
   10.1893  -16.6910   27.0911 O   0  0  0  0  0  0  0  0  0  0  0  0
  2  1  1  6
  2  3  1  0
  4  3  1  0
  5  6  2  0
  5  4  1  0
  7  2  1  0
  8  7  2  0
  9  5  1  0
 10 11  1  0
 11 12  2  0
 12 13  1  0
 14 15  1  0
 14 13  2  0
 16 15  1  1
 16 17  1  0
 17  7  1  0
 18 16  1  0
 19 18  2  0
 20 14  1  0
 21 20  2  0
 21 11  1  0
 22 18  1  0
 23 22  1  0
 23 24  1  6
 24 25  1  0
 25 29  1  0
 26 25  2  0
 26 27  1  0
 27 28  1  0
 29 28  2  0
 30 31  1  0
 30 23  1  0
 32 30  2  0
M  END
$$$$
