EYH.pdb
     RDKit          3D

 32 33  0  0  1  0  0  0  0  0999 V2000
    7.8601  -12.9217   19.3841 N   0  0  0  0  0  0  0  0  0  0  0  0
    7.2425  -13.9098   20.2465 C   0  0  1  0  0  0  0  0  0  0  0  0
    7.0446  -15.1682   19.4357 C   0  0  0  0  0  0  0  0  0  0  0  0
    8.2960  -15.3744   18.6031 C   0  0  0  0  0  0  0  0  0  0  0  0
    8.2057  -16.5461   17.7143 C   0  0  0  0  0  0  0  0  0  0  0  0
    7.4735  -17.5131   18.0986 O   0  0  0  0  0  0  0  0  0  0  0  0
    8.1217  -14.1263   21.4201 C   0  0  0  0  0  0  0  0  0  0  0  0
    9.3544  -14.0874   21.3070 O   0  0  0  0  0  0  0  0  0  0  0  0
    8.8538  -16.6729   16.4990 O   0  0  0  0  0  0  0  0  0  0  0  0
   10.8634  -14.3347   29.8334 O   0  0  0  0  0  0  0  0  0  0  0  0
   10.0600  -14.3942   28.6926 C   0  0  0  0  0  0  0  0  0  0  0  0
    9.5844  -15.5850   28.1740 C   0  0  0  0  0  0  0  0  0  0  0  0
    8.7965  -15.6185   27.0520 C   0  0  0  0  0  0  0  0  0  0  0  0
    8.4532  -14.4759   26.4067 C   0  0  0  0  0  0  0  0  0  0  0  0
    7.5964  -14.4390   25.1795 C   0  0  0  0  0  0  0  0  0  0  0  0
    8.3673  -14.4798   23.9019 C   0  0  2  0  0  0  0  0  0  0  0  0
    7.6037  -14.3840   22.7072 N   0  0  0  0  0  0  0  0  0  0  0  0
    9.0996  -15.7687   23.8932 C   0  0  0  0  0  0  0  0  0  0  0  0
    8.4927  -16.8101   23.5514 O   0  0  0  0  0  0  0  0  0  0  0  0
    8.9183  -13.2754   26.9088 C   0  0  0  0  0  0  0  0  0  0  0  0
    9.7237  -13.2228   28.0531 C   0  0  0  0  0  0  0  0  0  0  0  0
   10.4599  -15.8962   24.2525 N   0  0  0  0  0  0  0  0  0  0  0  0
   11.1785  -17.1813   24.2216 C   0  0  1  0  0  0  0  0  0  0  0  0
   12.4034  -17.0794   23.3552 C   0  0  0  0  0  0  0  0  0  0  0  0
   12.2887  -17.9964   22.2248 C   0  0  0  0  0  0  0  0  0  0  0  0
   11.3649  -19.0179   22.0610 C   0  0  0  0  0  0  0  0  0  0  0  0
   11.5907  -19.6357   20.8902 N   0  0  0  0  0  0  0  0  0  0  0  0
   12.6339  -19.0211   20.3228 C   0  0  0  0  0  0  0  0  0  0  0  0
   13.0561  -18.0270   21.1336 N   0  0  0  0  0  0  0  0  0  0  0  0
   11.4530  -17.5553   25.6189 C   0  0  0  0  0  0  0  0  0  0  0  0
   11.5065  -18.8812   26.0095 O   0  0  0  0  0  0  0  0  0  0  0  0
   11.6433  -16.6715   26.4846 O   0  0  0  0  0  0  0  0  0  0  0  0
  2  1  1  6
  2  3  1  0
  4  3  1  0
  5  6  2  0
  5  4  1  0
  7  2  1  0
  8  7  2  0
  9  5  1  0
 10 11  1  0
 11 12  2  0
 12 13  1  0
 14 15  1  0
 14 13  2  0
 16 15  1  1
 16 17  1  0
 17  7  1  0
 18 16  1  0
 19 18  2  0
 20 14  1  0
 21 20  2  0
 21 11  1  0
 22 18  1  0
 23 22  1  0
 23 24  1  6
 24 25  1  0
 25 29  1  0
 26 25  2  0
 26 27  1  0
 27 28  1  0
 29 28  2  0
 30 31  1  0
 30 23  1  0
 32 30  2  0
M  END
$$$$
