EYH.pdb
     RDKit          3D

 32 33  0  0  1  0  0  0  0  0999 V2000
    9.1241  -19.0226   20.3192 N   0  0  0  0  0  0  0  0  0  0  0  0
   10.1735  -18.2154   19.7285 C   0  0  1  0  0  0  0  0  0  0  0  0
    9.7568  -17.8819   18.3160 C   0  0  0  0  0  0  0  0  0  0  0  0
   10.7973  -18.4730   17.3832 C   0  0  0  0  0  0  0  0  0  0  0  0
   10.7932  -17.8458   16.0499 C   0  0  0  0  0  0  0  0  0  0  0  0
    9.9574  -18.2908   15.2000 O   0  0  0  0  0  0  0  0  0  0  0  0
   10.3626  -17.0047   20.5625 C   0  0  0  0  0  0  0  0  0  0  0  0
   11.2824  -16.2089   20.3290 O   0  0  0  0  0  0  0  0  0  0  0  0
   11.6255  -16.8142   15.6549 O   0  0  0  0  0  0  0  0  0  0  0  0
    6.8630  -12.5346   17.4495 O   0  0  0  0  0  0  0  0  0  0  0  0
    7.2581  -13.0377   18.6910 C   0  0  0  0  0  0  0  0  0  0  0  0
    8.2864  -12.4818   19.4304 C   0  0  0  0  0  0  0  0  0  0  0  0
    8.6567  -12.9935   20.6477 C   0  0  0  0  0  0  0  0  0  0  0  0
    8.0223  -14.0710   21.1733 C   0  0  0  0  0  0  0  0  0  0  0  0
    8.3731  -14.6796   22.4955 C   0  0  0  0  0  0  0  0  0  0  0  0
    9.5927  -15.5396   22.4612 C   0  0  2  0  0  0  0  0  0  0  0  0
    9.5148  -16.7035   21.6496 N   0  0  0  0  0  0  0  0  0  0  0  0
    9.8541  -15.9550   23.8601 C   0  0  0  0  0  0  0  0  0  0  0  0
    9.0479  -16.7303   24.4245 O   0  0  0  0  0  0  0  0  0  0  0  0
    6.9920  -14.6413   20.4502 C   0  0  0  0  0  0  0  0  0  0  0  0
    6.6009  -14.1319   19.2058 C   0  0  0  0  0  0  0  0  0  0  0  0
   10.9731  -15.5232   24.6065 N   0  0  0  0  0  0  0  0  0  0  0  0
   11.0359  -15.6077   26.0755 C   0  0  1  0  0  0  0  0  0  0  0  0
    9.8016  -15.0083   26.6910 C   0  0  0  0  0  0  0  0  0  0  0  0
    9.9333  -14.9866   28.1449 C   0  0  0  0  0  0  0  0  0  0  0  0
   10.4179  -13.9509   28.9300 C   0  0  0  0  0  0  0  0  0  0  0  0
   10.3821  -14.3196   30.2209 N   0  0  0  0  0  0  0  0  0  0  0  0
    9.8862  -15.5609   30.2555 C   0  0  0  0  0  0  0  0  0  0  0  0
    9.6145  -15.9640   28.9955 N   0  0  0  0  0  0  0  0  0  0  0  0
   11.2581  -17.0226   26.4166 C   0  0  0  0  0  0  0  0  0  0  0  0
   12.1611  -17.3909   27.3977 O   0  0  0  0  0  0  0  0  0  0  0  0
   10.6285  -17.9240   25.8184 O   0  0  0  0  0  0  0  0  0  0  0  0
  2  1  1  1
  2  3  1  0
  4  3  1  0
  5  6  2  0
  5  4  1  0
  7  2  1  0
  8  7  2  0
  9  5  1  0
 10 11  1  0
 11 12  2  0
 12 13  1  0
 14 15  1  0
 14 13  2  0
 16 15  1  1
 16 17  1  0
 17  7  1  0
 18 16  1  0
 19 18  2  0
 20 14  1  0
 21 20  2  0
 21 11  1  0
 22 18  1  0
 23 22  1  0
 23 24  1  1
 24 25  1  0
 25 29  1  0
 26 25  2  0
 26 27  1  0
 27 28  1  0
 29 28  2  0
 30 31  1  0
 30 23  1  0
 32 30  2  0
M  END
$$$$
