EYH.pdb
     RDKit          3D

 32 33  0  0  1  0  0  0  0  0999 V2000
    9.8293  -16.6070   18.1350 N   0  0  0  0  0  0  0  0  0  0  0  0
    9.8310  -17.3546   19.3772 C   0  0  1  0  0  0  0  0  0  0  0  0
   11.0644  -18.2258   19.3876 C   0  0  0  0  0  0  0  0  0  0  0  0
   10.9212  -19.2306   18.2598 C   0  0  0  0  0  0  0  0  0  0  0  0
   11.2985  -20.5976   18.6595 C   0  0  0  0  0  0  0  0  0  0  0  0
   11.7192  -20.7609   19.8492 O   0  0  0  0  0  0  0  0  0  0  0  0
    9.8085  -16.3936   20.5055 C   0  0  0  0  0  0  0  0  0  0  0  0
   10.7517  -15.6138   20.6956 O   0  0  0  0  0  0  0  0  0  0  0  0
   11.2297  -21.7115   17.8426 O   0  0  0  0  0  0  0  0  0  0  0  0
    6.9354  -11.7554   27.5410 O   0  0  0  0  0  0  0  0  0  0  0  0
    7.0320  -12.5105   26.3702 C   0  0  0  0  0  0  0  0  0  0  0  0
    7.6755  -12.0513   25.2351 C   0  0  0  0  0  0  0  0  0  0  0  0
    7.7577  -12.8112   24.0964 C   0  0  0  0  0  0  0  0  0  0  0  0
    7.2066  -14.0494   24.0432 C   0  0  0  0  0  0  0  0  0  0  0  0
    7.2602  -14.9325   22.8353 C   0  0  0  0  0  0  0  0  0  0  0  0
    8.6284  -15.4357   22.5140 C   0  0  2  0  0  0  0  0  0  0  0  0
    8.7251  -16.3212   21.4068 N   0  0  0  0  0  0  0  0  0  0  0  0
    9.1135  -16.1385   23.7257 C   0  0  0  0  0  0  0  0  0  0  0  0
    8.3452  -16.9328   24.3161 O   0  0  0  0  0  0  0  0  0  0  0  0
    6.5591  -14.5267   25.1668 C   0  0  0  0  0  0  0  0  0  0  0  0
    6.4657  -13.7644   26.3378 C   0  0  0  0  0  0  0  0  0  0  0  0
   10.4083  -15.9645   24.2634 N   0  0  0  0  0  0  0  0  0  0  0  0
   10.6736  -15.9170   25.7112 C   0  0  1  0  0  0  0  0  0  0  0  0
    9.7781  -14.9097   26.3783 C   0  0  0  0  0  0  0  0  0  0  0  0
   10.0889  -14.8370   27.8030 C   0  0  0  0  0  0  0  0  0  0  0  0
   10.7946  -13.8399   28.4600 C   0  0  0  0  0  0  0  0  0  0  0  0
   10.8705  -14.1388   29.7670 N   0  0  0  0  0  0  0  0  0  0  0  0
   10.2279  -15.2990   29.9370 C   0  0  0  0  0  0  0  0  0  0  0  0
    9.7544  -15.7211   28.7448 N   0  0  0  0  0  0  0  0  0  0  0  0
   10.5276  -17.2904   26.2214 C   0  0  0  0  0  0  0  0  0  0  0  0
   11.5475  -17.9072   26.9235 O   0  0  0  0  0  0  0  0  0  0  0  0
    9.4689  -17.9288   26.0255 O   0  0  0  0  0  0  0  0  0  0  0  0
  2  1  1  6
  2  3  1  0
  4  3  1  0
  5  6  2  0
  5  4  1  0
  7  2  1  0
  8  7  2  0
  9  5  1  0
 10 11  1  0
 11 12  2  0
 12 13  1  0
 14 15  1  0
 14 13  2  0
 16 15  1  1
 16 17  1  0
 17  7  1  0
 18 16  1  0
 19 18  2  0
 20 14  1  0
 21 20  2  0
 21 11  1  0
 22 18  1  0
 23 22  1  0
 23 24  1  1
 24 25  1  0
 25 29  1  0
 26 25  2  0
 26 27  1  0
 27 28  1  0
 29 28  2  0
 30 31  1  0
 30 23  1  0
 32 30  2  0
M  END
$$$$
