EYH.pdb
     RDKit          3D

 32 33  0  0  1  0  0  0  0  0999 V2000
    9.3509  -16.5344   18.6079 N   0  0  0  0  0  0  0  0  0  0  0  0
    8.1481  -16.5593   19.4169 C   0  0  1  0  0  0  0  0  0  0  0  0
    7.6683  -17.9896   19.4831 C   0  0  0  0  0  0  0  0  0  0  0  0
    8.8941  -18.8829   19.4457 C   0  0  0  0  0  0  0  0  0  0  0  0
    8.5587  -20.3171   19.4841 C   0  0  0  0  0  0  0  0  0  0  0  0
    7.6782  -20.7311   18.6642 O   0  0  0  0  0  0  0  0  0  0  0  0
    8.4688  -16.0085   20.7551 C   0  0  0  0  0  0  0  0  0  0  0  0
    9.6225  -16.0568   21.2029 O   0  0  0  0  0  0  0  0  0  0  0  0
    9.1269  -21.2430   20.3404 O   0  0  0  0  0  0  0  0  0  0  0  0
    7.8193  -11.3740   28.2763 O   0  0  0  0  0  0  0  0  0  0  0  0
    7.4938  -12.0832   27.1181 C   0  0  0  0  0  0  0  0  0  0  0  0
    6.9089  -13.3363   27.1480 C   0  0  0  0  0  0  0  0  0  0  0  0
    6.5980  -14.0138   25.9969 C   0  0  0  0  0  0  0  0  0  0  0  0
    6.8553  -13.4745   24.7792 C   0  0  0  0  0  0  0  0  0  0  0  0
    6.5411  -14.1568   23.4841 C   0  0  0  0  0  0  0  0  0  0  0  0
    7.7282  -14.7733   22.8215 C   0  0  2  0  0  0  0  0  0  0  0  0
    7.4878  -15.4096   21.5738 N   0  0  0  0  0  0  0  0  0  0  0  0
    8.2645  -15.7786   23.7698 C   0  0  0  0  0  0  0  0  0  0  0  0
    7.5646  -16.7774   24.0567 O   0  0  0  0  0  0  0  0  0  0  0  0
    7.4395  -12.2232   24.7276 C   0  0  0  0  0  0  0  0  0  0  0  0
    7.7635  -11.5174   25.8929 C   0  0  0  0  0  0  0  0  0  0  0  0
    9.5352  -15.6774   24.3789 N   0  0  0  0  0  0  0  0  0  0  0  0
   10.0394  -16.6661   25.3469 C   0  0  1  0  0  0  0  0  0  0  0  0
   11.5276  -16.8303   25.2057 C   0  0  0  0  0  0  0  0  0  0  0  0
   11.8275  -17.6367   24.0261 C   0  0  0  0  0  0  0  0  0  0  0  0
   10.9360  -18.3794   23.2662 C   0  0  0  0  0  0  0  0  0  0  0  0
   11.6007  -18.9823   22.2672 N   0  0  0  0  0  0  0  0  0  0  0  0
   12.8851  -18.6309   22.3891 C   0  0  0  0  0  0  0  0  0  0  0  0
   13.0210  -17.8147   23.4564 N   0  0  0  0  0  0  0  0  0  0  0  0
    9.6016  -16.2246   26.6815 C   0  0  0  0  0  0  0  0  0  0  0  0
    9.6329  -17.0816   27.7669 O   0  0  0  0  0  0  0  0  0  0  0  0
    9.1892  -15.0559   26.8575 O   0  0  0  0  0  0  0  0  0  0  0  0
  2  1  1  6
  2  3  1  0
  4  3  1  0
  5  6  2  0
  5  4  1  0
  7  2  1  0
  8  7  2  0
  9  5  1  0
 10 11  1  0
 11 12  2  0
 12 13  1  0
 14 15  1  0
 14 13  2  0
 16 15  1  1
 16 17  1  0
 17  7  1  0
 18 16  1  0
 19 18  2  0
 20 14  1  0
 21 20  2  0
 21 11  1  0
 22 18  1  0
 23 22  1  0
 23 24  1  1
 24 25  1  0
 25 29  1  0
 26 25  2  0
 26 27  1  0
 27 28  1  0
 29 28  2  0
 30 31  1  0
 30 23  1  0
 32 30  2  0
M  END
$$$$
