EYH.pdb
     RDKit          3D

 32 33  0  0  1  0  0  0  0  0999 V2000
   10.3631  -16.9098   19.6823 N   0  0  0  0  0  0  0  0  0  0  0  0
   10.6976  -17.4962   20.9652 C   0  0  1  0  0  0  0  0  0  0  0  0
   12.1705  -17.8282   20.9489 C   0  0  0  0  0  0  0  0  0  0  0  0
   12.3718  -18.9553   19.9533 C   0  0  0  0  0  0  0  0  0  0  0  0
   13.7638  -19.4358   19.9060 C   0  0  0  0  0  0  0  0  0  0  0  0
   14.3452  -19.4249   18.7743 O   0  0  0  0  0  0  0  0  0  0  0  0
   10.3486  -16.5274   22.0314 C   0  0  0  0  0  0  0  0  0  0  0  0
   11.1679  -15.6818   22.4153 O   0  0  0  0  0  0  0  0  0  0  0  0
   14.4829  -19.8952   20.9946 O   0  0  0  0  0  0  0  0  0  0  0  0
    7.8378  -12.4236   18.1089 O   0  0  0  0  0  0  0  0  0  0  0  0
    7.7233  -13.0197   19.3666 C   0  0  0  0  0  0  0  0  0  0  0  0
    6.9041  -14.1082   19.6067 C   0  0  0  0  0  0  0  0  0  0  0  0
    6.8080  -14.6769   20.8508 C   0  0  0  0  0  0  0  0  0  0  0  0
    7.5186  -14.1882   21.8977 C   0  0  0  0  0  0  0  0  0  0  0  0
    7.4630  -14.7603   23.2802 C   0  0  0  0  0  0  0  0  0  0  0  0
    8.6488  -15.5932   23.6384 C   0  0  2  0  0  0  0  0  0  0  0  0
    9.0819  -16.5214   22.6533 N   0  0  0  0  0  0  0  0  0  0  0  0
    8.2825  -16.3414   24.8647 C   0  0  0  0  0  0  0  0  0  0  0  0
    7.6819  -15.7413   25.7860 O   0  0  0  0  0  0  0  0  0  0  0  0
    8.3429  -13.1010   21.6788 C   0  0  0  0  0  0  0  0  0  0  0  0
    8.4532  -12.5078   20.4151 C   0  0  0  0  0  0  0  0  0  0  0  0
    8.5739  -17.7098   25.0606 N   0  0  0  0  0  0  0  0  0  0  0  0
    8.2884  -18.4160   26.3211 C   0  0  1  0  0  0  0  0  0  0  0  0
    8.1207  -19.8897   26.0731 C   0  0  0  0  0  0  0  0  0  0  0  0
    7.0453  -20.1111   25.1108 C   0  0  0  0  0  0  0  0  0  0  0  0
    6.8467  -19.4539   23.9056 C   0  0  0  0  0  0  0  0  0  0  0  0
    5.7454  -19.9414   23.3115 N   0  0  0  0  0  0  0  0  0  0  0  0
    5.2553  -20.8867   24.1203 C   0  0  0  0  0  0  0  0  0  0  0  0
    6.0449  -20.9885   25.2111 N   0  0  0  0  0  0  0  0  0  0  0  0
    9.3716  -18.0780   27.2593 C   0  0  0  0  0  0  0  0  0  0  0  0
    9.1852  -18.1537   28.6279 O   0  0  0  0  0  0  0  0  0  0  0  0
   10.4892  -17.7123   26.8301 O   0  0  0  0  0  0  0  0  0  0  0  0
  2  1  1  6
  2  3  1  0
  4  3  1  0
  5  6  2  0
  5  4  1  0
  7  2  1  0
  8  7  2  0
  9  5  1  0
 10 11  1  0
 11 12  2  0
 12 13  1  0
 14 15  1  0
 14 13  2  0
 16 15  1  6
 16 17  1  0
 17  7  1  0
 18 16  1  0
 19 18  2  0
 20 14  1  0
 21 20  2  0
 21 11  1  0
 22 18  1  0
 23 22  1  0
 23 24  1  6
 24 25  1  0
 25 29  1  0
 26 25  2  0
 26 27  1  0
 27 28  1  0
 29 28  2  0
 30 31  1  0
 30 23  1  0
 32 30  2  0
M  END
$$$$
