EYH.pdb
     RDKit          3D

 32 33  0  0  1  0  0  0  0  0999 V2000
    9.4909  -16.9375   17.0768 N   0  0  0  0  0  0  0  0  0  0  0  0
    9.7770  -17.8891   18.1325 C   0  0  1  0  0  0  0  0  0  0  0  0
   10.8067  -18.8613   17.6083 C   0  0  0  0  0  0  0  0  0  0  0  0
   10.1632  -19.6384   16.4751 C   0  0  0  0  0  0  0  0  0  0  0  0
   10.8423  -20.9166   16.1995 C   0  0  0  0  0  0  0  0  0  0  0  0
   11.1969  -21.6153   17.2021 O   0  0  0  0  0  0  0  0  0  0  0  0
   10.2567  -17.1443   19.3209 C   0  0  0  0  0  0  0  0  0  0  0  0
   11.2297  -16.3819   19.2436 O   0  0  0  0  0  0  0  0  0  0  0  0
   11.1214  -21.4120   14.9387 O   0  0  0  0  0  0  0  0  0  0  0  0
    7.0418  -11.7699   18.4653 O   0  0  0  0  0  0  0  0  0  0  0  0
    7.4459  -12.7321   19.3934 C   0  0  0  0  0  0  0  0  0  0  0  0
    6.6010  -13.7235   19.8587 C   0  0  0  0  0  0  0  0  0  0  0  0
    7.0205  -14.6580   20.7706 C   0  0  0  0  0  0  0  0  0  0  0  0
    8.2886  -14.6426   21.2517 C   0  0  0  0  0  0  0  0  0  0  0  0
    8.8131  -15.6316   22.2459 C   0  0  0  0  0  0  0  0  0  0  0  0
    9.9289  -16.4769   21.7275 C   0  0  2  0  0  0  0  0  0  0  0  0
    9.6360  -17.2659   20.5824 N   0  0  0  0  0  0  0  0  0  0  0  0
   10.3229  -17.3794   22.8356 C   0  0  0  0  0  0  0  0  0  0  0  0
    9.4954  -18.2198   23.2584 O   0  0  0  0  0  0  0  0  0  0  0  0
    9.1485  -13.6600   20.7994 C   0  0  0  0  0  0  0  0  0  0  0  0
    8.7370  -12.6981   19.8686 C   0  0  0  0  0  0  0  0  0  0  0  0
   11.5932  -17.3488   23.4532 N   0  0  0  0  0  0  0  0  0  0  0  0
   11.9724  -18.2579   24.5480 C   0  0  1  0  0  0  0  0  0  0  0  0
   13.4653  -18.4331   24.5942 C   0  0  0  0  0  0  0  0  0  0  0  0
   13.9331  -19.0300   23.3466 C   0  0  0  0  0  0  0  0  0  0  0  0
   13.3341  -18.9474   22.0983 C   0  0  0  0  0  0  0  0  0  0  0  0
   14.0691  -19.6334   21.2080 N   0  0  0  0  0  0  0  0  0  0  0  0
   15.1113  -20.1404   21.8749 C   0  0  0  0  0  0  0  0  0  0  0  0
   15.0273  -19.7734   23.1719 N   0  0  0  0  0  0  0  0  0  0  0  0
   11.3871  -17.7119   25.7838 C   0  0  0  0  0  0  0  0  0  0  0  0
   11.4910  -18.3875   26.9864 O   0  0  0  0  0  0  0  0  0  0  0  0
   10.7794  -16.6177   25.7662 O   0  0  0  0  0  0  0  0  0  0  0  0
  2  1  1  6
  2  3  1  0
  4  3  1  0
  5  6  2  0
  5  4  1  0
  7  2  1  0
  8  7  2  0
  9  5  1  0
 10 11  1  0
 11 12  2  0
 12 13  1  0
 14 15  1  0
 14 13  2  0
 16 15  1  1
 16 17  1  0
 17  7  1  0
 18 16  1  0
 19 18  2  0
 20 14  1  0
 21 20  2  0
 21 11  1  0
 22 18  1  0
 23 22  1  0
 23 24  1  1
 24 25  1  0
 25 29  1  0
 26 25  2  0
 26 27  1  0
 27 28  1  0
 29 28  2  0
 30 31  1  0
 30 23  1  0
 32 30  2  0
M  END
$$$$
