EYH.pdb
     RDKit          3D

 32 33  0  0  1  0  0  0  0  0999 V2000
    9.8752  -17.6139   19.6144 N   0  0  0  0  0  0  0  0  0  0  0  0
    9.5055  -18.2253   20.8759 C   0  0  1  0  0  0  0  0  0  0  0  0
   10.5110  -19.3122   21.1720 C   0  0  0  0  0  0  0  0  0  0  0  0
   10.0616  -20.0146   22.4396 C   0  0  0  0  0  0  0  0  0  0  0  0
   10.9487  -21.1268   22.8231 C   0  0  0  0  0  0  0  0  0  0  0  0
   10.6200  -22.2934   22.4359 O   0  0  0  0  0  0  0  0  0  0  0  0
    9.4854  -17.1743   21.9209 C   0  0  0  0  0  0  0  0  0  0  0  0
   10.4585  -16.4271   22.0902 O   0  0  0  0  0  0  0  0  0  0  0  0
   12.1066  -20.9984   23.5686 O   0  0  0  0  0  0  0  0  0  0  0  0
    8.2339  -12.2694   18.3736 O   0  0  0  0  0  0  0  0  0  0  0  0
    7.9571  -12.9311   19.5719 C   0  0  0  0  0  0  0  0  0  0  0  0
    7.1213  -14.0310   19.6431 C   0  0  0  0  0  0  0  0  0  0  0  0
    6.8643  -14.6647   20.8319 C   0  0  0  0  0  0  0  0  0  0  0  0
    7.4251  -14.2316   21.9885 C   0  0  0  0  0  0  0  0  0  0  0  0
    7.1897  -14.8758   23.3193 C   0  0  0  0  0  0  0  0  0  0  0  0
    8.2089  -15.9044   23.6822 C   0  0  2  0  0  0  0  0  0  0  0  0
    8.3707  -16.9762   22.7632 N   0  0  0  0  0  0  0  0  0  0  0  0
    7.7954  -16.4625   24.9919 C   0  0  0  0  0  0  0  0  0  0  0  0
    6.6649  -16.9922   25.0971 O   0  0  0  0  0  0  0  0  0  0  0  0
    8.2632  -13.1340   21.9388 C   0  0  0  0  0  0  0  0  0  0  0  0
    8.5366  -12.4749   20.7339 C   0  0  0  0  0  0  0  0  0  0  0  0
    8.6104  -16.4329   26.1455 N   0  0  0  0  0  0  0  0  0  0  0  0
    8.9217  -17.6357   26.9362 C   0  0  1  0  0  0  0  0  0  0  0  0
    9.4109  -18.7418   26.0425 C   0  0  0  0  0  0  0  0  0  0  0  0
    8.3486  -19.7230   25.8413 C   0  0  0  0  0  0  0  0  0  0  0  0
    7.0788  -19.7140   26.3993 C   0  0  0  0  0  0  0  0  0  0  0  0
    6.3995  -20.7906   25.9717 N   0  0  0  0  0  0  0  0  0  0  0  0
    7.2185  -21.4684   25.1606 C   0  0  0  0  0  0  0  0  0  0  0  0
    8.4003  -20.8194   25.0825 N   0  0  0  0  0  0  0  0  0  0  0  0
    9.8786  -17.2302   27.9791 C   0  0  0  0  0  0  0  0  0  0  0  0
    9.7705  -17.7022   29.2748 O   0  0  0  0  0  0  0  0  0  0  0  0
   10.8139  -16.4436   27.7081 O   0  0  0  0  0  0  0  0  0  0  0  0
  2  1  1  6
  2  3  1  0
  4  3  1  0
  5  6  2  0
  5  4  1  0
  7  2  1  0
  8  7  2  0
  9  5  1  0
 10 11  1  0
 11 12  2  0
 12 13  1  0
 14 15  1  0
 14 13  2  0
 16 15  1  6
 16 17  1  0
 17  7  1  0
 18 16  1  0
 19 18  2  0
 20 14  1  0
 21 20  2  0
 21 11  1  0
 22 18  1  0
 23 22  1  0
 23 24  1  6
 24 25  1  0
 25 29  1  0
 26 25  2  0
 26 27  1  0
 27 28  1  0
 29 28  2  0
 30 31  1  0
 30 23  1  0
 32 30  2  0
M  END
$$$$
