EYH.pdb
     RDKit          3D

 32 33  0  0  1  0  0  0  0  0999 V2000
    9.5678  -18.4332   21.0247 N   0  0  0  0  0  0  0  0  0  0  0  0
   10.6907  -17.5226   21.1322 C   0  0  1  0  0  0  0  0  0  0  0  0
   11.0304  -17.0454   19.7405 C   0  0  0  0  0  0  0  0  0  0  0  0
   11.6369  -18.2181   18.9928 C   0  0  0  0  0  0  0  0  0  0  0  0
   12.3738  -17.8075   17.7847 C   0  0  0  0  0  0  0  0  0  0  0  0
   13.5679  -17.3976   17.9427 O   0  0  0  0  0  0  0  0  0  0  0  0
   10.3102  -16.4095   22.0340 C   0  0  0  0  0  0  0  0  0  0  0  0
   11.1304  -15.5359   22.3472 O   0  0  0  0  0  0  0  0  0  0  0  0
   11.8674  -17.8345   16.4979 O   0  0  0  0  0  0  0  0  0  0  0  0
    7.7134  -13.0995   17.3199 O   0  0  0  0  0  0  0  0  0  0  0  0
    7.6383  -13.4119   18.6790 C   0  0  0  0  0  0  0  0  0  0  0  0
    8.1613  -12.5941   19.6645 C   0  0  0  0  0  0  0  0  0  0  0  0
    8.0755  -12.9220   20.9933 C   0  0  0  0  0  0  0  0  0  0  0  0
    7.4699  -14.0687   21.3908 C   0  0  0  0  0  0  0  0  0  0  0  0
    7.3393  -14.4874   22.8224 C   0  0  0  0  0  0  0  0  0  0  0  0
    8.5354  -15.2048   23.3544 C   0  0  2  0  0  0  0  0  0  0  0  0
    9.0114  -16.2922   22.5731 N   0  0  0  0  0  0  0  0  0  0  0  0
    8.1588  -15.7143   24.6946 C   0  0  0  0  0  0  0  0  0  0  0  0
    7.0486  -15.3917   25.1775 O   0  0  0  0  0  0  0  0  0  0  0  0
    6.9408  -14.8997   20.4217 C   0  0  0  0  0  0  0  0  0  0  0  0
    7.0196  -14.5806   19.0605 C   0  0  0  0  0  0  0  0  0  0  0  0
    8.9877  -16.5537   25.4720 N   0  0  0  0  0  0  0  0  0  0  0  0
    8.5920  -17.0656   26.7949 C   0  0  1  0  0  0  0  0  0  0  0  0
    7.2413  -17.7229   26.7232 C   0  0  0  0  0  0  0  0  0  0  0  0
    7.3377  -18.9734   25.9757 C   0  0  0  0  0  0  0  0  0  0  0  0
    8.4467  -19.4702   25.3071 C   0  0  0  0  0  0  0  0  0  0  0  0
    8.1321  -20.6463   24.7404 N   0  0  0  0  0  0  0  0  0  0  0  0
    6.8527  -20.8916   25.0419 C   0  0  0  0  0  0  0  0  0  0  0  0
    6.3723  -19.8759   25.7912 N   0  0  0  0  0  0  0  0  0  0  0  0
    9.6741  -17.9515   27.2555 C   0  0  0  0  0  0  0  0  0  0  0  0
    9.6931  -18.4501   28.5456 O   0  0  0  0  0  0  0  0  0  0  0  0
   10.6039  -18.2702   26.4803 O   0  0  0  0  0  0  0  0  0  0  0  0
  2  1  1  6
  2  3  1  0
  4  3  1  0
  5  6  2  0
  5  4  1  0
  7  2  1  0
  8  7  2  0
  9  5  1  0
 10 11  1  0
 11 12  2  0
 12 13  1  0
 14 15  1  0
 14 13  2  0
 16 15  1  6
 16 17  1  0
 17  7  1  0
 18 16  1  0
 19 18  2  0
 20 14  1  0
 21 20  2  0
 21 11  1  0
 22 18  1  0
 23 22  1  0
 23 24  1  6
 24 25  1  0
 25 29  1  0
 26 25  2  0
 26 27  1  0
 27 28  1  0
 29 28  2  0
 30 31  1  0
 30 23  1  0
 32 30  2  0
M  END
$$$$
