EYH.pdb
     RDKit          3D

 32 33  0  0  1  0  0  0  0  0999 V2000
    9.1341  -18.5811   18.9964 N   0  0  0  0  0  0  0  0  0  0  0  0
    8.1923  -18.5697   20.0985 C   0  0  1  0  0  0  0  0  0  0  0  0
    7.9707  -20.0001   20.5285 C   0  0  0  0  0  0  0  0  0  0  0  0
    7.3232  -20.7294   19.3662 C   0  0  0  0  0  0  0  0  0  0  0  0
    5.8604  -20.8403   19.5032 C   0  0  0  0  0  0  0  0  0  0  0  0
    5.1479  -20.2668   18.6187 O   0  0  0  0  0  0  0  0  0  0  0  0
    8.7508  -17.7327   21.1869 C   0  0  0  0  0  0  0  0  0  0  0  0
    9.9675  -17.7181   21.4175 O   0  0  0  0  0  0  0  0  0  0  0  0
    5.2067  -21.5182   20.5163 O   0  0  0  0  0  0  0  0  0  0  0  0
    8.3476  -11.6003   18.4056 O   0  0  0  0  0  0  0  0  0  0  0  0
    8.1610  -12.3715   19.5549 C   0  0  0  0  0  0  0  0  0  0  0  0
    6.9411  -12.9305   19.8906 C   0  0  0  0  0  0  0  0  0  0  0  0
    6.7820  -13.6846   21.0250 C   0  0  0  0  0  0  0  0  0  0  0  0
    7.8236  -13.9103   21.8640 C   0  0  0  0  0  0  0  0  0  0  0  0
    7.7214  -14.7240   23.1166 C   0  0  0  0  0  0  0  0  0  0  0  0
    8.3932  -16.0542   23.0306 C   0  0  2  0  0  0  0  0  0  0  0  0
    7.9338  -16.9218   22.0032 N   0  0  0  0  0  0  0  0  0  0  0  0
    8.1823  -16.7175   24.3395 C   0  0  0  0  0  0  0  0  0  0  0  0
    7.0262  -16.7587   24.8205 O   0  0  0  0  0  0  0  0  0  0  0  0
    9.0510  -13.3605   21.5466 C   0  0  0  0  0  0  0  0  0  0  0  0
    9.2313  -12.5881   20.3925 C   0  0  0  0  0  0  0  0  0  0  0  0
    9.2207  -17.3146   25.0885 N   0  0  0  0  0  0  0  0  0  0  0  0
    9.0021  -17.9343   26.4065 C   0  0  1  0  0  0  0  0  0  0  0  0
    9.0346  -19.4337   26.2957 C   0  0  0  0  0  0  0  0  0  0  0  0
    7.7574  -19.9205   25.7824 C   0  0  0  0  0  0  0  0  0  0  0  0
    6.6215  -19.1733   25.5079 C   0  0  0  0  0  0  0  0  0  0  0  0
    5.6546  -19.9876   25.0545 N   0  0  0  0  0  0  0  0  0  0  0  0
    6.1641  -21.2238   25.0409 C   0  0  0  0  0  0  0  0  0  0  0  0
    7.4396  -21.1814   25.4827 N   0  0  0  0  0  0  0  0  0  0  0  0
   10.0103  -17.3714   27.3199 C   0  0  0  0  0  0  0  0  0  0  0  0
    9.9659  -17.6216   28.6796 O   0  0  0  0  0  0  0  0  0  0  0  0
   10.9323  -16.6497   26.8771 O   0  0  0  0  0  0  0  0  0  0  0  0
  2  1  1  6
  2  3  1  0
  4  3  1  0
  5  6  2  0
  5  4  1  0
  7  2  1  0
  8  7  2  0
  9  5  1  0
 10 11  1  0
 11 12  2  0
 12 13  1  0
 14 15  1  0
 14 13  2  0
 16 15  1  1
 16 17  1  0
 17  7  1  0
 18 16  1  0
 19 18  2  0
 20 14  1  0
 21 20  2  0
 21 11  1  0
 22 18  1  0
 23 22  1  0
 23 24  1  6
 24 25  1  0
 25 29  1  0
 26 25  2  0
 26 27  1  0
 27 28  1  0
 29 28  2  0
 30 31  1  0
 30 23  1  0
 32 30  2  0
M  END
$$$$
