EYH.pdb
     RDKit          3D

 32 33  0  0  1  0  0  0  0  0999 V2000
   10.5045  -17.3860   16.6474 N   0  0  0  0  0  0  0  0  0  0  0  0
   10.2904  -18.0359   17.9255 C   0  0  1  0  0  0  0  0  0  0  0  0
   11.0263  -19.3542   17.8998 C   0  0  0  0  0  0  0  0  0  0  0  0
   12.3770  -19.1087   17.2537 C   0  0  0  0  0  0  0  0  0  0  0  0
   13.2602  -20.2868   17.3079 C   0  0  0  0  0  0  0  0  0  0  0  0
   13.0495  -21.2118   16.4599 O   0  0  0  0  0  0  0  0  0  0  0  0
   10.7783  -17.1374   18.9987 C   0  0  0  0  0  0  0  0  0  0  0  0
   11.6971  -16.3343   18.7870 O   0  0  0  0  0  0  0  0  0  0  0  0
   14.2967  -20.4618   18.2069 O   0  0  0  0  0  0  0  0  0  0  0  0
    6.6988  -11.8837   18.4270 O   0  0  0  0  0  0  0  0  0  0  0  0
    7.3803  -12.7581   19.2763 C   0  0  0  0  0  0  0  0  0  0  0  0
    8.7520  -12.7156   19.4493 C   0  0  0  0  0  0  0  0  0  0  0  0
    9.3994  -13.5851   20.2892 C   0  0  0  0  0  0  0  0  0  0  0  0
    8.7118  -14.5245   20.9853 C   0  0  0  0  0  0  0  0  0  0  0  0
    9.3534  -15.5029   21.9194 C   0  0  0  0  0  0  0  0  0  0  0  0
   10.5211  -16.2239   21.3319 C   0  0  2  0  0  0  0  0  0  0  0  0
   10.2268  -17.1528   20.2975 N   0  0  0  0  0  0  0  0  0  0  0  0
   11.1725  -16.9497   22.4483 C   0  0  0  0  0  0  0  0  0  0  0  0
   10.7811  -18.1055   22.7322 O   0  0  0  0  0  0  0  0  0  0  0  0
    7.3404  -14.5836   20.8264 C   0  0  0  0  0  0  0  0  0  0  0  0
    6.6631  -13.7038   19.9731 C   0  0  0  0  0  0  0  0  0  0  0  0
   12.2231  -16.4095   23.2231 N   0  0  0  0  0  0  0  0  0  0  0  0
   12.8119  -17.1140   24.3746 C   0  0  1  0  0  0  0  0  0  0  0  0
   14.1876  -16.5832   24.6698 C   0  0  0  0  0  0  0  0  0  0  0  0
   15.1254  -17.0419   23.6491 C   0  0  0  0  0  0  0  0  0  0  0  0
   14.8946  -17.9837   22.6573 C   0  0  0  0  0  0  0  0  0  0  0  0
   16.0069  -18.1316   21.9195 N   0  0  0  0  0  0  0  0  0  0  0  0
   16.9236  -17.3030   22.4304 C   0  0  0  0  0  0  0  0  0  0  0  0
   16.3874  -16.6428   23.4794 N   0  0  0  0  0  0  0  0  0  0  0  0
   11.8600  -16.9865   25.4905 C   0  0  0  0  0  0  0  0  0  0  0  0
   12.0959  -17.5986   26.7084 O   0  0  0  0  0  0  0  0  0  0  0  0
   10.8114  -16.3166   25.3541 O   0  0  0  0  0  0  0  0  0  0  0  0
  2  1  1  6
  2  3  1  0
  4  3  1  0
  5  6  2  0
  5  4  1  0
  7  2  1  0
  8  7  2  0
  9  5  1  0
 10 11  1  0
 11 12  2  0
 12 13  1  0
 14 15  1  0
 14 13  2  0
 16 15  1  1
 16 17  1  0
 17  7  1  0
 18 16  1  0
 19 18  2  0
 20 14  1  0
 21 20  2  0
 21 11  1  0
 22 18  1  0
 23 22  1  0
 23 24  1  1
 24 25  1  0
 25 29  1  0
 26 25  2  0
 26 27  1  0
 27 28  1  0
 29 28  2  0
 30 31  1  0
 30 23  1  0
 32 30  2  0
M  END
$$$$
