EYH.pdb
     RDKit          3D

 32 33  0  0  1  0  0  0  0  0999 V2000
   11.5794  -17.0441   17.9358 N   0  0  0  0  0  0  0  0  0  0  0  0
   10.6682  -17.6011   18.9162 C   0  0  1  0  0  0  0  0  0  0  0  0
   11.0757  -19.0344   19.1604 C   0  0  0  0  0  0  0  0  0  0  0  0
   11.0443  -19.7504   17.8231 C   0  0  0  0  0  0  0  0  0  0  0  0
    9.9415  -20.7220   17.7196 C   0  0  0  0  0  0  0  0  0  0  0  0
    9.5745  -21.0635   16.5501 O   0  0  0  0  0  0  0  0  0  0  0  0
   10.7378  -16.7766   20.1460 C   0  0  0  0  0  0  0  0  0  0  0  0
   11.7095  -16.0403   20.3639 O   0  0  0  0  0  0  0  0  0  0  0  0
    9.2786  -21.2885   18.7933 O   0  0  0  0  0  0  0  0  0  0  0  0
    7.1938  -11.9884   17.8626 O   0  0  0  0  0  0  0  0  0  0  0  0
    7.5291  -12.7349   18.9943 C   0  0  0  0  0  0  0  0  0  0  0  0
    8.5322  -12.3577   19.8688 C   0  0  0  0  0  0  0  0  0  0  0  0
    8.8437  -13.1072   20.9743 C   0  0  0  0  0  0  0  0  0  0  0  0
    8.1735  -14.2536   21.2508 C   0  0  0  0  0  0  0  0  0  0  0  0
    8.4598  -15.1184   22.4390 C   0  0  0  0  0  0  0  0  0  0  0  0
    9.6688  -15.9799   22.2831 C   0  0  2  0  0  0  0  0  0  0  0  0
    9.7133  -16.7900   21.1163 N   0  0  0  0  0  0  0  0  0  0  0  0
    9.7131  -16.8622   23.4736 C   0  0  0  0  0  0  0  0  0  0  0  0
    8.6720  -17.4663   23.8214 O   0  0  0  0  0  0  0  0  0  0  0  0
    7.1677  -14.6480   20.3893 C   0  0  0  0  0  0  0  0  0  0  0  0
    6.8365  -13.8950   19.2561 C   0  0  0  0  0  0  0  0  0  0  0  0
   10.8747  -17.0660   24.2514 N   0  0  0  0  0  0  0  0  0  0  0  0
   10.8822  -17.8768   25.4808 C   0  0  1  0  0  0  0  0  0  0  0  0
   12.1783  -18.6285   25.6084 C   0  0  0  0  0  0  0  0  0  0  0  0
   12.3299  -19.5493   24.4855 C   0  0  0  0  0  0  0  0  0  0  0  0
   11.4140  -19.8009   23.4748 C   0  0  0  0  0  0  0  0  0  0  0  0
   11.9240  -20.7139   22.6323 N   0  0  0  0  0  0  0  0  0  0  0  0
   13.1360  -21.0352   23.0966 C   0  0  0  0  0  0  0  0  0  0  0  0
   13.3807  -20.3279   24.2208 N   0  0  0  0  0  0  0  0  0  0  0  0
   10.5972  -16.9642   26.6006 C   0  0  0  0  0  0  0  0  0  0  0  0
   10.4622  -15.6023   26.3997 O   0  0  0  0  0  0  0  0  0  0  0  0
   10.4722  -17.4098   27.7637 O   0  0  0  0  0  0  0  0  0  0  0  0
  2  1  1  6
  2  3  1  0
  4  3  1  0
  5  6  2  0
  5  4  1  0
  7  2  1  0
  8  7  2  0
  9  5  1  0
 10 11  1  0
 11 12  2  0
 12 13  1  0
 14 15  1  0
 14 13  2  0
 16 15  1  6
 16 17  1  0
 17  7  1  0
 18 16  1  0
 19 18  2  0
 20 14  1  0
 21 20  2  0
 21 11  1  0
 22 18  1  0
 23 22  1  0
 23 24  1  1
 24 25  1  0
 25 29  1  0
 26 25  2  0
 26 27  1  0
 27 28  1  0
 29 28  2  0
 30 31  1  0
 30 23  1  0
 32 30  2  0
M  END
$$$$
