EYH.pdb
     RDKit          3D

 32 33  0  0  1  0  0  0  0  0999 V2000
   10.8948  -17.1655   17.4091 N   0  0  0  0  0  0  0  0  0  0  0  0
   10.1400  -17.7260   18.5126 C   0  0  1  0  0  0  0  0  0  0  0  0
   10.5595  -19.1678   18.6712 C   0  0  0  0  0  0  0  0  0  0  0  0
   11.8257  -19.3652   17.8589 C   0  0  0  0  0  0  0  0  0  0  0  0
   12.5092  -20.6345   18.1632 C   0  0  0  0  0  0  0  0  0  0  0  0
   13.0417  -20.7476   19.3132 O   0  0  0  0  0  0  0  0  0  0  0  0
   10.4130  -16.9213   19.7271 C   0  0  0  0  0  0  0  0  0  0  0  0
   11.2563  -16.0143   19.7128 O   0  0  0  0  0  0  0  0  0  0  0  0
   12.6145  -21.7075   17.2968 O   0  0  0  0  0  0  0  0  0  0  0  0
    6.6028  -11.9928   18.5624 O   0  0  0  0  0  0  0  0  0  0  0  0
    7.0542  -12.9099   19.5140 C   0  0  0  0  0  0  0  0  0  0  0  0
    6.5532  -14.1956   19.6101 C   0  0  0  0  0  0  0  0  0  0  0  0
    7.0123  -15.0790   20.5532 C   0  0  0  0  0  0  0  0  0  0  0  0
    7.9814  -14.7200   21.4316 C   0  0  0  0  0  0  0  0  0  0  0  0
    8.5296  -15.6328   22.4842 C   0  0  0  0  0  0  0  0  0  0  0  0
    9.7993  -16.3135   22.0932 C   0  0  2  0  0  0  0  0  0  0  0  0
    9.7342  -17.1463   20.9436 N   0  0  0  0  0  0  0  0  0  0  0  0
   10.2081  -17.1403   23.2538 C   0  0  0  0  0  0  0  0  0  0  0  0
   10.1756  -16.6363   24.4004 O   0  0  0  0  0  0  0  0  0  0  0  0
    8.4952  -13.4397   21.3523 C   0  0  0  0  0  0  0  0  0  0  0  0
    8.0382  -12.5248   20.3957 C   0  0  0  0  0  0  0  0  0  0  0  0
   10.6386  -18.4813   23.1440 N   0  0  0  0  0  0  0  0  0  0  0  0
   12.0286  -18.8983   23.3951 C   0  0  1  0  0  0  0  0  0  0  0  0
   12.8913  -18.6042   22.1990 C   0  0  0  0  0  0  0  0  0  0  0  0
   14.2201  -19.1770   22.3935 C   0  0  0  0  0  0  0  0  0  0  0  0
   14.5398  -20.5123   22.5898 C   0  0  0  0  0  0  0  0  0  0  0  0
   15.8697  -20.6331   22.7315 N   0  0  0  0  0  0  0  0  0  0  0  0
   16.3837  -19.4030   22.6277 C   0  0  0  0  0  0  0  0  0  0  0  0
   15.3818  -18.5210   22.4226 N   0  0  0  0  0  0  0  0  0  0  0  0
   12.4615  -18.2313   24.6342 C   0  0  0  0  0  0  0  0  0  0  0  0
   12.5529  -18.9243   25.8279 O   0  0  0  0  0  0  0  0  0  0  0  0
   12.7557  -17.0146   24.6281 O   0  0  0  0  0  0  0  0  0  0  0  0
  2  1  1  6
  2  3  1  0
  4  3  1  0
  5  6  2  0
  5  4  1  0
  7  2  1  0
  8  7  2  0
  9  5  1  0
 10 11  1  0
 11 12  2  0
 12 13  1  0
 14 15  1  0
 14 13  2  0
 16 15  1  1
 16 17  1  0
 17  7  1  0
 18 16  1  0
 19 18  2  0
 20 14  1  0
 21 20  2  0
 21 11  1  0
 22 18  1  0
 23 22  1  0
 23 24  1  6
 24 25  1  0
 25 29  1  0
 26 25  2  0
 26 27  1  0
 27 28  1  0
 29 28  2  0
 30 31  1  0
 30 23  1  0
 32 30  2  0
M  END
$$$$
