EVI.pdb
     RDKit          3D

 25 24  0  0  1  0  0  0  0  0999 V2000
   25.0701  -17.5196  -16.3169 N   0  0  0  0  0  0  0  0  0  0  0  0
   26.1053  -17.4582  -15.2792 C   0  0  1  0  0  0  0  0  0  0  0  0
   25.8090  -16.2333  -14.4470 C   0  0  0  0  0  0  0  0  0  0  0  0
   25.6855  -14.9661  -15.2259 C   0  0  0  0  0  0  0  0  0  0  0  0
   26.6566  -14.9189  -16.3338 C   0  0  0  0  0  0  0  0  0  0  0  0
   27.8204  -15.3324  -16.2498 O   0  0  0  0  0  0  0  0  0  0  0  0
   25.9622  -18.6393  -14.3589 C   0  0  0  0  0  0  0  0  0  0  0  0
   24.8081  -19.1037  -14.2071 O   0  0  0  0  0  0  0  0  0  0  0  0
   26.2306  -14.3734  -17.5482 O   0  0  0  0  0  0  0  0  0  0  0  0
   28.0709  -21.6440  -14.8644 C   0  0  0  0  0  0  0  0  0  0  0  0
   28.0707  -21.4178  -13.3503 C   0  0  1  0  0  0  0  0  0  0  0  0
   29.4086  -20.9206  -12.8989 C   0  0  0  0  0  0  0  0  0  0  0  0
   26.9380  -20.4518  -12.9764 C   0  0  2  0  0  0  0  0  0  0  0  0
   27.0739  -19.2056  -13.6919 N   0  0  0  0  0  0  0  0  0  0  0  0
   27.0267  -20.2711  -11.5072 C   0  0  0  0  0  0  0  0  0  0  0  0
   28.1434  -20.0502  -10.9992 O   0  0  0  0  0  0  0  0  0  0  0  0
   28.2031  -18.9699   -6.7736 C   0  0  0  0  0  0  0  0  0  0  0  0
   27.7028  -20.0804   -7.6748 C   0  0  0  0  0  0  0  0  0  0  0  0
   26.3859  -19.6993   -8.3095 C   0  0  2  0  0  0  0  0  0  0  0  0
   25.3588  -19.4240   -7.2425 C   0  0  0  0  0  0  0  0  0  0  0  0
   25.9786  -20.7850   -9.2563 C   0  0  2  0  0  0  0  0  0  0  0  0
   25.9068  -20.3350  -10.6354 N   0  0  0  0  0  0  0  0  0  0  0  0
   24.6544  -21.3426   -8.8921 C   0  0  0  0  0  0  0  0  0  0  0  0
   24.5464  -21.9949   -7.6707 O   0  0  0  0  0  0  0  0  0  0  0  0
   23.6190  -21.2891   -9.5687 O   0  0  0  0  0  0  0  0  0  0  0  0
  2  1  1  6
  3  2  1  0
  4  3  1  0
  5  6  2  0
  5  4  1  0
  7  2  1  0
  7  8  2  0
  9  5  1  0
 11 10  1  6
 11 12  1  0
 13 14  1  6
 13 11  1  0
 14  7  1  0
 15 13  1  0
 16 15  2  0
 18 17  1  0
 19 18  1  0
 19 20  1  1
 21 19  1  0
 21 22  1  6
 22 15  1  0
 23 24  1  0
 23 21  1  0
 25 23  2  0
M  END
$$$$
