EVI.pdb
     RDKit          3D

 25 24  0  0  1  0  0  0  0  0999 V2000
   20.0886  -19.0084  -13.4784 N   0  0  0  0  0  0  0  0  0  0  0  0
   20.7129  -20.3119  -13.2267 C   0  0  1  0  0  0  0  0  0  0  0  0
   20.3966  -21.1791  -14.4219 C   0  0  0  0  0  0  0  0  0  0  0  0
   18.9958  -21.6923  -14.4658 C   0  0  0  0  0  0  0  0  0  0  0  0
   18.6742  -22.4815  -13.2630 C   0  0  0  0  0  0  0  0  0  0  0  0
   19.2998  -23.4903  -12.9116 O   0  0  0  0  0  0  0  0  0  0  0  0
   22.2086  -20.1542  -13.2028 C   0  0  0  0  0  0  0  0  0  0  0  0
   22.6947  -19.2450  -13.9154 O   0  0  0  0  0  0  0  0  0  0  0  0
   17.5976  -22.0595  -12.4778 O   0  0  0  0  0  0  0  0  0  0  0  0
   26.6021  -21.2054  -11.1657 C   0  0  0  0  0  0  0  0  0  0  0  0
   25.0779  -21.3367  -11.1069 C   0  0  1  0  0  0  0  0  0  0  0  0
   24.5415  -20.6305   -9.9010 C   0  0  0  0  0  0  0  0  0  0  0  0
   24.4667  -20.8030  -12.4098 C   0  0  2  0  0  0  0  0  0  0  0  0
   23.0354  -20.9892  -12.4151 N   0  0  0  0  0  0  0  0  0  0  0  0
   25.1359  -21.5442  -13.5060 C   0  0  0  0  0  0  0  0  0  0  0  0
   25.0234  -22.7852  -13.5431 O   0  0  0  0  0  0  0  0  0  0  0  0
   24.2393  -20.4466  -18.4118 C   0  0  0  0  0  0  0  0  0  0  0  0
   24.6622  -21.1162  -17.1201 C   0  0  0  0  0  0  0  0  0  0  0  0
   26.1644  -21.0747  -16.9653 C   0  0  2  0  0  0  0  0  0  0  0  0
   26.8220  -21.7980  -18.1115 C   0  0  0  0  0  0  0  0  0  0  0  0
   26.5236  -21.6389  -15.6260 C   0  0  2  0  0  0  0  0  0  0  0  0
   25.9043  -20.9211  -14.5256 N   0  0  0  0  0  0  0  0  0  0  0  0
   27.9903  -21.6170  -15.4128 C   0  0  0  0  0  0  0  0  0  0  0  0
   28.6504  -22.8381  -15.3647 O   0  0  0  0  0  0  0  0  0  0  0  0
   28.7012  -20.6134  -15.2710 O   0  0  0  0  0  0  0  0  0  0  0  0
  2  1  1  6
  3  2  1  0
  4  3  1  0
  5  6  2  0
  5  4  1  0
  7  2  1  0
  7  8  2  0
  9  5  1  0
 11 10  1  6
 11 12  1  0
 13 14  1  1
 13 11  1  0
 14  7  1  0
 15 13  1  0
 16 15  2  0
 18 17  1  0
 19 18  1  0
 19 20  1  6
 21 19  1  0
 21 22  1  1
 22 15  1  0
 23 24  1  0
 23 21  1  0
 25 23  2  0
M  END
$$$$
