EVI.pdb
     RDKit          3D

 25 24  0  0  1  0  0  0  0  0999 V2000
   17.7196  -12.2817  -17.2103 N   0  0  0  0  0  0  0  0  0  0  0  0
   18.6388  -11.2279  -17.6539 C   0  0  1  0  0  0  0  0  0  0  0  0
   17.7886  -10.1549  -18.2915 C   0  0  0  0  0  0  0  0  0  0  0  0
   17.2798  -10.4909  -19.6538 C   0  0  0  0  0  0  0  0  0  0  0  0
   16.4710   -9.3922  -20.2119 C   0  0  0  0  0  0  0  0  0  0  0  0
   15.4667   -9.5627  -20.9153 O   0  0  0  0  0  0  0  0  0  0  0  0
   19.2901  -10.5945  -16.4551 C   0  0  0  0  0  0  0  0  0  0  0  0
   18.5706  -10.4221  -15.4435 O   0  0  0  0  0  0  0  0  0  0  0  0
   16.8679   -8.0829  -19.9254 O   0  0  0  0  0  0  0  0  0  0  0  0
   23.4560  -10.3291  -16.2287 C   0  0  0  0  0  0  0  0  0  0  0  0
   22.5909  -10.2895  -14.9662 C   0  0  1  0  0  0  0  0  0  0  0  0
   23.3191   -9.5937  -13.8588 C   0  0  0  0  0  0  0  0  0  0  0  0
   21.2475   -9.6195  -15.2860 C   0  0  2  0  0  0  0  0  0  0  0  0
   20.6511  -10.2086  -16.4611 N   0  0  0  0  0  0  0  0  0  0  0  0
   21.5452   -8.1782  -15.4670 C   0  0  0  0  0  0  0  0  0  0  0  0
   22.1696   -7.8208  -16.4851 O   0  0  0  0  0  0  0  0  0  0  0  0
   18.2611   -4.5244  -16.2292 C   0  0  0  0  0  0  0  0  0  0  0  0
   19.6195   -5.1911  -16.1511 C   0  0  0  0  0  0  0  0  0  0  0  0
   20.2854   -4.8906  -14.8288 C   0  0  2  0  0  0  0  0  0  0  0  0
   20.6007   -3.4208  -14.7314 C   0  0  0  0  0  0  0  0  0  0  0  0
   21.4929   -5.7648  -14.6911 C   0  0  2  0  0  0  0  0  0  0  0  0
   21.1591   -7.1706  -14.5429 N   0  0  0  0  0  0  0  0  0  0  0  0
   22.3097   -5.3671  -13.5199 C   0  0  0  0  0  0  0  0  0  0  0  0
   23.2699   -4.3821  -13.7115 O   0  0  0  0  0  0  0  0  0  0  0  0
   22.2276   -5.8247  -12.3724 O   0  0  0  0  0  0  0  0  0  0  0  0
  2  1  1  1
  3  2  1  0
  4  3  1  0
  5  6  2  0
  5  4  1  0
  7  2  1  0
  7  8  2  0
  9  5  1  0
 11 10  1  6
 11 12  1  0
 13 14  1  6
 13 11  1  0
 14  7  1  0
 15 13  1  0
 16 15  2  0
 18 17  1  0
 19 18  1  0
 19 20  1  6
 21 19  1  0
 21 22  1  1
 22 15  1  0
 23 24  1  0
 23 21  1  0
 25 23  2  0
M  END
$$$$
