EVI.pdb
     RDKit          3D

 25 24  0  0  1  0  0  0  0  0999 V2000
   17.4994  -14.7743  -19.0382 N   0  0  0  0  0  0  0  0  0  0  0  0
   17.5299  -14.2040  -17.6868 C   0  0  1  0  0  0  0  0  0  0  0  0
   18.4115  -15.1075  -16.8578 C   0  0  0  0  0  0  0  0  0  0  0  0
   17.7799  -16.3999  -16.4600 C   0  0  0  0  0  0  0  0  0  0  0  0
   16.9710  -16.2492  -15.2370 C   0  0  0  0  0  0  0  0  0  0  0  0
   17.2941  -15.5347  -14.2792 O   0  0  0  0  0  0  0  0  0  0  0  0
   18.2133  -12.8646  -17.7242 C   0  0  0  0  0  0  0  0  0  0  0  0
   19.0766  -12.6929  -18.6163 O   0  0  0  0  0  0  0  0  0  0  0  0
   15.7689  -16.9586  -15.1618 O   0  0  0  0  0  0  0  0  0  0  0  0
   16.1849   -9.6460  -16.3478 C   0  0  0  0  0  0  0  0  0  0  0  0
   17.3474   -9.5151  -17.3353 C   0  0  1  0  0  0  0  0  0  0  0  0
   17.8503   -8.1055  -17.3622 C   0  0  0  0  0  0  0  0  0  0  0  0
   18.4503  -10.5161  -16.9644 C   0  0  2  0  0  0  0  0  0  0  0  0
   17.9016  -11.8409  -16.7989 N   0  0  0  0  0  0  0  0  0  0  0  0
   19.0645  -10.0002  -15.7173 C   0  0  0  0  0  0  0  0  0  0  0  0
   18.4075  -10.0591  -14.6595 O   0  0  0  0  0  0  0  0  0  0  0  0
   24.5484  -10.3511  -15.0306 C   0  0  0  0  0  0  0  0  0  0  0  0
   23.2974   -9.5148  -15.2073 C   0  0  0  0  0  0  0  0  0  0  0  0
   22.2701   -9.8637  -14.1560 C   0  0  2  0  0  0  0  0  0  0  0  0
   22.0298  -11.3507  -14.1420 C   0  0  0  0  0  0  0  0  0  0  0  0
   21.0297   -9.0665  -14.4153 C   0  0  2  0  0  0  0  0  0  0  0  0
   20.3675   -9.4378  -15.6535 N   0  0  0  0  0  0  0  0  0  0  0  0
   21.3302   -7.6164  -14.4793 C   0  0  0  0  0  0  0  0  0  0  0  0
   21.5928   -6.9618  -13.2829 O   0  0  0  0  0  0  0  0  0  0  0  0
   21.3731   -6.9153  -15.4988 O   0  0  0  0  0  0  0  0  0  0  0  0
  2  1  1  6
  3  2  1  0
  4  3  1  0
  5  6  2  0
  5  4  1  0
  7  2  1  0
  7  8  2  0
  9  5  1  0
 11 10  1  1
 11 12  1  0
 13 14  1  1
 13 11  1  0
 14  7  1  0
 15 13  1  0
 16 15  2  0
 18 17  1  0
 19 18  1  0
 19 20  1  6
 21 19  1  0
 21 22  1  6
 22 15  1  0
 23 24  1  0
 23 21  1  0
 25 23  2  0
M  END
$$$$
