EVI.pdb
     RDKit          3D

 25 24  0  0  1  0  0  0  0  0999 V2000
   26.2743  -20.0531  -19.7235 N   0  0  0  0  0  0  0  0  0  0  0  0
   25.2258  -20.7076  -18.9332 C   0  0  1  0  0  0  0  0  0  0  0  0
   25.6058  -22.1660  -18.8371 C   0  0  0  0  0  0  0  0  0  0  0  0
   25.1198  -23.0120  -19.9667 C   0  0  0  0  0  0  0  0  0  0  0  0
   25.9620  -22.8449  -21.1649 C   0  0  0  0  0  0  0  0  0  0  0  0
   27.1703  -23.1112  -21.2020 O   0  0  0  0  0  0  0  0  0  0  0  0
   25.2497  -20.1711  -17.5282 C   0  0  0  0  0  0  0  0  0  0  0  0
   26.3591  -19.7939  -17.0837 O   0  0  0  0  0  0  0  0  0  0  0  0
   25.3527  -22.3561  -22.3240 O   0  0  0  0  0  0  0  0  0  0  0  0
   23.6401  -17.1408  -16.2806 C   0  0  0  0  0  0  0  0  0  0  0  0
   23.1259  -18.2785  -15.3946 C   0  0  1  0  0  0  0  0  0  0  0  0
   21.7467  -18.6814  -15.8142 C   0  0  0  0  0  0  0  0  0  0  0  0
   24.1125  -19.4533  -15.4448 C   0  0  2  0  0  0  0  0  0  0  0  0
   24.0785  -20.0925  -16.7385 N   0  0  0  0  0  0  0  0  0  0  0  0
   23.7082  -20.3703  -14.3519 C   0  0  0  0  0  0  0  0  0  0  0  0
   22.8498  -21.2420  -14.5908 O   0  0  0  0  0  0  0  0  0  0  0  0
   25.9983  -20.0935   -9.0396 C   0  0  0  0  0  0  0  0  0  0  0  0
   24.9417  -20.0435  -10.1244 C   0  0  0  0  0  0  0  0  0  0  0  0
   24.9176  -21.3369  -10.9048 C   0  0  2  0  0  0  0  0  0  0  0  0
   26.2913  -21.6413  -11.4428 C   0  0  0  0  0  0  0  0  0  0  0  0
   23.8739  -21.2322  -11.9730 C   0  0  2  0  0  0  0  0  0  0  0  0
   24.2440  -20.3156  -13.0373 N   0  0  0  0  0  0  0  0  0  0  0  0
   22.5795  -20.7766  -11.4125 C   0  0  0  0  0  0  0  0  0  0  0  0
   22.1534  -19.4959  -11.7398 O   0  0  0  0  0  0  0  0  0  0  0  0
   21.8260  -21.4236  -10.6734 O   0  0  0  0  0  0  0  0  0  0  0  0
  2  1  1  6
  3  2  1  0
  4  3  1  0
  5  6  2  0
  5  4  1  0
  7  2  1  0
  7  8  2  0
  9  5  1  0
 11 10  1  6
 11 12  1  0
 13 14  1  6
 13 11  1  0
 14  7  1  0
 15 13  1  0
 16 15  2  0
 18 17  1  0
 19 18  1  0
 19 20  1  6
 21 19  1  0
 21 22  1  6
 22 15  1  0
 23 24  1  0
 23 21  1  0
 25 23  2  0
M  END
$$$$
