EVI.pdb
     RDKit          3D

 25 24  0  0  1  0  0  0  0  0999 V2000
   26.5108  -25.1060  -17.8769 N   0  0  0  0  0  0  0  0  0  0  0  0
   26.3225  -23.6528  -17.9479 C   0  0  1  0  0  0  0  0  0  0  0  0
   24.8524  -23.4210  -18.2045 C   0  0  0  0  0  0  0  0  0  0  0  0
   24.0158  -24.6570  -18.1940 C   0  0  0  0  0  0  0  0  0  0  0  0
   23.1586  -24.7161  -16.9964 C   0  0  0  0  0  0  0  0  0  0  0  0
   22.8757  -23.7320  -16.3006 O   0  0  0  0  0  0  0  0  0  0  0  0
   26.6183  -23.0436  -16.6048 C   0  0  0  0  0  0  0  0  0  0  0  0
   26.8991  -23.8333  -15.6730 O   0  0  0  0  0  0  0  0  0  0  0  0
   22.6380  -25.9608  -16.6308 O   0  0  0  0  0  0  0  0  0  0  0  0
   28.6605  -19.4497  -16.0037 C   0  0  0  0  0  0  0  0  0  0  0  0
   27.3252  -19.5985  -15.2698 C   0  0  1  0  0  0  0  0  0  0  0  0
   26.2514  -18.8398  -15.9854 C   0  0  0  0  0  0  0  0  0  0  0  0
   26.9831  -21.0878  -15.1248 C   0  0  2  0  0  0  0  0  0  0  0  0
   26.5836  -21.6450  -16.3949 N   0  0  0  0  0  0  0  0  0  0  0  0
   25.9021  -21.1595  -14.1124 C   0  0  0  0  0  0  0  0  0  0  0  0
   24.7465  -21.4336  -14.4913 O   0  0  0  0  0  0  0  0  0  0  0  0
   24.4811  -21.5631   -8.2926 C   0  0  0  0  0  0  0  0  0  0  0  0
   24.3264  -20.5753   -9.4311 C   0  0  0  0  0  0  0  0  0  0  0  0
   25.5200  -20.6360  -10.3552 C   0  0  2  0  0  0  0  0  0  0  0  0
   26.2966  -19.3474  -10.2811 C   0  0  0  0  0  0  0  0  0  0  0  0
   25.0405  -20.9591  -11.7361 C   0  0  2  0  0  0  0  0  0  0  0  0
   26.1044  -20.9330  -12.7246 N   0  0  0  0  0  0  0  0  0  0  0  0
   23.9919  -20.0073  -12.1739 C   0  0  0  0  0  0  0  0  0  0  0  0
   24.3873  -18.9346  -12.9625 O   0  0  0  0  0  0  0  0  0  0  0  0
   22.7840  -20.0659  -11.9088 O   0  0  0  0  0  0  0  0  0  0  0  0
  2  1  1  1
  3  2  1  0
  4  3  1  0
  5  6  2  0
  5  4  1  0
  7  2  1  0
  7  8  2  0
  9  5  1  0
 11 10  1  6
 11 12  1  0
 13 14  1  6
 13 11  1  0
 14  7  1  0
 15 13  1  0
 16 15  2  0
 18 17  1  0
 19 18  1  0
 19 20  1  6
 21 19  1  0
 21 22  1  6
 22 15  1  0
 23 24  1  0
 23 21  1  0
 25 23  2  0
M  END
$$$$
