EVI.pdb
     RDKit          3D

 25 24  0  0  1  0  0  0  0  0999 V2000
   18.5021  -11.5051  -17.4888 N   0  0  0  0  0  0  0  0  0  0  0  0
   19.7406  -10.7231  -17.5723 C   0  0  1  0  0  0  0  0  0  0  0  0
   19.7342  -10.0491  -18.9237 C   0  0  0  0  0  0  0  0  0  0  0  0
   20.0798  -10.9434  -20.0675 C   0  0  0  0  0  0  0  0  0  0  0  0
   21.4739  -11.4142  -19.9801 C   0  0  0  0  0  0  0  0  0  0  0  0
   22.4459  -10.6663  -19.8120 O   0  0  0  0  0  0  0  0  0  0  0  0
   19.7064   -9.6206  -16.5498 C   0  0  0  0  0  0  0  0  0  0  0  0
   18.6384   -8.9725  -16.4497 O   0  0  0  0  0  0  0  0  0  0  0  0
   21.7039  -12.7882  -20.0947 O   0  0  0  0  0  0  0  0  0  0  0  0
   21.2188   -7.8946  -12.2530 C   0  0  0  0  0  0  0  0  0  0  0  0
   21.2247   -8.9692  -13.3434 C   0  0  1  0  0  0  0  0  0  0  0  0
   20.4203  -10.1546  -12.9093 C   0  0  0  0  0  0  0  0  0  0  0  0
   20.7073   -8.3686  -14.6578 C   0  0  2  0  0  0  0  0  0  0  0  0
   20.8236   -9.3227  -15.7347 N   0  0  0  0  0  0  0  0  0  0  0  0
   21.5179   -7.1497  -14.8943 C   0  0  0  0  0  0  0  0  0  0  0  0
   22.7087   -7.2821  -15.2386 O   0  0  0  0  0  0  0  0  0  0  0  0
   21.5296   -1.7647  -17.5200 C   0  0  0  0  0  0  0  0  0  0  0  0
   22.0411   -2.5823  -16.3514 C   0  0  0  0  0  0  0  0  0  0  0  0
   21.1878   -3.8122  -16.1473 C   0  0  2  0  0  0  0  0  0  0  0  0
   19.7600   -3.4121  -15.8821 C   0  0  0  0  0  0  0  0  0  0  0  0
   21.7861   -4.6330  -15.0475 C   0  0  2  0  0  0  0  0  0  0  0  0
   21.0161   -5.8283  -14.7511 N   0  0  0  0  0  0  0  0  0  0  0  0
   21.9017   -3.8467  -13.7963 C   0  0  0  0  0  0  0  0  0  0  0  0
   22.9564   -2.9485  -13.6977 O   0  0  0  0  0  0  0  0  0  0  0  0
   21.1489   -3.9047  -12.8152 O   0  0  0  0  0  0  0  0  0  0  0  0
  2  1  1  6
  3  2  1  0
  4  3  1  0
  5  6  2  0
  5  4  1  0
  7  2  1  0
  7  8  2  0
  9  5  1  0
 11 10  1  1
 11 12  1  0
 13 14  1  6
 13 11  1  0
 14  7  1  0
 15 13  1  0
 16 15  2  0
 18 17  1  0
 19 18  1  0
 19 20  1  1
 21 19  1  0
 21 22  1  1
 22 15  1  0
 23 24  1  0
 23 21  1  0
 25 23  2  0
M  END
$$$$
