EVI.pdb
     RDKit          3D

 25 24  0  0  1  0  0  0  0  0999 V2000
   22.9324  -21.9954  -12.6691 N   0  0  0  0  0  0  0  0  0  0  0  0
   23.6310  -20.7488  -12.3368 C   0  0  1  0  0  0  0  0  0  0  0  0
   22.5995  -19.8241  -11.7354 C   0  0  0  0  0  0  0  0  0  0  0  0
   21.7788  -19.0745  -12.7314 C   0  0  0  0  0  0  0  0  0  0  0  0
   22.5143  -18.8749  -13.9931 C   0  0  0  0  0  0  0  0  0  0  0  0
   22.2465  -19.4633  -15.0489 O   0  0  0  0  0  0  0  0  0  0  0  0
   24.6421  -21.0147  -11.2554 C   0  0  0  0  0  0  0  0  0  0  0  0
   24.2768  -21.7441  -10.3040 O   0  0  0  0  0  0  0  0  0  0  0  0
   23.5760  -17.9657  -13.9893 O   0  0  0  0  0  0  0  0  0  0  0  0
   29.3529  -20.9283   -9.7140 C   0  0  0  0  0  0  0  0  0  0  0  0
   28.3458  -20.6081  -10.8217 C   0  0  1  0  0  0  0  0  0  0  0  0
   28.6271  -21.4377  -12.0356 C   0  0  0  0  0  0  0  0  0  0  0  0
   26.9197  -20.8187  -10.2946 C   0  0  2  0  0  0  0  0  0  0  0  0
   25.9471  -20.4706  -11.3028 N   0  0  0  0  0  0  0  0  0  0  0  0
   26.8049  -19.9708   -9.0836 C   0  0  0  0  0  0  0  0  0  0  0  0
   26.3860  -18.8035   -9.2096 O   0  0  0  0  0  0  0  0  0  0  0  0
   29.0898  -21.4358   -3.9580 C   0  0  0  0  0  0  0  0  0  0  0  0
   28.8108  -20.6442   -5.2196 C   0  0  0  0  0  0  0  0  0  0  0  0
   27.3404  -20.3149   -5.3279 C   0  0  2  0  0  0  0  0  0  0  0  0
   26.5203  -21.5744   -5.2271 C   0  0  0  0  0  0  0  0  0  0  0  0
   27.1112  -19.5601   -6.6003 C   0  0  2  0  0  0  0  0  0  0  0  0
   27.1462  -20.4112   -7.7767 N   0  0  0  0  0  0  0  0  0  0  0  0
   28.1271  -18.4959   -6.7806 C   0  0  0  0  0  0  0  0  0  0  0  0
   27.9452  -17.3097   -6.0816 O   0  0  0  0  0  0  0  0  0  0  0  0
   29.1351  -18.5508   -7.4974 O   0  0  0  0  0  0  0  0  0  0  0  0
  2  1  1  1
  3  2  1  0
  4  3  1  0
  5  6  2  0
  5  4  1  0
  7  2  1  0
  7  8  2  0
  9  5  1  0
 11 10  1  1
 11 12  1  0
 13 14  1  6
 13 11  1  0
 14  7  1  0
 15 13  1  0
 16 15  2  0
 18 17  1  0
 19 18  1  0
 19 20  1  6
 21 19  1  0
 21 22  1  6
 22 15  1  0
 23 24  1  0
 23 21  1  0
 25 23  2  0
M  END
$$$$
