EVI.pdb
     RDKit          3D

 25 24  0  0  1  0  0  0  0  0999 V2000
   19.8580  -14.9982  -17.7952 N   0  0  0  0  0  0  0  0  0  0  0  0
   20.3987  -13.7574  -18.3613 C   0  0  1  0  0  0  0  0  0  0  0  0
   19.3738  -13.2519  -19.3485 C   0  0  0  0  0  0  0  0  0  0  0  0
   19.2467  -14.0718  -20.5892 C   0  0  0  0  0  0  0  0  0  0  0  0
   18.2604  -13.4918  -21.5185 C   0  0  0  0  0  0  0  0  0  0  0  0
   18.3825  -12.3801  -22.0493 O   0  0  0  0  0  0  0  0  0  0  0  0
   20.4954  -12.7150  -17.2813 C   0  0  0  0  0  0  0  0  0  0  0  0
   19.5687  -12.6839  -16.4381 O   0  0  0  0  0  0  0  0  0  0  0  0
   17.1222  -14.2479  -21.8128 O   0  0  0  0  0  0  0  0  0  0  0  0
   23.1905   -9.7719  -14.4599 C   0  0  0  0  0  0  0  0  0  0  0  0
   23.0887  -10.8598  -15.5322 C   0  0  1  0  0  0  0  0  0  0  0  0
   23.4647  -12.1908  -14.9596 C   0  0  0  0  0  0  0  0  0  0  0  0
   21.6730  -10.8640  -16.1255 C   0  0  2  0  0  0  0  0  0  0  0  0
   21.5790  -11.8081  -17.2133 N   0  0  0  0  0  0  0  0  0  0  0  0
   21.4119   -9.4715  -16.5631 C   0  0  0  0  0  0  0  0  0  0  0  0
   22.0528   -9.0202  -17.5324 O   0  0  0  0  0  0  0  0  0  0  0  0
   17.2108   -7.4898  -18.5955 C   0  0  0  0  0  0  0  0  0  0  0  0
   18.6471   -7.6341  -18.1351 C   0  0  0  0  0  0  0  0  0  0  0  0
   18.8448   -6.9736  -16.7909 C   0  0  2  0  0  0  0  0  0  0  0  0
   18.5085   -5.5080  -16.8811 C   0  0  0  0  0  0  0  0  0  0  0  0
   20.2463   -7.2316  -16.3320 C   0  0  2  0  0  0  0  0  0  0  0  0
   20.4675   -8.6125  -15.9397 N   0  0  0  0  0  0  0  0  0  0  0  0
   20.5975   -6.3708  -15.1775 C   0  0  0  0  0  0  0  0  0  0  0  0
   20.2993   -6.8471  -13.9074 O   0  0  0  0  0  0  0  0  0  0  0  0
   21.1359   -5.2569  -15.2235 O   0  0  0  0  0  0  0  0  0  0  0  0
  2  1  1  1
  3  2  1  0
  4  3  1  0
  5  6  2  0
  5  4  1  0
  7  2  1  0
  7  8  2  0
  9  5  1  0
 11 10  1  1
 11 12  1  0
 13 14  1  6
 13 11  1  0
 14  7  1  0
 15 13  1  0
 16 15  2  0
 18 17  1  0
 19 18  1  0
 19 20  1  6
 21 19  1  0
 21 22  1  1
 22 15  1  0
 23 24  1  0
 23 21  1  0
 25 23  2  0
M  END
$$$$
