KKC.pdb
     RDKit          3D

 25 24  0  0  1  0  0  0  0  0999 V2000
   16.0278  -12.3047  -11.5075 N   0  0  0  0  0  0  0  0  0  0  0  0
   15.6651  -11.5357  -12.6472 C   0  0  1  0  0  0  0  0  0  0  0  0
   14.7866  -12.1705  -13.6529 C   0  0  0  0  0  0  0  0  0  0  0  0
   15.4368  -13.2126  -14.4864 C   0  0  0  0  0  0  0  0  0  0  0  0
   15.7056  -14.4667  -13.7077 C   0  0  0  0  0  0  0  0  0  0  0  0
   16.3395  -15.5339  -14.6256 C   0  0  0  0  0  0  0  0  0  0  0  0
   16.5399  -16.7498  -13.8679 N   0  0  0  0  0  0  0  0  0  0  0  0
   15.0743  -10.2468  -12.1508 C   0  0  0  0  0  0  0  0  0  0  0  0
   14.6363   -9.3696  -12.9593 O   0  0  0  0  0  0  0  0  0  0  0  0
   14.9812   -9.9569  -10.7667 N   0  0  0  0  0  0  0  0  0  0  0  0
   14.2358   -8.7582  -10.2904 C   0  0  1  0  0  0  0  0  0  0  0  0
   13.3053   -9.2128   -9.1895 C   0  0  0  0  0  0  0  0  0  0  0  0
   11.9543   -9.5308   -9.6949 C   0  0  0  0  0  0  0  0  0  0  0  0
   10.9735   -9.8315   -8.5586 C   0  0  0  0  0  0  0  0  0  0  0  0
    9.6319  -10.2230   -9.1496 C   0  0  0  0  0  0  0  0  0  0  0  0
    8.7572  -10.5499   -8.0648 N   0  0  0  0  0  0  0  0  0  0  0  0
   15.2364   -7.8204   -9.7597 C   0  0  0  0  0  0  0  0  0  0  0  0
   16.1540   -8.2885   -8.9968 O   0  0  0  0  0  0  0  0  0  0  0  0
   15.3033   -6.4389  -10.0054 N   0  0  0  0  0  0  0  0  0  0  0  0
   16.2600   -5.5571   -9.3444 C   0  0  1  0  0  0  0  0  0  0  0  0
   17.0489   -4.8927  -10.4781 C   0  0  0  0  0  0  0  0  0  0  0  0
   17.8605   -6.1075  -11.5268 S   0  0  0  0  0  0  0  0  0  0  0  0
   15.5789   -4.5176   -8.5451 C   0  0  0  0  0  0  0  0  0  0  0  0
   14.3367   -4.4264   -8.5661 O   0  0  0  0  0  0  0  0  0  0  0  0
   16.3522   -3.6601   -7.7829 O   0  0  0  0  0  0  0  0  0  0  0  0
  2  1  1  1
  3  2  1  0
  4  3  1  0
  5  4  1  0
  6  5  1  0
  7  6  1  0
  8  9  2  0
  8  2  1  0
 10  8  1  0
 11 12  1  1
 11 10  1  0
 13 12  1  0
 14 13  1  0
 15 16  1  0
 15 14  1  0
 17 11  1  0
 18 17  2  0
 19 17  1  0
 20 19  1  0
 20 21  1  6
 21 22  1  0
 23 25  1  0
 23 20  1  0
 24 23  2  0
M  END
$$$$
