KKC.pdb
     RDKit          3D

 25 24  0  0  1  0  0  0  0  0999 V2000
   27.0340  -23.5869  -17.3194 N   0  0  0  0  0  0  0  0  0  0  0  0
   28.2435  -23.2664  -16.6440 C   0  0  1  0  0  0  0  0  0  0  0  0
   29.4467  -23.0229  -17.4680 C   0  0  0  0  0  0  0  0  0  0  0  0
   30.0383  -24.2344  -18.0890 C   0  0  0  0  0  0  0  0  0  0  0  0
   31.4565  -24.4537  -17.6507 C   0  0  0  0  0  0  0  0  0  0  0  0
   32.0013  -25.7645  -18.2578 C   0  0  0  0  0  0  0  0  0  0  0  0
   31.9737  -26.7999  -17.2479 N   0  0  0  0  0  0  0  0  0  0  0  0
   27.9599  -22.0977  -15.7437 C   0  0  0  0  0  0  0  0  0  0  0  0
   28.8806  -21.5638  -15.0493 O   0  0  0  0  0  0  0  0  0  0  0  0
   26.6599  -21.5445  -15.6322 N   0  0  0  0  0  0  0  0  0  0  0  0
   26.3927  -20.4161  -14.6968 C   0  0  1  0  0  0  0  0  0  0  0  0
   25.6005  -19.3772  -15.4569 C   0  0  0  0  0  0  0  0  0  0  0  0
   26.4705  -18.4542  -16.2139 C   0  0  0  0  0  0  0  0  0  0  0  0
   25.6612  -17.4255  -17.0078 C   0  0  0  0  0  0  0  0  0  0  0  0
   26.6121  -16.4346  -17.6531 C   0  0  0  0  0  0  0  0  0  0  0  0
   25.8240  -15.4795  -18.3711 N   0  0  0  0  0  0  0  0  0  0  0  0
   25.5912  -20.9628  -13.5917 C   0  0  0  0  0  0  0  0  0  0  0  0
   24.6379  -21.7690  -13.8820 O   0  0  0  0  0  0  0  0  0  0  0  0
   25.7611  -20.6980  -12.2226 N   0  0  0  0  0  0  0  0  0  0  0  0
   24.7893  -21.0926  -11.2079 C   0  0  1  0  0  0  0  0  0  0  0  0
   25.5103  -20.9175   -9.8667 C   0  0  0  0  0  0  0  0  0  0  0  0
   26.9497  -21.9878   -9.7386 S   0  0  0  0  0  0  0  0  0  0  0  0
   23.5909  -20.2287  -11.2377 C   0  0  0  0  0  0  0  0  0  0  0  0
   23.5849  -19.1911  -11.9273 O   0  0  0  0  0  0  0  0  0  0  0  0
   22.4904  -20.6019  -10.4868 O   0  0  0  0  0  0  0  0  0  0  0  0
  2  1  1  6
  3  2  1  0
  4  3  1  0
  5  4  1  0
  6  5  1  0
  7  6  1  0
  8  9  2  0
  8  2  1  0
 10  8  1  0
 11 12  1  6
 11 10  1  0
 13 12  1  0
 14 13  1  0
 15 16  1  0
 15 14  1  0
 17 11  1  0
 18 17  2  0
 19 17  1  0
 20 19  1  0
 20 21  1  1
 21 22  1  0
 23 25  1  0
 23 20  1  0
 24 23  2  0
M  END
$$$$
