KKC.pdb
     RDKit          3D

 25 24  0  0  1  0  0  0  0  0999 V2000
   15.5805  -13.1536  -13.6090 N   0  0  0  0  0  0  0  0  0  0  0  0
   15.2820  -11.8892  -14.1867 C   0  0  1  0  0  0  0  0  0  0  0  0
   13.8685  -11.4556  -14.1980 C   0  0  0  0  0  0  0  0  0  0  0  0
   12.9592  -12.2996  -15.0129 C   0  0  0  0  0  0  0  0  0  0  0  0
   11.5915  -12.4004  -14.4040 C   0  0  0  0  0  0  0  0  0  0  0  0
   10.6835  -13.2843  -15.2858 C   0  0  0  0  0  0  0  0  0  0  0  0
    9.3200  -13.1792  -14.8141 N   0  0  0  0  0  0  0  0  0  0  0  0
   16.1544  -10.8691  -13.5121 C   0  0  0  0  0  0  0  0  0  0  0  0
   16.4385  -10.9605  -12.2768 O   0  0  0  0  0  0  0  0  0  0  0  0
   16.6944   -9.7677  -14.2219 N   0  0  0  0  0  0  0  0  0  0  0  0
   17.5933   -8.7934  -13.5421 C   0  0  1  0  0  0  0  0  0  0  0  0
   18.3168   -8.0185  -14.6194 C   0  0  0  0  0  0  0  0  0  0  0  0
   19.2575   -7.0270  -14.0590 C   0  0  0  0  0  0  0  0  0  0  0  0
   19.9897   -6.2486  -15.1551 C   0  0  0  0  0  0  0  0  0  0  0  0
   21.0084   -5.3247  -14.5138 C   0  0  0  0  0  0  0  0  0  0  0  0
   21.7759   -4.7272  -15.5638 N   0  0  0  0  0  0  0  0  0  0  0  0
   16.7306   -7.8965  -12.7587 C   0  0  0  0  0  0  0  0  0  0  0  0
   15.5897   -7.5796  -13.2494 O   0  0  0  0  0  0  0  0  0  0  0  0
   17.0220   -7.3400  -11.5021 N   0  0  0  0  0  0  0  0  0  0  0  0
   16.1624   -6.3605  -10.8454 C   0  0  1  0  0  0  0  0  0  0  0  0
   15.8944   -6.9291   -9.4476 C   0  0  0  0  0  0  0  0  0  0  0  0
   15.0226   -5.7517   -8.4046 S   0  0  0  0  0  0  0  0  0  0  0  0
   16.8295   -5.0478  -10.7221 C   0  0  0  0  0  0  0  0  0  0  0  0
   18.0524   -4.9869  -10.4922 O   0  0  0  0  0  0  0  0  0  0  0  0
   16.0652   -3.9037  -10.8677 O   0  0  0  0  0  0  0  0  0  0  0  0
  2  1  1  1
  3  2  1  0
  4  3  1  0
  5  4  1  0
  6  5  1  0
  7  6  1  0
  8  9  2  0
  8  2  1  0
 10  8  1  0
 11 12  1  6
 11 10  1  0
 13 12  1  0
 14 13  1  0
 15 16  1  0
 15 14  1  0
 17 11  1  0
 18 17  2  0
 19 17  1  0
 20 19  1  0
 20 21  1  1
 21 22  1  0
 23 25  1  0
 23 20  1  0
 24 23  2  0
M  END
$$$$
