KKC.pdb
     RDKit          3D

 25 24  0  0  1  0  0  0  0  0999 V2000
   28.3400  -22.1224  -15.7344 N   0  0  0  0  0  0  0  0  0  0  0  0
   27.5661  -21.2348  -16.5311 C   0  0  1  0  0  0  0  0  0  0  0  0
   26.9736  -21.7686  -17.7761 C   0  0  0  0  0  0  0  0  0  0  0  0
   27.9420  -22.3790  -18.7211 C   0  0  0  0  0  0  0  0  0  0  0  0
   27.8758  -23.8779  -18.7018 C   0  0  0  0  0  0  0  0  0  0  0  0
   28.8490  -24.4641  -19.7471 C   0  0  0  0  0  0  0  0  0  0  0  0
   28.8270  -25.9076  -19.6556 N   0  0  0  0  0  0  0  0  0  0  0  0
   26.5113  -20.6374  -15.6439 C   0  0  0  0  0  0  0  0  0  0  0  0
   26.4315  -20.9500  -14.4147 O   0  0  0  0  0  0  0  0  0  0  0  0
   25.5658  -19.7047  -16.1385 N   0  0  0  0  0  0  0  0  0  0  0  0
   24.6377  -18.9998  -15.2106 C   0  0  1  0  0  0  0  0  0  0  0  0
   24.4136  -17.6113  -15.7641 C   0  0  0  0  0  0  0  0  0  0  0  0
   25.5298  -16.6967  -15.4486 C   0  0  0  0  0  0  0  0  0  0  0  0
   25.2882  -15.2876  -15.9961 C   0  0  0  0  0  0  0  0  0  0  0  0
   26.4788  -14.4105  -15.6558 C   0  0  0  0  0  0  0  0  0  0  0  0
   26.2230  -13.1053  -16.1846 N   0  0  0  0  0  0  0  0  0  0  0  0
   23.3790  -19.7601  -15.2119 C   0  0  0  0  0  0  0  0  0  0  0  0
   22.9731  -20.2489  -16.3251 O   0  0  0  0  0  0  0  0  0  0  0  0
   22.5564  -20.0207  -14.1034 N   0  0  0  0  0  0  0  0  0  0  0  0
   21.3821  -20.8847  -14.1677 C   0  0  1  0  0  0  0  0  0  0  0  0
   21.3120  -21.5757  -12.8014 C   0  0  0  0  0  0  0  0  0  0  0  0
   20.3391  -23.0867  -12.8674 S   0  0  0  0  0  0  0  0  0  0  0  0
   20.1457  -20.1062  -14.3884 C   0  0  0  0  0  0  0  0  0  0  0  0
   20.1402  -18.8747  -14.2003 O   0  0  0  0  0  0  0  0  0  0  0  0
   19.0097  -20.7773  -14.8047 O   0  0  0  0  0  0  0  0  0  0  0  0
  2  1  1  1
  3  2  1  0
  4  3  1  0
  5  4  1  0
  6  5  1  0
  7  6  1  0
  8  9  2  0
  8  2  1  0
 10  8  1  0
 11 12  1  6
 11 10  1  0
 13 12  1  0
 14 13  1  0
 15 16  1  0
 15 14  1  0
 17 11  1  0
 18 17  2  0
 19 17  1  0
 20 19  1  0
 20 21  1  1
 21 22  1  0
 23 25  1  0
 23 20  1  0
 24 23  2  0
M  END
$$$$
