KKC.pdb
     RDKit          3D

 25 24  0  0  1  0  0  0  0  0999 V2000
   19.2829  -12.8348  -16.1871 N   0  0  0  0  0  0  0  0  0  0  0  0
   18.7064  -11.5643  -16.4609 C   0  0  1  0  0  0  0  0  0  0  0  0
   17.5753  -11.1266  -15.6152 C   0  0  0  0  0  0  0  0  0  0  0  0
   16.3908  -12.0208  -15.6388 C   0  0  0  0  0  0  0  0  0  0  0  0
   15.3084  -11.5423  -14.7163 C   0  0  0  0  0  0  0  0  0  0  0  0
   14.1646  -12.5778  -14.6604 C   0  0  0  0  0  0  0  0  0  0  0  0
   13.1921  -12.1548  -13.6766 N   0  0  0  0  0  0  0  0  0  0  0  0
   19.8171  -10.5530  -16.4428 C   0  0  0  0  0  0  0  0  0  0  0  0
   20.7520  -10.6180  -15.5844 O   0  0  0  0  0  0  0  0  0  0  0  0
   19.8685   -9.4894  -17.3781 N   0  0  0  0  0  0  0  0  0  0  0  0
   21.0910   -8.6474  -17.5040 C   0  0  1  0  0  0  0  0  0  0  0  0
   21.1190   -8.0993  -18.9124 C   0  0  0  0  0  0  0  0  0  0  0  0
   21.6337   -9.0842  -19.8855 C   0  0  0  0  0  0  0  0  0  0  0  0
   21.6691   -8.5195  -21.3080 C   0  0  0  0  0  0  0  0  0  0  0  0
   22.0442   -9.6277  -22.2743 C   0  0  0  0  0  0  0  0  0  0  0  0
   22.0836   -9.0637  -23.5893 N   0  0  0  0  0  0  0  0  0  0  0  0
   20.9532   -7.5527  -16.5319 C   0  0  0  0  0  0  0  0  0  0  0  0
   19.8021   -7.0035  -16.4041 O   0  0  0  0  0  0  0  0  0  0  0  0
   21.9638   -7.0338  -15.7056 N   0  0  0  0  0  0  0  0  0  0  0  0
   21.7325   -5.9661  -14.7379 C   0  0  1  0  0  0  0  0  0  0  0  0
   22.7362   -6.2192  -13.6076 C   0  0  0  0  0  0  0  0  0  0  0  0
   22.7288   -4.8878  -12.3987 S   0  0  0  0  0  0  0  0  0  0  0  0
   21.9823   -4.6345  -15.3276 C   0  0  0  0  0  0  0  0  0  0  0  0
   22.9226   -4.4715  -16.1284 O   0  0  0  0  0  0  0  0  0  0  0  0
   21.1515   -3.5881  -14.9683 O   0  0  0  0  0  0  0  0  0  0  0  0
  2  1  1  1
  3  2  1  0
  4  3  1  0
  5  4  1  0
  6  5  1  0
  7  6  1  0
  8  9  2  0
  8  2  1  0
 10  8  1  0
 11 12  1  6
 11 10  1  0
 13 12  1  0
 14 13  1  0
 15 16  1  0
 15 14  1  0
 17 11  1  0
 18 17  2  0
 19 17  1  0
 20 19  1  0
 20 21  1  1
 21 22  1  0
 23 25  1  0
 23 20  1  0
 24 23  2  0
M  END
$$$$
