KKC.pdb
     RDKit          3D

 25 24  0  0  1  0  0  0  0  0999 V2000
   21.6559  -20.0076  -15.3055 N   0  0  0  0  0  0  0  0  0  0  0  0
   22.5372  -20.1892  -14.2046 C   0  0  1  0  0  0  0  0  0  0  0  0
   22.1092  -21.1051  -13.1258 C   0  0  0  0  0  0  0  0  0  0  0  0
   20.6751  -21.0113  -12.7544 C   0  0  0  0  0  0  0  0  0  0  0  0
   19.8078  -21.8454  -13.6507 C   0  0  0  0  0  0  0  0  0  0  0  0
   18.3241  -21.6748  -13.2596 C   0  0  0  0  0  0  0  0  0  0  0  0
   17.5249  -22.6120  -14.0184 N   0  0  0  0  0  0  0  0  0  0  0  0
   23.8727  -20.5954  -14.7598 C   0  0  0  0  0  0  0  0  0  0  0  0
   24.8699  -20.7920  -13.9969 O   0  0  0  0  0  0  0  0  0  0  0  0
   24.0751  -20.7757  -16.1508 N   0  0  0  0  0  0  0  0  0  0  0  0
   25.4231  -21.1197  -16.6837 C   0  0  1  0  0  0  0  0  0  0  0  0
   25.2283  -22.1427  -17.7792 C   0  0  0  0  0  0  0  0  0  0  0  0
   26.5105  -22.5951  -18.3563 C   0  0  0  0  0  0  0  0  0  0  0  0
   27.2735  -23.5189  -17.4034 C   0  0  0  0  0  0  0  0  0  0  0  0
   28.6016  -23.8963  -18.0329 C   0  0  0  0  0  0  0  0  0  0  0  0
   29.3001  -24.7341  -17.1061 N   0  0  0  0  0  0  0  0  0  0  0  0
   25.9891  -19.8801  -17.2363 C   0  0  0  0  0  0  0  0  0  0  0  0
   25.2064  -19.0981  -17.8836 O   0  0  0  0  0  0  0  0  0  0  0  0
   27.3204  -19.4452  -17.1269 N   0  0  0  0  0  0  0  0  0  0  0  0
   27.7938  -18.1804  -17.6798 C   0  0  1  0  0  0  0  0  0  0  0  0
   28.6415  -17.5458  -16.5717 C   0  0  0  0  0  0  0  0  0  0  0  0
   29.4902  -16.0676  -17.1451 S   0  0  0  0  0  0  0  0  0  0  0  0
   28.6309  -18.3907  -18.8792 C   0  0  0  0  0  0  0  0  0  0  0  0
   29.3212  -19.4221  -18.9870 O   0  0  0  0  0  0  0  0  0  0  0  0
   28.6250  -17.4205  -19.8655 O   0  0  0  0  0  0  0  0  0  0  0  0
  2  1  1  6
  3  2  1  0
  4  3  1  0
  5  4  1  0
  6  5  1  0
  7  6  1  0
  8  9  2  0
  8  2  1  0
 10  8  1  0
 11 12  1  6
 11 10  1  0
 13 12  1  0
 14 13  1  0
 15 16  1  0
 15 14  1  0
 17 11  1  0
 18 17  2  0
 19 17  1  0
 20 19  1  0
 20 21  1  1
 21 22  1  0
 23 25  1  0
 23 20  1  0
 24 23  2  0
M  END
$$$$
