KKC.pdb
     RDKit          3D

 25 24  0  0  1  0  0  0  0  0999 V2000
   29.3195  -27.2301  -18.4120 N   0  0  0  0  0  0  0  0  0  0  0  0
   28.4964  -27.3942  -17.2642 C   0  0  1  0  0  0  0  0  0  0  0  0
   27.3708  -26.4523  -17.0858 C   0  0  0  0  0  0  0  0  0  0  0  0
   27.7635  -25.0345  -16.8886 C   0  0  0  0  0  0  0  0  0  0  0  0
   26.5882  -24.1706  -16.5367 C   0  0  0  0  0  0  0  0  0  0  0  0
   27.0027  -22.6835  -16.5463 C   0  0  0  0  0  0  0  0  0  0  0  0
   25.8615  -21.8728  -16.1815 N   0  0  0  0  0  0  0  0  0  0  0  0
   28.0162  -28.8176  -17.2547 C   0  0  0  0  0  0  0  0  0  0  0  0
   27.7094  -29.4154  -18.3333 O   0  0  0  0  0  0  0  0  0  0  0  0
   27.8863  -29.5495  -16.0481 N   0  0  0  0  0  0  0  0  0  0  0  0
   27.4591  -30.9766  -16.0680 C   0  0  1  0  0  0  0  0  0  0  0  0
   27.6959  -31.5384  -14.6849 C   0  0  0  0  0  0  0  0  0  0  0  0
   27.2179  -32.9302  -14.5574 C   0  0  0  0  0  0  0  0  0  0  0  0
   28.2423  -33.9383  -15.0847 C   0  0  0  0  0  0  0  0  0  0  0  0
   27.6993  -35.3430  -14.8990 C   0  0  0  0  0  0  0  0  0  0  0  0
   28.6839  -36.2587  -15.3900 N   0  0  0  0  0  0  0  0  0  0  0  0
   26.0231  -30.9845  -16.3843 C   0  0  0  0  0  0  0  0  0  0  0  0
   25.2706  -30.1381  -15.7840 O   0  0  0  0  0  0  0  0  0  0  0  0
   25.3703  -31.8318  -17.2951 N   0  0  0  0  0  0  0  0  0  0  0  0
   23.9390  -31.7561  -17.5692 C   0  0  1  0  0  0  0  0  0  0  0  0
   23.7229  -32.5992  -18.8308 C   0  0  0  0  0  0  0  0  0  0  0  0
   22.6976  -31.7448  -20.0362 S   0  0  0  0  0  0  0  0  0  0  0  0
   23.1425  -32.3197  -16.4595 C   0  0  0  0  0  0  0  0  0  0  0  0
   23.4912  -33.3860  -15.9179 O   0  0  0  0  0  0  0  0  0  0  0  0
   22.0128  -31.6365  -16.0456 O   0  0  0  0  0  0  0  0  0  0  0  0
  2  1  1  6
  3  2  1  0
  4  3  1  0
  5  4  1  0
  6  5  1  0
  7  6  1  0
  8  9  2  0
  8  2  1  0
 10  8  1  0
 11 12  1  1
 11 10  1  0
 13 12  1  0
 14 13  1  0
 15 16  1  0
 15 14  1  0
 17 11  1  0
 18 17  2  0
 19 17  1  0
 20 19  1  0
 20 21  1  6
 21 22  1  0
 23 25  1  0
 23 20  1  0
 24 23  2  0
M  END
$$$$
