KKC.pdb
     RDKit          3D

 25 24  0  0  1  0  0  0  0  0999 V2000
   26.2692  -18.3134  -18.0474 N   0  0  0  0  0  0  0  0  0  0  0  0
   24.8926  -17.9638  -18.1136 C   0  0  1  0  0  0  0  0  0  0  0  0
   24.4100  -17.3038  -19.3455 C   0  0  0  0  0  0  0  0  0  0  0  0
   24.9154  -15.9244  -19.5583 C   0  0  0  0  0  0  0  0  0  0  0  0
   25.5772  -15.7697  -20.8960 C   0  0  0  0  0  0  0  0  0  0  0  0
   26.1780  -14.3537  -21.0286 C   0  0  0  0  0  0  0  0  0  0  0  0
   26.7092  -14.1892  -22.3640 N   0  0  0  0  0  0  0  0  0  0  0  0
   24.0986  -19.2046  -17.8192 C   0  0  0  0  0  0  0  0  0  0  0  0
   23.4184  -19.7806  -18.7251 O   0  0  0  0  0  0  0  0  0  0  0  0
   24.0753  -19.7818  -16.5251 N   0  0  0  0  0  0  0  0  0  0  0  0
   23.3871  -21.0812  -16.2855 C   0  0  1  0  0  0  0  0  0  0  0  0
   24.0924  -21.7604  -15.1341 C   0  0  0  0  0  0  0  0  0  0  0  0
   23.7615  -23.1973  -15.0450 C   0  0  0  0  0  0  0  0  0  0  0  0
   24.8035  -24.0699  -15.7497 C   0  0  0  0  0  0  0  0  0  0  0  0
   24.4189  -25.5293  -15.5924 C   0  0  0  0  0  0  0  0  0  0  0  0
   25.4062  -26.3149  -16.2683 N   0  0  0  0  0  0  0  0  0  0  0  0
   21.9987  -20.7640  -15.9193 C   0  0  0  0  0  0  0  0  0  0  0  0
   21.8021  -19.8491  -15.0433 O   0  0  0  0  0  0  0  0  0  0  0  0
   20.8380  -21.3615  -16.4380 N   0  0  0  0  0  0  0  0  0  0  0  0
   19.4912  -20.9659  -16.0387 C   0  0  1  0  0  0  0  0  0  0  0  0
   18.5928  -21.3320  -17.2253 C   0  0  0  0  0  0  0  0  0  0  0  0
   16.8520  -21.0927  -16.8425 S   0  0  0  0  0  0  0  0  0  0  0  0
   19.0424  -21.7006  -14.8377 C   0  0  0  0  0  0  0  0  0  0  0  0
   19.3829  -22.8866  -14.6665 O   0  0  0  0  0  0  0  0  0  0  0  0
   18.2432  -21.0403  -13.9215 O   0  0  0  0  0  0  0  0  0  0  0  0
  2  1  1  6
  3  2  1  0
  4  3  1  0
  5  4  1  0
  6  5  1  0
  7  6  1  0
  8  9  2  0
  8  2  1  0
 10  8  1  0
 11 12  1  1
 11 10  1  0
 13 12  1  0
 14 13  1  0
 15 16  1  0
 15 14  1  0
 17 11  1  0
 18 17  2  0
 19 17  1  0
 20 19  1  0
 20 21  1  6
 21 22  1  0
 23 25  1  0
 23 20  1  0
 24 23  2  0
M  END
$$$$
