KKC.pdb
     RDKit          3D

 25 24  0  0  1  0  0  0  0  0999 V2000
   28.4037  -22.3083  -16.9777 N   0  0  0  0  0  0  0  0  0  0  0  0
   27.6406  -23.4833  -17.2200 C   0  0  1  0  0  0  0  0  0  0  0  0
   28.3429  -24.7830  -17.1600 C   0  0  0  0  0  0  0  0  0  0  0  0
   29.5621  -24.8776  -18.0013 C   0  0  0  0  0  0  0  0  0  0  0  0
   30.2222  -26.2199  -17.8835 C   0  0  0  0  0  0  0  0  0  0  0  0
   31.5610  -26.2206  -18.6523 C   0  0  0  0  0  0  0  0  0  0  0  0
   32.2695  -27.4488  -18.3658 N   0  0  0  0  0  0  0  0  0  0  0  0
   26.4676  -23.4594  -16.2819 C   0  0  0  0  0  0  0  0  0  0  0  0
   25.5339  -24.3165  -16.3743 O   0  0  0  0  0  0  0  0  0  0  0  0
   26.3542  -22.4848  -15.2593 N   0  0  0  0  0  0  0  0  0  0  0  0
   25.2188  -22.5240  -14.2955 C   0  0  1  0  0  0  0  0  0  0  0  0
   25.7116  -21.9369  -12.9928 C   0  0  0  0  0  0  0  0  0  0  0  0
   24.7269  -22.0901  -11.9025 C   0  0  0  0  0  0  0  0  0  0  0  0
   24.1597  -20.7424  -11.4491 C   0  0  0  0  0  0  0  0  0  0  0  0
   23.2353  -20.9639  -10.2663 C   0  0  0  0  0  0  0  0  0  0  0  0
   22.8157  -19.6791   -9.7953 N   0  0  0  0  0  0  0  0  0  0  0  0
   24.1521  -21.6860  -14.8631 C   0  0  0  0  0  0  0  0  0  0  0  0
   24.4363  -20.4727  -15.1632 O   0  0  0  0  0  0  0  0  0  0  0  0
   22.8284  -22.0773  -15.1237 N   0  0  0  0  0  0  0  0  0  0  0  0
   21.8153  -21.1650  -15.6443 C   0  0  1  0  0  0  0  0  0  0  0  0
   21.0523  -21.9683  -16.7033 C   0  0  0  0  0  0  0  0  0  0  0  0
   22.1405  -22.5485  -18.0123 S   0  0  0  0  0  0  0  0  0  0  0  0
   20.8784  -20.7324  -14.5867 C   0  0  0  0  0  0  0  0  0  0  0  0
   20.9656  -21.2111  -13.4398 O   0  0  0  0  0  0  0  0  0  0  0  0
   19.9143  -19.7922  -14.9043 O   0  0  0  0  0  0  0  0  0  0  0  0
  2  1  1  1
  3  2  1  0
  4  3  1  0
  5  4  1  0
  6  5  1  0
  7  6  1  0
  8  9  2  0
  8  2  1  0
 10  8  1  0
 11 12  1  1
 11 10  1  0
 13 12  1  0
 14 13  1  0
 15 16  1  0
 15 14  1  0
 17 11  1  0
 18 17  2  0
 19 17  1  0
 20 19  1  0
 20 21  1  6
 21 22  1  0
 23 25  1  0
 23 20  1  0
 24 23  2  0
M  END
$$$$
