KKC.pdb
     RDKit          3D

 25 24  0  0  1  0  0  0  0  0999 V2000
   17.6360  -11.8050  -14.9367 N   0  0  0  0  0  0  0  0  0  0  0  0
   18.4187  -11.8488  -16.1229 C   0  0  1  0  0  0  0  0  0  0  0  0
   17.9593  -12.7312  -17.2167 C   0  0  0  0  0  0  0  0  0  0  0  0
   17.6365  -14.1214  -16.8086 C   0  0  0  0  0  0  0  0  0  0  0  0
   18.8721  -14.9225  -16.5202 C   0  0  0  0  0  0  0  0  0  0  0  0
   18.4858  -16.3510  -16.0800 C   0  0  0  0  0  0  0  0  0  0  0  0
   19.6911  -17.1039  -15.8096 N   0  0  0  0  0  0  0  0  0  0  0  0
   18.5866  -10.4355  -16.6036 C   0  0  0  0  0  0  0  0  0  0  0  0
   19.2196  -10.1759  -17.6746 O   0  0  0  0  0  0  0  0  0  0  0  0
   18.0483   -9.3382  -15.8863 N   0  0  0  0  0  0  0  0  0  0  0  0
   18.1903   -7.9488  -16.4051 C   0  0  1  0  0  0  0  0  0  0  0  0
   16.8000   -7.3699  -16.5323 C   0  0  0  0  0  0  0  0  0  0  0  0
   16.8178   -5.9723  -17.0102 C   0  0  0  0  0  0  0  0  0  0  0  0
   15.4053   -5.4082  -17.1843 C   0  0  0  0  0  0  0  0  0  0  0  0
   15.4987   -3.9700  -17.6593 C   0  0  0  0  0  0  0  0  0  0  0  0
   14.1645   -3.4768  -17.8185 N   0  0  0  0  0  0  0  0  0  0  0  0
   18.9664   -7.2005  -15.4050 C   0  0  0  0  0  0  0  0  0  0  0  0
   18.5646   -7.2288  -14.1881 O   0  0  0  0  0  0  0  0  0  0  0  0
   20.1278   -6.4456  -15.6390 N   0  0  0  0  0  0  0  0  0  0  0  0
   20.8167   -5.6976  -14.5923 C   0  0  1  0  0  0  0  0  0  0  0  0
   22.3088   -5.8245  -14.9188 C   0  0  0  0  0  0  0  0  0  0  0  0
   23.3201   -4.8290  -13.8141 S   0  0  0  0  0  0  0  0  0  0  0  0
   20.4316   -4.2710  -14.6005 C   0  0  0  0  0  0  0  0  0  0  0  0
   20.3397   -3.6542  -15.6790 O   0  0  0  0  0  0  0  0  0  0  0  0
   20.1797   -3.6493  -13.3904 O   0  0  0  0  0  0  0  0  0  0  0  0
  2  1  1  1
  3  2  1  0
  4  3  1  0
  5  4  1  0
  6  5  1  0
  7  6  1  0
  8  9  2  0
  8  2  1  0
 10  8  1  0
 11 12  1  1
 11 10  1  0
 13 12  1  0
 14 13  1  0
 15 16  1  0
 15 14  1  0
 17 11  1  0
 18 17  2  0
 19 17  1  0
 20 19  1  0
 20 21  1  6
 21 22  1  0
 23 25  1  0
 23 20  1  0
 24 23  2  0
M  END
$$$$
