KKC.pdb
     RDKit          3D

 25 24  0  0  1  0  0  0  0  0999 V2000
   19.9552  -14.5450  -15.9115 N   0  0  0  0  0  0  0  0  0  0  0  0
   19.6850  -14.2306  -17.2715 C   0  0  1  0  0  0  0  0  0  0  0  0
   19.1350  -15.3028  -18.1282 C   0  0  0  0  0  0  0  0  0  0  0  0
   19.9964  -16.5044  -18.2613 C   0  0  0  0  0  0  0  0  0  0  0  0
   20.7919  -16.4861  -19.5334 C   0  0  0  0  0  0  0  0  0  0  0  0
   21.7293  -17.7115  -19.5890 C   0  0  0  0  0  0  0  0  0  0  0  0
   23.0316  -17.3331  -19.0855 N   0  0  0  0  0  0  0  0  0  0  0  0
   18.7966  -13.0193  -17.2853 C   0  0  0  0  0  0  0  0  0  0  0  0
   18.4438  -12.4748  -18.3781 O   0  0  0  0  0  0  0  0  0  0  0  0
   18.3172  -12.4362  -16.0859 N   0  0  0  0  0  0  0  0  0  0  0  0
   17.4011  -11.2620  -16.1258 C   0  0  1  0  0  0  0  0  0  0  0  0
   16.3971  -11.4342  -15.0091 C   0  0  0  0  0  0  0  0  0  0  0  0
   15.2485  -12.2702  -15.4139 C   0  0  0  0  0  0  0  0  0  0  0  0
   14.2362  -12.4415  -14.2783 C   0  0  0  0  0  0  0  0  0  0  0  0
   13.0065  -13.1534  -14.8109 C   0  0  0  0  0  0  0  0  0  0  0  0
   12.0675  -13.2630  -13.7362 N   0  0  0  0  0  0  0  0  0  0  0  0
   18.2295  -10.0703  -15.8895 C   0  0  0  0  0  0  0  0  0  0  0  0
   19.0927  -10.1162  -14.9430 O   0  0  0  0  0  0  0  0  0  0  0  0
   18.1827   -8.8621  -16.6047 N   0  0  0  0  0  0  0  0  0  0  0  0
   19.0165   -7.7098  -16.2782 C   0  0  1  0  0  0  0  0  0  0  0  0
   19.2441   -6.9843  -17.6090 C   0  0  0  0  0  0  0  0  0  0  0  0
   17.6944   -6.4626  -18.3577 S   0  0  0  0  0  0  0  0  0  0  0  0
   18.3391   -6.7992  -15.3320 C   0  0  0  0  0  0  0  0  0  0  0  0
   17.1735   -7.0362  -14.9617 O   0  0  0  0  0  0  0  0  0  0  0  0
   19.0293   -5.6903  -14.8757 O   0  0  0  0  0  0  0  0  0  0  0  0
  2  1  1  1
  3  2  1  0
  4  3  1  0
  5  4  1  0
  6  5  1  0
  7  6  1  0
  8  9  2  0
  8  2  1  0
 10  8  1  0
 11 12  1  1
 11 10  1  0
 13 12  1  0
 14 13  1  0
 15 16  1  0
 15 14  1  0
 17 11  1  0
 18 17  2  0
 19 17  1  0
 20 19  1  0
 20 21  1  6
 21 22  1  0
 23 25  1  0
 23 20  1  0
 24 23  2  0
M  END
$$$$
