KKC.pdb
     RDKit          3D

 25 24  0  0  1  0  0  0  0  0999 V2000
   27.8500  -23.5980  -16.8461 N   0  0  0  0  0  0  0  0  0  0  0  0
   28.7181  -22.5009  -16.5919 C   0  0  1  0  0  0  0  0  0  0  0  0
   29.4658  -21.9372  -17.7361 C   0  0  0  0  0  0  0  0  0  0  0  0
   29.3397  -22.6975  -19.0047 C   0  0  0  0  0  0  0  0  0  0  0  0
   30.6298  -22.7296  -19.7701 C   0  0  0  0  0  0  0  0  0  0  0  0
   31.0922  -24.1893  -19.9671 C   0  0  0  0  0  0  0  0  0  0  0  0
   32.3337  -24.1954  -20.7096 N   0  0  0  0  0  0  0  0  0  0  0  0
   27.9113  -21.4401  -15.8987 C   0  0  0  0  0  0  0  0  0  0  0  0
   28.3928  -20.2841  -15.6819 O   0  0  0  0  0  0  0  0  0  0  0  0
   26.5859  -21.6832  -15.4597 N   0  0  0  0  0  0  0  0  0  0  0  0
   25.7804  -20.5950  -14.8381 C   0  0  1  0  0  0  0  0  0  0  0  0
   24.6673  -20.2505  -15.8008 C   0  0  0  0  0  0  0  0  0  0  0  0
   24.8923  -18.9559  -16.4755 C   0  0  0  0  0  0  0  0  0  0  0  0
   23.7035  -18.5522  -17.3516 C   0  0  0  0  0  0  0  0  0  0  0  0
   24.0230  -17.2448  -18.0524 C   0  0  0  0  0  0  0  0  0  0  0  0
   22.9057  -16.9117  -18.8827 N   0  0  0  0  0  0  0  0  0  0  0  0
   25.2264  -21.1388  -13.5892 C   0  0  0  0  0  0  0  0  0  0  0  0
   24.5216  -22.2072  -13.6591 O   0  0  0  0  0  0  0  0  0  0  0  0
   25.3914  -20.6089  -12.2986 N   0  0  0  0  0  0  0  0  0  0  0  0
   24.7128  -21.1459  -11.1236 C   0  0  1  0  0  0  0  0  0  0  0  0
   25.4737  -20.5772   -9.9209 C   0  0  0  0  0  0  0  0  0  0  0  0
   27.2368  -20.9159  -10.0264 S   0  0  0  0  0  0  0  0  0  0  0  0
   23.3023  -20.7093  -11.0636 C   0  0  0  0  0  0  0  0  0  0  0  0
   22.8890  -19.8218  -11.8340 O   0  0  0  0  0  0  0  0  0  0  0  0
   22.4658  -21.3080  -10.1383 O   0  0  0  0  0  0  0  0  0  0  0  0
  2  1  1  6
  3  2  1  0
  4  3  1  0
  5  4  1  0
  6  5  1  0
  7  6  1  0
  8  9  2  0
  8  2  1  0
 10  8  1  0
 11 12  1  6
 11 10  1  0
 13 12  1  0
 14 13  1  0
 15 16  1  0
 15 14  1  0
 17 11  1  0
 18 17  2  0
 19 17  1  0
 20 19  1  0
 20 21  1  1
 21 22  1  0
 23 25  1  0
 23 20  1  0
 24 23  2  0
M  END
$$$$
