KKC.pdb
     RDKit          3D

 25 24  0  0  1  0  0  0  0  0999 V2000
   26.1486  -21.6622  -16.8455 N   0  0  0  0  0  0  0  0  0  0  0  0
   26.6960  -21.0441  -15.6880 C   0  0  1  0  0  0  0  0  0  0  0  0
   27.8897  -20.1898  -15.8649 C   0  0  0  0  0  0  0  0  0  0  0  0
   29.0833  -20.8836  -16.4102 C   0  0  0  0  0  0  0  0  0  0  0  0
   28.9100  -21.2456  -17.8559 C   0  0  0  0  0  0  0  0  0  0  0  0
   30.1736  -21.9637  -18.3768 C   0  0  0  0  0  0  0  0  0  0  0  0
   29.9442  -22.3951  -19.7384 N   0  0  0  0  0  0  0  0  0  0  0  0
   25.5863  -20.2885  -15.0140 C   0  0  0  0  0  0  0  0  0  0  0  0
   25.7823  -19.6653  -13.9240 O   0  0  0  0  0  0  0  0  0  0  0  0
   24.2808  -20.2394  -15.5633 N   0  0  0  0  0  0  0  0  0  0  0  0
   23.2206  -19.4077  -14.9280 C   0  0  1  0  0  0  0  0  0  0  0  0
   22.7821  -18.3800  -15.9460 C   0  0  0  0  0  0  0  0  0  0  0  0
   23.7150  -17.2375  -16.0247 C   0  0  0  0  0  0  0  0  0  0  0  0
   23.3344  -16.2630  -17.1423 C   0  0  0  0  0  0  0  0  0  0  0  0
   24.2770  -15.0743  -17.1087 C   0  0  0  0  0  0  0  0  0  0  0  0
   23.8750  -14.1706  -18.1433 N   0  0  0  0  0  0  0  0  0  0  0  0
   22.1085  -20.3137  -14.6043 C   0  0  0  0  0  0  0  0  0  0  0  0
   21.8407  -21.2561  -15.4309 O   0  0  0  0  0  0  0  0  0  0  0  0
   21.2922  -20.2636  -13.4621 N   0  0  0  0  0  0  0  0  0  0  0  0
   20.1996  -21.2006  -13.2215 C   0  0  1  0  0  0  0  0  0  0  0  0
   20.0352  -21.2488  -11.6984 C   0  0  0  0  0  0  0  0  0  0  0  0
   18.8260  -22.4820  -11.1970 S   0  0  0  0  0  0  0  0  0  0  0  0
   18.9393  -20.7357  -13.8371 C   0  0  0  0  0  0  0  0  0  0  0  0
   18.7127  -19.5162  -13.9536 O   0  0  0  0  0  0  0  0  0  0  0  0
   18.0306  -21.6829  -14.2744 O   0  0  0  0  0  0  0  0  0  0  0  0
  2  1  1  6
  3  2  1  0
  4  3  1  0
  5  4  1  0
  6  5  1  0
  7  6  1  0
  8  9  2  0
  8  2  1  0
 10  8  1  0
 11 12  1  6
 11 10  1  0
 13 12  1  0
 14 13  1  0
 15 16  1  0
 15 14  1  0
 17 11  1  0
 18 17  2  0
 19 17  1  0
 20 19  1  0
 20 21  1  1
 21 22  1  0
 23 25  1  0
 23 20  1  0
 24 23  2  0
M  END
$$$$
