KKC.pdb
     RDKit          3D

 25 24  0  0  1  0  0  0  0  0999 V2000
   19.3828  -11.8062  -15.5976 N   0  0  0  0  0  0  0  0  0  0  0  0
   20.3704  -11.3266  -16.5011 C   0  0  1  0  0  0  0  0  0  0  0  0
   20.4936  -12.0062  -17.8083 C   0  0  0  0  0  0  0  0  0  0  0  0
   19.9854  -13.4005  -17.8417 C   0  0  0  0  0  0  0  0  0  0  0  0
   20.2182  -14.0506  -19.1738 C   0  0  0  0  0  0  0  0  0  0  0  0
   19.6430  -15.4833  -19.1711 C   0  0  0  0  0  0  0  0  0  0  0  0
   20.0402  -16.1540  -20.3898 N   0  0  0  0  0  0  0  0  0  0  0  0
   20.1401   -9.8527  -16.6782 C   0  0  0  0  0  0  0  0  0  0  0  0
   20.9770   -9.1264  -17.3005 O   0  0  0  0  0  0  0  0  0  0  0  0
   18.9854   -9.2140  -16.1615 N   0  0  0  0  0  0  0  0  0  0  0  0
   18.7020   -7.7860  -16.4774 C   0  0  1  0  0  0  0  0  0  0  0  0
   17.2021   -7.6035  -16.4377 C   0  0  0  0  0  0  0  0  0  0  0  0
   16.5556   -8.0113  -17.7017 C   0  0  0  0  0  0  0  0  0  0  0  0
   15.0319   -7.8791  -17.6346 C   0  0  0  0  0  0  0  0  0  0  0  0
   14.4345   -8.3296  -18.9547 C   0  0  0  0  0  0  0  0  0  0  0  0
   13.0126   -8.1984  -18.8563 N   0  0  0  0  0  0  0  0  0  0  0  0
   19.3428   -6.9840  -15.4246 C   0  0  0  0  0  0  0  0  0  0  0  0
   19.0406   -7.2405  -14.2056 O   0  0  0  0  0  0  0  0  0  0  0  0
   20.2738   -5.9484  -15.6098 N   0  0  0  0  0  0  0  0  0  0  0  0
   20.8256   -5.1662  -14.5083 C   0  0  1  0  0  0  0  0  0  0  0  0
   22.2573   -5.6810  -14.3231 C   0  0  0  0  0  0  0  0  0  0  0  0
   23.2242   -4.5964  -13.2633 S   0  0  0  0  0  0  0  0  0  0  0  0
   20.8598   -3.7242  -14.8292 C   0  0  0  0  0  0  0  0  0  0  0  0
   20.8227   -2.8789  -13.9148 O   0  0  0  0  0  0  0  0  0  0  0  0
   20.9334   -3.3462  -16.1581 O   0  0  0  0  0  0  0  0  0  0  0  0
  2  1  1  6
  3  2  1  0
  4  3  1  0
  5  4  1  0
  6  5  1  0
  7  6  1  0
  8  9  2  0
  8  2  1  0
 10  8  1  0
 11 12  1  1
 11 10  1  0
 13 12  1  0
 14 13  1  0
 15 16  1  0
 15 14  1  0
 17 11  1  0
 18 17  2  0
 19 17  1  0
 20 19  1  0
 20 21  1  6
 21 22  1  0
 23 25  1  0
 23 20  1  0
 24 23  2  0
M  END
$$$$
