KKC.pdb
     RDKit          3D

 25 24  0  0  1  0  0  0  0  0999 V2000
   18.5267  -15.4954  -18.7214 N   0  0  0  0  0  0  0  0  0  0  0  0
   19.5375  -14.8355  -17.9700 C   0  0  1  0  0  0  0  0  0  0  0  0
   20.9329  -14.9524  -18.4446 C   0  0  0  0  0  0  0  0  0  0  0  0
   21.2471  -16.2103  -19.1674 C   0  0  0  0  0  0  0  0  0  0  0  0
   21.9030  -17.2218  -18.2739 C   0  0  0  0  0  0  0  0  0  0  0  0
   22.3384  -18.4525  -19.0980 C   0  0  0  0  0  0  0  0  0  0  0  0
   22.8959  -19.4452  -18.2056 N   0  0  0  0  0  0  0  0  0  0  0  0
   19.1313  -13.3954  -17.8370 C   0  0  0  0  0  0  0  0  0  0  0  0
   19.0776  -12.6308  -18.8506 O   0  0  0  0  0  0  0  0  0  0  0  0
   18.7923  -12.8323  -16.5814 N   0  0  0  0  0  0  0  0  0  0  0  0
   18.3523  -11.4126  -16.4798 C   0  0  1  0  0  0  0  0  0  0  0  0
   17.1126  -11.3846  -15.6157 C   0  0  0  0  0  0  0  0  0  0  0  0
   16.4148  -10.0843  -15.6810 C   0  0  0  0  0  0  0  0  0  0  0  0
   15.1374  -10.0766  -14.8372 C   0  0  0  0  0  0  0  0  0  0  0  0
   14.3929   -8.7756  -15.0731 C   0  0  0  0  0  0  0  0  0  0  0  0
   13.1308   -8.8690  -14.4045 N   0  0  0  0  0  0  0  0  0  0  0  0
   19.4460  -10.6757  -15.8292 C   0  0  0  0  0  0  0  0  0  0  0  0
   20.3535  -11.3531  -15.2287 O   0  0  0  0  0  0  0  0  0  0  0  0
   19.6135   -9.2813  -15.7963 N   0  0  0  0  0  0  0  0  0  0  0  0
   20.7296   -8.6283  -15.1199 C   0  0  1  0  0  0  0  0  0  0  0  0
   21.9647   -8.9578  -15.9655 C   0  0  0  0  0  0  0  0  0  0  0  0
   23.4051   -8.0204  -15.4356 S   0  0  0  0  0  0  0  0  0  0  0  0
   20.5492   -7.1628  -15.0642 C   0  0  0  0  0  0  0  0  0  0  0  0
   19.8509   -6.5856  -15.9194 O   0  0  0  0  0  0  0  0  0  0  0  0
   21.1709   -6.4602  -14.0473 O   0  0  0  0  0  0  0  0  0  0  0  0
  2  1  1  6
  3  2  1  0
  4  3  1  0
  5  4  1  0
  6  5  1  0
  7  6  1  0
  8  9  2  0
  8  2  1  0
 10  8  1  0
 11 12  1  1
 11 10  1  0
 13 12  1  0
 14 13  1  0
 15 16  1  0
 15 14  1  0
 17 11  1  0
 18 17  2  0
 19 17  1  0
 20 19  1  0
 20 21  1  6
 21 22  1  0
 23 25  1  0
 23 20  1  0
 24 23  2  0
M  END
$$$$
