KKC.pdb
     RDKit          3D

 25 24  0  0  1  0  0  0  0  0999 V2000
   13.8738  -11.5901  -11.2194 N   0  0  0  0  0  0  0  0  0  0  0  0
   15.1016  -10.9066  -11.0028 C   0  0  1  0  0  0  0  0  0  0  0  0
   16.1493  -11.0315  -12.0386 C   0  0  0  0  0  0  0  0  0  0  0  0
   16.6784  -12.4045  -12.2344 C   0  0  0  0  0  0  0  0  0  0  0  0
   15.7986  -13.2217  -13.1340 C   0  0  0  0  0  0  0  0  0  0  0  0
   16.4503  -14.5944  -13.4071 C   0  0  0  0  0  0  0  0  0  0  0  0
   15.6089  -15.3447  -14.3136 N   0  0  0  0  0  0  0  0  0  0  0  0
   14.7732   -9.4648  -10.7380 C   0  0  0  0  0  0  0  0  0  0  0  0
   13.8526   -8.8709  -11.3820 O   0  0  0  0  0  0  0  0  0  0  0  0
   15.4730   -8.7107   -9.7633 N   0  0  0  0  0  0  0  0  0  0  0  0
   15.0791   -7.3055   -9.4636 C   0  0  1  0  0  0  0  0  0  0  0  0
   15.2464   -7.0969   -7.9760 C   0  0  0  0  0  0  0  0  0  0  0  0
   14.8733   -5.7303   -7.5576 C   0  0  0  0  0  0  0  0  0  0  0  0
   13.3941   -5.6318   -7.1757 C   0  0  0  0  0  0  0  0  0  0  0  0
   13.0836   -4.2088   -6.7498 C   0  0  0  0  0  0  0  0  0  0  0  0
   11.6990   -4.1541   -6.3912 N   0  0  0  0  0  0  0  0  0  0  0  0
   16.0036   -6.4383  -10.2089 C   0  0  0  0  0  0  0  0  0  0  0  0
   17.2411   -6.4511   -9.8748 O   0  0  0  0  0  0  0  0  0  0  0  0
   15.6753   -5.5822  -11.2732 N   0  0  0  0  0  0  0  0  0  0  0  0
   16.6404   -4.6864  -11.9024 C   0  0  1  0  0  0  0  0  0  0  0  0
   16.4707   -4.9025  -13.4102 C   0  0  0  0  0  0  0  0  0  0  0  0
   16.7598   -6.6156  -13.8750 S   0  0  0  0  0  0  0  0  0  0  0  0
   16.3635   -3.2723  -11.5747 C   0  0  0  0  0  0  0  0  0  0  0  0
   15.3343   -2.9667  -10.9428 O   0  0  0  0  0  0  0  0  0  0  0  0
   17.2697   -2.3109  -11.9854 O   0  0  0  0  0  0  0  0  0  0  0  0
  2  1  1  6
  3  2  1  0
  4  3  1  0
  5  4  1  0
  6  5  1  0
  7  6  1  0
  8  9  2  0
  8  2  1  0
 10  8  1  0
 11 12  1  1
 11 10  1  0
 13 12  1  0
 14 13  1  0
 15 16  1  0
 15 14  1  0
 17 11  1  0
 18 17  2  0
 19 17  1  0
 20 19  1  0
 20 21  1  6
 21 22  1  0
 23 25  1  0
 23 20  1  0
 24 23  2  0
M  END
$$$$
