ANH.pdb
     RDKit          3D

 24 24  0  0  1  0  0  0  0  0999 V2000
   26.9568  -25.2148  -17.8539 C   0  0  0  0  0  0  0  0  0  0  0  0
   26.9105  -24.0382  -16.8763 C   0  0  2  0  0  0  0  0  0  0  0  0
   26.1713  -24.4004  -15.6902 N   0  0  0  0  0  0  0  0  0  0  0  0
   26.2708  -22.9178  -17.6118 C   0  0  0  0  0  0  0  0  0  0  0  0
   26.5842  -22.7171  -18.8109 O   0  0  0  0  0  0  0  0  0  0  0  0
   22.1327  -22.1976  -20.3457 N   0  0  0  0  0  0  0  0  0  0  0  0
   22.1050  -22.3493  -18.9403 C   0  0  0  0  0  0  0  0  0  0  0  0
   21.0284  -22.1591  -18.3400 O   0  0  0  0  0  0  0  0  0  0  0  0
   23.3190  -22.7213  -18.2203 C   0  0  0  0  0  0  0  0  0  0  0  0
   24.1463  -21.5699  -17.7192 C   0  0  2  0  0  0  0  0  0  0  0  0
   25.3082  -22.0411  -17.0350 N   0  0  0  0  0  0  0  0  0  0  0  0
   23.2980  -20.6694  -16.8956 C   0  0  0  0  0  0  0  0  0  0  0  0
   22.3167  -20.1351  -17.4525 O   0  0  0  0  0  0  0  0  0  0  0  0
   23.5517  -20.3988  -15.5358 N   0  0  0  0  0  0  0  0  0  0  0  0
   22.7679  -19.4361  -14.7535 C   0  0  1  0  0  0  0  0  0  0  0  0
   22.7786  -18.0775  -15.4094 C   0  0  0  0  0  0  0  0  0  0  0  0
   24.1841  -17.6752  -15.6660 C   0  0  0  0  0  0  0  0  0  0  0  0
   25.3086  -18.3638  -15.2570 C   0  0  0  0  0  0  0  0  0  0  0  0
   26.4050  -17.7072  -15.6653 N   0  0  0  0  0  0  0  0  0  0  0  0
   25.9672  -16.6220  -16.3211 C   0  0  0  0  0  0  0  0  0  0  0  0
   24.6236  -16.5923  -16.3277 N   0  0  0  0  0  0  0  0  0  0  0  0
   21.4165  -20.0010  -14.5842 C   0  0  0  0  0  0  0  0  0  0  0  0
   20.4170  -19.3232  -13.8592 O   0  0  0  0  0  0  0  0  0  0  0  0
   21.0497  -21.1075  -15.0601 O   0  0  0  0  0  0  0  0  0  0  0  0
  2  1  1  6
  3  2  1  0
  4  2  1  0
  5  4  2  0
  6  7  1  0
  7  8  2  0
  9  7  1  0
 10  9  1  1
 10 11  1  0
 10 12  1  0
 11  4  1  0
 12 14  1  0
 13 12  2  0
 14 15  1  0
 15 16  1  6
 15 22  1  0
 17 18  2  0
 17 16  1  0
 19 18  1  0
 20 21  2  0
 20 19  1  0
 21 17  1  0
 22 23  1  0
 24 22  2  0
M  END
$$$$
