ANH.pdb
     RDKit          3D

 24 24  0  0  1  0  0  0  0  0999 V2000
   11.5754   -9.4643  -13.7088 C   0  0  0  0  0  0  0  0  0  0  0  0
   12.9924  -10.0386  -13.7780 C   0  0  2  0  0  0  0  0  0  0  0  0
   13.0936  -11.2242  -12.9603 N   0  0  0  0  0  0  0  0  0  0  0  0
   13.8970   -8.9583  -13.3085 C   0  0  0  0  0  0  0  0  0  0  0  0
   14.1059   -7.9703  -14.0543 O   0  0  0  0  0  0  0  0  0  0  0  0
   16.9601   -5.9699  -10.2691 N   0  0  0  0  0  0  0  0  0  0  0  0
   16.1668   -6.8099   -9.4541 C   0  0  0  0  0  0  0  0  0  0  0  0
   16.1618   -6.6156   -8.2222 O   0  0  0  0  0  0  0  0  0  0  0  0
   15.3752   -7.8782  -10.0563 C   0  0  0  0  0  0  0  0  0  0  0  0
   15.3716   -7.9051  -11.5598 C   0  0  2  0  0  0  0  0  0  0  0  0
   14.5540   -8.9710  -12.0453 N   0  0  0  0  0  0  0  0  0  0  0  0
   16.7703   -7.9561  -12.0596 C   0  0  0  0  0  0  0  0  0  0  0  0
   17.4337   -8.9834  -11.8085 O   0  0  0  0  0  0  0  0  0  0  0  0
   17.3677   -6.9107  -12.7923 N   0  0  0  0  0  0  0  0  0  0  0  0
   18.7124   -7.0085  -13.3714 C   0  0  1  0  0  0  0  0  0  0  0  0
   18.6890   -7.8121  -14.6481 C   0  0  0  0  0  0  0  0  0  0  0  0
   20.0549   -7.8387  -15.2282 C   0  0  0  0  0  0  0  0  0  0  0  0
   20.9688   -8.8649  -15.0952 C   0  0  0  0  0  0  0  0  0  0  0  0
   22.0951   -8.5448  -15.7500 N   0  0  0  0  0  0  0  0  0  0  0  0
   21.8841   -7.3326  -16.2844 C   0  0  0  0  0  0  0  0  0  0  0  0
   20.6517   -6.8952  -15.9747 N   0  0  0  0  0  0  0  0  0  0  0  0
   19.2189   -5.6347  -13.5459 C   0  0  0  0  0  0  0  0  0  0  0  0
   18.4904   -4.5154  -13.0984 O   0  0  0  0  0  0  0  0  0  0  0  0
   20.3161   -5.3520  -14.0949 O   0  0  0  0  0  0  0  0  0  0  0  0
  2  1  1  1
  3  2  1  0
  4  2  1  0
  5  4  2  0
  6  7  1  0
  7  8  2  0
  9  7  1  0
 10  9  1  1
 10 11  1  0
 10 12  1  0
 11  4  1  0
 12 14  1  0
 13 12  2  0
 14 15  1  0
 15 16  1  6
 15 22  1  0
 17 18  2  0
 17 16  1  0
 19 18  1  0
 20 21  2  0
 20 19  1  0
 21 17  1  0
 22 23  1  0
 24 22  2  0
M  END
$$$$
