ANH.pdb
     RDKit          3D

 24 24  0  0  1  0  0  0  0  0999 V2000
   29.0148  -26.3715  -16.6486 C   0  0  0  0  0  0  0  0  0  0  0  0
   29.4829  -25.4674  -17.7914 C   0  0  2  0  0  0  0  0  0  0  0  0
   30.8715  -25.7208  -18.0947 N   0  0  0  0  0  0  0  0  0  0  0  0
   29.2578  -24.0735  -17.3310 C   0  0  0  0  0  0  0  0  0  0  0  0
   30.2359  -23.3997  -16.9242 O   0  0  0  0  0  0  0  0  0  0  0  0
   27.1656  -19.3822  -16.4269 N   0  0  0  0  0  0  0  0  0  0  0  0
   26.9440  -19.8719  -17.7346 C   0  0  0  0  0  0  0  0  0  0  0  0
   26.5348  -19.0806  -18.6075 O   0  0  0  0  0  0  0  0  0  0  0  0
   27.1931  -21.2769  -18.0419 C   0  0  0  0  0  0  0  0  0  0  0  0
   27.7644  -22.0894  -16.9128 C   0  0  2  0  0  0  0  0  0  0  0  0
   27.9821  -23.4407  -17.3210 N   0  0  0  0  0  0  0  0  0  0  0  0
   26.8891  -21.9649  -15.7182 C   0  0  0  0  0  0  0  0  0  0  0  0
   25.7715  -22.5194  -15.7636 O   0  0  0  0  0  0  0  0  0  0  0  0
   27.2626  -21.2589  -14.5568 N   0  0  0  0  0  0  0  0  0  0  0  0
   26.4039  -21.1614  -13.3709 C   0  0  1  0  0  0  0  0  0  0  0  0
   27.1120  -20.4340  -12.2548 C   0  0  0  0  0  0  0  0  0  0  0  0
   26.2338  -20.4114  -11.0584 C   0  0  0  0  0  0  0  0  0  0  0  0
   25.0066  -21.0336  -10.9456 C   0  0  0  0  0  0  0  0  0  0  0  0
   24.4993  -20.7986   -9.7261 N   0  0  0  0  0  0  0  0  0  0  0  0
   25.4012  -20.0384   -9.0872 C   0  0  0  0  0  0  0  0  0  0  0  0
   26.4559  -19.7976   -9.8846 N   0  0  0  0  0  0  0  0  0  0  0  0
   25.1440  -20.5200  -13.7897 C   0  0  0  0  0  0  0  0  0  0  0  0
   23.8937  -20.9715  -13.3239 O   0  0  0  0  0  0  0  0  0  0  0  0
   25.0792  -19.5405  -14.5782 O   0  0  0  0  0  0  0  0  0  0  0  0
  2  1  1  1
  3  2  1  0
  4  2  1  0
  5  4  2  0
  6  7  1  0
  7  8  2  0
  9  7  1  0
 10  9  1  6
 10 11  1  0
 10 12  1  0
 11  4  1  0
 12 14  1  0
 13 12  2  0
 14 15  1  0
 15 16  1  1
 15 22  1  0
 17 18  2  0
 17 16  1  0
 19 18  1  0
 20 21  2  0
 20 19  1  0
 21 17  1  0
 22 23  1  0
 24 22  2  0
M  END
$$$$
