ANH.pdb
     RDKit          3D

 24 24  0  0  1  0  0  0  0  0999 V2000
   24.8823  -32.4327   -7.8754 C   0  0  0  0  0  0  0  0  0  0  0  0
   26.2159  -33.1474   -8.1058 C   0  0  2  0  0  0  0  0  0  0  0  0
   25.9968  -34.4259   -8.7397 N   0  0  0  0  0  0  0  0  0  0  0  0
   26.8429  -33.2888   -6.7670 C   0  0  0  0  0  0  0  0  0  0  0  0
   27.0724  -32.2577   -6.0886 O   0  0  0  0  0  0  0  0  0  0  0  0
   25.7890  -33.2056   -3.5260 N   0  0  0  0  0  0  0  0  0  0  0  0
   25.8386  -34.5972   -3.2814 C   0  0  0  0  0  0  0  0  0  0  0  0
   25.0404  -35.0880   -2.4582 O   0  0  0  0  0  0  0  0  0  0  0  0
   26.8094  -35.4298   -3.9851 C   0  0  0  0  0  0  0  0  0  0  0  0
   27.7594  -34.6876   -4.8840 C   0  0  2  0  0  0  0  0  0  0  0  0
   27.2070  -34.5401   -6.1930 N   0  0  0  0  0  0  0  0  0  0  0  0
   29.0840  -35.3613   -4.8721 C   0  0  0  0  0  0  0  0  0  0  0  0
   29.1785  -36.4549   -5.4668 O   0  0  0  0  0  0  0  0  0  0  0  0
   30.2177  -34.8255   -4.2284 N   0  0  0  0  0  0  0  0  0  0  0  0
   31.5361  -35.4684   -4.2670 C   0  0  1  0  0  0  0  0  0  0  0  0
   32.6363  -34.4422   -4.1541 C   0  0  0  0  0  0  0  0  0  0  0  0
   32.8216  -33.7845   -5.4717 C   0  0  0  0  0  0  0  0  0  0  0  0
   32.0824  -34.0352   -6.6104 C   0  0  0  0  0  0  0  0  0  0  0  0
   32.5280  -33.2588   -7.6097 N   0  0  0  0  0  0  0  0  0  0  0  0
   33.5336  -32.5331   -7.0981 C   0  0  0  0  0  0  0  0  0  0  0  0
   33.7203  -32.8433   -5.8038 N   0  0  0  0  0  0  0  0  0  0  0  0
   31.5631  -36.4850   -3.1994 C   0  0  0  0  0  0  0  0  0  0  0  0
   32.4471  -37.5807   -3.2435 O   0  0  0  0  0  0  0  0  0  0  0  0
   30.8186  -36.4618   -2.1843 O   0  0  0  0  0  0  0  0  0  0  0  0
  2  1  1  1
  3  2  1  0
  4  2  1  0
  5  4  2  0
  6  7  1  0
  7  8  2  0
  9  7  1  0
 10  9  1  1
 10 11  1  0
 10 12  1  0
 11  4  1  0
 12 14  1  0
 13 12  2  0
 14 15  1  0
 15 16  1  1
 15 22  1  0
 17 18  2  0
 17 16  1  0
 19 18  1  0
 20 21  2  0
 20 19  1  0
 21 17  1  0
 22 23  1  0
 24 22  2  0
M  END
$$$$
