ANH.pdb
     RDKit          3D

 24 24  0  0  1  0  0  0  0  0999 V2000
   17.6280  -14.6315  -15.7902 C   0  0  0  0  0  0  0  0  0  0  0  0
   18.9292  -14.5336  -16.5898 C   0  0  2  0  0  0  0  0  0  0  0  0
   19.6434  -15.7874  -16.5411 N   0  0  0  0  0  0  0  0  0  0  0  0
   19.7054  -13.4254  -15.9774 C   0  0  0  0  0  0  0  0  0  0  0  0
   19.2819  -12.8945  -14.9214 O   0  0  0  0  0  0  0  0  0  0  0  0
   25.4481  -11.2842  -15.5908 N   0  0  0  0  0  0  0  0  0  0  0  0
   24.0506  -11.2184  -15.3871 C   0  0  0  0  0  0  0  0  0  0  0  0
   23.6004  -10.3549  -14.6079 O   0  0  0  0  0  0  0  0  0  0  0  0
   23.1653  -12.1483  -16.0814 C   0  0  0  0  0  0  0  0  0  0  0  0
   21.6949  -11.8828  -15.9115 C   0  0  2  0  0  0  0  0  0  0  0  0
   20.9200  -12.9171  -16.5198 N   0  0  0  0  0  0  0  0  0  0  0  0
   21.3729  -10.5240  -16.4202 C   0  0  0  0  0  0  0  0  0  0  0  0
   21.3378  -10.3667  -17.6582 O   0  0  0  0  0  0  0  0  0  0  0  0
   21.1105   -9.4254  -15.5772 N   0  0  0  0  0  0  0  0  0  0  0  0
   20.7241   -8.1039  -16.0846 C   0  0  1  0  0  0  0  0  0  0  0  0
   19.2254   -7.9339  -16.0507 C   0  0  0  0  0  0  0  0  0  0  0  0
   18.8805   -6.5807  -16.5538 C   0  0  0  0  0  0  0  0  0  0  0  0
   19.4129   -5.9761  -17.6748 C   0  0  0  0  0  0  0  0  0  0  0  0
   18.8699   -4.7584  -17.8235 N   0  0  0  0  0  0  0  0  0  0  0  0
   18.0090   -4.6072  -16.8059 C   0  0  0  0  0  0  0  0  0  0  0  0
   18.0072   -5.7048  -16.0304 N   0  0  0  0  0  0  0  0  0  0  0  0
   21.4523   -7.0963  -15.2917 C   0  0  0  0  0  0  0  0  0  0  0  0
   21.6672   -7.2574  -13.9089 O   0  0  0  0  0  0  0  0  0  0  0  0
   21.9313   -6.0345  -15.7693 O   0  0  0  0  0  0  0  0  0  0  0  0
  2  1  1  1
  3  2  1  0
  4  2  1  0
  5  4  2  0
  6  7  1  0
  7  8  2  0
  9  7  1  0
 10  9  1  6
 10 11  1  0
 10 12  1  0
 11  4  1  0
 12 14  1  0
 13 12  2  0
 14 15  1  0
 15 16  1  1
 15 22  1  0
 17 18  2  0
 17 16  1  0
 19 18  1  0
 20 21  2  0
 20 19  1  0
 21 17  1  0
 22 23  1  0
 24 22  2  0
M  END
$$$$
