ANH.pdb
     RDKit          3D

 24 24  0  0  1  0  0  0  0  0999 V2000
   13.6953  -15.9519    3.0133 C   0  0  0  0  0  0  0  0  0  0  0  0
   13.2462  -17.4116    2.9132 C   0  0  2  0  0  0  0  0  0  0  0  0
   11.8349  -17.5226    3.1967 N   0  0  0  0  0  0  0  0  0  0  0  0
   14.0726  -18.1637    3.8915 C   0  0  0  0  0  0  0  0  0  0  0  0
   13.5240  -18.6386    4.9161 O   0  0  0  0  0  0  0  0  0  0  0  0
   17.4261  -20.8921    6.5001 N   0  0  0  0  0  0  0  0  0  0  0  0
   17.4321  -21.2278    5.1267 C   0  0  0  0  0  0  0  0  0  0  0  0
   17.9085  -22.3278    4.7826 O   0  0  0  0  0  0  0  0  0  0  0  0
   16.8885  -20.2961    4.1432 C   0  0  0  0  0  0  0  0  0  0  0  0
   16.2856  -19.0415    4.7124 C   0  0  2  0  0  0  0  0  0  0  0  0
   15.4711  -18.3849    3.7399 N   0  0  0  0  0  0  0  0  0  0  0  0
   17.3623  -18.1783    5.2640 C   0  0  0  0  0  0  0  0  0  0  0  0
   18.2017  -17.7217    4.4605 O   0  0  0  0  0  0  0  0  0  0  0  0
   17.4725  -17.8598    6.6326 N   0  0  0  0  0  0  0  0  0  0  0  0
   18.5159  -16.9763    7.1653 C   0  0  1  0  0  0  0  0  0  0  0  0
   17.9383  -15.6373    7.5522 C   0  0  0  0  0  0  0  0  0  0  0  0
   17.7657  -14.8133    6.3297 C   0  0  0  0  0  0  0  0  0  0  0  0
   18.0291  -15.2210    5.0373 C   0  0  0  0  0  0  0  0  0  0  0  0
   17.7585  -14.2164    4.1903 N   0  0  0  0  0  0  0  0  0  0  0  0
   17.3314  -13.1949    4.9477 C   0  0  0  0  0  0  0  0  0  0  0  0
   17.3317  -13.5452    6.2452 N   0  0  0  0  0  0  0  0  0  0  0  0
   19.1668  -17.6853    8.2823 C   0  0  0  0  0  0  0  0  0  0  0  0
   20.2360  -17.1130    8.9988 O   0  0  0  0  0  0  0  0  0  0  0  0
   18.8320  -18.8317    8.6809 O   0  0  0  0  0  0  0  0  0  0  0  0
  2  1  1  1
  3  2  1  0
  4  2  1  0
  5  4  2  0
  6  7  1  0
  7  8  2  0
  9  7  1  0
 10  9  1  6
 10 11  1  0
 10 12  1  0
 11  4  1  0
 12 14  1  0
 13 12  2  0
 14 15  1  0
 15 16  1  1
 15 22  1  0
 17 18  2  0
 17 16  1  0
 19 18  1  0
 20 21  2  0
 20 19  1  0
 21 17  1  0
 22 23  1  0
 24 22  2  0
M  END
$$$$
