ANH.pdb
     RDKit          3D

 24 24  0  0  1  0  0  0  0  0999 V2000
   19.5227  -13.7253  -19.7434 C   0  0  0  0  0  0  0  0  0  0  0  0
   20.5335  -13.0843  -18.7896 C   0  0  2  0  0  0  0  0  0  0  0  0
   21.0678  -14.0749  -17.8853 N   0  0  0  0  0  0  0  0  0  0  0  0
   19.7981  -12.0124  -18.0714 C   0  0  0  0  0  0  0  0  0  0  0  0
   19.5998  -10.9157  -18.6494 O   0  0  0  0  0  0  0  0  0  0  0  0
   15.8595  -11.9910  -16.6071 N   0  0  0  0  0  0  0  0  0  0  0  0
   16.3617  -12.2046  -15.3029 C   0  0  0  0  0  0  0  0  0  0  0  0
   15.6264  -12.7611  -14.4631 O   0  0  0  0  0  0  0  0  0  0  0  0
   17.7148  -11.7772  -14.9607 C   0  0  0  0  0  0  0  0  0  0  0  0
   18.4986  -11.1640  -16.0881 C   0  0  2  0  0  0  0  0  0  0  0  0
   19.2947  -12.1504  -16.7465 N   0  0  0  0  0  0  0  0  0  0  0  0
   19.2859  -10.0116  -15.5773 C   0  0  0  0  0  0  0  0  0  0  0  0
   20.3643  -10.2621  -15.0004 O   0  0  0  0  0  0  0  0  0  0  0  0
   18.8720   -8.6713  -15.7150 N   0  0  0  0  0  0  0  0  0  0  0  0
   19.6833   -7.5347  -15.2643 C   0  0  1  0  0  0  0  0  0  0  0  0
   20.3198   -6.8317  -16.4377 C   0  0  0  0  0  0  0  0  0  0  0  0
   21.0672   -5.6478  -15.9450 C   0  0  0  0  0  0  0  0  0  0  0  0
   22.2140   -5.6790  -15.1771 C   0  0  0  0  0  0  0  0  0  0  0  0
   22.6109   -4.4237  -14.9194 N   0  0  0  0  0  0  0  0  0  0  0  0
   21.7206   -3.6203  -15.5205 C   0  0  0  0  0  0  0  0  0  0  0  0
   20.7811   -4.3509  -16.1448 N   0  0  0  0  0  0  0  0  0  0  0  0
   18.8118   -6.6639  -14.4541 C   0  0  0  0  0  0  0  0  0  0  0  0
   19.3288   -5.8478  -13.4291 O   0  0  0  0  0  0  0  0  0  0  0  0
   17.5648   -6.5773  -14.6049 O   0  0  0  0  0  0  0  0  0  0  0  0
  2  1  1  6
  3  2  1  0
  4  2  1  0
  5  4  2  0
  6  7  1  0
  7  8  2  0
  9  7  1  0
 10  9  1  1
 10 11  1  0
 10 12  1  0
 11  4  1  0
 12 14  1  0
 13 12  2  0
 14 15  1  0
 15 16  1  6
 15 22  1  0
 17 18  2  0
 17 16  1  0
 19 18  1  0
 20 21  2  0
 20 19  1  0
 21 17  1  0
 22 23  1  0
 24 22  2  0
M  END
$$$$
