ANH.pdb
     RDKit          3D

 24 24  0  0  1  0  0  0  0  0999 V2000
   16.6731  -11.8897  -11.6525 C   0  0  0  0  0  0  0  0  0  0  0  0
   15.8039  -11.2870  -10.5463 C   0  0  2  0  0  0  0  0  0  0  0  0
   14.5091  -11.9252  -10.5221 N   0  0  0  0  0  0  0  0  0  0  0  0
   15.7051   -9.8358  -10.8463 C   0  0  0  0  0  0  0  0  0  0  0  0
   15.1016   -9.4668  -11.8835 O   0  0  0  0  0  0  0  0  0  0  0  0
   13.5681   -7.2384   -9.1879 N   0  0  0  0  0  0  0  0  0  0  0  0
   14.6199   -6.6072   -8.4849 C   0  0  0  0  0  0  0  0  0  0  0  0
   14.3582   -6.0277   -7.4120 O   0  0  0  0  0  0  0  0  0  0  0  0
   15.9790   -6.6412   -9.0162 C   0  0  0  0  0  0  0  0  0  0  0  0
   16.1506   -7.4202  -10.2909 C   0  0  2  0  0  0  0  0  0  0  0  0
   16.2601   -8.8182  -10.0191 N   0  0  0  0  0  0  0  0  0  0  0  0
   17.3009   -6.8735  -11.0569 C   0  0  0  0  0  0  0  0  0  0  0  0
   18.4310   -6.9528  -10.5323 O   0  0  0  0  0  0  0  0  0  0  0  0
   17.1703   -6.2797  -12.3285 N   0  0  0  0  0  0  0  0  0  0  0  0
   18.3183   -5.8070  -13.1107 C   0  0  1  0  0  0  0  0  0  0  0  0
   18.5818   -6.7210  -14.2818 C   0  0  0  0  0  0  0  0  0  0  0  0
   19.1579   -7.9942  -13.7818 C   0  0  0  0  0  0  0  0  0  0  0  0
   20.4815   -8.2071  -13.4519 C   0  0  0  0  0  0  0  0  0  0  0  0
   20.6385   -9.4736  -13.0383 N   0  0  0  0  0  0  0  0  0  0  0  0
   19.4257  -10.0424  -13.1103 C   0  0  0  0  0  0  0  0  0  0  0  0
   18.5212   -9.1556  -13.5594 N   0  0  0  0  0  0  0  0  0  0  0  0
   18.0433   -4.4114  -13.4991 C   0  0  0  0  0  0  0  0  0  0  0  0
   19.0272   -3.6040  -14.1023 O   0  0  0  0  0  0  0  0  0  0  0  0
   16.9357   -3.8373  -13.3295 O   0  0  0  0  0  0  0  0  0  0  0  0
  2  1  1  6
  3  2  1  0
  4  2  1  0
  5  4  2  0
  6  7  1  0
  7  8  2  0
  9  7  1  0
 10  9  1  1
 10 11  1  0
 10 12  1  0
 11  4  1  0
 12 14  1  0
 13 12  2  0
 14 15  1  0
 15 16  1  6
 15 22  1  0
 17 18  2  0
 17 16  1  0
 19 18  1  0
 20 21  2  0
 20 19  1  0
 21 17  1  0
 22 23  1  0
 24 22  2  0
M  END
$$$$
