ANH.pdb
     RDKit          3D

 24 24  0  0  1  0  0  0  0  0999 V2000
   22.7236   -6.0553  -19.8250 C   0  0  0  0  0  0  0  0  0  0  0  0
   23.8371   -6.3848  -18.8280 C   0  0  2  0  0  0  0  0  0  0  0  0
   24.2820   -7.7469  -19.0052 N   0  0  0  0  0  0  0  0  0  0  0  0
   23.2606   -6.1575  -17.4783 C   0  0  0  0  0  0  0  0  0  0  0  0
   23.9283   -5.5174  -16.6294 O   0  0  0  0  0  0  0  0  0  0  0  0
   22.8766   -5.4980  -13.5761 N   0  0  0  0  0  0  0  0  0  0  0  0
   22.2422   -4.5015  -14.3530 C   0  0  0  0  0  0  0  0  0  0  0  0
   22.3930   -3.3062  -14.0304 O   0  0  0  0  0  0  0  0  0  0  0  0
   21.4305   -4.8789  -15.5060 C   0  0  0  0  0  0  0  0  0  0  0  0
   21.3875   -6.3518  -15.8062 C   0  0  2  0  0  0  0  0  0  0  0  0
   21.9771   -6.6268  -17.0778 N   0  0  0  0  0  0  0  0  0  0  0  0
   19.9907   -6.8441  -15.6817 C   0  0  0  0  0  0  0  0  0  0  0  0
   19.3747   -6.5671  -14.6318 O   0  0  0  0  0  0  0  0  0  0  0  0
   19.3448   -7.5974  -16.6826 N   0  0  0  0  0  0  0  0  0  0  0  0
   18.6669   -8.8702  -16.4115 C   0  0  1  0  0  0  0  0  0  0  0  0
   19.6517  -10.0132  -16.4140 C   0  0  0  0  0  0  0  0  0  0  0  0
   18.9174  -11.2850  -16.1984 C   0  0  0  0  0  0  0  0  0  0  0  0
   17.5634  -11.4048  -15.9575 C   0  0  0  0  0  0  0  0  0  0  0  0
   17.2505  -12.7013  -15.8123 N   0  0  0  0  0  0  0  0  0  0  0  0
   18.3977  -13.3805  -15.9611 C   0  0  0  0  0  0  0  0  0  0  0  0
   19.4139  -12.5329  -16.1953 N   0  0  0  0  0  0  0  0  0  0  0  0
   17.9379   -8.7198  -15.1387 C   0  0  0  0  0  0  0  0  0  0  0  0
   18.6133   -8.6209  -13.9067 O   0  0  0  0  0  0  0  0  0  0  0  0
   16.6833   -8.6683  -15.0463 O   0  0  0  0  0  0  0  0  0  0  0  0
  2  1  1  6
  3  2  1  0
  4  2  1  0
  5  4  2  0
  6  7  1  0
  7  8  2  0
  9  7  1  0
 10  9  1  6
 10 11  1  0
 10 12  1  0
 11  4  1  0
 12 14  1  0
 13 12  2  0
 14 15  1  0
 15 16  1  1
 15 22  1  0
 17 18  2  0
 17 16  1  0
 19 18  1  0
 20 21  2  0
 20 19  1  0
 21 17  1  0
 22 23  1  0
 24 22  2  0
M  END
$$$$
