ANH.pdb
     RDKit          3D

 24 24  0  0  1  0  0  0  0  0999 V2000
   16.1690  -15.2173  -15.1655 C   0  0  0  0  0  0  0  0  0  0  0  0
   15.4426  -13.8946  -14.9105 C   0  0  2  0  0  0  0  0  0  0  0  0
   14.8315  -13.4152  -16.1275 N   0  0  0  0  0  0  0  0  0  0  0  0
   16.4699  -12.9545  -14.3943 C   0  0  0  0  0  0  0  0  0  0  0  0
   17.1209  -13.2660  -13.3670 O   0  0  0  0  0  0  0  0  0  0  0  0
   19.5226   -8.7979  -13.6143 N   0  0  0  0  0  0  0  0  0  0  0  0
   19.4128   -9.0564  -15.0000 C   0  0  0  0  0  0  0  0  0  0  0  0
   20.1614   -8.4396  -15.7840 O   0  0  0  0  0  0  0  0  0  0  0  0
   18.4387  -10.0277  -15.4883 C   0  0  0  0  0  0  0  0  0  0  0  0
   17.6361  -10.7227  -14.4233 C   0  0  2  0  0  0  0  0  0  0  0  0
   16.7696  -11.7010  -14.9998 N   0  0  0  0  0  0  0  0  0  0  0  0
   16.9235   -9.7122  -13.5987 C   0  0  0  0  0  0  0  0  0  0  0  0
   16.0096   -9.0626  -14.1478 O   0  0  0  0  0  0  0  0  0  0  0  0
   17.2319   -9.4617  -12.2464 N   0  0  0  0  0  0  0  0  0  0  0  0
   16.3995   -8.6188  -11.3805 C   0  0  1  0  0  0  0  0  0  0  0  0
   16.5196   -9.0480   -9.9391 C   0  0  0  0  0  0  0  0  0  0  0  0
   15.6112   -8.2173   -9.1097 C   0  0  0  0  0  0  0  0  0  0  0  0
   14.2576   -8.4268   -8.9373 C   0  0  0  0  0  0  0  0  0  0  0  0
   13.7615   -7.4823   -8.1239 N   0  0  0  0  0  0  0  0  0  0  0  0
   14.7953   -6.6938   -7.7940 C   0  0  0  0  0  0  0  0  0  0  0  0
   15.9208   -7.1295   -8.3854 N   0  0  0  0  0  0  0  0  0  0  0  0
   16.7949   -7.2180  -11.6159 C   0  0  0  0  0  0  0  0  0  0  0  0
   18.1304   -6.8620  -11.8873 O   0  0  0  0  0  0  0  0  0  0  0  0
   15.9946   -6.2462  -11.5952 O   0  0  0  0  0  0  0  0  0  0  0  0
  2  1  1  6
  3  2  1  0
  4  2  1  0
  5  4  2  0
  6  7  1  0
  7  8  2  0
  9  7  1  0
 10  9  1  6
 10 11  1  0
 10 12  1  0
 11  4  1  0
 12 14  1  0
 13 12  2  0
 14 15  1  0
 15 16  1  1
 15 22  1  0
 17 18  2  0
 17 16  1  0
 19 18  1  0
 20 21  2  0
 20 19  1  0
 21 17  1  0
 22 23  1  0
 24 22  2  0
M  END
$$$$
