ANH.pdb
     RDKit          3D

 24 24  0  0  1  0  0  0  0  0999 V2000
   28.2665  -20.7241  -17.0492 C   0  0  0  0  0  0  0  0  0  0  0  0
   27.2191  -21.1369  -16.0124 C   0  0  2  0  0  0  0  0  0  0  0  0
   27.0718  -22.5730  -15.9926 N   0  0  0  0  0  0  0  0  0  0  0  0
   25.9607  -20.4525  -16.4046 C   0  0  0  0  0  0  0  0  0  0  0  0
   25.9142  -19.1982  -16.3773 O   0  0  0  0  0  0  0  0  0  0  0  0
   21.8477  -19.2925  -19.5041 N   0  0  0  0  0  0  0  0  0  0  0  0
   21.7253  -20.5577  -18.8850 C   0  0  0  0  0  0  0  0  0  0  0  0
   20.5983  -21.0890  -18.8291 O   0  0  0  0  0  0  0  0  0  0  0  0
   22.9024  -21.2164  -18.3271 C   0  0  0  0  0  0  0  0  0  0  0  0
   23.5696  -20.4867  -17.1941 C   0  0  2  0  0  0  0  0  0  0  0  0
   24.7831  -21.1388  -16.8167 N   0  0  0  0  0  0  0  0  0  0  0  0
   22.6089  -20.3266  -16.0715 C   0  0  0  0  0  0  0  0  0  0  0  0
   21.5588  -19.6910  -16.2993 O   0  0  0  0  0  0  0  0  0  0  0  0
   22.8311  -20.8535  -14.7832 N   0  0  0  0  0  0  0  0  0  0  0  0
   21.8582  -20.7308  -13.6917 C   0  0  1  0  0  0  0  0  0  0  0  0
   22.4102  -19.8798  -12.5748 C   0  0  0  0  0  0  0  0  0  0  0  0
   23.6212  -20.5350  -12.0205 C   0  0  0  0  0  0  0  0  0  0  0  0
   24.1710  -21.7218  -12.4622 C   0  0  0  0  0  0  0  0  0  0  0  0
   25.2576  -22.0084  -11.7294 N   0  0  0  0  0  0  0  0  0  0  0  0
   25.3823  -21.0107  -10.8415 C   0  0  0  0  0  0  0  0  0  0  0  0
   24.3966  -20.1126  -11.0085 N   0  0  0  0  0  0  0  0  0  0  0  0
   20.6076  -20.2077  -14.2717 C   0  0  0  0  0  0  0  0  0  0  0  0
   19.3642  -20.8219  -14.0250 O   0  0  0  0  0  0  0  0  0  0  0  0
   20.5452  -19.1948  -15.0170 O   0  0  0  0  0  0  0  0  0  0  0  0
  2  1  1  6
  3  2  1  0
  4  2  1  0
  5  4  2  0
  6  7  1  0
  7  8  2  0
  9  7  1  0
 10  9  1  6
 10 11  1  0
 10 12  1  0
 11  4  1  0
 12 14  1  0
 13 12  2  0
 14 15  1  0
 15 16  1  1
 15 22  1  0
 17 18  2  0
 17 16  1  0
 19 18  1  0
 20 21  2  0
 20 19  1  0
 21 17  1  0
 22 23  1  0
 24 22  2  0
M  END
$$$$
