ANH.pdb
     RDKit          3D

 24 24  0  0  1  0  0  0  0  0999 V2000
   27.7498  -17.1617  -18.4956 C   0  0  0  0  0  0  0  0  0  0  0  0
   27.3966  -18.1018  -17.3408 C   0  0  2  0  0  0  0  0  0  0  0  0
   27.5710  -19.4775  -17.7427 N   0  0  0  0  0  0  0  0  0  0  0  0
   25.9874  -17.8001  -16.9817 C   0  0  0  0  0  0  0  0  0  0  0  0
   25.6992  -16.6572  -16.5494 O   0  0  0  0  0  0  0  0  0  0  0  0
   20.6415  -16.9700  -17.3053 N   0  0  0  0  0  0  0  0  0  0  0  0
   21.2207  -18.2597  -17.3025 C   0  0  0  0  0  0  0  0  0  0  0  0
   20.5214  -19.2280  -16.9433 O   0  0  0  0  0  0  0  0  0  0  0  0
   22.6097  -18.4390  -17.7140 C   0  0  0  0  0  0  0  0  0  0  0  0
   23.6063  -18.5209  -16.5909 C   0  0  2  0  0  0  0  0  0  0  0  0
   24.9237  -18.7396  -17.0979 N   0  0  0  0  0  0  0  0  0  0  0  0
   23.1694  -19.5506  -15.6124 C   0  0  0  0  0  0  0  0  0  0  0  0
   23.5021  -20.7332  -15.8347 O   0  0  0  0  0  0  0  0  0  0  0  0
   22.4082  -19.2519  -14.4643 N   0  0  0  0  0  0  0  0  0  0  0  0
   22.1055  -20.2442  -13.4266 C   0  0  1  0  0  0  0  0  0  0  0  0
   22.5921  -19.7749  -12.0779 C   0  0  0  0  0  0  0  0  0  0  0  0
   23.8332  -20.5102  -11.7285 C   0  0  0  0  0  0  0  0  0  0  0  0
   24.4480  -21.4716  -12.5054 C   0  0  0  0  0  0  0  0  0  0  0  0
   25.5443  -21.9188  -11.8746 N   0  0  0  0  0  0  0  0  0  0  0  0
   25.6106  -21.2430  -10.7177 C   0  0  0  0  0  0  0  0  0  0  0  0
   24.5793  -20.3870  -10.6186 N   0  0  0  0  0  0  0  0  0  0  0  0
   20.6550  -20.5049  -13.4747 C   0  0  0  0  0  0  0  0  0  0  0  0
   20.1309  -21.8024  -13.3140 O   0  0  0  0  0  0  0  0  0  0  0  0
   19.7841  -19.6145  -13.6586 O   0  0  0  0  0  0  0  0  0  0  0  0
  2  1  1  6
  3  2  1  0
  4  2  1  0
  5  4  2  0
  6  7  1  0
  7  8  2  0
  9  7  1  0
 10  9  1  6
 10 11  1  0
 10 12  1  0
 11  4  1  0
 12 14  1  0
 13 12  2  0
 14 15  1  0
 15 16  1  1
 15 22  1  0
 17 18  2  0
 17 16  1  0
 19 18  1  0
 20 21  2  0
 20 19  1  0
 21 17  1  0
 22 23  1  0
 24 22  2  0
M  END
$$$$
