ANH.pdb
     RDKit          3D

 24 24  0  0  1  0  0  0  0  0999 V2000
   14.9374  -12.9826  -15.8742 C   0  0  0  0  0  0  0  0  0  0  0  0
   16.4553  -12.9675  -16.0690 C   0  0  2  0  0  0  0  0  0  0  0  0
   17.1235  -13.2781  -14.8274 N   0  0  0  0  0  0  0  0  0  0  0  0
   16.7931  -11.6067  -16.5590 C   0  0  0  0  0  0  0  0  0  0  0  0
   16.8364  -11.3968  -17.7960 O   0  0  0  0  0  0  0  0  0  0  0  0
   16.7743   -6.6132  -17.9097 N   0  0  0  0  0  0  0  0  0  0  0  0
   16.5653   -6.8973  -16.5405 C   0  0  0  0  0  0  0  0  0  0  0  0
   16.6283   -5.9604  -15.7196 O   0  0  0  0  0  0  0  0  0  0  0  0
   16.2827   -8.2635  -16.1114 C   0  0  0  0  0  0  0  0  0  0  0  0
   17.4516   -9.2081  -16.1657 C   0  0  2  0  0  0  0  0  0  0  0  0
   17.0760  -10.5056  -15.7015 N   0  0  0  0  0  0  0  0  0  0  0  0
   18.5989   -8.6225  -15.4243 C   0  0  0  0  0  0  0  0  0  0  0  0
   18.5398   -8.6256  -14.1773 O   0  0  0  0  0  0  0  0  0  0  0  0
   19.7307   -8.0737  -16.0603 N   0  0  0  0  0  0  0  0  0  0  0  0
   20.8806   -7.5390  -15.3221 C   0  0  1  0  0  0  0  0  0  0  0  0
   22.1446   -7.6621  -16.1365 C   0  0  0  0  0  0  0  0  0  0  0  0
   22.5426   -9.0906  -16.1994 C   0  0  0  0  0  0  0  0  0  0  0  0
   21.9559  -10.1240  -15.4966 C   0  0  0  0  0  0  0  0  0  0  0  0
   22.5733  -11.2755  -15.8009 N   0  0  0  0  0  0  0  0  0  0  0  0
   23.5337  -10.9618  -16.6833 C   0  0  0  0  0  0  0  0  0  0  0  0
   23.5244   -9.6411  -16.9320 N   0  0  0  0  0  0  0  0  0  0  0  0
   20.5546   -6.1524  -14.9409 C   0  0  0  0  0  0  0  0  0  0  0  0
   21.0713   -5.5667  -13.7688 O   0  0  0  0  0  0  0  0  0  0  0  0
   19.8069   -5.3937  -15.6121 O   0  0  0  0  0  0  0  0  0  0  0  0
  2  1  1  1
  3  2  1  0
  4  2  1  0
  5  4  2  0
  6  7  1  0
  7  8  2  0
  9  7  1  0
 10  9  1  1
 10 11  1  0
 10 12  1  0
 11  4  1  0
 12 14  1  0
 13 12  2  0
 14 15  1  0
 15 16  1  6
 15 22  1  0
 17 18  2  0
 17 16  1  0
 19 18  1  0
 20 21  2  0
 20 19  1  0
 21 17  1  0
 22 23  1  0
 24 22  2  0
M  END
$$$$
