ANH.pdb
     RDKit          3D

 24 24  0  0  1  0  0  0  0  0999 V2000
   18.2864  -12.0959  -17.6191 C   0  0  0  0  0  0  0  0  0  0  0  0
   19.5866  -11.4892  -17.0862 C   0  0  2  0  0  0  0  0  0  0  0  0
   20.0671  -12.2471  -15.9553 N   0  0  0  0  0  0  0  0  0  0  0  0
   19.2658  -10.0857  -16.7214 C   0  0  0  0  0  0  0  0  0  0  0  0
   18.8971   -9.2906  -17.6203 O   0  0  0  0  0  0  0  0  0  0  0  0
   15.9972   -7.0525  -15.0581 N   0  0  0  0  0  0  0  0  0  0  0  0
   16.6926   -8.1923  -14.5933 C   0  0  0  0  0  0  0  0  0  0  0  0
   16.1295   -9.3033  -14.6577 O   0  0  0  0  0  0  0  0  0  0  0  0
   18.0414   -8.0563  -14.0518 C   0  0  0  0  0  0  0  0  0  0  0  0
   19.1530   -8.2019  -15.0540 C   0  0  2  0  0  0  0  0  0  0  0  0
   19.3508   -9.5748  -15.3950 N   0  0  0  0  0  0  0  0  0  0  0  0
   20.3779   -7.5369  -14.5381 C   0  0  0  0  0  0  0  0  0  0  0  0
   21.0092   -8.1179  -13.6311 O   0  0  0  0  0  0  0  0  0  0  0  0
   20.8475   -6.2993  -15.0222 N   0  0  0  0  0  0  0  0  0  0  0  0
   22.1087   -5.6949  -14.5782 C   0  0  1  0  0  0  0  0  0  0  0  0
   22.9134   -5.2066  -15.7572 C   0  0  0  0  0  0  0  0  0  0  0  0
   23.2706   -6.3658  -16.6127 C   0  0  0  0  0  0  0  0  0  0  0  0
   23.9812   -7.4785  -16.2092 C   0  0  0  0  0  0  0  0  0  0  0  0
   24.1159   -8.3198  -17.2455 N   0  0  0  0  0  0  0  0  0  0  0  0
   23.4959   -7.7367  -18.2823 C   0  0  0  0  0  0  0  0  0  0  0  0
   22.9802   -6.5526  -17.9106 N   0  0  0  0  0  0  0  0  0  0  0  0
   21.7734   -4.6342  -13.6103 C   0  0  0  0  0  0  0  0  0  0  0  0
   22.6996   -4.1943  -12.6446 O   0  0  0  0  0  0  0  0  0  0  0  0
   20.6607   -4.0467  -13.5652 O   0  0  0  0  0  0  0  0  0  0  0  0
  2  1  1  1
  3  2  1  0
  4  2  1  0
  5  4  2  0
  6  7  1  0
  7  8  2  0
  9  7  1  0
 10  9  1  1
 10 11  1  0
 10 12  1  0
 11  4  1  0
 12 14  1  0
 13 12  2  0
 14 15  1  0
 15 16  1  6
 15 22  1  0
 17 18  2  0
 17 16  1  0
 19 18  1  0
 20 21  2  0
 20 19  1  0
 21 17  1  0
 22 23  1  0
 24 22  2  0
M  END
$$$$
