ANH.pdb
     RDKit          3D

 24 24  0  0  1  0  0  0  0  0999 V2000
   14.8464  -13.8903  -19.3606 C   0  0  0  0  0  0  0  0  0  0  0  0
   15.6014  -13.7532  -18.0363 C   0  0  2  0  0  0  0  0  0  0  0  0
   14.7585  -14.1535  -16.9347 N   0  0  0  0  0  0  0  0  0  0  0  0
   16.0059  -12.3274  -17.9397 C   0  0  0  0  0  0  0  0  0  0  0  0
   16.8717  -11.8836  -18.7332 O   0  0  0  0  0  0  0  0  0  0  0  0
   16.3889   -7.3186  -16.4250 N   0  0  0  0  0  0  0  0  0  0  0  0
   15.0507   -7.7608  -16.3128 C   0  0  0  0  0  0  0  0  0  0  0  0
   14.1588   -6.9167  -16.0948 O   0  0  0  0  0  0  0  0  0  0  0  0
   14.7347   -9.1791  -16.4513 C   0  0  0  0  0  0  0  0  0  0  0  0
   15.8863  -10.0566  -16.8576 C   0  0  2  0  0  0  0  0  0  0  0  0
   15.4658  -11.4154  -16.9888 N   0  0  0  0  0  0  0  0  0  0  0  0
   17.0113   -9.8739  -15.9038 C   0  0  0  0  0  0  0  0  0  0  0  0
   16.9646  -10.5098  -14.8305 O   0  0  0  0  0  0  0  0  0  0  0  0
   18.1092   -9.0269  -16.1569 N   0  0  0  0  0  0  0  0  0  0  0  0
   19.3565   -9.0846  -15.3862 C   0  0  1  0  0  0  0  0  0  0  0  0
   20.3200  -10.0707  -15.9988 C   0  0  0  0  0  0  0  0  0  0  0  0
   21.6106  -10.0036  -15.2687 C   0  0  0  0  0  0  0  0  0  0  0  0
   21.7606   -9.9509  -13.8974 C   0  0  0  0  0  0  0  0  0  0  0  0
   23.0666   -9.8980  -13.5947 N   0  0  0  0  0  0  0  0  0  0  0  0
   23.7217   -9.9175  -14.7651 C   0  0  0  0  0  0  0  0  0  0  0  0
   22.8498   -9.9814  -15.7859 N   0  0  0  0  0  0  0  0  0  0  0  0
   19.8878   -7.7117  -15.3028 C   0  0  0  0  0  0  0  0  0  0  0  0
   19.5603   -6.7324  -16.2608 O   0  0  0  0  0  0  0  0  0  0  0  0
   20.6587   -7.3077  -14.3930 O   0  0  0  0  0  0  0  0  0  0  0  0
  2  1  1  6
  3  2  1  0
  4  2  1  0
  5  4  2  0
  6  7  1  0
  7  8  2  0
  9  7  1  0
 10  9  1  1
 10 11  1  0
 10 12  1  0
 11  4  1  0
 12 14  1  0
 13 12  2  0
 14 15  1  0
 15 16  1  6
 15 22  1  0
 17 18  2  0
 17 16  1  0
 19 18  1  0
 20 21  2  0
 20 19  1  0
 21 17  1  0
 22 23  1  0
 24 22  2  0
M  END
$$$$
