ANH.pdb
     RDKit          3D

 24 24  0  0  1  0  0  0  0  0999 V2000
   26.8914  -17.3246  -17.0754 C   0  0  0  0  0  0  0  0  0  0  0  0
   27.8996  -18.1347  -16.2570 C   0  0  2  0  0  0  0  0  0  0  0  0
   28.8518  -18.7791  -17.1301 N   0  0  0  0  0  0  0  0  0  0  0  0
   27.1024  -19.1170  -15.4790 C   0  0  0  0  0  0  0  0  0  0  0  0
   26.4871  -20.0246  -16.0904 O   0  0  0  0  0  0  0  0  0  0  0  0
   25.0687  -21.9323  -11.5841 N   0  0  0  0  0  0  0  0  0  0  0  0
   25.9199  -20.9615  -11.0079 C   0  0  0  0  0  0  0  0  0  0  0  0
   26.1457  -21.0166   -9.7825 O   0  0  0  0  0  0  0  0  0  0  0  0
   26.5148  -19.9220  -11.8423 C   0  0  0  0  0  0  0  0  0  0  0  0
   26.1932  -20.0136  -13.3085 C   0  0  2  0  0  0  0  0  0  0  0  0
   26.9889  -19.0956  -14.0597 N   0  0  0  0  0  0  0  0  0  0  0  0
   24.7317  -19.8332  -13.5091 C   0  0  0  0  0  0  0  0  0  0  0  0
   24.2506  -18.7096  -13.2548 O   0  0  0  0  0  0  0  0  0  0  0  0
   23.8819  -20.8604  -13.9666 N   0  0  0  0  0  0  0  0  0  0  0  0
   22.4374  -20.6794  -14.1497 C   0  0  1  0  0  0  0  0  0  0  0  0
   21.9895  -21.2474  -15.4737 C   0  0  0  0  0  0  0  0  0  0  0  0
   22.2604  -20.2540  -16.5428 C   0  0  0  0  0  0  0  0  0  0  0  0
   22.7315  -18.9704  -16.3518 C   0  0  0  0  0  0  0  0  0  0  0  0
   22.8563  -18.3611  -17.5406 N   0  0  0  0  0  0  0  0  0  0  0  0
   22.4669  -19.2560  -18.4609 C   0  0  0  0  0  0  0  0  0  0  0  0
   22.1038  -20.4061  -17.8680 N   0  0  0  0  0  0  0  0  0  0  0  0
   21.7653  -21.2879  -12.9869 C   0  0  0  0  0  0  0  0  0  0  0  0
   20.5963  -20.7305  -12.4329 O   0  0  0  0  0  0  0  0  0  0  0  0
   22.1675  -22.3295  -12.4050 O   0  0  0  0  0  0  0  0  0  0  0  0
  2  1  1  6
  3  2  1  0
  4  2  1  0
  5  4  2  0
  6  7  1  0
  7  8  2  0
  9  7  1  0
 10  9  1  1
 10 11  1  0
 10 12  1  0
 11  4  1  0
 12 14  1  0
 13 12  2  0
 14 15  1  0
 15 16  1  6
 15 22  1  0
 17 18  2  0
 17 16  1  0
 19 18  1  0
 20 21  2  0
 20 19  1  0
 21 17  1  0
 22 23  1  0
 24 22  2  0
M  END
$$$$
