ANH.pdb
     RDKit          3D

 24 24  0  0  1  0  0  0  0  0999 V2000
   43.1559  -14.0045  -10.5844 C   0  0  0  0  0  0  0  0  0  0  0  0
   43.1265  -12.4888  -10.7944 C   0  0  2  0  0  0  0  0  0  0  0  0
   44.3063  -11.8808  -10.2261 N   0  0  0  0  0  0  0  0  0  0  0  0
   41.8819  -12.0077  -10.1424 C   0  0  0  0  0  0  0  0  0  0  0  0
   40.7721  -12.3803  -10.5958 O   0  0  0  0  0  0  0  0  0  0  0  0
   38.3813  -11.0802   -6.2084 N   0  0  0  0  0  0  0  0  0  0  0  0
   39.5566  -10.2944   -6.1979 C   0  0  0  0  0  0  0  0  0  0  0  0
   39.5503   -9.2183   -5.5673 O   0  0  0  0  0  0  0  0  0  0  0  0
   40.7452  -10.7459   -6.9148 C   0  0  0  0  0  0  0  0  0  0  0  0
   40.6725  -10.6338   -8.4127 C   0  0  2  0  0  0  0  0  0  0  0  0
   41.8657  -11.1359   -9.0165 N   0  0  0  0  0  0  0  0  0  0  0  0
   40.3616   -9.2308   -8.7918 C   0  0  0  0  0  0  0  0  0  0  0  0
   41.3222   -8.4444   -8.9244 O   0  0  0  0  0  0  0  0  0  0  0  0
   39.0501   -8.7602   -9.0040 N   0  0  0  0  0  0  0  0  0  0  0  0
   38.7543   -7.3936   -9.4488 C   0  0  1  0  0  0  0  0  0  0  0  0
   37.4188   -7.3348  -10.1483 C   0  0  0  0  0  0  0  0  0  0  0  0
   37.5954   -7.7458  -11.5636 C   0  0  0  0  0  0  0  0  0  0  0  0
   38.7738   -8.1792  -12.1376 C   0  0  0  0  0  0  0  0  0  0  0  0
   38.5599   -8.4642  -13.4310 N   0  0  0  0  0  0  0  0  0  0  0  0
   37.2626   -8.2107  -13.6591 C   0  0  0  0  0  0  0  0  0  0  0  0
   36.6685   -7.7750  -12.5350 N   0  0  0  0  0  0  0  0  0  0  0  0
   38.8428   -6.5158   -8.2674 C   0  0  0  0  0  0  0  0  0  0  0  0
   39.5712   -5.3105   -8.2944 O   0  0  0  0  0  0  0  0  0  0  0  0
   38.2901   -6.7614   -7.1631 O   0  0  0  0  0  0  0  0  0  0  0  0
  2  1  1  1
  3  2  1  0
  4  2  1  0
  5  4  2  0
  6  7  1  0
  7  8  2  0
  9  7  1  0
 10  9  1  1
 10 11  1  0
 10 12  1  0
 11  4  1  0
 12 14  1  0
 13 12  2  0
 14 15  1  0
 15 16  1  1
 15 22  1  0
 17 18  2  0
 17 16  1  0
 19 18  1  0
 20 21  2  0
 20 19  1  0
 21 17  1  0
 22 23  1  0
 24 22  2  0
M  END
$$$$
