CHQ.pdb
     RDKit          3D

 26 26  0  0  1  0  0  0  0  0999 V2000
   10.5158  -17.9953   16.6916 N   0  0  0  0  0  0  0  0  0  0  0  0
    9.9098  -18.6012   17.8592 C   0  0  1  0  0  0  0  0  0  0  0  0
   10.6675  -19.8740   18.1474 C   0  0  0  0  0  0  0  0  0  0  0  0
    9.5511  -21.2659   17.8053 S   0  0  0  0  0  0  0  0  0  0  0  0
    9.9409  -17.6452   18.9635 C   0  0  0  0  0  0  0  0  0  0  0  0
   10.9497  -16.9256   19.1309 O   0  0  0  0  0  0  0  0  0  0  0  0
    8.8791  -17.4629   19.8936 N   0  0  0  0  0  0  0  0  0  0  0  0
    8.9834  -16.5705   21.0361 C   0  0  1  0  0  0  0  0  0  0  0  0
    7.7779  -15.6663   21.1480 C   0  0  0  0  0  0  0  0  0  0  0  0
    7.7536  -14.5866   20.1691 C   0  0  0  0  0  0  0  0  0  0  0  0
    8.7149  -14.3363   19.2167 C   0  0  0  0  0  0  0  0  0  0  0  0
    8.3513  -13.2481   18.4845 N   0  0  0  0  0  0  0  0  0  0  0  0
    7.1781  -12.8252   18.9742 C   0  0  0  0  0  0  0  0  0  0  0  0
    6.8132  -13.6433   20.0035 N   0  0  0  0  0  0  0  0  0  0  0  0
    9.1878  -17.3707   22.2780 C   0  0  0  0  0  0  0  0  0  0  0  0
    8.9232  -18.5871   22.3523 O   0  0  0  0  0  0  0  0  0  0  0  0
   14.5918  -17.1711   23.0659 N   0  0  0  0  0  0  0  0  0  0  0  0
   14.3675  -17.8209   24.2985 C   0  0  0  0  0  0  0  0  0  0  0  0
   15.3531  -18.2045   24.9694 O   0  0  0  0  0  0  0  0  0  0  0  0
   12.9859  -18.0264   24.7678 C   0  0  0  0  0  0  0  0  0  0  0  0
   11.9238  -17.3890   23.9554 C   0  0  0  0  0  0  0  0  0  0  0  0
   10.5158  -17.4755   24.4282 C   0  0  2  0  0  0  0  0  0  0  0  0
    9.7067  -16.7340   23.4384 N   0  0  0  0  0  0  0  0  0  0  0  0
   10.2193  -17.0919   25.7928 C   0  0  0  0  0  0  0  0  0  0  0  0
    9.7402  -15.9432   26.1050 O   0  0  0  0  0  0  0  0  0  0  0  0
   10.4199  -17.9389   26.8861 O   0  0  0  0  0  0  0  0  0  0  0  0
  2  1  1  6
  3  4  1  0
  3  2  1  0
  5  6  2  0
  5  2  1  0
  7  5  1  0
  8  7  1  0
  8  9  1  1
 10  9  1  0
 10 14  1  0
 11 12  1  0
 11 10  2  0
 12 13  1  0
 13 14  2  0
 15  8  1  0
 16 15  2  0
 18 17  1  0
 18 20  1  0
 19 18  2  0
 21 20  1  0
 22 21  1  6
 22 23  1  0
 23 15  1  0
 24 22  1  0
 24 26  1  0
 25 24  2  0
M  END
$$$$
