CHQ.pdb
     RDKit          3D

 26 26  0  0  1  0  0  0  0  0999 V2000
    6.8756  -18.4547   18.7758 N   0  0  0  0  0  0  0  0  0  0  0  0
    7.2709  -17.7792   19.9944 C   0  0  1  0  0  0  0  0  0  0  0  0
    7.5544  -18.8443   21.0251 C   0  0  0  0  0  0  0  0  0  0  0  0
    8.0768  -18.0062   22.5501 S   0  0  0  0  0  0  0  0  0  0  0  0
    8.4211  -16.9230   19.7140 C   0  0  0  0  0  0  0  0  0  0  0  0
    9.3257  -17.3314   18.9535 O   0  0  0  0  0  0  0  0  0  0  0  0
    8.5983  -15.6189   20.2559 N   0  0  0  0  0  0  0  0  0  0  0  0
    9.8006  -14.8340   20.0304 C   0  0  1  0  0  0  0  0  0  0  0  0
    9.4741  -13.4497   19.5202 C   0  0  0  0  0  0  0  0  0  0  0  0
    8.8232  -13.4366   18.2161 C   0  0  0  0  0  0  0  0  0  0  0  0
    7.5654  -12.9486   17.9445 C   0  0  0  0  0  0  0  0  0  0  0  0
    7.2975  -13.1055   16.6194 N   0  0  0  0  0  0  0  0  0  0  0  0
    8.3746  -13.6839   16.0716 C   0  0  0  0  0  0  0  0  0  0  0  0
    9.3066  -13.8862   17.0474 N   0  0  0  0  0  0  0  0  0  0  0  0
   10.6058  -14.7820   21.2849 C   0  0  0  0  0  0  0  0  0  0  0  0
   10.1572  -14.3391   22.3608 O   0  0  0  0  0  0  0  0  0  0  0  0
   10.4764  -18.4163   24.6951 N   0  0  0  0  0  0  0  0  0  0  0  0
   11.6733  -17.9574   25.2856 C   0  0  0  0  0  0  0  0  0  0  0  0
   12.0482  -18.4643   26.3678 O   0  0  0  0  0  0  0  0  0  0  0  0
   12.4532  -16.9021   24.6152 C   0  0  0  0  0  0  0  0  0  0  0  0
   11.8734  -16.3644   23.3625 C   0  0  0  0  0  0  0  0  0  0  0  0
   12.7046  -15.4602   22.5228 C   0  0  2  0  0  0  0  0  0  0  0  0
   11.9465  -15.2545   21.2710 N   0  0  0  0  0  0  0  0  0  0  0  0
   14.0890  -15.8137   22.2866 C   0  0  0  0  0  0  0  0  0  0  0  0
   14.9764  -15.8113   23.2135 O   0  0  0  0  0  0  0  0  0  0  0  0
   14.5778  -16.1956   21.0343 O   0  0  0  0  0  0  0  0  0  0  0  0
  2  1  1  6
  3  4  1  0
  3  2  1  0
  5  6  2  0
  5  2  1  0
  7  5  1  0
  8  7  1  0
  8  9  1  1
 10  9  1  0
 10 14  1  0
 11 12  1  0
 11 10  2  0
 12 13  1  0
 13 14  2  0
 15  8  1  0
 16 15  2  0
 18 17  1  0
 18 20  1  0
 19 18  2  0
 21 20  1  0
 22 21  1  6
 22 23  1  0
 23 15  1  0
 24 22  1  0
 24 26  1  0
 25 24  2  0
M  END
$$$$
