CHQ.pdb
     RDKit          3D

 26 26  0  0  1  0  0  0  0  0999 V2000
    6.5969  -14.4044   20.8803 N   0  0  0  0  0  0  0  0  0  0  0  0
    8.0247  -14.3114   21.1044 C   0  0  1  0  0  0  0  0  0  0  0  0
    8.2803  -13.0140   21.8316 C   0  0  0  0  0  0  0  0  0  0  0  0
    7.4734  -13.1276   23.4554 S   0  0  0  0  0  0  0  0  0  0  0  0
    8.4693  -15.4890   21.8461 C   0  0  0  0  0  0  0  0  0  0  0  0
    7.6399  -16.1576   22.5007 O   0  0  0  0  0  0  0  0  0  0  0  0
    9.8155  -15.9496   21.8831 N   0  0  0  0  0  0  0  0  0  0  0  0
   10.2264  -17.1057   22.6624 C   0  0  1  0  0  0  0  0  0  0  0  0
   11.3038  -17.8972   21.9582 C   0  0  0  0  0  0  0  0  0  0  0  0
   10.8106  -18.7339   20.8714 C   0  0  0  0  0  0  0  0  0  0  0  0
    9.5059  -18.8151   20.4411 C   0  0  0  0  0  0  0  0  0  0  0  0
    9.4261  -19.6979   19.4083 N   0  0  0  0  0  0  0  0  0  0  0  0
   10.6653  -20.1613   19.1973 C   0  0  0  0  0  0  0  0  0  0  0  0
   11.5110  -19.5721   20.0914 N   0  0  0  0  0  0  0  0  0  0  0  0
   10.6653  -16.6642   24.0178 C   0  0  0  0  0  0  0  0  0  0  0  0
   10.9606  -15.4821   24.2833 O   0  0  0  0  0  0  0  0  0  0  0  0
    9.0444  -13.5817   27.1657 N   0  0  0  0  0  0  0  0  0  0  0  0
    9.2971  -14.3647   28.3125 C   0  0  0  0  0  0  0  0  0  0  0  0
    9.2261  -13.8265   29.4412 O   0  0  0  0  0  0  0  0  0  0  0  0
    9.6307  -15.7914   28.1560 C   0  0  0  0  0  0  0  0  0  0  0  0
    9.8149  -16.2651   26.7645 C   0  0  0  0  0  0  0  0  0  0  0  0
   10.9286  -17.2078   26.4739 C   0  0  2  0  0  0  0  0  0  0  0  0
   10.7565  -17.6208   25.0654 N   0  0  0  0  0  0  0  0  0  0  0  0
   11.1349  -18.3308   27.3647 C   0  0  0  0  0  0  0  0  0  0  0  0
   10.6909  -19.5086   27.1150 O   0  0  0  0  0  0  0  0  0  0  0  0
   11.8404  -18.2338   28.5671 O   0  0  0  0  0  0  0  0  0  0  0  0
  2  1  1  1
  3  4  1  0
  3  2  1  0
  5  6  2  0
  5  2  1  0
  7  5  1  0
  8  7  1  0
  8  9  1  6
 10  9  1  0
 10 14  1  0
 11 12  1  0
 11 10  2  0
 12 13  1  0
 13 14  2  0
 15  8  1  0
 16 15  2  0
 18 17  1  0
 18 20  1  0
 19 18  2  0
 21 20  1  0
 22 21  1  1
 22 23  1  0
 23 15  1  0
 24 22  1  0
 24 26  1  0
 25 24  2  0
M  END
$$$$
