CHQ.pdb
     RDKit          3D

 26 26  0  0  1  0  0  0  0  0999 V2000
   13.1065  -16.9058   16.6591 N   0  0  0  0  0  0  0  0  0  0  0  0
   12.2196  -17.7375   17.4461 C   0  0  1  0  0  0  0  0  0  0  0  0
   12.9411  -19.0361   17.7108 C   0  0  0  0  0  0  0  0  0  0  0  0
   11.9347  -19.9936   18.8818 S   0  0  0  0  0  0  0  0  0  0  0  0
   11.8494  -17.0212   18.6644 C   0  0  0  0  0  0  0  0  0  0  0  0
   12.7330  -16.4468   19.3373 O   0  0  0  0  0  0  0  0  0  0  0  0
   10.5193  -16.9227   19.1613 N   0  0  0  0  0  0  0  0  0  0  0  0
   10.1885  -16.1933   20.3743 C   0  0  1  0  0  0  0  0  0  0  0  0
    8.7054  -15.9219   20.4735 C   0  0  0  0  0  0  0  0  0  0  0  0
    8.2579  -14.7786   19.6880 C   0  0  0  0  0  0  0  0  0  0  0  0
    9.0606  -13.9433   18.9452 C   0  0  0  0  0  0  0  0  0  0  0  0
    8.2917  -12.9910   18.3501 N   0  0  0  0  0  0  0  0  0  0  0  0
    7.0255  -13.2294   18.7171 C   0  0  0  0  0  0  0  0  0  0  0  0
    7.0051  -14.3217   19.5346 N   0  0  0  0  0  0  0  0  0  0  0  0
   10.6909  -16.9439   21.5612 C   0  0  0  0  0  0  0  0  0  0  0  0
   10.6401  -18.1868   21.6490 O   0  0  0  0  0  0  0  0  0  0  0  0
   16.2996  -15.9919   24.5220 N   0  0  0  0  0  0  0  0  0  0  0  0
   15.7090  -17.2566   24.3129 C   0  0  0  0  0  0  0  0  0  0  0  0
   16.4286  -18.2041   23.9218 O   0  0  0  0  0  0  0  0  0  0  0  0
   14.2678  -17.4331   24.5642 C   0  0  0  0  0  0  0  0  0  0  0  0
   13.3567  -16.8240   23.5676 C   0  0  0  0  0  0  0  0  0  0  0  0
   11.8888  -16.9240   23.7888 C   0  0  2  0  0  0  0  0  0  0  0  0
   11.2561  -16.2258   22.6502 N   0  0  0  0  0  0  0  0  0  0  0  0
   11.3518  -16.5082   25.0679 C   0  0  0  0  0  0  0  0  0  0  0  0
   11.6902  -17.0576   26.1771 O   0  0  0  0  0  0  0  0  0  0  0  0
   10.4272  -15.4698   25.2081 O   0  0  0  0  0  0  0  0  0  0  0  0
  2  1  1  6
  3  4  1  0
  3  2  1  0
  5  6  2  0
  5  2  1  0
  7  5  1  0
  8  7  1  0
  8  9  1  1
 10  9  1  0
 10 14  1  0
 11 12  1  0
 11 10  2  0
 12 13  1  0
 13 14  2  0
 15  8  1  0
 16 15  2  0
 18 17  1  0
 18 20  1  0
 19 18  2  0
 21 20  1  0
 22 21  1  1
 22 23  1  0
 23 15  1  0
 24 22  1  0
 24 26  1  0
 25 24  2  0
M  END
$$$$
