CHQ.pdb
     RDKit          3D

 26 26  0  0  1  0  0  0  0  0999 V2000
   17.1813  -12.5361   15.3006 N   0  0  0  0  0  0  0  0  0  0  0  0
   16.3146  -13.6959   15.2624 C   0  0  1  0  0  0  0  0  0  0  0  0
   17.1998  -14.9129   15.1507 C   0  0  0  0  0  0  0  0  0  0  0  0
   18.2195  -14.9887   16.6525 S   0  0  0  0  0  0  0  0  0  0  0  0
   15.4704  -13.7004   16.4548 C   0  0  0  0  0  0  0  0  0  0  0  0
   15.8705  -13.1398   17.4984 O   0  0  0  0  0  0  0  0  0  0  0  0
   14.1873  -14.3126   16.5239 N   0  0  0  0  0  0  0  0  0  0  0  0
   13.4104  -14.3661   17.7511 C   0  0  1  0  0  0  0  0  0  0  0  0
   12.0050  -14.8604   17.4989 C   0  0  0  0  0  0  0  0  0  0  0  0
   11.1516  -14.8496   18.6805 C   0  0  0  0  0  0  0  0  0  0  0  0
   11.5428  -14.5197   19.9580 C   0  0  0  0  0  0  0  0  0  0  0  0
   10.4762  -14.6237   20.7969 N   0  0  0  0  0  0  0  0  0  0  0  0
    9.4330  -15.0135   20.0521 C   0  0  0  0  0  0  0  0  0  0  0  0
    9.8461  -15.1515   18.7589 N   0  0  0  0  0  0  0  0  0  0  0  0
   14.1191  -15.2120   18.7545 C   0  0  0  0  0  0  0  0  0  0  0  0
   14.7007  -16.2740   18.4565 O   0  0  0  0  0  0  0  0  0  0  0  0
   18.7403  -13.7256   21.4727 N   0  0  0  0  0  0  0  0  0  0  0  0
   18.4812  -14.8291   22.3136 C   0  0  0  0  0  0  0  0  0  0  0  0
   19.3673  -15.1993   23.1177 O   0  0  0  0  0  0  0  0  0  0  0  0
   17.1785  -15.5126   22.2306 C   0  0  0  0  0  0  0  0  0  0  0  0
   16.2142  -14.9535   21.2549 C   0  0  0  0  0  0  0  0  0  0  0  0
   14.8699  -15.5807   21.1415 C   0  0  2  0  0  0  0  0  0  0  0  0
   14.1423  -14.8040   20.1161 N   0  0  0  0  0  0  0  0  0  0  0  0
   14.0942  -15.7777   22.3486 C   0  0  0  0  0  0  0  0  0  0  0  0
   13.2532  -14.9123   22.7850 O   0  0  0  0  0  0  0  0  0  0  0  0
   14.1862  -16.9273   23.1378 O   0  0  0  0  0  0  0  0  0  0  0  0
  2  1  1  1
  3  4  1  0
  3  2  1  0
  5  6  2  0
  5  2  1  0
  7  5  1  0
  8  7  1  0
  8  9  1  6
 10  9  1  0
 10 14  1  0
 11 12  1  0
 11 10  2  0
 12 13  1  0
 13 14  2  0
 15  8  1  0
 16 15  2  0
 18 17  1  0
 18 20  1  0
 19 18  2  0
 21 20  1  0
 22 21  1  1
 22 23  1  0
 23 15  1  0
 24 22  1  0
 24 26  1  0
 25 24  2  0
M  END
$$$$
