CHQ.pdb
     RDKit          3D

 26 26  0  0  1  0  0  0  0  0999 V2000
    7.9375  -14.7311   17.5130 N   0  0  0  0  0  0  0  0  0  0  0  0
    8.6157  -14.1756   18.6659 C   0  0  1  0  0  0  0  0  0  0  0  0
    7.7891  -13.0111   19.1535 C   0  0  0  0  0  0  0  0  0  0  0  0
    8.6247  -12.3175   20.6100 S   0  0  0  0  0  0  0  0  0  0  0  0
    8.7889  -15.2238   19.6687 C   0  0  0  0  0  0  0  0  0  0  0  0
    7.8293  -15.9734   19.9526 O   0  0  0  0  0  0  0  0  0  0  0  0
   10.0033  -15.4664   20.3704 N   0  0  0  0  0  0  0  0  0  0  0  0
   10.1295  -16.5021   21.3823 C   0  0  1  0  0  0  0  0  0  0  0  0
   11.1229  -17.5638   20.9711 C   0  0  0  0  0  0  0  0  0  0  0  0
   10.6223  -18.4836   19.9572 C   0  0  0  0  0  0  0  0  0  0  0  0
   10.6820  -18.2966   18.5951 C   0  0  0  0  0  0  0  0  0  0  0  0
   10.1158  -19.3639   17.9685 N   0  0  0  0  0  0  0  0  0  0  0  0
    9.7083  -20.2057   18.9276 C   0  0  0  0  0  0  0  0  0  0  0  0
   10.0179  -19.6676   20.1427 N   0  0  0  0  0  0  0  0  0  0  0  0
   10.4961  -15.8823   22.6885 C   0  0  0  0  0  0  0  0  0  0  0  0
   11.5372  -15.2163   22.8547 O   0  0  0  0  0  0  0  0  0  0  0  0
    6.0385  -12.8607   24.5540 N   0  0  0  0  0  0  0  0  0  0  0  0
    6.8501  -13.5094   25.5091 C   0  0  0  0  0  0  0  0  0  0  0  0
    6.8093  -13.1247   26.7003 O   0  0  0  0  0  0  0  0  0  0  0  0
    7.7176  -14.6227   25.0856 C   0  0  0  0  0  0  0  0  0  0  0  0
    9.1069  -14.5932   25.5987 C   0  0  0  0  0  0  0  0  0  0  0  0
   10.0488  -15.6614   25.1681 C   0  0  2  0  0  0  0  0  0  0  0  0
    9.6310  -16.0483   23.8043 N   0  0  0  0  0  0  0  0  0  0  0  0
   10.2449  -16.8027   26.0377 C   0  0  0  0  0  0  0  0  0  0  0  0
   10.7041  -16.6981   27.2314 O   0  0  0  0  0  0  0  0  0  0  0  0
    9.9446  -18.1138   25.6585 O   0  0  0  0  0  0  0  0  0  0  0  0
  2  1  1  6
  3  4  1  0
  3  2  1  0
  5  6  2  0
  5  2  1  0
  7  5  1  0
  8  7  1  0
  8  9  1  6
 10  9  1  0
 10 14  1  0
 11 12  1  0
 11 10  2  0
 12 13  1  0
 13 14  2  0
 15  8  1  0
 16 15  2  0
 18 17  1  0
 18 20  1  0
 19 18  2  0
 21 20  1  0
 22 21  1  1
 22 23  1  0
 23 15  1  0
 24 22  1  0
 24 26  1  0
 25 24  2  0
M  END
$$$$
