CHQ.pdb
     RDKit          3D

 26 26  0  0  1  0  0  0  0  0999 V2000
    6.0851  -16.0156   26.7863 N   0  0  0  0  0  0  0  0  0  0  0  0
    6.2665  -14.7438   26.1176 C   0  0  1  0  0  0  0  0  0  0  0  0
    6.9935  -13.8333   27.0765 C   0  0  0  0  0  0  0  0  0  0  0  0
    6.1902  -12.2054   27.0025 S   0  0  0  0  0  0  0  0  0  0  0  0
    6.9872  -14.9614   24.8655 C   0  0  0  0  0  0  0  0  0  0  0  0
    7.7822  -15.9215   24.7678 O   0  0  0  0  0  0  0  0  0  0  0  0
    6.8510  -14.1399   23.7112 N   0  0  0  0  0  0  0  0  0  0  0  0
    7.5375  -14.4245   22.4621 C   0  0  1  0  0  0  0  0  0  0  0  0
    7.1188  -13.4711   21.3671 C   0  0  0  0  0  0  0  0  0  0  0  0
    7.6900  -13.7793   20.0620 C   0  0  0  0  0  0  0  0  0  0  0  0
    8.4842  -12.9449   19.3091 C   0  0  0  0  0  0  0  0  0  0  0  0
    8.8278  -13.5731   18.1517 N   0  0  0  0  0  0  0  0  0  0  0  0
    8.2551  -14.7838   18.1824 C   0  0  0  0  0  0  0  0  0  0  0  0
    7.5599  -14.9095   19.3498 N   0  0  0  0  0  0  0  0  0  0  0  0
    9.0120  -14.3935   22.6842 C   0  0  0  0  0  0  0  0  0  0  0  0
    9.5691  -13.5581   23.4236 O   0  0  0  0  0  0  0  0  0  0  0  0
   10.3426  -16.0172   26.8247 N   0  0  0  0  0  0  0  0  0  0  0  0
   11.4373  -16.7693   26.3473 C   0  0  0  0  0  0  0  0  0  0  0  0
   12.3121  -17.1484   27.1595 O   0  0  0  0  0  0  0  0  0  0  0  0
   11.5218  -17.0943   24.9126 C   0  0  0  0  0  0  0  0  0  0  0  0
   10.5584  -16.3943   24.0316 C   0  0  0  0  0  0  0  0  0  0  0  0
   11.0209  -15.9304   22.6957 C   0  0  2  0  0  0  0  0  0  0  0  0
    9.8342  -15.3521   22.0313 N   0  0  0  0  0  0  0  0  0  0  0  0
   11.7370  -16.8621   21.8494 C   0  0  0  0  0  0  0  0  0  0  0  0
   13.0099  -16.8231   21.6917 O   0  0  0  0  0  0  0  0  0  0  0  0
   11.1087  -17.8881   21.1385 O   0  0  0  0  0  0  0  0  0  0  0  0
  2  1  1  1
  3  4  1  0
  3  2  1  0
  5  6  2  0
  5  2  1  0
  7  5  1  0
  8  7  1  0
  8  9  1  6
 10  9  1  0
 10 14  1  0
 11 12  1  0
 11 10  2  0
 12 13  1  0
 13 14  2  0
 15  8  1  0
 16 15  2  0
 18 17  1  0
 18 20  1  0
 19 18  2  0
 21 20  1  0
 22 21  1  1
 22 23  1  0
 23 15  1  0
 24 22  1  0
 24 26  1  0
 25 24  2  0
M  END
$$$$
