CHQ.pdb
     RDKit          3D

 26 26  0  0  1  0  0  0  0  0999 V2000
    5.3670  -16.3888   24.5284 N   0  0  0  0  0  0  0  0  0  0  0  0
    6.2654  -15.2544   24.4684 C   0  0  1  0  0  0  0  0  0  0  0  0
    6.6278  -14.8946   25.8884 C   0  0  0  0  0  0  0  0  0  0  0  0
    6.0454  -13.2004   26.1904 S   0  0  0  0  0  0  0  0  0  0  0  0
    7.4211  -15.6038   23.6458 C   0  0  0  0  0  0  0  0  0  0  0  0
    7.8927  -16.7605   23.7005 O   0  0  0  0  0  0  0  0  0  0  0  0
    8.0733  -14.7018   22.7587 N   0  0  0  0  0  0  0  0  0  0  0  0
    9.2260  -15.0847   21.9604 C   0  0  1  0  0  0  0  0  0  0  0  0
    9.5236  -14.0637   20.8871 C   0  0  0  0  0  0  0  0  0  0  0  0
    8.6118  -14.1146   19.7511 C   0  0  0  0  0  0  0  0  0  0  0  0
    7.7897  -13.0955   19.3273 C   0  0  0  0  0  0  0  0  0  0  0  0
    7.0848  -13.5083   18.2387 N   0  0  0  0  0  0  0  0  0  0  0  0
    7.4625  -14.7687   17.9867 C   0  0  0  0  0  0  0  0  0  0  0  0
    8.3955  -15.1389   18.9110 N   0  0  0  0  0  0  0  0  0  0  0  0
   10.4011  -15.3032   22.8526 C   0  0  0  0  0  0  0  0  0  0  0  0
   10.7740  -14.4676   23.6999 O   0  0  0  0  0  0  0  0  0  0  0  0
    9.5964  -19.1244   26.7552 N   0  0  0  0  0  0  0  0  0  0  0  0
   10.7914  -18.4964   27.1671 C   0  0  0  0  0  0  0  0  0  0  0  0
   11.0218  -18.3769   28.3923 O   0  0  0  0  0  0  0  0  0  0  0  0
   11.7381  -18.0041   26.1509 C   0  0  0  0  0  0  0  0  0  0  0  0
   11.1341  -17.3872   24.9472 C   0  0  0  0  0  0  0  0  0  0  0  0
   12.0290  -16.9721   23.8334 C   0  0  2  0  0  0  0  0  0  0  0  0
   11.1404  -16.5127   22.7456 N   0  0  0  0  0  0  0  0  0  0  0  0
   13.0398  -17.9023   23.3746 C   0  0  0  0  0  0  0  0  0  0  0  0
   12.8537  -18.7029   22.3893 O   0  0  0  0  0  0  0  0  0  0  0  0
   14.3061  -18.0042   23.9569 O   0  0  0  0  0  0  0  0  0  0  0  0
  2  1  1  1
  3  4  1  0
  3  2  1  0
  5  6  2  0
  5  2  1  0
  7  5  1  0
  8  7  1  0
  8  9  1  6
 10  9  1  0
 10 14  1  0
 11 12  1  0
 11 10  2  0
 12 13  1  0
 13 14  2  0
 15  8  1  0
 16 15  2  0
 18 17  1  0
 18 20  1  0
 19 18  2  0
 21 20  1  0
 22 21  1  1
 22 23  1  0
 23 15  1  0
 24 22  1  0
 24 26  1  0
 25 24  2  0
M  END
$$$$
