CHQ.pdb
     RDKit          3D

 26 26  0  0  1  0  0  0  0  0999 V2000
    7.0693  -13.5841   17.9752 N   0  0  0  0  0  0  0  0  0  0  0  0
    8.0481  -13.2316   18.9829 C   0  0  1  0  0  0  0  0  0  0  0  0
    7.3645  -13.3296   20.3246 C   0  0  0  0  0  0  0  0  0  0  0  0
    8.5979  -12.9336   21.5984 S   0  0  0  0  0  0  0  0  0  0  0  0
    9.2042  -14.1158   18.8553 C   0  0  0  0  0  0  0  0  0  0  0  0
    9.0346  -15.3156   18.5470 O   0  0  0  0  0  0  0  0  0  0  0  0
   10.5514  -13.7053   19.0610 N   0  0  0  0  0  0  0  0  0  0  0  0
   11.6795  -14.6047   18.8853 C   0  0  1  0  0  0  0  0  0  0  0  0
   12.5086  -14.2286   17.6794 C   0  0  0  0  0  0  0  0  0  0  0  0
   13.5380  -15.2031   17.3401 C   0  0  0  0  0  0  0  0  0  0  0  0
   13.5561  -16.5260   17.7191 C   0  0  0  0  0  0  0  0  0  0  0  0
   14.6709  -17.1235   17.2167 N   0  0  0  0  0  0  0  0  0  0  0  0
   15.3395  -16.1853   16.5330 C   0  0  0  0  0  0  0  0  0  0  0  0
   14.6470  -15.0120   16.6086 N   0  0  0  0  0  0  0  0  0  0  0  0
   12.4993  -14.6270   20.1311 C   0  0  0  0  0  0  0  0  0  0  0  0
   13.1201  -13.6309   20.5524 O   0  0  0  0  0  0  0  0  0  0  0  0
   11.6748  -19.1662   24.3775 N   0  0  0  0  0  0  0  0  0  0  0  0
   11.2912  -17.8613   24.7545 C   0  0  0  0  0  0  0  0  0  0  0  0
   10.5170  -17.7149   25.7281 O   0  0  0  0  0  0  0  0  0  0  0  0
   11.8129  -16.7072   24.0015 C   0  0  0  0  0  0  0  0  0  0  0  0
   12.7793  -17.0201   22.9232 C   0  0  0  0  0  0  0  0  0  0  0  0
   13.3627  -15.8972   22.1408 C   0  0  2  0  0  0  0  0  0  0  0  0
   12.5879  -15.8296   20.8842 N   0  0  0  0  0  0  0  0  0  0  0  0
   14.7935  -15.8796   21.9171 C   0  0  0  0  0  0  0  0  0  0  0  0
   15.5802  -15.0534   22.5046 O   0  0  0  0  0  0  0  0  0  0  0  0
   15.4431  -16.7634   21.0512 O   0  0  0  0  0  0  0  0  0  0  0  0
  2  1  1  6
  3  4  1  0
  3  2  1  0
  5  6  2  0
  5  2  1  0
  7  5  1  0
  8  7  1  0
  8  9  1  6
 10  9  1  0
 10 14  1  0
 11 12  1  0
 11 10  2  0
 12 13  1  0
 13 14  2  0
 15  8  1  0
 16 15  2  0
 18 17  1  0
 18 20  1  0
 19 18  2  0
 21 20  1  0
 22 21  1  6
 22 23  1  0
 23 15  1  0
 24 22  1  0
 24 26  1  0
 25 24  2  0
M  END
$$$$
