CHQ.pdb
     RDKit          3D

 26 26  0  0  1  0  0  0  0  0999 V2000
    4.7593  -18.8766   20.3842 N   0  0  0  0  0  0  0  0  0  0  0  0
    4.7445  -17.6992   21.2274 C   0  0  1  0  0  0  0  0  0  0  0  0
    4.1832  -18.1137   22.5655 C   0  0  0  0  0  0  0  0  0  0  0  0
    2.3809  -18.2536   22.3843 S   0  0  0  0  0  0  0  0  0  0  0  0
    6.0975  -17.1541   21.3100 C   0  0  0  0  0  0  0  0  0  0  0  0
    7.0700  -17.9290   21.4411 O   0  0  0  0  0  0  0  0  0  0  0  0
    6.4053  -15.7657   21.2510 N   0  0  0  0  0  0  0  0  0  0  0  0
    7.7690  -15.2639   21.2828 C   0  0  1  0  0  0  0  0  0  0  0  0
    7.8797  -13.9106   20.6200 C   0  0  0  0  0  0  0  0  0  0  0  0
    7.9996  -13.9692   19.1685 C   0  0  0  0  0  0  0  0  0  0  0  0
    8.1402  -15.1114   18.4138 C   0  0  0  0  0  0  0  0  0  0  0  0
    8.2215  -14.7747   17.0977 N   0  0  0  0  0  0  0  0  0  0  0  0
    8.1326  -13.4395   17.0324 C   0  0  0  0  0  0  0  0  0  0  0  0
    7.9971  -12.9476   18.2979 N   0  0  0  0  0  0  0  0  0  0  0  0
    8.2551  -15.2273   22.6925 C   0  0  0  0  0  0  0  0  0  0  0  0
    7.6430  -14.6390   23.6058 O   0  0  0  0  0  0  0  0  0  0  0  0
    8.1932  -19.4585   26.1442 N   0  0  0  0  0  0  0  0  0  0  0  0
    8.9530  -18.6363   27.0036 C   0  0  0  0  0  0  0  0  0  0  0  0
    9.0921  -18.9765   28.2009 O   0  0  0  0  0  0  0  0  0  0  0  0
    9.5668  -17.4062   26.4732 C   0  0  0  0  0  0  0  0  0  0  0  0
    9.2589  -17.0855   25.0601 C   0  0  0  0  0  0  0  0  0  0  0  0
    9.9596  -15.9395   24.4202 C   0  0  2  0  0  0  0  0  0  0  0  0
    9.4687  -15.8877   23.0272 N   0  0  0  0  0  0  0  0  0  0  0  0
   11.4038  -15.8757   24.5069 C   0  0  0  0  0  0  0  0  0  0  0  0
   12.0314  -15.7898   25.6229 O   0  0  0  0  0  0  0  0  0  0  0  0
   12.2395  -15.9104   23.3874 O   0  0  0  0  0  0  0  0  0  0  0  0
  2  1  1  6
  3  4  1  0
  3  2  1  0
  5  6  2  0
  5  2  1  0
  7  5  1  0
  8  7  1  0
  8  9  1  1
 10  9  1  0
 10 14  1  0
 11 12  1  0
 11 10  2  0
 12 13  1  0
 13 14  2  0
 15  8  1  0
 16 15  2  0
 18 17  1  0
 18 20  1  0
 19 18  2  0
 21 20  1  0
 22 21  1  6
 22 23  1  0
 23 15  1  0
 24 22  1  0
 24 26  1  0
 25 24  2  0
M  END
$$$$
