CHQ.pdb
     RDKit          3D

 26 26  0  0  1  0  0  0  0  0999 V2000
    8.6698  -14.4650   17.3313 N   0  0  0  0  0  0  0  0  0  0  0  0
    9.5472  -13.7620   18.2443 C   0  0  1  0  0  0  0  0  0  0  0  0
    8.7370  -13.4217   19.4711 C   0  0  0  0  0  0  0  0  0  0  0  0
    7.4985  -12.1848   18.9845 S   0  0  0  0  0  0  0  0  0  0  0  0
   10.7089  -14.6004   18.5308 C   0  0  0  0  0  0  0  0  0  0  0  0
   10.5952  -15.8453   18.5045 O   0  0  0  0  0  0  0  0  0  0  0  0
   12.0012  -14.0951   18.8477 N   0  0  0  0  0  0  0  0  0  0  0  0
   13.1408  -14.9615   19.0991 C   0  0  1  0  0  0  0  0  0  0  0  0
   14.4306  -14.3380   18.6189 C   0  0  0  0  0  0  0  0  0  0  0  0
   14.7968  -14.7072   17.2573 C   0  0  0  0  0  0  0  0  0  0  0  0
   14.3126  -15.7862   16.5536 C   0  0  0  0  0  0  0  0  0  0  0  0
   14.8813  -15.8099   15.3173 N   0  0  0  0  0  0  0  0  0  0  0  0
   15.7096  -14.7590   15.2509 C   0  0  0  0  0  0  0  0  0  0  0  0
   15.6577  -14.0854   16.4364 N   0  0  0  0  0  0  0  0  0  0  0  0
   13.2004  -15.2999   20.5505 C   0  0  0  0  0  0  0  0  0  0  0  0
   13.0846  -14.4455   21.4514 O   0  0  0  0  0  0  0  0  0  0  0  0
   11.3017  -20.7515   22.6389 N   0  0  0  0  0  0  0  0  0  0  0  0
   11.8820  -20.2553   23.8259 C   0  0  0  0  0  0  0  0  0  0  0  0
   11.8116  -20.9450   24.8689 O   0  0  0  0  0  0  0  0  0  0  0  0
   12.5591  -18.9467   23.8088 C   0  0  0  0  0  0  0  0  0  0  0  0
   12.6319  -18.2718   22.4921 C   0  0  0  0  0  0  0  0  0  0  0  0
   13.4592  -17.0416   22.3663 C   0  0  2  0  0  0  0  0  0  0  0  0
   13.3975  -16.6523   20.9420 N   0  0  0  0  0  0  0  0  0  0  0  0
   14.8122  -17.0618   22.8824 C   0  0  0  0  0  0  0  0  0  0  0  0
   15.8468  -17.0811   22.1236 O   0  0  0  0  0  0  0  0  0  0  0  0
   15.1102  -17.0536   24.2477 O   0  0  0  0  0  0  0  0  0  0  0  0
  2  1  1  6
  3  4  1  0
  3  2  1  0
  5  6  2  0
  5  2  1  0
  7  5  1  0
  8  7  1  0
  8  9  1  1
 10  9  1  0
 10 14  1  0
 11 12  1  0
 11 10  2  0
 12 13  1  0
 13 14  2  0
 15  8  1  0
 16 15  2  0
 18 17  1  0
 18 20  1  0
 19 18  2  0
 21 20  1  0
 22 21  1  6
 22 23  1  0
 23 15  1  0
 24 22  1  0
 24 26  1  0
 25 24  2  0
M  END
$$$$
