CHQ.pdb
     RDKit          3D

 26 26  0  0  1  0  0  0  0  0999 V2000
    7.5549  -13.8059   18.1850 N   0  0  0  0  0  0  0  0  0  0  0  0
    8.7424  -13.1957   18.7464 C   0  0  1  0  0  0  0  0  0  0  0  0
    8.2854  -12.1818   19.7664 C   0  0  0  0  0  0  0  0  0  0  0  0
    7.3930  -13.0794   21.0697 S   0  0  0  0  0  0  0  0  0  0  0  0
    9.5953  -14.2400   19.3088 C   0  0  0  0  0  0  0  0  0  0  0  0
    9.1010  -15.3494   19.6061 O   0  0  0  0  0  0  0  0  0  0  0  0
   10.9894  -14.0888   19.5527 N   0  0  0  0  0  0  0  0  0  0  0  0
   11.8027  -15.1464   20.1295 C   0  0  1  0  0  0  0  0  0  0  0  0
   13.2784  -14.8634   19.9702 C   0  0  0  0  0  0  0  0  0  0  0  0
   13.7983  -15.1570   18.6405 C   0  0  0  0  0  0  0  0  0  0  0  0
   13.3097  -16.1064   17.7722 C   0  0  0  0  0  0  0  0  0  0  0  0
   14.0473  -16.0932   16.6286 N   0  0  0  0  0  0  0  0  0  0  0  0
   14.9840  -15.1477   16.7816 C   0  0  0  0  0  0  0  0  0  0  0  0
   14.8316  -14.5758   18.0111 N   0  0  0  0  0  0  0  0  0  0  0  0
   11.4308  -15.3379   21.5612 C   0  0  0  0  0  0  0  0  0  0  0  0
   11.6702  -14.4897   22.4434 O   0  0  0  0  0  0  0  0  0  0  0  0
    6.7046  -18.9454   23.1945 N   0  0  0  0  0  0  0  0  0  0  0  0
    6.7002  -17.6118   22.7327 C   0  0  0  0  0  0  0  0  0  0  0  0
    5.6320  -17.1256   22.2953 O   0  0  0  0  0  0  0  0  0  0  0  0
    7.9449  -16.8246   22.7814 C   0  0  0  0  0  0  0  0  0  0  0  0
    9.1267  -17.5150   23.3478 C   0  0  0  0  0  0  0  0  0  0  0  0
   10.4298  -16.7973   23.3683 C   0  0  2  0  0  0  0  0  0  0  0  0
   10.7735  -16.5353   21.9550 N   0  0  0  0  0  0  0  0  0  0  0  0
   11.5281  -17.3782   24.1124 C   0  0  0  0  0  0  0  0  0  0  0  0
   11.4836  -17.5757   25.3795 O   0  0  0  0  0  0  0  0  0  0  0  0
   12.7265  -17.7817   23.5173 O   0  0  0  0  0  0  0  0  0  0  0  0
  2  1  1  1
  3  4  1  0
  3  2  1  0
  5  6  2  0
  5  2  1  0
  7  5  1  0
  8  7  1  0
  8  9  1  1
 10  9  1  0
 10 14  1  0
 11 12  1  0
 11 10  2  0
 12 13  1  0
 13 14  2  0
 15  8  1  0
 16 15  2  0
 18 17  1  0
 18 20  1  0
 19 18  2  0
 21 20  1  0
 22 21  1  6
 22 23  1  0
 23 15  1  0
 24 22  1  0
 24 26  1  0
 25 24  2  0
M  END
$$$$
