CHQ.pdb
     RDKit          3D

 26 26  0  0  1  0  0  0  0  0999 V2000
    7.3245  -13.4284   18.6837 N   0  0  0  0  0  0  0  0  0  0  0  0
    8.4662  -14.1270   19.2369 C   0  0  1  0  0  0  0  0  0  0  0  0
    9.6381  -13.1774   19.1900 C   0  0  0  0  0  0  0  0  0  0  0  0
   10.2228  -13.1127   17.4711 S   0  0  0  0  0  0  0  0  0  0  0  0
    8.1404  -14.5796   20.5873 C   0  0  0  0  0  0  0  0  0  0  0  0
    7.5736  -13.7982   21.3820 O   0  0  0  0  0  0  0  0  0  0  0  0
    8.4268  -15.8819   21.0851 N   0  0  0  0  0  0  0  0  0  0  0  0
    8.0269  -16.3182   22.4126 C   0  0  1  0  0  0  0  0  0  0  0  0
    7.3509  -17.6690   22.3744 C   0  0  0  0  0  0  0  0  0  0  0  0
    6.9400  -18.1637   23.6824 C   0  0  0  0  0  0  0  0  0  0  0  0
    6.2254  -17.4608   24.6254 C   0  0  0  0  0  0  0  0  0  0  0  0
    6.0285  -18.2461   25.7193 N   0  0  0  0  0  0  0  0  0  0  0  0
    6.6129  -19.4239   25.4620 C   0  0  0  0  0  0  0  0  0  0  0  0
    7.1698  -19.3732   24.2173 N   0  0  0  0  0  0  0  0  0  0  0  0
    9.2140  -16.3226   23.3157 C   0  0  0  0  0  0  0  0  0  0  0  0
   10.3090  -16.8251   22.9939 O   0  0  0  0  0  0  0  0  0  0  0  0
    9.0371  -13.3570   28.9194 N   0  0  0  0  0  0  0  0  0  0  0  0
   10.1764  -14.1729   29.0872 C   0  0  0  0  0  0  0  0  0  0  0  0
   10.7598  -14.1783   30.1954 O   0  0  0  0  0  0  0  0  0  0  0  0
   10.6466  -15.0000   27.9620 C   0  0  0  0  0  0  0  0  0  0  0  0
    9.7713  -15.0271   26.7672 C   0  0  0  0  0  0  0  0  0  0  0  0
   10.2402  -15.7531   25.5562 C   0  0  2  0  0  0  0  0  0  0  0  0
    9.1098  -15.7318   24.6045 N   0  0  0  0  0  0  0  0  0  0  0  0
   10.8095  -17.0748   25.7189 C   0  0  0  0  0  0  0  0  0  0  0  0
   12.0629  -17.3146   25.5847 O   0  0  0  0  0  0  0  0  0  0  0  0
   10.0481  -18.2008   26.0435 O   0  0  0  0  0  0  0  0  0  0  0  0
  2  1  1  1
  3  4  1  0
  3  2  1  0
  5  6  2  0
  5  2  1  0
  7  5  1  0
  8  7  1  0
  8  9  1  6
 10  9  1  0
 10 14  1  0
 11 12  1  0
 11 10  2  0
 12 13  1  0
 13 14  2  0
 15  8  1  0
 16 15  2  0
 18 17  1  0
 18 20  1  0
 19 18  2  0
 21 20  1  0
 22 21  1  1
 22 23  1  0
 23 15  1  0
 24 22  1  0
 24 26  1  0
 25 24  2  0
M  END
$$$$
