CHQ.pdb
     RDKit          3D

 26 26  0  0  1  0  0  0  0  0999 V2000
    5.1343  -13.5057   26.0322 N   0  0  0  0  0  0  0  0  0  0  0  0
    6.4861  -13.1612   25.6428 C   0  0  1  0  0  0  0  0  0  0  0  0
    7.2292  -12.7757   26.8984 C   0  0  0  0  0  0  0  0  0  0  0  0
    6.5625  -11.1826   27.4627 S   0  0  0  0  0  0  0  0  0  0  0  0
    7.0839  -14.2940   24.9401 C   0  0  0  0  0  0  0  0  0  0  0  0
    6.8083  -15.4598   25.2983 O   0  0  0  0  0  0  0  0  0  0  0  0
    7.9842  -14.1708   23.8446 N   0  0  0  0  0  0  0  0  0  0  0  0
    8.7441  -15.2956   23.3251 C   0  0  1  0  0  0  0  0  0  0  0  0
    9.3640  -14.9769   21.9845 C   0  0  0  0  0  0  0  0  0  0  0  0
    8.4379  -14.3810   21.0296 C   0  0  0  0  0  0  0  0  0  0  0  0
    7.1307  -14.7599   20.8259 C   0  0  0  0  0  0  0  0  0  0  0  0
    6.5805  -13.9780   19.8573 N   0  0  0  0  0  0  0  0  0  0  0  0
    7.5325  -13.1223   19.4620 C   0  0  0  0  0  0  0  0  0  0  0  0
    8.6673  -13.3688   20.1784 N   0  0  0  0  0  0  0  0  0  0  0  0
    9.7734  -15.7067   24.3232 C   0  0  0  0  0  0  0  0  0  0  0  0
   10.0474  -15.0286   25.3333 O   0  0  0  0  0  0  0  0  0  0  0  0
    6.9579  -19.1908   26.6764 N   0  0  0  0  0  0  0  0  0  0  0  0
    8.0572  -19.3927   27.5381 C   0  0  0  0  0  0  0  0  0  0  0  0
    7.8880  -20.0459   28.5933 O   0  0  0  0  0  0  0  0  0  0  0  0
    9.3733  -18.8383   27.1750 C   0  0  0  0  0  0  0  0  0  0  0  0
    9.4197  -18.0447   25.9249 C   0  0  0  0  0  0  0  0  0  0  0  0
   10.7311  -17.8574   25.2477 C   0  0  2  0  0  0  0  0  0  0  0  0
   10.4832  -16.9231   24.1298 N   0  0  0  0  0  0  0  0  0  0  0  0
   11.4737  -19.0322   24.8405 C   0  0  0  0  0  0  0  0  0  0  0  0
   11.2476  -19.6522   23.7400 O   0  0  0  0  0  0  0  0  0  0  0  0
   12.5044  -19.5879   25.6032 O   0  0  0  0  0  0  0  0  0  0  0  0
  2  1  1  1
  3  4  1  0
  3  2  1  0
  5  6  2  0
  5  2  1  0
  7  5  1  0
  8  7  1  0
  8  9  1  6
 10  9  1  0
 10 14  1  0
 11 12  1  0
 11 10  2  0
 12 13  1  0
 13 14  2  0
 15  8  1  0
 16 15  2  0
 18 17  1  0
 18 20  1  0
 19 18  2  0
 21 20  1  0
 22 21  1  6
 22 23  1  0
 23 15  1  0
 24 22  1  0
 24 26  1  0
 25 24  2  0
M  END
$$$$
