CHQ.pdb
     RDKit          3D

 26 26  0  0  1  0  0  0  0  0999 V2000
    6.4970  -18.8760   14.9883 N   0  0  0  0  0  0  0  0  0  0  0  0
    7.5158  -18.7903   16.0140 C   0  0  1  0  0  0  0  0  0  0  0  0
    7.4978  -17.3784   16.5463 C   0  0  0  0  0  0  0  0  0  0  0  0
    8.1235  -16.2895   15.2334 S   0  0  0  0  0  0  0  0  0  0  0  0
    7.2495  -19.7989   17.0369 C   0  0  0  0  0  0  0  0  0  0  0  0
    6.0684  -20.0948   17.3214 O   0  0  0  0  0  0  0  0  0  0  0  0
    8.2613  -20.4933   17.7579 N   0  0  0  0  0  0  0  0  0  0  0  0
    7.9652  -21.5963   18.6570 C   0  0  1  0  0  0  0  0  0  0  0  0
    8.3533  -22.9260   18.0534 C   0  0  0  0  0  0  0  0  0  0  0  0
    7.4610  -23.3792   16.9937 C   0  0  0  0  0  0  0  0  0  0  0  0
    7.6437  -23.1843   15.6437 C   0  0  0  0  0  0  0  0  0  0  0  0
    6.6079  -23.7463   14.9629 N   0  0  0  0  0  0  0  0  0  0  0  0
    5.7895  -24.2848   15.8768 C   0  0  0  0  0  0  0  0  0  0  0  0
    6.3111  -24.0604   17.1175 N   0  0  0  0  0  0  0  0  0  0  0  0
    8.6415  -21.3684   19.9667 C   0  0  0  0  0  0  0  0  0  0  0  0
    9.6900  -20.7033   20.0819 O   0  0  0  0  0  0  0  0  0  0  0  0
    5.4251  -22.2703   25.2672 N   0  0  0  0  0  0  0  0  0  0  0  0
    6.6861  -21.9360   25.8058 C   0  0  0  0  0  0  0  0  0  0  0  0
    6.8118  -21.8562   27.0494 O   0  0  0  0  0  0  0  0  0  0  0  0
    7.8210  -21.6961   24.8971 C   0  0  0  0  0  0  0  0  0  0  0  0
    7.5364  -21.8462   23.4511 C   0  0  0  0  0  0  0  0  0  0  0  0
    8.6460  -21.6419   22.4812 C   0  0  2  0  0  0  0  0  0  0  0  0
    8.0790  -21.9274   21.1466 N   0  0  0  0  0  0  0  0  0  0  0  0
    9.9020  -22.3245   22.7129 C   0  0  0  0  0  0  0  0  0  0  0  0
   10.7434  -21.9507   23.6067 O   0  0  0  0  0  0  0  0  0  0  0  0
   10.3040  -23.4521   21.9918 O   0  0  0  0  0  0  0  0  0  0  0  0
  2  1  1  6
  3  4  1  0
  3  2  1  0
  5  6  2  0
  5  2  1  0
  7  5  1  0
  8  7  1  0
  8  9  1  6
 10  9  1  0
 10 14  1  0
 11 12  1  0
 11 10  2  0
 12 13  1  0
 13 14  2  0
 15  8  1  0
 16 15  2  0
 18 17  1  0
 18 20  1  0
 19 18  2  0
 21 20  1  0
 22 21  1  1
 22 23  1  0
 23 15  1  0
 24 22  1  0
 24 26  1  0
 25 24  2  0
M  END
$$$$
