CHQ.pdb
     RDKit          3D

 26 26  0  0  1  0  0  0  0  0999 V2000
    7.7991  -14.0627   17.1563 N   0  0  0  0  0  0  0  0  0  0  0  0
    8.6129  -13.4753   18.2005 C   0  0  1  0  0  0  0  0  0  0  0  0
    7.8070  -13.5211   19.4755 C   0  0  0  0  0  0  0  0  0  0  0  0
    8.8453  -12.8462   20.8048 S   0  0  0  0  0  0  0  0  0  0  0  0
    9.8767  -14.2030   18.2870 C   0  0  0  0  0  0  0  0  0  0  0  0
    9.8807  -15.4498   18.1919 O   0  0  0  0  0  0  0  0  0  0  0  0
   11.1444  -13.5844   18.4773 N   0  0  0  0  0  0  0  0  0  0  0  0
   12.3749  -14.3460   18.6130 C   0  0  1  0  0  0  0  0  0  0  0  0
   13.4760  -13.7840   17.7442 C   0  0  0  0  0  0  0  0  0  0  0  0
   14.6432  -14.6498   17.6321 C   0  0  0  0  0  0  0  0  0  0  0  0
   14.6303  -16.0257   17.6050 C   0  0  0  0  0  0  0  0  0  0  0  0
   15.9060  -16.4862   17.4924 N   0  0  0  0  0  0  0  0  0  0  0  0
   16.7044  -15.4112   17.4498 C   0  0  0  0  0  0  0  0  0  0  0  0
   15.9325  -14.2893   17.5352 N   0  0  0  0  0  0  0  0  0  0  0  0
   12.7771  -14.3935   20.0485 C   0  0  0  0  0  0  0  0  0  0  0  0
   12.8608  -13.3752   20.7634 O   0  0  0  0  0  0  0  0  0  0  0  0
   10.5430  -18.2392   23.9423 N   0  0  0  0  0  0  0  0  0  0  0  0
   11.6339  -17.8230   24.7352 C   0  0  0  0  0  0  0  0  0  0  0  0
   11.7289  -18.2520   25.9080 O   0  0  0  0  0  0  0  0  0  0  0  0
   12.6338  -16.9028   24.1653 C   0  0  0  0  0  0  0  0  0  0  0  0
   12.4339  -16.5263   22.7466 C   0  0  0  0  0  0  0  0  0  0  0  0
   13.4993  -15.7484   22.0585 C   0  0  2  0  0  0  0  0  0  0  0  0
   13.0821  -15.6477   20.6444 N   0  0  0  0  0  0  0  0  0  0  0  0
   14.8745  -16.1776   22.2066 C   0  0  0  0  0  0  0  0  0  0  0  0
   15.4624  -16.9376   21.3561 O   0  0  0  0  0  0  0  0  0  0  0  0
   15.6832  -15.7965   23.2808 O   0  0  0  0  0  0  0  0  0  0  0  0
  2  1  1  6
  3  4  1  0
  3  2  1  0
  5  6  2  0
  5  2  1  0
  7  5  1  0
  8  7  1  0
  8  9  1  6
 10  9  1  0
 10 14  1  0
 11 12  1  0
 11 10  2  0
 12 13  1  0
 13 14  2  0
 15  8  1  0
 16 15  2  0
 18 17  1  0
 18 20  1  0
 19 18  2  0
 21 20  1  0
 22 21  1  1
 22 23  1  0
 23 15  1  0
 24 22  1  0
 24 26  1  0
 25 24  2  0
M  END
$$$$
