CHQ.pdb
     RDKit          3D

 26 26  0  0  1  0  0  0  0  0999 V2000
    4.6291  -19.9631   22.2537 N   0  0  0  0  0  0  0  0  0  0  0  0
    5.0873  -18.8005   22.9859 C   0  0  1  0  0  0  0  0  0  0  0  0
    5.7236  -19.2966   24.2611 C   0  0  0  0  0  0  0  0  0  0  0  0
    6.4753  -17.8660   25.0912 S   0  0  0  0  0  0  0  0  0  0  0  0
    6.0012  -18.0345   22.1418 C   0  0  0  0  0  0  0  0  0  0  0  0
    6.9091  -18.6254   21.5174 O   0  0  0  0  0  0  0  0  0  0  0  0
    5.9371  -16.6231   21.9691 N   0  0  0  0  0  0  0  0  0  0  0  0
    6.9902  -15.8658   21.3133 C   0  0  1  0  0  0  0  0  0  0  0  0
    6.4617  -14.5854   20.7097 C   0  0  0  0  0  0  0  0  0  0  0  0
    7.4190  -13.8928   19.8563 C   0  0  0  0  0  0  0  0  0  0  0  0
    7.9594  -12.6489   20.0902 C   0  0  0  0  0  0  0  0  0  0  0  0
    8.8125  -12.3307   19.0787 N   0  0  0  0  0  0  0  0  0  0  0  0
    8.8043  -13.3630   18.2248 C   0  0  0  0  0  0  0  0  0  0  0  0
    7.9527  -14.3173   18.7002 N   0  0  0  0  0  0  0  0  0  0  0  0
    8.0936  -15.6029   22.2817 C   0  0  0  0  0  0  0  0  0  0  0  0
    7.8924  -15.3389   23.4837 O   0  0  0  0  0  0  0  0  0  0  0  0
    9.6461  -19.3071   25.1066 N   0  0  0  0  0  0  0  0  0  0  0  0
   10.8158  -18.5958   25.4496 C   0  0  0  0  0  0  0  0  0  0  0  0
   11.5304  -19.0206   26.3864 O   0  0  0  0  0  0  0  0  0  0  0  0
   11.1705  -17.3796   24.6971 C   0  0  0  0  0  0  0  0  0  0  0  0
   10.2217  -16.9756   23.6337 C   0  0  0  0  0  0  0  0  0  0  0  0
   10.5654  -15.8085   22.7773 C   0  0  2  0  0  0  0  0  0  0  0  0
    9.4410  -15.6516   21.8311 N   0  0  0  0  0  0  0  0  0  0  0  0
   11.8559  -15.7884   22.1204 C   0  0  0  0  0  0  0  0  0  0  0  0
   11.9924  -15.9014   20.8495 O   0  0  0  0  0  0  0  0  0  0  0  0
   13.0623  -15.6363   22.8092 O   0  0  0  0  0  0  0  0  0  0  0  0
  2  1  1  6
  3  4  1  0
  3  2  1  0
  5  6  2  0
  5  2  1  0
  7  5  1  0
  8  7  1  0
  8  9  1  1
 10  9  1  0
 10 14  1  0
 11 12  1  0
 11 10  2  0
 12 13  1  0
 13 14  2  0
 15  8  1  0
 16 15  2  0
 18 17  1  0
 18 20  1  0
 19 18  2  0
 21 20  1  0
 22 21  1  6
 22 23  1  0
 23 15  1  0
 24 22  1  0
 24 26  1  0
 25 24  2  0
M  END
$$$$
