WHE.pdb
     RDKit          3D

 34 36  0  0  1  0  0  0  0  0999 V2000
   26.6436  -22.2896  -11.5119 N   0  0  0  0  0  0  0  0  0  0  0  0
   26.1151  -21.0730  -10.9991 C   0  0  1  0  0  0  0  0  0  0  0  0
   27.2636  -20.0785  -10.8253 C   0  0  0  0  0  0  0  0  0  0  0  0
   28.2445  -20.4842   -9.8264 C   0  0  0  0  0  0  0  0  0  0  0  0
   29.4792  -21.0439  -10.0686 C   0  0  0  0  0  0  0  0  0  0  0  0
   30.0900  -21.3189   -8.9103 N   0  0  0  0  0  0  0  0  0  0  0  0
   29.2756  -20.9482   -7.8732 C   0  0  0  0  0  0  0  0  0  0  0  0
   29.4533  -21.0195   -6.5123 C   0  0  0  0  0  0  0  0  0  0  0  0
   28.4889  -20.5719   -5.6614 C   0  0  0  0  0  0  0  0  0  0  0  0
   27.3420  -20.0509   -6.2149 C   0  0  0  0  0  0  0  0  0  0  0  0
   27.1511  -19.9738   -7.5800 C   0  0  0  0  0  0  0  0  0  0  0  0
   28.1282  -20.4287   -8.4571 C   0  0  0  0  0  0  0  0  0  0  0  0
   25.1557  -20.4229  -11.9647 C   0  0  0  0  0  0  0  0  0  0  0  0
   24.6201  -19.3589  -11.5895 O   0  0  0  0  0  0  0  0  0  0  0  0
   24.8776  -20.9933  -13.2371 N   0  0  0  0  0  0  0  0  0  0  0  0
   23.9788  -20.2684  -14.1031 C   0  0  1  0  0  0  0  0  0  0  0  0
   24.6331  -20.0901  -15.4939 C   0  0  0  0  0  0  0  0  0  0  0  0
   25.7638  -19.1386  -15.4170 C   0  0  0  0  0  0  0  0  0  0  0  0
   25.7388  -17.7659  -15.4387 C   0  0  0  0  0  0  0  0  0  0  0  0
   26.9990  -17.3155  -15.3451 N   0  0  0  0  0  0  0  0  0  0  0  0
   27.8058  -18.3830  -15.2656 C   0  0  0  0  0  0  0  0  0  0  0  0
   27.0537  -19.4941  -15.3094 N   0  0  0  0  0  0  0  0  0  0  0  0
   22.6996  -20.9802  -14.3497 C   0  0  0  0  0  0  0  0  0  0  0  0
   22.6289  -22.2430  -14.1574 O   0  0  0  0  0  0  0  0  0  0  0  0
   21.5052  -20.3684  -14.7926 N   0  0  0  0  0  0  0  0  0  0  0  0
   20.2203  -20.5411  -14.0992 C   0  0  1  0  0  0  0  0  0  0  0  0
   20.3562  -20.3315  -12.6385 C   0  0  0  0  0  0  0  0  0  0  0  0
   19.1979  -20.6062  -11.7623 C   0  0  0  0  0  0  0  0  0  0  0  0
   17.8712  -20.7310  -12.3351 C   0  0  0  0  0  0  0  0  0  0  0  0
   17.6596  -21.2233  -13.4477 O   0  0  0  0  0  0  0  0  0  0  0  0
   19.1384  -19.8641  -14.7776 C   0  0  0  0  0  0  0  0  0  0  0  0
   18.8971  -18.4778  -14.6644 O   0  0  0  0  0  0  0  0  0  0  0  0
   16.7222  -20.2900  -11.6431 O   0  0  0  0  0  0  0  0  0  0  0  0
   18.3273  -20.4741  -15.5186 O   0  0  0  0  0  0  0  0  0  0  0  0
  2  3  1  0
  2  1  1  6
  3  4  1  0
  4 12  1  0
  5  6  1  0
  5  4  2  0
  6  7  1  0
  7  8  2  0
  8  9  1  0
 10  9  2  0
 11 10  1  0
 12  7  1  0
 12 11  2  0
 13  2  1  0
 14 13  2  0
 15 13  1  0
 16 23  1  0
 16 15  1  0
 16 17  1  6
 18 22  1  0
 18 17  1  0
 19 18  2  0
 20 19  1  0
 20 21  1  0
 21 22  2  0
 23 24  2  0
 25 26  1  0
 25 23  1  0
 26 27  1  1
 28 27  1  0
 29 28  1  0
 29 33  1  0
 30 29  2  0
 31 32  1  0
 31 26  1  0
 34 31  2  0
M  END
$$$$
