WHE.pdb
     RDKit          3D

 34 36  0  0  1  0  0  0  0  0999 V2000
   23.8589  -11.1070  -19.1318 N   0  0  0  0  0  0  0  0  0  0  0  0
   23.4466  -11.7529  -17.9338 C   0  0  1  0  0  0  0  0  0  0  0  0
   23.7174  -10.8146  -16.7570 C   0  0  0  0  0  0  0  0  0  0  0  0
   25.1318  -10.5345  -16.5438 C   0  0  0  0  0  0  0  0  0  0  0  0
   25.7498   -9.3079  -16.6445 C   0  0  0  0  0  0  0  0  0  0  0  0
   27.0617   -9.4385  -16.4158 N   0  0  0  0  0  0  0  0  0  0  0  0
   27.3446  -10.7537  -16.1579 C   0  0  0  0  0  0  0  0  0  0  0  0
   28.5296  -11.3837  -15.8617 C   0  0  0  0  0  0  0  0  0  0  0  0
   28.5642  -12.7252  -15.6303 C   0  0  0  0  0  0  0  0  0  0  0  0
   27.3764  -13.4159  -15.7044 C   0  0  0  0  0  0  0  0  0  0  0  0
   26.1796  -12.7950  -16.0012 C   0  0  0  0  0  0  0  0  0  0  0  0
   26.1333  -11.4269  -16.2401 C   0  0  0  0  0  0  0  0  0  0  0  0
   21.9608  -12.0121  -17.9148 C   0  0  0  0  0  0  0  0  0  0  0  0
   21.2354  -11.1457  -18.4466 O   0  0  0  0  0  0  0  0  0  0  0  0
   21.4160  -13.1841  -17.3222 N   0  0  0  0  0  0  0  0  0  0  0  0
   19.9864  -13.3638  -17.4083 C   0  0  1  0  0  0  0  0  0  0  0  0
   19.6312  -14.8370  -17.0956 C   0  0  0  0  0  0  0  0  0  0  0  0
   18.1758  -15.0618  -17.2418 C   0  0  0  0  0  0  0  0  0  0  0  0
   17.1838  -14.1484  -17.5004 C   0  0  0  0  0  0  0  0  0  0  0  0
   16.0102  -14.7964  -17.5478 N   0  0  0  0  0  0  0  0  0  0  0  0
   16.2552  -16.0951  -17.3236 C   0  0  0  0  0  0  0  0  0  0  0  0
   17.5745  -16.2574  -17.1370 N   0  0  0  0  0  0  0  0  0  0  0  0
   19.2320  -12.5509  -16.4213 C   0  0  0  0  0  0  0  0  0  0  0  0
   19.6924  -12.4030  -15.2370 O   0  0  0  0  0  0  0  0  0  0  0  0
   18.0055  -11.8981  -16.6791 N   0  0  0  0  0  0  0  0  0  0  0  0
   17.3477  -11.0267  -15.6945 C   0  0  1  0  0  0  0  0  0  0  0  0
   17.1940   -9.6444  -16.2059 C   0  0  0  0  0  0  0  0  0  0  0  0
   16.5841   -8.6190  -15.3334 C   0  0  0  0  0  0  0  0  0  0  0  0
   16.3723   -7.2749  -15.8357 C   0  0  0  0  0  0  0  0  0  0  0  0
   16.6651   -6.9295  -16.9848 O   0  0  0  0  0  0  0  0  0  0  0  0
   16.1916  -11.6544  -15.0959 C   0  0  0  0  0  0  0  0  0  0  0  0
   15.8737  -11.5498  -13.7244 O   0  0  0  0  0  0  0  0  0  0  0  0
   15.8087   -6.2633  -15.0279 O   0  0  0  0  0  0  0  0  0  0  0  0
   15.3853  -12.3484  -15.7649 O   0  0  0  0  0  0  0  0  0  0  0  0
  2  3  1  0
  2  1  1  6
  3  4  1  0
  4 12  1  0
  5  6  1  0
  5  4  2  0
  6  7  1  0
  7  8  2  0
  8  9  1  0
 10  9  2  0
 11 10  1  0
 12  7  1  0
 12 11  2  0
 13  2  1  0
 14 13  2  0
 15 13  1  0
 16 23  1  0
 16 15  1  0
 16 17  1  1
 18 22  1  0
 18 17  1  0
 19 18  2  0
 20 19  1  0
 20 21  1  0
 21 22  2  0
 23 24  2  0
 25 26  1  0
 25 23  1  0
 26 27  1  6
 28 27  1  0
 29 28  1  0
 29 33  1  0
 30 29  2  0
 31 32  1  0
 31 26  1  0
 34 31  2  0
M  END
$$$$
