WHE.pdb
     RDKit          3D

 34 36  0  0  1  0  0  0  0  0999 V2000
   26.8239  -20.8273  -21.1357 N   0  0  0  0  0  0  0  0  0  0  0  0
   26.3418  -20.1763  -19.9669 C   0  0  1  0  0  0  0  0  0  0  0  0
   25.5091  -18.9662  -20.3922 C   0  0  0  0  0  0  0  0  0  0  0  0
   26.3077  -17.8398  -20.8593 C   0  0  0  0  0  0  0  0  0  0  0  0
   26.4456  -17.4160  -22.1624 C   0  0  0  0  0  0  0  0  0  0  0  0
   27.2844  -16.3748  -22.2165 N   0  0  0  0  0  0  0  0  0  0  0  0
   27.7220  -16.0836  -20.9516 C   0  0  0  0  0  0  0  0  0  0  0  0
   28.5776  -15.1117  -20.4909 C   0  0  0  0  0  0  0  0  0  0  0  0
   28.8613  -15.0085  -19.1631 C   0  0  0  0  0  0  0  0  0  0  0  0
   28.2621  -15.9078  -18.3113 C   0  0  0  0  0  0  0  0  0  0  0  0
   27.4011  -16.8887  -18.7612 C   0  0  0  0  0  0  0  0  0  0  0  0
   27.1056  -17.0035  -20.1142 C   0  0  0  0  0  0  0  0  0  0  0  0
   25.4069  -21.0564  -19.1754 C   0  0  0  0  0  0  0  0  0  0  0  0
   24.6788  -21.8308  -19.8312 O   0  0  0  0  0  0  0  0  0  0  0  0
   25.3591  -21.0064  -17.7552 N   0  0  0  0  0  0  0  0  0  0  0  0
   24.3176  -21.7632  -17.1028 C   0  0  1  0  0  0  0  0  0  0  0  0
   24.9413  -22.6671  -16.0127 C   0  0  0  0  0  0  0  0  0  0  0  0
   25.8321  -23.6781  -16.6245 C   0  0  0  0  0  0  0  0  0  0  0  0
   26.1560  -23.8546  -17.9471 C   0  0  0  0  0  0  0  0  0  0  0  0
   26.9977  -24.8947  -18.0442 N   0  0  0  0  0  0  0  0  0  0  0  0
   27.2025  -25.3670  -16.8065 C   0  0  0  0  0  0  0  0  0  0  0  0
   26.4924  -24.6261  -15.9411 N   0  0  0  0  0  0  0  0  0  0  0  0
   23.3261  -20.9115  -16.3988 C   0  0  0  0  0  0  0  0  0  0  0  0
   23.7160  -19.8590  -15.7850 O   0  0  0  0  0  0  0  0  0  0  0  0
   21.9368  -21.1642  -16.3431 N   0  0  0  0  0  0  0  0  0  0  0  0
   20.9747  -20.1938  -15.8006 C   0  0  1  0  0  0  0  0  0  0  0  0
   19.5945  -20.4798  -16.2582 C   0  0  0  0  0  0  0  0  0  0  0  0
   18.6067  -20.9925  -15.2855 C   0  0  0  0  0  0  0  0  0  0  0  0
   17.3007  -21.4278  -15.7422 C   0  0  0  0  0  0  0  0  0  0  0  0
   16.6510  -20.8257  -16.6028 O   0  0  0  0  0  0  0  0  0  0  0  0
   21.1788  -19.9525  -14.3902 C   0  0  0  0  0  0  0  0  0  0  0  0
   20.8281  -18.7442  -13.7501 O   0  0  0  0  0  0  0  0  0  0  0  0
   16.6830  -22.5860  -15.2219 O   0  0  0  0  0  0  0  0  0  0  0  0
   21.6937  -20.8121  -13.6318 O   0  0  0  0  0  0  0  0  0  0  0  0
  2  3  1  0
  2  1  1  6
  3  4  1  0
  4 12  1  0
  5  6  1  0
  5  4  2  0
  6  7  1  0
  7  8  2  0
  8  9  1  0
 10  9  2  0
 11 10  1  0
 12  7  1  0
 12 11  2  0
 13  2  1  0
 14 13  2  0
 15 13  1  0
 16 23  1  0
 16 15  1  0
 16 17  1  1
 18 22  1  0
 18 17  1  0
 19 18  2  0
 20 19  1  0
 20 21  1  0
 21 22  2  0
 23 24  2  0
 25 26  1  0
 25 23  1  0
 26 27  1  1
 28 27  1  0
 29 28  1  0
 29 33  1  0
 30 29  2  0
 31 32  1  0
 31 26  1  0
 34 31  2  0
M  END
$$$$
