WHE.pdb
     RDKit          3D

 34 36  0  0  1  0  0  0  0  0999 V2000
   21.7827  -17.3537  -18.1191 N   0  0  0  0  0  0  0  0  0  0  0  0
   22.1102  -16.1168  -17.4983 C   0  0  1  0  0  0  0  0  0  0  0  0
   23.0710  -15.3537  -18.4109 C   0  0  0  0  0  0  0  0  0  0  0  0
   24.4661  -15.7447  -18.2517 C   0  0  0  0  0  0  0  0  0  0  0  0
   25.1891  -16.5653  -19.0887 C   0  0  0  0  0  0  0  0  0  0  0  0
   26.4269  -16.7299  -18.6079 N   0  0  0  0  0  0  0  0  0  0  0  0
   26.5542  -16.0228  -17.4417 C   0  0  0  0  0  0  0  0  0  0  0  0
   27.6195  -15.8704  -16.5870 C   0  0  0  0  0  0  0  0  0  0  0  0
   27.5107  -15.0955  -15.4725 C   0  0  0  0  0  0  0  0  0  0  0  0
   26.3030  -14.4782  -15.2406 C   0  0  0  0  0  0  0  0  0  0  0  0
   25.2253  -14.6232  -16.0911 C   0  0  0  0  0  0  0  0  0  0  0  0
   25.3253  -15.4124  -17.2305 C   0  0  0  0  0  0  0  0  0  0  0  0
   20.9027  -15.2265  -17.3422 C   0  0  0  0  0  0  0  0  0  0  0  0
   19.9703  -15.4016  -18.1543 O   0  0  0  0  0  0  0  0  0  0  0  0
   20.8311  -14.2395  -16.3211 N   0  0  0  0  0  0  0  0  0  0  0  0
   19.6217  -13.4556  -16.2446 C   0  0  1  0  0  0  0  0  0  0  0  0
   19.0678  -13.4998  -14.8005 C   0  0  0  0  0  0  0  0  0  0  0  0
   18.5543  -14.8509  -14.4830 C   0  0  0  0  0  0  0  0  0  0  0  0
   17.7175  -15.6508  -15.2213 C   0  0  0  0  0  0  0  0  0  0  0  0
   17.5158  -16.7930  -14.5472 N   0  0  0  0  0  0  0  0  0  0  0  0
   18.2120  -16.7170  -13.4042 C   0  0  0  0  0  0  0  0  0  0  0  0
   18.8449  -15.5338  -13.3646 N   0  0  0  0  0  0  0  0  0  0  0  0
   19.8335  -12.0181  -16.5493 C   0  0  0  0  0  0  0  0  0  0  0  0
   20.8978  -11.4342  -16.1456 O   0  0  0  0  0  0  0  0  0  0  0  0
   18.9346  -11.2033  -17.2738 N   0  0  0  0  0  0  0  0  0  0  0  0
   19.2769   -9.8444  -17.7187 C   0  0  1  0  0  0  0  0  0  0  0  0
   18.9556   -9.6422  -19.1511 C   0  0  0  0  0  0  0  0  0  0  0  0
   17.6577   -9.0375  -19.5180 C   0  0  0  0  0  0  0  0  0  0  0  0
   17.2569   -8.9749  -20.9106 C   0  0  0  0  0  0  0  0  0  0  0  0
   17.9303   -9.4521  -21.8293 O   0  0  0  0  0  0  0  0  0  0  0  0
   18.8360   -8.8358  -16.7820 C   0  0  0  0  0  0  0  0  0  0  0  0
   19.3889   -7.5384  -16.7202 O   0  0  0  0  0  0  0  0  0  0  0  0
   16.0519   -8.3544  -21.3064 O   0  0  0  0  0  0  0  0  0  0  0  0
   17.9229   -9.0522  -15.9461 O   0  0  0  0  0  0  0  0  0  0  0  0
  2  3  1  0
  2  1  1  6
  3  4  1  0
  4 12  1  0
  5  6  1  0
  5  4  2  0
  6  7  1  0
  7  8  2  0
  8  9  1  0
 10  9  2  0
 11 10  1  0
 12  7  1  0
 12 11  2  0
 13  2  1  0
 14 13  2  0
 15 13  1  0
 16 23  1  0
 16 15  1  0
 16 17  1  1
 18 22  1  0
 18 17  1  0
 19 18  2  0
 20 19  1  0
 20 21  1  0
 21 22  2  0
 23 24  2  0
 25 26  1  0
 25 23  1  0
 26 27  1  6
 28 27  1  0
 29 28  1  0
 29 33  1  0
 30 29  2  0
 31 32  1  0
 31 26  1  0
 34 31  2  0
M  END
$$$$
