WHE.pdb
     RDKit          3D

 34 36  0  0  1  0  0  0  0  0999 V2000
   40.7632   -9.4182   -8.5470 N   0  0  0  0  0  0  0  0  0  0  0  0
   39.5616   -9.1659   -9.2645 C   0  0  1  0  0  0  0  0  0  0  0  0
   38.4556   -8.8370   -8.2610 C   0  0  0  0  0  0  0  0  0  0  0  0
   37.8377  -10.0138   -7.6627 C   0  0  0  0  0  0  0  0  0  0  0  0
   37.7386  -10.2948   -6.3181 C   0  0  0  0  0  0  0  0  0  0  0  0
   37.1410  -11.4791   -6.1430 N   0  0  0  0  0  0  0  0  0  0  0  0
   36.8296  -12.0111   -7.3662 C   0  0  0  0  0  0  0  0  0  0  0  0
   36.2108  -13.1891   -7.7102 C   0  0  0  0  0  0  0  0  0  0  0  0
   35.9971  -13.5055   -9.0173 C   0  0  0  0  0  0  0  0  0  0  0  0
   36.4215  -12.6066   -9.9686 C   0  0  0  0  0  0  0  0  0  0  0  0
   37.0444  -11.4202   -9.6363 C   0  0  0  0  0  0  0  0  0  0  0  0
   37.2684  -11.0881   -8.3057 C   0  0  0  0  0  0  0  0  0  0  0  0
   39.6790   -7.9531  -10.1536 C   0  0  0  0  0  0  0  0  0  0  0  0
   40.6616   -7.2081   -9.9559 O   0  0  0  0  0  0  0  0  0  0  0  0
   38.7195   -7.6746  -11.1652 N   0  0  0  0  0  0  0  0  0  0  0  0
   38.9163   -6.4798  -11.9507 C   0  0  1  0  0  0  0  0  0  0  0  0
   38.5298   -6.7596  -13.4226 C   0  0  0  0  0  0  0  0  0  0  0  0
   39.5157   -7.6641  -14.0548 C   0  0  0  0  0  0  0  0  0  0  0  0
   40.8740   -7.5068  -14.1802 C   0  0  0  0  0  0  0  0  0  0  0  0
   41.3686   -8.5744  -14.8245 N   0  0  0  0  0  0  0  0  0  0  0  0
   40.3428   -9.3916  -15.1013 C   0  0  0  0  0  0  0  0  0  0  0  0
   39.2135   -8.8374  -14.6326 N   0  0  0  0  0  0  0  0  0  0  0  0
   38.0603   -5.3461  -11.5195 C   0  0  0  0  0  0  0  0  0  0  0  0
   36.8141   -5.5384  -11.3037 O   0  0  0  0  0  0  0  0  0  0  0  0
   38.5120   -4.0227  -11.3155 N   0  0  0  0  0  0  0  0  0  0  0  0
   37.6432   -2.9595  -10.7899 C   0  0  1  0  0  0  0  0  0  0  0  0
   38.4314   -1.8580  -10.1888 C   0  0  0  0  0  0  0  0  0  0  0  0
   37.7201   -0.7282   -9.5545 C   0  0  0  0  0  0  0  0  0  0  0  0
   38.4699    0.4033   -9.0435 C   0  0  0  0  0  0  0  0  0  0  0  0
   39.2352    0.3255   -8.0773 O   0  0  0  0  0  0  0  0  0  0  0  0
   36.5917   -2.6057  -11.7164 C   0  0  0  0  0  0  0  0  0  0  0  0
   35.3074   -2.1840  -11.3097 O   0  0  0  0  0  0  0  0  0  0  0  0
   38.3689    1.6836   -9.6302 O   0  0  0  0  0  0  0  0  0  0  0  0
   36.7522   -2.6560  -12.9618 O   0  0  0  0  0  0  0  0  0  0  0  0
  2  3  1  0
  2  1  1  1
  3  4  1  0
  4 12  1  0
  5  6  1  0
  5  4  2  0
  6  7  1  0
  7  8  2  0
  8  9  1  0
 10  9  2  0
 11 10  1  0
 12  7  1  0
 12 11  2  0
 13  2  1  0
 14 13  2  0
 15 13  1  0
 16 23  1  0
 16 15  1  0
 16 17  1  6
 18 22  1  0
 18 17  1  0
 19 18  2  0
 20 19  1  0
 20 21  1  0
 21 22  2  0
 23 24  2  0
 25 26  1  0
 25 23  1  0
 26 27  1  6
 28 27  1  0
 29 28  1  0
 29 33  1  0
 30 29  2  0
 31 32  1  0
 31 26  1  0
 34 31  2  0
M  END
$$$$
