WHE.pdb
     RDKit          3D

 34 36  0  0  1  0  0  0  0  0999 V2000
   14.6630  -15.9022    4.9032 N   0  0  0  0  0  0  0  0  0  0  0  0
   15.9677  -16.4483    4.7550 C   0  0  1  0  0  0  0  0  0  0  0  0
   16.9037  -15.7465    5.7398 C   0  0  0  0  0  0  0  0  0  0  0  0
   17.6536  -14.6436    5.1517 C   0  0  0  0  0  0  0  0  0  0  0  0
   17.7201  -13.3519    5.6247 C   0  0  0  0  0  0  0  0  0  0  0  0
   18.4739  -12.6061    4.8086 N   0  0  0  0  0  0  0  0  0  0  0  0
   18.9250  -13.3849    3.7760 C   0  0  0  0  0  0  0  0  0  0  0  0
   19.7266  -13.0867    2.7002 C   0  0  0  0  0  0  0  0  0  0  0  0
   20.0543  -14.0460    1.7910 C   0  0  0  0  0  0  0  0  0  0  0  0
   19.5550  -15.3123    1.9921 C   0  0  0  0  0  0  0  0  0  0  0  0
   18.7487  -15.6248    3.0683 C   0  0  0  0  0  0  0  0  0  0  0  0
   18.4073  -14.6532    4.0014 C   0  0  0  0  0  0  0  0  0  0  0  0
   16.0125  -17.9107    5.1217 C   0  0  0  0  0  0  0  0  0  0  0  0
   15.1658  -18.3054    5.9505 O   0  0  0  0  0  0  0  0  0  0  0  0
   16.9700  -18.7934    4.5510 N   0  0  0  0  0  0  0  0  0  0  0  0
   16.9126  -20.1785    4.9528 C   0  0  1  0  0  0  0  0  0  0  0  0
   17.4385  -21.0719    3.8041 C   0  0  0  0  0  0  0  0  0  0  0  0
   16.5356  -20.9972    2.6340 C   0  0  0  0  0  0  0  0  0  0  0  0
   16.7143  -20.3283    1.4482 C   0  0  0  0  0  0  0  0  0  0  0  0
   15.6384  -20.5377    0.6749 N   0  0  0  0  0  0  0  0  0  0  0  0
   14.7952  -21.3244    1.3584 C   0  0  0  0  0  0  0  0  0  0  0  0
   15.3414  -21.6045    2.5522 N   0  0  0  0  0  0  0  0  0  0  0  0
   17.7703  -20.4858    6.1250 C   0  0  0  0  0  0  0  0  0  0  0  0
   18.8677  -19.8499    6.2923 O   0  0  0  0  0  0  0  0  0  0  0  0
   17.4748  -21.4520    7.1130 N   0  0  0  0  0  0  0  0  0  0  0  0
   18.3583  -21.7111    8.2592 C   0  0  1  0  0  0  0  0  0  0  0  0
   17.5916  -22.1370    9.4537 C   0  0  0  0  0  0  0  0  0  0  0  0
   18.3159  -22.4089   10.7132 C   0  0  0  0  0  0  0  0  0  0  0  0
   17.5888  -22.4710   11.9667 C   0  0  0  0  0  0  0  0  0  0  0  0
   16.8470  -21.5664   12.3627 O   0  0  0  0  0  0  0  0  0  0  0  0
   19.5167  -22.4929    7.8901 C   0  0  0  0  0  0  0  0  0  0  0  0
   20.7906  -22.3162    8.4721 O   0  0  0  0  0  0  0  0  0  0  0  0
   17.6865  -23.5885   12.8241 O   0  0  0  0  0  0  0  0  0  0  0  0
   19.4665  -23.3897    7.0113 O   0  0  0  0  0  0  0  0  0  0  0  0
  2  3  1  0
  2  1  1  1
  3  4  1  0
  4 12  1  0
  5  6  1  0
  5  4  2  0
  6  7  1  0
  7  8  2  0
  8  9  1  0
 10  9  2  0
 11 10  1  0
 12  7  1  0
 12 11  2  0
 13  2  1  0
 14 13  2  0
 15 13  1  0
 16 23  1  0
 16 15  1  0
 16 17  1  6
 18 22  1  0
 18 17  1  0
 19 18  2  0
 20 19  1  0
 20 21  1  0
 21 22  2  0
 23 24  2  0
 25 26  1  0
 25 23  1  0
 26 27  1  1
 28 27  1  0
 29 28  1  0
 29 33  1  0
 30 29  2  0
 31 32  1  0
 31 26  1  0
 34 31  2  0
M  END
$$$$
