WHE.pdb
     RDKit          3D

 34 36  0  0  1  0  0  0  0  0999 V2000
   26.9734  -20.6742  -14.7837 N   0  0  0  0  0  0  0  0  0  0  0  0
   25.8030  -20.8969  -15.5603 C   0  0  1  0  0  0  0  0  0  0  0  0
   25.7777  -19.8825  -16.7043 C   0  0  0  0  0  0  0  0  0  0  0  0
   25.7161  -18.4964  -16.2576 C   0  0  0  0  0  0  0  0  0  0  0  0
   26.7851  -17.6552  -16.0422 C   0  0  0  0  0  0  0  0  0  0  0  0
   26.3499  -16.4688  -15.6024 N   0  0  0  0  0  0  0  0  0  0  0  0
   24.9831  -16.4949  -15.5159 C   0  0  0  0  0  0  0  0  0  0  0  0
   24.0819  -15.5326  -15.1277 C   0  0  0  0  0  0  0  0  0  0  0  0
   22.7449  -15.7907  -15.1323 C   0  0  0  0  0  0  0  0  0  0  0  0
   22.3384  -17.0413  -15.5375 C   0  0  0  0  0  0  0  0  0  0  0  0
   23.2332  -18.0166  -15.9295 C   0  0  0  0  0  0  0  0  0  0  0  0
   24.5997  -17.7641  -15.9276 C   0  0  0  0  0  0  0  0  0  0  0  0
   25.8125  -22.2538  -16.2191 C   0  0  0  0  0  0  0  0  0  0  0  0
   24.9340  -22.4624  -17.0820 O   0  0  0  0  0  0  0  0  0  0  0  0
   26.7740  -23.2431  -15.8748 N   0  0  0  0  0  0  0  0  0  0  0  0
   26.6238  -24.5468  -16.4757 C   0  0  1  0  0  0  0  0  0  0  0  0
   27.8691  -25.4085  -16.1582 C   0  0  0  0  0  0  0  0  0  0  0  0
   27.7945  -26.7075  -16.8632 C   0  0  0  0  0  0  0  0  0  0  0  0
   26.8217  -27.1726  -17.7133 C   0  0  0  0  0  0  0  0  0  0  0  0
   27.1645  -28.4044  -18.1194 N   0  0  0  0  0  0  0  0  0  0  0  0
   28.3320  -28.7125  -17.5373 C   0  0  0  0  0  0  0  0  0  0  0  0
   28.7163  -27.6790  -16.7717 N   0  0  0  0  0  0  0  0  0  0  0  0
   25.4639  -25.3073  -15.9461 C   0  0  0  0  0  0  0  0  0  0  0  0
   25.3502  -25.4946  -14.6858 O   0  0  0  0  0  0  0  0  0  0  0  0
   24.4324  -25.8637  -16.7356 N   0  0  0  0  0  0  0  0  0  0  0  0
   23.2809  -26.5695  -16.1545 C   0  0  1  0  0  0  0  0  0  0  0  0
   22.2383  -25.6238  -15.6913 C   0  0  0  0  0  0  0  0  0  0  0  0
   20.9677  -26.1593  -15.1589 C   0  0  0  0  0  0  0  0  0  0  0  0
   20.4144  -25.6216  -13.9307 C   0  0  0  0  0  0  0  0  0  0  0  0
   21.1099  -25.2834  -12.9678 O   0  0  0  0  0  0  0  0  0  0  0  0
   22.8602  -27.6889  -16.9663 C   0  0  0  0  0  0  0  0  0  0  0  0
   22.5645  -28.9641  -16.4378 O   0  0  0  0  0  0  0  0  0  0  0  0
   19.0236  -25.4488  -13.7592 O   0  0  0  0  0  0  0  0  0  0  0  0
   22.7334  -27.6010  -18.2135 O   0  0  0  0  0  0  0  0  0  0  0  0
  2  3  1  0
  2  1  1  6
  3  4  1  0
  4 12  1  0
  5  6  1  0
  5  4  2  0
  6  7  1  0
  7  8  2  0
  8  9  1  0
 10  9  2  0
 11 10  1  0
 12  7  1  0
 12 11  2  0
 13  2  1  0
 14 13  2  0
 15 13  1  0
 16 23  1  0
 16 15  1  0
 16 17  1  1
 18 22  1  0
 18 17  1  0
 19 18  2  0
 20 19  1  0
 20 21  1  0
 21 22  2  0
 23 24  2  0
 25 26  1  0
 25 23  1  0
 26 27  1  6
 28 27  1  0
 29 28  1  0
 29 33  1  0
 30 29  2  0
 31 32  1  0
 31 26  1  0
 34 31  2  0
M  END
$$$$
