WHE.pdb
     RDKit          3D

 34 36  0  0  1  0  0  0  0  0999 V2000
   28.3805  -20.4460   -9.3520 N   0  0  0  0  0  0  0  0  0  0  0  0
   27.2214  -21.2582   -9.4911 C   0  0  1  0  0  0  0  0  0  0  0  0
   26.3066  -21.0102   -8.2910 C   0  0  0  0  0  0  0  0  0  0  0  0
   26.8574  -20.0762   -7.3169 C   0  0  0  0  0  0  0  0  0  0  0  0
   26.5989  -18.7258   -7.2375 C   0  0  0  0  0  0  0  0  0  0  0  0
   27.3083  -18.1840   -6.2408 N   0  0  0  0  0  0  0  0  0  0  0  0
   28.0534  -19.1613   -5.6358 C   0  0  0  0  0  0  0  0  0  0  0  0
   28.9258  -19.1087   -4.5752 C   0  0  0  0  0  0  0  0  0  0  0  0
   29.5550  -20.2340   -4.1369 C   0  0  0  0  0  0  0  0  0  0  0  0
   29.2837  -21.4128   -4.7927 C   0  0  0  0  0  0  0  0  0  0  0  0
   28.4097  -21.4791   -5.8593 C   0  0  0  0  0  0  0  0  0  0  0  0
   27.7632  -20.3366   -6.3154 C   0  0  0  0  0  0  0  0  0  0  0  0
   26.4107  -20.8816  -10.7061 C   0  0  0  0  0  0  0  0  0  0  0  0
   26.2723  -19.6606  -10.9293 O   0  0  0  0  0  0  0  0  0  0  0  0
   25.8352  -21.8678  -11.5534 N   0  0  0  0  0  0  0  0  0  0  0  0
   25.1813  -21.4059  -12.7543 C   0  0  1  0  0  0  0  0  0  0  0  0
   25.3565  -22.4580  -13.8753 C   0  0  0  0  0  0  0  0  0  0  0  0
   24.7573  -21.9743  -15.1390 C   0  0  0  0  0  0  0  0  0  0  0  0
   25.2804  -21.1049  -16.0641 C   0  0  0  0  0  0  0  0  0  0  0  0
   24.3892  -20.9503  -17.0548 N   0  0  0  0  0  0  0  0  0  0  0  0
   23.3227  -21.7077  -16.7620 C   0  0  0  0  0  0  0  0  0  0  0  0
   23.5464  -22.3318  -15.5947 N   0  0  0  0  0  0  0  0  0  0  0  0
   23.7158  -21.2302  -12.5944 C   0  0  0  0  0  0  0  0  0  0  0  0
   23.0547  -22.0477  -11.8656 O   0  0  0  0  0  0  0  0  0  0  0  0
   22.9536  -20.2026  -13.1943 N   0  0  0  0  0  0  0  0  0  0  0  0
   21.5098  -20.0475  -12.9641 C   0  0  1  0  0  0  0  0  0  0  0  0
   21.0502  -18.6759  -13.2860 C   0  0  0  0  0  0  0  0  0  0  0  0
   19.6509  -18.2998  -12.9942 C   0  0  0  0  0  0  0  0  0  0  0  0
   19.1831  -16.9612  -13.2993 C   0  0  0  0  0  0  0  0  0  0  0  0
   19.9004  -16.0951  -13.8097 O   0  0  0  0  0  0  0  0  0  0  0  0
   20.7495  -21.1541  -13.4994 C   0  0  0  0  0  0  0  0  0  0  0  0
   19.8125  -21.8908  -12.7430 O   0  0  0  0  0  0  0  0  0  0  0  0
   17.8567  -16.5610  -13.0271 O   0  0  0  0  0  0  0  0  0  0  0  0
   20.8782  -21.5418  -14.6878 O   0  0  0  0  0  0  0  0  0  0  0  0
  2  3  1  0
  2  1  1  1
  3  4  1  0
  4 12  1  0
  5  6  1  0
  5  4  2  0
  6  7  1  0
  7  8  2  0
  8  9  1  0
 10  9  2  0
 11 10  1  0
 12  7  1  0
 12 11  2  0
 13  2  1  0
 14 13  2  0
 15 13  1  0
 16 23  1  0
 16 15  1  0
 16 17  1  6
 18 22  1  0
 18 17  1  0
 19 18  2  0
 20 19  1  0
 20 21  1  0
 21 22  2  0
 23 24  2  0
 25 26  1  0
 25 23  1  0
 26 27  1  6
 28 27  1  0
 29 28  1  0
 29 33  1  0
 30 29  2  0
 31 32  1  0
 31 26  1  0
 34 31  2  0
M  END
$$$$
