WHE.pdb
     RDKit          3D

 34 36  0  0  1  0  0  0  0  0999 V2000
   16.9014  -14.2581  -20.5355 N   0  0  0  0  0  0  0  0  0  0  0  0
   17.5880  -15.2510  -19.7838 C   0  0  1  0  0  0  0  0  0  0  0  0
   18.3016  -14.5699  -18.6153 C   0  0  0  0  0  0  0  0  0  0  0  0
   19.4264  -13.7362  -19.0208 C   0  0  0  0  0  0  0  0  0  0  0  0
   19.4126  -12.3712  -19.2028 C   0  0  0  0  0  0  0  0  0  0  0  0
   20.6168  -11.9536  -19.6102 N   0  0  0  0  0  0  0  0  0  0  0  0
   21.4572  -13.0309  -19.7078 C   0  0  0  0  0  0  0  0  0  0  0  0
   22.7790  -13.1178  -20.0739 C   0  0  0  0  0  0  0  0  0  0  0  0
   23.4185  -14.3200  -20.0872 C   0  0  0  0  0  0  0  0  0  0  0  0
   22.6941  -15.4317  -19.7227 C   0  0  0  0  0  0  0  0  0  0  0  0
   21.3660  -15.3579  -19.3532 C   0  0  0  0  0  0  0  0  0  0  0  0
   20.7036  -14.1364  -19.3372 C   0  0  0  0  0  0  0  0  0  0  0  0
   16.6389  -16.2431  -19.1591 C   0  0  0  0  0  0  0  0  0  0  0  0
   15.4747  -15.8447  -18.9455 O   0  0  0  0  0  0  0  0  0  0  0  0
   17.0503  -17.5642  -18.8320 N   0  0  0  0  0  0  0  0  0  0  0  0
   16.0307  -18.4797  -18.3785 C   0  0  1  0  0  0  0  0  0  0  0  0
   16.1832  -19.8304  -19.1178 C   0  0  0  0  0  0  0  0  0  0  0  0
   15.7541  -19.7011  -20.5281 C   0  0  0  0  0  0  0  0  0  0  0  0
   14.4893  -19.7863  -21.0559 C   0  0  0  0  0  0  0  0  0  0  0  0
   14.5688  -19.6071  -22.3830 N   0  0  0  0  0  0  0  0  0  0  0  0
   15.8592  -19.4120  -22.6888 C   0  0  0  0  0  0  0  0  0  0  0  0
   16.5819  -19.4693  -21.5590 N   0  0  0  0  0  0  0  0  0  0  0  0
   16.1306  -18.8002  -16.9324 C   0  0  0  0  0  0  0  0  0  0  0  0
   17.2717  -19.0659  -16.4188 O   0  0  0  0  0  0  0  0  0  0  0  0
   15.0399  -18.8389  -16.0347 N   0  0  0  0  0  0  0  0  0  0  0  0
   15.2092  -19.0374  -14.5878 C   0  0  1  0  0  0  0  0  0  0  0  0
   13.9467  -18.7916  -13.8519 C   0  0  0  0  0  0  0  0  0  0  0  0
   13.0380  -19.9264  -13.5847 C   0  0  0  0  0  0  0  0  0  0  0  0
   12.1175  -19.8678  -12.4654 C   0  0  0  0  0  0  0  0  0  0  0  0
   12.0971  -18.9353  -11.6559 O   0  0  0  0  0  0  0  0  0  0  0  0
   15.9395  -20.2473  -14.2844 C   0  0  0  0  0  0  0  0  0  0  0  0
   15.8400  -21.4278  -15.0519 O   0  0  0  0  0  0  0  0  0  0  0  0
   11.1728  -20.8904  -12.2300 O   0  0  0  0  0  0  0  0  0  0  0  0
   16.7175  -20.3305  -13.3010 O   0  0  0  0  0  0  0  0  0  0  0  0
  2  3  1  0
  2  1  1  1
  3  4  1  0
  4 12  1  0
  5  6  1  0
  5  4  2  0
  6  7  1  0
  7  8  2  0
  8  9  1  0
 10  9  2  0
 11 10  1  0
 12  7  1  0
 12 11  2  0
 13  2  1  0
 14 13  2  0
 15 13  1  0
 16 23  1  0
 16 15  1  0
 16 17  1  6
 18 22  1  0
 18 17  1  0
 19 18  2  0
 20 19  1  0
 20 21  1  0
 21 22  2  0
 23 24  2  0
 25 26  1  0
 25 23  1  0
 26 27  1  1
 28 27  1  0
 29 28  1  0
 29 33  1  0
 30 29  2  0
 31 32  1  0
 31 26  1  0
 34 31  2  0
M  END
$$$$
