WHE.pdb
     RDKit          3D

 34 36  0  0  1  0  0  0  0  0999 V2000
   27.7589  -19.0538  -10.6179 N   0  0  0  0  0  0  0  0  0  0  0  0
   27.8330  -20.2889  -11.3190 C   0  0  1  0  0  0  0  0  0  0  0  0
   26.8138  -21.2545  -10.7128 C   0  0  0  0  0  0  0  0  0  0  0  0
   26.4959  -20.9723   -9.3186 C   0  0  0  0  0  0  0  0  0  0  0  0
   25.2383  -20.9007   -8.7619 C   0  0  0  0  0  0  0  0  0  0  0  0
   25.3315  -20.5867   -7.4645 N   0  0  0  0  0  0  0  0  0  0  0  0
   26.6521  -20.4430   -7.1302 C   0  0  0  0  0  0  0  0  0  0  0  0
   27.2549  -20.1352   -5.9342 C   0  0  0  0  0  0  0  0  0  0  0  0
   28.6111  -20.0556   -5.8400 C   0  0  0  0  0  0  0  0  0  0  0  0
   29.3444  -20.2939   -6.9797 C   0  0  0  0  0  0  0  0  0  0  0  0
   28.7511  -20.6038   -8.1871 C   0  0  0  0  0  0  0  0  0  0  0  0
   27.3681  -20.6864   -8.2944 C   0  0  0  0  0  0  0  0  0  0  0  0
   27.4414  -20.1399  -12.7680 C   0  0  0  0  0  0  0  0  0  0  0  0
   27.4987  -21.1702  -13.4714 O   0  0  0  0  0  0  0  0  0  0  0  0
   27.0272  -18.8895  -13.3036 N   0  0  0  0  0  0  0  0  0  0  0  0
   26.9832  -18.7694  -14.7412 C   0  0  1  0  0  0  0  0  0  0  0  0
   28.4060  -18.9586  -15.3193 C   0  0  0  0  0  0  0  0  0  0  0  0
   28.3985  -18.7718  -16.7872 C   0  0  0  0  0  0  0  0  0  0  0  0
   28.3768  -19.7227  -17.7775 C   0  0  0  0  0  0  0  0  0  0  0  0
   28.3789  -19.1002  -18.9658 N   0  0  0  0  0  0  0  0  0  0  0  0
   28.4013  -17.7805  -18.7316 C   0  0  0  0  0  0  0  0  0  0  0  0
   28.4133  -17.5799  -17.4044 N   0  0  0  0  0  0  0  0  0  0  0  0
   26.1445  -19.8074  -15.3917 C   0  0  0  0  0  0  0  0  0  0  0  0
   26.3866  -21.0451  -15.1769 O   0  0  0  0  0  0  0  0  0  0  0  0
   25.0598  -19.5453  -16.2587 N   0  0  0  0  0  0  0  0  0  0  0  0
   23.7013  -20.0470  -16.0048 C   0  0  1  0  0  0  0  0  0  0  0  0
   23.3173  -19.8864  -14.5826 C   0  0  0  0  0  0  0  0  0  0  0  0
   22.0114  -19.2765  -14.2553 C   0  0  0  0  0  0  0  0  0  0  0  0
   20.8294  -20.1106  -14.1507 C   0  0  0  0  0  0  0  0  0  0  0  0
   20.0204  -20.2542  -15.0728 O   0  0  0  0  0  0  0  0  0  0  0  0
   22.7598  -19.6064  -17.0091 C   0  0  0  0  0  0  0  0  0  0  0  0
   21.7465  -20.4335  -17.5400 O   0  0  0  0  0  0  0  0  0  0  0  0
   20.5275  -20.8213  -12.9686 O   0  0  0  0  0  0  0  0  0  0  0  0
   22.7851  -18.4440  -17.4860 O   0  0  0  0  0  0  0  0  0  0  0  0
  2  3  1  0
  2  1  1  1
  3  4  1  0
  4 12  1  0
  5  6  1  0
  5  4  2  0
  6  7  1  0
  7  8  2  0
  8  9  1  0
 10  9  2  0
 11 10  1  0
 12  7  1  0
 12 11  2  0
 13  2  1  0
 14 13  2  0
 15 13  1  0
 16 23  1  0
 16 15  1  0
 16 17  1  6
 18 22  1  0
 18 17  1  0
 19 18  2  0
 20 19  1  0
 20 21  1  0
 21 22  2  0
 23 24  2  0
 25 26  1  0
 25 23  1  0
 26 27  1  1
 28 27  1  0
 29 28  1  0
 29 33  1  0
 30 29  2  0
 31 32  1  0
 31 26  1  0
 34 31  2  0
M  END
$$$$
