WHE.pdb
     RDKit          3D

 34 36  0  0  1  0  0  0  0  0999 V2000
   15.1430  -14.8707    5.1912 N   0  0  0  0  0  0  0  0  0  0  0  0
   16.2155  -15.7334    4.8336 C   0  0  1  0  0  0  0  0  0  0  0  0
   17.4031  -15.4393    5.7510 C   0  0  0  0  0  0  0  0  0  0  0  0
   18.0526  -14.1632    5.4786 C   0  0  0  0  0  0  0  0  0  0  0  0
   17.6722  -13.2333    4.5368 C   0  0  0  0  0  0  0  0  0  0  0  0
   18.5233  -12.2008    4.5462 N   0  0  0  0  0  0  0  0  0  0  0  0
   19.4874  -12.4212    5.4939 C   0  0  0  0  0  0  0  0  0  0  0  0
   20.5642  -11.6615    5.8837 C   0  0  0  0  0  0  0  0  0  0  0  0
   21.3950  -12.0904    6.8737 C   0  0  0  0  0  0  0  0  0  0  0  0
   21.1143  -13.3027    7.4611 C   0  0  0  0  0  0  0  0  0  0  0  0
   20.0361  -14.0754    7.0786 C   0  0  0  0  0  0  0  0  0  0  0  0
   19.1828  -13.6476    6.0688 C   0  0  0  0  0  0  0  0  0  0  0  0
   15.8732  -17.1845    5.0626 C   0  0  0  0  0  0  0  0  0  0  0  0
   15.3530  -17.4694    6.1616 O   0  0  0  0  0  0  0  0  0  0  0  0
   16.1294  -18.1756    4.0758 N   0  0  0  0  0  0  0  0  0  0  0  0
   15.8449  -19.5462    4.4276 C   0  0  1  0  0  0  0  0  0  0  0  0
   15.4249  -20.3284    3.1603 C   0  0  0  0  0  0  0  0  0  0  0  0
   14.0935  -19.8822    2.6930 C   0  0  0  0  0  0  0  0  0  0  0  0
   12.8520  -20.2398    3.1579 C   0  0  0  0  0  0  0  0  0  0  0  0
   11.9245  -19.5912    2.4377 N   0  0  0  0  0  0  0  0  0  0  0  0
   12.5672  -18.8375    1.5345 C   0  0  0  0  0  0  0  0  0  0  0  0
   13.8888  -19.0145    1.6896 N   0  0  0  0  0  0  0  0  0  0  0  0
   17.0215  -20.2685    4.9734 C   0  0  0  0  0  0  0  0  0  0  0  0
   18.1979  -19.9507    4.5838 O   0  0  0  0  0  0  0  0  0  0  0  0
   16.9607  -21.3143    5.9219 N   0  0  0  0  0  0  0  0  0  0  0  0
   18.1551  -22.0348    6.3867 C   0  0  1  0  0  0  0  0  0  0  0  0
   18.5200  -21.6503    7.7705 C   0  0  0  0  0  0  0  0  0  0  0  0
   17.4470  -21.3120    8.7291 C   0  0  0  0  0  0  0  0  0  0  0  0
   17.7852  -20.9085   10.0806 C   0  0  0  0  0  0  0  0  0  0  0  0
   18.9407  -20.9102   10.5167 O   0  0  0  0  0  0  0  0  0  0  0  0
   18.0986  -23.4447    6.0736 C   0  0  0  0  0  0  0  0  0  0  0  0
   19.1988  -24.3173    6.2187 O   0  0  0  0  0  0  0  0  0  0  0  0
   16.7972  -20.4816   10.9945 O   0  0  0  0  0  0  0  0  0  0  0  0
   17.0539  -23.9928    5.6408 O   0  0  0  0  0  0  0  0  0  0  0  0
  2  3  1  0
  2  1  1  1
  3  4  1  0
  4 12  1  0
  5  6  1  0
  5  4  2  0
  6  7  1  0
  7  8  2  0
  8  9  1  0
 10  9  2  0
 11 10  1  0
 12  7  1  0
 12 11  2  0
 13  2  1  0
 14 13  2  0
 15 13  1  0
 16 23  1  0
 16 15  1  0
 16 17  1  6
 18 22  1  0
 18 17  1  0
 19 18  2  0
 20 19  1  0
 20 21  1  0
 21 22  2  0
 23 24  2  0
 25 26  1  0
 25 23  1  0
 26 27  1  1
 28 27  1  0
 29 28  1  0
 29 33  1  0
 30 29  2  0
 31 32  1  0
 31 26  1  0
 34 31  2  0
M  END
$$$$
