WHE.pdb
     RDKit          3D

 34 36  0  0  1  0  0  0  0  0999 V2000
   21.6340  -31.0653   -3.4304 N   0  0  0  0  0  0  0  0  0  0  0  0
   22.9974  -30.7827   -3.1412 C   0  0  1  0  0  0  0  0  0  0  0  0
   23.1261  -30.4841   -1.6469 C   0  0  0  0  0  0  0  0  0  0  0  0
   22.7150  -29.1343   -1.2811 C   0  0  0  0  0  0  0  0  0  0  0  0
   21.4615  -28.7421   -0.8670 C   0  0  0  0  0  0  0  0  0  0  0  0
   21.4453  -27.4214   -0.6521 N   0  0  0  0  0  0  0  0  0  0  0  0
   22.6866  -26.9070   -0.9182 C   0  0  0  0  0  0  0  0  0  0  0  0
   23.1697  -25.6227   -0.8423 C   0  0  0  0  0  0  0  0  0  0  0  0
   24.4668  -25.3489   -1.1536 C   0  0  0  0  0  0  0  0  0  0  0  0
   25.2647  -26.4002   -1.5427 C   0  0  0  0  0  0  0  0  0  0  0  0
   24.7917  -27.6947   -1.6232 C   0  0  0  0  0  0  0  0  0  0  0  0
   23.4695  -27.9848   -1.3089 C   0  0  0  0  0  0  0  0  0  0  0  0
   23.8872  -31.9735   -3.3969 C   0  0  0  0  0  0  0  0  0  0  0  0
   23.3504  -33.0986   -3.3227 O   0  0  0  0  0  0  0  0  0  0  0  0
   25.2663  -31.8206   -3.7076 N   0  0  0  0  0  0  0  0  0  0  0  0
   26.0277  -33.0244   -3.9405 C   0  0  1  0  0  0  0  0  0  0  0  0
   27.1066  -32.7533   -5.0161 C   0  0  0  0  0  0  0  0  0  0  0  0
   26.5197  -32.8365   -6.3720 C   0  0  0  0  0  0  0  0  0  0  0  0
   25.2724  -33.2716   -6.7465 C   0  0  0  0  0  0  0  0  0  0  0  0
   25.1702  -33.1739   -8.0806 N   0  0  0  0  0  0  0  0  0  0  0  0
   26.3308  -32.6862   -8.5411 C   0  0  0  0  0  0  0  0  0  0  0  0
   27.1535  -32.4806   -7.5004 N   0  0  0  0  0  0  0  0  0  0  0  0
   26.7659  -33.4935   -2.7409 C   0  0  0  0  0  0  0  0  0  0  0  0
   27.3092  -32.6411   -1.9568 O   0  0  0  0  0  0  0  0  0  0  0  0
   26.9292  -34.8470   -2.3690 N   0  0  0  0  0  0  0  0  0  0  0  0
   27.6514  -35.2552   -1.1551 C   0  0  1  0  0  0  0  0  0  0  0  0
   27.0624  -36.4748   -0.5539 C   0  0  0  0  0  0  0  0  0  0  0  0
   27.6865  -37.0538    0.6544 C   0  0  0  0  0  0  0  0  0  0  0  0
   27.1572  -38.2770    1.2264 C   0  0  0  0  0  0  0  0  0  0  0  0
   26.2023  -38.8916    0.7409 O   0  0  0  0  0  0  0  0  0  0  0  0
   29.0852  -35.2195   -1.3348 C   0  0  0  0  0  0  0  0  0  0  0  0
   29.9870  -34.8484   -0.3141 O   0  0  0  0  0  0  0  0  0  0  0  0
   27.7113  -38.8488    2.3924 O   0  0  0  0  0  0  0  0  0  0  0  0
   29.6303  -35.5153   -2.4278 O   0  0  0  0  0  0  0  0  0  0  0  0
  2  3  1  0
  2  1  1  1
  3  4  1  0
  4 12  1  0
  5  6  1  0
  5  4  2  0
  6  7  1  0
  7  8  2  0
  8  9  1  0
 10  9  2  0
 11 10  1  0
 12  7  1  0
 12 11  2  0
 13  2  1  0
 14 13  2  0
 15 13  1  0
 16 23  1  0
 16 15  1  0
 16 17  1  6
 18 22  1  0
 18 17  1  0
 19 18  2  0
 20 19  1  0
 20 21  1  0
 21 22  2  0
 23 24  2  0
 25 26  1  0
 25 23  1  0
 26 27  1  6
 28 27  1  0
 29 28  1  0
 29 33  1  0
 30 29  2  0
 31 32  1  0
 31 26  1  0
 34 31  2  0
M  END
$$$$
