WHE.pdb
     RDKit          3D

 34 36  0  0  1  0  0  0  0  0999 V2000
   19.9775  -13.7812  -19.6117 N   0  0  0  0  0  0  0  0  0  0  0  0
   19.2832  -13.2796  -18.4765 C   0  0  1  0  0  0  0  0  0  0  0  0
   20.0423  -13.6995  -17.2171 C   0  0  0  0  0  0  0  0  0  0  0  0
   20.1983  -15.1422  -17.0801 C   0  0  0  0  0  0  0  0  0  0  0  0
   21.3698  -15.8562  -17.2005 C   0  0  0  0  0  0  0  0  0  0  0  0
   21.1249  -17.1627  -17.0471 N   0  0  0  0  0  0  0  0  0  0  0  0
   19.7864  -17.3461  -16.8213 C   0  0  0  0  0  0  0  0  0  0  0  0
   19.0536  -18.4874  -16.5995 C   0  0  0  0  0  0  0  0  0  0  0  0
   17.7103  -18.4200  -16.3865 C   0  0  0  0  0  0  0  0  0  0  0  0
   17.1238  -17.1753  -16.4023 C   0  0  0  0  0  0  0  0  0  0  0  0
   17.8485  -16.0214  -16.6241 C   0  0  0  0  0  0  0  0  0  0  0  0
   19.2195  -16.0790  -16.8436 C   0  0  0  0  0  0  0  0  0  0  0  0
   19.2560  -11.7717  -18.4522 C   0  0  0  0  0  0  0  0  0  0  0  0
   20.2303  -11.1866  -18.9699 O   0  0  0  0  0  0  0  0  0  0  0  0
   18.1748  -11.0548  -17.8701 N   0  0  0  0  0  0  0  0  0  0  0  0
   18.2125   -9.6148  -17.9614 C   0  0  1  0  0  0  0  0  0  0  0  0
   16.8033   -9.0825  -18.3151 C   0  0  0  0  0  0  0  0  0  0  0  0
   16.8210   -7.6076  -18.4350 C   0  0  0  0  0  0  0  0  0  0  0  0
   17.4270   -6.8272  -19.3884 C   0  0  0  0  0  0  0  0  0  0  0  0
   17.1820   -5.5394  -19.1031 N   0  0  0  0  0  0  0  0  0  0  0  0
   16.4350   -5.5060  -17.9906 C   0  0  0  0  0  0  0  0  0  0  0  0
   16.2148   -6.7659  -17.5830 N   0  0  0  0  0  0  0  0  0  0  0  0
   18.5817   -8.9550  -16.6838 C   0  0  0  0  0  0  0  0  0  0  0  0
   18.2016   -9.4645  -15.5736 O   0  0  0  0  0  0  0  0  0  0  0  0
   19.3455   -7.7710  -16.5755 N   0  0  0  0  0  0  0  0  0  0  0  0
   19.5899   -7.0987  -15.2910 C   0  0  1  0  0  0  0  0  0  0  0  0
   20.9313   -6.4702  -15.2507 C   0  0  0  0  0  0  0  0  0  0  0  0
   21.3650   -5.7803  -14.0175 C   0  0  0  0  0  0  0  0  0  0  0  0
   22.7036   -5.2288  -13.9299 C   0  0  0  0  0  0  0  0  0  0  0  0
   23.6981   -5.7922  -14.3977 O   0  0  0  0  0  0  0  0  0  0  0  0
   18.4610   -6.3011  -14.8686 C   0  0  0  0  0  0  0  0  0  0  0  0
   17.9043   -6.3674  -13.5730 O   0  0  0  0  0  0  0  0  0  0  0  0
   22.9546   -3.9933  -13.2942 O   0  0  0  0  0  0  0  0  0  0  0  0
   17.8897   -5.4890  -15.6389 O   0  0  0  0  0  0  0  0  0  0  0  0
  2  3  1  0
  2  1  1  6
  3  4  1  0
  4 12  1  0
  5  6  1  0
  5  4  2  0
  6  7  1  0
  7  8  2  0
  8  9  1  0
 10  9  2  0
 11 10  1  0
 12  7  1  0
 12 11  2  0
 13  2  1  0
 14 13  2  0
 15 13  1  0
 16 23  1  0
 16 15  1  0
 16 17  1  1
 18 22  1  0
 18 17  1  0
 19 18  2  0
 20 19  1  0
 20 21  1  0
 21 22  2  0
 23 24  2  0
 25 26  1  0
 25 23  1  0
 26 27  1  6
 28 27  1  0
 29 28  1  0
 29 33  1  0
 30 29  2  0
 31 32  1  0
 31 26  1  0
 34 31  2  0
M  END
$$$$
