VAG.pdb
     RDKit          3D

 17 16  0  0  1  0  0  0  0  0999 V2000
   20.0056   -9.0869  -20.4145 C   0  0  0  0  0  0  0  0  0  0  0  0
   20.5552   -8.8093  -19.0586 C   0  0  1  0  0  0  0  0  0  0  0  0
   19.8567   -7.5562  -18.5310 C   0  0  0  0  0  0  0  0  0  0  0  0
   20.3413   -9.8808  -18.0370 C   0  0  2  0  0  0  0  0  0  0  0  0
   18.9166  -10.2556  -18.1646 N   0  0  0  0  0  0  0  0  0  0  0  0
   20.6230   -9.4823  -16.6448 C   0  0  0  0  0  0  0  0  0  0  0  0
   19.6895   -8.9511  -15.9479 O   0  0  0  0  0  0  0  0  0  0  0  0
   23.1893   -9.8665  -13.9135 C   0  0  0  0  0  0  0  0  0  0  0  0
   22.0951   -9.1224  -14.6301 C   0  0  2  0  0  0  0  0  0  0  0  0
   21.8581   -9.6281  -15.9670 N   0  0  0  0  0  0  0  0  0  0  0  0
   22.3167   -7.6546  -14.6165 C   0  0  0  0  0  0  0  0  0  0  0  0
   22.9802   -7.1367  -15.5495 O   0  0  0  0  0  0  0  0  0  0  0  0
   21.8165   -6.8113  -13.6036 N   0  0  0  0  0  0  0  0  0  0  0  0
   22.0461   -5.3852  -13.5425 C   0  0  0  0  0  0  0  0  0  0  0  0
   21.0098   -4.6099  -14.2286 C   0  0  0  0  0  0  0  0  0  0  0  0
   19.9879   -5.1822  -14.9692 O   0  0  0  0  0  0  0  0  0  0  0  0
   21.0327   -3.3574  -14.1527 O   0  0  0  0  0  0  0  0  0  0  0  0
  2  3  1  1
  2  1  1  0
  4  2  1  0
  4  5  1  1
  6  4  1  0
  6 10  1  0
  7  6  2  0
  9  8  1  6
  9 10  1  0
  9 11  1  0
 11 12  2  0
 13 11  1  0
 13 14  1  0
 14 15  1  0
 15 16  1  0
 17 15  2  0
M  END
$$$$
