VAG.pdb
     RDKit          3D

 17 16  0  0  1  0  0  0  0  0999 V2000
   21.0867  -13.3297  -19.0242 C   0  0  0  0  0  0  0  0  0  0  0  0
   20.0607  -12.3876  -18.4975 C   0  0  1  0  0  0  0  0  0  0  0  0
   19.4812  -13.0083  -17.2264 C   0  0  0  0  0  0  0  0  0  0  0  0
   20.5569  -11.0275  -18.1217 C   0  0  2  0  0  0  0  0  0  0  0  0
   21.7663  -11.2704  -17.3063 N   0  0  0  0  0  0  0  0  0  0  0  0
   19.6031  -10.2039  -17.3547 C   0  0  0  0  0  0  0  0  0  0  0  0
   18.5465   -9.7719  -17.9344 O   0  0  0  0  0  0  0  0  0  0  0  0
   18.1988   -9.4000  -14.1202 C   0  0  0  0  0  0  0  0  0  0  0  0
   18.8615   -8.8566  -15.3570 C   0  0  2  0  0  0  0  0  0  0  0  0
   19.7306   -9.8237  -15.9963 N   0  0  0  0  0  0  0  0  0  0  0  0
   19.5501   -7.5667  -15.1005 C   0  0  0  0  0  0  0  0  0  0  0  0
   18.8848   -6.6126  -14.6252 O   0  0  0  0  0  0  0  0  0  0  0  0
   20.9192   -7.3605  -15.3656 N   0  0  0  0  0  0  0  0  0  0  0  0
   21.6145   -6.1130  -15.1410 C   0  0  0  0  0  0  0  0  0  0  0  0
   22.0719   -5.9548  -13.7584 C   0  0  0  0  0  0  0  0  0  0  0  0
   22.8230   -4.8771  -13.3177 O   0  0  0  0  0  0  0  0  0  0  0  0
   21.7767   -6.8339  -12.9127 O   0  0  0  0  0  0  0  0  0  0  0  0
  2  3  1  1
  2  1  1  0
  4  2  1  0
  4  5  1  1
  6  4  1  0
  6 10  1  0
  7  6  2  0
  9  8  1  1
  9 10  1  0
  9 11  1  0
 11 12  2  0
 13 11  1  0
 13 14  1  0
 14 15  1  0
 15 16  1  0
 17 15  2  0
M  END
$$$$
