VAG.pdb
     RDKit          3D

 17 16  0  0  1  0  0  0  0  0999 V2000
   17.0288  -11.3726  -17.8971 C   0  0  0  0  0  0  0  0  0  0  0  0
   16.6680  -11.3966  -16.4525 C   0  0  1  0  0  0  0  0  0  0  0  0
   16.3190  -12.8409  -16.0934 C   0  0  0  0  0  0  0  0  0  0  0  0
   17.7433  -10.9679  -15.5052 C   0  0  2  0  0  0  0  0  0  0  0  0
   17.2011  -11.2430  -14.1572 N   0  0  0  0  0  0  0  0  0  0  0  0
   18.1300   -9.5474  -15.5999 C   0  0  0  0  0  0  0  0  0  0  0  0
   18.7612   -9.1415  -16.6372 O   0  0  0  0  0  0  0  0  0  0  0  0
   17.1046   -6.2076  -14.6682 C   0  0  0  0  0  0  0  0  0  0  0  0
   18.2624   -7.1593  -14.8027 C   0  0  2  0  0  0  0  0  0  0  0  0
   17.8703   -8.5440  -14.6346 N   0  0  0  0  0  0  0  0  0  0  0  0
   19.3970   -6.7864  -13.9209 C   0  0  0  0  0  0  0  0  0  0  0  0
   19.5155   -7.3678  -12.8132 O   0  0  0  0  0  0  0  0  0  0  0  0
   20.3507   -5.8082  -14.2680 N   0  0  0  0  0  0  0  0  0  0  0  0
   21.5229   -5.4966  -13.4812 C   0  0  0  0  0  0  0  0  0  0  0  0
   22.3697   -4.4731  -14.0984 C   0  0  0  0  0  0  0  0  0  0  0  0
   23.3069   -3.7294  -13.3993 O   0  0  0  0  0  0  0  0  0  0  0  0
   22.2540   -4.2435  -15.3269 O   0  0  0  0  0  0  0  0  0  0  0  0
  2  3  1  1
  2  1  1  0
  4  2  1  0
  4  5  1  1
  6  4  1  0
  6 10  1  0
  7  6  2  0
  9  8  1  1
  9 10  1  0
  9 11  1  0
 11 12  2  0
 13 11  1  0
 13 14  1  0
 14 15  1  0
 15 16  1  0
 17 15  2  0
M  END
$$$$
