VAG.pdb
     RDKit          3D

 17 16  0  0  1  0  0  0  0  0999 V2000
   18.2397  -13.1245  -18.6427 C   0  0  0  0  0  0  0  0  0  0  0  0
   18.7231  -12.2747  -17.5194 C   0  0  1  0  0  0  0  0  0  0  0  0
   19.4647  -13.1878  -16.5431 C   0  0  0  0  0  0  0  0  0  0  0  0
   19.6752  -11.1828  -17.8915 C   0  0  2  0  0  0  0  0  0  0  0  0
   20.6449  -11.8144  -18.8120 N   0  0  0  0  0  0  0  0  0  0  0  0
   20.3971  -10.5703  -16.7601 C   0  0  0  0  0  0  0  0  0  0  0  0
   19.7413   -9.8843  -15.9008 O   0  0  0  0  0  0  0  0  0  0  0  0
   23.7713  -10.6163  -15.0558 C   0  0  0  0  0  0  0  0  0  0  0  0
   22.4375  -10.0058  -15.3911 C   0  0  2  0  0  0  0  0  0  0  0  0
   21.7881  -10.6605  -16.5086 N   0  0  0  0  0  0  0  0  0  0  0  0
   22.5273   -8.5357  -15.5772 C   0  0  0  0  0  0  0  0  0  0  0  0
   22.8010   -8.0886  -16.7192 O   0  0  0  0  0  0  0  0  0  0  0  0
   22.3196   -7.6145  -14.5305 N   0  0  0  0  0  0  0  0  0  0  0  0
   22.3531   -6.1780  -14.6898 C   0  0  0  0  0  0  0  0  0  0  0  0
   22.1935   -5.4590  -13.4236 C   0  0  0  0  0  0  0  0  0  0  0  0
   22.2444   -4.0786  -13.3139 O   0  0  0  0  0  0  0  0  0  0  0  0
   21.9992   -6.1126  -12.3699 O   0  0  0  0  0  0  0  0  0  0  0  0
  2  3  1  1
  2  1  1  0
  4  2  1  0
  4  5  1  6
  6  4  1  0
  6 10  1  0
  7  6  2  0
  9  8  1  6
  9 10  1  0
  9 11  1  0
 11 12  2  0
 13 11  1  0
 13 14  1  0
 14 15  1  0
 15 16  1  0
 17 15  2  0
M  END
$$$$
