VAG.pdb
     RDKit          3D

 17 16  0  0  1  0  0  0  0  0999 V2000
   20.3936  -12.9437  -17.7864 C   0  0  0  0  0  0  0  0  0  0  0  0
   19.1968  -12.3766  -17.1055 C   0  0  1  0  0  0  0  0  0  0  0  0
   18.3605  -13.5517  -16.5991 C   0  0  0  0  0  0  0  0  0  0  0  0
   19.4725  -11.5056  -15.9212 C   0  0  2  0  0  0  0  0  0  0  0  0
   18.1405  -11.1441  -15.3906 N   0  0  0  0  0  0  0  0  0  0  0  0
   20.2364  -10.2776  -16.2126 C   0  0  0  0  0  0  0  0  0  0  0  0
   21.5008  -10.3594  -16.3963 O   0  0  0  0  0  0  0  0  0  0  0  0
   19.8472   -6.8854  -17.6158 C   0  0  0  0  0  0  0  0  0  0  0  0
   20.5141   -7.8070  -16.6307 C   0  0  2  0  0  0  0  0  0  0  0  0
   19.7066   -8.9682  -16.3165 N   0  0  0  0  0  0  0  0  0  0  0  0
   20.9638   -7.0896  -15.4113 C   0  0  0  0  0  0  0  0  0  0  0  0
   20.2578   -7.1629  -14.3744 O   0  0  0  0  0  0  0  0  0  0  0  0
   22.1487   -6.3277  -15.3610 N   0  0  0  0  0  0  0  0  0  0  0  0
   22.6709   -5.7101  -14.1627 C   0  0  0  0  0  0  0  0  0  0  0  0
   22.0286   -4.4305  -13.8531 C   0  0  0  0  0  0  0  0  0  0  0  0
   22.3621   -3.6503  -12.7576 O   0  0  0  0  0  0  0  0  0  0  0  0
   21.1244   -4.0015  -14.6105 O   0  0  0  0  0  0  0  0  0  0  0  0
  2  3  1  1
  2  1  1  0
  4  2  1  0
  4  5  1  6
  6  4  1  0
  6 10  1  0
  7  6  2  0
  9  8  1  6
  9 10  1  0
  9 11  1  0
 11 12  2  0
 13 11  1  0
 13 14  1  0
 14 15  1  0
 15 16  1  0
 17 15  2  0
M  END
$$$$
