VAG.pdb
     RDKit          3D

 17 16  0  0  1  0  0  0  0  0999 V2000
   17.6879  -14.1411  -16.7740 C   0  0  0  0  0  0  0  0  0  0  0  0
   18.7083  -13.0639  -16.9000 C   0  0  1  0  0  0  0  0  0  0  0  0
   18.3336  -12.2209  -18.1189 C   0  0  0  0  0  0  0  0  0  0  0  0
   18.8077  -12.1219  -15.7424 C   0  0  2  0  0  0  0  0  0  0  0  0
   17.4187  -11.6893  -15.4776 N   0  0  0  0  0  0  0  0  0  0  0  0
   19.6572  -10.9377  -15.9711 C   0  0  0  0  0  0  0  0  0  0  0  0
   20.9302  -11.0743  -15.9682 O   0  0  0  0  0  0  0  0  0  0  0  0
   19.4640   -7.5327  -17.4831 C   0  0  0  0  0  0  0  0  0  0  0  0
   20.0906   -8.5190  -16.5350 C   0  0  2  0  0  0  0  0  0  0  0  0
   19.2042   -9.6159  -16.2030 N   0  0  0  0  0  0  0  0  0  0  0  0
   20.6423   -7.8577  -15.3257 C   0  0  0  0  0  0  0  0  0  0  0  0
   19.9201   -7.7771  -14.3006 O   0  0  0  0  0  0  0  0  0  0  0  0
   21.9419   -7.3143  -15.2725 N   0  0  0  0  0  0  0  0  0  0  0  0
   22.5291   -6.7185  -14.0933 C   0  0  0  0  0  0  0  0  0  0  0  0
   22.1576   -5.3124  -13.9184 C   0  0  0  0  0  0  0  0  0  0  0  0
   22.6008   -4.5274  -12.8661 O   0  0  0  0  0  0  0  0  0  0  0  0
   21.3969   -4.7723  -14.7579 O   0  0  0  0  0  0  0  0  0  0  0  0
  2  3  1  6
  2  1  1  0
  4  2  1  0
  4  5  1  6
  6  4  1  0
  6 10  1  0
  7  6  2  0
  9  8  1  1
  9 10  1  0
  9 11  1  0
 11 12  2  0
 13 11  1  0
 13 14  1  0
 14 15  1  0
 15 16  1  0
 17 15  2  0
M  END
$$$$
