VAG.pdb
     RDKit          3D

 17 16  0  0  1  0  0  0  0  0999 V2000
   18.6711  -13.7786  -17.0578 C   0  0  0  0  0  0  0  0  0  0  0  0
   18.9879  -12.4472  -17.6449 C   0  0  1  0  0  0  0  0  0  0  0  0
   17.6627  -11.7157  -17.8583 C   0  0  0  0  0  0  0  0  0  0  0  0
   19.8411  -11.5510  -16.8045 C   0  0  2  0  0  0  0  0  0  0  0  0
   19.2261  -11.5835  -15.4602 N   0  0  0  0  0  0  0  0  0  0  0  0
   19.9302  -10.1545  -17.2717 C   0  0  0  0  0  0  0  0  0  0  0  0
   20.5928   -9.8947  -18.3359 O   0  0  0  0  0  0  0  0  0  0  0  0
   18.2324   -6.8826  -17.1220 C   0  0  0  0  0  0  0  0  0  0  0  0
   19.5136   -7.6717  -17.1364 C   0  0  2  0  0  0  0  0  0  0  0  0
   19.3415   -9.0258  -16.6506 N   0  0  0  0  0  0  0  0  0  0  0  0
   20.6148   -6.9612  -16.4390 C   0  0  0  0  0  0  0  0  0  0  0  0
   20.9407   -5.8153  -16.8387 O   0  0  0  0  0  0  0  0  0  0  0  0
   21.3144   -7.5123  -15.3464 N   0  0  0  0  0  0  0  0  0  0  0  0
   22.4055   -6.8558  -14.6617 C   0  0  0  0  0  0  0  0  0  0  0  0
   21.9573   -5.7854  -13.7678 C   0  0  0  0  0  0  0  0  0  0  0  0
   22.8171   -4.8895  -13.1528 O   0  0  0  0  0  0  0  0  0  0  0  0
   20.7307   -5.6574  -13.5345 O   0  0  0  0  0  0  0  0  0  0  0  0
  2  3  1  1
  2  1  1  0
  4  2  1  0
  4  5  1  1
  6  4  1  0
  6 10  1  0
  7  6  2  0
  9  8  1  1
  9 10  1  0
  9 11  1  0
 11 12  2  0
 13 11  1  0
 13 14  1  0
 14 15  1  0
 15 16  1  0
 17 15  2  0
M  END
$$$$
