VAG.pdb
     RDKit          3D

 17 16  0  0  1  0  0  0  0  0999 V2000
   34.8722  -11.5736  -14.3791 C   0  0  0  0  0  0  0  0  0  0  0  0
   35.7882  -10.4718  -13.9734 C   0  0  1  0  0  0  0  0  0  0  0  0
   37.1650  -11.0897  -13.7298 C   0  0  0  0  0  0  0  0  0  0  0  0
   35.9804   -9.3809  -14.9784 C   0  0  2  0  0  0  0  0  0  0  0  0
   36.4964  -10.0578  -16.1876 N   0  0  0  0  0  0  0  0  0  0  0  0
   36.9166   -8.3153  -14.5732 C   0  0  0  0  0  0  0  0  0  0  0  0
   38.1715   -8.4830  -14.7637 O   0  0  0  0  0  0  0  0  0  0  0  0
   36.9307   -4.7476  -13.2844 C   0  0  0  0  0  0  0  0  0  0  0  0
   37.5465   -6.0914  -13.5665 C   0  0  2  0  0  0  0  0  0  0  0  0
   36.5688   -7.0797  -13.9744 N   0  0  0  0  0  0  0  0  0  0  0  0
   38.3887   -6.5669  -12.4403 C   0  0  0  0  0  0  0  0  0  0  0  0
   37.8496   -7.2421  -11.5280 O   0  0  0  0  0  0  0  0  0  0  0  0
   39.7689   -6.2963  -12.3453 N   0  0  0  0  0  0  0  0  0  0  0  0
   40.6148   -6.7427  -11.2611 C   0  0  0  0  0  0  0  0  0  0  0  0
   40.9824   -8.1566  -11.3684 C   0  0  0  0  0  0  0  0  0  0  0  0
   41.7453   -8.8243  -10.4238 O   0  0  0  0  0  0  0  0  0  0  0  0
   40.5939   -8.8153  -12.3636 O   0  0  0  0  0  0  0  0  0  0  0  0
  2  3  1  6
  2  1  1  0
  4  2  1  0
  4  5  1  6
  6  4  1  0
  6 10  1  0
  7  6  2  0
  9  8  1  1
  9 10  1  0
  9 11  1  0
 11 12  2  0
 13 11  1  0
 13 14  1  0
 14 15  1  0
 15 16  1  0
 17 15  2  0
M  END
$$$$
