VAG.pdb
     RDKit          3D

 17 16  0  0  1  0  0  0  0  0999 V2000
   17.2452  -11.8980  -18.0688 C   0  0  0  0  0  0  0  0  0  0  0  0
   18.3997  -11.1698  -17.4734 C   0  0  1  0  0  0  0  0  0  0  0  0
   17.9739   -9.7134  -17.2880 C   0  0  0  0  0  0  0  0  0  0  0  0
   18.8564  -11.6560  -16.1347 C   0  0  2  0  0  0  0  0  0  0  0  0
   17.6355  -11.6923  -15.3011 N   0  0  0  0  0  0  0  0  0  0  0  0
   19.8758  -10.8153  -15.4786 C   0  0  0  0  0  0  0  0  0  0  0  0
   19.4982   -9.8259  -14.7591 O   0  0  0  0  0  0  0  0  0  0  0  0
   23.6179  -10.6960  -14.8571 C   0  0  0  0  0  0  0  0  0  0  0  0
   22.2255  -10.1258  -14.8793 C   0  0  2  0  0  0  0  0  0  0  0  0
   21.2794  -10.9875  -15.5585 N   0  0  0  0  0  0  0  0  0  0  0  0
   22.1989   -8.7380  -15.4059 C   0  0  0  0  0  0  0  0  0  0  0  0
   22.0582   -8.5655  -16.6426 O   0  0  0  0  0  0  0  0  0  0  0  0
   22.3242   -7.6010  -14.5821 N   0  0  0  0  0  0  0  0  0  0  0  0
   22.2417   -6.2376  -15.0558 C   0  0  0  0  0  0  0  0  0  0  0  0
   22.3547   -5.2509  -13.9791 C   0  0  0  0  0  0  0  0  0  0  0  0
   22.4619   -3.8867  -14.1972 O   0  0  0  0  0  0  0  0  0  0  0  0
   22.3562   -5.6444  -12.7873 O   0  0  0  0  0  0  0  0  0  0  0  0
  2  3  1  1
  2  1  1  0
  4  2  1  0
  4  5  1  1
  6  4  1  0
  6 10  1  0
  7  6  2  0
  9  8  1  6
  9 10  1  0
  9 11  1  0
 11 12  2  0
 13 11  1  0
 13 14  1  0
 14 15  1  0
 15 16  1  0
 17 15  2  0
M  END
$$$$
