VAG.pdb
     RDKit          3D

 17 16  0  0  1  0  0  0  0  0999 V2000
   25.1600  -35.0898  -14.3509 C   0  0  0  0  0  0  0  0  0  0  0  0
   24.9981  -34.6918  -12.9250 C   0  0  1  0  0  0  0  0  0  0  0  0
   25.8513  -33.4435  -12.7002 C   0  0  0  0  0  0  0  0  0  0  0  0
   23.6074  -34.3420  -12.5001 C   0  0  2  0  0  0  0  0  0  0  0  0
   23.1782  -33.2739  -13.4283 N   0  0  0  0  0  0  0  0  0  0  0  0
   23.4795  -33.8665  -11.1094 C   0  0  0  0  0  0  0  0  0  0  0  0
   23.3708  -32.6102  -10.8881 O   0  0  0  0  0  0  0  0  0  0  0  0
   22.3194  -35.0024   -7.7949 C   0  0  0  0  0  0  0  0  0  0  0  0
   23.2485  -34.1487   -8.6148 C   0  0  2  0  0  0  0  0  0  0  0  0
   23.4625  -34.6760   -9.9472 N   0  0  0  0  0  0  0  0  0  0  0  0
   24.5249  -33.8749   -7.9080 C   0  0  0  0  0  0  0  0  0  0  0  0
   25.5238  -34.5912   -8.1691 O   0  0  0  0  0  0  0  0  0  0  0  0
   24.6703  -32.8465   -6.9549 N   0  0  0  0  0  0  0  0  0  0  0  0
   25.9011  -32.5493   -6.2572 C   0  0  0  0  0  0  0  0  0  0  0  0
   26.2140  -33.5246   -5.2099 C   0  0  0  0  0  0  0  0  0  0  0  0
   27.3030  -33.4147   -4.3602 O   0  0  0  0  0  0  0  0  0  0  0  0
   25.4656  -34.5209   -5.0594 O   0  0  0  0  0  0  0  0  0  0  0  0
  2  3  1  6
  2  1  1  0
  4  2  1  0
  4  5  1  6
  6  4  1  0
  6 10  1  0
  7  6  2  0
  9  8  1  1
  9 10  1  0
  9 11  1  0
 11 12  2  0
 13 11  1  0
 13 14  1  0
 14 15  1  0
 15 16  1  0
 17 15  2  0
M  END
$$$$
