VAG.pdb
     RDKit          3D

 17 16  0  0  1  0  0  0  0  0999 V2000
   16.8576  -11.4542  -16.5715 C   0  0  0  0  0  0  0  0  0  0  0  0
   17.9896  -10.5270  -16.2950 C   0  0  1  0  0  0  0  0  0  0  0  0
   17.9901  -10.2430  -14.7930 C   0  0  0  0  0  0  0  0  0  0  0  0
   19.3521  -11.0432  -16.6335 C   0  0  2  0  0  0  0  0  0  0  0  0
   19.4676  -12.3281  -15.9109 N   0  0  0  0  0  0  0  0  0  0  0  0
   20.4689  -10.1595  -16.2483 C   0  0  0  0  0  0  0  0  0  0  0  0
   21.0544  -10.3489  -15.1257 O   0  0  0  0  0  0  0  0  0  0  0  0
   22.7403   -7.4978  -17.6829 C   0  0  0  0  0  0  0  0  0  0  0  0
   22.0676   -8.2346  -16.5565 C   0  0  2  0  0  0  0  0  0  0  0  0
   20.9856   -9.0840  -17.0115 N   0  0  0  0  0  0  0  0  0  0  0  0
   21.6429   -7.3206  -15.4664 C   0  0  0  0  0  0  0  0  0  0  0  0
   20.4617   -6.8920  -15.4655 O   0  0  0  0  0  0  0  0  0  0  0  0
   22.5043   -6.9094  -14.4292 N   0  0  0  0  0  0  0  0  0  0  0  0
   22.1324   -5.9914  -13.3760 C   0  0  0  0  0  0  0  0  0  0  0  0
   22.1210   -4.5936  -13.8142 C   0  0  0  0  0  0  0  0  0  0  0  0
   22.3743   -3.5236  -12.9711 O   0  0  0  0  0  0  0  0  0  0  0  0
   21.8700   -4.3319  -15.0157 O   0  0  0  0  0  0  0  0  0  0  0  0
  2  3  1  1
  2  1  1  0
  4  2  1  0
  4  5  1  1
  6  4  1  0
  6 10  1  0
  7  6  2  0
  9  8  1  6
  9 10  1  0
  9 11  1  0
 11 12  2  0
 13 11  1  0
 13 14  1  0
 14 15  1  0
 15 16  1  0
 17 15  2  0
M  END
$$$$
