VAG.pdb
     RDKit          3D

 17 16  0  0  1  0  0  0  0  0999 V2000
   15.9993  -10.0461  -15.8996 C   0  0  0  0  0  0  0  0  0  0  0  0
   17.4099   -9.5984  -16.0654 C   0  0  1  0  0  0  0  0  0  0  0  0
   17.8862   -9.0796  -14.7087 C   0  0  0  0  0  0  0  0  0  0  0  0
   18.3831  -10.6535  -16.4859 C   0  0  2  0  0  0  0  0  0  0  0  0
   18.2284  -11.7380  -15.4927 N   0  0  0  0  0  0  0  0  0  0  0  0
   19.7933  -10.2221  -16.5282 C   0  0  0  0  0  0  0  0  0  0  0  0
   20.5929  -10.6157  -15.6091 O   0  0  0  0  0  0  0  0  0  0  0  0
   22.3392   -8.8052  -18.8817 C   0  0  0  0  0  0  0  0  0  0  0  0
   21.7844   -9.0186  -17.4993 C   0  0  2  0  0  0  0  0  0  0  0  0
   20.3839   -9.3896  -17.5102 N   0  0  0  0  0  0  0  0  0  0  0  0
   22.0519   -7.8635  -16.6060 C   0  0  0  0  0  0  0  0  0  0  0  0
   23.2387   -7.4776  -16.4590 O   0  0  0  0  0  0  0  0  0  0  0  0
   21.0348   -7.1767  -15.9124 N   0  0  0  0  0  0  0  0  0  0  0  0
   21.2329   -5.9420  -15.1869 C   0  0  0  0  0  0  0  0  0  0  0  0
   21.8218   -6.1466  -13.8613 C   0  0  0  0  0  0  0  0  0  0  0  0
   22.1394   -5.1126  -12.9954 O   0  0  0  0  0  0  0  0  0  0  0  0
   22.0588   -7.3160  -13.4717 O   0  0  0  0  0  0  0  0  0  0  0  0
  2  3  1  1
  2  1  1  0
  4  2  1  0
  4  5  1  1
  6  4  1  0
  6 10  1  0
  7  6  2  0
  9  8  1  6
  9 10  1  0
  9 11  1  0
 11 12  2  0
 13 11  1  0
 13 14  1  0
 14 15  1  0
 15 16  1  0
 17 15  2  0
M  END
$$$$
