VAG.pdb
     RDKit          3D

 17 16  0  0  1  0  0  0  0  0999 V2000
   16.0506  -13.4513  -15.9382 C   0  0  0  0  0  0  0  0  0  0  0  0
   17.3180  -12.7226  -16.2216 C   0  0  1  0  0  0  0  0  0  0  0  0
   17.1074  -11.9246  -17.5083 C   0  0  0  0  0  0  0  0  0  0  0  0
   17.7544  -11.7443  -15.1778 C   0  0  2  0  0  0  0  0  0  0  0  0
   16.5506  -10.9402  -14.8763 N   0  0  0  0  0  0  0  0  0  0  0  0
   18.8559  -10.8496  -15.5810 C   0  0  0  0  0  0  0  0  0  0  0  0
   20.0351  -11.3316  -15.7082 O   0  0  0  0  0  0  0  0  0  0  0  0
   19.6205   -7.7486  -17.3859 C   0  0  0  0  0  0  0  0  0  0  0  0
   19.8862   -8.6328  -16.1977 C   0  0  2  0  0  0  0  0  0  0  0  0
   18.7502   -9.4638  -15.8542 N   0  0  0  0  0  0  0  0  0  0  0  0
   20.3924   -7.8649  -15.0324 C   0  0  0  0  0  0  0  0  0  0  0  0
   19.5667   -7.4417  -14.1851 O   0  0  0  0  0  0  0  0  0  0  0  0
   21.7596   -7.5871  -14.8305 N   0  0  0  0  0  0  0  0  0  0  0  0
   22.2758   -6.7720  -13.7537 C   0  0  0  0  0  0  0  0  0  0  0  0
   22.0715   -5.3383  -13.9741 C   0  0  0  0  0  0  0  0  0  0  0  0
   21.4098   -4.8182  -15.0749 O   0  0  0  0  0  0  0  0  0  0  0  0
   22.5131   -4.5212  -13.1299 O   0  0  0  0  0  0  0  0  0  0  0  0
  2  3  1  6
  2  1  1  0
  4  2  1  0
  4  5  1  6
  6  4  1  0
  6 10  1  0
  7  6  2  0
  9  8  1  6
  9 10  1  0
  9 11  1  0
 11 12  2  0
 13 11  1  0
 13 14  1  0
 14 15  1  0
 15 16  1  0
 17 15  2  0
M  END
$$$$
