VAG.pdb
     RDKit          3D

 17 16  0  0  1  0  0  0  0  0999 V2000
   21.5405  -13.7890  -17.8482 C   0  0  0  0  0  0  0  0  0  0  0  0
   21.8655  -12.3363  -17.8066 C   0  0  1  0  0  0  0  0  0  0  0  0
   21.0333  -11.6515  -18.8907 C   0  0  0  0  0  0  0  0  0  0  0  0
   21.5550  -11.6357  -16.5221 C   0  0  2  0  0  0  0  0  0  0  0  0
   20.1213  -11.9012  -16.2755 N   0  0  0  0  0  0  0  0  0  0  0  0
   21.7918  -10.1797  -16.5310 C   0  0  0  0  0  0  0  0  0  0  0  0
   22.9954   -9.7441  -16.5001 O   0  0  0  0  0  0  0  0  0  0  0  0
   20.0257   -6.9595  -17.3191 C   0  0  0  0  0  0  0  0  0  0  0  0
   21.1042   -7.7564  -16.6364 C   0  0  2  0  0  0  0  0  0  0  0  0
   20.7982   -9.1711  -16.5722 N   0  0  0  0  0  0  0  0  0  0  0  0
   21.4545   -7.1973  -15.3065 C   0  0  0  0  0  0  0  0  0  0  0  0
   20.8918   -7.6697  -14.2871 O   0  0  0  0  0  0  0  0  0  0  0  0
   22.3912   -6.1583  -15.1323 N   0  0  0  0  0  0  0  0  0  0  0  0
   22.8169   -5.6512  -13.8471 C   0  0  0  0  0  0  0  0  0  0  0  0
   22.1585   -4.3946  -13.4823 C   0  0  0  0  0  0  0  0  0  0  0  0
   22.5040   -3.6423  -12.3711 O   0  0  0  0  0  0  0  0  0  0  0  0
   21.2283   -3.9600  -14.2041 O   0  0  0  0  0  0  0  0  0  0  0  0
  2  3  1  6
  2  1  1  0
  4  2  1  0
  4  5  1  6
  6  4  1  0
  6 10  1  0
  7  6  2  0
  9  8  1  1
  9 10  1  0
  9 11  1  0
 11 12  2  0
 13 11  1  0
 13 14  1  0
 14 15  1  0
 15 16  1  0
 17 15  2  0
M  END
$$$$
