QKL.pdb
     RDKit          3D

 27 26  0  0  1  0  0  0  0  0999 V2000
    8.4178  -12.1555   18.6542 N   0  0  0  0  0  0  0  0  0  0  0  0
    8.6008  -13.0024   17.5061 C   0  0  0  0  0  0  0  0  0  0  0  0
    8.6185  -12.4606   16.3964 O   0  0  0  0  0  0  0  0  0  0  0  0
    8.7530  -14.4466   17.6669 C   0  0  0  0  0  0  0  0  0  0  0  0
    8.6719  -14.9450   19.0522 C   0  0  0  0  0  0  0  0  0  0  0  0
    8.9670  -16.3870   19.2502 C   0  0  2  0  0  0  0  0  0  0  0  0
    8.2062  -17.2213   18.3663 N   0  0  0  0  0  0  0  0  0  0  0  0
    8.7415  -16.7644   20.6783 C   0  0  0  0  0  0  0  0  0  0  0  0
    7.5432  -16.9417   21.0324 O   0  0  0  0  0  0  0  0  0  0  0  0
    9.7478  -16.9308   21.6322 N   0  0  0  0  0  0  0  0  0  0  0  0
    9.4257  -17.3501   23.0549 C   0  0  1  0  0  0  0  0  0  0  0  0
   10.3979  -18.4090   23.3077 C   0  0  0  0  0  0  0  0  0  0  0  0
   10.5698  -19.1678   24.5260 C   0  0  0  0  0  0  0  0  0  0  0  0
   11.6022  -20.2415   24.6013 C   0  0  0  0  0  0  0  0  0  0  0  0
   11.6454  -20.9128   25.9591 C   0  0  0  0  0  0  0  0  0  0  0  0
   12.7252  -21.8841   26.0301 N   0  0  0  0  0  0  0  0  0  0  0  0
    9.4550  -16.1007   23.7894 C   0  0  0  0  0  0  0  0  0  0  0  0
   10.3100  -15.2246   23.5768 O   0  0  0  0  0  0  0  0  0  0  0  0
    8.2905  -12.0049   27.1874 C   0  0  0  0  0  0  0  0  0  0  0  0
    7.3976  -12.3981   26.0813 C   0  0  2  0  0  0  0  0  0  0  0  0
    5.9417  -12.0798   26.5320 C   0  0  0  0  0  0  0  0  0  0  0  0
    7.4403  -13.7521   25.5247 C   0  0  0  0  0  0  0  0  0  0  0  0
    8.6638  -14.5453   25.6350 C   0  0  2  0  0  0  0  0  0  0  0  0
    8.5087  -15.7906   24.8028 N   0  0  0  0  0  0  0  0  0  0  0  0
    9.0570  -14.9674   26.9793 C   0  0  0  0  0  0  0  0  0  0  0  0
    9.9008  -14.1289   27.7770 O   0  0  0  0  0  0  0  0  0  0  0  0
    8.7430  -16.0212   27.5702 O   0  0  0  0  0  0  0  0  0  0  0  0
  1  2  1  0
  2  4  1  0
  2  3  2  0
  4  5  1  0
  5  6  1  0
  6  7  1  6
  6  8  1  0
  8  9  2  0
 10  8  1  0
 10 11  1  0
 11 12  1  1
 13 12  1  0
 14 15  1  0
 14 13  1  0
 16 15  1  0
 17 24  1  0
 17 11  1  0
 18 17  2  0
 20 19  1  1
 20 22  1  0
 21 20  1  0
 23 22  1  1
 23 25  1  0
 23 24  1  0
 25 26  1  0
 27 25  2  0
M  END
$$$$
