QKL.pdb
     RDKit          3D

 27 26  0  0  1  0  0  0  0  0999 V2000
   11.6763  -19.6921   16.8979 N   0  0  0  0  0  0  0  0  0  0  0  0
   10.4208  -19.4613   17.5606 C   0  0  0  0  0  0  0  0  0  0  0  0
    9.4264  -19.2838   16.8500 O   0  0  0  0  0  0  0  0  0  0  0  0
   10.3462  -19.4366   19.0196 C   0  0  0  0  0  0  0  0  0  0  0  0
   10.6159  -18.1307   19.6488 C   0  0  0  0  0  0  0  0  0  0  0  0
   10.0458  -17.9241   21.0046 C   0  0  2  0  0  0  0  0  0  0  0  0
    8.7276  -18.4750   21.1269 N   0  0  0  0  0  0  0  0  0  0  0  0
   10.0587  -16.4703   21.3494 C   0  0  0  0  0  0  0  0  0  0  0  0
   11.1598  -15.8684   21.2147 O   0  0  0  0  0  0  0  0  0  0  0  0
    8.9558  -15.7441   21.8036 N   0  0  0  0  0  0  0  0  0  0  0  0
    9.0550  -14.2582   22.0968 C   0  0  1  0  0  0  0  0  0  0  0  0
    7.9370  -13.7040   21.3395 C   0  0  0  0  0  0  0  0  0  0  0  0
    7.6102  -13.9509   19.9533 C   0  0  0  0  0  0  0  0  0  0  0  0
    8.3607  -13.2524   18.8701 C   0  0  0  0  0  0  0  0  0  0  0  0
    7.8712  -13.6297   17.4866 C   0  0  0  0  0  0  0  0  0  0  0  0
    8.6285  -12.9385   16.4554 N   0  0  0  0  0  0  0  0  0  0  0  0
    9.0937  -14.2023   23.5449 C   0  0  0  0  0  0  0  0  0  0  0  0
    9.4497  -13.1841   24.1615 O   0  0  0  0  0  0  0  0  0  0  0  0
    7.9147  -12.1613   26.7133 C   0  0  0  0  0  0  0  0  0  0  0  0
    7.1242  -13.2149   26.0496 C   0  0  2  0  0  0  0  0  0  0  0  0
    5.6286  -12.9502   26.3915 C   0  0  0  0  0  0  0  0  0  0  0  0
    7.4217  -14.6316   26.2719 C   0  0  0  0  0  0  0  0  0  0  0  0
    8.7146  -15.1764   25.8598 C   0  0  2  0  0  0  0  0  0  0  0  0
    8.7274  -15.3071   24.3597 N   0  0  0  0  0  0  0  0  0  0  0  0
    9.0879  -16.4784   26.4123 C   0  0  0  0  0  0  0  0  0  0  0  0
    9.5021  -17.5364   25.5402 O   0  0  0  0  0  0  0  0  0  0  0  0
    9.0985  -16.8232   27.6120 O   0  0  0  0  0  0  0  0  0  0  0  0
  1  2  1  0
  2  4  1  0
  2  3  2  0
  4  5  1  0
  5  6  1  0
  6  7  1  6
  6  8  1  0
  8  9  2  0
 10  8  1  0
 10 11  1  0
 11 12  1  1
 13 12  1  0
 14 15  1  0
 14 13  1  0
 16 15  1  0
 17 24  1  0
 17 11  1  0
 18 17  2  0
 20 19  1  1
 20 22  1  0
 21 20  1  0
 23 22  1  1
 23 25  1  0
 23 24  1  0
 25 26  1  0
 27 25  2  0
M  END
$$$$
