QKL.pdb
     RDKit          3D

 27 26  0  0  1  0  0  0  0  0999 V2000
    9.3495  -13.4887   16.8793 N   0  0  0  0  0  0  0  0  0  0  0  0
    8.0472  -14.0655   16.6793 C   0  0  0  0  0  0  0  0  0  0  0  0
    7.6229  -14.1250   15.5209 O   0  0  0  0  0  0  0  0  0  0  0  0
    7.2694  -14.5522   17.8163 C   0  0  0  0  0  0  0  0  0  0  0  0
    7.9183  -14.4223   19.1339 C   0  0  0  0  0  0  0  0  0  0  0  0
    8.4013  -15.6815   19.7558 C   0  0  2  0  0  0  0  0  0  0  0  0
    8.2718  -16.8047   18.8739 N   0  0  0  0  0  0  0  0  0  0  0  0
    7.6875  -15.9218   21.0464 C   0  0  0  0  0  0  0  0  0  0  0  0
    6.9131  -15.0069   21.4416 O   0  0  0  0  0  0  0  0  0  0  0  0
    7.8166  -17.0688   21.8325 N   0  0  0  0  0  0  0  0  0  0  0  0
    7.0744  -17.2116   23.1488 C   0  0  1  0  0  0  0  0  0  0  0  0
    6.9893  -18.6591   23.3163 C   0  0  0  0  0  0  0  0  0  0  0  0
    6.0177  -19.5533   22.7281 C   0  0  0  0  0  0  0  0  0  0  0  0
    6.1308  -21.0257   22.9368 C   0  0  0  0  0  0  0  0  0  0  0  0
    5.0385  -21.7995   22.2270 C   0  0  0  0  0  0  0  0  0  0  0  0
    5.2285  -23.2333   22.3775 N   0  0  0  0  0  0  0  0  0  0  0  0
    7.8416  -16.3852   24.0597 C   0  0  0  0  0  0  0  0  0  0  0  0
    9.0726  -16.2503   23.9585 O   0  0  0  0  0  0  0  0  0  0  0  0
    7.9050  -12.2764   28.0489 C   0  0  0  0  0  0  0  0  0  0  0  0
    7.3910  -12.2056   26.6683 C   0  0  2  0  0  0  0  0  0  0  0  0
    6.2027  -11.1997   26.6723 C   0  0  0  0  0  0  0  0  0  0  0  0
    6.9884  -13.4180   25.9520 C   0  0  0  0  0  0  0  0  0  0  0  0
    7.9496  -14.5034   25.7623 C   0  0  2  0  0  0  0  0  0  0  0  0
    7.2400  -15.6720   25.1313 N   0  0  0  0  0  0  0  0  0  0  0  0
    8.6267  -15.0014   26.9596 C   0  0  0  0  0  0  0  0  0  0  0  0
    8.1312  -16.1643   27.6332 O   0  0  0  0  0  0  0  0  0  0  0  0
    9.6396  -14.5288   27.5152 O   0  0  0  0  0  0  0  0  0  0  0  0
  1  2  1  0
  2  4  1  0
  2  3  2  0
  4  5  1  0
  5  6  1  0
  6  7  1  6
  6  8  1  0
  8  9  2  0
 10  8  1  0
 10 11  1  0
 11 12  1  1
 13 12  1  0
 14 15  1  0
 14 13  1  0
 16 15  1  0
 17 24  1  0
 17 11  1  0
 18 17  2  0
 20 19  1  1
 20 22  1  0
 21 20  1  0
 23 22  1  1
 23 25  1  0
 23 24  1  0
 25 26  1  0
 27 25  2  0
M  END
$$$$
