QKL.pdb
     RDKit          3D

 27 26  0  0  1  0  0  0  0  0999 V2000
    7.3649  -12.6221   17.0856 N   0  0  0  0  0  0  0  0  0  0  0  0
    7.5583  -14.0469   17.0512 C   0  0  0  0  0  0  0  0  0  0  0  0
    6.9907  -14.6767   16.1531 O   0  0  0  0  0  0  0  0  0  0  0  0
    8.3938  -14.7060   18.0522 C   0  0  0  0  0  0  0  0  0  0  0  0
    8.9755  -13.8214   19.0784 C   0  0  0  0  0  0  0  0  0  0  0  0
    9.7754  -14.4835   20.1402 C   0  0  2  0  0  0  0  0  0  0  0  0
   10.6007  -15.5344   19.6199 N   0  0  0  0  0  0  0  0  0  0  0  0
    8.8747  -14.9875   21.2207 C   0  0  0  0  0  0  0  0  0  0  0  0
    7.9407  -14.2189   21.5808 O   0  0  0  0  0  0  0  0  0  0  0  0
    8.9935  -16.2288   21.8495 N   0  0  0  0  0  0  0  0  0  0  0  0
    8.0564  -16.6388   22.9709 C   0  0  1  0  0  0  0  0  0  0  0  0
    8.0071  -18.0914   22.8359 C   0  0  0  0  0  0  0  0  0  0  0  0
    7.2272  -19.0183   23.6246 C   0  0  0  0  0  0  0  0  0  0  0  0
    7.2799  -20.4800   23.3330 C   0  0  0  0  0  0  0  0  0  0  0  0
    6.4100  -21.2921   24.2709 C   0  0  0  0  0  0  0  0  0  0  0  0
    6.4471  -22.7051   23.9296 N   0  0  0  0  0  0  0  0  0  0  0  0
    8.6316  -16.0035   24.1400 C   0  0  0  0  0  0  0  0  0  0  0  0
    9.8508  -15.7899   24.2483 O   0  0  0  0  0  0  0  0  0  0  0  0
    7.8436  -11.7518   25.7022 C   0  0  0  0  0  0  0  0  0  0  0  0
    6.9633  -12.8387   26.1701 C   0  0  2  0  0  0  0  0  0  0  0  0
    5.7793  -12.1741   26.9321 C   0  0  0  0  0  0  0  0  0  0  0  0
    7.4921  -13.9409   26.9768 C   0  0  0  0  0  0  0  0  0  0  0  0
    8.4761  -14.8564   26.4009 C   0  0  2  0  0  0  0  0  0  0  0  0
    7.8421  -15.5808   25.2430 N   0  0  0  0  0  0  0  0  0  0  0  0
    9.0350  -15.8710   27.2943 C   0  0  0  0  0  0  0  0  0  0  0  0
    8.7106  -17.2530   27.1034 O   0  0  0  0  0  0  0  0  0  0  0  0
    9.8038  -15.6951   28.2619 O   0  0  0  0  0  0  0  0  0  0  0  0
  1  2  1  0
  2  4  1  0
  2  3  2  0
  4  5  1  0
  5  6  1  0
  6  7  1  6
  6  8  1  0
  8  9  2  0
 10  8  1  0
 10 11  1  0
 11 12  1  1
 13 12  1  0
 14 15  1  0
 14 13  1  0
 16 15  1  0
 17 24  1  0
 17 11  1  0
 18 17  2  0
 20 19  1  1
 20 22  1  0
 21 20  1  0
 23 22  1  1
 23 25  1  0
 23 24  1  0
 25 26  1  0
 27 25  2  0
M  END
$$$$
