QKL.pdb
     RDKit          3D

 27 26  0  0  1  0  0  0  0  0999 V2000
   14.4954  -13.1642   18.7502 N   0  0  0  0  0  0  0  0  0  0  0  0
   14.1363  -14.3335   17.9935 C   0  0  0  0  0  0  0  0  0  0  0  0
   14.8452  -14.6244   17.0249 O   0  0  0  0  0  0  0  0  0  0  0  0
   12.9709  -15.1306   18.3692 C   0  0  0  0  0  0  0  0  0  0  0  0
   12.2438  -14.6702   19.5665 C   0  0  0  0  0  0  0  0  0  0  0  0
   11.9726  -15.6960   20.6056 C   0  0  2  0  0  0  0  0  0  0  0  0
   12.1148  -17.0300   20.0992 N   0  0  0  0  0  0  0  0  0  0  0  0
   10.6157  -15.4825   21.1940 C   0  0  0  0  0  0  0  0  0  0  0  0
   10.2542  -14.2845   21.3581 O   0  0  0  0  0  0  0  0  0  0  0  0
    9.7355  -16.4996   21.5694 N   0  0  0  0  0  0  0  0  0  0  0  0
    8.3702  -16.1865   22.1539 C   0  0  1  0  0  0  0  0  0  0  0  0
    7.5865  -17.3639   21.7932 C   0  0  0  0  0  0  0  0  0  0  0  0
    7.1744  -17.7695   20.4684 C   0  0  0  0  0  0  0  0  0  0  0  0
    6.4166  -19.0395   20.2748 C   0  0  0  0  0  0  0  0  0  0  0  0
    6.0703  -19.2946   18.8219 C   0  0  0  0  0  0  0  0  0  0  0  0
    5.3533  -20.5500   18.6660 N   0  0  0  0  0  0  0  0  0  0  0  0
    8.6618  -15.8623   23.5364 C   0  0  0  0  0  0  0  0  0  0  0  0
    9.7456  -16.1488   24.0720 O   0  0  0  0  0  0  0  0  0  0  0  0
    8.1846  -11.7631   25.9727 C   0  0  0  0  0  0  0  0  0  0  0  0
    7.0266  -12.6675   25.8451 C   0  0  2  0  0  0  0  0  0  0  0  0
    5.7969  -11.9256   26.4463 C   0  0  0  0  0  0  0  0  0  0  0  0
    7.0725  -14.0294   26.3822 C   0  0  0  0  0  0  0  0  0  0  0  0
    8.0269  -14.9939   25.8374 C   0  0  2  0  0  0  0  0  0  0  0  0
    7.7292  -15.1946   24.3751 N   0  0  0  0  0  0  0  0  0  0  0  0
    8.0555  -16.3172   26.4604 C   0  0  0  0  0  0  0  0  0  0  0  0
    8.9034  -16.5613   27.5887 O   0  0  0  0  0  0  0  0  0  0  0  0
    7.4056  -17.3302   26.1294 O   0  0  0  0  0  0  0  0  0  0  0  0
  1  2  1  0
  2  4  1  0
  2  3  2  0
  4  5  1  0
  5  6  1  0
  6  7  1  6
  6  8  1  0
  8  9  2  0
 10  8  1  0
 10 11  1  0
 11 12  1  1
 13 12  1  0
 14 15  1  0
 14 13  1  0
 16 15  1  0
 17 24  1  0
 17 11  1  0
 18 17  2  0
 20 19  1  1
 20 22  1  0
 21 20  1  0
 23 22  1  1
 23 25  1  0
 23 24  1  0
 25 26  1  0
 27 25  2  0
M  END
$$$$
