QKL.pdb
     RDKit          3D

 27 26  0  0  1  0  0  0  0  0999 V2000
    7.8177  -12.3660   19.5352 N   0  0  0  0  0  0  0  0  0  0  0  0
    8.2902  -13.2775   18.5279 C   0  0  0  0  0  0  0  0  0  0  0  0
    8.7905  -12.7905   17.5092 O   0  0  0  0  0  0  0  0  0  0  0  0
    8.1694  -14.7210   18.7190 C   0  0  0  0  0  0  0  0  0  0  0  0
    7.5303  -15.1453   19.9782 C   0  0  0  0  0  0  0  0  0  0  0  0
    7.4144  -16.6098   20.1956 C   0  0  2  0  0  0  0  0  0  0  0  0
    6.4313  -17.2076   19.3398 N   0  0  0  0  0  0  0  0  0  0  0  0
    7.1236  -16.8926   21.6337 C   0  0  0  0  0  0  0  0  0  0  0  0
    5.9527  -16.6417   22.0324 O   0  0  0  0  0  0  0  0  0  0  0  0
    8.0424  -17.4059   22.5516 N   0  0  0  0  0  0  0  0  0  0  0  0
    7.6512  -17.6771   23.9929 C   0  0  1  0  0  0  0  0  0  0  0  0
    8.0080  -19.0819   24.1656 C   0  0  0  0  0  0  0  0  0  0  0  0
    7.2541  -20.2367   23.7325 C   0  0  0  0  0  0  0  0  0  0  0  0
    5.8638  -20.4531   24.2272 C   0  0  0  0  0  0  0  0  0  0  0  0
    5.2144  -21.6797   23.6192 C   0  0  0  0  0  0  0  0  0  0  0  0
    3.9028  -21.9209   24.1989 N   0  0  0  0  0  0  0  0  0  0  0  0
    8.3257  -16.6259   24.7287 C   0  0  0  0  0  0  0  0  0  0  0  0
    9.5126  -16.3242   24.5192 O   0  0  0  0  0  0  0  0  0  0  0  0
    7.1418  -12.2462   25.1977 C   0  0  0  0  0  0  0  0  0  0  0  0
    6.6075  -13.1453   26.2375 C   0  0  2  0  0  0  0  0  0  0  0  0
    5.6257  -12.3074   27.1082 C   0  0  0  0  0  0  0  0  0  0  0  0
    7.5060  -13.8953   27.1181 C   0  0  0  0  0  0  0  0  0  0  0  0
    8.4482  -14.8568   26.5471 C   0  0  2  0  0  0  0  0  0  0  0  0
    7.6771  -15.8675   25.7401 N   0  0  0  0  0  0  0  0  0  0  0  0
    9.2842  -15.6001   27.4897 C   0  0  0  0  0  0  0  0  0  0  0  0
   10.3981  -14.9587   28.1217 O   0  0  0  0  0  0  0  0  0  0  0  0
    9.1591  -16.7898   27.8462 O   0  0  0  0  0  0  0  0  0  0  0  0
  1  2  1  0
  2  4  1  0
  2  3  2  0
  4  5  1  0
  5  6  1  0
  6  7  1  6
  6  8  1  0
  8  9  2  0
 10  8  1  0
 10 11  1  0
 11 12  1  1
 13 12  1  0
 14 15  1  0
 14 13  1  0
 16 15  1  0
 17 24  1  0
 17 11  1  0
 18 17  2  0
 20 19  1  6
 20 22  1  0
 21 20  1  0
 23 22  1  1
 23 25  1  0
 23 24  1  0
 25 26  1  0
 27 25  2  0
M  END
$$$$
