QKL.pdb
     RDKit          3D

 27 26  0  0  1  0  0  0  0  0999 V2000
    7.7049  -12.3730   17.3035 N   0  0  0  0  0  0  0  0  0  0  0  0
    7.8015  -13.6327   16.6161 C   0  0  0  0  0  0  0  0  0  0  0  0
    7.2500  -13.7238   15.5148 O   0  0  0  0  0  0  0  0  0  0  0  0
    8.5246  -14.7513   17.2165 C   0  0  0  0  0  0  0  0  0  0  0  0
    9.0467  -14.5161   18.5752 C   0  0  0  0  0  0  0  0  0  0  0  0
    9.8238  -15.6267   19.1821 C   0  0  2  0  0  0  0  0  0  0  0  0
    9.8826  -16.7763   18.3271 N   0  0  0  0  0  0  0  0  0  0  0  0
    9.2582  -15.9760   20.5203 C   0  0  0  0  0  0  0  0  0  0  0  0
    8.0612  -15.6367   20.7328 O   0  0  0  0  0  0  0  0  0  0  0  0
    9.9507  -16.6399   21.5351 N   0  0  0  0  0  0  0  0  0  0  0  0
    9.2448  -17.1180   22.7908 C   0  0  1  0  0  0  0  0  0  0  0  0
    9.9314  -18.3707   23.0905 C   0  0  0  0  0  0  0  0  0  0  0  0
    9.5862  -19.6931   22.6199 C   0  0  0  0  0  0  0  0  0  0  0  0
   10.3382  -20.3059   21.4870 C   0  0  0  0  0  0  0  0  0  0  0  0
    9.7586  -21.6383   21.0571 C   0  0  0  0  0  0  0  0  0  0  0  0
   10.4044  -22.1261   19.8490 N   0  0  0  0  0  0  0  0  0  0  0  0
    9.3266  -15.9754   23.6792 C   0  0  0  0  0  0  0  0  0  0  0  0
   10.3389  -15.2583   23.7484 O   0  0  0  0  0  0  0  0  0  0  0  0
    5.7597  -12.0007   26.8303 C   0  0  0  0  0  0  0  0  0  0  0  0
    7.0789  -12.5792   26.5135 C   0  0  2  0  0  0  0  0  0  0  0  0
    7.9989  -11.4055   26.0662 C   0  0  0  0  0  0  0  0  0  0  0  0
    7.2077  -13.6792   25.5552 C   0  0  0  0  0  0  0  0  0  0  0  0
    8.4322  -14.4780   25.5256 C   0  0  2  0  0  0  0  0  0  0  0  0
    8.2556  -15.5958   24.5323 N   0  0  0  0  0  0  0  0  0  0  0  0
    8.8559  -15.0822   26.7886 C   0  0  0  0  0  0  0  0  0  0  0  0
    9.8256  -14.4221   27.6106 O   0  0  0  0  0  0  0  0  0  0  0  0
    8.4696  -16.1599   27.2861 O   0  0  0  0  0  0  0  0  0  0  0  0
  1  2  1  0
  2  4  1  0
  2  3  2  0
  4  5  1  0
  5  6  1  0
  6  7  1  6
  6  8  1  0
  8  9  2  0
 10  8  1  0
 10 11  1  0
 11 12  1  1
 13 12  1  0
 14 15  1  0
 14 13  1  0
 16 15  1  0
 17 24  1  0
 17 11  1  0
 18 17  2  0
 20 19  1  6
 20 22  1  0
 21 20  1  0
 23 22  1  1
 23 25  1  0
 23 24  1  0
 25 26  1  0
 27 25  2  0
M  END
$$$$
