QKL.pdb
     RDKit          3D

 27 26  0  0  1  0  0  0  0  0999 V2000
    7.7722  -15.1550   16.7587 N   0  0  0  0  0  0  0  0  0  0  0  0
    7.9342  -13.7258   16.7669 C   0  0  0  0  0  0  0  0  0  0  0  0
    8.1183  -13.1677   15.6807 O   0  0  0  0  0  0  0  0  0  0  0  0
    7.8847  -12.9814   18.0232 C   0  0  0  0  0  0  0  0  0  0  0  0
    7.6384  -13.7885   19.2322 C   0  0  0  0  0  0  0  0  0  0  0  0
    8.8092  -14.5133   19.7885 C   0  0  2  0  0  0  0  0  0  0  0  0
    9.2990  -15.5192   18.8915 N   0  0  0  0  0  0  0  0  0  0  0  0
    8.4647  -15.0973   21.1200 C   0  0  0  0  0  0  0  0  0  0  0  0
    7.3298  -14.8042   21.5879 O   0  0  0  0  0  0  0  0  0  0  0  0
    9.2978  -15.9299   21.8702 N   0  0  0  0  0  0  0  0  0  0  0  0
    8.7773  -16.6865   23.0787 C   0  0  1  0  0  0  0  0  0  0  0  0
    9.3729  -18.0087   22.9133 C   0  0  0  0  0  0  0  0  0  0  0  0
    8.7371  -19.1966   22.3898 C   0  0  0  0  0  0  0  0  0  0  0  0
    7.6183  -19.0786   21.4106 C   0  0  0  0  0  0  0  0  0  0  0  0
    6.9966  -20.4186   21.0732 C   0  0  0  0  0  0  0  0  0  0  0  0
    5.9274  -20.2706   20.0989 N   0  0  0  0  0  0  0  0  0  0  0  0
    9.1306  -15.8278   24.1918 C   0  0  0  0  0  0  0  0  0  0  0  0
   10.2604  -15.3246   24.3107 O   0  0  0  0  0  0  0  0  0  0  0  0
    7.8850  -11.7588   25.3006 C   0  0  0  0  0  0  0  0  0  0  0  0
    7.0187  -12.8161   25.8545 C   0  0  2  0  0  0  0  0  0  0  0  0
    5.7841  -12.1115   26.4897 C   0  0  0  0  0  0  0  0  0  0  0  0
    7.5456  -13.8018   26.8010 C   0  0  0  0  0  0  0  0  0  0  0  0
    8.6496  -14.6741   26.4030 C   0  0  2  0  0  0  0  0  0  0  0  0
    8.2104  -15.5015   25.2241 N   0  0  0  0  0  0  0  0  0  0  0  0
    9.1585  -15.5980   27.4166 C   0  0  0  0  0  0  0  0  0  0  0  0
    9.9853  -15.1120   28.4805 O   0  0  0  0  0  0  0  0  0  0  0  0
    8.9637  -16.8285   27.4935 O   0  0  0  0  0  0  0  0  0  0  0  0
  1  2  1  0
  2  4  1  0
  2  3  2  0
  4  5  1  0
  5  6  1  0
  6  7  1  6
  6  8  1  0
  8  9  2  0
 10  8  1  0
 10 11  1  0
 11 12  1  1
 13 12  1  0
 14 15  1  0
 14 13  1  0
 16 15  1  0
 17 24  1  0
 17 11  1  0
 18 17  2  0
 20 19  1  1
 20 22  1  0
 21 20  1  0
 23 22  1  1
 23 25  1  0
 23 24  1  0
 25 26  1  0
 27 25  2  0
M  END
$$$$
