QKL.pdb
     RDKit          3D

 27 26  0  0  1  0  0  0  0  0999 V2000
    7.2568  -12.3965   17.0654 N   0  0  0  0  0  0  0  0  0  0  0  0
    7.6679  -13.7402   16.7583 C   0  0  0  0  0  0  0  0  0  0  0  0
    7.3452  -14.1964   15.6569 O   0  0  0  0  0  0  0  0  0  0  0  0
    8.4330  -14.5211   17.7276 C   0  0  0  0  0  0  0  0  0  0  0  0
    8.6024  -13.9000   19.0540 C   0  0  0  0  0  0  0  0  0  0  0  0
    9.5116  -14.6004   19.9966 C   0  0  2  0  0  0  0  0  0  0  0  0
   10.2874  -15.6159   19.3460 N   0  0  0  0  0  0  0  0  0  0  0  0
    8.7298  -15.1650   21.1380 C   0  0  0  0  0  0  0  0  0  0  0  0
    7.8297  -14.4266   21.6251 O   0  0  0  0  0  0  0  0  0  0  0  0
    8.9237  -16.4312   21.6941 N   0  0  0  0  0  0  0  0  0  0  0  0
    8.0089  -16.9646   22.7816 C   0  0  1  0  0  0  0  0  0  0  0  0
    8.1033  -18.4101   22.6030 C   0  0  0  0  0  0  0  0  0  0  0  0
    7.0130  -19.3556   22.5212 C   0  0  0  0  0  0  0  0  0  0  0  0
    7.2898  -20.7994   22.2695 C   0  0  0  0  0  0  0  0  0  0  0  0
    6.0233  -21.6127   22.0950 C   0  0  0  0  0  0  0  0  0  0  0  0
    6.3291  -22.9984   21.7776 N   0  0  0  0  0  0  0  0  0  0  0  0
    8.4968  -16.3138   23.9815 C   0  0  0  0  0  0  0  0  0  0  0  0
    9.7069  -16.1232   24.1892 O   0  0  0  0  0  0  0  0  0  0  0  0
    7.5537  -12.0128   25.7402 C   0  0  0  0  0  0  0  0  0  0  0  0
    6.6456  -13.1306   26.0583 C   0  0  2  0  0  0  0  0  0  0  0  0
    5.4236  -12.5284   26.8121 C   0  0  0  0  0  0  0  0  0  0  0  0
    7.1257  -14.3058   26.7886 C   0  0  0  0  0  0  0  0  0  0  0  0
    8.1789  -15.1402   26.2115 C   0  0  2  0  0  0  0  0  0  0  0  0
    7.6260  -15.8487   25.0033 N   0  0  0  0  0  0  0  0  0  0  0  0
    8.7644  -16.1592   27.0825 C   0  0  0  0  0  0  0  0  0  0  0  0
    9.7897  -15.8021   28.0167 O   0  0  0  0  0  0  0  0  0  0  0  0
    8.4812  -17.3738   27.1327 O   0  0  0  0  0  0  0  0  0  0  0  0
  1  2  1  0
  2  4  1  0
  2  3  2  0
  4  5  1  0
  5  6  1  0
  6  7  1  6
  6  8  1  0
  8  9  2  0
 10  8  1  0
 10 11  1  0
 11 12  1  1
 13 12  1  0
 14 15  1  0
 14 13  1  0
 16 15  1  0
 17 24  1  0
 17 11  1  0
 18 17  2  0
 20 19  1  1
 20 22  1  0
 21 20  1  0
 23 22  1  1
 23 25  1  0
 23 24  1  0
 25 26  1  0
 27 25  2  0
M  END
$$$$
