QKL.pdb
     RDKit          3D

 27 26  0  0  1  0  0  0  0  0999 V2000
   11.4621  -19.3770   17.3515 N   0  0  0  0  0  0  0  0  0  0  0  0
   10.1072  -18.9192   17.5046 C   0  0  0  0  0  0  0  0  0  0  0  0
    9.4348  -18.7781   16.4783 O   0  0  0  0  0  0  0  0  0  0  0  0
    9.5671  -18.6325   18.8315 C   0  0  0  0  0  0  0  0  0  0  0  0
   10.4801  -18.8912   19.9601 C   0  0  0  0  0  0  0  0  0  0  0  0
    9.9362  -18.6336   21.3178 C   0  0  2  0  0  0  0  0  0  0  0  0
    8.5739  -19.0626   21.4453 N   0  0  0  0  0  0  0  0  0  0  0  0
   10.0824  -17.1869   21.6621 C   0  0  0  0  0  0  0  0  0  0  0  0
   11.2604  -16.7382   21.7244 O   0  0  0  0  0  0  0  0  0  0  0  0
    9.0238  -16.3123   21.9162 N   0  0  0  0  0  0  0  0  0  0  0  0
    9.2621  -14.8324   22.1546 C   0  0  1  0  0  0  0  0  0  0  0  0
    8.1427  -14.2082   21.4561 C   0  0  0  0  0  0  0  0  0  0  0  0
    7.7839  -14.3611   20.0642 C   0  0  0  0  0  0  0  0  0  0  0  0
    8.3721  -13.4565   19.0345 C   0  0  0  0  0  0  0  0  0  0  0  0
    7.8665  -13.7578   17.6383 C   0  0  0  0  0  0  0  0  0  0  0  0
    8.3988  -12.8109   16.6717 N   0  0  0  0  0  0  0  0  0  0  0  0
    9.4050  -14.7416   23.5943 C   0  0  0  0  0  0  0  0  0  0  0  0
   10.3033  -14.0728   24.1323 O   0  0  0  0  0  0  0  0  0  0  0  0
    7.8576  -12.1170   26.6755 C   0  0  0  0  0  0  0  0  0  0  0  0
    7.0125  -13.2095   26.1585 C   0  0  2  0  0  0  0  0  0  0  0  0
    5.5570  -12.9282   26.6345 C   0  0  0  0  0  0  0  0  0  0  0  0
    7.3423  -14.6101   26.4320 C   0  0  0  0  0  0  0  0  0  0  0  0
    8.6169  -15.1599   25.9724 C   0  0  2  0  0  0  0  0  0  0  0  0
    8.5283  -15.4105   24.4903 N   0  0  0  0  0  0  0  0  0  0  0  0
    9.0615  -16.4054   26.5976 C   0  0  0  0  0  0  0  0  0  0  0  0
    9.3504  -17.5516   25.7886 O   0  0  0  0  0  0  0  0  0  0  0  0
    9.2371  -16.6284   27.8132 O   0  0  0  0  0  0  0  0  0  0  0  0
  1  2  1  0
  2  4  1  0
  2  3  2  0
  4  5  1  0
  5  6  1  0
  6  7  1  6
  6  8  1  0
  8  9  2  0
 10  8  1  0
 10 11  1  0
 11 12  1  1
 13 12  1  0
 14 15  1  0
 14 13  1  0
 16 15  1  0
 17 24  1  0
 17 11  1  0
 18 17  2  0
 20 19  1  1
 20 22  1  0
 21 20  1  0
 23 22  1  1
 23 25  1  0
 23 24  1  0
 25 26  1  0
 27 25  2  0
M  END
$$$$
