QKL.pdb
     RDKit          3D

 27 26  0  0  1  0  0  0  0  0999 V2000
    8.1615  -12.4171   19.1065 N   0  0  0  0  0  0  0  0  0  0  0  0
    8.4356  -13.4168   18.1093 C   0  0  0  0  0  0  0  0  0  0  0  0
    8.8424  -13.0275   17.0101 O   0  0  0  0  0  0  0  0  0  0  0  0
    8.2295  -14.8331   18.4031 C   0  0  0  0  0  0  0  0  0  0  0  0
    7.6999  -15.1343   19.7458 C   0  0  0  0  0  0  0  0  0  0  0  0
    7.4643  -16.5680   20.0531 C   0  0  2  0  0  0  0  0  0  0  0  0
    6.4854  -17.1538   19.1843 N   0  0  0  0  0  0  0  0  0  0  0  0
    7.0789  -16.7276   21.4880 C   0  0  0  0  0  0  0  0  0  0  0  0
    5.8704  -16.5049   21.7755 O   0  0  0  0  0  0  0  0  0  0  0  0
    7.9489  -17.0991   22.5153 N   0  0  0  0  0  0  0  0  0  0  0  0
    7.4739  -17.2037   23.9531 C   0  0  1  0  0  0  0  0  0  0  0  0
    7.6487  -18.6223   24.2487 C   0  0  0  0  0  0  0  0  0  0  0  0
    6.8619  -19.7254   23.7451 C   0  0  0  0  0  0  0  0  0  0  0  0
    7.2149  -21.1273   24.1121 C   0  0  0  0  0  0  0  0  0  0  0  0
    6.3219  -22.1480   23.4363 C   0  0  0  0  0  0  0  0  0  0  0  0
    6.5834  -22.2096   22.0072 N   0  0  0  0  0  0  0  0  0  0  0  0
    8.2445  -16.1844   24.6376 C   0  0  0  0  0  0  0  0  0  0  0  0
    9.4440  -15.9781   24.3879 O   0  0  0  0  0  0  0  0  0  0  0  0
    7.5634  -11.8529   24.7015 C   0  0  0  0  0  0  0  0  0  0  0  0
    6.9361  -12.5447   25.8431 C   0  0  2  0  0  0  0  0  0  0  0  0
    6.0406  -11.5024   26.5751 C   0  0  0  0  0  0  0  0  0  0  0  0
    7.7500  -13.2543   26.8326 C   0  0  0  0  0  0  0  0  0  0  0  0
    8.5550  -14.4039   26.4222 C   0  0  2  0  0  0  0  0  0  0  0  0
    7.6824  -15.3504   25.6413 N   0  0  0  0  0  0  0  0  0  0  0  0
    9.1903  -15.1783   27.4883 C   0  0  0  0  0  0  0  0  0  0  0  0
   10.3429  -14.6603   28.1629 O   0  0  0  0  0  0  0  0  0  0  0  0
    8.8512  -16.2979   27.9236 O   0  0  0  0  0  0  0  0  0  0  0  0
  1  2  1  0
  2  4  1  0
  2  3  2  0
  4  5  1  0
  5  6  1  0
  6  7  1  6
  6  8  1  0
  8  9  2  0
 10  8  1  0
 10 11  1  0
 11 12  1  1
 13 12  1  0
 14 15  1  0
 14 13  1  0
 16 15  1  0
 17 24  1  0
 17 11  1  0
 18 17  2  0
 20 19  1  6
 20 22  1  0
 21 20  1  0
 23 22  1  1
 23 25  1  0
 23 24  1  0
 25 26  1  0
 27 25  2  0
M  END
$$$$
