QKL.pdb
     RDKit          3D

 27 26  0  0  1  0  0  0  0  0999 V2000
    9.7777  -13.5071   19.1541 N   0  0  0  0  0  0  0  0  0  0  0  0
    8.3510  -13.4964   18.9721 C   0  0  0  0  0  0  0  0  0  0  0  0
    7.8495  -12.4875   18.4661 O   0  0  0  0  0  0  0  0  0  0  0  0
    7.5428  -14.6427   19.3812 C   0  0  0  0  0  0  0  0  0  0  0  0
    8.2902  -15.7748   19.9591 C   0  0  0  0  0  0  0  0  0  0  0  0
    7.4888  -16.9662   20.3385 C   0  0  2  0  0  0  0  0  0  0  0  0
    6.3177  -17.1123   19.5239 N   0  0  0  0  0  0  0  0  0  0  0  0
    7.1348  -16.9046   21.7889 C   0  0  0  0  0  0  0  0  0  0  0  0
    6.1793  -16.1429   22.1044 O   0  0  0  0  0  0  0  0  0  0  0  0
    7.7777  -17.6189   22.8022 N   0  0  0  0  0  0  0  0  0  0  0  0
    7.3232  -17.5219   24.2471 C   0  0  1  0  0  0  0  0  0  0  0  0
    7.5215  -18.8814   24.7401 C   0  0  0  0  0  0  0  0  0  0  0  0
    7.7367  -19.2941   26.1086 C   0  0  0  0  0  0  0  0  0  0  0  0
    7.1980  -20.5982   26.5920 C   0  0  0  0  0  0  0  0  0  0  0  0
    7.3996  -20.7949   28.0808 C   0  0  0  0  0  0  0  0  0  0  0  0
    6.8824  -22.0829   28.5147 N   0  0  0  0  0  0  0  0  0  0  0  0
    8.0887  -16.4060   24.7670 C   0  0  0  0  0  0  0  0  0  0  0  0
    9.2493  -16.1651   24.3947 O   0  0  0  0  0  0  0  0  0  0  0  0
    6.7552  -11.9975   24.9938 C   0  0  0  0  0  0  0  0  0  0  0  0
    6.4804  -12.8178   26.1884 C   0  0  2  0  0  0  0  0  0  0  0  0
    5.6103  -11.9537   27.1477 C   0  0  0  0  0  0  0  0  0  0  0  0
    7.5729  -13.4257   26.9514 C   0  0  0  0  0  0  0  0  0  0  0  0
    8.4328  -14.4252   26.3192 C   0  0  2  0  0  0  0  0  0  0  0  0
    7.5656  -15.5102   25.7379 N   0  0  0  0  0  0  0  0  0  0  0  0
    9.4270  -15.0747   27.1734 C   0  0  0  0  0  0  0  0  0  0  0  0
    9.2378  -16.4317   27.5913 O   0  0  0  0  0  0  0  0  0  0  0  0
   10.4852  -14.5858   27.6198 O   0  0  0  0  0  0  0  0  0  0  0  0
  1  2  1  0
  2  4  1  0
  2  3  2  0
  4  5  1  0
  5  6  1  0
  6  7  1  6
  6  8  1  0
  8  9  2  0
 10  8  1  0
 10 11  1  0
 11 12  1  1
 13 12  1  0
 14 15  1  0
 14 13  1  0
 16 15  1  0
 17 24  1  0
 17 11  1  0
 18 17  2  0
 20 19  1  6
 20 22  1  0
 21 20  1  0
 23 22  1  1
 23 25  1  0
 23 24  1  0
 25 26  1  0
 27 25  2  0
M  END
$$$$
