VGD.pdb
     RDKit          3D

 20 19  0  0  1  0  0  0  0  0999 V2000
    8.3936  -12.1620   18.9057 C   0  0  0  0  0  0  0  0  0  0  0  0
    8.6133  -13.0772   20.1131 C   0  0  1  0  0  0  0  0  0  0  0  0
    7.3504  -13.0008   20.9290 C   0  0  0  0  0  0  0  0  0  0  0  0
    8.7976  -14.4928   19.5678 C   0  0  2  0  0  0  0  0  0  0  0  0
    7.7081  -14.8377   18.6749 N   0  0  0  0  0  0  0  0  0  0  0  0
    8.7889  -15.4821   20.6603 C   0  0  0  0  0  0  0  0  0  0  0  0
    7.7236  -16.1493   20.8951 O   0  0  0  0  0  0  0  0  0  0  0  0
    9.8971  -15.7645   21.4967 N   0  0  0  0  0  0  0  0  0  0  0  0
    9.8023  -16.7873   22.5051 C   0  0  0  0  0  0  0  0  0  0  0  0
   11.0882  -17.1078   23.1298 C   0  0  0  0  0  0  0  0  0  0  0  0
   12.1743  -16.5810   22.7517 O   0  0  0  0  0  0  0  0  0  0  0  0
   11.1419  -18.0475   24.2081 N   0  0  0  0  0  0  0  0  0  0  0  0
   12.3978  -18.4611   24.8005 C   0  0  1  0  0  0  0  0  0  0  0  0
   12.1748  -19.4005   25.9649 C   0  0  0  0  0  0  0  0  0  0  0  0
   11.4624  -18.7788   27.0809 C   0  0  0  0  0  0  0  0  0  0  0  0
   11.9035  -17.6818   27.5284 O   0  0  0  0  0  0  0  0  0  0  0  0
   13.1866  -19.1991   23.7864 C   0  0  0  0  0  0  0  0  0  0  0  0
   12.5098  -19.8234   22.7557 O   0  0  0  0  0  0  0  0  0  0  0  0
   10.3323  -19.3014   27.6918 O   0  0  0  0  0  0  0  0  0  0  0  0
   14.4519  -19.2690   23.8440 O   0  0  0  0  0  0  0  0  0  0  0  0
  2  3  1  1
  2  1  1  0
  4  6  1  0
  4  2  1  0
  4  5  1  6
  6  8  1  0
  7  6  2  0
  8  9  1  0
  9 10  1  0
 10 12  1  0
 10 11  2  0
 12 13  1  0
 13 17  1  0
 13 14  1  1
 15 19  1  0
 15 14  1  0
 16 15  2  0
 17 18  1  0
 20 17  2  0
M  END
$$$$
