VGD.pdb
     RDKit          3D

 20 19  0  0  1  0  0  0  0  0999 V2000
    5.1076  -12.5281   26.3152 C   0  0  0  0  0  0  0  0  0  0  0  0
    6.5074  -12.2779   25.7479 C   0  0  1  0  0  0  0  0  0  0  0  0
    7.0106  -11.0269   26.4173 C   0  0  0  0  0  0  0  0  0  0  0  0
    7.3702  -13.4714   26.1557 C   0  0  2  0  0  0  0  0  0  0  0  0
    8.7502  -13.2560   25.7651 N   0  0  0  0  0  0  0  0  0  0  0  0
    6.9185  -14.7015   25.4811 C   0  0  0  0  0  0  0  0  0  0  0  0
    5.8564  -15.2867   25.8869 O   0  0  0  0  0  0  0  0  0  0  0  0
    7.5832  -15.3072   24.3863 N   0  0  0  0  0  0  0  0  0  0  0  0
    7.1586  -16.5947   23.9027 C   0  0  0  0  0  0  0  0  0  0  0  0
    8.1457  -17.6538   24.1275 C   0  0  0  0  0  0  0  0  0  0  0  0
    7.9412  -18.8538   23.7835 O   0  0  0  0  0  0  0  0  0  0  0  0
    9.3930  -17.3432   24.7571 N   0  0  0  0  0  0  0  0  0  0  0  0
   10.3999  -18.3562   25.0012 C   0  0  1  0  0  0  0  0  0  0  0  0
   11.7632  -17.9032   24.5277 C   0  0  0  0  0  0  0  0  0  0  0  0
   11.7619  -17.4080   23.1513 C   0  0  0  0  0  0  0  0  0  0  0  0
   11.0731  -18.0349   22.2964 O   0  0  0  0  0  0  0  0  0  0  0  0
   10.4988  -18.5926   26.4605 C   0  0  0  0  0  0  0  0  0  0  0  0
    9.9930  -17.6324   27.3165 O   0  0  0  0  0  0  0  0  0  0  0  0
   12.4618  -16.2965   22.7062 O   0  0  0  0  0  0  0  0  0  0  0  0
   11.0304  -19.6426   26.9337 O   0  0  0  0  0  0  0  0  0  0  0  0
  2  3  1  1
  2  1  1  0
  4  6  1  0
  4  2  1  0
  4  5  1  6
  6  8  1  0
  7  6  2  0
  8  9  1  0
  9 10  1  0
 10 12  1  0
 10 11  2  0
 12 13  1  0
 13 17  1  0
 13 14  1  1
 15 19  1  0
 15 14  1  0
 16 15  2  0
 17 18  1  0
 20 17  2  0
M  END
$$$$
