VGD.pdb
     RDKit          3D

 20 19  0  0  1  0  0  0  0  0999 V2000
    6.5530  -15.2700   20.6971 C   0  0  0  0  0  0  0  0  0  0  0  0
    7.8976  -14.8520   21.2979 C   0  0  1  0  0  0  0  0  0  0  0  0
    7.5792  -13.8462   22.3719 C   0  0  0  0  0  0  0  0  0  0  0  0
    8.5124  -16.1044   21.9214 C   0  0  2  0  0  0  0  0  0  0  0  0
    7.6821  -16.5898   23.0068 N   0  0  0  0  0  0  0  0  0  0  0  0
    9.8391  -15.8103   22.4921 C   0  0  0  0  0  0  0  0  0  0  0  0
   10.8229  -15.5798   21.7085 O   0  0  0  0  0  0  0  0  0  0  0  0
   10.1231  -15.7594   23.8792 N   0  0  0  0  0  0  0  0  0  0  0  0
   11.4569  -15.4689   24.3360 C   0  0  0  0  0  0  0  0  0  0  0  0
   12.3602  -16.6198   24.2601 C   0  0  0  0  0  0  0  0  0  0  0  0
   11.9371  -17.8115   24.2284 O   0  0  0  0  0  0  0  0  0  0  0  0
   13.7759  -16.4129   24.2193 N   0  0  0  0  0  0  0  0  0  0  0  0
   14.7121  -17.5179   24.2648 C   0  0  1  0  0  0  0  0  0  0  0  0
   16.1214  -17.0586   23.9634 C   0  0  0  0  0  0  0  0  0  0  0  0
   16.2160  -16.2366   22.7572 C   0  0  0  0  0  0  0  0  0  0  0  0
   15.6791  -16.6728   21.6990 O   0  0  0  0  0  0  0  0  0  0  0  0
   14.7190  -18.0848   25.6338 C   0  0  0  0  0  0  0  0  0  0  0  0
   15.3164  -19.3153   25.8313 O   0  0  0  0  0  0  0  0  0  0  0  0
   16.8527  -15.0068   22.6817 O   0  0  0  0  0  0  0  0  0  0  0  0
   14.1953  -17.4730   26.6139 O   0  0  0  0  0  0  0  0  0  0  0  0
  2  3  1  1
  2  1  1  0
  4  6  1  0
  4  2  1  0
  4  5  1  1
  6  8  1  0
  7  6  2  0
  8  9  1  0
  9 10  1  0
 10 12  1  0
 10 11  2  0
 12 13  1  0
 13 17  1  0
 13 14  1  1
 15 19  1  0
 15 14  1  0
 16 15  2  0
 17 18  1  0
 20 17  2  0
M  END
$$$$
