VGD.pdb
     RDKit          3D

 20 19  0  0  1  0  0  0  0  0999 V2000
    5.6606  -11.4314   26.6512 C   0  0  0  0  0  0  0  0  0  0  0  0
    6.7953  -12.2418   26.0192 C   0  0  1  0  0  0  0  0  0  0  0  0
    7.6391  -12.7389   27.1625 C   0  0  0  0  0  0  0  0  0  0  0  0
    6.1472  -13.4224   25.2970 C   0  0  2  0  0  0  0  0  0  0  0  0
    5.5669  -14.3450   26.2538 N   0  0  0  0  0  0  0  0  0  0  0  0
    7.1476  -14.1779   24.5221 C   0  0  0  0  0  0  0  0  0  0  0  0
    7.6828  -13.6395   23.4932 O   0  0  0  0  0  0  0  0  0  0  0  0
    7.5795  -15.4911   24.8328 N   0  0  0  0  0  0  0  0  0  0  0  0
    8.4555  -16.1976   23.9354 C   0  0  0  0  0  0  0  0  0  0  0  0
    9.8479  -16.2317   24.3902 C   0  0  0  0  0  0  0  0  0  0  0  0
   10.3544  -15.3075   25.0897 O   0  0  0  0  0  0  0  0  0  0  0  0
   10.6838  -17.3405   24.0428 N   0  0  0  0  0  0  0  0  0  0  0  0
   12.0901  -17.3764   24.3899 C   0  0  1  0  0  0  0  0  0  0  0  0
   12.5164  -18.7629   24.8186 C   0  0  0  0  0  0  0  0  0  0  0  0
   12.0091  -19.1417   26.1372 C   0  0  0  0  0  0  0  0  0  0  0  0
   12.2686  -18.3812   27.1132 O   0  0  0  0  0  0  0  0  0  0  0  0
   12.8888  -17.0225   23.1931 C   0  0  0  0  0  0  0  0  0  0  0  0
   14.0254  -16.2554   23.3661 O   0  0  0  0  0  0  0  0  0  0  0  0
   11.2598  -20.2780   26.4037 O   0  0  0  0  0  0  0  0  0  0  0  0
   12.5557  -17.4034   22.0299 O   0  0  0  0  0  0  0  0  0  0  0  0
  2  3  1  1
  2  1  1  0
  4  6  1  0
  4  2  1  0
  4  5  1  1
  6  8  1  0
  7  6  2  0
  8  9  1  0
  9 10  1  0
 10 12  1  0
 10 11  2  0
 12 13  1  0
 13 17  1  0
 13 14  1  6
 15 19  1  0
 15 14  1  0
 16 15  2  0
 17 18  1  0
 20 17  2  0
M  END
$$$$
