VGD.pdb
     RDKit          3D

 20 19  0  0  1  0  0  0  0  0999 V2000
    5.9465  -11.3057   26.7057 C   0  0  0  0  0  0  0  0  0  0  0  0
    6.9811  -12.0516   25.8590 C   0  0  1  0  0  0  0  0  0  0  0  0
    8.0142  -12.5691   26.8240 C   0  0  0  0  0  0  0  0  0  0  0  0
    6.2522  -13.2209   25.1980 C   0  0  2  0  0  0  0  0  0  0  0  0
    5.8416  -14.1907   26.1950 N   0  0  0  0  0  0  0  0  0  0  0  0
    7.1366  -13.9240   24.2515 C   0  0  0  0  0  0  0  0  0  0  0  0
    7.6013  -13.2947   23.2400 O   0  0  0  0  0  0  0  0  0  0  0  0
    7.5271  -15.2804   24.3737 N   0  0  0  0  0  0  0  0  0  0  0  0
    8.4735  -15.8484   23.4498 C   0  0  0  0  0  0  0  0  0  0  0  0
    9.7500  -16.2071   24.0732 C   0  0  0  0  0  0  0  0  0  0  0  0
   10.0451  -15.8671   25.2553 O   0  0  0  0  0  0  0  0  0  0  0  0
   10.7129  -16.9689   23.3377 N   0  0  0  0  0  0  0  0  0  0  0  0
   11.9853  -17.3543   23.9139 C   0  0  1  0  0  0  0  0  0  0  0  0
   12.4673  -18.6736   23.3526 C   0  0  0  0  0  0  0  0  0  0  0  0
   13.6192  -19.2203   24.0693 C   0  0  0  0  0  0  0  0  0  0  0  0
   14.6635  -18.5113   24.1417 O   0  0  0  0  0  0  0  0  0  0  0  0
   12.9994  -16.3322   23.5642 C   0  0  0  0  0  0  0  0  0  0  0  0
   13.8335  -15.8669   24.5632 O   0  0  0  0  0  0  0  0  0  0  0  0
   13.6571  -20.4646   24.6807 O   0  0  0  0  0  0  0  0  0  0  0  0
   13.1162  -15.8819   22.3841 O   0  0  0  0  0  0  0  0  0  0  0  0
  2  3  1  1
  2  1  1  0
  4  6  1  0
  4  2  1  0
  4  5  1  1
  6  8  1  0
  7  6  2  0
  8  9  1  0
  9 10  1  0
 10 12  1  0
 10 11  2  0
 12 13  1  0
 13 17  1  0
 13 14  1  6
 15 19  1  0
 15 14  1  0
 16 15  2  0
 17 18  1  0
 20 17  2  0
M  END
$$$$
