VGD.pdb
     RDKit          3D

 20 19  0  0  1  0  0  0  0  0999 V2000
    8.1815  -12.1554   20.2051 C   0  0  0  0  0  0  0  0  0  0  0  0
    7.6802  -13.3608   19.4054 C   0  0  1  0  0  0  0  0  0  0  0  0
    7.4328  -12.8595   18.0076 C   0  0  0  0  0  0  0  0  0  0  0  0
    8.8107  -14.3889   19.3988 C   0  0  2  0  0  0  0  0  0  0  0  0
    8.4137  -15.5737   18.6627 N   0  0  0  0  0  0  0  0  0  0  0  0
    9.1353  -14.8220   20.7696 C   0  0  0  0  0  0  0  0  0  0  0  0
    9.7697  -14.0280   21.5457 O   0  0  0  0  0  0  0  0  0  0  0  0
    8.7914  -16.0832   21.3159 N   0  0  0  0  0  0  0  0  0  0  0  0
    9.1033  -16.3886   22.6875 C   0  0  0  0  0  0  0  0  0  0  0  0
   10.4001  -17.0495   22.8549 C   0  0  0  0  0  0  0  0  0  0  0  0
   10.5268  -18.3078   22.8297 O   0  0  0  0  0  0  0  0  0  0  0  0
   11.5795  -16.2638   23.0553 N   0  0  0  0  0  0  0  0  0  0  0  0
   12.8702  -16.8721   23.3076 C   0  0  1  0  0  0  0  0  0  0  0  0
   13.9988  -15.9021   23.0366 C   0  0  0  0  0  0  0  0  0  0  0  0
   14.1502  -15.5728   21.6195 C   0  0  0  0  0  0  0  0  0  0  0  0
   13.6332  -14.4972   21.2023 O   0  0  0  0  0  0  0  0  0  0  0  0
   12.9509  -17.2503   24.7379 C   0  0  0  0  0  0  0  0  0  0  0  0
   14.0659  -17.9423   25.1717 O   0  0  0  0  0  0  0  0  0  0  0  0
   14.8214  -16.3531   20.6899 O   0  0  0  0  0  0  0  0  0  0  0  0
   12.0312  -16.9564   25.5606 O   0  0  0  0  0  0  0  0  0  0  0  0
  2  3  1  6
  2  1  1  0
  4  6  1  0
  4  2  1  0
  4  5  1  6
  6  8  1  0
  7  6  2  0
  8  9  1  0
  9 10  1  0
 10 12  1  0
 10 11  2  0
 12 13  1  0
 13 17  1  0
 13 14  1  1
 15 19  1  0
 15 14  1  0
 16 15  2  0
 17 18  1  0
 20 17  2  0
M  END
$$$$
