VGD.pdb
     RDKit          3D

 20 19  0  0  1  0  0  0  0  0999 V2000
    7.4221  -12.4735   20.2397 C   0  0  0  0  0  0  0  0  0  0  0  0
    8.0906  -13.1407   19.0348 C   0  0  1  0  0  0  0  0  0  0  0  0
    9.5042  -12.6240   19.0038 C   0  0  0  0  0  0  0  0  0  0  0  0
    8.0904  -14.6448   19.3050 C   0  0  2  0  0  0  0  0  0  0  0  0
    6.7566  -15.1893   19.1386 N   0  0  0  0  0  0  0  0  0  0  0  0
    8.5023  -14.9298   20.6911 C   0  0  0  0  0  0  0  0  0  0  0  0
    7.7035  -14.6589   21.6522 O   0  0  0  0  0  0  0  0  0  0  0  0
    9.7475  -15.4973   21.0582 N   0  0  0  0  0  0  0  0  0  0  0  0
   10.0249  -15.8074   22.4362 C   0  0  0  0  0  0  0  0  0  0  0  0
   11.2997  -16.5030   22.6296 C   0  0  0  0  0  0  0  0  0  0  0  0
   11.4181  -17.7534   22.4795 O   0  0  0  0  0  0  0  0  0  0  0  0
   12.4664  -15.7620   23.0017 N   0  0  0  0  0  0  0  0  0  0  0  0
   13.7407  -16.4097   23.2386 C   0  0  1  0  0  0  0  0  0  0  0  0
   14.8341  -15.3967   23.4962 C   0  0  0  0  0  0  0  0  0  0  0  0
   15.9210  -15.4583   22.5193 C   0  0  0  0  0  0  0  0  0  0  0  0
   15.7202  -16.1000   21.4487 O   0  0  0  0  0  0  0  0  0  0  0  0
   13.6314  -17.2548   24.4507 C   0  0  0  0  0  0  0  0  0  0  0  0
   14.4371  -18.3738   24.5451 O   0  0  0  0  0  0  0  0  0  0  0  0
   17.1643  -14.8639   22.6756 O   0  0  0  0  0  0  0  0  0  0  0  0
   12.8253  -16.9766   25.3898 O   0  0  0  0  0  0  0  0  0  0  0  0
  2  3  1  1
  2  1  1  0
  4  6  1  0
  4  2  1  0
  4  5  1  1
  6  8  1  0
  7  6  2  0
  8  9  1  0
  9 10  1  0
 10 12  1  0
 10 11  2  0
 12 13  1  0
 13 17  1  0
 13 14  1  1
 15 19  1  0
 15 14  1  0
 16 15  2  0
 17 18  1  0
 20 17  2  0
M  END
$$$$
