VGD.pdb
     RDKit          3D

 20 19  0  0  1  0  0  0  0  0999 V2000
    2.4308  -20.4929   20.4662 C   0  0  0  0  0  0  0  0  0  0  0  0
    3.2723  -19.2151   20.5192 C   0  0  1  0  0  0  0  0  0  0  0  0
    2.3115  -18.0959   20.8205 C   0  0  0  0  0  0  0  0  0  0  0  0
    4.2582  -19.3818   21.6748 C   0  0  2  0  0  0  0  0  0  0  0  0
    3.5530  -19.4150   22.9417 N   0  0  0  0  0  0  0  0  0  0  0  0
    5.1962  -18.2465   21.7334 C   0  0  0  0  0  0  0  0  0  0  0  0
    6.2952  -18.3054   21.0825 O   0  0  0  0  0  0  0  0  0  0  0  0
    4.9738  -17.0586   22.4730 N   0  0  0  0  0  0  0  0  0  0  0  0
    5.9453  -15.9968   22.4483 C   0  0  0  0  0  0  0  0  0  0  0  0
    7.1035  -16.2492   23.3093 C   0  0  0  0  0  0  0  0  0  0  0  0
    8.0139  -15.3895   23.4885 O   0  0  0  0  0  0  0  0  0  0  0  0
    7.2307  -17.5063   23.9819 N   0  0  0  0  0  0  0  0  0  0  0  0
    8.3628  -17.8062   24.8350 C   0  0  1  0  0  0  0  0  0  0  0  0
    7.9156  -18.3670   26.1668 C   0  0  0  0  0  0  0  0  0  0  0  0
    9.0214  -18.6058   27.0940 C   0  0  0  0  0  0  0  0  0  0  0  0
   10.1850  -18.2748   26.7268 O   0  0  0  0  0  0  0  0  0  0  0  0
    9.1957  -18.8422   24.1804 C   0  0  0  0  0  0  0  0  0  0  0  0
   10.4090  -18.4625   23.6383 O   0  0  0  0  0  0  0  0  0  0  0  0
    8.8937  -19.1708   28.3541 O   0  0  0  0  0  0  0  0  0  0  0  0
    8.8235  -20.0527   24.1082 O   0  0  0  0  0  0  0  0  0  0  0  0
  2  3  1  1
  2  1  1  0
  4  6  1  0
  4  2  1  0
  4  5  1  1
  6  8  1  0
  7  6  2  0
  8  9  1  0
  9 10  1  0
 10 12  1  0
 10 11  2  0
 12 13  1  0
 13 17  1  0
 13 14  1  1
 15 19  1  0
 15 14  1  0
 16 15  2  0
 17 18  1  0
 20 17  2  0
M  END
$$$$
