VGD.pdb
     RDKit          3D

 20 19  0  0  1  0  0  0  0  0999 V2000
    7.9281  -12.4611   18.8488 C   0  0  0  0  0  0  0  0  0  0  0  0
    8.4892  -13.3192   19.9856 C   0  0  1  0  0  0  0  0  0  0  0  0
    8.0641  -12.6471   21.2638 C   0  0  0  0  0  0  0  0  0  0  0  0
    7.8272  -14.6919   19.8724 C   0  0  2  0  0  0  0  0  0  0  0  0
    6.4001  -14.5870   20.1081 N   0  0  0  0  0  0  0  0  0  0  0  0
    8.3640  -15.6193   20.8843 C   0  0  0  0  0  0  0  0  0  0  0  0
    9.5273  -16.1239   20.7196 O   0  0  0  0  0  0  0  0  0  0  0  0
    7.6773  -16.0093   22.0606 N   0  0  0  0  0  0  0  0  0  0  0  0
    8.3022  -16.8996   23.0034 C   0  0  0  0  0  0  0  0  0  0  0  0
    9.5730  -16.3921   23.5268 C   0  0  0  0  0  0  0  0  0  0  0  0
    9.9819  -15.2185   23.2910 O   0  0  0  0  0  0  0  0  0  0  0  0
   10.3981  -17.2363   24.3362 N   0  0  0  0  0  0  0  0  0  0  0  0
   11.6548  -16.7742   24.8899 C   0  0  1  0  0  0  0  0  0  0  0  0
   11.7036  -16.9750   26.3883 C   0  0  0  0  0  0  0  0  0  0  0  0
   11.1475  -18.2578   26.8180 C   0  0  0  0  0  0  0  0  0  0  0  0
   10.7329  -19.0526   25.9266 O   0  0  0  0  0  0  0  0  0  0  0  0
   12.7588  -17.5705   24.3046 C   0  0  0  0  0  0  0  0  0  0  0  0
   14.0576  -17.1522   24.5241 O   0  0  0  0  0  0  0  0  0  0  0  0
   11.0382  -18.6747   28.1362 O   0  0  0  0  0  0  0  0  0  0  0  0
   12.5395  -18.6132   23.6161 O   0  0  0  0  0  0  0  0  0  0  0  0
  2  3  1  1
  2  1  1  0
  4  6  1  0
  4  2  1  0
  4  5  1  1
  6  8  1  0
  7  6  2  0
  8  9  1  0
  9 10  1  0
 10 12  1  0
 10 11  2  0
 12 13  1  0
 13 17  1  0
 13 14  1  1
 15 19  1  0
 15 14  1  0
 16 15  2  0
 17 18  1  0
 20 17  2  0
M  END
$$$$
