VGD.pdb
     RDKit          3D

 20 19  0  0  1  0  0  0  0  0999 V2000
    7.3988  -12.3969   21.0151 C   0  0  0  0  0  0  0  0  0  0  0  0
    8.5254  -13.1068   20.2597 C   0  0  1  0  0  0  0  0  0  0  0  0
    9.5396  -13.5020   21.2996 C   0  0  0  0  0  0  0  0  0  0  0  0
    7.9147  -14.3555   19.6250 C   0  0  2  0  0  0  0  0  0  0  0  0
    7.3306  -15.2073   20.6432 N   0  0  0  0  0  0  0  0  0  0  0  0
    8.9452  -15.1525   18.9359 C   0  0  0  0  0  0  0  0  0  0  0  0
    9.0665  -16.3953   19.2110 O   0  0  0  0  0  0  0  0  0  0  0  0
    9.8394  -14.6403   17.9634 N   0  0  0  0  0  0  0  0  0  0  0  0
   10.8201  -15.5009   17.3556 C   0  0  0  0  0  0  0  0  0  0  0  0
   11.8669  -15.9349   18.2841 C   0  0  0  0  0  0  0  0  0  0  0  0
   13.0885  -15.9718   17.9577 O   0  0  0  0  0  0  0  0  0  0  0  0
   11.5189  -16.3361   19.6132 N   0  0  0  0  0  0  0  0  0  0  0  0
   12.5264  -16.6479   20.6068 C   0  0  1  0  0  0  0  0  0  0  0  0
   13.2653  -15.4051   21.0510 C   0  0  0  0  0  0  0  0  0  0  0  0
   14.3086  -15.6754   22.0399 C   0  0  0  0  0  0  0  0  0  0  0  0
   14.5383  -16.8806   22.3450 O   0  0  0  0  0  0  0  0  0  0  0  0
   11.8609  -17.2138   21.8036 C   0  0  0  0  0  0  0  0  0  0  0  0
   12.3814  -18.3669   22.3601 O   0  0  0  0  0  0  0  0  0  0  0  0
   15.0719  -14.7068   22.6744 O   0  0  0  0  0  0  0  0  0  0  0  0
   10.8383  -16.6696   22.3205 O   0  0  0  0  0  0  0  0  0  0  0  0
  2  3  1  1
  2  1  1  0
  4  6  1  0
  4  2  1  0
  4  5  1  1
  6  8  1  0
  7  6  2  0
  8  9  1  0
  9 10  1  0
 10 12  1  0
 10 11  2  0
 12 13  1  0
 13 17  1  0
 13 14  1  1
 15 19  1  0
 15 14  1  0
 16 15  2  0
 17 18  1  0
 20 17  2  0
M  END
$$$$
