VGD.pdb
     RDKit          3D

 20 19  0  0  1  0  0  0  0  0999 V2000
    7.6769  -12.1376   19.1150 C   0  0  0  0  0  0  0  0  0  0  0  0
    8.6585  -13.2947   19.3180 C   0  0  1  0  0  0  0  0  0  0  0  0
    9.9069  -12.6848   19.8977 C   0  0  0  0  0  0  0  0  0  0  0  0
    8.0212  -14.2431   20.3326 C   0  0  2  0  0  0  0  0  0  0  0  0
    7.8708  -13.5852   21.6163 N   0  0  0  0  0  0  0  0  0  0  0  0
    8.8717  -15.4266   20.5521 C   0  0  0  0  0  0  0  0  0  0  0  0
    8.9474  -16.3231   19.6434 O   0  0  0  0  0  0  0  0  0  0  0  0
    9.6365  -15.6601   21.7218 N   0  0  0  0  0  0  0  0  0  0  0  0
   10.5306  -16.7859   21.7906 C   0  0  0  0  0  0  0  0  0  0  0  0
   11.7078  -16.6460   20.9296 C   0  0  0  0  0  0  0  0  0  0  0  0
   11.7491  -17.1196   19.7574 O   0  0  0  0  0  0  0  0  0  0  0  0
   12.8639  -15.9527   21.4106 N   0  0  0  0  0  0  0  0  0  0  0  0
   14.0655  -15.8228   20.6114 C   0  0  1  0  0  0  0  0  0  0  0  0
   14.0100  -14.5958   19.7286 C   0  0  0  0  0  0  0  0  0  0  0  0
   15.1987  -14.4310   18.8925 C   0  0  0  0  0  0  0  0  0  0  0  0
   16.1146  -15.2974   18.9867 O   0  0  0  0  0  0  0  0  0  0  0  0
   15.2279  -15.6601   21.5158 C   0  0  0  0  0  0  0  0  0  0  0  0
   16.4946  -15.8509   20.9969 O   0  0  0  0  0  0  0  0  0  0  0  0
   15.4025  -13.3915   17.9972 O   0  0  0  0  0  0  0  0  0  0  0  0
   15.0864  -15.3538   22.7386 O   0  0  0  0  0  0  0  0  0  0  0  0
  2  3  1  1
  2  1  1  0
  4  6  1  0
  4  2  1  0
  4  5  1  1
  6  8  1  0
  7  6  2  0
  8  9  1  0
  9 10  1  0
 10 12  1  0
 10 11  2  0
 12 13  1  0
 13 17  1  0
 13 14  1  6
 15 19  1  0
 15 14  1  0
 16 15  2  0
 17 18  1  0
 20 17  2  0
M  END
$$$$
