VGD.pdb
     RDKit          3D

 20 19  0  0  1  0  0  0  0  0999 V2000
    7.7091  -18.5584   17.9085 C   0  0  0  0  0  0  0  0  0  0  0  0
    8.9171  -17.6468   18.1397 C   0  0  1  0  0  0  0  0  0  0  0  0
   10.0597  -18.2694   17.3828 C   0  0  0  0  0  0  0  0  0  0  0  0
    8.5685  -16.2878   17.5339 C   0  0  2  0  0  0  0  0  0  0  0  0
    8.2973  -16.4201   16.1153 N   0  0  0  0  0  0  0  0  0  0  0  0
    9.6944  -15.3468   17.6713 C   0  0  0  0  0  0  0  0  0  0  0  0
   10.5138  -15.2014   16.7004 O   0  0  0  0  0  0  0  0  0  0  0  0
    9.9515  -14.5652   18.8248 N   0  0  0  0  0  0  0  0  0  0  0  0
   11.0478  -13.6326   18.8390 C   0  0  0  0  0  0  0  0  0  0  0  0
   12.3088  -14.2257   19.2914 C   0  0  0  0  0  0  0  0  0  0  0  0
   13.3797  -13.5577   19.3745 O   0  0  0  0  0  0  0  0  0  0  0  0
   12.3547  -15.6087   19.6576 N   0  0  0  0  0  0  0  0  0  0  0  0
   13.5774  -16.2396   20.1118 C   0  0  1  0  0  0  0  0  0  0  0  0
   13.3236  -17.1421   21.2988 C   0  0  0  0  0  0  0  0  0  0  0  0
   13.0907  -16.4090   22.5429 C   0  0  0  0  0  0  0  0  0  0  0  0
   13.7267  -15.3315   22.7241 O   0  0  0  0  0  0  0  0  0  0  0  0
   14.1127  -17.0886   19.0218 C   0  0  0  0  0  0  0  0  0  0  0  0
   13.3682  -17.2173   17.8646 O   0  0  0  0  0  0  0  0  0  0  0  0
   12.2204  -16.8053   23.5475 O   0  0  0  0  0  0  0  0  0  0  0  0
   15.2240  -17.6911   19.1275 O   0  0  0  0  0  0  0  0  0  0  0  0
  2  3  1  6
  2  1  1  0
  4  6  1  0
  4  2  1  0
  4  5  1  6
  6  8  1  0
  7  6  2  0
  8  9  1  0
  9 10  1  0
 10 12  1  0
 10 11  2  0
 12 13  1  0
 13 17  1  0
 13 14  1  1
 15 19  1  0
 15 14  1  0
 16 15  2  0
 17 18  1  0
 20 17  2  0
M  END
$$$$
