VGD.pdb
     RDKit          3D

 20 19  0  0  1  0  0  0  0  0999 V2000
    7.4051  -11.9065   19.7188 C   0  0  0  0  0  0  0  0  0  0  0  0
    8.2262  -13.0679   19.1526 C   0  0  1  0  0  0  0  0  0  0  0  0
    9.6690  -12.7193   19.4039 C   0  0  0  0  0  0  0  0  0  0  0  0
    7.8429  -14.3124   19.9523 C   0  0  2  0  0  0  0  0  0  0  0  0
    8.1853  -14.1411   21.3511 N   0  0  0  0  0  0  0  0  0  0  0  0
    8.5794  -15.4944   19.4701 C   0  0  0  0  0  0  0  0  0  0  0  0
    8.2426  -16.0352   18.3614 O   0  0  0  0  0  0  0  0  0  0  0  0
    9.6632  -16.0991   20.1535 N   0  0  0  0  0  0  0  0  0  0  0  0
   10.3152  -17.2563   19.5988 C   0  0  0  0  0  0  0  0  0  0  0  0
   11.4307  -17.7415   20.4153 C   0  0  0  0  0  0  0  0  0  0  0  0
   12.4030  -18.3820   19.9208 O   0  0  0  0  0  0  0  0  0  0  0  0
   11.4423  -17.4938   21.8250 N   0  0  0  0  0  0  0  0  0  0  0  0
   12.5023  -16.7370   22.4599 C   0  0  1  0  0  0  0  0  0  0  0  0
   12.8462  -15.4969   21.6650 C   0  0  0  0  0  0  0  0  0  0  0  0
   14.2219  -15.4920   21.1681 C   0  0  0  0  0  0  0  0  0  0  0  0
   14.9442  -16.5005   21.4126 O   0  0  0  0  0  0  0  0  0  0  0  0
   12.0388  -16.2883   23.7938 C   0  0  0  0  0  0  0  0  0  0  0  0
   12.8543  -16.5225   24.8848 O   0  0  0  0  0  0  0  0  0  0  0  0
   14.8014  -14.4608   20.4440 O   0  0  0  0  0  0  0  0  0  0  0  0
   10.9250  -15.7023   23.9528 O   0  0  0  0  0  0  0  0  0  0  0  0
  2  3  1  1
  2  1  1  0
  4  6  1  0
  4  2  1  0
  4  5  1  1
  6  8  1  0
  7  6  2  0
  8  9  1  0
  9 10  1  0
 10 12  1  0
 10 11  2  0
 12 13  1  0
 13 17  1  0
 13 14  1  6
 15 19  1  0
 15 14  1  0
 16 15  2  0
 17 18  1  0
 20 17  2  0
M  END
$$$$
