VGD.pdb
     RDKit          3D

 20 19  0  0  1  0  0  0  0  0999 V2000
    8.1435  -11.8869   19.4834 C   0  0  0  0  0  0  0  0  0  0  0  0
    8.1385  -13.2780   20.1225 C   0  0  1  0  0  0  0  0  0  0  0  0
    7.4593  -14.1880   19.1341 C   0  0  0  0  0  0  0  0  0  0  0  0
    9.5995  -13.6916   20.2944 C   0  0  2  0  0  0  0  0  0  0  0  0
   10.2675  -13.7384   19.0080 N   0  0  0  0  0  0  0  0  0  0  0  0
    9.6985  -15.0402   20.8805 C   0  0  0  0  0  0  0  0  0  0  0  0
    9.9889  -16.0325   20.1281 O   0  0  0  0  0  0  0  0  0  0  0  0
    9.4932  -15.3374   22.2506 N   0  0  0  0  0  0  0  0  0  0  0  0
    9.7094  -16.6725   22.7432 C   0  0  0  0  0  0  0  0  0  0  0  0
   11.1233  -16.9901   22.9587 C   0  0  0  0  0  0  0  0  0  0  0  0
   11.5106  -18.1345   23.3335 O   0  0  0  0  0  0  0  0  0  0  0  0
   12.1200  -15.9855   22.7436 N   0  0  0  0  0  0  0  0  0  0  0  0
   13.5320  -16.3068   22.6949 C   0  0  1  0  0  0  0  0  0  0  0  0
   14.3109  -15.2536   21.9386 C   0  0  0  0  0  0  0  0  0  0  0  0
   15.7486  -15.5188   21.8941 C   0  0  0  0  0  0  0  0  0  0  0  0
   16.1548  -16.4633   21.1583 O   0  0  0  0  0  0  0  0  0  0  0  0
   14.0648  -16.3381   24.0771 C   0  0  0  0  0  0  0  0  0  0  0  0
   13.2566  -15.8843   25.1023 O   0  0  0  0  0  0  0  0  0  0  0  0
   16.7094  -14.8106   22.6005 O   0  0  0  0  0  0  0  0  0  0  0  0
   15.2306  -16.7664   24.3352 O   0  0  0  0  0  0  0  0  0  0  0  0
  2  3  1  6
  2  1  1  0
  4  6  1  0
  4  2  1  0
  4  5  1  6
  6  8  1  0
  7  6  2  0
  8  9  1  0
  9 10  1  0
 10 12  1  0
 10 11  2  0
 12 13  1  0
 13 17  1  0
 13 14  1  6
 15 19  1  0
 15 14  1  0
 16 15  2  0
 17 18  1  0
 20 17  2  0
M  END
$$$$
