VGD.pdb
     RDKit          3D

 20 19  0  0  1  0  0  0  0  0999 V2000
    7.4643  -13.9415   18.3926 C   0  0  0  0  0  0  0  0  0  0  0  0
    8.3073  -13.6106   19.6270 C   0  0  1  0  0  0  0  0  0  0  0  0
    7.4885  -12.6473   20.4444 C   0  0  0  0  0  0  0  0  0  0  0  0
    8.4978  -14.9172   20.3962 C   0  0  2  0  0  0  0  0  0  0  0  0
    7.2129  -15.4845   20.7574 N   0  0  0  0  0  0  0  0  0  0  0  0
    9.2346  -14.6854   21.6515 C   0  0  0  0  0  0  0  0  0  0  0  0
   10.4792  -14.3959   21.6051 O   0  0  0  0  0  0  0  0  0  0  0  0
    8.6604  -14.7580   22.9447 N   0  0  0  0  0  0  0  0  0  0  0  0
    9.3937  -14.2886   24.0910 C   0  0  0  0  0  0  0  0  0  0  0  0
   10.1785  -15.3372   24.7474 C   0  0  0  0  0  0  0  0  0  0  0  0
   10.7685  -15.1507   25.8507 O   0  0  0  0  0  0  0  0  0  0  0  0
   10.2960  -16.6267   24.1373 N   0  0  0  0  0  0  0  0  0  0  0  0
   10.9920  -17.7194   24.7861 C   0  0  1  0  0  0  0  0  0  0  0  0
   10.1394  -18.9681   24.8281 C   0  0  0  0  0  0  0  0  0  0  0  0
   10.7698  -20.0745   25.5476 C   0  0  0  0  0  0  0  0  0  0  0  0
   11.9485  -19.9094   25.9741 O   0  0  0  0  0  0  0  0  0  0  0  0
   12.2082  -18.0449   24.0048 C   0  0  0  0  0  0  0  0  0  0  0  0
   12.1387  -17.9809   22.6259 O   0  0  0  0  0  0  0  0  0  0  0  0
   10.1725  -21.3002   25.8013 O   0  0  0  0  0  0  0  0  0  0  0  0
   13.2959  -18.3763   24.5671 O   0  0  0  0  0  0  0  0  0  0  0  0
  2  3  1  1
  2  1  1  0
  4  6  1  0
  4  2  1  0
  4  5  1  1
  6  8  1  0
  7  6  2  0
  8  9  1  0
  9 10  1  0
 10 12  1  0
 10 11  2  0
 12 13  1  0
 13 17  1  0
 13 14  1  6
 15 19  1  0
 15 14  1  0
 16 15  2  0
 17 18  1  0
 20 17  2  0
M  END
$$$$
