VGD.pdb
     RDKit          3D

 20 19  0  0  1  0  0  0  0  0999 V2000
    7.2159  -12.4623   19.3978 C   0  0  0  0  0  0  0  0  0  0  0  0
    8.5770  -13.0832   19.7228 C   0  0  1  0  0  0  0  0  0  0  0  0
    8.3042  -14.1985   20.6965 C   0  0  0  0  0  0  0  0  0  0  0  0
    9.1267  -13.6539   18.4161 C   0  0  2  0  0  0  0  0  0  0  0  0
    8.1847  -14.5924   17.8372 N   0  0  0  0  0  0  0  0  0  0  0  0
   10.3807  -14.3917   18.6512 C   0  0  0  0  0  0  0  0  0  0  0  0
   10.3932  -15.6644   18.5281 O   0  0  0  0  0  0  0  0  0  0  0  0
   11.6112  -13.7893   19.0123 N   0  0  0  0  0  0  0  0  0  0  0  0
   12.7897  -14.5968   19.1881 C   0  0  0  0  0  0  0  0  0  0  0  0
   12.8645  -15.2362   20.5042 C   0  0  0  0  0  0  0  0  0  0  0  0
   11.9817  -15.0610   21.3930 O   0  0  0  0  0  0  0  0  0  0  0  0
   13.9667  -16.0938   20.8180 N   0  0  0  0  0  0  0  0  0  0  0  0
   14.1207  -16.6933   22.1281 C   0  0  1  0  0  0  0  0  0  0  0  0
   14.7057  -18.0848   22.0319 C   0  0  0  0  0  0  0  0  0  0  0  0
   13.7912  -19.0561   21.4323 C   0  0  0  0  0  0  0  0  0  0  0  0
   12.5661  -18.7520   21.3621 O   0  0  0  0  0  0  0  0  0  0  0  0
   15.0659  -15.8740   22.9224 C   0  0  0  0  0  0  0  0  0  0  0  0
   15.1857  -16.1362   24.2741 O   0  0  0  0  0  0  0  0  0  0  0  0
   14.1644  -20.2941   20.9306 O   0  0  0  0  0  0  0  0  0  0  0  0
   15.7572  -14.9504   22.3951 O   0  0  0  0  0  0  0  0  0  0  0  0
  2  3  1  1
  2  1  1  0
  4  6  1  0
  4  2  1  0
  4  5  1  1
  6  8  1  0
  7  6  2  0
  8  9  1  0
  9 10  1  0
 10 12  1  0
 10 11  2  0
 12 13  1  0
 13 17  1  0
 13 14  1  6
 15 19  1  0
 15 14  1  0
 16 15  2  0
 17 18  1  0
 20 17  2  0
M  END
$$$$
