HDP.pdb
     RDKit          3D

 26 27  0  0  1  0  0  0  0  0999 V2000
   17.8921  -11.8401  -16.1338 N   0  0  0  0  0  0  0  0  0  0  0  0
   17.7892  -10.4622  -16.4990 C   0  0  1  0  0  0  0  0  0  0  0  0
   16.4768   -9.9175  -16.0395 C   0  0  0  0  0  0  0  0  0  0  0  0
   15.3943  -10.5883  -16.8106 C   0  0  0  0  0  0  0  0  0  0  0  0
   14.8862  -10.2878  -18.0549 C   0  0  0  0  0  0  0  0  0  0  0  0
   13.9052  -11.1380  -18.4056 N   0  0  0  0  0  0  0  0  0  0  0  0
   13.7870  -11.9920  -17.3702 C   0  0  0  0  0  0  0  0  0  0  0  0
   14.6722  -11.6747  -16.4084 N   0  0  0  0  0  0  0  0  0  0  0  0
   18.9422   -9.6544  -16.0246 C   0  0  0  0  0  0  0  0  0  0  0  0
   19.1126   -9.5438  -14.7827 O   0  0  0  0  0  0  0  0  0  0  0  0
   19.8450   -9.0124  -16.9107 N   0  0  0  0  0  0  0  0  0  0  0  0
   20.9435   -8.2061  -16.3850 C   0  0  1  0  0  0  0  0  0  0  0  0
   22.0827   -8.1723  -17.4004 C   0  0  0  0  0  0  0  0  0  0  0  0
   22.6955   -9.4849  -17.6231 C   0  0  0  0  0  0  0  0  0  0  0  0
   23.5304   -9.9996  -16.8447 O   0  0  0  0  0  0  0  0  0  0  0  0
   20.4992   -6.8351  -16.0619 C   0  0  0  0  0  0  0  0  0  0  0  0
   19.3872   -6.4739  -16.5784 O   0  0  0  0  0  0  0  0  0  0  0  0
   22.3425  -10.1984  -18.7428 O   0  0  0  0  0  0  0  0  0  0  0  0
   21.1778   -5.9074  -15.2502 N   0  0  0  0  0  0  0  0  0  0  0  0
   22.4340   -6.0709  -14.5906 C   0  0  0  0  0  0  0  0  0  0  0  0
   22.2582   -5.2877  -13.3060 C   0  0  0  0  0  0  0  0  0  0  0  0
   20.9772   -4.4995  -13.4537 C   0  0  0  0  0  0  0  0  0  0  0  0
   20.7166   -4.5839  -14.9419 C   0  0  1  0  0  0  0  0  0  0  0  0
   21.5385   -3.5317  -15.6057 C   0  0  0  0  0  0  0  0  0  0  0  0
   21.1100   -2.2157  -15.6857 O   0  0  0  0  0  0  0  0  0  0  0  0
   22.6546   -3.7853  -16.1228 O   0  0  0  0  0  0  0  0  0  0  0  0
  2  1  1  1
  3  2  1  0
  4  3  1  0
  5  4  2  0
  6  7  1  0
  6  5  1  0
  7  8  2  0
  8  4  1  0
  9  2  1  0
  9 11  1  0
 10  9  2  0
 12 11  1  0
 13 14  1  0
 12 13  1  6
 14 18  1  0
 15 14  2  0
 16 17  2  0
 16 12  1  0
 19 16  1  0
 20 19  1  0
 20 21  1  0
 21 22  1  0
 23 19  1  0
 23 22  1  0
 23 24  1  6
 24 25  1  0
 26 24  2  0
M  END
$$$$
