HDP.pdb
     RDKit          3D

 26 27  0  0  1  0  0  0  0  0999 V2000
   28.3944  -18.0753  -16.7769 N   0  0  0  0  0  0  0  0  0  0  0  0
   27.8552  -17.7781  -15.4871 C   0  0  1  0  0  0  0  0  0  0  0  0
   26.9782  -16.5725  -15.5749 C   0  0  0  0  0  0  0  0  0  0  0  0
   25.9412  -16.8212  -16.6139 C   0  0  0  0  0  0  0  0  0  0  0  0
   25.8659  -16.3576  -17.9085 C   0  0  0  0  0  0  0  0  0  0  0  0
   24.7641  -16.8115  -18.5316 N   0  0  0  0  0  0  0  0  0  0  0  0
   24.1289  -17.5748  -17.6210 C   0  0  0  0  0  0  0  0  0  0  0  0
   24.8223  -17.5895  -16.4685 N   0  0  0  0  0  0  0  0  0  0  0  0
   27.1688  -18.9418  -14.8692 C   0  0  0  0  0  0  0  0  0  0  0  0
   26.7158  -19.8326  -15.6340 O   0  0  0  0  0  0  0  0  0  0  0  0
   27.0085  -19.0815  -13.4666 N   0  0  0  0  0  0  0  0  0  0  0  0
   26.2754  -20.2202  -12.9198 C   0  0  1  0  0  0  0  0  0  0  0  0
   26.4297  -20.2446  -11.4014 C   0  0  0  0  0  0  0  0  0  0  0  0
   25.7027  -21.3472  -10.7659 C   0  0  0  0  0  0  0  0  0  0  0  0
   25.8853  -22.5524  -11.0523 O   0  0  0  0  0  0  0  0  0  0  0  0
   24.8470  -20.1709  -13.2926 C   0  0  0  0  0  0  0  0  0  0  0  0
   24.3771  -19.0091  -13.5441 O   0  0  0  0  0  0  0  0  0  0  0  0
   24.7678  -21.0549   -9.8025 O   0  0  0  0  0  0  0  0  0  0  0  0
   23.9727  -21.2686  -13.3947 N   0  0  0  0  0  0  0  0  0  0  0  0
   24.2444  -22.6387  -13.0963 C   0  0  0  0  0  0  0  0  0  0  0  0
   23.4192  -23.3893  -14.1212 C   0  0  0  0  0  0  0  0  0  0  0  0
   22.5122  -22.3713  -14.7734 C   0  0  0  0  0  0  0  0  0  0  0  0
   22.6037  -21.2002  -13.8196 C   0  0  1  0  0  0  0  0  0  0  0  0
   21.6526  -21.4532  -12.6995 C   0  0  0  0  0  0  0  0  0  0  0  0
   20.2838  -21.3023  -12.8585 O   0  0  0  0  0  0  0  0  0  0  0  0
   22.0437  -21.8140  -11.5618 O   0  0  0  0  0  0  0  0  0  0  0  0
  2  1  1  6
  3  2  1  0
  4  3  1  0
  5  4  2  0
  6  7  1  0
  6  5  1  0
  7  8  2  0
  8  4  1  0
  9  2  1  0
  9 11  1  0
 10  9  2  0
 12 11  1  0
 13 14  1  0
 12 13  1  1
 14 18  1  0
 15 14  2  0
 16 17  2  0
 16 12  1  0
 19 16  1  0
 20 19  1  0
 20 21  1  0
 21 22  1  0
 23 19  1  0
 23 22  1  0
 23 24  1  1
 24 25  1  0
 26 24  2  0
M  END
$$$$
