HDP.pdb
     RDKit          3D

 26 27  0  0  1  0  0  0  0  0999 V2000
   27.3099  -20.7691  -19.7436 N   0  0  0  0  0  0  0  0  0  0  0  0
   27.4914  -21.4691  -18.5109 C   0  0  1  0  0  0  0  0  0  0  0  0
   28.9495  -21.5866  -18.2100 C   0  0  0  0  0  0  0  0  0  0  0  0
   29.5874  -22.3929  -19.2867 C   0  0  0  0  0  0  0  0  0  0  0  0
   30.4913  -22.0100  -20.2526 C   0  0  0  0  0  0  0  0  0  0  0  0
   30.8308  -23.0406  -21.0468 N   0  0  0  0  0  0  0  0  0  0  0  0
   30.1333  -24.0947  -20.5801 C   0  0  0  0  0  0  0  0  0  0  0  0
   29.3848  -23.7214  -19.5266 N   0  0  0  0  0  0  0  0  0  0  0  0
   26.7221  -20.8688  -17.3906 C   0  0  0  0  0  0  0  0  0  0  0  0
   27.1367  -19.7839  -16.9061 O   0  0  0  0  0  0  0  0  0  0  0  0
   25.5526  -21.4679  -16.8558 N   0  0  0  0  0  0  0  0  0  0  0  0
   24.8494  -20.8407  -15.7399 C   0  0  1  0  0  0  0  0  0  0  0  0
   23.3429  -20.9503  -15.9601 C   0  0  0  0  0  0  0  0  0  0  0  0
   22.5581  -20.5229  -14.7985 C   0  0  0  0  0  0  0  0  0  0  0  0
   22.0921  -21.3159  -13.9487 O   0  0  0  0  0  0  0  0  0  0  0  0
   25.2285  -21.4539  -14.4508 C   0  0  0  0  0  0  0  0  0  0  0  0
   25.2827  -22.7308  -14.4363 O   0  0  0  0  0  0  0  0  0  0  0  0
   22.3139  -19.1826  -14.6218 O   0  0  0  0  0  0  0  0  0  0  0  0
   25.5307  -20.7707  -13.2584 N   0  0  0  0  0  0  0  0  0  0  0  0
   25.4609  -19.3661  -13.0089 C   0  0  0  0  0  0  0  0  0  0  0  0
   26.6134  -19.1233  -12.0563 C   0  0  0  0  0  0  0  0  0  0  0  0
   27.1037  -20.4838  -11.6173 C   0  0  0  0  0  0  0  0  0  0  0  0
   25.9654  -21.3878  -12.0379 C   0  0  1  0  0  0  0  0  0  0  0  0
   24.9229  -21.3279  -10.9735 C   0  0  0  0  0  0  0  0  0  0  0  0
   25.1188  -21.9065   -9.7291 O   0  0  0  0  0  0  0  0  0  0  0  0
   23.8207  -20.7526  -11.1519 O   0  0  0  0  0  0  0  0  0  0  0  0
  2  1  1  6
  3  2  1  0
  4  3  1  0
  5  4  2  0
  6  7  1  0
  6  5  1  0
  7  8  2  0
  8  4  1  0
  9  2  1  0
  9 11  1  0
 10  9  2  0
 12 11  1  0
 13 14  1  0
 12 13  1  6
 14 18  1  0
 15 14  2  0
 16 17  2  0
 16 12  1  0
 19 16  1  0
 20 19  1  0
 20 21  1  0
 21 22  1  0
 23 19  1  0
 23 22  1  0
 23 24  1  1
 24 25  1  0
 26 24  2  0
M  END
$$$$
