HDP.pdb
     RDKit          3D

 26 27  0  0  1  0  0  0  0  0999 V2000
   24.0631  -11.4418  -17.3548 N   0  0  0  0  0  0  0  0  0  0  0  0
   24.0928  -10.1797  -16.6849 C   0  0  1  0  0  0  0  0  0  0  0  0
   25.2893   -9.4038  -17.1284 C   0  0  0  0  0  0  0  0  0  0  0  0
   26.5091  -10.1858  -16.7864 C   0  0  0  0  0  0  0  0  0  0  0  0
   27.3155  -10.1133  -15.6724 C   0  0  0  0  0  0  0  0  0  0  0  0
   28.3286  -10.9950  -15.7386 N   0  0  0  0  0  0  0  0  0  0  0  0
   28.1651  -11.6380  -16.9112 C   0  0  0  0  0  0  0  0  0  0  0  0
   27.0798  -11.1637  -17.5489 N   0  0  0  0  0  0  0  0  0  0  0  0
   22.8268   -9.4175  -16.8387 C   0  0  0  0  0  0  0  0  0  0  0  0
   22.4271   -9.1690  -18.0057 O   0  0  0  0  0  0  0  0  0  0  0  0
   22.0639   -8.9667  -15.7309 N   0  0  0  0  0  0  0  0  0  0  0  0
   20.8323   -8.2112  -15.9447 C   0  0  1  0  0  0  0  0  0  0  0  0
   19.9145   -8.3797  -14.7368 C   0  0  0  0  0  0  0  0  0  0  0  0
   19.3895   -9.7409  -14.5972 C   0  0  0  0  0  0  0  0  0  0  0  0
   19.6274  -10.4766  -13.6123 O   0  0  0  0  0  0  0  0  0  0  0  0
   21.1122   -6.7810  -16.1848 C   0  0  0  0  0  0  0  0  0  0  0  0
   22.1674   -6.3195  -15.6304 O   0  0  0  0  0  0  0  0  0  0  0  0
   18.5922  -10.2480  -15.5946 O   0  0  0  0  0  0  0  0  0  0  0  0
   20.3356   -5.8965  -16.9559 N   0  0  0  0  0  0  0  0  0  0  0  0
   19.1429   -6.1838  -17.6871 C   0  0  0  0  0  0  0  0  0  0  0  0
   19.2498   -5.2801  -18.8981 C   0  0  0  0  0  0  0  0  0  0  0  0
   20.3944   -4.3309  -18.6278 C   0  0  0  0  0  0  0  0  0  0  0  0
   20.6083   -4.4996  -17.1393 C   0  0  1  0  0  0  0  0  0  0  0  0
   19.6161   -3.6348  -16.4385 C   0  0  0  0  0  0  0  0  0  0  0  0
   19.7920   -2.2639  -16.3322 O   0  0  0  0  0  0  0  0  0  0  0  0
   18.5768   -4.1045  -15.9124 O   0  0  0  0  0  0  0  0  0  0  0  0
  2  1  1  6
  3  2  1  0
  4  3  1  0
  5  4  2  0
  6  7  1  0
  6  5  1  0
  7  8  2  0
  8  4  1  0
  9  2  1  0
  9 11  1  0
 10  9  2  0
 12 11  1  0
 13 14  1  0
 12 13  1  1
 14 18  1  0
 15 14  2  0
 16 17  2  0
 16 12  1  0
 19 16  1  0
 20 19  1  0
 20 21  1  0
 21 22  1  0
 23 19  1  0
 23 22  1  0
 23 24  1  1
 24 25  1  0
 26 24  2  0
M  END
$$$$
