HDP.pdb
     RDKit          3D

 26 27  0  0  1  0  0  0  0  0999 V2000
   25.3268  -15.7974  -18.0550 N   0  0  0  0  0  0  0  0  0  0  0  0
   25.2654  -17.0615  -17.3910 C   0  0  1  0  0  0  0  0  0  0  0  0
   26.5276  -17.2885  -16.6257 C   0  0  0  0  0  0  0  0  0  0  0  0
   27.5668  -17.7829  -17.5702 C   0  0  0  0  0  0  0  0  0  0  0  0
   27.9071  -19.0749  -17.9042 C   0  0  0  0  0  0  0  0  0  0  0  0
   28.9069  -19.1050  -18.8029 N   0  0  0  0  0  0  0  0  0  0  0  0
   29.2074  -17.8141  -19.0447 C   0  0  0  0  0  0  0  0  0  0  0  0
   28.4130  -17.0118  -18.3135 N   0  0  0  0  0  0  0  0  0  0  0  0
   24.0506  -17.2098  -16.5488 C   0  0  0  0  0  0  0  0  0  0  0  0
   23.8354  -16.3385  -15.6668 O   0  0  0  0  0  0  0  0  0  0  0  0
   23.1376  -18.2847  -16.7025 N   0  0  0  0  0  0  0  0  0  0  0  0
   21.9337  -18.3507  -15.8783 C   0  0  1  0  0  0  0  0  0  0  0  0
   20.7801  -17.6639  -16.6046 C   0  0  0  0  0  0  0  0  0  0  0  0
   19.5146  -17.7297  -15.8681 C   0  0  0  0  0  0  0  0  0  0  0  0
   18.6188  -18.5717  -16.1059 O   0  0  0  0  0  0  0  0  0  0  0  0
   21.5797  -19.7471  -15.5520 C   0  0  0  0  0  0  0  0  0  0  0  0
   21.7328  -20.5953  -16.4958 O   0  0  0  0  0  0  0  0  0  0  0  0
   19.2878  -16.8240  -14.8602 O   0  0  0  0  0  0  0  0  0  0  0  0
   21.0984  -20.2193  -14.3170 N   0  0  0  0  0  0  0  0  0  0  0  0
   20.7946  -19.4617  -13.1449 C   0  0  0  0  0  0  0  0  0  0  0  0
   21.1790  -20.3960  -12.0162 C   0  0  0  0  0  0  0  0  0  0  0  0
   21.4326  -21.7477  -12.6430 C   0  0  0  0  0  0  0  0  0  0  0  0
   20.8066  -21.5908  -14.0117 C   0  0  1  0  0  0  0  0  0  0  0  0
   19.3429  -21.8378  -13.8710 C   0  0  0  0  0  0  0  0  0  0  0  0
   18.8332  -23.1158  -13.7016 O   0  0  0  0  0  0  0  0  0  0  0  0
   18.5037  -20.9037  -13.8989 O   0  0  0  0  0  0  0  0  0  0  0  0
  2  1  1  1
  3  2  1  0
  4  3  1  0
  5  4  2  0
  6  7  1  0
  6  5  1  0
  7  8  2  0
  8  4  1  0
  9  2  1  0
  9 11  1  0
 10  9  2  0
 12 11  1  0
 13 14  1  0
 12 13  1  6
 14 18  1  0
 15 14  2  0
 16 17  2  0
 16 12  1  0
 19 16  1  0
 20 19  1  0
 20 21  1  0
 21 22  1  0
 23 19  1  0
 23 22  1  0
 23 24  1  1
 24 25  1  0
 26 24  2  0
M  END
$$$$
