HDP.pdb
     RDKit          3D

 26 27  0  0  1  0  0  0  0  0999 V2000
   15.2529  -11.4054  -14.6362 N   0  0  0  0  0  0  0  0  0  0  0  0
   16.6031  -11.1031  -14.2783 C   0  0  1  0  0  0  0  0  0  0  0  0
   17.5090  -11.4209  -15.4223 C   0  0  0  0  0  0  0  0  0  0  0  0
   17.5065  -12.8955  -15.6274 C   0  0  0  0  0  0  0  0  0  0  0  0
   17.1120  -13.6292  -16.7240 C   0  0  0  0  0  0  0  0  0  0  0  0
   17.2644  -14.9488  -16.5154 N   0  0  0  0  0  0  0  0  0  0  0  0
   17.7630  -15.0570  -15.2684 C   0  0  0  0  0  0  0  0  0  0  0  0
   17.9129  -13.8356  -14.7250 N   0  0  0  0  0  0  0  0  0  0  0  0
   16.7692   -9.7113  -13.7859 C   0  0  0  0  0  0  0  0  0  0  0  0
   16.3011   -8.7782  -14.4886 O   0  0  0  0  0  0  0  0  0  0  0  0
   17.4279   -9.4022  -12.5681 N   0  0  0  0  0  0  0  0  0  0  0  0
   17.6612   -8.0108  -12.1906 C   0  0  1  0  0  0  0  0  0  0  0  0
   17.3052   -7.8149  -10.7193 C   0  0  0  0  0  0  0  0  0  0  0  0
   17.6532   -6.4838  -10.2143 C   0  0  0  0  0  0  0  0  0  0  0  0
   18.0247   -6.2651   -9.0387 O   0  0  0  0  0  0  0  0  0  0  0  0
   19.0612   -7.6119  -12.4404 C   0  0  0  0  0  0  0  0  0  0  0  0
   19.9553   -8.4040  -11.9854 O   0  0  0  0  0  0  0  0  0  0  0  0
   17.5714   -5.4102  -11.0677 O   0  0  0  0  0  0  0  0  0  0  0  0
   19.4916   -6.4591  -13.1228 N   0  0  0  0  0  0  0  0  0  0  0  0
   18.6884   -5.4288  -13.7000 C   0  0  0  0  0  0  0  0  0  0  0  0
   19.4766   -5.0178  -14.9265 C   0  0  0  0  0  0  0  0  0  0  0  0
   20.8312   -5.6779  -14.8095 C   0  0  0  0  0  0  0  0  0  0  0  0
   20.8606   -6.0976  -13.3560 C   0  0  1  0  0  0  0  0  0  0  0  0
   21.2758   -4.9130  -12.5511 C   0  0  0  0  0  0  0  0  0  0  0  0
   22.6010   -4.5138  -12.4734 O   0  0  0  0  0  0  0  0  0  0  0  0
   20.4482   -4.2219  -11.9069 O   0  0  0  0  0  0  0  0  0  0  0  0
  2  1  1  6
  3  2  1  0
  4  3  1  0
  5  4  2  0
  6  7  1  0
  6  5  1  0
  7  8  2  0
  8  4  1  0
  9  2  1  0
  9 11  1  0
 10  9  2  0
 12 11  1  0
 13 14  1  0
 12 13  1  1
 14 18  1  0
 15 14  2  0
 16 17  2  0
 16 12  1  0
 19 16  1  0
 20 19  1  0
 20 21  1  0
 21 22  1  0
 23 19  1  0
 23 22  1  0
 23 24  1  1
 24 25  1  0
 26 24  2  0
M  END
$$$$
