HDP.pdb
     RDKit          3D

 26 27  0  0  1  0  0  0  0  0999 V2000
   20.5425  -10.9638  -16.3479 N   0  0  0  0  0  0  0  0  0  0  0  0
   20.2660   -9.7277  -17.0098 C   0  0  1  0  0  0  0  0  0  0  0  0
   19.0094   -9.8547  -17.8067 C   0  0  0  0  0  0  0  0  0  0  0  0
   19.2286  -10.8740  -18.8694 C   0  0  0  0  0  0  0  0  0  0  0  0
   18.8559  -12.1993  -18.9059 C   0  0  0  0  0  0  0  0  0  0  0  0
   19.2422  -12.7890  -20.0510 N   0  0  0  0  0  0  0  0  0  0  0  0
   19.8697  -11.8257  -20.7535 C   0  0  0  0  0  0  0  0  0  0  0  0
   19.8690  -10.6742  -20.0583 N   0  0  0  0  0  0  0  0  0  0  0  0
   20.2389   -8.5706  -16.0783 C   0  0  0  0  0  0  0  0  0  0  0  0
   19.4883   -8.6430  -15.0709 O   0  0  0  0  0  0  0  0  0  0  0  0
   21.0189   -7.4034  -16.2825 N   0  0  0  0  0  0  0  0  0  0  0  0
   20.9362   -6.2895  -15.3415 C   0  0  1  0  0  0  0  0  0  0  0  0
   22.3062   -6.0507  -14.7122 C   0  0  0  0  0  0  0  0  0  0  0  0
   22.3250   -4.9147  -13.7863 C   0  0  0  0  0  0  0  0  0  0  0  0
   22.6399   -3.7512  -14.1252 O   0  0  0  0  0  0  0  0  0  0  0  0
   20.4504   -5.0609  -16.0019 C   0  0  0  0  0  0  0  0  0  0  0  0
   20.9198   -4.8333  -17.1688 O   0  0  0  0  0  0  0  0  0  0  0  0
   21.9803   -5.1256  -12.4732 O   0  0  0  0  0  0  0  0  0  0  0  0
   19.5329   -4.1352  -15.4716 N   0  0  0  0  0  0  0  0  0  0  0  0
   18.9212   -4.1457  -14.1810 C   0  0  0  0  0  0  0  0  0  0  0  0
   17.5408   -3.5802  -14.4446 C   0  0  0  0  0  0  0  0  0  0  0  0
   17.5615   -3.0316  -15.8527 C   0  0  0  0  0  0  0  0  0  0  0  0
   19.0434   -2.9712  -16.1533 C   0  0  1  0  0  0  0  0  0  0  0  0
   19.5737   -1.7083  -15.5642 C   0  0  0  0  0  0  0  0  0  0  0  0
   19.3008   -0.4713  -16.1276 O   0  0  0  0  0  0  0  0  0  0  0  0
   20.2907   -1.7035  -14.5330 O   0  0  0  0  0  0  0  0  0  0  0  0
  2  1  1  1
  3  2  1  0
  4  3  1  0
  5  4  2  0
  6  7  1  0
  6  5  1  0
  7  8  2  0
  8  4  1  0
  9  2  1  0
  9 11  1  0
 10  9  2  0
 12 11  1  0
 13 14  1  0
 12 13  1  6
 14 18  1  0
 15 14  2  0
 16 17  2  0
 16 12  1  0
 19 16  1  0
 20 19  1  0
 20 21  1  0
 21 22  1  0
 23 19  1  0
 23 22  1  0
 23 24  1  1
 24 25  1  0
 26 24  2  0
M  END
$$$$
