HDP.pdb
     RDKit          3D

 26 27  0  0  1  0  0  0  0  0999 V2000
   14.7812  -20.0563    2.0409 N   0  0  0  0  0  0  0  0  0  0  0  0
   15.5790  -21.0257    2.7238 C   0  0  1  0  0  0  0  0  0  0  0  0
   16.5117  -21.6791    1.7576 C   0  0  0  0  0  0  0  0  0  0  0  0
   15.7028  -22.4362    0.7632 C   0  0  0  0  0  0  0  0  0  0  0  0
   14.5952  -23.2319    0.9548 C   0  0  0  0  0  0  0  0  0  0  0  0
   14.1494  -23.7445   -0.2056 N   0  0  0  0  0  0  0  0  0  0  0  0
   14.9849  -23.2687   -1.1495 C   0  0  0  0  0  0  0  0  0  0  0  0
   15.9196  -22.4841   -0.5837 N   0  0  0  0  0  0  0  0  0  0  0  0
   16.2811  -20.4623    3.9057 C   0  0  0  0  0  0  0  0  0  0  0  0
   17.0119  -19.4530    3.7308 O   0  0  0  0  0  0  0  0  0  0  0  0
   16.1577  -21.0153    5.2063 N   0  0  0  0  0  0  0  0  0  0  0  0
   16.9405  -20.4727    6.3135 C   0  0  1  0  0  0  0  0  0  0  0  0
   16.2749  -20.8402    7.6370 C   0  0  0  0  0  0  0  0  0  0  0  0
   16.9262  -20.2290    8.7990 C   0  0  0  0  0  0  0  0  0  0  0  0
   17.6585  -19.2157    8.7282 O   0  0  0  0  0  0  0  0  0  0  0  0
   18.3326  -20.9652    6.2817 C   0  0  0  0  0  0  0  0  0  0  0  0
   18.5078  -22.1038    5.7280 O   0  0  0  0  0  0  0  0  0  0  0  0
   16.7302  -20.7892   10.0381 O   0  0  0  0  0  0  0  0  0  0  0  0
   19.4636  -20.3049    6.7964 N   0  0  0  0  0  0  0  0  0  0  0  0
   19.5208  -19.0282    7.4341 C   0  0  0  0  0  0  0  0  0  0  0  0
   20.8597  -18.4761    6.9899 C   0  0  0  0  0  0  0  0  0  0  0  0
   21.5985  -19.6169    6.3291 C   0  0  0  0  0  0  0  0  0  0  0  0
   20.8023  -20.8216    6.7814 C   0  0  1  0  0  0  0  0  0  0  0  0
   21.2784  -21.1930    8.1448 C   0  0  0  0  0  0  0  0  0  0  0  0
   20.5263  -20.9224    9.2774 O   0  0  0  0  0  0  0  0  0  0  0  0
   22.3798  -21.7667    8.3327 O   0  0  0  0  0  0  0  0  0  0  0  0
  2  1  1  6
  3  2  1  0
  4  3  1  0
  5  4  2  0
  6  7  1  0
  6  5  1  0
  7  8  2  0
  8  4  1  0
  9  2  1  0
  9 11  1  0
 10  9  2  0
 12 11  1  0
 13 14  1  0
 12 13  1  1
 14 18  1  0
 15 14  2  0
 16 17  2  0
 16 12  1  0
 19 16  1  0
 20 19  1  0
 20 21  1  0
 21 22  1  0
 23 19  1  0
 23 22  1  0
 23 24  1  1
 24 25  1  0
 26 24  2  0
M  END
$$$$
