HDP.pdb
     RDKit          3D

 26 27  0  0  1  0  0  0  0  0999 V2000
   26.1136  -19.0292  -17.7421 N   0  0  0  0  0  0  0  0  0  0  0  0
   26.9189  -18.6754  -16.6156 C   0  0  1  0  0  0  0  0  0  0  0  0
   27.7731  -17.4993  -16.9583 C   0  0  0  0  0  0  0  0  0  0  0  0
   28.5884  -17.8443  -18.1553 C   0  0  0  0  0  0  0  0  0  0  0  0
   29.6606  -18.7008  -18.2707 C   0  0  0  0  0  0  0  0  0  0  0  0
   30.1276  -18.7394  -19.5311 N   0  0  0  0  0  0  0  0  0  0  0  0
   29.3418  -17.8956  -20.2281 C   0  0  0  0  0  0  0  0  0  0  0  0
   28.4161  -17.3528  -19.4171 N   0  0  0  0  0  0  0  0  0  0  0  0
   26.1191  -18.4621  -15.3818 C   0  0  0  0  0  0  0  0  0  0  0  0
   25.8714  -17.2772  -15.0380 O   0  0  0  0  0  0  0  0  0  0  0  0
   25.6318  -19.5330  -14.5892 N   0  0  0  0  0  0  0  0  0  0  0  0
   24.7935  -19.2635  -13.4240 C   0  0  1  0  0  0  0  0  0  0  0  0
   23.3740  -18.9382  -13.8811 C   0  0  0  0  0  0  0  0  0  0  0  0
   22.7488  -20.0262  -14.6385 C   0  0  0  0  0  0  0  0  0  0  0  0
   22.0784  -20.9416  -14.1089 O   0  0  0  0  0  0  0  0  0  0  0  0
   24.7855  -20.4073  -12.4896 C   0  0  0  0  0  0  0  0  0  0  0  0
   25.0216  -21.5515  -13.0082 O   0  0  0  0  0  0  0  0  0  0  0  0
   22.8997  -20.0538  -16.0037 O   0  0  0  0  0  0  0  0  0  0  0  0
   24.5462  -20.3516  -11.1041 N   0  0  0  0  0  0  0  0  0  0  0  0
   24.2389  -19.2041  -10.3112 C   0  0  0  0  0  0  0  0  0  0  0  0
   24.9197  -19.4999   -8.9908 C   0  0  0  0  0  0  0  0  0  0  0  0
   25.3530  -20.9468   -9.0438 C   0  0  0  0  0  0  0  0  0  0  0  0
   24.5573  -21.4787  -10.2159 C   0  0  1  0  0  0  0  0  0  0  0  0
   23.1929  -21.8188   -9.7197 C   0  0  0  0  0  0  0  0  0  0  0  0
   22.9714  -22.9019   -8.8834 O   0  0  0  0  0  0  0  0  0  0  0  0
   22.1819  -21.1431  -10.0340 O   0  0  0  0  0  0  0  0  0  0  0  0
  2  1  1  6
  3  2  1  0
  4  3  1  0
  5  4  2  0
  6  7  1  0
  6  5  1  0
  7  8  2  0
  8  4  1  0
  9  2  1  0
  9 11  1  0
 10  9  2  0
 12 11  1  0
 13 14  1  0
 12 13  1  6
 14 18  1  0
 15 14  2  0
 16 17  2  0
 16 12  1  0
 19 16  1  0
 20 19  1  0
 20 21  1  0
 21 22  1  0
 23 19  1  0
 23 22  1  0
 23 24  1  1
 24 25  1  0
 26 24  2  0
M  END
$$$$
