HDP.pdb
     RDKit          3D

 26 27  0  0  1  0  0  0  0  0999 V2000
   27.9827  -26.0541  -16.1811 N   0  0  0  0  0  0  0  0  0  0  0  0
   27.4575  -27.1286  -16.9635 C   0  0  1  0  0  0  0  0  0  0  0  0
   27.6921  -26.8558  -18.4130 C   0  0  0  0  0  0  0  0  0  0  0  0
   27.0255  -25.5714  -18.7627 C   0  0  0  0  0  0  0  0  0  0  0  0
   27.5767  -24.3324  -19.0028 C   0  0  0  0  0  0  0  0  0  0  0  0
   26.6321  -23.4194  -19.2895 N   0  0  0  0  0  0  0  0  0  0  0  0
   25.4628  -24.0864  -19.2313 C   0  0  0  0  0  0  0  0  0  0  0  0
   25.6834  -25.3755  -18.9170 N   0  0  0  0  0  0  0  0  0  0  0  0
   27.9753  -28.4549  -16.5393 C   0  0  0  0  0  0  0  0  0  0  0  0
   29.2179  -28.5803  -16.3856 O   0  0  0  0  0  0  0  0  0  0  0  0
   27.1292  -29.5692  -16.3048 N   0  0  0  0  0  0  0  0  0  0  0  0
   27.6950  -30.8443  -15.8726 C   0  0  1  0  0  0  0  0  0  0  0  0
   26.5962  -31.7084  -15.2596 C   0  0  0  0  0  0  0  0  0  0  0  0
   25.3926  -31.7867  -16.0923 C   0  0  0  0  0  0  0  0  0  0  0  0
   25.1546  -32.7329  -16.8771 O   0  0  0  0  0  0  0  0  0  0  0  0
   28.3442  -31.5537  -16.9938 C   0  0  0  0  0  0  0  0  0  0  0  0
   28.1205  -31.0767  -18.1584 O   0  0  0  0  0  0  0  0  0  0  0  0
   24.4684  -30.7730  -16.0162 O   0  0  0  0  0  0  0  0  0  0  0  0
   29.1726  -32.6869  -16.8968 N   0  0  0  0  0  0  0  0  0  0  0  0
   29.4937  -33.4428  -15.7283 C   0  0  0  0  0  0  0  0  0  0  0  0
   30.9251  -33.8735  -15.9738 C   0  0  0  0  0  0  0  0  0  0  0  0
   31.2327  -33.5446  -17.4165 C   0  0  0  0  0  0  0  0  0  0  0  0
   29.8540  -33.3109  -17.9948 C   0  0  1  0  0  0  0  0  0  0  0  0
   29.2743  -34.6419  -18.3349 C   0  0  0  0  0  0  0  0  0  0  0  0
   29.6962  -35.3578  -19.4445 O   0  0  0  0  0  0  0  0  0  0  0  0
   28.3789  -35.1771  -17.6354 O   0  0  0  0  0  0  0  0  0  0  0  0
  2  1  1  1
  3  2  1  0
  4  3  1  0
  5  4  2  0
  6  7  1  0
  6  5  1  0
  7  8  2  0
  8  4  1  0
  9  2  1  0
  9 11  1  0
 10  9  2  0
 12 11  1  0
 13 14  1  0
 12 13  1  6
 14 18  1  0
 15 14  2  0
 16 17  2  0
 16 12  1  0
 19 16  1  0
 20 19  1  0
 20 21  1  0
 21 22  1  0
 23 19  1  0
 23 22  1  0
 23 24  1  1
 24 25  1  0
 26 24  2  0
M  END
$$$$
