HDP.pdb
     RDKit          3D

 26 27  0  0  1  0  0  0  0  0999 V2000
   24.5081  -26.5741  -22.5123 N   0  0  0  0  0  0  0  0  0  0  0  0
   24.4271  -26.5471  -21.0857 C   0  0  1  0  0  0  0  0  0  0  0  0
   23.1294  -27.1404  -20.6450 C   0  0  0  0  0  0  0  0  0  0  0  0
   22.0360  -26.1950  -21.0013 C   0  0  0  0  0  0  0  0  0  0  0  0
   21.5878  -25.0777  -20.3323 C   0  0  0  0  0  0  0  0  0  0  0  0
   20.5713  -24.4868  -20.9847 N   0  0  0  0  0  0  0  0  0  0  0  0
   20.3693  -25.2382  -22.0846 C   0  0  0  0  0  0  0  0  0  0  0  0
   21.2390  -26.2641  -22.1074 N   0  0  0  0  0  0  0  0  0  0  0  0
   25.5993  -27.1836  -20.4314 C   0  0  0  0  0  0  0  0  0  0  0  0
   26.0847  -28.2141  -20.9661 O   0  0  0  0  0  0  0  0  0  0  0  0
   26.1821  -26.6768  -19.2414 N   0  0  0  0  0  0  0  0  0  0  0  0
   27.3622  -27.3192  -18.6689 C   0  0  1  0  0  0  0  0  0  0  0  0
   28.0867  -26.3339  -17.7556 C   0  0  0  0  0  0  0  0  0  0  0  0
   29.3481  -26.8597  -17.2258 C   0  0  0  0  0  0  0  0  0  0  0  0
   29.8195  -27.9758  -17.5419 O   0  0  0  0  0  0  0  0  0  0  0  0
   27.0021  -28.5434  -17.9252 C   0  0  0  0  0  0  0  0  0  0  0  0
   26.0274  -28.4306  -17.1059 O   0  0  0  0  0  0  0  0  0  0  0  0
   30.0605  -26.0957  -16.3334 O   0  0  0  0  0  0  0  0  0  0  0  0
   27.6241  -29.8007  -18.0359 N   0  0  0  0  0  0  0  0  0  0  0  0
   28.7489  -30.1563  -18.8410 C   0  0  0  0  0  0  0  0  0  0  0  0
   28.4461  -31.5823  -19.2530 C   0  0  0  0  0  0  0  0  0  0  0  0
   27.2708  -32.0323  -18.4163 C   0  0  0  0  0  0  0  0  0  0  0  0
   27.2315  -30.9842  -17.3256 C   0  0  1  0  0  0  0  0  0  0  0  0
   28.2273  -31.3744  -16.2866 C   0  0  0  0  0  0  0  0  0  0  0  0
   29.4370  -30.7109  -16.1519 O   0  0  0  0  0  0  0  0  0  0  0  0
   28.0195  -32.3196  -15.4861 O   0  0  0  0  0  0  0  0  0  0  0  0
  2  1  1  6
  3  2  1  0
  4  3  1  0
  5  4  2  0
  6  7  1  0
  6  5  1  0
  7  8  2  0
  8  4  1  0
  9  2  1  0
  9 11  1  0
 10  9  2  0
 12 11  1  0
 13 14  1  0
 12 13  1  1
 14 18  1  0
 15 14  2  0
 16 17  2  0
 16 12  1  0
 19 16  1  0
 20 19  1  0
 20 21  1  0
 21 22  1  0
 23 19  1  0
 23 22  1  0
 23 24  1  1
 24 25  1  0
 26 24  2  0
M  END
$$$$
