HDP.pdb
     RDKit          3D

 26 27  0  0  1  0  0  0  0  0999 V2000
   25.3881  -20.0823  -18.4488 N   0  0  0  0  0  0  0  0  0  0  0  0
   24.0324  -19.6535  -18.5931 C   0  0  1  0  0  0  0  0  0  0  0  0
   23.3523  -20.4804  -19.6344 C   0  0  0  0  0  0  0  0  0  0  0  0
   23.8987  -20.1004  -20.9661 C   0  0  0  0  0  0  0  0  0  0  0  0
   24.5970  -20.8598  -21.8784 C   0  0  0  0  0  0  0  0  0  0  0  0
   24.9181  -20.1458  -22.9717 N   0  0  0  0  0  0  0  0  0  0  0  0
   24.4172  -18.9143  -22.7525 C   0  0  0  0  0  0  0  0  0  0  0  0
   23.8044  -18.8729  -21.5558 N   0  0  0  0  0  0  0  0  0  0  0  0
   23.2947  -19.6364  -17.3037 C   0  0  0  0  0  0  0  0  0  0  0  0
   23.5246  -20.5608  -16.4814 O   0  0  0  0  0  0  0  0  0  0  0  0
   22.3535  -18.6281  -16.9721 N   0  0  0  0  0  0  0  0  0  0  0  0
   21.7631  -18.5834  -15.6370 C   0  0  1  0  0  0  0  0  0  0  0  0
   21.1423  -17.2093  -15.3996 C   0  0  0  0  0  0  0  0  0  0  0  0
   22.1376  -16.1401  -15.2804 C   0  0  0  0  0  0  0  0  0  0  0  0
   23.3290  -16.3376  -14.9496 O   0  0  0  0  0  0  0  0  0  0  0  0
   20.7513  -19.6446  -15.4592 C   0  0  0  0  0  0  0  0  0  0  0  0
   20.1537  -20.0277  -16.5222 O   0  0  0  0  0  0  0  0  0  0  0  0
   21.7543  -14.8472  -15.5433 O   0  0  0  0  0  0  0  0  0  0  0  0
   20.3929  -20.2614  -14.2464 N   0  0  0  0  0  0  0  0  0  0  0  0
   20.9029  -19.9922  -12.9397 C   0  0  0  0  0  0  0  0  0  0  0  0
   20.8929  -21.3530  -12.2741 C   0  0  0  0  0  0  0  0  0  0  0  0
   20.1125  -22.2725  -13.1850 C   0  0  0  0  0  0  0  0  0  0  0  0
   19.4092  -21.2964  -14.1027 C   0  0  1  0  0  0  0  0  0  0  0  0
   18.1846  -20.8166  -13.4002 C   0  0  0  0  0  0  0  0  0  0  0  0
   18.0874  -19.5248  -12.9066 O   0  0  0  0  0  0  0  0  0  0  0  0
   17.1854  -21.5564  -13.2221 O   0  0  0  0  0  0  0  0  0  0  0  0
  2  1  1  1
  3  2  1  0
  4  3  1  0
  5  4  2  0
  6  7  1  0
  6  5  1  0
  7  8  2  0
  8  4  1  0
  9  2  1  0
  9 11  1  0
 10  9  2  0
 12 11  1  0
 13 14  1  0
 12 13  1  6
 14 18  1  0
 15 14  2  0
 16 17  2  0
 16 12  1  0
 19 16  1  0
 20 19  1  0
 20 21  1  0
 21 22  1  0
 23 19  1  0
 23 22  1  0
 23 24  1  1
 24 25  1  0
 26 24  2  0
M  END
$$$$
