HDP.pdb
     RDKit          3D

 26 27  0  0  1  0  0  0  0  0999 V2000
   18.7314  -12.1964  -19.2593 N   0  0  0  0  0  0  0  0  0  0  0  0
   18.8349  -12.3578  -17.8430 C   0  0  1  0  0  0  0  0  0  0  0  0
   19.1487  -13.7820  -17.5215 C   0  0  0  0  0  0  0  0  0  0  0  0
   18.0930  -14.6425  -18.1226 C   0  0  0  0  0  0  0  0  0  0  0  0
   18.1703  -15.5147  -19.1856 C   0  0  0  0  0  0  0  0  0  0  0  0
   16.9878  -16.1095  -19.4226 N   0  0  0  0  0  0  0  0  0  0  0  0
   16.1457  -15.6092  -18.4975 C   0  0  0  0  0  0  0  0  0  0  0  0
   16.7939  -14.7298  -17.7127 N   0  0  0  0  0  0  0  0  0  0  0  0
   19.7940  -11.4064  -17.2248 C   0  0  0  0  0  0  0  0  0  0  0  0
   20.0536  -11.5435  -16.0012 O   0  0  0  0  0  0  0  0  0  0  0  0
   20.4185  -10.3635  -17.9561 N   0  0  0  0  0  0  0  0  0  0  0  0
   21.3269   -9.4369  -17.2857 C   0  0  1  0  0  0  0  0  0  0  0  0
   22.3878   -8.9584  -18.2734 C   0  0  0  0  0  0  0  0  0  0  0  0
   23.2898  -10.0267  -18.7127 C   0  0  0  0  0  0  0  0  0  0  0  0
   23.9762  -10.7194  -17.9272 O   0  0  0  0  0  0  0  0  0  0  0  0
   20.5980   -8.2866  -16.7137 C   0  0  0  0  0  0  0  0  0  0  0  0
   19.5616   -7.9077  -17.3588 O   0  0  0  0  0  0  0  0  0  0  0  0
   23.3964  -10.2917  -20.0566 O   0  0  0  0  0  0  0  0  0  0  0  0
   20.9357   -7.5832  -15.5428 N   0  0  0  0  0  0  0  0  0  0  0  0
   21.9967   -7.8591  -14.6275 C   0  0  0  0  0  0  0  0  0  0  0  0
   21.4123   -7.4646  -13.2867 C   0  0  0  0  0  0  0  0  0  0  0  0
   20.1246   -6.7290  -13.5775 C   0  0  0  0  0  0  0  0  0  0  0  0
   20.2573   -6.4175  -15.0524 C   0  0  1  0  0  0  0  0  0  0  0  0
   21.0876   -5.1858  -15.1820 C   0  0  0  0  0  0  0  0  0  0  0  0
   20.5628   -3.9254  -14.9421 O   0  0  0  0  0  0  0  0  0  0  0  0
   22.2983   -5.2301  -15.5135 O   0  0  0  0  0  0  0  0  0  0  0  0
  2  1  1  6
  3  2  1  0
  4  3  1  0
  5  4  2  0
  6  7  1  0
  6  5  1  0
  7  8  2  0
  8  4  1  0
  9  2  1  0
  9 11  1  0
 10  9  2  0
 12 11  1  0
 13 14  1  0
 12 13  1  6
 14 18  1  0
 15 14  2  0
 16 17  2  0
 16 12  1  0
 19 16  1  0
 20 19  1  0
 20 21  1  0
 21 22  1  0
 23 19  1  0
 23 22  1  0
 23 24  1  1
 24 25  1  0
 26 24  2  0
M  END
$$$$
