HDP.pdb
     RDKit          3D

 26 27  0  0  1  0  0  0  0  0999 V2000
   14.8316  -23.1096    2.8658 N   0  0  0  0  0  0  0  0  0  0  0  0
   16.2394  -23.3552    2.8885 C   0  0  1  0  0  0  0  0  0  0  0  0
   16.8356  -22.7466    4.1151 C   0  0  0  0  0  0  0  0  0  0  0  0
   16.6826  -21.2683    4.0274 C   0  0  0  0  0  0  0  0  0  0  0  0
   15.7422  -20.4465    4.6077 C   0  0  0  0  0  0  0  0  0  0  0  0
   15.9459  -19.1576    4.2831 N   0  0  0  0  0  0  0  0  0  0  0  0
   17.0313  -19.1586    3.4849 C   0  0  0  0  0  0  0  0  0  0  0  0
   17.4827  -20.4154    3.3233 N   0  0  0  0  0  0  0  0  0  0  0  0
   16.5738  -24.7954    2.7434 C   0  0  0  0  0  0  0  0  0  0  0  0
   16.0482  -25.6063    3.5494 O   0  0  0  0  0  0  0  0  0  0  0  0
   17.4528  -25.2812    1.7415 N   0  0  0  0  0  0  0  0  0  0  0  0
   17.7606  -26.7067    1.6613 C   0  0  1  0  0  0  0  0  0  0  0  0
   18.5468  -26.9876    0.3834 C   0  0  0  0  0  0  0  0  0  0  0  0
   17.9139  -27.9945   -0.4731 C   0  0  0  0  0  0  0  0  0  0  0  0
   18.3131  -29.1780   -0.5606 O   0  0  0  0  0  0  0  0  0  0  0  0
   18.5189  -27.1618    2.8443 C   0  0  0  0  0  0  0  0  0  0  0  0
   19.2202  -26.2699    3.4329 O   0  0  0  0  0  0  0  0  0  0  0  0
   16.8228  -27.6319   -1.2252 O   0  0  0  0  0  0  0  0  0  0  0  0
   18.5376  -28.4658    3.3726 N   0  0  0  0  0  0  0  0  0  0  0  0
   17.7954  -29.6033    2.9310 C   0  0  0  0  0  0  0  0  0  0  0  0
   17.5073  -30.3522    4.2158 C   0  0  0  0  0  0  0  0  0  0  0  0
   18.3530  -29.7073    5.2895 C   0  0  0  0  0  0  0  0  0  0  0  0
   19.3428  -28.8996    4.4784 C   0  0  1  0  0  0  0  0  0  0  0  0
   20.4365  -29.8194    4.0527 C   0  0  0  0  0  0  0  0  0  0  0  0
   21.3619  -30.3177    4.9566 O   0  0  0  0  0  0  0  0  0  0  0  0
   20.5720  -30.1861    2.8591 O   0  0  0  0  0  0  0  0  0  0  0  0
  2  1  1  1
  3  2  1  0
  4  3  1  0
  5  4  2  0
  6  7  1  0
  6  5  1  0
  7  8  2  0
  8  4  1  0
  9  2  1  0
  9 11  1  0
 10  9  2  0
 12 11  1  0
 13 14  1  0
 12 13  1  6
 14 18  1  0
 15 14  2  0
 16 17  2  0
 16 12  1  0
 19 16  1  0
 20 19  1  0
 20 21  1  0
 21 22  1  0
 23 19  1  0
 23 22  1  0
 23 24  1  6
 24 25  1  0
 26 24  2  0
M  END
$$$$
