CDY.pdb
     RDKit          3D

 27 27  0  0  1  0  0  0  0  0999 V2000
   16.2397  -13.6623  -14.5548 N   0  0  0  0  0  0  0  0  0  0  0  0
   15.4821  -12.4539  -14.5146 C   0  0  1  0  0  0  0  0  0  0  0  0
   14.1442  -12.7277  -13.8582 C   0  0  0  0  0  0  0  0  0  0  0  0
   12.8504  -13.0869  -15.0587 S   0  0  0  0  0  0  0  0  0  0  0  0
   16.1399  -11.3786  -13.7051 C   0  0  0  0  0  0  0  0  0  0  0  0
   16.6998  -11.7299  -12.6536 O   0  0  0  0  0  0  0  0  0  0  0  0
   16.1469  -10.0214  -14.0815 N   0  0  0  0  0  0  0  0  0  0  0  0
   16.7593   -8.9622  -13.3249 C   0  0  1  0  0  0  0  0  0  0  0  0
   17.3231   -7.9437  -14.2552 C   0  0  0  0  0  0  0  0  0  0  0  0
   18.0065   -6.9004  -13.4539 C   0  0  0  0  0  0  0  0  0  0  0  0
   19.1996   -6.9430  -13.0783 O   0  0  0  0  0  0  0  0  0  0  0  0
   15.7677   -8.4127  -12.3755 C   0  0  0  0  0  0  0  0  0  0  0  0
   14.5984   -8.2580  -12.8074 O   0  0  0  0  0  0  0  0  0  0  0  0
   17.2917   -5.7510  -13.0619 O   0  0  0  0  0  0  0  0  0  0  0  0
   11.3024   -5.6918   -5.3194 O   0  0  0  0  0  0  0  0  0  0  0  0
   12.2490   -6.2603   -6.1663 C   0  0  0  0  0  0  0  0  0  0  0  0
   11.9269   -7.2946   -7.0191 C   0  0  0  0  0  0  0  0  0  0  0  0
   12.8434   -7.8723   -7.8646 C   0  0  0  0  0  0  0  0  0  0  0  0
   14.1604   -7.4236   -7.8910 C   0  0  0  0  0  0  0  0  0  0  0  0
   15.1820   -8.0084   -8.7606 C   0  0  0  0  0  0  0  0  0  0  0  0
   15.1182   -7.4375  -10.1317 C   0  0  2  0  0  0  0  0  0  0  0  0
   16.0632   -8.0626  -11.0422 N   0  0  0  0  0  0  0  0  0  0  0  0
   15.2380   -5.9805  -10.2353 C   0  0  0  0  0  0  0  0  0  0  0  0
   16.3496   -5.4684  -10.5532 O   0  0  0  0  0  0  0  0  0  0  0  0
   14.4834   -6.3822   -7.0319 C   0  0  0  0  0  0  0  0  0  0  0  0
   13.5536   -5.8152   -6.1919 C   0  0  0  0  0  0  0  0  0  0  0  0
   14.2200   -5.0667  -10.0137 O   0  0  0  0  0  0  0  0  0  0  0  0
  2  3  1  0
  2  1  1  1
  4  3  1  0
  5  2  1  0
  6  5  2  0
  7  5  1  0
  8  7  1  0
  8  9  1  6
 10  9  1  0
 11 10  2  0
 12 22  1  0
 12  8  1  0
 13 12  2  0
 14 10  1  0
 16 15  1  0
 17 16  2  0
 18 17  1  0
 19 18  2  0
 19 25  1  0
 21 20  1  1
 20 19  1  0
 21 22  1  0
 23 27  1  0
 23 21  1  0
 24 23  2  0
 25 26  2  0
 26 16  1  0
M  END
$$$$
