CDY.pdb
     RDKit          3D

 27 27  0  0  1  0  0  0  0  0999 V2000
   18.3278  -12.3294  -17.4159 N   0  0  0  0  0  0  0  0  0  0  0  0
   17.6902  -11.3550  -16.5912 C   0  0  1  0  0  0  0  0  0  0  0  0
   17.7482  -11.8112  -15.1475 C   0  0  0  0  0  0  0  0  0  0  0  0
   16.5749  -13.1319  -14.7964 S   0  0  0  0  0  0  0  0  0  0  0  0
   18.3628  -10.0173  -16.6410 C   0  0  0  0  0  0  0  0  0  0  0  0
   19.5975  -10.0138  -16.7757 O   0  0  0  0  0  0  0  0  0  0  0  0
   17.6665   -8.7970  -16.5435 N   0  0  0  0  0  0  0  0  0  0  0  0
   18.2748   -7.4956  -16.6197 C   0  0  1  0  0  0  0  0  0  0  0  0
   17.2353   -6.4744  -16.9315 C   0  0  0  0  0  0  0  0  0  0  0  0
   17.0946   -6.3794  -18.4042 C   0  0  0  0  0  0  0  0  0  0  0  0
   17.9587   -6.7334  -19.2375 O   0  0  0  0  0  0  0  0  0  0  0  0
   19.0061   -7.2314  -15.3619 C   0  0  0  0  0  0  0  0  0  0  0  0
   18.3691   -7.4000  -14.2926 O   0  0  0  0  0  0  0  0  0  0  0  0
   15.9077   -5.8540  -18.9527 O   0  0  0  0  0  0  0  0  0  0  0  0
   25.3023   -9.3170  -17.9915 O   0  0  0  0  0  0  0  0  0  0  0  0
   24.4703   -8.9524  -16.9373 C   0  0  0  0  0  0  0  0  0  0  0  0
   23.7546   -9.8905  -16.2242 C   0  0  0  0  0  0  0  0  0  0  0  0
   22.9268   -9.5556  -15.1796 C   0  0  0  0  0  0  0  0  0  0  0  0
   22.7777   -8.2265  -14.7950 C   0  0  0  0  0  0  0  0  0  0  0  0
   21.9015   -7.8096  -13.6995 C   0  0  0  0  0  0  0  0  0  0  0  0
   21.0964   -6.6170  -14.0732 C   0  0  2  0  0  0  0  0  0  0  0  0
   20.3503   -6.8098  -15.3056 N   0  0  0  0  0  0  0  0  0  0  0  0
   21.8155   -5.3415  -14.1375 C   0  0  0  0  0  0  0  0  0  0  0  0
   21.7972   -4.6700  -15.2088 O   0  0  0  0  0  0  0  0  0  0  0  0
   23.4989   -7.2830  -15.5138 C   0  0  0  0  0  0  0  0  0  0  0  0
   24.3232   -7.6355  -16.5569 C   0  0  0  0  0  0  0  0  0  0  0  0
   22.5426   -4.7692  -13.1059 O   0  0  0  0  0  0  0  0  0  0  0  0
  2  3  1  0
  2  1  1  6
  4  3  1  0
  5  2  1  0
  6  5  2  0
  7  5  1  0
  8  7  1  0
  8  9  1  1
 10  9  1  0
 11 10  2  0
 12 22  1  0
 12  8  1  0
 13 12  2  0
 14 10  1  0
 16 15  1  0
 17 16  2  0
 18 17  1  0
 19 18  2  0
 19 25  1  0
 21 20  1  6
 20 19  1  0
 21 22  1  0
 23 27  1  0
 23 21  1  0
 24 23  2  0
 25 26  2  0
 26 16  1  0
M  END
$$$$
