CDY.pdb
     RDKit          3D

 27 27  0  0  1  0  0  0  0  0999 V2000
   25.0284  -12.1014  -21.5509 N   0  0  0  0  0  0  0  0  0  0  0  0
   25.9082  -11.7202  -20.4942 C   0  0  1  0  0  0  0  0  0  0  0  0
   27.0911  -12.6665  -20.4666 C   0  0  0  0  0  0  0  0  0  0  0  0
   26.6292  -14.3294  -19.9513 S   0  0  0  0  0  0  0  0  0  0  0  0
   26.4705  -10.3428  -20.6705 C   0  0  0  0  0  0  0  0  0  0  0  0
   26.6757   -9.9646  -21.8357 O   0  0  0  0  0  0  0  0  0  0  0  0
   26.7670   -9.4844  -19.5941 N   0  0  0  0  0  0  0  0  0  0  0  0
   27.2557   -8.1380  -19.7275 C   0  0  1  0  0  0  0  0  0  0  0  0
   26.1220   -7.1790  -19.6025 C   0  0  0  0  0  0  0  0  0  0  0  0
   26.6333   -5.8097  -19.8498 C   0  0  0  0  0  0  0  0  0  0  0  0
   26.1726   -4.7630  -19.3413 O   0  0  0  0  0  0  0  0  0  0  0  0
   28.3314   -7.9157  -18.7375 C   0  0  0  0  0  0  0  0  0  0  0  0
   28.0767   -8.2276  -17.5478 O   0  0  0  0  0  0  0  0  0  0  0  0
   27.7253   -5.6266  -20.7214 O   0  0  0  0  0  0  0  0  0  0  0  0
   35.9408   -6.2440  -14.6536 O   0  0  0  0  0  0  0  0  0  0  0  0
   34.9295   -6.6538  -15.5172 C   0  0  0  0  0  0  0  0  0  0  0  0
   34.0691   -7.6792  -15.1872 C   0  0  0  0  0  0  0  0  0  0  0  0
   33.0631   -8.1019  -16.0225 C   0  0  0  0  0  0  0  0  0  0  0  0
   32.8722   -7.4959  -17.2606 C   0  0  0  0  0  0  0  0  0  0  0  0
   31.8265   -7.9117  -18.1963 C   0  0  0  0  0  0  0  0  0  0  0  0
   30.6176   -7.0553  -18.0736 C   0  0  2  0  0  0  0  0  0  0  0  0
   29.5977   -7.3837  -19.0558 N   0  0  0  0  0  0  0  0  0  0  0  0
   30.8439   -5.6072  -18.0769 C   0  0  0  0  0  0  0  0  0  0  0  0
   30.7569   -4.9661  -19.1633 O   0  0  0  0  0  0  0  0  0  0  0  0
   33.7392   -6.4636  -17.5917 C   0  0  0  0  0  0  0  0  0  0  0  0
   34.7411   -6.0529  -16.7437 C   0  0  0  0  0  0  0  0  0  0  0  0
   31.1550   -4.8340  -16.9698 O   0  0  0  0  0  0  0  0  0  0  0  0
  2  3  1  0
  2  1  1  6
  4  3  1  0
  5  2  1  0
  6  5  2  0
  7  5  1  0
  8  7  1  0
  8  9  1  1
 10  9  1  0
 11 10  2  0
 12 22  1  0
 12  8  1  0
 13 12  2  0
 14 10  1  0
 16 15  1  0
 17 16  2  0
 18 17  1  0
 19 18  2  0
 19 25  1  0
 21 20  1  6
 20 19  1  0
 21 22  1  0
 23 27  1  0
 23 21  1  0
 24 23  2  0
 25 26  2  0
 26 16  1  0
M  END
$$$$
