CDY.pdb
     RDKit          3D

 27 27  0  0  1  0  0  0  0  0999 V2000
   22.7763   -5.1570  -21.0670 N   0  0  0  0  0  0  0  0  0  0  0  0
   23.6701   -4.7374  -20.0370 C   0  0  1  0  0  0  0  0  0  0  0  0
   23.8778   -3.2400  -20.1388 C   0  0  0  0  0  0  0  0  0  0  0  0
   24.7463   -2.7674  -21.6442 S   0  0  0  0  0  0  0  0  0  0  0  0
   23.1398   -4.9997  -18.6606 C   0  0  0  0  0  0  0  0  0  0  0  0
   23.9115   -4.7863  -17.7110 O   0  0  0  0  0  0  0  0  0  0  0  0
   21.8349   -5.4665  -18.4101 N   0  0  0  0  0  0  0  0  0  0  0  0
   21.3113   -5.7829  -17.1081 C   0  0  1  0  0  0  0  0  0  0  0  0
   20.2335   -4.8168  -16.7535 C   0  0  0  0  0  0  0  0  0  0  0  0
   19.6317   -5.2342  -15.4647 C   0  0  0  0  0  0  0  0  0  0  0  0
   20.2716   -5.5738  -14.4441 O   0  0  0  0  0  0  0  0  0  0  0  0
   20.8692   -7.1940  -17.0965 C   0  0  0  0  0  0  0  0  0  0  0  0
   19.9457   -7.5025  -17.8899 O   0  0  0  0  0  0  0  0  0  0  0  0
   18.2288   -5.2653  -15.3348 O   0  0  0  0  0  0  0  0  0  0  0  0
   17.7148  -15.0328  -16.0438 O   0  0  0  0  0  0  0  0  0  0  0  0
   18.1387  -13.7074  -16.0314 C   0  0  0  0  0  0  0  0  0  0  0  0
   17.7778  -12.8242  -17.0267 C   0  0  0  0  0  0  0  0  0  0  0  0
   18.1834  -11.5112  -17.0368 C   0  0  0  0  0  0  0  0  0  0  0  0
   18.9919  -11.0143  -16.0190 C   0  0  0  0  0  0  0  0  0  0  0  0
   19.4645   -9.6296  -15.9838 C   0  0  0  0  0  0  0  0  0  0  0  0
   20.9357   -9.5538  -16.1831 C   0  0  2  0  0  0  0  0  0  0  0  0
   21.4200   -8.1855  -16.2591 N   0  0  0  0  0  0  0  0  0  0  0  0
   21.4799  -10.3226  -17.3061 C   0  0  0  0  0  0  0  0  0  0  0  0
   21.4816   -9.8157  -18.4646 O   0  0  0  0  0  0  0  0  0  0  0  0
   19.3545  -11.9045  -15.0175 C   0  0  0  0  0  0  0  0  0  0  0  0
   18.9396  -13.2158  -15.0227 C   0  0  0  0  0  0  0  0  0  0  0  0
   22.0159  -11.5982  -17.2297 O   0  0  0  0  0  0  0  0  0  0  0  0
  2  3  1  0
  2  1  1  6
  4  3  1  0
  5  2  1  0
  6  5  2  0
  7  5  1  0
  8  7  1  0
  8  9  1  6
 10  9  1  0
 11 10  2  0
 12 22  1  0
 12  8  1  0
 13 12  2  0
 14 10  1  0
 16 15  1  0
 17 16  2  0
 18 17  1  0
 19 18  2  0
 19 25  1  0
 21 20  1  6
 20 19  1  0
 21 22  1  0
 23 27  1  0
 23 21  1  0
 24 23  2  0
 25 26  2  0
 26 16  1  0
M  END
$$$$
