CDY.pdb
     RDKit          3D

 27 27  0  0  1  0  0  0  0  0999 V2000
   22.6141  -12.0539  -17.0783 N   0  0  0  0  0  0  0  0  0  0  0  0
   23.1171  -10.8660  -16.4685 C   0  0  1  0  0  0  0  0  0  0  0  0
   24.3805  -10.4358  -17.1857 C   0  0  0  0  0  0  0  0  0  0  0  0
   25.6637  -11.6987  -17.1347 S   0  0  0  0  0  0  0  0  0  0  0  0
   22.1639   -9.7138  -16.5597 C   0  0  0  0  0  0  0  0  0  0  0  0
   21.4725   -9.6367  -17.5887 O   0  0  0  0  0  0  0  0  0  0  0  0
   22.0262   -8.7416  -15.5501 N   0  0  0  0  0  0  0  0  0  0  0  0
   21.0838   -7.6551  -15.5789 C   0  0  1  0  0  0  0  0  0  0  0  0
   20.7456   -7.2485  -14.1857 C   0  0  0  0  0  0  0  0  0  0  0  0
   19.9353   -8.3233  -13.5645 C   0  0  0  0  0  0  0  0  0  0  0  0
   20.0111   -8.6872  -12.3694 O   0  0  0  0  0  0  0  0  0  0  0  0
   21.6400   -6.5566  -16.3978 C   0  0  0  0  0  0  0  0  0  0  0  0
   22.8303   -6.2282  -16.1680 O   0  0  0  0  0  0  0  0  0  0  0  0
   18.9912   -9.0173  -14.3474 O   0  0  0  0  0  0  0  0  0  0  0  0
   23.1247   -0.7843  -22.8960 O   0  0  0  0  0  0  0  0  0  0  0  0
   22.6584   -1.8317  -22.1074 C   0  0  0  0  0  0  0  0  0  0  0  0
   23.4846   -2.8629  -21.7137 C   0  0  0  0  0  0  0  0  0  0  0  0
   23.0480   -3.9079  -20.9353 C   0  0  0  0  0  0  0  0  0  0  0  0
   21.7253   -3.9642  -20.5065 C   0  0  0  0  0  0  0  0  0  0  0  0
   21.2012   -5.0578  -19.6872 C   0  0  0  0  0  0  0  0  0  0  0  0
   21.4734   -4.8320  -18.2433 C   0  0  2  0  0  0  0  0  0  0  0  0
   20.9173   -5.8767  -17.3994 N   0  0  0  0  0  0  0  0  0  0  0  0
   21.0919   -3.5225  -17.7070 C   0  0  0  0  0  0  0  0  0  0  0  0
   19.9742   -3.3874  -17.1312 O   0  0  0  0  0  0  0  0  0  0  0  0
   20.8945   -2.9253  -20.9035 C   0  0  0  0  0  0  0  0  0  0  0  0
   21.3479   -1.8868  -21.6829 C   0  0  0  0  0  0  0  0  0  0  0  0
   21.8581   -2.3693  -17.7654 O   0  0  0  0  0  0  0  0  0  0  0  0
  2  3  1  0
  2  1  1  6
  4  3  1  0
  5  2  1  0
  6  5  2  0
  7  5  1  0
  8  7  1  0
  8  9  1  1
 10  9  1  0
 11 10  2  0
 12 22  1  0
 12  8  1  0
 13 12  2  0
 14 10  1  0
 16 15  1  0
 17 16  2  0
 18 17  1  0
 19 18  2  0
 19 25  1  0
 21 20  1  6
 20 19  1  0
 21 22  1  0
 23 27  1  0
 23 21  1  0
 24 23  2  0
 25 26  2  0
 26 16  1  0
M  END
$$$$
