CDY.pdb
     RDKit          3D

 27 27  0  0  1  0  0  0  0  0999 V2000
   25.6419  -12.7494  -19.3461 N   0  0  0  0  0  0  0  0  0  0  0  0
   24.5266  -12.9295  -18.4745 C   0  0  1  0  0  0  0  0  0  0  0  0
   25.0308  -13.2265  -17.0770 C   0  0  0  0  0  0  0  0  0  0  0  0
   25.9396  -11.8436  -16.3658 S   0  0  0  0  0  0  0  0  0  0  0  0
   23.6675  -11.7070  -18.3649 C   0  0  0  0  0  0  0  0  0  0  0  0
   24.1188  -10.6575  -18.8524 O   0  0  0  0  0  0  0  0  0  0  0  0
   22.4021  -11.7034  -17.7467 N   0  0  0  0  0  0  0  0  0  0  0  0
   21.5292  -10.5626  -17.6686 C   0  0  1  0  0  0  0  0  0  0  0  0
   20.1636  -10.9448  -18.1266 C   0  0  0  0  0  0  0  0  0  0  0  0
   19.2819   -9.7576  -18.0224 C   0  0  0  0  0  0  0  0  0  0  0  0
   18.2579   -9.6779  -17.3073 O   0  0  0  0  0  0  0  0  0  0  0  0
   21.5629  -10.0235  -16.2920 C   0  0  0  0  0  0  0  0  0  0  0  0
   21.5376  -10.8617  -15.3570 O   0  0  0  0  0  0  0  0  0  0  0  0
   19.5849   -8.6037  -18.7724 O   0  0  0  0  0  0  0  0  0  0  0  0
   25.6701   -3.7594  -17.0099 O   0  0  0  0  0  0  0  0  0  0  0  0
   25.0407   -4.7856  -16.3118 C   0  0  0  0  0  0  0  0  0  0  0  0
   25.2760   -6.1113  -16.6084 C   0  0  0  0  0  0  0  0  0  0  0  0
   24.6670   -7.1422  -15.9339 C   0  0  0  0  0  0  0  0  0  0  0  0
   23.7701   -6.8788  -14.9030 C   0  0  0  0  0  0  0  0  0  0  0  0
   23.0827   -7.9348  -14.1584 C   0  0  0  0  0  0  0  0  0  0  0  0
   21.6861   -8.1134  -14.6356 C   0  0  2  0  0  0  0  0  0  0  0  0
   21.6206   -8.6486  -15.9854 N   0  0  0  0  0  0  0  0  0  0  0  0
   20.8106   -6.9421  -14.5366 C   0  0  0  0  0  0  0  0  0  0  0  0
   20.2842   -6.4682  -15.5841 O   0  0  0  0  0  0  0  0  0  0  0  0
   23.5341   -5.5437  -14.6053 C   0  0  0  0  0  0  0  0  0  0  0  0
   24.1523   -4.5239  -15.2906 C   0  0  0  0  0  0  0  0  0  0  0  0
   20.4843   -6.2718  -13.3685 O   0  0  0  0  0  0  0  0  0  0  0  0
  2  3  1  0
  2  1  1  6
  4  3  1  0
  5  2  1  0
  6  5  2  0
  7  5  1  0
  8  7  1  0
  8  9  1  1
 10  9  1  0
 11 10  2  0
 12 22  1  0
 12  8  1  0
 13 12  2  0
 14 10  1  0
 16 15  1  0
 17 16  2  0
 18 17  1  0
 19 18  2  0
 19 25  1  0
 21 20  1  6
 20 19  1  0
 21 22  1  0
 23 27  1  0
 23 21  1  0
 24 23  2  0
 25 26  2  0
 26 16  1  0
M  END
$$$$
