CDY.pdb
     RDKit          3D

 27 27  0  0  1  0  0  0  0  0999 V2000
   18.6942  -15.3153  -17.1265 N   0  0  0  0  0  0  0  0  0  0  0  0
   18.4755  -14.1197  -17.8739 C   0  0  1  0  0  0  0  0  0  0  0  0
   17.0582  -13.6386  -17.6386 C   0  0  0  0  0  0  0  0  0  0  0  0
   15.8760  -14.4093  -18.7578 S   0  0  0  0  0  0  0  0  0  0  0  0
   19.3787  -12.9985  -17.4597 C   0  0  0  0  0  0  0  0  0  0  0  0
   19.7193  -12.9631  -16.2658 O   0  0  0  0  0  0  0  0  0  0  0  0
   19.8431  -12.0101  -18.3491 N   0  0  0  0  0  0  0  0  0  0  0  0
   20.7216  -10.9290  -17.9899 C   0  0  1  0  0  0  0  0  0  0  0  0
   21.7980  -10.7978  -19.0121 C   0  0  0  0  0  0  0  0  0  0  0  0
   22.8924  -11.7365  -18.6673 C   0  0  0  0  0  0  0  0  0  0  0  0
   22.9396  -12.4450  -17.6367 O   0  0  0  0  0  0  0  0  0  0  0  0
   19.9222   -9.6981  -17.8104 C   0  0  0  0  0  0  0  0  0  0  0  0
   18.8883   -9.5888  -18.5151 O   0  0  0  0  0  0  0  0  0  0  0  0
   23.9877  -11.8728  -19.5434 O   0  0  0  0  0  0  0  0  0  0  0  0
   14.5406   -3.3682  -16.7731 O   0  0  0  0  0  0  0  0  0  0  0  0
   15.3888   -4.4686  -16.6940 C   0  0  0  0  0  0  0  0  0  0  0  0
   16.7407   -4.3579  -16.9408 C   0  0  0  0  0  0  0  0  0  0  0  0
   17.5984   -5.4292  -16.8692 C   0  0  0  0  0  0  0  0  0  0  0  0
   17.1221   -6.6939  -16.5372 C   0  0  0  0  0  0  0  0  0  0  0  0
   17.9856   -7.8729  -16.4581 C   0  0  0  0  0  0  0  0  0  0  0  0
   19.4157   -7.5106  -16.6415 C   0  0  2  0  0  0  0  0  0  0  0  0
   20.2555   -8.6665  -16.9090 N   0  0  0  0  0  0  0  0  0  0  0  0
   20.0241   -6.7065  -15.5778 C   0  0  0  0  0  0  0  0  0  0  0  0
   20.8974   -7.2272  -14.8260 O   0  0  0  0  0  0  0  0  0  0  0  0
   15.7608   -6.8040  -16.2889 C   0  0  0  0  0  0  0  0  0  0  0  0
   14.9162   -5.7212  -16.3650 C   0  0  0  0  0  0  0  0  0  0  0  0
   19.7325   -5.3810  -15.2976 O   0  0  0  0  0  0  0  0  0  0  0  0
  2  3  1  0
  2  1  1  1
  4  3  1  0
  5  2  1  0
  6  5  2  0
  7  5  1  0
  8  7  1  0
  8  9  1  6
 10  9  1  0
 11 10  2  0
 12 22  1  0
 12  8  1  0
 13 12  2  0
 14 10  1  0
 16 15  1  0
 17 16  2  0
 18 17  1  0
 19 18  2  0
 19 25  1  0
 21 20  1  1
 20 19  1  0
 21 22  1  0
 23 27  1  0
 23 21  1  0
 24 23  2  0
 25 26  2  0
 26 16  1  0
M  END
$$$$
