CDY.pdb
     RDKit          3D

 27 27  0  0  1  0  0  0  0  0999 V2000
   18.6253  -15.2849  -17.5137 N   0  0  0  0  0  0  0  0  0  0  0  0
   18.8782  -14.4510  -16.3837 C   0  0  1  0  0  0  0  0  0  0  0  0
   20.3724  -14.3794  -16.1435 C   0  0  0  0  0  0  0  0  0  0  0  0
   21.0105  -15.8581  -15.3369 S   0  0  0  0  0  0  0  0  0  0  0  0
   18.4121  -13.0411  -16.5822 C   0  0  0  0  0  0  0  0  0  0  0  0
   18.7452  -12.4830  -17.6406 O   0  0  0  0  0  0  0  0  0  0  0  0
   17.6319  -12.3441  -15.6394 N   0  0  0  0  0  0  0  0  0  0  0  0
   17.1789  -10.9870  -15.7903 C   0  0  1  0  0  0  0  0  0  0  0  0
   15.9647  -10.7686  -14.9545 C   0  0  0  0  0  0  0  0  0  0  0  0
   14.8709  -11.6198  -15.4806 C   0  0  0  0  0  0  0  0  0  0  0  0
   14.2441  -12.4805  -14.8227 O   0  0  0  0  0  0  0  0  0  0  0  0
   18.2925  -10.0689  -15.4685 C   0  0  0  0  0  0  0  0  0  0  0  0
   18.9141  -10.2887  -14.3995 O   0  0  0  0  0  0  0  0  0  0  0  0
   14.4729  -11.4811  -16.8253 O   0  0  0  0  0  0  0  0  0  0  0  0
   24.2176   -3.5230  -16.0412 O   0  0  0  0  0  0  0  0  0  0  0  0
   23.2936   -4.5198  -16.3399 C   0  0  0  0  0  0  0  0  0  0  0  0
   21.9841   -4.2211  -16.6511 C   0  0  0  0  0  0  0  0  0  0  0  0
   21.0533   -5.1871  -16.9495 C   0  0  0  0  0  0  0  0  0  0  0  0
   21.4073   -6.5329  -16.9482 C   0  0  0  0  0  0  0  0  0  0  0  0
   20.4566   -7.6051  -17.2455 C   0  0  0  0  0  0  0  0  0  0  0  0
   19.8158   -8.1202  -16.0069 C   0  0  2  0  0  0  0  0  0  0  0  0
   18.6809   -8.9855  -16.2828 N   0  0  0  0  0  0  0  0  0  0  0  0
   19.4289   -7.1178  -15.0101 C   0  0  0  0  0  0  0  0  0  0  0  0
   18.2452   -6.6732  -15.0015 O   0  0  0  0  0  0  0  0  0  0  0  0
   22.7261   -6.8322  -16.6347 C   0  0  0  0  0  0  0  0  0  0  0  0
   23.6451   -5.8528  -16.3384 C   0  0  0  0  0  0  0  0  0  0  0  0
   20.2566   -6.5843  -14.0351 O   0  0  0  0  0  0  0  0  0  0  0  0
  2  3  1  0
  2  1  1  6
  4  3  1  0
  5  2  1  0
  6  5  2  0
  7  5  1  0
  8  7  1  0
  8  9  1  1
 10  9  1  0
 11 10  2  0
 12 22  1  0
 12  8  1  0
 13 12  2  0
 14 10  1  0
 16 15  1  0
 17 16  2  0
 18 17  1  0
 19 18  2  0
 19 25  1  0
 21 20  1  6
 20 19  1  0
 21 22  1  0
 23 27  1  0
 23 21  1  0
 24 23  2  0
 25 26  2  0
 26 16  1  0
M  END
$$$$
