CDY.pdb
     RDKit          3D

 27 27  0  0  1  0  0  0  0  0999 V2000
   25.1104  -15.8887  -17.1261 N   0  0  0  0  0  0  0  0  0  0  0  0
   24.6874  -15.0200  -16.0761 C   0  0  1  0  0  0  0  0  0  0  0  0
   25.8935  -14.2947  -15.5149 C   0  0  0  0  0  0  0  0  0  0  0  0
   27.1040  -15.4225  -14.8030 S   0  0  0  0  0  0  0  0  0  0  0  0
   23.7344  -13.9619  -16.5416 C   0  0  0  0  0  0  0  0  0  0  0  0
   23.8896  -13.5352  -17.6977 O   0  0  0  0  0  0  0  0  0  0  0  0
   22.6977  -13.4472  -15.7393 N   0  0  0  0  0  0  0  0  0  0  0  0
   21.7010  -12.5108  -16.1859 C   0  0  1  0  0  0  0  0  0  0  0  0
   20.3703  -12.8959  -15.6366 C   0  0  0  0  0  0  0  0  0  0  0  0
   19.9709  -14.1925  -16.2340 C   0  0  0  0  0  0  0  0  0  0  0  0
   19.7190  -14.3837  -17.4450 O   0  0  0  0  0  0  0  0  0  0  0  0
   22.1228  -11.1436  -15.8124 C   0  0  0  0  0  0  0  0  0  0  0  0
   22.6157  -10.9984  -14.6664 O   0  0  0  0  0  0  0  0  0  0  0  0
   19.8535  -15.3275  -15.4072 O   0  0  0  0  0  0  0  0  0  0  0  0
   24.0235   -2.5035  -16.1248 O   0  0  0  0  0  0  0  0  0  0  0  0
   23.7113   -3.8162  -16.4649 C   0  0  0  0  0  0  0  0  0  0  0  0
   24.6930   -4.7624  -16.6699 C   0  0  0  0  0  0  0  0  0  0  0  0
   24.4102   -6.0644  -17.0064 C   0  0  0  0  0  0  0  0  0  0  0  0
   23.0919   -6.4845  -17.1559 C   0  0  0  0  0  0  0  0  0  0  0  0
   22.7312   -7.8540  -17.5250 C   0  0  0  0  0  0  0  0  0  0  0  0
   22.4711   -8.6888  -16.3227 C   0  0  2  0  0  0  0  0  0  0  0  0
   22.0017  -10.0227  -16.6590 N   0  0  0  0  0  0  0  0  0  0  0  0
   21.5895   -8.1077  -15.3062 C   0  0  0  0  0  0  0  0  0  0  0  0
   20.3370   -8.2380  -15.4207 O   0  0  0  0  0  0  0  0  0  0  0  0
   22.1046   -5.5310  -16.9493 C   0  0  0  0  0  0  0  0  0  0  0  0
   22.4051   -4.2317  -16.6129 C   0  0  0  0  0  0  0  0  0  0  0  0
   21.9999   -7.4023  -14.1863 O   0  0  0  0  0  0  0  0  0  0  0  0
  2  3  1  0
  2  1  1  6
  4  3  1  0
  5  2  1  0
  6  5  2  0
  7  5  1  0
  8  7  1  0
  8  9  1  1
 10  9  1  0
 11 10  2  0
 12 22  1  0
 12  8  1  0
 13 12  2  0
 14 10  1  0
 16 15  1  0
 17 16  2  0
 18 17  1  0
 19 18  2  0
 19 25  1  0
 21 20  1  6
 20 19  1  0
 21 22  1  0
 23 27  1  0
 23 21  1  0
 24 23  2  0
 25 26  2  0
 26 16  1  0
M  END
$$$$
