CDY.pdb
     RDKit          3D

 27 27  0  0  1  0  0  0  0  0999 V2000
   26.9866  -18.5927  -16.2356 N   0  0  0  0  0  0  0  0  0  0  0  0
   25.8584  -17.9049  -15.6973 C   0  0  1  0  0  0  0  0  0  0  0  0
   25.6454  -16.6189  -16.4696 C   0  0  0  0  0  0  0  0  0  0  0  0
   26.5774  -15.2405  -15.7799 S   0  0  0  0  0  0  0  0  0  0  0  0
   24.5861  -18.6869  -15.8160 C   0  0  0  0  0  0  0  0  0  0  0  0
   24.6846  -19.8662  -16.1932 O   0  0  0  0  0  0  0  0  0  0  0  0
   23.3174  -18.1497  -15.5239 N   0  0  0  0  0  0  0  0  0  0  0  0
   22.0824  -18.8858  -15.5731 C   0  0  1  0  0  0  0  0  0  0  0  0
   21.9239  -19.6820  -14.3234 C   0  0  0  0  0  0  0  0  0  0  0  0
   20.6906  -20.4966  -14.4367 C   0  0  0  0  0  0  0  0  0  0  0  0
   20.4850  -21.3817  -15.2974 O   0  0  0  0  0  0  0  0  0  0  0  0
   20.9697  -17.9437  -15.8202 C   0  0  0  0  0  0  0  0  0  0  0  0
   21.0591  -16.8116  -15.2836 O   0  0  0  0  0  0  0  0  0  0  0  0
   19.6393  -20.2901  -13.5212 O   0  0  0  0  0  0  0  0  0  0  0  0
   16.4188  -21.6577  -20.9188 O   0  0  0  0  0  0  0  0  0  0  0  0
   16.9703  -20.5368  -20.3056 C   0  0  0  0  0  0  0  0  0  0  0  0
   18.3338  -20.3857  -20.1685 C   0  0  0  0  0  0  0  0  0  0  0  0
   18.9023  -19.2887  -19.5671 C   0  0  0  0  0  0  0  0  0  0  0  0
   18.1034  -18.2668  -19.0629 C   0  0  0  0  0  0  0  0  0  0  0  0
   18.6517  -17.0819  -18.4017 C   0  0  0  0  0  0  0  0  0  0  0  0
   18.7928  -17.2949  -16.9373 C   0  0  2  0  0  0  0  0  0  0  0  0
   19.8412  -18.2467  -16.6091 N   0  0  0  0  0  0  0  0  0  0  0  0
   17.5705  -17.6521  -16.2117 C   0  0  0  0  0  0  0  0  0  0  0  0
   17.5130  -18.7540  -15.5939 O   0  0  0  0  0  0  0  0  0  0  0  0
   16.7307  -18.4202  -19.2015 C   0  0  0  0  0  0  0  0  0  0  0  0
   16.1781  -19.5249  -19.8064 C   0  0  0  0  0  0  0  0  0  0  0  0
   16.4242  -16.8782  -16.1265 O   0  0  0  0  0  0  0  0  0  0  0  0
  2  3  1  0
  2  1  1  6
  4  3  1  0
  5  2  1  0
  6  5  2  0
  7  5  1  0
  8  7  1  0
  8  9  1  1
 10  9  1  0
 11 10  2  0
 12 22  1  0
 12  8  1  0
 13 12  2  0
 14 10  1  0
 16 15  1  0
 17 16  2  0
 18 17  1  0
 19 18  2  0
 19 25  1  0
 21 20  1  6
 20 19  1  0
 21 22  1  0
 23 27  1  0
 23 21  1  0
 24 23  2  0
 25 26  2  0
 26 16  1  0
M  END
$$$$
