CDY.pdb
     RDKit          3D

 27 27  0  0  1  0  0  0  0  0999 V2000
   28.4522  -20.7468  -19.4868 N   0  0  0  0  0  0  0  0  0  0  0  0
   28.5730  -19.4399  -18.9269 C   0  0  1  0  0  0  0  0  0  0  0  0
   29.0581  -18.4836  -19.9973 C   0  0  0  0  0  0  0  0  0  0  0  0
   30.6792  -18.9353  -20.6390 S   0  0  0  0  0  0  0  0  0  0  0  0
   27.2692  -18.8946  -18.4297 C   0  0  0  0  0  0  0  0  0  0  0  0
   27.2816  -17.7412  -17.9690 O   0  0  0  0  0  0  0  0  0  0  0  0
   26.0631  -19.6210  -18.4642 N   0  0  0  0  0  0  0  0  0  0  0  0
   24.8236  -19.1835  -17.8797 C   0  0  1  0  0  0  0  0  0  0  0  0
   23.7177  -19.3553  -18.8636 C   0  0  0  0  0  0  0  0  0  0  0  0
   23.6105  -18.1180  -19.6731 C   0  0  0  0  0  0  0  0  0  0  0  0
   23.6898  -18.0610  -20.9209 O   0  0  0  0  0  0  0  0  0  0  0  0
   24.6059  -19.9114  -16.6110 C   0  0  0  0  0  0  0  0  0  0  0  0
   24.6446  -21.1656  -16.6662 O   0  0  0  0  0  0  0  0  0  0  0  0
   23.4023  -16.8840  -19.0252 O   0  0  0  0  0  0  0  0  0  0  0  0
   23.4945  -21.9111   -8.0751 O   0  0  0  0  0  0  0  0  0  0  0  0
   23.7719  -21.2513   -9.2685 C   0  0  0  0  0  0  0  0  0  0  0  0
   25.0329  -21.2659   -9.8258 C   0  0  0  0  0  0  0  0  0  0  0  0
   25.3317  -20.6224  -11.0028 C   0  0  0  0  0  0  0  0  0  0  0  0
   24.3492  -19.9165  -11.6905 C   0  0  0  0  0  0  0  0  0  0  0  0
   24.6117  -19.2022  -12.9406 C   0  0  0  0  0  0  0  0  0  0  0  0
   24.1664  -19.9908  -14.1194 C   0  0  2  0  0  0  0  0  0  0  0  0
   24.3630  -19.2820  -15.3730 N   0  0  0  0  0  0  0  0  0  0  0  0
   22.7995  -20.5173  -14.0704 C   0  0  0  0  0  0  0  0  0  0  0  0
   21.8368  -19.7843  -14.4378 O   0  0  0  0  0  0  0  0  0  0  0  0
   23.0801  -19.9027  -11.1284 C   0  0  0  0  0  0  0  0  0  0  0  0
   22.7981  -20.5522   -9.9493 C   0  0  0  0  0  0  0  0  0  0  0  0
   22.4351  -21.7858  -13.6478 O   0  0  0  0  0  0  0  0  0  0  0  0
  2  3  1  0
  2  1  1  6
  4  3  1  0
  5  2  1  0
  6  5  2  0
  7  5  1  0
  8  7  1  0
  8  9  1  6
 10  9  1  0
 11 10  2  0
 12 22  1  0
 12  8  1  0
 13 12  2  0
 14 10  1  0
 16 15  1  0
 17 16  2  0
 18 17  1  0
 19 18  2  0
 19 25  1  0
 21 20  1  1
 20 19  1  0
 21 22  1  0
 23 27  1  0
 23 21  1  0
 24 23  2  0
 25 26  2  0
 26 16  1  0
M  END
$$$$
