LVH.pdb
     RDKit          3D

 26 26  0  0  1  0  0  0  0  0999 V2000
    7.4952  -12.1682   18.9312 C   0  0  0  0  0  0  0  0  0  0  0  0
    7.4723  -13.4790   19.6452 C   0  0  1  0  0  0  0  0  0  0  0  0
    8.0444  -14.5392   18.7035 C   0  0  0  0  0  0  0  0  0  0  0  0
    8.3504  -13.4966   20.8780 C   0  0  0  0  0  0  0  0  0  0  0  0
    8.1700  -14.8061   21.6507 C   0  0  2  0  0  0  0  0  0  0  0  0
    6.7612  -15.1271   21.7093 N   0  0  0  0  0  0  0  0  0  0  0  0
    8.6511  -14.5505   23.0305 C   0  0  0  0  0  0  0  0  0  0  0  0
    9.8580  -14.2518   23.1992 O   0  0  0  0  0  0  0  0  0  0  0  0
    6.8928  -12.3247   25.5192 C   0  0  0  0  0  0  0  0  0  0  0  0
    7.3890  -13.5155   26.2572 C   0  0  2  0  0  0  0  0  0  0  0  0
    7.9252  -13.1043   27.6141 C   0  0  0  0  0  0  0  0  0  0  0  0
    8.3982  -14.3139   25.4739 C   0  0  2  0  0  0  0  0  0  0  0  0
    7.8050  -14.6298   24.1617 N   0  0  0  0  0  0  0  0  0  0  0  0
    8.8261  -15.5607   26.1401 C   0  0  0  0  0  0  0  0  0  0  0  0
    7.9266  -16.4429   26.4134 O   0  0  0  0  0  0  0  0  0  0  0  0
   10.1272  -15.9182   26.5218 N   0  0  0  0  0  0  0  0  0  0  0  0
   10.4511  -17.2199   27.1149 C   0  0  1  0  0  0  0  0  0  0  0  0
   11.7635  -17.7416   26.5806 C   0  0  0  0  0  0  0  0  0  0  0  0
   11.8080  -17.7995   25.1050 C   0  0  0  0  0  0  0  0  0  0  0  0
   10.8073  -18.1403   24.2364 C   0  0  0  0  0  0  0  0  0  0  0  0
   11.2692  -18.0636   22.9538 N   0  0  0  0  0  0  0  0  0  0  0  0
   12.5334  -17.6803   23.0637 C   0  0  0  0  0  0  0  0  0  0  0  0
   12.8804  -17.5150   24.3503 N   0  0  0  0  0  0  0  0  0  0  0  0
   10.3931  -17.1652   28.5807 C   0  0  0  0  0  0  0  0  0  0  0  0
   10.2796  -18.2939   29.3732 O   0  0  0  0  0  0  0  0  0  0  0  0
   10.4477  -16.0504   29.1541 O   0  0  0  0  0  0  0  0  0  0  0  0
  2  1  1  6
  3  2  1  0
  4  5  1  0
  4  2  1  0
  5  6  1  1
  7 13  1  0
  7  5  1  0
  8  7  2  0
 10  9  1  6
 10 12  1  0
 11 10  1  0
 12 14  1  0
 12 13  1  6
 14 16  1  0
 15 14  2  0
 16 17  1  0
 17 24  1  0
 17 18  1  1
 19 18  1  0
 20 19  2  0
 21 22  1  0
 21 20  1  0
 22 23  2  0
 23 19  1  0
 24 26  2  0
 24 25  1  0
M  END
$$$$
