LVH.pdb
     RDKit          3D

 26 26  0  0  1  0  0  0  0  0999 V2000
    7.1135  -11.8962   27.5533 C   0  0  0  0  0  0  0  0  0  0  0  0
    6.3725  -13.0346   26.9341 C   0  0  1  0  0  0  0  0  0  0  0  0
    5.3905  -12.4587   25.9133 C   0  0  0  0  0  0  0  0  0  0  0  0
    7.2721  -13.9772   26.1639 C   0  0  0  0  0  0  0  0  0  0  0  0
    6.4428  -15.0257   25.4174 C   0  0  2  0  0  0  0  0  0  0  0  0
    6.2067  -16.1504   26.2951 N   0  0  0  0  0  0  0  0  0  0  0  0
    7.2733  -15.4859   24.2776 C   0  0  0  0  0  0  0  0  0  0  0  0
    7.7531  -16.6447   24.3143 O   0  0  0  0  0  0  0  0  0  0  0  0
    6.7968  -14.0167   20.4466 C   0  0  0  0  0  0  0  0  0  0  0  0
    8.1879  -14.3454   20.8535 C   0  0  2  0  0  0  0  0  0  0  0  0
    8.9740  -14.8582   19.6633 C   0  0  0  0  0  0  0  0  0  0  0  0
    8.2498  -15.2980   22.0191 C   0  0  2  0  0  0  0  0  0  0  0  0
    7.5453  -14.6719   23.1528 N   0  0  0  0  0  0  0  0  0  0  0  0
    9.6222  -15.6622   22.4254 C   0  0  0  0  0  0  0  0  0  0  0  0
   10.3205  -14.7846   23.0612 O   0  0  0  0  0  0  0  0  0  0  0  0
   10.2806  -16.8802   22.2026 N   0  0  0  0  0  0  0  0  0  0  0  0
   11.6483  -17.1392   22.6645 C   0  0  1  0  0  0  0  0  0  0  0  0
   11.8103  -18.5817   23.0804 C   0  0  0  0  0  0  0  0  0  0  0  0
   10.9429  -18.9601   24.2149 C   0  0  0  0  0  0  0  0  0  0  0  0
   10.9054  -18.4235   25.4730 C   0  0  0  0  0  0  0  0  0  0  0  0
    9.9561  -19.0649   26.2156 N   0  0  0  0  0  0  0  0  0  0  0  0
    9.4365  -19.9738   25.4024 C   0  0  0  0  0  0  0  0  0  0  0  0
   10.0154  -19.9294   24.1916 N   0  0  0  0  0  0  0  0  0  0  0  0
   12.6366  -16.6987   21.6724 C   0  0  0  0  0  0  0  0  0  0  0  0
   13.8990  -16.2472   22.0151 O   0  0  0  0  0  0  0  0  0  0  0  0
   12.3358  -16.7277   20.4545 O   0  0  0  0  0  0  0  0  0  0  0  0
  2  1  1  6
  3  2  1  0
  4  5  1  0
  4  2  1  0
  5  6  1  1
  7 13  1  0
  7  5  1  0
  8  7  2  0
 10  9  1  6
 10 12  1  0
 11 10  1  0
 12 14  1  0
 12 13  1  1
 14 16  1  0
 15 14  2  0
 16 17  1  0
 17 24  1  0
 17 18  1  6
 19 18  1  0
 20 19  2  0
 21 22  1  0
 21 20  1  0
 22 23  2  0
 23 19  1  0
 24 26  2  0
 24 25  1  0
M  END
$$$$
