LVH.pdb
     RDKit          3D

 26 26  0  0  1  0  0  0  0  0999 V2000
    7.0207  -11.4133   27.6779 C   0  0  0  0  0  0  0  0  0  0  0  0
    6.2732  -12.4491   26.9054 C   0  0  1  0  0  0  0  0  0  0  0  0
    5.5739  -11.7531   25.7373 C   0  0  0  0  0  0  0  0  0  0  0  0
    7.1775  -13.4947   26.2888 C   0  0  0  0  0  0  0  0  0  0  0  0
    6.3850  -14.4077   25.3493 C   0  0  2  0  0  0  0  0  0  0  0  0
    5.5220  -15.2586   26.1381 N   0  0  0  0  0  0  0  0  0  0  0  0
    7.3792  -15.2620   24.6548 C   0  0  0  0  0  0  0  0  0  0  0  0
    7.6647  -16.3772   25.1540 O   0  0  0  0  0  0  0  0  0  0  0  0
    7.8471  -15.3838   20.6575 C   0  0  0  0  0  0  0  0  0  0  0  0
    9.1339  -15.4473   21.3985 C   0  0  2  0  0  0  0  0  0  0  0  0
   10.1032  -16.3694   20.6859 C   0  0  0  0  0  0  0  0  0  0  0  0
    8.9604  -15.8264   22.8462 C   0  0  2  0  0  0  0  0  0  0  0  0
    8.0171  -14.8704   23.4542 N   0  0  0  0  0  0  0  0  0  0  0  0
   10.2194  -15.8431   23.6181 C   0  0  0  0  0  0  0  0  0  0  0  0
   10.5395  -14.7847   24.2810 O   0  0  0  0  0  0  0  0  0  0  0  0
   11.1370  -16.8980   23.7267 N   0  0  0  0  0  0  0  0  0  0  0  0
   11.8385  -17.2145   24.9752 C   0  0  1  0  0  0  0  0  0  0  0  0
   10.8573  -17.4297   26.1026 C   0  0  0  0  0  0  0  0  0  0  0  0
   10.6892  -16.2396   26.9616 C   0  0  0  0  0  0  0  0  0  0  0  0
   11.1193  -14.9603   26.7365 C   0  0  0  0  0  0  0  0  0  0  0  0
   10.7546  -14.1643   27.7840 N   0  0  0  0  0  0  0  0  0  0  0  0
   10.1138  -14.9672   28.6220 C   0  0  0  0  0  0  0  0  0  0  0  0
   10.0620  -16.2223   28.1476 N   0  0  0  0  0  0  0  0  0  0  0  0
   12.7756  -18.3293   24.7903 C   0  0  0  0  0  0  0  0  0  0  0  0
   14.0070  -18.3910   25.4187 O   0  0  0  0  0  0  0  0  0  0  0  0
   12.4580  -19.2760   24.0304 O   0  0  0  0  0  0  0  0  0  0  0  0
  2  1  1  6
  3  2  1  0
  4  5  1  0
  4  2  1  0
  5  6  1  1
  7 13  1  0
  7  5  1  0
  8  7  2  0
 10  9  1  6
 10 12  1  0
 11 10  1  0
 12 14  1  0
 12 13  1  1
 14 16  1  0
 15 14  2  0
 16 17  1  0
 17 24  1  0
 17 18  1  1
 19 18  1  0
 20 19  2  0
 21 22  1  0
 21 20  1  0
 22 23  2  0
 23 19  1  0
 24 26  2  0
 24 25  1  0
M  END
$$$$
