LVH.pdb
     RDKit          3D

 26 26  0  0  1  0  0  0  0  0999 V2000
    7.5522  -11.8303   27.9968 C   0  0  0  0  0  0  0  0  0  0  0  0
    6.6648  -12.7895   27.2751 C   0  0  1  0  0  0  0  0  0  0  0  0
    5.8274  -11.9947   26.2726 C   0  0  0  0  0  0  0  0  0  0  0  0
    7.4329  -13.8100   26.4629 C   0  0  0  0  0  0  0  0  0  0  0  0
    6.4811  -14.6327   25.5903 C   0  0  2  0  0  0  0  0  0  0  0  0
    5.7727  -15.5756   26.4270 N   0  0  0  0  0  0  0  0  0  0  0  0
    7.3310  -15.3931   24.6416 C   0  0  0  0  0  0  0  0  0  0  0  0
    7.6685  -16.5632   24.9438 O   0  0  0  0  0  0  0  0  0  0  0  0
    7.1633  -14.8697   20.6266 C   0  0  0  0  0  0  0  0  0  0  0  0
    8.5330  -15.1300   21.1412 C   0  0  2  0  0  0  0  0  0  0  0  0
    9.3150  -15.9666   20.1482 C   0  0  0  0  0  0  0  0  0  0  0  0
    8.5371  -15.7434   22.5173 C   0  0  2  0  0  0  0  0  0  0  0  0
    7.7752  -14.8529   23.4117 N   0  0  0  0  0  0  0  0  0  0  0  0
    9.8877  -15.9684   23.0710 C   0  0  0  0  0  0  0  0  0  0  0  0
   10.5687  -14.9406   23.4478 O   0  0  0  0  0  0  0  0  0  0  0  0
   10.5416  -17.1964   23.2466 N   0  0  0  0  0  0  0  0  0  0  0  0
   11.8832  -17.3052   23.8292 C   0  0  1  0  0  0  0  0  0  0  0  0
   11.9990  -18.5456   24.6824 C   0  0  0  0  0  0  0  0  0  0  0  0
   11.1246  -18.5154   25.8729 C   0  0  0  0  0  0  0  0  0  0  0  0
   10.6261  -17.4266   26.5349 C   0  0  0  0  0  0  0  0  0  0  0  0
    9.8589  -17.8419   27.5852 N   0  0  0  0  0  0  0  0  0  0  0  0
    9.9037  -19.1661   27.5441 C   0  0  0  0  0  0  0  0  0  0  0  0
   10.6603  -19.5947   26.5209 N   0  0  0  0  0  0  0  0  0  0  0  0
   12.9210  -17.2032   22.7959 C   0  0  0  0  0  0  0  0  0  0  0  0
   12.6383  -17.2013   21.4412 O   0  0  0  0  0  0  0  0  0  0  0  0
   14.1234  -17.1132   23.1431 O   0  0  0  0  0  0  0  0  0  0  0  0
  2  1  1  6
  3  2  1  0
  4  5  1  0
  4  2  1  0
  5  6  1  1
  7 13  1  0
  7  5  1  0
  8  7  2  0
 10  9  1  6
 10 12  1  0
 11 10  1  0
 12 14  1  0
 12 13  1  1
 14 16  1  0
 15 14  2  0
 16 17  1  0
 17 24  1  0
 17 18  1  6
 19 18  1  0
 20 19  2  0
 21 22  1  0
 21 20  1  0
 22 23  2  0
 23 19  1  0
 24 26  2  0
 24 25  1  0
M  END
$$$$
