LVH.pdb
     RDKit          3D

 26 26  0  0  1  0  0  0  0  0999 V2000
    6.3502  -19.2438   21.3262 C   0  0  0  0  0  0  0  0  0  0  0  0
    6.3714  -17.7638   21.1325 C   0  0  1  0  0  0  0  0  0  0  0  0
    4.9292  -17.2594   21.1934 C   0  0  0  0  0  0  0  0  0  0  0  0
    7.1167  -17.0340   22.2293 C   0  0  0  0  0  0  0  0  0  0  0  0
    6.9714  -15.5187   22.0650 C   0  0  2  0  0  0  0  0  0  0  0  0
    7.6668  -15.1070   20.8658 N   0  0  0  0  0  0  0  0  0  0  0  0
    7.6454  -14.9019   23.2337 C   0  0  0  0  0  0  0  0  0  0  0  0
    8.8975  -14.8210   23.2303 O   0  0  0  0  0  0  0  0  0  0  0  0
    6.2591  -11.7964   25.4752 C   0  0  0  0  0  0  0  0  0  0  0  0
    6.8078  -12.9349   26.2572 C   0  0  2  0  0  0  0  0  0  0  0  0
    7.4800  -12.4284   27.5178 C   0  0  0  0  0  0  0  0  0  0  0  0
    7.7237  -13.8162   25.4484 C   0  0  2  0  0  0  0  0  0  0  0  0
    6.9341  -14.4021   24.3499 N   0  0  0  0  0  0  0  0  0  0  0  0
    8.3659  -14.8928   26.2293 C   0  0  0  0  0  0  0  0  0  0  0  0
    7.6209  -15.8433   26.6806 O   0  0  0  0  0  0  0  0  0  0  0  0
    9.7256  -15.0170   26.5492 N   0  0  0  0  0  0  0  0  0  0  0  0
   10.2719  -16.1808   27.2551 C   0  0  1  0  0  0  0  0  0  0  0  0
   11.4175  -16.7887   26.4817 C   0  0  0  0  0  0  0  0  0  0  0  0
   12.0526  -17.9245   27.1811 C   0  0  0  0  0  0  0  0  0  0  0  0
   11.5214  -18.7315   28.1501 C   0  0  0  0  0  0  0  0  0  0  0  0
   12.4463  -19.6620   28.5279 N   0  0  0  0  0  0  0  0  0  0  0  0
   13.5161  -19.4069   27.7878 C   0  0  0  0  0  0  0  0  0  0  0  0
   13.3024  -18.3643   26.9689 N   0  0  0  0  0  0  0  0  0  0  0  0
   10.6109  -15.8487   28.6443 C   0  0  0  0  0  0  0  0  0  0  0  0
   10.7388  -14.5478   29.0986 O   0  0  0  0  0  0  0  0  0  0  0  0
   10.7959  -16.7772   29.4678 O   0  0  0  0  0  0  0  0  0  0  0  0
  2  1  1  1
  3  2  1  0
  4  5  1  0
  4  2  1  0
  5  6  1  6
  7 13  1  0
  7  5  1  0
  8  7  2  0
 10  9  1  6
 10 12  1  0
 11 10  1  0
 12 14  1  0
 12 13  1  6
 14 16  1  0
 15 14  2  0
 16 17  1  0
 17 24  1  0
 17 18  1  6
 19 18  1  0
 20 19  2  0
 21 22  1  0
 21 20  1  0
 22 23  2  0
 23 19  1  0
 24 26  2  0
 24 25  1  0
M  END
$$$$
