LVH.pdb
     RDKit          3D

 26 26  0  0  1  0  0  0  0  0999 V2000
    6.7192  -19.2639   21.1672 C   0  0  0  0  0  0  0  0  0  0  0  0
    6.4299  -17.7997   21.1370 C   0  0  1  0  0  0  0  0  0  0  0  0
    4.9229  -17.6129   21.3157 C   0  0  0  0  0  0  0  0  0  0  0  0
    7.0832  -17.0438   22.2741 C   0  0  0  0  0  0  0  0  0  0  0  0
    6.7183  -15.5580   22.2146 C   0  0  2  0  0  0  0  0  0  0  0  0
    7.1155  -15.0274   20.9294 N   0  0  0  0  0  0  0  0  0  0  0  0
    7.5181  -14.8856   23.2676 C   0  0  0  0  0  0  0  0  0  0  0  0
    8.6863  -14.5200   22.9920 O   0  0  0  0  0  0  0  0  0  0  0  0
    6.0252  -12.2586   25.9903 C   0  0  0  0  0  0  0  0  0  0  0  0
    6.9797  -13.2564   26.5400 C   0  0  2  0  0  0  0  0  0  0  0  0
    7.7817  -12.6453   27.6717 C   0  0  0  0  0  0  0  0  0  0  0  0
    7.8690  -13.8621   25.4855 C   0  0  2  0  0  0  0  0  0  0  0  0
    7.0172  -14.6405   24.5679 N   0  0  0  0  0  0  0  0  0  0  0  0
    8.9388  -14.7257   26.0252 C   0  0  0  0  0  0  0  0  0  0  0  0
    9.8257  -14.1876   26.7906 O   0  0  0  0  0  0  0  0  0  0  0  0
    9.1152  -16.0995   25.8058 N   0  0  0  0  0  0  0  0  0  0  0  0
   10.1866  -16.8737   26.4412 C   0  0  1  0  0  0  0  0  0  0  0  0
   11.5272  -16.5317   25.8365 C   0  0  0  0  0  0  0  0  0  0  0  0
   11.5487  -16.6542   24.3644 C   0  0  0  0  0  0  0  0  0  0  0  0
   10.5445  -17.0636   23.5301 C   0  0  0  0  0  0  0  0  0  0  0  0
   10.9821  -17.0304   22.2372 N   0  0  0  0  0  0  0  0  0  0  0  0
   12.2355  -16.6045   22.3070 C   0  0  0  0  0  0  0  0  0  0  0  0
   12.5989  -16.3714   23.5785 N   0  0  0  0  0  0  0  0  0  0  0  0
   10.1477  -16.7348   27.9022 C   0  0  0  0  0  0  0  0  0  0  0  0
   10.3354  -17.7997   28.7658 O   0  0  0  0  0  0  0  0  0  0  0  0
    9.9356  -15.6045   28.4040 O   0  0  0  0  0  0  0  0  0  0  0  0
  2  1  1  1
  3  2  1  0
  4  5  1  0
  4  2  1  0
  5  6  1  6
  7 13  1  0
  7  5  1  0
  8  7  2  0
 10  9  1  6
 10 12  1  0
 11 10  1  0
 12 14  1  0
 12 13  1  6
 14 16  1  0
 15 14  2  0
 16 17  1  0
 17 24  1  0
 17 18  1  6
 19 18  1  0
 20 19  2  0
 21 22  1  0
 21 20  1  0
 22 23  2  0
 23 19  1  0
 24 26  2  0
 24 25  1  0
M  END
$$$$
