LVH.pdb
     RDKit          3D

 26 26  0  0  1  0  0  0  0  0999 V2000
    5.6390  -12.8653   26.2399 C   0  0  0  0  0  0  0  0  0  0  0  0
    6.9078  -13.6489   26.3067 C   0  0  1  0  0  0  0  0  0  0  0  0
    7.7570  -13.0758   27.4417 C   0  0  0  0  0  0  0  0  0  0  0  0
    6.6854  -15.1073   26.6456 C   0  0  0  0  0  0  0  0  0  0  0  0
    6.0807  -15.8527   25.4527 C   0  0  2  0  0  0  0  0  0  0  0  0
    5.8322  -17.2255   25.8331 N   0  0  0  0  0  0  0  0  0  0  0  0
    7.1088  -15.8405   24.3835 C   0  0  0  0  0  0  0  0  0  0  0  0
    8.0471  -16.6713   24.4440 O   0  0  0  0  0  0  0  0  0  0  0  0
    6.2541  -14.4889   20.5890 C   0  0  0  0  0  0  0  0  0  0  0  0
    7.6432  -14.2498   21.0601 C   0  0  2  0  0  0  0  0  0  0  0  0
    8.6144  -14.3548   19.9011 C   0  0  0  0  0  0  0  0  0  0  0  0
    8.0377  -15.1455   22.2054 C   0  0  2  0  0  0  0  0  0  0  0  0
    7.0737  -14.9313   23.3001 N   0  0  0  0  0  0  0  0  0  0  0  0
    9.4110  -14.9194   22.6998 C   0  0  0  0  0  0  0  0  0  0  0  0
    9.5808  -14.0690   23.6538 O   0  0  0  0  0  0  0  0  0  0  0  0
   10.5889  -15.5339   22.2509 N   0  0  0  0  0  0  0  0  0  0  0  0
   11.5270  -16.2076   23.1548 C   0  0  1  0  0  0  0  0  0  0  0  0
   10.7959  -17.1448   24.0860 C   0  0  0  0  0  0  0  0  0  0  0  0
   11.6932  -17.8441   25.0286 C   0  0  0  0  0  0  0  0  0  0  0  0
   12.7246  -17.3268   25.7640 C   0  0  0  0  0  0  0  0  0  0  0  0
   13.2967  -18.3174   26.5093 N   0  0  0  0  0  0  0  0  0  0  0  0
   12.6086  -19.4120   26.2164 C   0  0  0  0  0  0  0  0  0  0  0  0
   11.6375  -19.1512   25.3265 N   0  0  0  0  0  0  0  0  0  0  0  0
   12.6152  -16.8507   22.4083 C   0  0  0  0  0  0  0  0  0  0  0  0
   12.6638  -16.8842   21.0258 O   0  0  0  0  0  0  0  0  0  0  0  0
   13.5503  -17.3989   23.0404 O   0  0  0  0  0  0  0  0  0  0  0  0
  2  1  1  1
  3  2  1  0
  4  5  1  0
  4  2  1  0
  5  6  1  1
  7 13  1  0
  7  5  1  0
  8  7  2  0
 10  9  1  6
 10 12  1  0
 11 10  1  0
 12 14  1  0
 12 13  1  1
 14 16  1  0
 15 14  2  0
 16 17  1  0
 17 24  1  0
 17 18  1  6
 19 18  1  0
 20 19  2  0
 21 22  1  0
 21 20  1  0
 22 23  2  0
 23 19  1  0
 24 26  2  0
 24 25  1  0
M  END
$$$$
