LVH.pdb
     RDKit          3D

 26 26  0  0  1  0  0  0  0  0999 V2000
    5.4894  -19.3756   21.6789 C   0  0  0  0  0  0  0  0  0  0  0  0
    5.8009  -17.9423   21.4015 C   0  0  1  0  0  0  0  0  0  0  0  0
    4.4941  -17.2380   21.0351 C   0  0  0  0  0  0  0  0  0  0  0  0
    6.3463  -17.2108   22.6091 C   0  0  0  0  0  0  0  0  0  0  0  0
    6.7141  -15.7694   22.2466 C   0  0  2  0  0  0  0  0  0  0  0  0
    7.4809  -15.7740   21.0207 N   0  0  0  0  0  0  0  0  0  0  0  0
    7.5811  -15.2682   23.3409 C   0  0  0  0  0  0  0  0  0  0  0  0
    8.8062  -15.5373   23.3067 O   0  0  0  0  0  0  0  0  0  0  0  0
    6.2234  -13.0050   26.7760 C   0  0  0  0  0  0  0  0  0  0  0  0
    7.5336  -12.8297   26.0968 C   0  0  2  0  0  0  0  0  0  0  0  0
    7.4569  -11.6929   25.0971 C   0  0  0  0  0  0  0  0  0  0  0  0
    8.0424  -14.0990   25.4647 C   0  0  2  0  0  0  0  0  0  0  0  0
    7.0830  -14.5001   24.4196 N   0  0  0  0  0  0  0  0  0  0  0  0
    8.2336  -15.2105   26.4183 C   0  0  0  0  0  0  0  0  0  0  0  0
    7.2617  -16.0407   26.5863 O   0  0  0  0  0  0  0  0  0  0  0  0
    9.3747  -15.4870   27.1850 N   0  0  0  0  0  0  0  0  0  0  0  0
    9.7684  -16.8493   27.5597 C   0  0  1  0  0  0  0  0  0  0  0  0
    9.9760  -17.7047   26.3329 C   0  0  0  0  0  0  0  0  0  0  0  0
   10.3671  -19.0931   26.6522 C   0  0  0  0  0  0  0  0  0  0  0  0
   10.5269  -19.6704   27.8824 C   0  0  0  0  0  0  0  0  0  0  0  0
   10.8954  -20.9762   27.7303 N   0  0  0  0  0  0  0  0  0  0  0  0
   10.9529  -21.1692   26.4200 C   0  0  0  0  0  0  0  0  0  0  0  0
   10.6387  -20.0486   25.7501 N   0  0  0  0  0  0  0  0  0  0  0  0
   10.9196  -16.8382   28.4706 C   0  0  0  0  0  0  0  0  0  0  0  0
   11.0376  -17.7001   29.5468 O   0  0  0  0  0  0  0  0  0  0  0  0
   11.8461  -16.0146   28.2758 O   0  0  0  0  0  0  0  0  0  0  0  0
  2  1  1  1
  3  2  1  0
  4  5  1  0
  4  2  1  0
  5  6  1  6
  7 13  1  0
  7  5  1  0
  8  7  2  0
 10  9  1  6
 10 12  1  0
 11 10  1  0
 12 14  1  0
 12 13  1  6
 14 16  1  0
 15 14  2  0
 16 17  1  0
 17 24  1  0
 17 18  1  6
 19 18  1  0
 20 19  2  0
 21 22  1  0
 21 20  1  0
 22 23  2  0
 23 19  1  0
 24 26  2  0
 24 25  1  0
M  END
$$$$
