LVH.pdb
     RDKit          3D

 26 26  0  0  1  0  0  0  0  0999 V2000
    8.1156  -19.0537   20.5316 C   0  0  0  0  0  0  0  0  0  0  0  0
    7.6552  -17.6338   20.5103 C   0  0  1  0  0  0  0  0  0  0  0  0
    6.1832  -17.6214   20.0967 C   0  0  0  0  0  0  0  0  0  0  0  0
    7.7134  -16.9724   21.8705 C   0  0  0  0  0  0  0  0  0  0  0  0
    7.5556  -15.4550   21.7403 C   0  0  2  0  0  0  0  0  0  0  0  0
    8.3597  -14.9922   20.6311 N   0  0  0  0  0  0  0  0  0  0  0  0
    8.0965  -14.8667   22.9900 C   0  0  0  0  0  0  0  0  0  0  0  0
    9.3412  -14.8199   23.1413 O   0  0  0  0  0  0  0  0  0  0  0  0
    6.4271  -11.9440   25.2385 C   0  0  0  0  0  0  0  0  0  0  0  0
    6.9469  -13.0844   26.0372 C   0  0  2  0  0  0  0  0  0  0  0  0
    7.5397  -12.5842   27.3395 C   0  0  0  0  0  0  0  0  0  0  0  0
    7.9195  -13.9434   25.2717 C   0  0  2  0  0  0  0  0  0  0  0  0
    7.2666  -14.3570   24.0162 N   0  0  0  0  0  0  0  0  0  0  0  0
    8.3784  -15.1367   26.0109 C   0  0  0  0  0  0  0  0  0  0  0  0
    8.1589  -16.2955   25.4902 O   0  0  0  0  0  0  0  0  0  0  0  0
    9.0459  -15.1693   27.2438 N   0  0  0  0  0  0  0  0  0  0  0  0
   10.2306  -16.0001   27.4833 C   0  0  1  0  0  0  0  0  0  0  0  0
   11.3076  -15.7050   26.4671 C   0  0  0  0  0  0  0  0  0  0  0  0
   11.5052  -16.8002   25.4953 C   0  0  0  0  0  0  0  0  0  0  0  0
   10.8886  -18.0209   25.4524 C   0  0  0  0  0  0  0  0  0  0  0  0
   11.3620  -18.7351   24.3894 N   0  0  0  0  0  0  0  0  0  0  0  0
   12.2516  -17.9423   23.8085 C   0  0  0  0  0  0  0  0  0  0  0  0
   12.3549  -16.7712   24.4572 N   0  0  0  0  0  0  0  0  0  0  0  0
   10.6871  -15.8863   28.8739 C   0  0  0  0  0  0  0  0  0  0  0  0
   11.0356  -16.9813   29.6449 O   0  0  0  0  0  0  0  0  0  0  0  0
   10.7696  -14.7500   29.3998 O   0  0  0  0  0  0  0  0  0  0  0  0
  2  1  1  1
  3  2  1  0
  4  5  1  0
  4  2  1  0
  5  6  1  6
  7 13  1  0
  7  5  1  0
  8  7  2  0
 10  9  1  6
 10 12  1  0
 11 10  1  0
 12 14  1  0
 12 13  1  6
 14 16  1  0
 15 14  2  0
 16 17  1  0
 17 24  1  0
 17 18  1  6
 19 18  1  0
 20 19  2  0
 21 22  1  0
 21 20  1  0
 22 23  2  0
 23 19  1  0
 24 26  2  0
 24 25  1  0
M  END
$$$$
