LVH.pdb
     RDKit          3D

 26 26  0  0  1  0  0  0  0  0999 V2000
   11.9453  -20.1322   17.3346 C   0  0  0  0  0  0  0  0  0  0  0  0
   11.1261  -18.9562   16.9173 C   0  0  1  0  0  0  0  0  0  0  0  0
    9.6566  -19.3787   16.9242 C   0  0  0  0  0  0  0  0  0  0  0  0
   11.2311  -17.7911   17.8779 C   0  0  0  0  0  0  0  0  0  0  0  0
   10.3047  -16.6508   17.4468 C   0  0  2  0  0  0  0  0  0  0  0  0
   10.8187  -16.0618   16.2303 N   0  0  0  0  0  0  0  0  0  0  0  0
   10.3628  -15.6315   18.5230 C   0  0  0  0  0  0  0  0  0  0  0  0
   11.3835  -14.9067   18.6083 O   0  0  0  0  0  0  0  0  0  0  0  0
    7.0003  -14.5002   20.9210 C   0  0  0  0  0  0  0  0  0  0  0  0
    8.0872  -13.6138   20.4291 C   0  0  2  0  0  0  0  0  0  0  0  0
    7.7083  -13.0156   19.0890 C   0  0  0  0  0  0  0  0  0  0  0  0
    9.4274  -14.3000   20.3783 C   0  0  2  0  0  0  0  0  0  0  0  0
    9.3152  -15.4441   19.4553 N   0  0  0  0  0  0  0  0  0  0  0  0
    9.9141  -14.7663   21.6925 C   0  0  0  0  0  0  0  0  0  0  0  0
    9.2696  -15.7182   22.2761 O   0  0  0  0  0  0  0  0  0  0  0  0
   11.0242  -14.2918   22.4060 N   0  0  0  0  0  0  0  0  0  0  0  0
   11.3030  -14.6824   23.7919 C   0  0  1  0  0  0  0  0  0  0  0  0
   10.1144  -14.3988   24.6790 C   0  0  0  0  0  0  0  0  0  0  0  0
   10.3151  -14.8354   26.0761 C   0  0  0  0  0  0  0  0  0  0  0  0
   11.4157  -15.4280   26.6325 C   0  0  0  0  0  0  0  0  0  0  0  0
   11.1853  -15.6686   27.9565 N   0  0  0  0  0  0  0  0  0  0  0  0
    9.9576  -15.2214   28.1809 C   0  0  0  0  0  0  0  0  0  0  0  0
    9.4135  -14.7151   27.0626 N   0  0  0  0  0  0  0  0  0  0  0  0
   11.7759  -16.0700   23.8681 C   0  0  0  0  0  0  0  0  0  0  0  0
   11.8801  -16.8927   22.7603 O   0  0  0  0  0  0  0  0  0  0  0  0
   12.1039  -16.5445   24.9825 O   0  0  0  0  0  0  0  0  0  0  0  0
  2  1  1  1
  3  2  1  0
  4  5  1  0
  4  2  1  0
  5  6  1  6
  7 13  1  0
  7  5  1  0
  8  7  2  0
 10  9  1  6
 10 12  1  0
 11 10  1  0
 12 14  1  0
 12 13  1  6
 14 16  1  0
 15 14  2  0
 16 17  1  0
 17 24  1  0
 17 18  1  1
 19 18  1  0
 20 19  2  0
 21 22  1  0
 21 20  1  0
 22 23  2  0
 23 19  1  0
 24 26  2  0
 24 25  1  0
M  END
$$$$
