LVH.pdb
     RDKit          3D

 26 26  0  0  1  0  0  0  0  0999 V2000
    6.7128  -17.7410   19.7318 C   0  0  0  0  0  0  0  0  0  0  0  0
    6.7611  -16.2666   19.9598 C   0  0  1  0  0  0  0  0  0  0  0  0
    5.3240  -15.7638   20.1008 C   0  0  0  0  0  0  0  0  0  0  0  0
    7.4646  -15.8893   21.2458 C   0  0  0  0  0  0  0  0  0  0  0  0
    7.3730  -14.3804   21.4887 C   0  0  2  0  0  0  0  0  0  0  0  0
    8.1711  -13.6951   20.4965 N   0  0  0  0  0  0  0  0  0  0  0  0
    7.9694  -14.1320   22.8241 C   0  0  0  0  0  0  0  0  0  0  0  0
    9.2177  -14.0458   22.9170 O   0  0  0  0  0  0  0  0  0  0  0  0
    6.5314  -11.6844   25.5712 C   0  0  0  0  0  0  0  0  0  0  0  0
    6.9871  -12.9669   26.1680 C   0  0  2  0  0  0  0  0  0  0  0  0
    7.6139  -12.7190   27.5257 C   0  0  0  0  0  0  0  0  0  0  0  0
    7.9043  -13.7444   25.2604 C   0  0  2  0  0  0  0  0  0  0  0  0
    7.1883  -13.9884   23.9950 N   0  0  0  0  0  0  0  0  0  0  0  0
    8.3646  -15.0281   25.8276 C   0  0  0  0  0  0  0  0  0  0  0  0
    7.4824  -15.9368   26.0688 O   0  0  0  0  0  0  0  0  0  0  0  0
    9.6805  -15.3955   26.1439 N   0  0  0  0  0  0  0  0  0  0  0  0
   10.0225  -16.6956   26.7301 C   0  0  1  0  0  0  0  0  0  0  0  0
   11.2889  -17.2443   26.1176 C   0  0  0  0  0  0  0  0  0  0  0  0
   11.2413  -17.3056   24.6422 C   0  0  0  0  0  0  0  0  0  0  0  0
   10.3740  -18.0043   23.8473 C   0  0  0  0  0  0  0  0  0  0  0  0
   10.6782  -17.7840   22.5347 N   0  0  0  0  0  0  0  0  0  0  0  0
   11.7175  -16.9613   22.5538 C   0  0  0  0  0  0  0  0  0  0  0  0
   12.0745  -16.6592   23.8125 N   0  0  0  0  0  0  0  0  0  0  0  0
   10.0614  -16.6239   28.1959 C   0  0  0  0  0  0  0  0  0  0  0  0
   10.1818  -17.7420   29.0023 O   0  0  0  0  0  0  0  0  0  0  0  0
    9.9826  -15.5038   28.7560 O   0  0  0  0  0  0  0  0  0  0  0  0
  2  1  1  1
  3  2  1  0
  4  5  1  0
  4  2  1  0
  5  6  1  6
  7 13  1  0
  7  5  1  0
  8  7  2  0
 10  9  1  6
 10 12  1  0
 11 10  1  0
 12 14  1  0
 12 13  1  6
 14 16  1  0
 15 14  2  0
 16 17  1  0
 17 24  1  0
 17 18  1  6
 19 18  1  0
 20 19  2  0
 21 22  1  0
 21 20  1  0
 22 23  2  0
 23 19  1  0
 24 26  2  0
 24 25  1  0
M  END
$$$$
