LVH.pdb
     RDKit          3D

 26 26  0  0  1  0  0  0  0  0999 V2000
    7.3115  -11.8000   27.6762 C   0  0  0  0  0  0  0  0  0  0  0  0
    6.4337  -12.8794   27.1351 C   0  0  1  0  0  0  0  0  0  0  0  0
    5.4698  -12.2451   26.1319 C   0  0  0  0  0  0  0  0  0  0  0  0
    7.1997  -13.9364   26.3688 C   0  0  0  0  0  0  0  0  0  0  0  0
    6.2579  -14.7367   25.4649 C   0  0  2  0  0  0  0  0  0  0  0  0
    5.6017  -15.7553   26.2541 N   0  0  0  0  0  0  0  0  0  0  0  0
    7.1124  -15.4047   24.4530 C   0  0  0  0  0  0  0  0  0  0  0  0
    7.4543  -16.5960   24.6488 O   0  0  0  0  0  0  0  0  0  0  0  0
    7.0878  -14.3225   20.5055 C   0  0  0  0  0  0  0  0  0  0  0  0
    8.4088  -14.7637   21.0242 C   0  0  2  0  0  0  0  0  0  0  0  0
    9.1692  -15.5140   19.9488 C   0  0  0  0  0  0  0  0  0  0  0  0
    8.3034  -15.5622   22.2974 C   0  0  2  0  0  0  0  0  0  0  0  0
    7.5563  -14.7536   23.2779 N   0  0  0  0  0  0  0  0  0  0  0  0
    9.6068  -15.9580   22.8682 C   0  0  0  0  0  0  0  0  0  0  0  0
   10.3188  -15.0502   23.4435 O   0  0  0  0  0  0  0  0  0  0  0  0
   10.1839  -17.2361   22.8659 N   0  0  0  0  0  0  0  0  0  0  0  0
   11.5344  -17.4982   23.3743 C   0  0  1  0  0  0  0  0  0  0  0  0
   11.5515  -18.7354   24.2397 C   0  0  0  0  0  0  0  0  0  0  0  0
   10.7510  -18.5925   25.4733 C   0  0  0  0  0  0  0  0  0  0  0  0
    9.4603  -18.9858   25.7002 C   0  0  0  0  0  0  0  0  0  0  0  0
    9.1026  -18.6654   26.9783 N   0  0  0  0  0  0  0  0  0  0  0  0
   10.1741  -18.0871   27.5027 C   0  0  0  0  0  0  0  0  0  0  0  0
   11.1797  -18.0320   26.6146 N   0  0  0  0  0  0  0  0  0  0  0  0
   12.5160  -17.5301   22.2832 C   0  0  0  0  0  0  0  0  0  0  0  0
   13.8827  -17.4980   22.4977 O   0  0  0  0  0  0  0  0  0  0  0  0
   12.1108  -17.5891   21.0971 O   0  0  0  0  0  0  0  0  0  0  0  0
  2  1  1  6
  3  2  1  0
  4  5  1  0
  4  2  1  0
  5  6  1  1
  7 13  1  0
  7  5  1  0
  8  7  2  0
 10  9  1  6
 10 12  1  0
 11 10  1  0
 12 14  1  0
 12 13  1  1
 14 16  1  0
 15 14  2  0
 16 17  1  0
 17 24  1  0
 17 18  1  6
 19 18  1  0
 20 19  2  0
 21 22  1  0
 21 20  1  0
 22 23  2  0
 23 19  1  0
 24 26  2  0
 24 25  1  0
M  END
$$$$
