LVH.pdb
     RDKit          3D

 26 26  0  0  1  0  0  0  0  0999 V2000
    7.6905  -12.0093   28.0496 C   0  0  0  0  0  0  0  0  0  0  0  0
    6.7098  -12.7933   27.2421 C   0  0  1  0  0  0  0  0  0  0  0  0
    5.8730  -11.8059   26.4279 C   0  0  0  0  0  0  0  0  0  0  0  0
    7.3709  -13.7108   26.2361 C   0  0  0  0  0  0  0  0  0  0  0  0
    6.3189  -14.4159   25.3755 C   0  0  2  0  0  0  0  0  0  0  0  0
    5.6195  -15.3857   26.1888 N   0  0  0  0  0  0  0  0  0  0  0  0
    7.0600  -15.1404   24.3141 C   0  0  0  0  0  0  0  0  0  0  0  0
    7.3472  -16.3475   24.5002 O   0  0  0  0  0  0  0  0  0  0  0  0
    6.9118  -14.2527   20.3338 C   0  0  0  0  0  0  0  0  0  0  0  0
    8.2647  -14.6100   20.8346 C   0  0  2  0  0  0  0  0  0  0  0  0
    9.0264  -15.3847   19.7777 C   0  0  0  0  0  0  0  0  0  0  0  0
    8.2297  -15.3425   22.1506 C   0  0  2  0  0  0  0  0  0  0  0  0
    7.4549  -14.5258   23.1025 N   0  0  0  0  0  0  0  0  0  0  0  0
    9.5643  -15.6313   22.7134 C   0  0  0  0  0  0  0  0  0  0  0  0
   10.1149  -14.7367   23.4609 O   0  0  0  0  0  0  0  0  0  0  0  0
   10.3303  -16.7922   22.5344 N   0  0  0  0  0  0  0  0  0  0  0  0
   11.3018  -17.2631   23.5271 C   0  0  1  0  0  0  0  0  0  0  0  0
   10.6311  -18.1311   24.5647 C   0  0  0  0  0  0  0  0  0  0  0  0
   11.5729  -18.6720   25.5663 C   0  0  0  0  0  0  0  0  0  0  0  0
   12.9247  -18.4794   25.6541 C   0  0  0  0  0  0  0  0  0  0  0  0
   13.4145  -19.1596   26.7318 N   0  0  0  0  0  0  0  0  0  0  0  0
   12.3599  -19.7500   27.2767 C   0  0  0  0  0  0  0  0  0  0  0  0
   11.2393  -19.4706   26.5917 N   0  0  0  0  0  0  0  0  0  0  0  0
   12.4541  -17.9031   22.8808 C   0  0  0  0  0  0  0  0  0  0  0  0
   13.7508  -17.7652   23.3441 O   0  0  0  0  0  0  0  0  0  0  0  0
   12.2690  -18.6102   21.8609 O   0  0  0  0  0  0  0  0  0  0  0  0
  2  1  1  6
  3  2  1  0
  4  5  1  0
  4  2  1  0
  5  6  1  1
  7 13  1  0
  7  5  1  0
  8  7  2  0
 10  9  1  6
 10 12  1  0
 11 10  1  0
 12 14  1  0
 12 13  1  1
 14 16  1  0
 15 14  2  0
 16 17  1  0
 17 24  1  0
 17 18  1  1
 19 18  1  0
 20 19  2  0
 21 22  1  0
 21 20  1  0
 22 23  2  0
 23 19  1  0
 24 26  2  0
 24 25  1  0
M  END
$$$$
