AYH.pdb
     RDKit          3D

 28 29  0  0  1  0  0  0  0  0999 V2000
   21.9814  -12.1170  -20.4517 C   0  0  0  0  0  0  0  0  0  0  0  0
   22.5758  -12.2642  -19.0782 C   0  0  2  0  0  0  0  0  0  0  0  0
   22.3938  -13.5670  -18.5191 N   0  0  0  0  0  0  0  0  0  0  0  0
   22.1429  -11.1802  -18.1533 C   0  0  0  0  0  0  0  0  0  0  0  0
   20.9374  -11.1102  -17.8155 O   0  0  0  0  0  0  0  0  0  0  0  0
   22.3644   -3.7094  -13.3106 O   0  0  0  0  0  0  0  0  0  0  0  0
   22.6638   -4.9208  -13.9167 C   0  0  0  0  0  0  0  0  0  0  0  0
   23.3829   -4.9334  -15.0971 C   0  0  0  0  0  0  0  0  0  0  0  0
   23.7108   -6.1021  -15.7457 C   0  0  0  0  0  0  0  0  0  0  0  0
   23.3190   -7.3073  -15.2178 C   0  0  0  0  0  0  0  0  0  0  0  0
   23.6659   -8.5471  -15.9044 C   0  0  0  0  0  0  0  0  0  0  0  0
   22.6933   -9.0369  -16.9232 C   0  0  2  0  0  0  0  0  0  0  0  0
   23.0487  -10.2144  -17.6341 N   0  0  0  0  0  0  0  0  0  0  0  0
   22.0793   -7.9580  -17.7566 C   0  0  0  0  0  0  0  0  0  0  0  0
   22.6212   -7.5335  -18.7962 O   0  0  0  0  0  0  0  0  0  0  0  0
   22.6041   -7.3336  -14.0479 C   0  0  0  0  0  0  0  0  0  0  0  0
   22.2802   -6.1425  -13.4037 C   0  0  0  0  0  0  0  0  0  0  0  0
   20.8433   -7.4082  -17.3352 N   0  0  0  0  0  0  0  0  0  0  0  0
   20.1720   -6.3248  -18.0723 C   0  0  1  0  0  0  0  0  0  0  0  0
   18.9287   -6.9103  -18.6450 C   0  0  0  0  0  0  0  0  0  0  0  0
   18.1235   -6.0106  -19.4787 C   0  0  0  0  0  0  0  0  0  0  0  0
   17.2279   -5.1021  -18.9047 C   0  0  0  0  0  0  0  0  0  0  0  0
   16.6168   -4.3995  -19.8571 N   0  0  0  0  0  0  0  0  0  0  0  0
   17.1191   -4.8577  -21.0159 C   0  0  0  0  0  0  0  0  0  0  0  0
   18.0190   -5.8201  -20.7880 N   0  0  0  0  0  0  0  0  0  0  0  0
   19.9674   -5.1624  -17.1810 C   0  0  0  0  0  0  0  0  0  0  0  0
   20.1095   -3.8527  -17.5876 O   0  0  0  0  0  0  0  0  0  0  0  0
   19.6460   -5.3796  -15.9829 O   0  0  0  0  0  0  0  0  0  0  0  0
  2  1  1  6
  2  3  1  0
  4  5  2  0
  4  2  1  0
  6  7  1  0
  7  8  2  0
  8  9  1  0
 10  9  2  0
 10 11  1  0
 12 11  1  6
 12 13  1  0
 13  4  1  0
 14 12  1  0
 15 14  2  0
 16 10  1  0
 17  7  1  0
 17 16  2  0
 18 14  1  0
 19 26  1  0
 19 18  1  0
 20 21  1  0
 19 20  1  1
 21 22  2  0
 21 25  1  0
 22 23  1  0
 23 24  1  0
 25 24  2  0
 26 27  1  0
 28 26  2  0
M  END
$$$$
