AYH.pdb
     RDKit          3D

 28 29  0  0  1  0  0  0  0  0999 V2000
   12.1226  -12.0147    5.7442 C   0  0  0  0  0  0  0  0  0  0  0  0
   13.3249  -12.2214    4.8649 C   0  0  2  0  0  0  0  0  0  0  0  0
   13.0643  -11.9727    3.4818 N   0  0  0  0  0  0  0  0  0  0  0  0
   13.9764  -13.5407    5.0952 C   0  0  0  0  0  0  0  0  0  0  0  0
   14.2287  -13.9011    6.2693 O   0  0  0  0  0  0  0  0  0  0  0  0
   16.6819  -21.8907    3.7813 O   0  0  0  0  0  0  0  0  0  0  0  0
   16.1343  -20.6243    3.6359 C   0  0  0  0  0  0  0  0  0  0  0  0
   16.8067  -19.6719    2.8933 C   0  0  0  0  0  0  0  0  0  0  0  0
   16.3153  -18.3991    2.7126 C   0  0  0  0  0  0  0  0  0  0  0  0
   15.1175  -18.0440    3.2818 C   0  0  0  0  0  0  0  0  0  0  0  0
   14.5955  -16.6949    3.0911 C   0  0  0  0  0  0  0  0  0  0  0  0
   14.9007  -15.7064    4.1652 C   0  0  2  0  0  0  0  0  0  0  0  0
   14.3262  -14.4144    4.0288 N   0  0  0  0  0  0  0  0  0  0  0  0
   16.3228  -15.7188    4.6270 C   0  0  0  0  0  0  0  0  0  0  0  0
   17.2340  -15.1616    3.9835 O   0  0  0  0  0  0  0  0  0  0  0  0
   14.4225  -18.9630    4.0254 C   0  0  0  0  0  0  0  0  0  0  0  0
   14.9330  -20.2467    4.1989 C   0  0  0  0  0  0  0  0  0  0  0  0
   16.6285  -16.3935    5.8348 N   0  0  0  0  0  0  0  0  0  0  0  0
   17.9916  -16.4346    6.3898 C   0  0  1  0  0  0  0  0  0  0  0  0
   18.0668  -15.3499    7.4069 C   0  0  0  0  0  0  0  0  0  0  0  0
   18.3662  -14.0094    6.8910 C   0  0  0  0  0  0  0  0  0  0  0  0
   17.3986  -12.9991    6.9003 C   0  0  0  0  0  0  0  0  0  0  0  0
   17.9027  -11.8792    6.3847 N   0  0  0  0  0  0  0  0  0  0  0  0
   19.1703  -12.1778    6.0544 C   0  0  0  0  0  0  0  0  0  0  0  0
   19.4455  -13.4508    6.3575 N   0  0  0  0  0  0  0  0  0  0  0  0
   18.2875  -17.7926    6.8953 C   0  0  0  0  0  0  0  0  0  0  0  0
   19.4832  -18.1459    7.4837 O   0  0  0  0  0  0  0  0  0  0  0  0
   17.3985  -18.6774    6.7819 O   0  0  0  0  0  0  0  0  0  0  0  0
  2  1  1  1
  2  3  1  0
  4  5  2  0
  4  2  1  0
  6  7  1  0
  7  8  2  0
  8  9  1  0
 10  9  2  0
 10 11  1  0
 12 11  1  6
 12 13  1  0
 13  4  1  0
 14 12  1  0
 15 14  2  0
 16 10  1  0
 17  7  1  0
 17 16  2  0
 18 14  1  0
 19 26  1  0
 19 18  1  0
 20 21  1  0
 19 20  1  1
 21 22  2  0
 21 25  1  0
 22 23  1  0
 23 24  1  0
 25 24  2  0
 26 27  1  0
 28 26  2  0
M  END
$$$$
