AYH.pdb
     RDKit          3D

 28 29  0  0  1  0  0  0  0  0999 V2000
   46.4171   -7.8795   -7.4700 C   0  0  0  0  0  0  0  0  0  0  0  0
   45.6342   -8.8708   -8.2861 C   0  0  2  0  0  0  0  0  0  0  0  0
   46.3396   -9.3389   -9.4377 N   0  0  0  0  0  0  0  0  0  0  0  0
   44.2663   -8.3816   -8.6140 C   0  0  0  0  0  0  0  0  0  0  0  0
   44.1220   -7.5399   -9.5320 O   0  0  0  0  0  0  0  0  0  0  0  0
   35.5724   -7.1518   -6.8403 O   0  0  0  0  0  0  0  0  0  0  0  0
   36.8242   -7.6677   -7.1432 C   0  0  0  0  0  0  0  0  0  0  0  0
   37.5387   -8.3394   -6.1691 C   0  0  0  0  0  0  0  0  0  0  0  0
   38.7845   -8.8734   -6.4081 C   0  0  0  0  0  0  0  0  0  0  0  0
   39.3540   -8.7447   -7.6506 C   0  0  0  0  0  0  0  0  0  0  0  0
   40.6747   -9.3103   -7.9053 C   0  0  0  0  0  0  0  0  0  0  0  0
   41.7890   -8.3374   -8.0934 C   0  0  2  0  0  0  0  0  0  0  0  0
   43.1089   -8.8342   -7.9223 N   0  0  0  0  0  0  0  0  0  0  0  0
   41.5389   -6.9913   -7.4924 C   0  0  0  0  0  0  0  0  0  0  0  0
   41.5925   -6.7937   -6.2625 O   0  0  0  0  0  0  0  0  0  0  0  0
   38.6742   -8.0845   -8.6418 C   0  0  0  0  0  0  0  0  0  0  0  0
   37.4146   -7.5498   -8.3843 C   0  0  0  0  0  0  0  0  0  0  0  0
   41.2280   -5.9171   -8.3624 N   0  0  0  0  0  0  0  0  0  0  0  0
   40.9389   -4.5613   -7.8665 C   0  0  1  0  0  0  0  0  0  0  0  0
   42.0592   -3.6951   -8.3262 C   0  0  0  0  0  0  0  0  0  0  0  0
   41.9447   -2.2709   -7.9924 C   0  0  0  0  0  0  0  0  0  0  0  0
   41.9223   -1.8405   -6.6615 C   0  0  0  0  0  0  0  0  0  0  0  0
   41.8132   -0.5139   -6.6124 N   0  0  0  0  0  0  0  0  0  0  0  0
   41.7673   -0.1122   -7.8937 C   0  0  0  0  0  0  0  0  0  0  0  0
   41.8460   -1.1632   -8.7167 N   0  0  0  0  0  0  0  0  0  0  0  0
   39.5934   -4.1394   -8.3126 C   0  0  0  0  0  0  0  0  0  0  0  0
   38.8398   -3.1812   -7.6687 O   0  0  0  0  0  0  0  0  0  0  0  0
   39.1072   -4.6857   -9.3379 O   0  0  0  0  0  0  0  0  0  0  0  0
  2  1  1  6
  2  3  1  0
  4  5  2  0
  4  2  1  0
  6  7  1  0
  7  8  2  0
  8  9  1  0
 10  9  2  0
 10 11  1  0
 12 11  1  1
 12 13  1  0
 13  4  1  0
 14 12  1  0
 15 14  2  0
 16 10  1  0
 17  7  1  0
 17 16  2  0
 18 14  1  0
 19 26  1  0
 19 18  1  0
 20 21  1  0
 19 20  1  6
 21 22  2  0
 21 25  1  0
 22 23  1  0
 23 24  1  0
 25 24  2  0
 26 27  1  0
 28 26  2  0
M  END
$$$$
