AYH.pdb
     RDKit          3D

 28 29  0  0  1  0  0  0  0  0999 V2000
   20.8476  -21.0661  -11.0483 C   0  0  0  0  0  0  0  0  0  0  0  0
   21.2118  -21.3281  -12.4837 C   0  0  2  0  0  0  0  0  0  0  0  0
   21.3037  -22.7189  -12.7998 N   0  0  0  0  0  0  0  0  0  0  0  0
   22.4163  -20.5642  -12.9120 C   0  0  0  0  0  0  0  0  0  0  0  0
   22.4227  -19.3160  -12.7930 O   0  0  0  0  0  0  0  0  0  0  0  0
   25.8352  -19.8573   -7.4525 O   0  0  0  0  0  0  0  0  0  0  0  0
   25.8604  -20.1722   -8.8034 C   0  0  0  0  0  0  0  0  0  0  0  0
   26.2419  -19.2110   -9.7205 C   0  0  0  0  0  0  0  0  0  0  0  0
   26.2870  -19.4622  -11.0730 C   0  0  0  0  0  0  0  0  0  0  0  0
   25.9448  -20.7044  -11.5470 C   0  0  0  0  0  0  0  0  0  0  0  0
   25.9921  -20.9721  -12.9805 C   0  0  0  0  0  0  0  0  0  0  0  0
   24.7973  -20.5616  -13.7728 C   0  0  2  0  0  0  0  0  0  0  0  0
   23.5679  -21.1985  -13.4545 N   0  0  0  0  0  0  0  0  0  0  0  0
   25.0580  -20.3886  -15.2349 C   0  0  0  0  0  0  0  0  0  0  0  0
   25.0832  -21.3545  -16.0230 O   0  0  0  0  0  0  0  0  0  0  0  0
   25.5611  -21.6830  -10.6663 C   0  0  0  0  0  0  0  0  0  0  0  0
   25.5207  -21.4132   -9.3009 C   0  0  0  0  0  0  0  0  0  0  0  0
   25.2859  -19.0785  -15.7238 N   0  0  0  0  0  0  0  0  0  0  0  0
   25.4524  -18.7918  -17.1583 C   0  0  1  0  0  0  0  0  0  0  0  0
   25.3615  -17.3133  -17.3074 C   0  0  0  0  0  0  0  0  0  0  0  0
   25.4806  -16.8002  -18.6768 C   0  0  0  0  0  0  0  0  0  0  0  0
   24.7930  -17.4021  -19.7360 C   0  0  0  0  0  0  0  0  0  0  0  0
   25.0578  -16.7630  -20.8743 N   0  0  0  0  0  0  0  0  0  0  0  0
   25.9005  -15.7718  -20.5389 C   0  0  0  0  0  0  0  0  0  0  0  0
   26.1520  -15.7955  -19.2258 N   0  0  0  0  0  0  0  0  0  0  0  0
   26.7092  -19.3976  -17.6491 C   0  0  0  0  0  0  0  0  0  0  0  0
   27.9319  -19.2244  -17.0362 O   0  0  0  0  0  0  0  0  0  0  0  0
   26.6615  -20.1114  -18.6855 O   0  0  0  0  0  0  0  0  0  0  0  0
  2  1  1  1
  2  3  1  0
  4  5  2  0
  4  2  1  0
  6  7  1  0
  7  8  2  0
  8  9  1  0
 10  9  2  0
 10 11  1  0
 12 11  1  6
 12 13  1  0
 13  4  1  0
 14 12  1  0
 15 14  2  0
 16 10  1  0
 17  7  1  0
 17 16  2  0
 18 14  1  0
 19 26  1  0
 19 18  1  0
 20 21  1  0
 19 20  1  1
 21 22  2  0
 21 25  1  0
 22 23  1  0
 23 24  1  0
 25 24  2  0
 26 27  1  0
 28 26  2  0
M  END
$$$$
