AYH.pdb
     RDKit          3D

 28 29  0  0  1  0  0  0  0  0999 V2000
   27.1048  -20.8335  -19.0949 C   0  0  0  0  0  0  0  0  0  0  0  0
   27.3859  -21.9828  -18.1666 C   0  0  2  0  0  0  0  0  0  0  0  0
   27.2856  -23.2600  -18.8002 N   0  0  0  0  0  0  0  0  0  0  0  0
   26.5907  -21.9047  -16.9098 C   0  0  0  0  0  0  0  0  0  0  0  0
   25.4532  -22.4307  -16.8726 O   0  0  0  0  0  0  0  0  0  0  0  0
   24.2072  -20.1387   -8.5260 O   0  0  0  0  0  0  0  0  0  0  0  0
   24.9231  -20.3608   -9.6935 C   0  0  0  0  0  0  0  0  0  0  0  0
   25.4075  -19.2836  -10.4115 C   0  0  0  0  0  0  0  0  0  0  0  0
   26.1240  -19.4390  -11.5763 C   0  0  0  0  0  0  0  0  0  0  0  0
   26.3767  -20.6996  -12.0577 C   0  0  0  0  0  0  0  0  0  0  0  0
   27.1362  -20.8659  -13.2924 C   0  0  0  0  0  0  0  0  0  0  0  0
   26.3420  -21.0432  -14.5421 C   0  0  2  0  0  0  0  0  0  0  0  0
   27.0737  -21.2525  -15.7417 N   0  0  0  0  0  0  0  0  0  0  0  0
   25.1768  -20.1148  -14.6679 C   0  0  0  0  0  0  0  0  0  0  0  0
   25.2771  -18.9933  -15.2034 O   0  0  0  0  0  0  0  0  0  0  0  0
   25.9115  -21.7921  -11.3717 C   0  0  0  0  0  0  0  0  0  0  0  0
   25.1881  -21.6183  -10.1948 C   0  0  0  0  0  0  0  0  0  0  0  0
   23.9261  -20.5368  -14.1529 N   0  0  0  0  0  0  0  0  0  0  0  0
   22.7080  -19.7189  -14.2762 C   0  0  1  0  0  0  0  0  0  0  0  0
   22.4290  -19.5929  -15.7331 C   0  0  0  0  0  0  0  0  0  0  0  0
   21.2123  -18.8543  -16.0895 C   0  0  0  0  0  0  0  0  0  0  0  0
   20.7605  -17.7861  -15.3074 C   0  0  0  0  0  0  0  0  0  0  0  0
   19.6451  -17.2779  -15.8289 N   0  0  0  0  0  0  0  0  0  0  0  0
   19.3961  -18.0145  -16.9246 C   0  0  0  0  0  0  0  0  0  0  0  0
   20.3333  -18.9558  -17.0788 N   0  0  0  0  0  0  0  0  0  0  0  0
   21.6177  -20.3178  -13.4762 C   0  0  0  0  0  0  0  0  0  0  0  0
   20.6618  -19.5789  -12.8121 O   0  0  0  0  0  0  0  0  0  0  0  0
   21.5582  -21.5732  -13.3957 O   0  0  0  0  0  0  0  0  0  0  0  0
  2  1  1  6
  2  3  1  0
  4  5  2  0
  4  2  1  0
  6  7  1  0
  7  8  2  0
  8  9  1  0
 10  9  2  0
 10 11  1  0
 12 11  1  1
 12 13  1  0
 13  4  1  0
 14 12  1  0
 15 14  2  0
 16 10  1  0
 17  7  1  0
 17 16  2  0
 18 14  1  0
 19 26  1  0
 19 18  1  0
 20 21  1  0
 19 20  1  6
 21 22  2  0
 21 25  1  0
 22 23  1  0
 23 24  1  0
 25 24  2  0
 26 27  1  0
 28 26  2  0
M  END
$$$$
