AYH.pdb
     RDKit          3D

 28 29  0  0  1  0  0  0  0  0999 V2000
   46.1485  -10.3025   -3.9189 C   0  0  0  0  0  0  0  0  0  0  0  0
   45.5248  -10.9281   -5.1360 C   0  0  2  0  0  0  0  0  0  0  0  0
   46.4256  -11.7611   -5.8691 N   0  0  0  0  0  0  0  0  0  0  0  0
   44.8402   -9.9273   -6.0007 C   0  0  0  0  0  0  0  0  0  0  0  0
   45.4503   -9.4542   -6.9887 O   0  0  0  0  0  0  0  0  0  0  0  0
   42.0636  -12.5666  -11.5349 O   0  0  0  0  0  0  0  0  0  0  0  0
   41.9423  -11.6679  -10.4850 C   0  0  0  0  0  0  0  0  0  0  0  0
   41.5433  -12.1216   -9.2418 C   0  0  0  0  0  0  0  0  0  0  0  0
   41.4045  -11.2799   -8.1618 C   0  0  0  0  0  0  0  0  0  0  0  0
   41.6670   -9.9399   -8.3043 C   0  0  0  0  0  0  0  0  0  0  0  0
   41.5203   -9.0463   -7.1602 C   0  0  0  0  0  0  0  0  0  0  0  0
   42.7818   -8.5538   -6.5358 C   0  0  2  0  0  0  0  0  0  0  0  0
   43.5126   -9.4837   -5.7488 N   0  0  0  0  0  0  0  0  0  0  0  0
   42.6869   -7.1773   -5.9598 C   0  0  0  0  0  0  0  0  0  0  0  0
   42.3369   -6.9745   -4.7803 O   0  0  0  0  0  0  0  0  0  0  0  0
   42.0652   -9.4539   -9.5232 C   0  0  0  0  0  0  0  0  0  0  0  0
   42.2009  -10.3184  -10.6062 C   0  0  0  0  0  0  0  0  0  0  0  0
   43.0045   -6.0784   -6.7959 N   0  0  0  0  0  0  0  0  0  0  0  0
   42.9048   -4.6838   -6.3343 C   0  0  1  0  0  0  0  0  0  0  0  0
   43.8513   -3.8936   -7.1686 C   0  0  0  0  0  0  0  0  0  0  0  0
   43.8998   -2.4538   -6.8907 C   0  0  0  0  0  0  0  0  0  0  0  0
   43.4094   -1.9332   -5.6884 C   0  0  0  0  0  0  0  0  0  0  0  0
   43.5621   -0.6101   -5.6676 N   0  0  0  0  0  0  0  0  0  0  0  0
   44.1407   -0.2996   -6.8397 C   0  0  0  0  0  0  0  0  0  0  0  0
   44.3417   -1.4021   -7.5692 N   0  0  0  0  0  0  0  0  0  0  0  0
   41.4959   -4.2369   -6.3867 C   0  0  0  0  0  0  0  0  0  0  0  0
   40.9236   -3.4011   -5.4515 O   0  0  0  0  0  0  0  0  0  0  0  0
   40.7772   -4.6422   -7.3381 O   0  0  0  0  0  0  0  0  0  0  0  0
  2  1  1  1
  2  3  1  0
  4  5  2  0
  4  2  1  0
  6  7  1  0
  7  8  2  0
  8  9  1  0
 10  9  2  0
 10 11  1  0
 12 11  1  1
 12 13  1  0
 13  4  1  0
 14 12  1  0
 15 14  2  0
 16 10  1  0
 17  7  1  0
 17 16  2  0
 18 14  1  0
 19 26  1  0
 19 18  1  0
 20 21  1  0
 19 20  1  6
 21 22  2  0
 21 25  1  0
 22 23  1  0
 23 24  1  0
 25 24  2  0
 26 27  1  0
 28 26  2  0
M  END
$$$$
