AYH.pdb
     RDKit          3D

 28 29  0  0  1  0  0  0  0  0999 V2000
   27.1192  -15.9285  -16.4799 C   0  0  0  0  0  0  0  0  0  0  0  0
   26.6176  -17.3384  -16.3307 C   0  0  2  0  0  0  0  0  0  0  0  0
   26.5814  -18.0600  -17.5639 N   0  0  0  0  0  0  0  0  0  0  0  0
   25.3267  -17.4061  -15.5911 C   0  0  0  0  0  0  0  0  0  0  0  0
   25.2302  -16.8392  -14.4769 O   0  0  0  0  0  0  0  0  0  0  0  0
   22.0963  -11.8845  -16.5000 O   0  0  0  0  0  0  0  0  0  0  0  0
   22.0020  -13.2625  -16.3697 C   0  0  0  0  0  0  0  0  0  0  0  0
   22.4173  -14.0755  -17.4075 C   0  0  0  0  0  0  0  0  0  0  0  0
   22.3491  -15.4484  -17.3383 C   0  0  0  0  0  0  0  0  0  0  0  0
   21.8544  -16.0498  -16.2077 C   0  0  0  0  0  0  0  0  0  0  0  0
   21.7814  -17.5052  -16.1331 C   0  0  0  0  0  0  0  0  0  0  0  0
   22.9240  -18.1944  -15.4672 C   0  0  2  0  0  0  0  0  0  0  0  0
   24.1909  -18.0932  -16.1018 N   0  0  0  0  0  0  0  0  0  0  0  0
   22.5953  -19.5494  -14.9273 C   0  0  0  0  0  0  0  0  0  0  0  0
   22.7243  -20.5846  -15.6103 O   0  0  0  0  0  0  0  0  0  0  0  0
   21.4329  -15.2749  -15.1578 C   0  0  0  0  0  0  0  0  0  0  0  0
   21.5084  -13.8872  -15.2432 C   0  0  0  0  0  0  0  0  0  0  0  0
   22.1192  -19.6422  -13.5962 N   0  0  0  0  0  0  0  0  0  0  0  0
   21.8921  -20.9355  -12.9301 C   0  0  1  0  0  0  0  0  0  0  0  0
   22.4650  -20.8126  -11.5614 C   0  0  0  0  0  0  0  0  0  0  0  0
   23.9276  -20.8863  -11.4716 C   0  0  0  0  0  0  0  0  0  0  0  0
   24.7186  -20.9731  -12.6221 C   0  0  0  0  0  0  0  0  0  0  0  0
   26.0068  -21.0279  -12.2877 N   0  0  0  0  0  0  0  0  0  0  0  0
   26.0291  -20.9764  -10.9453 C   0  0  0  0  0  0  0  0  0  0  0  0
   24.7862  -20.8919  -10.4594 N   0  0  0  0  0  0  0  0  0  0  0  0
   20.4552  -21.2819  -12.9819 C   0  0  0  0  0  0  0  0  0  0  0  0
   19.9790  -22.5754  -12.9555 O   0  0  0  0  0  0  0  0  0  0  0  0
   19.6185  -20.3436  -13.0550 O   0  0  0  0  0  0  0  0  0  0  0  0
  2  1  1  6
  2  3  1  0
  4  5  2  0
  4  2  1  0
  6  7  1  0
  7  8  2  0
  8  9  1  0
 10  9  2  0
 10 11  1  0
 12 11  1  6
 12 13  1  0
 13  4  1  0
 14 12  1  0
 15 14  2  0
 16 10  1  0
 17  7  1  0
 17 16  2  0
 18 14  1  0
 19 26  1  0
 19 18  1  0
 20 21  1  0
 19 20  1  1
 21 22  2  0
 21 25  1  0
 22 23  1  0
 23 24  1  0
 25 24  2  0
 26 27  1  0
 28 26  2  0
M  END
$$$$
