AYH.pdb
     RDKit          3D

 28 29  0  0  1  0  0  0  0  0999 V2000
   26.1685   -9.4940  -17.7648 C   0  0  0  0  0  0  0  0  0  0  0  0
   24.6662   -9.5481  -17.8051 C   0  0  2  0  0  0  0  0  0  0  0  0
   24.1312   -9.4475  -19.1267 N   0  0  0  0  0  0  0  0  0  0  0  0
   24.0381   -8.5838  -16.8598 C   0  0  0  0  0  0  0  0  0  0  0  0
   24.3987   -8.5824  -15.6589 O   0  0  0  0  0  0  0  0  0  0  0  0
   27.6361   -3.2992  -17.8557 O   0  0  0  0  0  0  0  0  0  0  0  0
   26.3598   -3.7984  -17.6396 C   0  0  0  0  0  0  0  0  0  0  0  0
   25.8302   -3.7869  -16.3629 C   0  0  0  0  0  0  0  0  0  0  0  0
   24.5709   -4.2675  -16.0851 C   0  0  0  0  0  0  0  0  0  0  0  0
   23.7985   -4.7801  -17.0977 C   0  0  0  0  0  0  0  0  0  0  0  0
   22.4632   -5.2901  -16.8046 C   0  0  0  0  0  0  0  0  0  0  0  0
   22.3701   -6.7293  -16.4256 C   0  0  2  0  0  0  0  0  0  0  0  0
   23.0383   -7.6580  -17.2676 N   0  0  0  0  0  0  0  0  0  0  0  0
   21.0137   -7.1580  -15.9650 C   0  0  0  0  0  0  0  0  0  0  0  0
   20.1446   -7.5724  -16.7572 O   0  0  0  0  0  0  0  0  0  0  0  0
   24.2911   -4.8077  -18.3772 C   0  0  0  0  0  0  0  0  0  0  0  0
   25.5672   -4.3177  -18.6421 C   0  0  0  0  0  0  0  0  0  0  0  0
   20.7213   -7.0806  -14.5809 N   0  0  0  0  0  0  0  0  0  0  0  0
   19.3984   -7.4274  -14.0355 C   0  0  1  0  0  0  0  0  0  0  0  0
   19.6312   -8.4517  -12.9805 C   0  0  0  0  0  0  0  0  0  0  0  0
   18.4427   -8.8865  -12.2381 C   0  0  0  0  0  0  0  0  0  0  0  0
   17.1770   -8.3694  -12.5340 C   0  0  0  0  0  0  0  0  0  0  0  0
   16.2628   -8.9126  -11.7318 N   0  0  0  0  0  0  0  0  0  0  0  0
   16.9413   -9.7604  -10.9407 C   0  0  0  0  0  0  0  0  0  0  0  0
   18.2434   -9.7435  -11.2445 N   0  0  0  0  0  0  0  0  0  0  0  0
   18.7055   -6.2023  -13.5811 C   0  0  0  0  0  0  0  0  0  0  0  0
   17.3427   -6.0155  -13.6740 O   0  0  0  0  0  0  0  0  0  0  0  0
   19.3980   -5.2767  -13.0815 O   0  0  0  0  0  0  0  0  0  0  0  0
  2  1  1  6
  2  3  1  0
  4  5  2  0
  4  2  1  0
  6  7  1  0
  7  8  2  0
  8  9  1  0
 10  9  2  0
 10 11  1  0
 12 11  1  6
 12 13  1  0
 13  4  1  0
 14 12  1  0
 15 14  2  0
 16 10  1  0
 17  7  1  0
 17 16  2  0
 18 14  1  0
 19 26  1  0
 19 18  1  0
 20 21  1  0
 19 20  1  1
 21 22  2  0
 21 25  1  0
 22 23  1  0
 23 24  1  0
 25 24  2  0
 26 27  1  0
 28 26  2  0
M  END
$$$$
