AYH.pdb
     RDKit          3D

 28 29  0  0  1  0  0  0  0  0999 V2000
   32.1857  -33.3053  -15.2080 C   0  0  0  0  0  0  0  0  0  0  0  0
   33.5286  -32.7438  -15.5859 C   0  0  2  0  0  0  0  0  0  0  0  0
   33.7955  -32.8094  -16.9885 N   0  0  0  0  0  0  0  0  0  0  0  0
   34.6334  -33.3151  -14.7668 C   0  0  0  0  0  0  0  0  0  0  0  0
   35.1994  -34.3656  -15.1518 O   0  0  0  0  0  0  0  0  0  0  0  0
   39.9798  -31.3767  -17.4180 O   0  0  0  0  0  0  0  0  0  0  0  0
   39.3159  -31.6123  -16.2228 C   0  0  0  0  0  0  0  0  0  0  0  0
   39.3723  -32.8679  -15.6475 C   0  0  0  0  0  0  0  0  0  0  0  0
   38.7353  -33.1633  -14.4639 C   0  0  0  0  0  0  0  0  0  0  0  0
   38.0139  -32.1907  -13.8171 C   0  0  0  0  0  0  0  0  0  0  0  0
   37.3380  -32.5026  -12.5622 C   0  0  0  0  0  0  0  0  0  0  0  0
   36.0483  -33.2438  -12.6685 C   0  0  2  0  0  0  0  0  0  0  0  0
   35.0754  -32.7123  -13.5568 N   0  0  0  0  0  0  0  0  0  0  0  0
   35.5097  -33.7325  -11.3621 C   0  0  0  0  0  0  0  0  0  0  0  0
   34.5141  -33.2137  -10.8195 O   0  0  0  0  0  0  0  0  0  0  0  0
   37.9357  -30.9332  -14.3584 C   0  0  0  0  0  0  0  0  0  0  0  0
   38.5859  -30.6500  -15.5566 C   0  0  0  0  0  0  0  0  0  0  0  0
   36.1660  -34.8183  -10.7315 N   0  0  0  0  0  0  0  0  0  0  0  0
   35.6303  -35.4672   -9.5233 C   0  0  1  0  0  0  0  0  0  0  0  0
   34.2475  -35.9063   -9.8571 C   0  0  0  0  0  0  0  0  0  0  0  0
   33.5643  -36.7022   -8.8312 C   0  0  0  0  0  0  0  0  0  0  0  0
   34.1026  -36.8413   -7.5475 C   0  0  0  0  0  0  0  0  0  0  0  0
   33.3075  -37.6042   -6.7991 N   0  0  0  0  0  0  0  0  0  0  0  0
   32.2820  -37.9422   -7.5985 C   0  0  0  0  0  0  0  0  0  0  0  0
   32.4369  -37.4025   -8.8121 N   0  0  0  0  0  0  0  0  0  0  0  0
   36.5438  -36.5444   -9.0846 C   0  0  0  0  0  0  0  0  0  0  0  0
   36.6890  -36.9360   -7.7707 O   0  0  0  0  0  0  0  0  0  0  0  0
   37.2287  -37.1377   -9.9591 O   0  0  0  0  0  0  0  0  0  0  0  0
  2  1  1  6
  2  3  1  0
  4  5  2  0
  4  2  1  0
  6  7  1  0
  7  8  2  0
  8  9  1  0
 10  9  2  0
 10 11  1  0
 12 11  1  1
 12 13  1  0
 13  4  1  0
 14 12  1  0
 15 14  2  0
 16 10  1  0
 17  7  1  0
 17 16  2  0
 18 14  1  0
 19 26  1  0
 19 18  1  0
 20 21  1  0
 19 20  1  6
 21 22  2  0
 21 25  1  0
 22 23  1  0
 23 24  1  0
 25 24  2  0
 26 27  1  0
 28 26  2  0
M  END
$$$$
