AYH.pdb
     RDKit          3D

 28 29  0  0  1  0  0  0  0  0999 V2000
   19.2725  -14.4530  -15.8706 C   0  0  0  0  0  0  0  0  0  0  0  0
   18.0595  -13.8859  -16.5551 C   0  0  2  0  0  0  0  0  0  0  0  0
   17.5882  -14.6953  -17.6347 N   0  0  0  0  0  0  0  0  0  0  0  0
   18.2436  -12.4611  -16.9476 C   0  0  0  0  0  0  0  0  0  0  0  0
   18.8716  -12.1932  -17.9992 O   0  0  0  0  0  0  0  0  0  0  0  0
   14.0524  -11.1469  -21.4706 O   0  0  0  0  0  0  0  0  0  0  0  0
   14.7346  -10.6537  -20.3678 C   0  0  0  0  0  0  0  0  0  0  0  0
   14.3467  -11.0383  -19.0981 C   0  0  0  0  0  0  0  0  0  0  0  0
   14.9832  -10.5837  -17.9657 C   0  0  0  0  0  0  0  0  0  0  0  0
   16.0422   -9.7176  -18.0806 C   0  0  0  0  0  0  0  0  0  0  0  0
   16.7179   -9.2349  -16.8809 C   0  0  0  0  0  0  0  0  0  0  0  0
   17.9184  -10.0021  -16.4403 C   0  0  2  0  0  0  0  0  0  0  0  0
   17.7320  -11.3846  -16.1716 N   0  0  0  0  0  0  0  0  0  0  0  0
   18.7841   -9.2798  -15.4583 C   0  0  0  0  0  0  0  0  0  0  0  0
   18.6446   -9.4142  -14.2265 O   0  0  0  0  0  0  0  0  0  0  0  0
   16.4549   -9.3142  -19.3245 C   0  0  0  0  0  0  0  0  0  0  0  0
   15.8006   -9.7831  -20.4606 C   0  0  0  0  0  0  0  0  0  0  0  0
   19.7882   -8.4153  -15.9602 N   0  0  0  0  0  0  0  0  0  0  0  0
   20.6565   -7.6207  -15.0756 C   0  0  1  0  0  0  0  0  0  0  0  0
   22.0290   -7.7011  -15.6468 C   0  0  0  0  0  0  0  0  0  0  0  0
   22.7136   -8.9889  -15.4866 C   0  0  0  0  0  0  0  0  0  0  0  0
   22.1298  -10.0320  -14.7598 C   0  0  0  0  0  0  0  0  0  0  0  0
   22.9358  -11.0924  -14.7551 N   0  0  0  0  0  0  0  0  0  0  0  0
   24.0132  -10.7245  -15.4686 C   0  0  0  0  0  0  0  0  0  0  0  0
   23.8788   -9.4676  -15.9048 N   0  0  0  0  0  0  0  0  0  0  0  0
   20.1128   -6.2525  -14.9348 C   0  0  0  0  0  0  0  0  0  0  0  0
   20.4578   -5.3940  -13.9126 O   0  0  0  0  0  0  0  0  0  0  0  0
   19.2878   -5.8477  -15.7958 O   0  0  0  0  0  0  0  0  0  0  0  0
  2  1  1  6
  2  3  1  0
  4  5  2  0
  4  2  1  0
  6  7  1  0
  7  8  2  0
  8  9  1  0
 10  9  2  0
 10 11  1  0
 12 11  1  1
 12 13  1  0
 13  4  1  0
 14 12  1  0
 15 14  2  0
 16 10  1  0
 17  7  1  0
 17 16  2  0
 18 14  1  0
 19 26  1  0
 19 18  1  0
 20 21  1  0
 19 20  1  6
 21 22  2  0
 21 25  1  0
 22 23  1  0
 23 24  1  0
 25 24  2  0
 26 27  1  0
 28 26  2  0
M  END
$$$$
