AYH.pdb
     RDKit          3D

 28 29  0  0  1  0  0  0  0  0999 V2000
   28.1312  -19.8745  -18.6971 C   0  0  0  0  0  0  0  0  0  0  0  0
   28.5867  -21.0314  -17.8512 C   0  0  2  0  0  0  0  0  0  0  0  0
   28.7901  -22.2332  -18.5977 N   0  0  0  0  0  0  0  0  0  0  0  0
   27.7183  -21.2395  -16.6593 C   0  0  0  0  0  0  0  0  0  0  0  0
   26.6794  -21.9320  -16.7735 O   0  0  0  0  0  0  0  0  0  0  0  0
   24.5195  -20.6964   -8.3680 O   0  0  0  0  0  0  0  0  0  0  0  0
   25.3376  -20.6919   -9.4885 C   0  0  0  0  0  0  0  0  0  0  0  0
   25.7519  -19.4875  -10.0254 C   0  0  0  0  0  0  0  0  0  0  0  0
   26.5632  -19.4176  -11.1350 C   0  0  0  0  0  0  0  0  0  0  0  0
   26.9861  -20.5732  -11.7436 C   0  0  0  0  0  0  0  0  0  0  0  0
   27.8462  -20.5006  -12.9200 C   0  0  0  0  0  0  0  0  0  0  0  0
   27.1866  -20.7171  -14.2398 C   0  0  2  0  0  0  0  0  0  0  0  0
   28.0227  -20.6799  -15.3876 N   0  0  0  0  0  0  0  0  0  0  0  0
   25.8731  -20.0194  -14.3932 C   0  0  0  0  0  0  0  0  0  0  0  0
   25.7901  -18.8441  -14.8013 O   0  0  0  0  0  0  0  0  0  0  0  0
   26.5949  -21.7866  -11.2386 C   0  0  0  0  0  0  0  0  0  0  0  0
   25.7739  -21.8406  -10.1154 C   0  0  0  0  0  0  0  0  0  0  0  0
   24.6944  -20.7294  -14.0557 N   0  0  0  0  0  0  0  0  0  0  0  0
   23.3518  -20.1463  -14.2144 C   0  0  1  0  0  0  0  0  0  0  0  0
   23.1103  -20.0335  -15.6791 C   0  0  0  0  0  0  0  0  0  0  0  0
   21.7877  -19.5347  -16.0725 C   0  0  0  0  0  0  0  0  0  0  0  0
   21.3948  -18.2236  -15.7833 C   0  0  0  0  0  0  0  0  0  0  0  0
   20.1613  -18.0060  -16.2367 N   0  0  0  0  0  0  0  0  0  0  0  0
   19.7807  -19.1629  -16.8040 C   0  0  0  0  0  0  0  0  0  0  0  0
   20.7535  -20.0751  -16.7050 N   0  0  0  0  0  0  0  0  0  0  0  0
   22.3611  -20.9573  -13.4740 C   0  0  0  0  0  0  0  0  0  0  0  0
   21.2019  -20.4424  -12.9337 O   0  0  0  0  0  0  0  0  0  0  0  0
   22.5881  -22.1873  -13.3276 O   0  0  0  0  0  0  0  0  0  0  0  0
  2  1  1  6
  2  3  1  0
  4  5  2  0
  4  2  1  0
  6  7  1  0
  7  8  2  0
  8  9  1  0
 10  9  2  0
 10 11  1  0
 12 11  1  1
 12 13  1  0
 13  4  1  0
 14 12  1  0
 15 14  2  0
 16 10  1  0
 17  7  1  0
 17 16  2  0
 18 14  1  0
 19 26  1  0
 19 18  1  0
 20 21  1  0
 19 20  1  6
 21 22  2  0
 21 25  1  0
 22 23  1  0
 23 24  1  0
 25 24  2  0
 26 27  1  0
 28 26  2  0
M  END
$$$$
