AYH.pdb
     RDKit          3D

 28 29  0  0  1  0  0  0  0  0999 V2000
   20.7099  -13.9090  -17.3811 C   0  0  0  0  0  0  0  0  0  0  0  0
   21.0794  -12.7989  -16.4362 C   0  0  2  0  0  0  0  0  0  0  0  0
   20.6922  -13.0536  -15.0842 N   0  0  0  0  0  0  0  0  0  0  0  0
   20.6226  -11.4664  -16.9199 C   0  0  0  0  0  0  0  0  0  0  0  0
   20.9493  -11.0888  -18.0700 O   0  0  0  0  0  0  0  0  0  0  0  0
   15.5242  -11.8851  -20.9517 O   0  0  0  0  0  0  0  0  0  0  0  0
   16.0998  -11.2336  -19.8705 C   0  0  0  0  0  0  0  0  0  0  0  0
   16.7558  -10.0331  -20.0683 C   0  0  0  0  0  0  0  0  0  0  0  0
   17.3465   -9.3396  -19.0366 C   0  0  0  0  0  0  0  0  0  0  0  0
   17.2931   -9.8413  -17.7598 C   0  0  0  0  0  0  0  0  0  0  0  0
   17.9189   -9.1071  -16.6652 C   0  0  0  0  0  0  0  0  0  0  0  0
   19.3876   -9.2983  -16.4911 C   0  0  2  0  0  0  0  0  0  0  0  0
   19.8250  -10.5990  -16.1235 N   0  0  0  0  0  0  0  0  0  0  0  0
   20.0741   -8.1772  -15.7789 C   0  0  0  0  0  0  0  0  0  0  0  0
   20.3435   -8.2303  -14.5626 O   0  0  0  0  0  0  0  0  0  0  0  0
   16.6505  -11.0299  -17.5259 C   0  0  0  0  0  0  0  0  0  0  0  0
   16.0578  -11.7196  -18.5802 C   0  0  0  0  0  0  0  0  0  0  0  0
   20.4191   -7.0225  -16.5238 N   0  0  0  0  0  0  0  0  0  0  0  0
   21.0568   -5.8484  -15.9052 C   0  0  1  0  0  0  0  0  0  0  0  0
   21.4649   -4.9517  -17.0214 C   0  0  0  0  0  0  0  0  0  0  0  0
   22.0276   -3.6553  -16.6269 C   0  0  0  0  0  0  0  0  0  0  0  0
   21.3293   -2.4650  -16.8560 C   0  0  0  0  0  0  0  0  0  0  0  0
   22.0382   -1.4274  -16.4144 N   0  0  0  0  0  0  0  0  0  0  0  0
   23.1679   -1.9547  -15.9136 C   0  0  0  0  0  0  0  0  0  0  0  0
   23.1599   -3.2858  -16.0414 N   0  0  0  0  0  0  0  0  0  0  0  0
   20.1407   -5.2428  -14.9145 C   0  0  0  0  0  0  0  0  0  0  0  0
   18.7665   -5.3132  -15.0006 O   0  0  0  0  0  0  0  0  0  0  0  0
   20.6427   -4.6275  -13.9371 O   0  0  0  0  0  0  0  0  0  0  0  0
  2  1  1  6
  2  3  1  0
  4  5  2  0
  4  2  1  0
  6  7  1  0
  7  8  2  0
  8  9  1  0
 10  9  2  0
 10 11  1  0
 12 11  1  1
 12 13  1  0
 13  4  1  0
 14 12  1  0
 15 14  2  0
 16 10  1  0
 17  7  1  0
 17 16  2  0
 18 14  1  0
 19 26  1  0
 19 18  1  0
 20 21  1  0
 19 20  1  6
 21 22  2  0
 21 25  1  0
 22 23  1  0
 23 24  1  0
 25 24  2  0
 26 27  1  0
 28 26  2  0
M  END
$$$$
