AYH.pdb
     RDKit          3D

 28 29  0  0  1  0  0  0  0  0999 V2000
   25.7089  -28.1875  -22.3835 C   0  0  0  0  0  0  0  0  0  0  0  0
   25.4681  -28.7066  -20.9927 C   0  0  2  0  0  0  0  0  0  0  0  0
   25.1088  -27.6840  -20.0610 N   0  0  0  0  0  0  0  0  0  0  0  0
   26.5878  -29.5577  -20.5030 C   0  0  0  0  0  0  0  0  0  0  0  0
   26.9560  -30.5388  -21.1915 O   0  0  0  0  0  0  0  0  0  0  0  0
   33.9378  -32.3652  -16.5237 O   0  0  0  0  0  0  0  0  0  0  0  0
   32.8669  -31.6197  -16.9951 C   0  0  0  0  0  0  0  0  0  0  0  0
   32.7660  -31.3506  -18.3471 C   0  0  0  0  0  0  0  0  0  0  0  0
   31.7280  -30.6173  -18.8752 C   0  0  0  0  0  0  0  0  0  0  0  0
   30.7491  -30.1275  -18.0466 C   0  0  0  0  0  0  0  0  0  0  0  0
   29.6481  -29.3498  -18.6051 C   0  0  0  0  0  0  0  0  0  0  0  0
   28.3413  -30.0544  -18.7456 C   0  0  2  0  0  0  0  0  0  0  0  0
   27.2609  -29.3003  -19.2768 N   0  0  0  0  0  0  0  0  0  0  0  0
   27.9885  -30.9334  -17.5888 C   0  0  0  0  0  0  0  0  0  0  0  0
   27.2411  -30.5492  -16.6676 O   0  0  0  0  0  0  0  0  0  0  0  0
   30.8164  -30.3747  -16.6994 C   0  0  0  0  0  0  0  0  0  0  0  0
   31.8730  -31.1184  -16.1805 C   0  0  0  0  0  0  0  0  0  0  0  0
   28.5326  -32.2410  -17.5512 N   0  0  0  0  0  0  0  0  0  0  0  0
   28.1266  -33.2336  -16.5423 C   0  0  1  0  0  0  0  0  0  0  0  0
   26.7381  -32.8810  -16.1372 C   0  0  0  0  0  0  0  0  0  0  0  0
   26.0980  -33.7958  -15.1853 C   0  0  0  0  0  0  0  0  0  0  0  0
   26.8167  -34.8380  -14.5901 C   0  0  0  0  0  0  0  0  0  0  0  0
   26.0263  -35.5271  -13.7687 N   0  0  0  0  0  0  0  0  0  0  0  0
   24.8257  -34.9288  -13.8440 C   0  0  0  0  0  0  0  0  0  0  0  0
   24.8703  -33.8947  -14.6906 N   0  0  0  0  0  0  0  0  0  0  0  0
   28.2962  -34.5992  -17.0844 C   0  0  0  0  0  0  0  0  0  0  0  0
   28.8287  -34.8678  -18.3274 O   0  0  0  0  0  0  0  0  0  0  0  0
   27.9338  -35.5723  -16.3719 O   0  0  0  0  0  0  0  0  0  0  0  0
  2  1  1  6
  2  3  1  0
  4  5  2  0
  4  2  1  0
  6  7  1  0
  7  8  2  0
  8  9  1  0
 10  9  2  0
 10 11  1  0
 12 11  1  1
 12 13  1  0
 13  4  1  0
 14 12  1  0
 15 14  2  0
 16 10  1  0
 17  7  1  0
 17 16  2  0
 18 14  1  0
 19 26  1  0
 19 18  1  0
 20 21  1  0
 19 20  1  6
 21 22  2  0
 21 25  1  0
 22 23  1  0
 23 24  1  0
 25 24  2  0
 26 27  1  0
 28 26  2  0
M  END
$$$$
