AYH.pdb
     RDKit          3D

 28 29  0  0  1  0  0  0  0  0999 V2000
   19.5203  -12.4702  -18.7036 C   0  0  0  0  0  0  0  0  0  0  0  0
   18.3948  -11.9111  -17.8777 C   0  0  2  0  0  0  0  0  0  0  0  0
   17.1304  -12.5141  -18.1614 N   0  0  0  0  0  0  0  0  0  0  0  0
   18.3414  -10.4235  -17.9243 C   0  0  0  0  0  0  0  0  0  0  0  0
   18.1828   -9.8519  -19.0289 O   0  0  0  0  0  0  0  0  0  0  0  0
   12.5209  -10.7356  -16.4979 O   0  0  0  0  0  0  0  0  0  0  0  0
   13.6758   -9.9725  -16.4054 C   0  0  0  0  0  0  0  0  0  0  0  0
   13.9758   -9.0657  -17.4046 C   0  0  0  0  0  0  0  0  0  0  0  0
   15.1056   -8.2806  -17.3699 C   0  0  0  0  0  0  0  0  0  0  0  0
   15.9772   -8.3872  -16.3145 C   0  0  0  0  0  0  0  0  0  0  0  0
   17.1754   -7.5555  -16.2764 C   0  0  0  0  0  0  0  0  0  0  0  0
   18.4456   -8.1996  -16.7187 C   0  0  2  0  0  0  0  0  0  0  0  0
   18.4641   -9.6195  -16.7574 N   0  0  0  0  0  0  0  0  0  0  0  0
   19.6818   -7.5675  -16.1641 C   0  0  0  0  0  0  0  0  0  0  0  0
   20.1936   -7.9416  -15.0904 O   0  0  0  0  0  0  0  0  0  0  0  0
   15.7120   -9.2763  -15.3047 C   0  0  0  0  0  0  0  0  0  0  0  0
   14.5647  -10.0636  -15.3545 C   0  0  0  0  0  0  0  0  0  0  0  0
   20.2763   -6.5076  -16.8925 N   0  0  0  0  0  0  0  0  0  0  0  0
   21.5078   -5.8373  -16.4429 C   0  0  1  0  0  0  0  0  0  0  0  0
   22.0330   -5.0864  -17.6162 C   0  0  0  0  0  0  0  0  0  0  0  0
   23.2697   -4.3300  -17.3897 C   0  0  0  0  0  0  0  0  0  0  0  0
   24.2028   -4.7412  -16.4320 C   0  0  0  0  0  0  0  0  0  0  0  0
   25.2358   -3.9004  -16.4104 N   0  0  0  0  0  0  0  0  0  0  0  0
   24.9590   -2.9717  -17.3410 C   0  0  0  0  0  0  0  0  0  0  0  0
   23.7842   -3.2299  -17.9250 N   0  0  0  0  0  0  0  0  0  0  0  0
   21.2244   -5.0162  -15.2459 C   0  0  0  0  0  0  0  0  0  0  0  0
   22.1075   -4.8611  -14.1985 O   0  0  0  0  0  0  0  0  0  0  0  0
   20.1144   -4.4255  -15.1778 O   0  0  0  0  0  0  0  0  0  0  0  0
  2  1  1  6
  2  3  1  0
  4  5  2  0
  4  2  1  0
  6  7  1  0
  7  8  2  0
  8  9  1  0
 10  9  2  0
 10 11  1  0
 12 11  1  1
 12 13  1  0
 13  4  1  0
 14 12  1  0
 15 14  2  0
 16 10  1  0
 17  7  1  0
 17 16  2  0
 18 14  1  0
 19 26  1  0
 19 18  1  0
 20 21  1  0
 19 20  1  6
 21 22  2  0
 21 25  1  0
 22 23  1  0
 23 24  1  0
 25 24  2  0
 26 27  1  0
 28 26  2  0
M  END
$$$$
