HTK.pdb
     RDKit          3D

 27 27  0  0  1  0  0  0  0  0999 V2000
   17.4173  -12.8185  -16.1374 N   0  0  0  0  0  0  0  0  0  0  0  0
   18.6485  -12.0960  -16.2937 C   0  0  1  0  0  0  0  0  0  0  0  0
   19.2445  -12.3680  -17.6480 C   0  0  0  0  0  0  0  0  0  0  0  0
   19.7484  -13.7601  -17.6562 C   0  0  0  0  0  0  0  0  0  0  0  0
   21.0755  -14.1502  -17.5047 C   0  0  0  0  0  0  0  0  0  0  0  0
   21.0818  -15.4858  -17.5744 N   0  0  0  0  0  0  0  0  0  0  0  0
   19.8486  -15.9703  -17.7599 C   0  0  0  0  0  0  0  0  0  0  0  0
   19.0464  -14.8785  -17.8062 N   0  0  0  0  0  0  0  0  0  0  0  0
   18.3493  -10.6239  -16.2386 C   0  0  0  0  0  0  0  0  0  0  0  0
   17.4722  -10.1228  -16.9812 O   0  0  0  0  0  0  0  0  0  0  0  0
   16.6587   -8.8008  -14.1937 C   0  0  0  0  0  0  0  0  0  0  0  0
   18.0047   -8.1386  -13.9747 C   0  0  1  0  0  0  0  0  0  0  0  0
   18.6345   -8.8501  -12.9475 O   0  0  0  0  0  0  0  0  0  0  0  0
   18.8206   -8.3607  -15.2243 C   0  0  2  0  0  0  0  0  0  0  0  0
   19.0507   -9.7764  -15.3488 N   0  0  0  0  0  0  0  0  0  0  0  0
   20.0932   -7.6430  -15.2239 C   0  0  0  0  0  0  0  0  0  0  0  0
   21.1121   -8.2437  -14.7774 O   0  0  0  0  0  0  0  0  0  0  0  0
   20.2290   -6.2978  -15.7053 N   0  0  0  0  0  0  0  0  0  0  0  0
   21.5140   -5.6722  -15.6197 C   0  0  1  0  0  0  0  0  0  0  0  0
   21.6774   -4.5270  -16.5911 C   0  0  0  0  0  0  0  0  0  0  0  0
   23.0294   -3.9045  -16.3349 C   0  0  0  0  0  0  0  0  0  0  0  0
   23.2744   -2.6798  -17.1510 C   0  0  0  0  0  0  0  0  0  0  0  0
   24.6603   -2.1072  -16.9499 C   0  0  0  0  0  0  0  0  0  0  0  0
   24.8663   -0.9876  -17.8485 N   0  0  0  0  0  0  0  0  0  0  0  0
   21.7749   -5.2026  -14.2125 C   0  0  0  0  0  0  0  0  0  0  0  0
   23.0026   -5.3785  -13.5994 O   0  0  0  0  0  0  0  0  0  0  0  0
   20.8689   -4.6326  -13.5562 O   0  0  0  0  0  0  0  0  0  0  0  0
  2  1  1  6
  2  3  1  0
  3  4  1  0
  4  8  1  0
  5  6  1  0
  5  4  2  0
  6  7  1  0
  7  8  2  0
  9 10  2  0
  9  2  1  0
 12 11  1  6
 12 13  1  0
 12 14  1  0
 14 15  1  1
 15  9  1  0
 16 14  1  0
 16 18  1  0
 17 16  2  0
 19 18  1  0
 19 25  1  0
 19 20  1  6
 21 20  1  0
 22 21  1  0
 23 22  1  0
 24 23  1  0
 25 26  1  0
 27 25  2  0
M  END
$$$$
