HTK.pdb
     RDKit          3D

 27 27  0  0  1  0  0  0  0  0999 V2000
   19.5272  -13.3600  -16.5442 N   0  0  0  0  0  0  0  0  0  0  0  0
   19.7584  -12.1230  -17.2361 C   0  0  1  0  0  0  0  0  0  0  0  0
   18.5856  -11.7918  -18.1181 C   0  0  0  0  0  0  0  0  0  0  0  0
   18.5182  -12.8081  -19.1926 C   0  0  0  0  0  0  0  0  0  0  0  0
   19.3807  -12.9066  -20.2801 C   0  0  0  0  0  0  0  0  0  0  0  0
   18.9615  -13.9565  -20.9946 N   0  0  0  0  0  0  0  0  0  0  0  0
   17.8912  -14.5315  -20.4345 C   0  0  0  0  0  0  0  0  0  0  0  0
   17.6415  -13.7984  -19.3219 N   0  0  0  0  0  0  0  0  0  0  0  0
   19.8635  -11.0197  -16.2207 C   0  0  0  0  0  0  0  0  0  0  0  0
   19.0749  -10.9710  -15.2473 O   0  0  0  0  0  0  0  0  0  0  0  0
   22.7989  -10.2617  -14.3760 C   0  0  0  0  0  0  0  0  0  0  0  0
   22.4909   -8.9193  -15.0093 C   0  0  1  0  0  0  0  0  0  0  0  0
   23.2351   -8.8589  -16.1928 O   0  0  0  0  0  0  0  0  0  0  0  0
   21.0359   -8.9368  -15.4084 C   0  0  2  0  0  0  0  0  0  0  0  0
   20.8532  -10.0160  -16.3435 N   0  0  0  0  0  0  0  0  0  0  0  0
   20.5784   -7.6798  -15.9963 C   0  0  0  0  0  0  0  0  0  0  0  0
   20.2903   -7.6716  -17.2272 O   0  0  0  0  0  0  0  0  0  0  0  0
   20.4452   -6.4684  -15.2383 N   0  0  0  0  0  0  0  0  0  0  0  0
   19.9326   -5.3064  -15.8994 C   0  0  1  0  0  0  0  0  0  0  0  0
   18.6080   -5.5535  -16.5821 C   0  0  0  0  0  0  0  0  0  0  0  0
   18.2107   -4.2732  -17.2779 C   0  0  0  0  0  0  0  0  0  0  0  0
   16.9088   -4.3782  -17.9989 C   0  0  0  0  0  0  0  0  0  0  0  0
   16.5785   -3.1373  -18.7991 C   0  0  0  0  0  0  0  0  0  0  0  0
   15.4401   -3.3945  -19.6601 N   0  0  0  0  0  0  0  0  0  0  0  0
   19.8121   -4.1618  -14.9278 C   0  0  0  0  0  0  0  0  0  0  0  0
   20.0274   -4.3290  -13.5714 O   0  0  0  0  0  0  0  0  0  0  0  0
   19.5090   -3.0135  -15.3354 O   0  0  0  0  0  0  0  0  0  0  0  0
  2  1  1  1
  2  3  1  0
  3  4  1  0
  4  8  1  0
  5  6  1  0
  5  4  2  0
  6  7  1  0
  7  8  2  0
  9 10  2  0
  9  2  1  0
 12 11  1  6
 12 13  1  0
 12 14  1  0
 14 15  1  6
 15  9  1  0
 16 14  1  0
 16 18  1  0
 17 16  2  0
 19 18  1  0
 19 25  1  0
 19 20  1  1
 21 20  1  0
 22 21  1  0
 23 22  1  0
 24 23  1  0
 25 26  1  0
 27 25  2  0
M  END
$$$$
