HTK.pdb
     RDKit          3D

 27 27  0  0  1  0  0  0  0  0999 V2000
   19.3400  -10.4548  -16.2368 N   0  0  0  0  0  0  0  0  0  0  0  0
   18.3419  -10.6380  -15.2207 C   0  0  1  0  0  0  0  0  0  0  0  0
   18.2181  -12.0951  -14.8678 C   0  0  0  0  0  0  0  0  0  0  0  0
   17.5031  -12.7752  -15.9715 C   0  0  0  0  0  0  0  0  0  0  0  0
   16.3727  -12.2996  -16.6290 C   0  0  0  0  0  0  0  0  0  0  0  0
   16.0608  -13.2201  -17.5477 N   0  0  0  0  0  0  0  0  0  0  0  0
   16.9166  -14.2481  -17.5181 C   0  0  0  0  0  0  0  0  0  0  0  0
   17.7965  -13.9434  -16.5331 N   0  0  0  0  0  0  0  0  0  0  0  0
   18.7912   -9.9261  -13.9753 C   0  0  0  0  0  0  0  0  0  0  0  0
   19.9787  -10.0148  -13.5829 O   0  0  0  0  0  0  0  0  0  0  0  0
   20.3891   -8.0409  -13.2528 C   0  0  0  0  0  0  0  0  0  0  0  0
   19.2419   -7.2872  -12.6095 C   0  0  1  0  0  0  0  0  0  0  0  0
   18.6033   -6.5840  -13.6371 O   0  0  0  0  0  0  0  0  0  0  0  0
   18.2583   -8.3149  -12.1064 C   0  0  2  0  0  0  0  0  0  0  0  0
   17.8842   -9.1433  -13.2227 N   0  0  0  0  0  0  0  0  0  0  0  0
   17.0679   -7.7302  -11.4934 C   0  0  0  0  0  0  0  0  0  0  0  0
   16.0669   -7.5112  -12.2339 O   0  0  0  0  0  0  0  0  0  0  0  0
   16.9927   -7.3989  -10.0990 N   0  0  0  0  0  0  0  0  0  0  0  0
   15.7602   -6.8773   -9.5903 C   0  0  1  0  0  0  0  0  0  0  0  0
   14.9387   -7.9135   -8.8603 C   0  0  0  0  0  0  0  0  0  0  0  0
   13.6248   -7.2694   -8.4863 C   0  0  0  0  0  0  0  0  0  0  0  0
   12.6874   -8.2063   -7.8012 C   0  0  0  0  0  0  0  0  0  0  0  0
   11.3628   -7.5626   -7.4538 C   0  0  0  0  0  0  0  0  0  0  0  0
   10.5019   -8.5289   -6.7993 N   0  0  0  0  0  0  0  0  0  0  0  0
   16.0222   -5.6949   -8.6947 C   0  0  0  0  0  0  0  0  0  0  0  0
   17.1802   -5.5886   -7.9450 O   0  0  0  0  0  0  0  0  0  0  0  0
   15.1815   -4.7663   -8.6085 O   0  0  0  0  0  0  0  0  0  0  0  0
  2  1  1  6
  2  3  1  0
  3  4  1  0
  4  8  1  0
  5  6  1  0
  5  4  2  0
  6  7  1  0
  7  8  2  0
  9 10  2  0
  9  2  1  0
 12 11  1  6
 12 13  1  0
 12 14  1  0
 14 15  1  6
 15  9  1  0
 16 14  1  0
 16 18  1  0
 17 16  2  0
 19 18  1  0
 19 25  1  0
 19 20  1  1
 21 20  1  0
 22 21  1  0
 23 22  1  0
 24 23  1  0
 25 26  1  0
 27 25  2  0
M  END
$$$$
