HTK.pdb
     RDKit          3D

 27 27  0  0  1  0  0  0  0  0999 V2000
   26.4747  -19.3460  -12.7611 N   0  0  0  0  0  0  0  0  0  0  0  0
   25.1836  -19.6673  -13.3016 C   0  0  1  0  0  0  0  0  0  0  0  0
   24.1060  -19.3534  -12.2999 C   0  0  0  0  0  0  0  0  0  0  0  0
   24.4636  -20.0083  -11.0212 C   0  0  0  0  0  0  0  0  0  0  0  0
   24.2333  -21.3407  -10.6925 C   0  0  0  0  0  0  0  0  0  0  0  0
   24.7093  -21.5069   -9.4538 N   0  0  0  0  0  0  0  0  0  0  0  0
   25.2263  -20.3702   -8.9735 C   0  0  0  0  0  0  0  0  0  0  0  0
   25.0593  -19.4623   -9.9661 N   0  0  0  0  0  0  0  0  0  0  0  0
   24.9341  -18.7907  -14.4970 C   0  0  0  0  0  0  0  0  0  0  0  0
   24.7281  -17.5621  -14.3554 O   0  0  0  0  0  0  0  0  0  0  0  0
   26.8631  -17.4095  -16.5316 C   0  0  0  0  0  0  0  0  0  0  0  0
   26.1466  -18.2735  -17.5505 C   0  0  1  0  0  0  0  0  0  0  0  0
   26.8287  -19.4948  -17.5849 O   0  0  0  0  0  0  0  0  0  0  0  0
   24.7687  -18.5578  -17.0052 C   0  0  2  0  0  0  0  0  0  0  0  0
   24.9271  -19.3342  -15.8033 N   0  0  0  0  0  0  0  0  0  0  0  0
   23.9034  -19.2626  -17.9482 C   0  0  0  0  0  0  0  0  0  0  0  0
   23.8478  -20.5233  -17.8730 O   0  0  0  0  0  0  0  0  0  0  0  0
   23.1234  -18.5860  -18.9451 N   0  0  0  0  0  0  0  0  0  0  0  0
   22.2641  -19.3681  -19.7815 C   0  0  1  0  0  0  0  0  0  0  0  0
   21.4263  -18.5269  -20.7155 C   0  0  0  0  0  0  0  0  0  0  0  0
   20.5874  -19.4697  -21.5453 C   0  0  0  0  0  0  0  0  0  0  0  0
   19.7532  -18.7685  -22.5644 C   0  0  0  0  0  0  0  0  0  0  0  0
   18.8406  -19.7069  -23.3232 C   0  0  0  0  0  0  0  0  0  0  0  0
   17.9648  -18.9460  -24.1936 N   0  0  0  0  0  0  0  0  0  0  0  0
   23.0684  -20.3721  -20.5650 C   0  0  0  0  0  0  0  0  0  0  0  0
   24.3323  -20.0803  -21.0462 O   0  0  0  0  0  0  0  0  0  0  0  0
   22.6008  -21.5132  -20.8014 O   0  0  0  0  0  0  0  0  0  0  0  0
  2  1  1  1
  2  3  1  0
  3  4  1  0
  4  8  1  0
  5  6  1  0
  5  4  2  0
  6  7  1  0
  7  8  2  0
  9 10  2  0
  9  2  1  0
 12 11  1  1
 12 13  1  0
 12 14  1  0
 14 15  1  1
 15  9  1  0
 16 14  1  0
 16 18  1  0
 17 16  2  0
 19 18  1  0
 19 25  1  0
 19 20  1  6
 21 20  1  0
 22 21  1  0
 23 22  1  0
 24 23  1  0
 25 26  1  0
 27 25  2  0
M  END
$$$$
