HTK.pdb
     RDKit          3D

 27 27  0  0  1  0  0  0  0  0999 V2000
   17.2364  -24.1284  -10.7452 N   0  0  0  0  0  0  0  0  0  0  0  0
   18.3933  -24.3176   -9.9157 C   0  0  1  0  0  0  0  0  0  0  0  0
   19.4554  -23.3109  -10.2647 C   0  0  0  0  0  0  0  0  0  0  0  0
   19.8735  -23.5517  -11.6644 C   0  0  0  0  0  0  0  0  0  0  0  0
   19.4360  -24.5897  -12.4813 C   0  0  0  0  0  0  0  0  0  0  0  0
   20.0601  -24.4304  -13.6533 N   0  0  0  0  0  0  0  0  0  0  0  0
   20.8645  -23.3614  -13.6360 C   0  0  0  0  0  0  0  0  0  0  0  0
   20.7270  -22.8395  -12.3925 N   0  0  0  0  0  0  0  0  0  0  0  0
   18.0042  -24.0607   -8.4867 C   0  0  0  0  0  0  0  0  0  0  0  0
   17.7514  -22.8974   -8.0934 O   0  0  0  0  0  0  0  0  0  0  0  0
   15.3140  -24.7418   -4.9746 C   0  0  0  0  0  0  0  0  0  0  0  0
   15.9424  -24.5806   -6.3448 C   0  0  1  0  0  0  0  0  0  0  0  0
   15.9392  -23.2094   -6.6239 O   0  0  0  0  0  0  0  0  0  0  0  0
   17.3871  -24.9991   -6.2258 C   0  0  2  0  0  0  0  0  0  0  0  0
   17.9156  -25.1253   -7.5589 N   0  0  0  0  0  0  0  0  0  0  0  0
   17.5727  -26.2485   -5.4914 C   0  0  0  0  0  0  0  0  0  0  0  0
   17.1865  -27.3206   -6.0389 O   0  0  0  0  0  0  0  0  0  0  0  0
   18.1697  -26.3042   -4.1874 N   0  0  0  0  0  0  0  0  0  0  0  0
   18.1860  -27.5605   -3.5010 C   0  0  1  0  0  0  0  0  0  0  0  0
   19.1025  -27.5638   -2.3003 C   0  0  0  0  0  0  0  0  0  0  0  0
   19.0405  -28.9423   -1.6862 C   0  0  0  0  0  0  0  0  0  0  0  0
   19.9139  -29.0883   -0.4855 C   0  0  0  0  0  0  0  0  0  0  0  0
   19.8366  -30.4670    0.1331 C   0  0  0  0  0  0  0  0  0  0  0  0
   20.7101  -30.5384    1.2886 N   0  0  0  0  0  0  0  0  0  0  0  0
   16.7902  -27.9515   -3.0916 C   0  0  0  0  0  0  0  0  0  0  0  0
   16.3653  -29.2680   -3.1093 O   0  0  0  0  0  0  0  0  0  0  0  0
   15.9700  -27.0765   -2.7198 O   0  0  0  0  0  0  0  0  0  0  0  0
  2  1  1  6
  2  3  1  0
  3  4  1  0
  4  8  1  0
  5  6  1  0
  5  4  2  0
  6  7  1  0
  7  8  2  0
  9 10  2  0
  9  2  1  0
 12 11  1  1
 12 13  1  0
 12 14  1  0
 14 15  1  6
 15  9  1  0
 16 14  1  0
 16 18  1  0
 17 16  2  0
 19 18  1  0
 19 25  1  0
 19 20  1  1
 21 20  1  0
 22 21  1  0
 23 22  1  0
 24 23  1  0
 25 26  1  0
 27 25  2  0
M  END
$$$$
