HTK.pdb
     RDKit          3D

 27 27  0  0  1  0  0  0  0  0999 V2000
   26.1765  -20.4372  -15.0713 N   0  0  0  0  0  0  0  0  0  0  0  0
   24.7873  -20.3414  -14.7203 C   0  0  1  0  0  0  0  0  0  0  0  0
   24.6162  -20.4629  -13.2307 C   0  0  0  0  0  0  0  0  0  0  0  0
   25.1435  -21.7822  -12.8145 C   0  0  0  0  0  0  0  0  0  0  0  0
   25.6695  -22.7557  -13.6583 C   0  0  0  0  0  0  0  0  0  0  0  0
   26.0232  -23.7786  -12.8727 N   0  0  0  0  0  0  0  0  0  0  0  0
   25.7574  -23.5207  -11.5870 C   0  0  0  0  0  0  0  0  0  0  0  0
   25.2141  -22.2788  -11.5838 N   0  0  0  0  0  0  0  0  0  0  0  0
   24.2901  -18.9759  -15.1047 C   0  0  0  0  0  0  0  0  0  0  0  0
   25.0495  -17.9801  -15.0449 O   0  0  0  0  0  0  0  0  0  0  0  0
   24.6800  -17.3386  -17.1751 C   0  0  0  0  0  0  0  0  0  0  0  0
   23.2016  -17.4473  -17.4922 C   0  0  1  0  0  0  0  0  0  0  0  0
   23.0319  -18.6512  -18.1850 O   0  0  0  0  0  0  0  0  0  0  0  0
   22.4725  -17.5922  -16.1791 C   0  0  2  0  0  0  0  0  0  0  0  0
   22.9573  -18.7880  -15.5409 N   0  0  0  0  0  0  0  0  0  0  0  0
   21.0199  -17.6534  -16.3236 C   0  0  0  0  0  0  0  0  0  0  0  0
   20.4932  -18.7817  -16.5423 O   0  0  0  0  0  0  0  0  0  0  0  0
   20.1780  -16.4950  -16.2279 N   0  0  0  0  0  0  0  0  0  0  0  0
   18.7609  -16.6754  -16.3229 C   0  0  1  0  0  0  0  0  0  0  0  0
   17.9845  -15.6996  -15.4705 C   0  0  0  0  0  0  0  0  0  0  0  0
   16.5164  -15.9300  -15.7404 C   0  0  0  0  0  0  0  0  0  0  0  0
   15.6340  -14.9297  -15.0720 C   0  0  0  0  0  0  0  0  0  0  0  0
   14.1653  -15.1622  -15.3514 C   0  0  0  0  0  0  0  0  0  0  0  0
   13.3853  -14.0483  -14.8473 N   0  0  0  0  0  0  0  0  0  0  0  0
   18.3162  -16.5809  -17.7589 C   0  0  0  0  0  0  0  0  0  0  0  0
   19.0976  -15.9761  -18.7274 O   0  0  0  0  0  0  0  0  0  0  0  0
   17.2094  -17.0566  -18.1125 O   0  0  0  0  0  0  0  0  0  0  0  0
  2  1  1  1
  2  3  1  0
  3  4  1  0
  4  8  1  0
  5  6  1  0
  5  4  2  0
  6  7  1  0
  7  8  2  0
  9 10  2  0
  9  2  1  0
 12 11  1  1
 12 13  1  0
 12 14  1  0
 14 15  1  6
 15  9  1  0
 16 14  1  0
 16 18  1  0
 17 16  2  0
 19 18  1  0
 19 25  1  0
 19 20  1  1
 21 20  1  0
 22 21  1  0
 23 22  1  0
 24 23  1  0
 25 26  1  0
 27 25  2  0
M  END
$$$$
