HTK.pdb
     RDKit          3D

 27 27  0  0  1  0  0  0  0  0999 V2000
   25.0920  -11.8465  -16.9629 N   0  0  0  0  0  0  0  0  0  0  0  0
   24.9792  -10.4562  -16.6215 C   0  0  1  0  0  0  0  0  0  0  0  0
   25.6142   -9.6045  -17.6866 C   0  0  0  0  0  0  0  0  0  0  0  0
   27.0713   -9.8668  -17.6754 C   0  0  0  0  0  0  0  0  0  0  0  0
   27.7134  -10.9405  -18.2846 C   0  0  0  0  0  0  0  0  0  0  0  0
   29.0172  -10.7898  -18.0277 N   0  0  0  0  0  0  0  0  0  0  0  0
   29.2466   -9.6930  -17.2966 C   0  0  0  0  0  0  0  0  0  0  0  0
   28.0237   -9.1440  -17.0952 N   0  0  0  0  0  0  0  0  0  0  0  0
   23.5218  -10.0899  -16.5841 C   0  0  0  0  0  0  0  0  0  0  0  0
   22.6978  -10.6736  -17.3271 O   0  0  0  0  0  0  0  0  0  0  0  0
   21.2601  -10.5673  -14.0799 C   0  0  0  0  0  0  0  0  0  0  0  0
   21.2239   -9.0556  -14.1870 C   0  0  1  0  0  0  0  0  0  0  0  0
   22.2021   -8.5723  -13.3107 O   0  0  0  0  0  0  0  0  0  0  0  0
   21.6709   -8.6957  -15.5824 C   0  0  2  0  0  0  0  0  0  0  0  0
   23.0522   -9.0806  -15.7107 N   0  0  0  0  0  0  0  0  0  0  0  0
   21.5134   -7.2775  -15.8965 C   0  0  0  0  0  0  0  0  0  0  0  0
   22.5368   -6.5383  -15.8285 O   0  0  0  0  0  0  0  0  0  0  0  0
   20.2559   -6.6984  -16.2748 N   0  0  0  0  0  0  0  0  0  0  0  0
   20.1987   -5.2856  -16.4993 C   0  0  1  0  0  0  0  0  0  0  0  0
   20.1125   -4.9249  -17.9636 C   0  0  0  0  0  0  0  0  0  0  0  0
   20.1530   -3.4183  -18.0626 C   0  0  0  0  0  0  0  0  0  0  0  0
   20.0581   -2.9209  -19.4660 C   0  0  0  0  0  0  0  0  0  0  0  0
   20.2132   -1.4194  -19.5689 C   0  0  0  0  0  0  0  0  0  0  0  0
   20.2546   -1.0226  -20.9633 N   0  0  0  0  0  0  0  0  0  0  0  0
   19.0428   -4.6821  -15.7454 C   0  0  0  0  0  0  0  0  0  0  0  0
   19.0761   -3.3810  -15.2759 O   0  0  0  0  0  0  0  0  0  0  0  0
   18.0082   -5.3582  -15.5239 O   0  0  0  0  0  0  0  0  0  0  0  0
  2  1  1  6
  2  3  1  0
  3  4  1  0
  4  8  1  0
  5  6  1  0
  5  4  2  0
  6  7  1  0
  7  8  2  0
  9 10  2  0
  9  2  1  0
 12 11  1  6
 12 13  1  0
 12 14  1  0
 14 15  1  1
 15  9  1  0
 16 14  1  0
 16 18  1  0
 17 16  2  0
 19 18  1  0
 19 25  1  0
 19 20  1  6
 21 20  1  0
 22 21  1  0
 23 22  1  0
 24 23  1  0
 25 26  1  0
 27 25  2  0
M  END
$$$$
