HTK.pdb
     RDKit          3D

 27 27  0  0  1  0  0  0  0  0999 V2000
   12.9030  -21.8627   -6.2230 N   0  0  0  0  0  0  0  0  0  0  0  0
   13.2619  -22.2188   -4.8789 C   0  0  1  0  0  0  0  0  0  0  0  0
   12.0522  -22.1702   -3.9859 C   0  0  0  0  0  0  0  0  0  0  0  0
   11.7276  -20.7486   -3.7301 C   0  0  0  0  0  0  0  0  0  0  0  0
   10.9504  -19.9284   -4.5422 C   0  0  0  0  0  0  0  0  0  0  0  0
   10.9150  -18.7342   -3.9412 N   0  0  0  0  0  0  0  0  0  0  0  0
   11.6172  -18.7404   -2.8024 C   0  0  0  0  0  0  0  0  0  0  0  0
   12.1073  -20.0001   -2.6997 N   0  0  0  0  0  0  0  0  0  0  0  0
   13.7480  -23.6411   -4.8747 C   0  0  0  0  0  0  0  0  0  0  0  0
   13.1974  -24.5058   -5.5965 O   0  0  0  0  0  0  0  0  0  0  0  0
   16.5493  -25.1729   -6.0451 C   0  0  0  0  0  0  0  0  0  0  0  0
   16.7077  -25.4127   -4.5567 C   0  0  1  0  0  0  0  0  0  0  0  0
   17.4005  -24.3083   -4.0483 O   0  0  0  0  0  0  0  0  0  0  0  0
   15.3269  -25.3800   -3.9493 C   0  0  2  0  0  0  0  0  0  0  0  0
   14.8350  -24.0313   -4.0573 N   0  0  0  0  0  0  0  0  0  0  0  0
   15.2936  -25.8168   -2.5555 C   0  0  0  0  0  0  0  0  0  0  0  0
   15.2447  -24.9286   -1.6572 O   0  0  0  0  0  0  0  0  0  0  0  0
   15.3140  -27.1996   -2.1718 N   0  0  0  0  0  0  0  0  0  0  0  0
   15.2233  -27.5196   -0.7793 C   0  0  1  0  0  0  0  0  0  0  0  0
   14.7480  -28.9314   -0.5291 C   0  0  0  0  0  0  0  0  0  0  0  0
   14.6139  -29.1067    0.9650 C   0  0  0  0  0  0  0  0  0  0  0  0
   13.4363  -29.9360    1.3540 C   0  0  0  0  0  0  0  0  0  0  0  0
   13.2858  -30.0762    2.8530 C   0  0  0  0  0  0  0  0  0  0  0  0
   12.0823  -30.8253    3.1597 N   0  0  0  0  0  0  0  0  0  0  0  0
   16.5485  -27.2886   -0.1017 C   0  0  0  0  0  0  0  0  0  0  0  0
   16.6367  -26.9751    1.2430 O   0  0  0  0  0  0  0  0  0  0  0  0
   17.6179  -27.3771   -0.7536 O   0  0  0  0  0  0  0  0  0  0  0  0
  2  1  1  6
  2  3  1  0
  3  4  1  0
  4  8  1  0
  5  6  1  0
  5  4  2  0
  6  7  1  0
  7  8  2  0
  9 10  2  0
  9  2  1  0
 12 11  1  6
 12 13  1  0
 12 14  1  0
 14 15  1  1
 15  9  1  0
 16 14  1  0
 16 18  1  0
 17 16  2  0
 19 18  1  0
 19 25  1  0
 19 20  1  6
 21 20  1  0
 22 21  1  0
 23 22  1  0
 24 23  1  0
 25 26  1  0
 27 25  2  0
M  END
$$$$
