HTK.pdb
     RDKit          3D

 27 27  0  0  1  0  0  0  0  0999 V2000
   25.6270  -22.2325  -17.2431 N   0  0  0  0  0  0  0  0  0  0  0  0
   25.9779  -23.3596  -16.4253 C   0  0  1  0  0  0  0  0  0  0  0  0
   24.7509  -23.9274  -15.7657 C   0  0  0  0  0  0  0  0  0  0  0  0
   24.1094  -22.8470  -14.9827 C   0  0  0  0  0  0  0  0  0  0  0  0
   24.7368  -22.0356  -14.0424 C   0  0  0  0  0  0  0  0  0  0  0  0
   23.7967  -21.2036  -13.5812 N   0  0  0  0  0  0  0  0  0  0  0  0
   22.6147  -21.4317  -14.1651 C   0  0  0  0  0  0  0  0  0  0  0  0
   22.8408  -22.4536  -15.0266 N   0  0  0  0  0  0  0  0  0  0  0  0
   26.5334  -24.4389  -17.3119 C   0  0  0  0  0  0  0  0  0  0  0  0
   26.0283  -24.6632  -18.4373 O   0  0  0  0  0  0  0  0  0  0  0  0
   30.3387  -26.8546  -18.8125 C   0  0  0  0  0  0  0  0  0  0  0  0
   29.6182  -25.7186  -18.1136 C   0  0  1  0  0  0  0  0  0  0  0  0
   29.3972  -24.7334  -19.0824 O   0  0  0  0  0  0  0  0  0  0  0  0
   28.2628  -26.2366  -17.6999 C   0  0  2  0  0  0  0  0  0  0  0  0
   27.6356  -25.2218  -16.8942 N   0  0  0  0  0  0  0  0  0  0  0  0
   28.3213  -27.4974  -16.9639 C   0  0  0  0  0  0  0  0  0  0  0  0
   28.8539  -27.4901  -15.8173 O   0  0  0  0  0  0  0  0  0  0  0  0
   27.8032  -28.7294  -17.4869 N   0  0  0  0  0  0  0  0  0  0  0  0
   27.9375  -29.9139  -16.6939 C   0  0  1  0  0  0  0  0  0  0  0  0
   26.7496  -30.8395  -16.8119 C   0  0  0  0  0  0  0  0  0  0  0  0
   26.9801  -31.9956  -15.8677 C   0  0  0  0  0  0  0  0  0  0  0  0
   25.8740  -32.9966  -15.8866 C   0  0  0  0  0  0  0  0  0  0  0  0
   26.1131  -34.1544  -14.9423 C   0  0  0  0  0  0  0  0  0  0  0  0
   24.9481  -35.0178  -14.9162 N   0  0  0  0  0  0  0  0  0  0  0  0
   29.2046  -30.6442  -17.0541 C   0  0  0  0  0  0  0  0  0  0  0  0
   29.9805  -31.2761  -16.0987 O   0  0  0  0  0  0  0  0  0  0  0  0
   29.5891  -30.6954  -18.2483 O   0  0  0  0  0  0  0  0  0  0  0  0
  2  1  1  6
  2  3  1  0
  3  4  1  0
  4  8  1  0
  5  6  1  0
  5  4  2  0
  6  7  1  0
  7  8  2  0
  9 10  2  0
  9  2  1  0
 12 11  1  6
 12 13  1  0
 12 14  1  0
 14 15  1  1
 15  9  1  0
 16 14  1  0
 16 18  1  0
 17 16  2  0
 19 18  1  0
 19 25  1  0
 19 20  1  6
 21 20  1  0
 22 21  1  0
 23 22  1  0
 24 23  1  0
 25 26  1  0
 27 25  2  0
M  END
$$$$
