HTK.pdb
     RDKit          3D

 27 27  0  0  1  0  0  0  0  0999 V2000
   32.5935  -24.5282  -16.4125 N   0  0  0  0  0  0  0  0  0  0  0  0
   32.1744  -25.7248  -17.0869 C   0  0  1  0  0  0  0  0  0  0  0  0
   33.0718  -26.8739  -16.7162 C   0  0  0  0  0  0  0  0  0  0  0  0
   34.1774  -26.9282  -17.6995 C   0  0  0  0  0  0  0  0  0  0  0  0
   34.2782  -26.1660  -18.8593 C   0  0  0  0  0  0  0  0  0  0  0  0
   35.4229  -26.5308  -19.4469 N   0  0  0  0  0  0  0  0  0  0  0  0
   36.0558  -27.4731  -18.7387 C   0  0  0  0  0  0  0  0  0  0  0  0
   35.2605  -27.6973  -17.6641 N   0  0  0  0  0  0  0  0  0  0  0  0
   30.7933  -26.0819  -16.6129 C   0  0  0  0  0  0  0  0  0  0  0  0
   30.1696  -25.3225  -15.8342 O   0  0  0  0  0  0  0  0  0  0  0  0
   26.4941  -26.9739  -17.2291 C   0  0  0  0  0  0  0  0  0  0  0  0
   27.9366  -26.5250  -17.3541 C   0  0  1  0  0  0  0  0  0  0  0  0
   28.0789  -25.4102  -16.5203 O   0  0  0  0  0  0  0  0  0  0  0  0
   28.7971  -27.6190  -16.7716 C   0  0  2  0  0  0  0  0  0  0  0  0
   30.1711  -27.2802  -17.0357 N   0  0  0  0  0  0  0  0  0  0  0  0
   28.4947  -28.9445  -17.3067 C   0  0  0  0  0  0  0  0  0  0  0  0
   28.7729  -29.1719  -18.5188 O   0  0  0  0  0  0  0  0  0  0  0  0
   27.9008  -29.9861  -16.5178 N   0  0  0  0  0  0  0  0  0  0  0  0
   27.6755  -31.2593  -17.1326 C   0  0  1  0  0  0  0  0  0  0  0  0
   27.2922  -32.3325  -16.1412 C   0  0  0  0  0  0  0  0  0  0  0  0
   27.0446  -33.6023  -16.9207 C   0  0  0  0  0  0  0  0  0  0  0  0
   26.7223  -34.7704  -16.0501 C   0  0  0  0  0  0  0  0  0  0  0  0
   26.5754  -36.0599  -16.8278 C   0  0  0  0  0  0  0  0  0  0  0  0
   26.2421  -37.1448  -15.9249 N   0  0  0  0  0  0  0  0  0  0  0  0
   26.6258  -31.1436  -18.2066 C   0  0  0  0  0  0  0  0  0  0  0  0
   26.8303  -31.6339  -19.4841 O   0  0  0  0  0  0  0  0  0  0  0  0
   25.5256  -30.5908  -17.9607 O   0  0  0  0  0  0  0  0  0  0  0  0
  2  1  1  1
  2  3  1  0
  3  4  1  0
  4  8  1  0
  5  6  1  0
  5  4  2  0
  6  7  1  0
  7  8  2  0
  9 10  2  0
  9  2  1  0
 12 11  1  1
 12 13  1  0
 12 14  1  0
 14 15  1  6
 15  9  1  0
 16 14  1  0
 16 18  1  0
 17 16  2  0
 19 18  1  0
 19 25  1  0
 19 20  1  1
 21 20  1  0
 22 21  1  0
 23 22  1  0
 24 23  1  0
 25 26  1  0
 27 25  2  0
M  END
$$$$
