HTK.pdb
     RDKit          3D

 27 27  0  0  1  0  0  0  0  0999 V2000
   20.0554  -11.8707  -17.1337 N   0  0  0  0  0  0  0  0  0  0  0  0
   20.4766  -10.6110  -17.6797 C   0  0  1  0  0  0  0  0  0  0  0  0
   19.7620  -10.3392  -18.9753 C   0  0  0  0  0  0  0  0  0  0  0  0
   20.2068  -11.3469  -19.9647 C   0  0  0  0  0  0  0  0  0  0  0  0
   21.1922  -12.3089  -19.7654 C   0  0  0  0  0  0  0  0  0  0  0  0
   21.2726  -13.0022  -20.9062 N   0  0  0  0  0  0  0  0  0  0  0  0
   20.4049  -12.5456  -21.8165 C   0  0  0  0  0  0  0  0  0  0  0  0
   19.7607  -11.5221  -21.2042 N   0  0  0  0  0  0  0  0  0  0  0  0
   20.0778   -9.5194  -16.7264 C   0  0  0  0  0  0  0  0  0  0  0  0
   18.8832   -9.3895  -16.3687 O   0  0  0  0  0  0  0  0  0  0  0  0
   21.0646   -9.3082  -13.5606 C   0  0  0  0  0  0  0  0  0  0  0  0
   21.5050   -7.9216  -13.9868 C   0  0  1  0  0  0  0  0  0  0  0  0
   22.8580   -8.0228  -14.3291 O   0  0  0  0  0  0  0  0  0  0  0  0
   20.7576   -7.5851  -15.2536 C   0  0  2  0  0  0  0  0  0  0  0  0
   21.0414   -8.6185  -16.2148 N   0  0  0  0  0  0  0  0  0  0  0  0
   21.1051   -6.2773  -15.8045 C   0  0  0  0  0  0  0  0  0  0  0  0
   21.5152   -6.2276  -16.9994 O   0  0  0  0  0  0  0  0  0  0  0  0
   21.0000   -5.0611  -15.0497 N   0  0  0  0  0  0  0  0  0  0  0  0
   21.2726   -3.8230  -15.7149 C   0  0  1  0  0  0  0  0  0  0  0  0
   20.5047   -3.6668  -17.0063 C   0  0  0  0  0  0  0  0  0  0  0  0
   20.7996   -2.2869  -17.5451 C   0  0  0  0  0  0  0  0  0  0  0  0
   20.0898   -1.9936  -18.8241 C   0  0  0  0  0  0  0  0  0  0  0  0
   20.4178   -0.6242  -19.3776 C   0  0  0  0  0  0  0  0  0  0  0  0
   19.5835   -0.3457  -20.5307 N   0  0  0  0  0  0  0  0  0  0  0  0
   20.9901   -2.6624  -14.7974 C   0  0  0  0  0  0  0  0  0  0  0  0
   21.8304   -1.5656  -14.7265 O   0  0  0  0  0  0  0  0  0  0  0  0
   19.9695   -2.6663  -14.0661 O   0  0  0  0  0  0  0  0  0  0  0  0
  2  1  1  1
  2  3  1  0
  3  4  1  0
  4  8  1  0
  5  6  1  0
  5  4  2  0
  6  7  1  0
  7  8  2  0
  9 10  2  0
  9  2  1  0
 12 11  1  6
 12 13  1  0
 12 14  1  0
 14 15  1  6
 15  9  1  0
 16 14  1  0
 16 18  1  0
 17 16  2  0
 19 18  1  0
 19 25  1  0
 19 20  1  6
 21 20  1  0
 22 21  1  0
 23 22  1  0
 24 23  1  0
 25 26  1  0
 27 25  2  0
M  END
$$$$
