HTK.pdb
     RDKit          3D

 27 27  0  0  1  0  0  0  0  0999 V2000
   22.4011  -18.5459  -16.1554 N   0  0  0  0  0  0  0  0  0  0  0  0
   23.0902  -19.5552  -15.4011 C   0  0  1  0  0  0  0  0  0  0  0  0
   24.5213  -19.1506  -15.1743 C   0  0  0  0  0  0  0  0  0  0  0  0
   25.1788  -19.0302  -16.4954 C   0  0  0  0  0  0  0  0  0  0  0  0
   25.5682  -20.0858  -17.3141 C   0  0  0  0  0  0  0  0  0  0  0  0
   26.1165  -19.5322  -18.4010 N   0  0  0  0  0  0  0  0  0  0  0  0
   26.1016  -18.1963  -18.3280 C   0  0  0  0  0  0  0  0  0  0  0  0
   25.5155  -17.9169  -17.1381 N   0  0  0  0  0  0  0  0  0  0  0  0
   22.4486  -19.6606  -14.0458 C   0  0  0  0  0  0  0  0  0  0  0  0
   22.6033  -18.7535  -13.1943 O   0  0  0  0  0  0  0  0  0  0  0  0
   20.7889  -18.4683  -12.4028 C   0  0  0  0  0  0  0  0  0  0  0  0
   19.9438  -19.7264  -12.4383 C   0  0  1  0  0  0  0  0  0  0  0  0
   19.2530  -19.7061  -13.6551 O   0  0  0  0  0  0  0  0  0  0  0  0
   20.8910  -20.8996  -12.4929 C   0  0  2  0  0  0  0  0  0  0  0  0
   21.6587  -20.7840  -13.7052 N   0  0  0  0  0  0  0  0  0  0  0  0
   20.2166  -22.1948  -12.4470 C   0  0  0  0  0  0  0  0  0  0  0  0
   20.1186  -22.8504  -13.5235 O   0  0  0  0  0  0  0  0  0  0  0  0
   19.6675  -22.7448  -11.2403 N   0  0  0  0  0  0  0  0  0  0  0  0
   18.9905  -24.0041  -11.3144 C   0  0  1  0  0  0  0  0  0  0  0  0
   18.9276  -24.7181   -9.9848 C   0  0  0  0  0  0  0  0  0  0  0  0
   18.1944  -26.0203  -10.2037 C   0  0  0  0  0  0  0  0  0  0  0  0
   18.1415  -26.8750   -8.9819 C   0  0  0  0  0  0  0  0  0  0  0  0
   17.3285  -28.1354   -9.1814 C   0  0  0  0  0  0  0  0  0  0  0  0
   17.1998  -28.8434   -7.9222 N   0  0  0  0  0  0  0  0  0  0  0  0
   17.6038  -23.8209  -11.8733 C   0  0  0  0  0  0  0  0  0  0  0  0
   17.0606  -24.7080  -12.7855 O   0  0  0  0  0  0  0  0  0  0  0  0
   16.9008  -22.8436  -11.5170 O   0  0  0  0  0  0  0  0  0  0  0  0
  2  1  1  6
  2  3  1  0
  3  4  1  0
  4  8  1  0
  5  6  1  0
  5  4  2  0
  6  7  1  0
  7  8  2  0
  9 10  2  0
  9  2  1  0
 12 11  1  6
 12 13  1  0
 12 14  1  0
 14 15  1  6
 15  9  1  0
 16 14  1  0
 16 18  1  0
 17 16  2  0
 19 18  1  0
 19 25  1  0
 19 20  1  1
 21 20  1  0
 22 21  1  0
 23 22  1  0
 24 23  1  0
 25 26  1  0
 27 25  2  0
M  END
$$$$
