HTK.pdb
     RDKit          3D

 27 27  0  0  1  0  0  0  0  0999 V2000
   19.1719  -12.9043  -18.4403 N   0  0  0  0  0  0  0  0  0  0  0  0
   18.6900  -12.4074  -17.1821 C   0  0  1  0  0  0  0  0  0  0  0  0
   19.1447  -13.3003  -16.0600 C   0  0  0  0  0  0  0  0  0  0  0  0
   18.2775  -14.5002  -16.0484 C   0  0  0  0  0  0  0  0  0  0  0  0
   17.1719  -14.7179  -16.8649 C   0  0  0  0  0  0  0  0  0  0  0  0
   16.6868  -15.9167  -16.5240 N   0  0  0  0  0  0  0  0  0  0  0  0
   17.4096  -16.4751  -15.5463 C   0  0  0  0  0  0  0  0  0  0  0  0
   18.3857  -15.5748  -15.2741 N   0  0  0  0  0  0  0  0  0  0  0  0
   19.3005  -11.0560  -16.9364 C   0  0  0  0  0  0  0  0  0  0  0  0
   20.4686  -10.8048  -17.3163 O   0  0  0  0  0  0  0  0  0  0  0  0
   20.4276   -8.9580  -18.0261 C   0  0  0  0  0  0  0  0  0  0  0  0
   19.3843   -8.0859  -17.3558 C   0  0  1  0  0  0  0  0  0  0  0  0
   18.2263   -8.1825  -18.1354 O   0  0  0  0  0  0  0  0  0  0  0  0
   19.0667   -8.7147  -16.0215 C   0  0  2  0  0  0  0  0  0  0  0  0
   18.5699  -10.0424  -16.2725 N   0  0  0  0  0  0  0  0  0  0  0  0
   18.0965   -7.9553  -15.2363 C   0  0  0  0  0  0  0  0  0  0  0  0
   16.8687   -8.1290  -15.4829 O   0  0  0  0  0  0  0  0  0  0  0  0
   18.4797   -7.0304  -14.2079 N   0  0  0  0  0  0  0  0  0  0  0  0
   17.4486   -6.3123  -13.5216 C   0  0  1  0  0  0  0  0  0  0  0  0
   17.3872   -6.6352  -12.0473 C   0  0  0  0  0  0  0  0  0  0  0  0
   16.2180   -5.8766  -11.4653 C   0  0  0  0  0  0  0  0  0  0  0  0
   16.0454   -6.1007  -10.0004 C   0  0  0  0  0  0  0  0  0  0  0  0
   14.9114   -5.2904   -9.4116 C   0  0  0  0  0  0  0  0  0  0  0  0
   14.6138   -5.7597   -8.0720 N   0  0  0  0  0  0  0  0  0  0  0  0
   17.6203   -4.8295  -13.7232 C   0  0  0  0  0  0  0  0  0  0  0  0
   16.5369   -3.9729  -13.8048 O   0  0  0  0  0  0  0  0  0  0  0  0
   18.7688   -4.3321  -13.8229 O   0  0  0  0  0  0  0  0  0  0  0  0
  2  1  1  6
  2  3  1  0
  3  4  1  0
  4  8  1  0
  5  6  1  0
  5  4  2  0
  6  7  1  0
  7  8  2  0
  9 10  2  0
  9  2  1  0
 12 11  1  6
 12 13  1  0
 12 14  1  0
 14 15  1  6
 15  9  1  0
 16 14  1  0
 16 18  1  0
 17 16  2  0
 19 18  1  0
 19 25  1  0
 19 20  1  1
 21 20  1  0
 22 21  1  0
 23 22  1  0
 24 23  1  0
 25 26  1  0
 27 25  2  0
M  END
$$$$
