HTK.pdb
     RDKit          3D

 27 27  0  0  1  0  0  0  0  0999 V2000
   14.2736   -9.9802  -17.0496 N   0  0  0  0  0  0  0  0  0  0  0  0
   15.4017  -10.0606  -16.1647 C   0  0  1  0  0  0  0  0  0  0  0  0
   16.2075  -11.2967  -16.4579 C   0  0  0  0  0  0  0  0  0  0  0  0
   15.3867  -12.4753  -16.0984 C   0  0  0  0  0  0  0  0  0  0  0  0
   14.9076  -13.4381  -16.9815 C   0  0  0  0  0  0  0  0  0  0  0  0
   14.2204  -14.3143  -16.2409 N   0  0  0  0  0  0  0  0  0  0  0  0
   14.2307  -13.9732  -14.9472 C   0  0  0  0  0  0  0  0  0  0  0  0
   14.9599  -12.8318  -14.8915 N   0  0  0  0  0  0  0  0  0  0  0  0
   16.2999   -8.8842  -16.4271 C   0  0  0  0  0  0  0  0  0  0  0  0
   16.5446   -8.5175  -17.6008 O   0  0  0  0  0  0  0  0  0  0  0  0
   15.7298   -5.7003  -15.8209 C   0  0  0  0  0  0  0  0  0  0  0  0
   17.0048   -5.8172  -15.0093 C   0  0  1  0  0  0  0  0  0  0  0  0
   16.6146   -6.1029  -13.6962 O   0  0  0  0  0  0  0  0  0  0  0  0
   17.7486   -7.0277  -15.5174 C   0  0  2  0  0  0  0  0  0  0  0  0
   16.8859   -8.1688  -15.3562 N   0  0  0  0  0  0  0  0  0  0  0  0
   19.0198   -7.2586  -14.8353 C   0  0  0  0  0  0  0  0  0  0  0  0
   19.1941   -8.3753  -14.2688 O   0  0  0  0  0  0  0  0  0  0  0  0
   20.0660   -6.2773  -14.7843 N   0  0  0  0  0  0  0  0  0  0  0  0
   21.3810   -6.7051  -14.4136 C   0  0  1  0  0  0  0  0  0  0  0  0
   21.8445   -7.9189  -15.1840 C   0  0  0  0  0  0  0  0  0  0  0  0
   23.1527   -8.3686  -14.5775 C   0  0  0  0  0  0  0  0  0  0  0  0
   23.6551   -9.6500  -15.1531 C   0  0  0  0  0  0  0  0  0  0  0  0
   24.9094  -10.1492  -14.4698 C   0  0  0  0  0  0  0  0  0  0  0  0
   25.1787  -11.5165  -14.8715 N   0  0  0  0  0  0  0  0  0  0  0  0
   22.3647   -5.5764  -14.5790 C   0  0  0  0  0  0  0  0  0  0  0  0
   23.3883   -5.3609  -13.6735 O   0  0  0  0  0  0  0  0  0  0  0  0
   22.2746   -4.7953  -15.5579 O   0  0  0  0  0  0  0  0  0  0  0  0
  2  1  1  6
  2  3  1  0
  3  4  1  0
  4  8  1  0
  5  6  1  0
  5  4  2  0
  6  7  1  0
  7  8  2  0
  9 10  2  0
  9  2  1  0
 12 11  1  6
 12 13  1  0
 12 14  1  0
 14 15  1  1
 15  9  1  0
 16 14  1  0
 16 18  1  0
 17 16  2  0
 19 18  1  0
 19 25  1  0
 19 20  1  6
 21 20  1  0
 22 21  1  0
 23 22  1  0
 24 23  1  0
 25 26  1  0
 27 25  2  0
M  END
$$$$
