FVS.pdb
     RDKit          3D

 25 25  0  0  1  0  0  0  0  0999 V2000
    5.8232  -17.5260   25.6898 N   0  0  0  0  0  0  0  0  0  0  0  0
    6.2947  -16.2133   25.3184 C   0  0  1  0  0  0  0  0  0  0  0  0
    7.3210  -15.8036   26.3588 C   0  0  0  0  0  0  0  0  0  0  0  0
    7.3360  -14.3630   26.6045 C   0  0  0  0  0  0  0  0  0  0  0  0
    6.1675  -13.6367   26.6402 C   0  0  0  0  0  0  0  0  0  0  0  0
    6.2263  -12.2796   26.8730 C   0  0  0  0  0  0  0  0  0  0  0  0
    7.4380  -11.6389   27.0706 C   0  0  0  0  0  0  0  0  0  0  0  0
    8.6115  -12.3539   27.0370 C   0  0  0  0  0  0  0  0  0  0  0  0
    8.5414  -13.7275   26.8006 C   0  0  0  0  0  0  0  0  0  0  0  0
    6.9619  -16.2936   23.9948 C   0  0  0  0  0  0  0  0  0  0  0  0
    7.5895  -17.3351   23.6345 O   0  0  0  0  0  0  0  0  0  0  0  0
    7.9635  -12.9062   21.5786 C   0  0  0  0  0  0  0  0  0  0  0  0
    7.3453  -14.1112   20.9051 C   0  0  1  0  0  0  0  0  0  0  0  0
    8.0273  -14.2969   19.5791 C   0  0  0  0  0  0  0  0  0  0  0  0
    7.6432  -15.3224   21.7740 C   0  0  2  0  0  0  0  0  0  0  0  0
    6.9455  -15.2247   23.0498 N   0  0  0  0  0  0  0  0  0  0  0  0
    9.0827  -15.5401   21.9438 C   0  0  0  0  0  0  0  0  0  0  0  0
    9.7243  -14.8034   22.7287 O   0  0  0  0  0  0  0  0  0  0  0  0
   10.8637  -18.9049   22.3291 O   0  0  0  0  0  0  0  0  0  0  0  0
   11.5746  -18.2518   21.3389 C   0  0  0  0  0  0  0  0  0  0  0  0
   11.2388  -16.7648   21.4342 C   0  0  2  0  0  0  0  0  0  0  0  0
    9.8242  -16.5574   21.2624 N   0  0  0  0  0  0  0  0  0  0  0  0
   12.0756  -15.9765   20.5355 C   0  0  0  0  0  0  0  0  0  0  0  0
   13.3933  -15.7193   20.8622 O   0  0  0  0  0  0  0  0  0  0  0  0
   11.6240  -15.5214   19.4613 O   0  0  0  0  0  0  0  0  0  0  0  0
  2 10  1  0
  2  1  1  1
  3  2  1  0
  4  3  1  0
  5  4  2  0
  6  5  1  0
  7  8  1  0
  7  6  2  0
  8  9  2  0
  9  4  1  0
 10 11  2  0
 13 12  1  1
 14 13  1  0
 15 13  1  0
 15 16  1  1
 16 10  1  0
 17 22  1  0
 17 15  1  0
 18 17  2  0
 20 19  1  0
 21 20  1  6
 21 22  1  0
 23 24  1  0
 23 21  1  0
 25 23  2  0
M  END
$$$$
