FVS.pdb
     RDKit          3D

 25 25  0  0  1  0  0  0  0  0999 V2000
    5.9188  -17.7304   25.6011 N   0  0  0  0  0  0  0  0  0  0  0  0
    6.3373  -16.3752   25.3327 C   0  0  1  0  0  0  0  0  0  0  0  0
    7.2183  -15.9489   26.4926 C   0  0  0  0  0  0  0  0  0  0  0  0
    7.2249  -14.5019   26.6981 C   0  0  0  0  0  0  0  0  0  0  0  0
    8.4064  -13.7983   26.7553 C   0  0  0  0  0  0  0  0  0  0  0  0
    8.3680  -12.4348   26.9526 C   0  0  0  0  0  0  0  0  0  0  0  0
    7.1639  -11.7654   27.0934 C   0  0  0  0  0  0  0  0  0  0  0  0
    5.9776  -12.4576   27.0381 C   0  0  0  0  0  0  0  0  0  0  0  0
    6.0270  -13.8379   26.8380 C   0  0  0  0  0  0  0  0  0  0  0  0
    7.1440  -16.3540   24.0868 C   0  0  0  0  0  0  0  0  0  0  0  0
    7.8166  -17.3643   23.7190 O   0  0  0  0  0  0  0  0  0  0  0  0
    8.4486  -14.2131   19.8330 C   0  0  0  0  0  0  0  0  0  0  0  0
    7.6698  -14.0549   21.1200 C   0  0  1  0  0  0  0  0  0  0  0  0
    6.2075  -14.1486   20.7869 C   0  0  0  0  0  0  0  0  0  0  0  0
    8.0347  -15.2236   22.0207 C   0  0  2  0  0  0  0  0  0  0  0  0
    7.2194  -15.2164   23.2289 N   0  0  0  0  0  0  0  0  0  0  0  0
    9.4691  -15.2644   22.3194 C   0  0  0  0  0  0  0  0  0  0  0  0
    9.9006  -14.6636   23.3309 O   0  0  0  0  0  0  0  0  0  0  0  0
   11.3192  -18.1235   23.1101 O   0  0  0  0  0  0  0  0  0  0  0  0
   11.8685  -16.8643   23.2697 C   0  0  0  0  0  0  0  0  0  0  0  0
   11.8034  -16.1577   21.9171 C   0  0  2  0  0  0  0  0  0  0  0  0
   10.4336  -15.9577   21.5204 N   0  0  0  0  0  0  0  0  0  0  0  0
   12.6228  -16.8438   20.9237 C   0  0  0  0  0  0  0  0  0  0  0  0
   13.9881  -16.9529   21.1068 O   0  0  0  0  0  0  0  0  0  0  0  0
   12.1136  -17.3431   19.8960 O   0  0  0  0  0  0  0  0  0  0  0  0
  2 10  1  0
  2  1  1  1
  3  2  1  0
  4  3  1  0
  5  4  2  0
  6  5  1  0
  7  8  1  0
  7  6  2  0
  8  9  2  0
  9  4  1  0
 10 11  2  0
 13 12  1  6
 14 13  1  0
 15 13  1  0
 15 16  1  1
 16 10  1  0
 17 22  1  0
 17 15  1  0
 18 17  2  0
 20 19  1  0
 21 20  1  1
 21 22  1  0
 23 24  1  0
 23 21  1  0
 25 23  2  0
M  END
$$$$
