FVS.pdb
     RDKit          3D

 25 25  0  0  1  0  0  0  0  0999 V2000
    5.8782  -18.0026   25.8309 N   0  0  0  0  0  0  0  0  0  0  0  0
    6.2544  -16.6361   25.5574 C   0  0  1  0  0  0  0  0  0  0  0  0
    6.9986  -16.1315   26.7801 C   0  0  0  0  0  0  0  0  0  0  0  0
    7.2577  -14.6938   26.7332 C   0  0  0  0  0  0  0  0  0  0  0  0
    8.5435  -14.2054   26.6854 C   0  0  0  0  0  0  0  0  0  0  0  0
    8.7438  -12.8425   26.6441 C   0  0  0  0  0  0  0  0  0  0  0  0
    7.6756  -11.9613   26.6501 C   0  0  0  0  0  0  0  0  0  0  0  0
    6.3870  -12.4375   26.6978 C   0  0  0  0  0  0  0  0  0  0  0  0
    6.1946  -13.8192   26.7393 C   0  0  0  0  0  0  0  0  0  0  0  0
    7.1748  -16.6097   24.3931 C   0  0  0  0  0  0  0  0  0  0  0  0
    7.9260  -17.5952   24.1235 O   0  0  0  0  0  0  0  0  0  0  0  0
    8.8950  -14.4404   20.2957 C   0  0  0  0  0  0  0  0  0  0  0  0
    7.9584  -14.3097   21.4762 C   0  0  1  0  0  0  0  0  0  0  0  0
    6.5515  -14.4312   20.9624 C   0  0  0  0  0  0  0  0  0  0  0  0
    8.2335  -15.4783   22.4085 C   0  0  2  0  0  0  0  0  0  0  0  0
    7.2786  -15.4942   23.5094 N   0  0  0  0  0  0  0  0  0  0  0  0
    9.6220  -15.4959   22.8778 C   0  0  0  0  0  0  0  0  0  0  0  0
   10.0429  -14.5459   23.5783 O   0  0  0  0  0  0  0  0  0  0  0  0
   11.8575  -18.8799   22.7287 O   0  0  0  0  0  0  0  0  0  0  0  0
   12.2730  -17.9183   23.6317 C   0  0  0  0  0  0  0  0  0  0  0  0
   11.9160  -16.5526   23.0483 C   0  0  2  0  0  0  0  0  0  0  0  0
   10.5519  -16.5445   22.5870 N   0  0  0  0  0  0  0  0  0  0  0  0
   12.8918  -16.1356   22.0467 C   0  0  0  0  0  0  0  0  0  0  0  0
   14.2131  -15.9444   22.4033 O   0  0  0  0  0  0  0  0  0  0  0  0
   12.5580  -15.9443   20.8564 O   0  0  0  0  0  0  0  0  0  0  0  0
  2 10  1  0
  2  1  1  1
  3  2  1  0
  4  3  1  0
  5  4  2  0
  6  5  1  0
  7  8  1  0
  7  6  2  0
  8  9  2  0
  9  4  1  0
 10 11  2  0
 13 12  1  6
 14 13  1  0
 15 13  1  0
 15 16  1  1
 16 10  1  0
 17 22  1  0
 17 15  1  0
 18 17  2  0
 20 19  1  0
 21 20  1  6
 21 22  1  0
 23 24  1  0
 23 21  1  0
 25 23  2  0
M  END
$$$$
