FVS.pdb
     RDKit          3D

 25 25  0  0  1  0  0  0  0  0999 V2000
    6.0109  -18.0903   25.7574 N   0  0  0  0  0  0  0  0  0  0  0  0
    6.2452  -16.6888   25.5034 C   0  0  1  0  0  0  0  0  0  0  0  0
    6.8092  -16.0980   26.7825 C   0  0  0  0  0  0  0  0  0  0  0  0
    6.8151  -14.6365   26.7781 C   0  0  0  0  0  0  0  0  0  0  0  0
    5.6458  -13.9222   26.6488 C   0  0  0  0  0  0  0  0  0  0  0  0
    5.6959  -12.5449   26.6474 C   0  0  0  0  0  0  0  0  0  0  0  0
    6.8998  -11.8722   26.7736 C   0  0  0  0  0  0  0  0  0  0  0  0
    8.0740  -12.5749   26.9033 C   0  0  0  0  0  0  0  0  0  0  0  0
    8.0128  -13.9692   26.9035 C   0  0  0  0  0  0  0  0  0  0  0  0
    7.2584  -16.5533   24.4270 C   0  0  0  0  0  0  0  0  0  0  0  0
    8.1232  -17.4570   24.2174 O   0  0  0  0  0  0  0  0  0  0  0  0
    8.9396  -14.2018   20.4035 C   0  0  0  0  0  0  0  0  0  0  0  0
    7.9616  -14.1672   21.5568 C   0  0  1  0  0  0  0  0  0  0  0  0
    6.5772  -14.3094   20.9900 C   0  0  0  0  0  0  0  0  0  0  0  0
    8.2490  -15.3741   22.4351 C   0  0  2  0  0  0  0  0  0  0  0  0
    7.3311  -15.4176   23.5664 N   0  0  0  0  0  0  0  0  0  0  0  0
    9.6519  -15.4297   22.8562 C   0  0  0  0  0  0  0  0  0  0  0  0
   10.0959  -14.5436   23.6229 O   0  0  0  0  0  0  0  0  0  0  0  0
   11.7214  -18.8034   22.9889 O   0  0  0  0  0  0  0  0  0  0  0  0
   12.2619  -17.7189   23.6554 C   0  0  0  0  0  0  0  0  0  0  0  0
   11.9591  -16.4712   22.8282 C   0  0  2  0  0  0  0  0  0  0  0  0
   10.5711  -16.4472   22.4452 N   0  0  0  0  0  0  0  0  0  0  0  0
   12.8924  -16.3373   21.7146 C   0  0  0  0  0  0  0  0  0  0  0  0
   14.2493  -16.2367   21.9554 O   0  0  0  0  0  0  0  0  0  0  0  0
   12.4897  -16.3114   20.5305 O   0  0  0  0  0  0  0  0  0  0  0  0
  2 10  1  0
  2  1  1  1
  3  2  1  0
  4  3  1  0
  5  4  2  0
  6  5  1  0
  7  8  1  0
  7  6  2  0
  8  9  2  0
  9  4  1  0
 10 11  2  0
 13 12  1  6
 14 13  1  0
 15 13  1  0
 15 16  1  1
 16 10  1  0
 17 22  1  0
 17 15  1  0
 18 17  2  0
 20 19  1  0
 21 20  1  6
 21 22  1  0
 23 24  1  0
 23 21  1  0
 25 23  2  0
M  END
$$$$
