FVS.pdb
     RDKit          3D

 25 25  0  0  1  0  0  0  0  0999 V2000
    5.9014  -17.9849   25.6263 N   0  0  0  0  0  0  0  0  0  0  0  0
    6.1743  -16.5817   25.4261 C   0  0  1  0  0  0  0  0  0  0  0  0
    6.7305  -16.0505   26.7345 C   0  0  0  0  0  0  0  0  0  0  0  0
    6.7812  -14.5905   26.7783 C   0  0  0  0  0  0  0  0  0  0  0  0
    7.9842  -13.9221   26.7948 C   0  0  0  0  0  0  0  0  0  0  0  0
    7.9874  -12.5446   26.8383 C   0  0  0  0  0  0  0  0  0  0  0  0
    6.8036  -11.8264   26.8654 C   0  0  0  0  0  0  0  0  0  0  0  0
    5.5962  -12.4831   26.8494 C   0  0  0  0  0  0  0  0  0  0  0  0
    5.6035  -13.8780   26.8054 C   0  0  0  0  0  0  0  0  0  0  0  0
    7.2090  -16.4340   24.3720 C   0  0  0  0  0  0  0  0  0  0  0  0
    8.1211  -17.3013   24.2167 O   0  0  0  0  0  0  0  0  0  0  0  0
    8.9746  -14.0754   20.3862 C   0  0  0  0  0  0  0  0  0  0  0  0
    7.9494  -14.0579   21.4982 C   0  0  1  0  0  0  0  0  0  0  0  0
    6.5924  -14.2268   20.8752 C   0  0  0  0  0  0  0  0  0  0  0  0
    8.2230  -15.2581   22.3899 C   0  0  2  0  0  0  0  0  0  0  0  0
    7.2512  -15.3260   23.4740 N   0  0  0  0  0  0  0  0  0  0  0  0
    9.6041  -15.2788   22.8805 C   0  0  0  0  0  0  0  0  0  0  0  0
    9.9833  -14.3895   23.6778 O   0  0  0  0  0  0  0  0  0  0  0  0
   11.7611  -18.4741   23.5071 O   0  0  0  0  0  0  0  0  0  0  0  0
   12.2476  -17.2639   23.9668 C   0  0  0  0  0  0  0  0  0  0  0  0
   11.9567  -16.2133   22.8970 C   0  0  2  0  0  0  0  0  0  0  0  0
   10.5718  -16.2648   22.5059 N   0  0  0  0  0  0  0  0  0  0  0  0
   12.8989  -16.3153   21.7876 C   0  0  0  0  0  0  0  0  0  0  0  0
   14.2503  -16.1270   22.0060 O   0  0  0  0  0  0  0  0  0  0  0  0
   12.5090  -16.5731   20.6273 O   0  0  0  0  0  0  0  0  0  0  0  0
  2 10  1  0
  2  1  1  1
  3  2  1  0
  4  3  1  0
  5  4  2  0
  6  5  1  0
  7  8  1  0
  7  6  2  0
  8  9  2  0
  9  4  1  0
 10 11  2  0
 13 12  1  6
 14 13  1  0
 15 13  1  0
 15 16  1  1
 16 10  1  0
 17 22  1  0
 17 15  1  0
 18 17  2  0
 20 19  1  0
 21 20  1  1
 21 22  1  0
 23 24  1  0
 23 21  1  0
 25 23  2  0
M  END
$$$$
