FVS.pdb
     RDKit          3D

 25 25  0  0  1  0  0  0  0  0999 V2000
    6.0931  -17.1449   25.2744 N   0  0  0  0  0  0  0  0  0  0  0  0
    6.5328  -15.8540   24.8014 C   0  0  1  0  0  0  0  0  0  0  0  0
    7.5489  -15.3404   25.8050 C   0  0  0  0  0  0  0  0  0  0  0  0
    7.2563  -13.9843   26.2650 C   0  0  0  0  0  0  0  0  0  0  0  0
    7.1348  -13.7003   27.6062 C   0  0  0  0  0  0  0  0  0  0  0  0
    6.8564  -12.4084   27.9973 C   0  0  0  0  0  0  0  0  0  0  0  0
    6.6979  -11.3966   27.0652 C   0  0  0  0  0  0  0  0  0  0  0  0
    6.8170  -11.6683   25.7230 C   0  0  0  0  0  0  0  0  0  0  0  0
    7.0990  -12.9795   25.3371 C   0  0  0  0  0  0  0  0  0  0  0  0
    7.2018  -16.0208   23.4868 C   0  0  0  0  0  0  0  0  0  0  0  0
    7.5396  -17.1658   23.0589 O   0  0  0  0  0  0  0  0  0  0  0  0
    8.7099  -14.1618   19.1559 C   0  0  0  0  0  0  0  0  0  0  0  0
    8.0759  -13.8583   20.4952 C   0  0  1  0  0  0  0  0  0  0  0  0
    6.6305  -13.5255   20.2547 C   0  0  0  0  0  0  0  0  0  0  0  0
    8.1459  -15.1261   21.3309 C   0  0  2  0  0  0  0  0  0  0  0  0
    7.5074  -14.9250   22.6256 N   0  0  0  0  0  0  0  0  0  0  0  0
    9.5170  -15.6279   21.4602 C   0  0  0  0  0  0  0  0  0  0  0  0
   10.3530  -14.9617   22.1140 O   0  0  0  0  0  0  0  0  0  0  0  0
   10.5263  -19.3396   20.0733 O   0  0  0  0  0  0  0  0  0  0  0  0
   11.3342  -18.8673   21.0916 C   0  0  0  0  0  0  0  0  0  0  0  0
   11.3266  -17.3418   21.0167 C   0  0  2  0  0  0  0  0  0  0  0  0
    9.9791  -16.8524   20.8804 N   0  0  0  0  0  0  0  0  0  0  0  0
   12.2478  -16.8594   19.9931 C   0  0  0  0  0  0  0  0  0  0  0  0
   13.5967  -17.1453   20.0839 O   0  0  0  0  0  0  0  0  0  0  0  0
   11.8418  -16.1842   19.0214 O   0  0  0  0  0  0  0  0  0  0  0  0
  2 10  1  0
  2  1  1  1
  3  2  1  0
  4  3  1  0
  5  4  2  0
  6  5  1  0
  7  8  1  0
  7  6  2  0
  8  9  2  0
  9  4  1  0
 10 11  2  0
 13 12  1  6
 14 13  1  0
 15 13  1  0
 15 16  1  1
 16 10  1  0
 17 22  1  0
 17 15  1  0
 18 17  2  0
 20 19  1  0
 21 20  1  6
 21 22  1  0
 23 24  1  0
 23 21  1  0
 25 23  2  0
M  END
$$$$
