FVS.pdb
     RDKit          3D

 25 25  0  0  1  0  0  0  0  0999 V2000
    5.9926  -18.2086   25.3343 N   0  0  0  0  0  0  0  0  0  0  0  0
    6.3258  -16.8082   25.2282 C   0  0  1  0  0  0  0  0  0  0  0  0
    7.0660  -16.4345   26.4994 C   0  0  0  0  0  0  0  0  0  0  0  0
    7.3743  -15.0080   26.5779 C   0  0  0  0  0  0  0  0  0  0  0  0
    8.6749  -14.5665   26.6663 C   0  0  0  0  0  0  0  0  0  0  0  0
    8.9217  -13.2126   26.7403 C   0  0  0  0  0  0  0  0  0  0  0  0
    7.8854  -12.2941   26.7271 C   0  0  0  0  0  0  0  0  0  0  0  0
    6.5825  -12.7233   26.6392 C   0  0  0  0  0  0  0  0  0  0  0  0
    6.3429  -14.0962   26.5648 C   0  0  0  0  0  0  0  0  0  0  0  0
    7.2343  -16.6116   24.0708 C   0  0  0  0  0  0  0  0  0  0  0  0
    7.9387  -17.5630   23.6160 O   0  0  0  0  0  0  0  0  0  0  0  0
    8.7211  -13.8567   20.2384 C   0  0  0  0  0  0  0  0  0  0  0  0
    7.7846  -13.9761   21.4201 C   0  0  1  0  0  0  0  0  0  0  0  0
    6.3905  -14.1486   20.8864 C   0  0  0  0  0  0  0  0  0  0  0  0
    8.1684  -15.2348   22.1810 C   0  0  2  0  0  0  0  0  0  0  0  0
    7.3779  -15.3611   23.3990 N   0  0  0  0  0  0  0  0  0  0  0  0
    9.6086  -15.3038   22.4445 C   0  0  0  0  0  0  0  0  0  0  0  0
   10.4113  -15.1939   21.4885 O   0  0  0  0  0  0  0  0  0  0  0  0
   11.2815  -16.4563   26.1205 O   0  0  0  0  0  0  0  0  0  0  0  0
   11.8530  -15.3555   25.5089 C   0  0  0  0  0  0  0  0  0  0  0  0
   11.5918  -15.4737   24.0086 C   0  0  2  0  0  0  0  0  0  0  0  0
   10.1762  -15.4914   23.7452 N   0  0  0  0  0  0  0  0  0  0  0  0
   12.3246  -16.5963   23.4326 C   0  0  0  0  0  0  0  0  0  0  0  0
   11.6418  -17.6245   22.8113 O   0  0  0  0  0  0  0  0  0  0  0  0
   13.5731  -16.6524   23.4874 O   0  0  0  0  0  0  0  0  0  0  0  0
  2 10  1  0
  2  1  1  1
  3  2  1  0
  4  3  1  0
  5  4  2  0
  6  5  1  0
  7  8  1  0
  7  6  2  0
  8  9  2  0
  9  4  1  0
 10 11  2  0
 13 12  1  6
 14 13  1  0
 15 13  1  0
 15 16  1  1
 16 10  1  0
 17 22  1  0
 17 15  1  0
 18 17  2  0
 20 19  1  0
 21 20  1  1
 21 22  1  0
 23 24  1  0
 23 21  1  0
 25 23  2  0
M  END
$$$$
