FVS.pdb
     RDKit          3D

 25 25  0  0  1  0  0  0  0  0999 V2000
    5.7607  -18.0084   25.6284 N   0  0  0  0  0  0  0  0  0  0  0  0
    6.1223  -16.6345   25.3734 C   0  0  1  0  0  0  0  0  0  0  0  0
    6.8475  -16.1337   26.6090 C   0  0  0  0  0  0  0  0  0  0  0  0
    7.0255  -14.6831   26.6135 C   0  0  0  0  0  0  0  0  0  0  0  0
    5.9417  -13.8348   26.6177 C   0  0  0  0  0  0  0  0  0  0  0  0
    6.1538  -12.4731   26.6199 C   0  0  0  0  0  0  0  0  0  0  0  0
    7.4352  -11.9480   26.6180 C   0  0  0  0  0  0  0  0  0  0  0  0
    8.5253  -12.7854   26.6137 C   0  0  0  0  0  0  0  0  0  0  0  0
    8.3001  -14.1627   26.6115 C   0  0  0  0  0  0  0  0  0  0  0  0
    7.0542  -16.5840   24.2190 C   0  0  0  0  0  0  0  0  0  0  0  0
    7.8056  -17.5652   23.9343 O   0  0  0  0  0  0  0  0  0  0  0  0
    8.7518  -14.3222   20.1534 C   0  0  0  0  0  0  0  0  0  0  0  0
    7.7797  -14.2584   21.3104 C   0  0  1  0  0  0  0  0  0  0  0  0
    6.3919  -14.4062   20.7536 C   0  0  0  0  0  0  0  0  0  0  0  0
    8.0659  -15.4475   22.2129 C   0  0  2  0  0  0  0  0  0  0  0  0
    7.1696  -15.4490   23.3622 N   0  0  0  0  0  0  0  0  0  0  0  0
    9.4757  -15.5144   22.6086 C   0  0  0  0  0  0  0  0  0  0  0  0
    9.9286  -14.6597   23.4053 O   0  0  0  0  0  0  0  0  0  0  0  0
   11.5545  -18.7911   23.0263 O   0  0  0  0  0  0  0  0  0  0  0  0
   12.0901  -17.6075   23.5004 C   0  0  0  0  0  0  0  0  0  0  0  0
   11.7942  -16.5211   22.4684 C   0  0  2  0  0  0  0  0  0  0  0  0
   10.3922  -16.5090   22.1397 N   0  0  0  0  0  0  0  0  0  0  0  0
   12.6811  -16.6336   21.3151 C   0  0  0  0  0  0  0  0  0  0  0  0
   14.0468  -16.4970   21.4748 O   0  0  0  0  0  0  0  0  0  0  0  0
   12.2301  -16.8541   20.1693 O   0  0  0  0  0  0  0  0  0  0  0  0
  2 10  1  0
  2  1  1  1
  3  2  1  0
  4  3  1  0
  5  4  2  0
  6  5  1  0
  7  8  1  0
  7  6  2  0
  8  9  2  0
  9  4  1  0
 10 11  2  0
 13 12  1  6
 14 13  1  0
 15 13  1  0
 15 16  1  1
 16 10  1  0
 17 22  1  0
 17 15  1  0
 18 17  2  0
 20 19  1  0
 21 20  1  1
 21 22  1  0
 23 24  1  0
 23 21  1  0
 25 23  2  0
M  END
$$$$
