FVS.pdb
     RDKit          3D

 25 25  0  0  1  0  0  0  0  0999 V2000
    6.1586  -17.6719   25.2888 N   0  0  0  0  0  0  0  0  0  0  0  0
    6.4362  -16.2916   24.9704 C   0  0  1  0  0  0  0  0  0  0  0  0
    7.1998  -15.7135   26.1477 C   0  0  0  0  0  0  0  0  0  0  0  0
    6.7867  -14.3509   26.4779 C   0  0  0  0  0  0  0  0  0  0  0  0
    5.4975  -13.9255   26.2521 C   0  0  0  0  0  0  0  0  0  0  0  0
    5.1499  -12.6318   26.5761 C   0  0  0  0  0  0  0  0  0  0  0  0
    6.0744  -11.7577   27.1230 C   0  0  0  0  0  0  0  0  0  0  0  0
    7.3649  -12.1714   27.3530 C   0  0  0  0  0  0  0  0  0  0  0  0
    7.7070  -13.4832   27.0215 C   0  0  0  0  0  0  0  0  0  0  0  0
    7.3017  -16.2359   23.7657 C   0  0  0  0  0  0  0  0  0  0  0  0
    7.9574  -17.2494   23.3770 O   0  0  0  0  0  0  0  0  0  0  0  0
    8.7217  -13.9004   19.6398 C   0  0  0  0  0  0  0  0  0  0  0  0
    8.0229  -13.7625   20.9741 C   0  0  1  0  0  0  0  0  0  0  0  0
    6.5582  -13.5593   20.7070 C   0  0  0  0  0  0  0  0  0  0  0  0
    8.1992  -15.0755   21.7194 C   0  0  2  0  0  0  0  0  0  0  0  0
    7.4553  -15.0598   22.9726 N   0  0  0  0  0  0  0  0  0  0  0  0
    9.6117  -15.4137   21.9166 C   0  0  0  0  0  0  0  0  0  0  0  0
   10.2148  -14.9620   22.9178 O   0  0  0  0  0  0  0  0  0  0  0  0
   10.9759  -18.6836   22.2313 O   0  0  0  0  0  0  0  0  0  0  0  0
   11.7671  -17.5830   22.5058 C   0  0  0  0  0  0  0  0  0  0  0  0
   11.7200  -16.6650   21.2859 C   0  0  2  0  0  0  0  0  0  0  0  0
   10.3679  -16.2423   21.0274 N   0  0  0  0  0  0  0  0  0  0  0  0
   12.3886  -17.2746   20.1411 C   0  0  0  0  0  0  0  0  0  0  0  0
   11.7028  -17.4611   18.9561 O   0  0  0  0  0  0  0  0  0  0  0  0
   13.5840  -17.6375   20.2059 O   0  0  0  0  0  0  0  0  0  0  0  0
  2 10  1  0
  2  1  1  1
  3  2  1  0
  4  3  1  0
  5  4  2  0
  6  5  1  0
  7  8  1  0
  7  6  2  0
  8  9  2  0
  9  4  1  0
 10 11  2  0
 13 12  1  6
 14 13  1  0
 15 13  1  0
 15 16  1  1
 16 10  1  0
 17 22  1  0
 17 15  1  0
 18 17  2  0
 20 19  1  0
 21 20  1  1
 21 22  1  0
 23 24  1  0
 23 21  1  0
 25 23  2  0
M  END
$$$$
