FVS.pdb
     RDKit          3D

 25 25  0  0  1  0  0  0  0  0999 V2000
    6.7960  -17.6961   25.8523 N   0  0  0  0  0  0  0  0  0  0  0  0
    6.9164  -16.3555   25.3308 C   0  0  1  0  0  0  0  0  0  0  0  0
    7.9278  -15.6335   26.2021 C   0  0  0  0  0  0  0  0  0  0  0  0
    7.4778  -14.3046   26.6116 C   0  0  0  0  0  0  0  0  0  0  0  0
    6.2099  -13.8609   26.3121 C   0  0  0  0  0  0  0  0  0  0  0  0
    5.8262  -12.6001   26.7152 C   0  0  0  0  0  0  0  0  0  0  0  0
    6.6934  -11.7769   27.4138 C   0  0  0  0  0  0  0  0  0  0  0  0
    7.9621  -12.2093   27.7185 C   0  0  0  0  0  0  0  0  0  0  0  0
    8.3412  -13.4875   27.3059 C   0  0  0  0  0  0  0  0  0  0  0  0
    7.4403  -16.4197   23.9433 C   0  0  0  0  0  0  0  0  0  0  0  0
    7.5351  -17.5224   23.3242 O   0  0  0  0  0  0  0  0  0  0  0  0
    8.4144  -14.1332   19.6861 C   0  0  0  0  0  0  0  0  0  0  0  0
    8.0431  -13.9778   21.1441 C   0  0  1  0  0  0  0  0  0  0  0  0
    6.5926  -13.5910   21.2104 C   0  0  0  0  0  0  0  0  0  0  0  0
    8.2102  -15.3365   21.8048 C   0  0  2  0  0  0  0  0  0  0  0  0
    7.8672  -15.2665   23.2196 N   0  0  0  0  0  0  0  0  0  0  0  0
    9.5464  -15.8975   21.5847 C   0  0  0  0  0  0  0  0  0  0  0  0
    9.9240  -16.1372   20.4141 O   0  0  0  0  0  0  0  0  0  0  0  0
   12.9009  -15.3280   23.7284 O   0  0  0  0  0  0  0  0  0  0  0  0
   12.8856  -15.9038   22.4710 C   0  0  0  0  0  0  0  0  0  0  0  0
   11.7181  -16.8877   22.4283 C   0  0  2  0  0  0  0  0  0  0  0  0
   10.4715  -16.1971   22.6352 N   0  0  0  0  0  0  0  0  0  0  0  0
   11.9410  -18.0102   23.3335 C   0  0  0  0  0  0  0  0  0  0  0  0
   13.0491  -18.8202   23.1740 O   0  0  0  0  0  0  0  0  0  0  0  0
   11.1433  -18.2613   24.2639 O   0  0  0  0  0  0  0  0  0  0  0  0
  2 10  1  0
  2  1  1  1
  3  2  1  0
  4  3  1  0
  5  4  2  0
  6  5  1  0
  7  8  1  0
  7  6  2  0
  8  9  2  0
  9  4  1  0
 10 11  2  0
 13 12  1  6
 14 13  1  0
 15 13  1  0
 15 16  1  1
 16 10  1  0
 17 22  1  0
 17 15  1  0
 18 17  2  0
 20 19  1  0
 21 20  1  1
 21 22  1  0
 23 24  1  0
 23 21  1  0
 25 23  2  0
M  END
$$$$
