FVS.pdb
     RDKit          3D

 25 25  0  0  1  0  0  0  0  0999 V2000
    5.7744  -17.9513   25.7085 N   0  0  0  0  0  0  0  0  0  0  0  0
    6.1621  -16.5846   25.4531 C   0  0  1  0  0  0  0  0  0  0  0  0
    6.8853  -16.0932   26.6936 C   0  0  0  0  0  0  0  0  0  0  0  0
    7.0437  -14.6405   26.7200 C   0  0  0  0  0  0  0  0  0  0  0  0
    5.9486  -13.8074   26.7506 C   0  0  0  0  0  0  0  0  0  0  0  0
    6.1422  -12.4431   26.7728 C   0  0  0  0  0  0  0  0  0  0  0  0
    7.4163  -11.9005   26.7649 C   0  0  0  0  0  0  0  0  0  0  0  0
    8.5175  -12.7226   26.7344 C   0  0  0  0  0  0  0  0  0  0  0  0
    8.3110  -14.1027   26.7120 C   0  0  0  0  0  0  0  0  0  0  0  0
    7.1046  -16.5535   24.3067 C   0  0  0  0  0  0  0  0  0  0  0  0
    7.9048  -17.5118   24.0843 O   0  0  0  0  0  0  0  0  0  0  0  0
    8.8094  -14.4103   20.1821 C   0  0  0  0  0  0  0  0  0  0  0  0
    7.8571  -14.2875   21.3509 C   0  0  1  0  0  0  0  0  0  0  0  0
    6.4576  -14.4160   20.8191 C   0  0  0  0  0  0  0  0  0  0  0  0
    8.1271  -15.4566   22.2841 C   0  0  2  0  0  0  0  0  0  0  0  0
    7.1768  -15.4632   23.3891 N   0  0  0  0  0  0  0  0  0  0  0  0
    9.5174  -15.4841   22.7477 C   0  0  0  0  0  0  0  0  0  0  0  0
    9.9260  -14.5773   23.5100 O   0  0  0  0  0  0  0  0  0  0  0  0
   11.7170  -18.8308   22.7152 O   0  0  0  0  0  0  0  0  0  0  0  0
   12.1978  -17.7962   23.4969 C   0  0  0  0  0  0  0  0  0  0  0  0
   11.8418  -16.4857   22.7977 C   0  0  2  0  0  0  0  0  0  0  0  0
   10.4625  -16.4958   22.3840 N   0  0  0  0  0  0  0  0  0  0  0  0
   12.7880  -16.1845   21.7286 C   0  0  0  0  0  0  0  0  0  0  0  0
   14.1248  -15.9910   22.0198 O   0  0  0  0  0  0  0  0  0  0  0  0
   12.4145  -16.0959   20.5380 O   0  0  0  0  0  0  0  0  0  0  0  0
  2 10  1  0
  2  1  1  1
  3  2  1  0
  4  3  1  0
  5  4  2  0
  6  5  1  0
  7  8  1  0
  7  6  2  0
  8  9  2  0
  9  4  1  0
 10 11  2  0
 13 12  1  6
 14 13  1  0
 15 13  1  0
 15 16  1  1
 16 10  1  0
 17 22  1  0
 17 15  1  0
 18 17  2  0
 20 19  1  0
 21 20  1  6
 21 22  1  0
 23 24  1  0
 23 21  1  0
 25 23  2  0
M  END
$$$$
