FVS.pdb
     RDKit          3D

 25 25  0  0  1  0  0  0  0  0999 V2000
    5.7072  -17.7742   25.3600 N   0  0  0  0  0  0  0  0  0  0  0  0
    6.1821  -16.4334   25.1151 C   0  0  1  0  0  0  0  0  0  0  0  0
    7.0112  -16.0329   26.3215 C   0  0  0  0  0  0  0  0  0  0  0  0
    7.1844  -14.5861   26.4360 C   0  0  0  0  0  0  0  0  0  0  0  0
    6.1024  -13.7364   26.3996 C   0  0  0  0  0  0  0  0  0  0  0  0
    6.3101  -12.3784   26.5090 C   0  0  0  0  0  0  0  0  0  0  0  0
    7.5854  -11.8585   26.6542 C   0  0  0  0  0  0  0  0  0  0  0  0
    8.6736  -12.6974   26.6918 C   0  0  0  0  0  0  0  0  0  0  0  0
    8.4530  -14.0709   26.5802 C   0  0  0  0  0  0  0  0  0  0  0  0
    7.0562  -16.4395   23.9153 C   0  0  0  0  0  0  0  0  0  0  0  0
    7.6913  -17.4805   23.5671 O   0  0  0  0  0  0  0  0  0  0  0  0
    8.6193  -14.3406   19.7281 C   0  0  0  0  0  0  0  0  0  0  0  0
    7.7738  -14.1742   20.9712 C   0  0  1  0  0  0  0  0  0  0  0  0
    6.3307  -14.2523   20.5595 C   0  0  0  0  0  0  0  0  0  0  0  0
    8.0770  -15.3469   21.8895 C   0  0  2  0  0  0  0  0  0  0  0  0
    7.2413  -15.2958   23.0825 N   0  0  0  0  0  0  0  0  0  0  0  0
    9.5032  -15.4401   22.2145 C   0  0  0  0  0  0  0  0  0  0  0  0
    9.9226  -14.9292   23.2792 O   0  0  0  0  0  0  0  0  0  0  0  0
   11.2198  -18.6880   22.5312 O   0  0  0  0  0  0  0  0  0  0  0  0
   11.6277  -17.4647   23.0310 C   0  0  0  0  0  0  0  0  0  0  0  0
   11.7694  -16.5075   21.8491 C   0  0  2  0  0  0  0  0  0  0  0  0
   10.4726  -16.0881   21.3842 N   0  0  0  0  0  0  0  0  0  0  0  0
   12.6258  -17.0733   20.8120 C   0  0  0  0  0  0  0  0  0  0  0  0
   13.9485  -17.3636   21.0871 O   0  0  0  0  0  0  0  0  0  0  0  0
   12.1869  -17.3058   19.6640 O   0  0  0  0  0  0  0  0  0  0  0  0
  2 10  1  0
  2  1  1  1
  3  2  1  0
  4  3  1  0
  5  4  2  0
  6  5  1  0
  7  8  1  0
  7  6  2  0
  8  9  2  0
  9  4  1  0
 10 11  2  0
 13 12  1  6
 14 13  1  0
 15 13  1  0
 15 16  1  1
 16 10  1  0
 17 22  1  0
 17 15  1  0
 18 17  2  0
 20 19  1  0
 21 20  1  1
 21 22  1  0
 23 24  1  0
 23 21  1  0
 25 23  2  0
M  END
$$$$
