FVS.pdb
     RDKit          3D

 25 25  0  0  1  0  0  0  0  0999 V2000
    6.6813  -17.5658   25.7562 N   0  0  0  0  0  0  0  0  0  0  0  0
    6.7553  -16.2277   25.2202 C   0  0  1  0  0  0  0  0  0  0  0  0
    7.5958  -15.4126   26.1859 C   0  0  0  0  0  0  0  0  0  0  0  0
    6.9899  -14.1247   26.5180 C   0  0  0  0  0  0  0  0  0  0  0  0
    6.0409  -13.5546   25.7003 C   0  0  0  0  0  0  0  0  0  0  0  0
    5.4961  -12.3378   26.0493 C   0  0  0  0  0  0  0  0  0  0  0  0
    5.8874  -11.6832   27.2053 C   0  0  0  0  0  0  0  0  0  0  0  0
    6.8344  -12.2429   28.0296 C   0  0  0  0  0  0  0  0  0  0  0  0
    7.3802  -13.4752   27.6674 C   0  0  0  0  0  0  0  0  0  0  0  0
    7.4430  -16.2688   23.9053 C   0  0  0  0  0  0  0  0  0  0  0  0
    8.0449  -17.3119   23.5079 O   0  0  0  0  0  0  0  0  0  0  0  0
    8.5695  -14.1883   19.5578 C   0  0  0  0  0  0  0  0  0  0  0  0
    7.8918  -13.9935   20.8959 C   0  0  1  0  0  0  0  0  0  0  0  0
    6.4097  -13.9310   20.6558 C   0  0  0  0  0  0  0  0  0  0  0  0
    8.1915  -15.2202   21.7420 C   0  0  2  0  0  0  0  0  0  0  0  0
    7.4758  -15.1582   23.0101 N   0  0  0  0  0  0  0  0  0  0  0  0
    9.6310  -15.4259   21.9267 C   0  0  0  0  0  0  0  0  0  0  0  0
   10.2254  -14.8056   22.8389 O   0  0  0  0  0  0  0  0  0  0  0  0
   12.8044  -18.2738   23.0092 O   0  0  0  0  0  0  0  0  0  0  0  0
   11.5459  -17.8009   22.6848 C   0  0  0  0  0  0  0  0  0  0  0  0
   11.7066  -16.8187   21.5262 C   0  0  2  0  0  0  0  0  0  0  0  0
   10.4236  -16.3050   21.1217 N   0  0  0  0  0  0  0  0  0  0  0  0
   12.4884  -17.4048   20.4425 C   0  0  0  0  0  0  0  0  0  0  0  0
   13.8640  -17.2745   20.4307 O   0  0  0  0  0  0  0  0  0  0  0  0
   11.9372  -18.0316   19.5107 O   0  0  0  0  0  0  0  0  0  0  0  0
  2 10  1  0
  2  1  1  1
  3  2  1  0
  4  3  1  0
  5  4  2  0
  6  5  1  0
  7  8  1  0
  7  6  2  0
  8  9  2  0
  9  4  1  0
 10 11  2  0
 13 12  1  6
 14 13  1  0
 15 13  1  0
 15 16  1  1
 16 10  1  0
 17 22  1  0
 17 15  1  0
 18 17  2  0
 20 19  1  0
 21 20  1  1
 21 22  1  0
 23 24  1  0
 23 21  1  0
 25 23  2  0
M  END
$$$$
