FVS.pdb
     RDKit          3D

 25 25  0  0  1  0  0  0  0  0999 V2000
    5.2075  -19.6452   20.6098 N   0  0  0  0  0  0  0  0  0  0  0  0
    4.9863  -18.3656   21.2401 C   0  0  1  0  0  0  0  0  0  0  0  0
    4.5251  -18.6474   22.6583 C   0  0  0  0  0  0  0  0  0  0  0  0
    3.2232  -19.3096   22.7105 C   0  0  0  0  0  0  0  0  0  0  0  0
    3.0590  -20.5010   23.3796 C   0  0  0  0  0  0  0  0  0  0  0  0
    1.8147  -21.0931   23.4027 C   0  0  0  0  0  0  0  0  0  0  0  0
    0.7322  -20.5097   22.7658 C   0  0  0  0  0  0  0  0  0  0  0  0
    0.8842  -19.3199   22.0945 C   0  0  0  0  0  0  0  0  0  0  0  0
    2.1481  -18.7283   22.0767 C   0  0  0  0  0  0  0  0  0  0  0  0
    6.2702  -17.6224   21.2938 C   0  0  0  0  0  0  0  0  0  0  0  0
    7.3833  -18.2196   21.1812 O   0  0  0  0  0  0  0  0  0  0  0  0
    8.7717  -13.3547   21.3106 C   0  0  0  0  0  0  0  0  0  0  0  0
    7.4089  -14.0106   21.2940 C   0  0  1  0  0  0  0  0  0  0  0  0
    6.8037  -13.7791   19.9382 C   0  0  0  0  0  0  0  0  0  0  0  0
    7.6192  -15.5046   21.4791 C   0  0  2  0  0  0  0  0  0  0  0  0
    6.3432  -16.2087   21.4726 N   0  0  0  0  0  0  0  0  0  0  0  0
    8.4140  -15.8071   22.6729 C   0  0  0  0  0  0  0  0  0  0  0  0
    7.9836  -15.4618   23.7980 O   0  0  0  0  0  0  0  0  0  0  0  0
   11.2117  -18.7005   22.8527 O   0  0  0  0  0  0  0  0  0  0  0  0
   10.7636  -18.1577   24.0431 C   0  0  0  0  0  0  0  0  0  0  0  0
   10.5072  -16.6710   23.8047 C   0  0  2  0  0  0  0  0  0  0  0  0
    9.6746  -16.4847   22.6446 N   0  0  0  0  0  0  0  0  0  0  0  0
   11.7569  -15.9183   23.7750 C   0  0  0  0  0  0  0  0  0  0  0  0
   12.5445  -15.8372   24.9074 O   0  0  0  0  0  0  0  0  0  0  0  0
   12.1391  -15.3367   22.7355 O   0  0  0  0  0  0  0  0  0  0  0  0
  2 10  1  0
  2  1  1  6
  3  2  1  0
  4  3  1  0
  5  4  2  0
  6  5  1  0
  7  8  1  0
  7  6  2  0
  8  9  2  0
  9  4  1  0
 10 11  2  0
 13 12  1  6
 14 13  1  0
 15 13  1  0
 15 16  1  1
 16 10  1  0
 17 22  1  0
 17 15  1  0
 18 17  2  0
 20 19  1  0
 21 20  1  6
 21 22  1  0
 23 24  1  0
 23 21  1  0
 25 23  2  0
M  END
$$$$
