FVS.pdb
     RDKit          3D

 25 25  0  0  1  0  0  0  0  0999 V2000
    5.9750  -18.0801   25.7158 N   0  0  0  0  0  0  0  0  0  0  0  0
    6.2842  -16.6861   25.5043 C   0  0  1  0  0  0  0  0  0  0  0  0
    6.9473  -16.1849   26.7741 C   0  0  0  0  0  0  0  0  0  0  0  0
    7.0272  -14.7268   26.8350 C   0  0  0  0  0  0  0  0  0  0  0  0
    5.8900  -13.9518   26.8112 C   0  0  0  0  0  0  0  0  0  0  0  0
    6.0100  -12.5801   26.8686 C   0  0  0  0  0  0  0  0  0  0  0  0
    7.2519  -11.9727   26.9495 C   0  0  0  0  0  0  0  0  0  0  0  0
    8.3945  -12.7364   26.9740 C   0  0  0  0  0  0  0  0  0  0  0  0
    8.2626  -14.1245   26.9154 C   0  0  0  0  0  0  0  0  0  0  0  0
    7.2491  -16.5676   24.3825 C   0  0  0  0  0  0  0  0  0  0  0  0
    8.0932  -17.4821   24.1390 O   0  0  0  0  0  0  0  0  0  0  0  0
    8.9456  -14.1713   20.3941 C   0  0  0  0  0  0  0  0  0  0  0  0
    7.9948  -14.1211   21.5694 C   0  0  1  0  0  0  0  0  0  0  0  0
    6.5941  -14.2048   21.0315 C   0  0  0  0  0  0  0  0  0  0  0  0
    8.2578  -15.3517   22.4220 C   0  0  2  0  0  0  0  0  0  0  0  0
    7.2955  -15.4371   23.5132 N   0  0  0  0  0  0  0  0  0  0  0  0
    9.6430  -15.4086   22.8978 C   0  0  0  0  0  0  0  0  0  0  0  0
   10.0486  -14.5401   23.7050 O   0  0  0  0  0  0  0  0  0  0  0  0
   11.4678  -18.1399   24.4514 O   0  0  0  0  0  0  0  0  0  0  0  0
   12.3454  -17.8116   23.4342 C   0  0  0  0  0  0  0  0  0  0  0  0
   11.9618  -16.4240   22.9238 C   0  0  2  0  0  0  0  0  0  0  0  0
   10.5863  -16.4082   22.4978 N   0  0  0  0  0  0  0  0  0  0  0  0
   12.9080  -15.9517   21.9184 C   0  0  0  0  0  0  0  0  0  0  0  0
   14.2171  -15.6834   22.2701 O   0  0  0  0  0  0  0  0  0  0  0  0
   12.5594  -15.7815   20.7291 O   0  0  0  0  0  0  0  0  0  0  0  0
  2 10  1  0
  2  1  1  1
  3  2  1  0
  4  3  1  0
  5  4  2  0
  6  5  1  0
  7  8  1  0
  7  6  2  0
  8  9  2  0
  9  4  1  0
 10 11  2  0
 13 12  1  6
 14 13  1  0
 15 13  1  0
 15 16  1  1
 16 10  1  0
 17 22  1  0
 17 15  1  0
 18 17  2  0
 20 19  1  0
 21 20  1  6
 21 22  1  0
 23 24  1  0
 23 21  1  0
 25 23  2  0
M  END
$$$$
