FVS.pdb
     RDKit          3D

 25 25  0  0  1  0  0  0  0  0999 V2000
    5.7486  -17.7896   25.3948 N   0  0  0  0  0  0  0  0  0  0  0  0
    6.1780  -16.4389   25.1213 C   0  0  1  0  0  0  0  0  0  0  0  0
    6.9281  -15.9583   26.3500 C   0  0  0  0  0  0  0  0  0  0  0  0
    7.0253  -14.5018   26.4217 C   0  0  0  0  0  0  0  0  0  0  0  0
    5.9109  -13.7260   26.6460 C   0  0  0  0  0  0  0  0  0  0  0  0
    6.0463  -12.3557   26.7044 C   0  0  0  0  0  0  0  0  0  0  0  0
    7.2812  -11.7507   26.5416 C   0  0  0  0  0  0  0  0  0  0  0  0
    8.4013  -12.5152   26.3170 C   0  0  0  0  0  0  0  0  0  0  0  0
    8.2538  -13.9018   26.2595 C   0  0  0  0  0  0  0  0  0  0  0  0
    7.1104  -16.4505   23.9663 C   0  0  0  0  0  0  0  0  0  0  0  0
    7.7842  -17.4840   23.6727 O   0  0  0  0  0  0  0  0  0  0  0  0
    8.7900  -14.3399   19.8137 C   0  0  0  0  0  0  0  0  0  0  0  0
    7.9334  -14.1685   21.0484 C   0  0  1  0  0  0  0  0  0  0  0  0
    6.4983  -14.1056   20.6073 C   0  0  0  0  0  0  0  0  0  0  0  0
    8.1192  -15.4081   21.9083 C   0  0  2  0  0  0  0  0  0  0  0  0
    7.3122  -15.3205   23.1188 N   0  0  0  0  0  0  0  0  0  0  0  0
    9.5312  -15.6714   22.2006 C   0  0  0  0  0  0  0  0  0  0  0  0
   10.1703  -14.8606   22.9109 O   0  0  0  0  0  0  0  0  0  0  0  0
   11.2997  -19.2274   21.1385 O   0  0  0  0  0  0  0  0  0  0  0  0
   11.8503  -18.5798   22.2294 C   0  0  0  0  0  0  0  0  0  0  0  0
   11.6276  -17.0810   22.0370 C   0  0  2  0  0  0  0  0  0  0  0  0
   10.2479  -16.8145   21.7223 N   0  0  0  0  0  0  0  0  0  0  0  0
   12.5803  -16.5246   21.0820 C   0  0  0  0  0  0  0  0  0  0  0  0
   13.9337  -16.5465   21.3599 O   0  0  0  0  0  0  0  0  0  0  0  0
   12.1976  -16.0214   20.0026 O   0  0  0  0  0  0  0  0  0  0  0  0
  2 10  1  0
  2  1  1  1
  3  2  1  0
  4  3  1  0
  5  4  2  0
  6  5  1  0
  7  8  1  0
  7  6  2  0
  8  9  2  0
  9  4  1  0
 10 11  2  0
 13 12  1  6
 14 13  1  0
 15 13  1  0
 15 16  1  1
 16 10  1  0
 17 22  1  0
 17 15  1  0
 18 17  2  0
 20 19  1  0
 21 20  1  6
 21 22  1  0
 23 24  1  0
 23 21  1  0
 25 23  2  0
M  END
$$$$
