WVL.pdb
     RDKit          3D

 30 31  0  0  1  0  0  0  0  0999 V2000
   23.2277  -20.5902  -16.0092 N   0  0  0  0  0  0  0  0  0  0  0  0
   23.8964  -19.9410  -14.9122 C   0  0  1  0  0  0  0  0  0  0  0  0
   22.9179  -19.6512  -13.8233 C   0  0  0  0  0  0  0  0  0  0  0  0
   21.8125  -18.8145  -14.2764 C   0  0  0  0  0  0  0  0  0  0  0  0
   20.4655  -18.9433  -13.9327 C   0  0  0  0  0  0  0  0  0  0  0  0
   19.7426  -17.9758  -14.5025 N   0  0  0  0  0  0  0  0  0  0  0  0
   20.6062  -17.2093  -15.2216 C   0  0  0  0  0  0  0  0  0  0  0  0
   20.4064  -16.0856  -16.0129 C   0  0  0  0  0  0  0  0  0  0  0  0
   21.4486  -15.4652  -16.6710 C   0  0  0  0  0  0  0  0  0  0  0  0
   22.7264  -15.9667  -16.5463 C   0  0  0  0  0  0  0  0  0  0  0  0
   22.9388  -17.0745  -15.7687 C   0  0  0  0  0  0  0  0  0  0  0  0
   21.8906  -17.6991  -15.1045 C   0  0  0  0  0  0  0  0  0  0  0  0
   25.0080  -20.8167  -14.4677 C   0  0  0  0  0  0  0  0  0  0  0  0
   24.9281  -22.0521  -14.6567 O   0  0  0  0  0  0  0  0  0  0  0  0
   28.9251  -20.0585  -15.0093 C   0  0  0  0  0  0  0  0  0  0  0  0
   28.6315  -20.5112  -13.6174 C   0  0  1  0  0  0  0  0  0  0  0  0
   28.6543  -19.2935  -12.7135 C   0  0  0  0  0  0  0  0  0  0  0  0
   27.2942  -21.1597  -13.4641 C   0  0  2  0  0  0  0  0  0  0  0  0
   26.1804  -20.3474  -13.8301 N   0  0  0  0  0  0  0  0  0  0  0  0
   27.1332  -21.5556  -12.0153 C   0  0  0  0  0  0  0  0  0  0  0  0
   27.7437  -22.5646  -11.5836 O   0  0  0  0  0  0  0  0  0  0  0  0
   28.2409  -19.2079   -7.5616 C   0  0  0  0  0  0  0  0  0  0  0  0
   27.0173  -19.4965   -8.4029 C   0  0  2  0  0  0  0  0  0  0  0  0
   25.7765  -18.7885   -7.9463 C   0  0  0  0  0  0  0  0  0  0  0  0
   26.8650  -20.9028   -8.8220 C   0  0  0  0  0  0  0  0  0  0  0  0
   25.8742  -21.2814   -9.8310 C   0  0  2  0  0  0  0  0  0  0  0  0
   26.3022  -20.7965  -11.1509 N   0  0  0  0  0  0  0  0  0  0  0  0
   24.4540  -21.0910   -9.5710 C   0  0  0  0  0  0  0  0  0  0  0  0
   23.5484  -20.4937  -10.4287 O   0  0  0  0  0  0  0  0  0  0  0  0
   23.9535  -21.4816   -8.4884 O   0  0  0  0  0  0  0  0  0  0  0  0
  2  1  1  6
  2  3  1  0
  2 13  1  0
  3  4  1  0
  4  5  2  0
  4 12  1  0
  5  6  1  0
  6  7  1  0
  7  8  2  0
  8  9  1  0
 10  9  2  0
 11 10  1  0
 12 11  2  0
 12  7  1  0
 13 19  1  0
 14 13  2  0
 16 15  1  6
 16 17  1  0
 18 16  1  0
 18 19  1  1
 20 27  1  0
 20 18  1  0
 21 20  2  0
 23 22  1  1
 23 24  1  0
 25 23  1  0
 26 25  1  1
 26 27  1  0
 28 26  1  0
 28 29  1  0
 30 28  2  0
M  END
$$$$
