WVL.pdb
     RDKit          3D

 30 31  0  0  1  0  0  0  0  0999 V2000
   26.9993  -18.0800   -9.1164 N   0  0  0  0  0  0  0  0  0  0  0  0
   26.8695  -19.4850   -9.4011 C   0  0  1  0  0  0  0  0  0  0  0  0
   26.3542  -20.1998   -8.1966 C   0  0  0  0  0  0  0  0  0  0  0  0
   27.0663  -19.8253   -6.9800 C   0  0  0  0  0  0  0  0  0  0  0  0
   26.7000  -18.8395   -6.0618 C   0  0  0  0  0  0  0  0  0  0  0  0
   27.5661  -18.8010   -5.0461 N   0  0  0  0  0  0  0  0  0  0  0  0
   28.5032  -19.7564   -5.2902 C   0  0  0  0  0  0  0  0  0  0  0  0
   29.6307  -20.1485   -4.5803 C   0  0  0  0  0  0  0  0  0  0  0  0
   30.4604  -21.1545   -5.0315 C   0  0  0  0  0  0  0  0  0  0  0  0
   30.1713  -21.7938   -6.2179 C   0  0  0  0  0  0  0  0  0  0  0  0
   29.0622  -21.4180   -6.9289 C   0  0  0  0  0  0  0  0  0  0  0  0
   28.2253  -20.4063   -6.4750 C   0  0  0  0  0  0  0  0  0  0  0  0
   25.9837  -19.6356  -10.5813 C   0  0  0  0  0  0  0  0  0  0  0  0
   25.3676  -18.6360  -11.0166 O   0  0  0  0  0  0  0  0  0  0  0  0
   27.1680  -22.2612  -14.5016 C   0  0  0  0  0  0  0  0  0  0  0  0
   26.9654  -22.1057  -13.0307 C   0  0  1  0  0  0  0  0  0  0  0  0
   28.2943  -21.7147  -12.4129 C   0  0  0  0  0  0  0  0  0  0  0  0
   25.9728  -21.0496  -12.6674 C   0  0  2  0  0  0  0  0  0  0  0  0
   25.7784  -20.8553  -11.2678 N   0  0  0  0  0  0  0  0  0  0  0  0
   24.6452  -21.4296  -13.2796 C   0  0  0  0  0  0  0  0  0  0  0  0
   24.5892  -21.6978  -14.5051 O   0  0  0  0  0  0  0  0  0  0  0  0
   20.0713  -21.9822   -9.7248 C   0  0  0  0  0  0  0  0  0  0  0  0
   20.9274  -21.4162  -10.8361 C   0  0  2  0  0  0  0  0  0  0  0  0
   20.4912  -20.0656  -11.3207 C   0  0  0  0  0  0  0  0  0  0  0  0
   21.3410  -22.3904  -11.8639 C   0  0  0  0  0  0  0  0  0  0  0  0
   22.1876  -21.9821  -12.9863 C   0  0  2  0  0  0  0  0  0  0  0  0
   23.4741  -21.4834  -12.4798 N   0  0  0  0  0  0  0  0  0  0  0  0
   21.6341  -21.1783  -14.0672 C   0  0  0  0  0  0  0  0  0  0  0  0
   22.1543  -19.9855  -14.5353 O   0  0  0  0  0  0  0  0  0  0  0  0
   20.5928  -21.5511  -14.6604 O   0  0  0  0  0  0  0  0  0  0  0  0
  2  1  1  1
  2  3  1  0
  2 13  1  0
  3  4  1  0
  4  5  2  0
  4 12  1  0
  5  6  1  0
  6  7  1  0
  7  8  2  0
  8  9  1  0
 10  9  2  0
 11 10  1  0
 12 11  2  0
 12  7  1  0
 13 19  1  0
 14 13  2  0
 16 15  1  6
 16 17  1  0
 18 16  1  0
 18 19  1  1
 20 27  1  0
 20 18  1  0
 21 20  2  0
 23 22  1  6
 23 24  1  0
 25 23  1  0
 26 25  1  1
 26 27  1  0
 28 26  1  0
 28 29  1  0
 30 28  2  0
M  END
$$$$
