WVL.pdb
     RDKit          3D

 30 31  0  0  1  0  0  0  0  0999 V2000
   28.3106  -20.9754  -15.2614 N   0  0  0  0  0  0  0  0  0  0  0  0
   27.3330  -20.1074  -14.6592 C   0  0  1  0  0  0  0  0  0  0  0  0
   26.3986  -19.5957  -15.7044 C   0  0  0  0  0  0  0  0  0  0  0  0
   27.0162  -18.5867  -16.5574 C   0  0  0  0  0  0  0  0  0  0  0  0
   27.4168  -18.7407  -17.8860 C   0  0  0  0  0  0  0  0  0  0  0  0
   27.9052  -17.5932  -18.3634 N   0  0  0  0  0  0  0  0  0  0  0  0
   27.8297  -16.6825  -17.3557 C   0  0  0  0  0  0  0  0  0  0  0  0
   28.1994  -15.3455  -17.2880 C   0  0  0  0  0  0  0  0  0  0  0  0
   28.0378  -14.6040  -16.1356 C   0  0  0  0  0  0  0  0  0  0  0  0
   27.4958  -15.1970  -15.0156 C   0  0  0  0  0  0  0  0  0  0  0  0
   27.1260  -16.5152  -15.0676 C   0  0  0  0  0  0  0  0  0  0  0  0
   27.2870  -17.2624  -16.2276 C   0  0  0  0  0  0  0  0  0  0  0  0
   26.6393  -20.8669  -13.5905 C   0  0  0  0  0  0  0  0  0  0  0  0
   26.4455  -22.0952  -13.7387 O   0  0  0  0  0  0  0  0  0  0  0  0
   24.4122  -21.1734   -9.1467 C   0  0  0  0  0  0  0  0  0  0  0  0
   25.3466  -20.4619  -10.0684 C   0  0  1  0  0  0  0  0  0  0  0  0
   26.7639  -20.7367   -9.6034 C   0  0  0  0  0  0  0  0  0  0  0  0
   25.2459  -20.9079  -11.4909 C   0  0  2  0  0  0  0  0  0  0  0  0
   26.1688  -20.2915  -12.3868 N   0  0  0  0  0  0  0  0  0  0  0  0
   23.8469  -20.6069  -11.9742 C   0  0  0  0  0  0  0  0  0  0  0  0
   23.6675  -19.6651  -12.7854 O   0  0  0  0  0  0  0  0  0  0  0  0
   19.2602  -22.2783  -14.0689 C   0  0  0  0  0  0  0  0  0  0  0  0
   20.4447  -21.4595  -14.5324 C   0  0  2  0  0  0  0  0  0  0  0  0
   20.7285  -21.5660  -16.0012 C   0  0  0  0  0  0  0  0  0  0  0  0
   21.6092  -21.4773  -13.6267 C   0  0  0  0  0  0  0  0  0  0  0  0
   21.4340  -21.3604  -12.1780 C   0  0  2  0  0  0  0  0  0  0  0  0
   22.7471  -21.3788  -11.5177 N   0  0  0  0  0  0  0  0  0  0  0  0
   20.4255  -22.1588  -11.4950 C   0  0  0  0  0  0  0  0  0  0  0  0
   20.6603  -23.3218  -10.7845 O   0  0  0  0  0  0  0  0  0  0  0  0
   19.2203  -21.8096  -11.5224 O   0  0  0  0  0  0  0  0  0  0  0  0
  2  1  1  6
  2  3  1  0
  2 13  1  0
  3  4  1  0
  4  5  2  0
  4 12  1  0
  5  6  1  0
  6  7  1  0
  7  8  2  0
  8  9  1  0
 10  9  2  0
 11 10  1  0
 12 11  2  0
 12  7  1  0
 13 19  1  0
 14 13  2  0
 16 15  1  1
 16 17  1  0
 18 16  1  0
 18 19  1  6
 20 27  1  0
 20 18  1  0
 21 20  2  0
 23 22  1  1
 23 24  1  0
 25 23  1  0
 26 25  1  6
 26 27  1  0
 28 26  1  0
 28 29  1  0
 30 28  2  0
M  END
$$$$
