WVL.pdb
     RDKit          3D

 30 31  0  0  1  0  0  0  0  0999 V2000
   24.3204  -18.7972  -16.4890 N   0  0  0  0  0  0  0  0  0  0  0  0
   24.2105  -19.0167  -15.0706 C   0  0  1  0  0  0  0  0  0  0  0  0
   22.8408  -19.5080  -14.7394 C   0  0  0  0  0  0  0  0  0  0  0  0
   21.7970  -18.5983  -15.1980 C   0  0  0  0  0  0  0  0  0  0  0  0
   21.8749  -17.2072  -15.2880 C   0  0  0  0  0  0  0  0  0  0  0  0
   20.7430  -16.7066  -15.7893 N   0  0  0  0  0  0  0  0  0  0  0  0
   19.9177  -17.7609  -16.0299 C   0  0  0  0  0  0  0  0  0  0  0  0
   18.6264  -17.8275  -16.5366 C   0  0  0  0  0  0  0  0  0  0  0  0
   17.9656  -19.0295  -16.6872 C   0  0  0  0  0  0  0  0  0  0  0  0
   18.5954  -20.2016  -16.3276 C   0  0  0  0  0  0  0  0  0  0  0  0
   19.8695  -20.1515  -15.8265 C   0  0  0  0  0  0  0  0  0  0  0  0
   20.5363  -18.9421  -15.6757 C   0  0  0  0  0  0  0  0  0  0  0  0
   25.2750  -19.9680  -14.6682 C   0  0  0  0  0  0  0  0  0  0  0  0
   25.3167  -21.1015  -15.1992 O   0  0  0  0  0  0  0  0  0  0  0  0
   29.7448  -20.9790  -12.9309 C   0  0  0  0  0  0  0  0  0  0  0  0
   28.6956  -20.0695  -13.4792 C   0  0  1  0  0  0  0  0  0  0  0  0
   28.9399  -19.9153  -14.9682 C   0  0  0  0  0  0  0  0  0  0  0  0
   27.3028  -20.5810  -13.3030 C   0  0  2  0  0  0  0  0  0  0  0  0
   26.2709  -19.6822  -13.7051 N   0  0  0  0  0  0  0  0  0  0  0  0
   27.1066  -20.8998  -11.8396 C   0  0  0  0  0  0  0  0  0  0  0  0
   28.0932  -21.2652  -11.1539 O   0  0  0  0  0  0  0  0  0  0  0  0
   26.7313  -18.5625   -7.1314 C   0  0  0  0  0  0  0  0  0  0  0  0
   26.5478  -19.9847   -7.6131 C   0  0  2  0  0  0  0  0  0  0  0  0
   27.2331  -21.0141   -6.7646 C   0  0  0  0  0  0  0  0  0  0  0  0
   26.6311  -20.1647   -9.0750 C   0  0  0  0  0  0  0  0  0  0  0  0
   25.6027  -20.9150   -9.7978 C   0  0  2  0  0  0  0  0  0  0  0  0
   25.8228  -20.7877  -11.2454 N   0  0  0  0  0  0  0  0  0  0  0  0
   24.2040  -20.8036   -9.4075 C   0  0  0  0  0  0  0  0  0  0  0  0
   23.1907  -20.2633  -10.1780 O   0  0  0  0  0  0  0  0  0  0  0  0
   23.8286  -21.2157   -8.2830 O   0  0  0  0  0  0  0  0  0  0  0  0
  2  1  1  6
  2  3  1  0
  2 13  1  0
  3  4  1  0
  4  5  2  0
  4 12  1  0
  5  6  1  0
  6  7  1  0
  7  8  2  0
  8  9  1  0
 10  9  2  0
 11 10  1  0
 12 11  2  0
 12  7  1  0
 13 19  1  0
 14 13  2  0
 16 15  1  6
 16 17  1  0
 18 16  1  0
 18 19  1  1
 20 27  1  0
 20 18  1  0
 21 20  2  0
 23 22  1  6
 23 24  1  0
 25 23  1  0
 26 25  1  1
 26 27  1  0
 28 26  1  0
 28 29  1  0
 30 28  2  0
M  END
$$$$
