WVL.pdb
     RDKit          3D

 30 31  0  0  1  0  0  0  0  0999 V2000
   24.8933  -19.4753   -9.6081 N   0  0  0  0  0  0  0  0  0  0  0  0
   26.1200  -20.1305   -9.9794 C   0  0  1  0  0  0  0  0  0  0  0  0
   26.4134  -21.2360   -9.0207 C   0  0  0  0  0  0  0  0  0  0  0  0
   26.5003  -20.7686   -7.6418 C   0  0  0  0  0  0  0  0  0  0  0  0
   25.4421  -20.5754   -6.7518 C   0  0  0  0  0  0  0  0  0  0  0  0
   25.8985  -20.1796   -5.5609 N   0  0  0  0  0  0  0  0  0  0  0  0
   27.2534  -20.1097   -5.6609 C   0  0  0  0  0  0  0  0  0  0  0  0
   28.2310  -19.7494   -4.7426 C   0  0  0  0  0  0  0  0  0  0  0  0
   29.5707  -19.7405   -5.0728 C   0  0  0  0  0  0  0  0  0  0  0  0
   29.9597  -20.0968   -6.3462 C   0  0  0  0  0  0  0  0  0  0  0  0
   29.0064  -20.4549   -7.2628 C   0  0  0  0  0  0  0  0  0  0  0  0
   27.6575  -20.4657   -6.9311 C   0  0  0  0  0  0  0  0  0  0  0  0
   25.9838  -20.6042  -11.3783 C   0  0  0  0  0  0  0  0  0  0  0  0
   24.8644  -20.9869  -11.7895 O   0  0  0  0  0  0  0  0  0  0  0  0
   28.1017  -19.3877  -15.7182 C   0  0  0  0  0  0  0  0  0  0  0  0
   28.2322  -19.7789  -14.2834 C   0  0  1  0  0  0  0  0  0  0  0  0
   28.6551  -18.5514  -13.4992 C   0  0  0  0  0  0  0  0  0  0  0  0
   26.9626  -20.2834  -13.6784 C   0  0  2  0  0  0  0  0  0  0  0  0
   27.0515  -20.6571  -12.3048 N   0  0  0  0  0  0  0  0  0  0  0  0
   26.5199  -21.4924  -14.4683 C   0  0  0  0  0  0  0  0  0  0  0  0
   27.1763  -22.5591  -14.3765 O   0  0  0  0  0  0  0  0  0  0  0  0
   22.4102  -24.7940  -13.6231 C   0  0  0  0  0  0  0  0  0  0  0  0
   23.5575  -24.6803  -14.6024 C   0  0  2  0  0  0  0  0  0  0  0  0
   24.3274  -25.9525  -14.7973 C   0  0  0  0  0  0  0  0  0  0  0  0
   24.3432  -23.4357  -14.5023 C   0  0  0  0  0  0  0  0  0  0  0  0
   24.5980  -22.6126  -15.6859 C   0  0  2  0  0  0  0  0  0  0  0  0
   25.3754  -21.4250  -15.3046 N   0  0  0  0  0  0  0  0  0  0  0  0
   23.5231  -22.3299  -16.6270 C   0  0  0  0  0  0  0  0  0  0  0  0
   22.4330  -21.5135  -16.3872 O   0  0  0  0  0  0  0  0  0  0  0  0
   23.5340  -22.8476  -17.7703 O   0  0  0  0  0  0  0  0  0  0  0  0
  2  1  1  1
  2  3  1  0
  2 13  1  0
  3  4  1  0
  4  5  2  0
  4 12  1  0
  5  6  1  0
  6  7  1  0
  7  8  2  0
  8  9  1  0
 10  9  2  0
 11 10  1  0
 12 11  2  0
 12  7  1  0
 13 19  1  0
 14 13  2  0
 16 15  1  6
 16 17  1  0
 18 16  1  0
 18 19  1  1
 20 27  1  0
 20 18  1  0
 21 20  2  0
 23 22  1  1
 23 24  1  0
 25 23  1  0
 26 25  1  1
 26 27  1  0
 28 26  1  0
 28 29  1  0
 30 28  2  0
M  END
$$$$
