WVL.pdb
     RDKit          3D

 30 31  0  0  1  0  0  0  0  0999 V2000
   28.5272  -21.7603  -10.5964 N   0  0  0  0  0  0  0  0  0  0  0  0
   27.3363  -21.0698  -10.1757 C   0  0  1  0  0  0  0  0  0  0  0  0
   27.7043  -19.8905   -9.3385 C   0  0  0  0  0  0  0  0  0  0  0  0
   28.5552  -20.2523   -8.2105 C   0  0  0  0  0  0  0  0  0  0  0  0
   29.8249  -20.8300   -8.2673 C   0  0  0  0  0  0  0  0  0  0  0  0
   30.3246  -20.9835   -7.0385 N   0  0  0  0  0  0  0  0  0  0  0  0
   29.3900  -20.5105   -6.1705 C   0  0  0  0  0  0  0  0  0  0  0  0
   29.3722  -20.4302   -4.7841 C   0  0  0  0  0  0  0  0  0  0  0  0
   28.2916  -19.9127   -4.0996 C   0  0  0  0  0  0  0  0  0  0  0  0
   27.1949  -19.4607   -4.8017 C   0  0  0  0  0  0  0  0  0  0  0  0
   27.1983  -19.5332   -6.1698 C   0  0  0  0  0  0  0  0  0  0  0  0
   28.2862  -20.0528   -6.8601 C   0  0  0  0  0  0  0  0  0  0  0  0
   26.5681  -20.6963  -11.3884 C   0  0  0  0  0  0  0  0  0  0  0  0
   27.0530  -19.8640  -12.1887 O   0  0  0  0  0  0  0  0  0  0  0  0
   24.6924  -21.4190  -15.4510 C   0  0  0  0  0  0  0  0  0  0  0  0
   25.3619  -21.6672  -14.1400 C   0  0  1  0  0  0  0  0  0  0  0  0
   26.7443  -21.0456  -14.1940 C   0  0  0  0  0  0  0  0  0  0  0  0
   24.6449  -21.0678  -12.9741 C   0  0  2  0  0  0  0  0  0  0  0  0
   25.2969  -21.2239  -11.7152 N   0  0  0  0  0  0  0  0  0  0  0  0
   23.2832  -21.7152  -12.8833 C   0  0  0  0  0  0  0  0  0  0  0  0
   23.1254  -22.7090  -12.1320 O   0  0  0  0  0  0  0  0  0  0  0  0
   19.9528  -18.2356  -10.5558 C   0  0  0  0  0  0  0  0  0  0  0  0
   19.9470  -19.6857  -10.9865 C   0  0  2  0  0  0  0  0  0  0  0  0
   19.5138  -20.6429   -9.9162 C   0  0  0  0  0  0  0  0  0  0  0  0
   21.0934  -20.0943  -11.8203 C   0  0  0  0  0  0  0  0  0  0  0  0
   20.8922  -20.8840  -13.0365 C   0  0  2  0  0  0  0  0  0  0  0  0
   22.1940  -21.2069  -13.6377 N   0  0  0  0  0  0  0  0  0  0  0  0
   19.8819  -20.4887  -14.0081 C   0  0  0  0  0  0  0  0  0  0  0  0
   19.9609  -19.4015  -14.8592 O   0  0  0  0  0  0  0  0  0  0  0  0
   18.8249  -21.1553  -14.1250 O   0  0  0  0  0  0  0  0  0  0  0  0
  2  1  1  6
  2  3  1  0
  2 13  1  0
  3  4  1  0
  4  5  2  0
  4 12  1  0
  5  6  1  0
  6  7  1  0
  7  8  2  0
  8  9  1  0
 10  9  2  0
 11 10  1  0
 12 11  2  0
 12  7  1  0
 13 19  1  0
 14 13  2  0
 16 15  1  6
 16 17  1  0
 18 16  1  0
 18 19  1  1
 20 27  1  0
 20 18  1  0
 21 20  2  0
 23 22  1  1
 23 24  1  0
 25 23  1  0
 26 25  1  1
 26 27  1  0
 28 26  1  0
 28 29  1  0
 30 28  2  0
M  END
$$$$
