WVL.pdb
     RDKit          3D

 30 31  0  0  1  0  0  0  0  0999 V2000
   24.7198  -14.6023  -21.2859 N   0  0  0  0  0  0  0  0  0  0  0  0
   23.7488  -14.6136  -20.2235 C   0  0  1  0  0  0  0  0  0  0  0  0
   22.4215  -15.0405  -20.7557 C   0  0  0  0  0  0  0  0  0  0  0  0
   21.8382  -14.0515  -21.6552 C   0  0  0  0  0  0  0  0  0  0  0  0
   22.2728  -13.7259  -22.9414 C   0  0  0  0  0  0  0  0  0  0  0  0
   21.4738  -12.8050  -23.4862 N   0  0  0  0  0  0  0  0  0  0  0  0
   20.5141  -12.5205  -22.5650 C   0  0  0  0  0  0  0  0  0  0  0  0
   19.4403  -11.6401  -22.5902 C   0  0  0  0  0  0  0  0  0  0  0  0
   18.5852  -11.5055  -21.5156 C   0  0  0  0  0  0  0  0  0  0  0  0
   18.7939  -12.2607  -20.3815 C   0  0  0  0  0  0  0  0  0  0  0  0
   19.8490  -13.1338  -20.3424 C   0  0  0  0  0  0  0  0  0  0  0  0
   20.7097  -13.2711  -21.4241 C   0  0  0  0  0  0  0  0  0  0  0  0
   24.2512  -15.5056  -19.1502 C   0  0  0  0  0  0  0  0  0  0  0  0
   24.8975  -16.5328  -19.4595 O   0  0  0  0  0  0  0  0  0  0  0  0
   25.7439  -16.2361  -14.5178 C   0  0  0  0  0  0  0  0  0  0  0  0
   25.2074  -15.3510  -15.5936 C   0  0  1  0  0  0  0  0  0  0  0  0
   26.3657  -14.5605  -16.1717 C   0  0  0  0  0  0  0  0  0  0  0  0
   24.5635  -16.0930  -16.7193 C   0  0  2  0  0  0  0  0  0  0  0  0
   24.0490  -15.2758  -17.7691 N   0  0  0  0  0  0  0  0  0  0  0  0
   23.4225  -16.9025  -16.1497 C   0  0  0  0  0  0  0  0  0  0  0  0
   23.6629  -17.7689  -15.2730 O   0  0  0  0  0  0  0  0  0  0  0  0
   17.4306  -17.6237  -17.3635 C   0  0  0  0  0  0  0  0  0  0  0  0
   18.4023  -17.4743  -16.2137 C   0  0  2  0  0  0  0  0  0  0  0  0
   17.7727  -17.0132  -14.9330 C   0  0  0  0  0  0  0  0  0  0  0  0
   19.7031  -16.8757  -16.5690 C   0  0  0  0  0  0  0  0  0  0  0  0
   20.9567  -17.4949  -16.1355 C   0  0  2  0  0  0  0  0  0  0  0  0
   22.0938  -16.6871  -16.5990 N   0  0  0  0  0  0  0  0  0  0  0  0
   21.1575  -18.9290  -16.2901 C   0  0  0  0  0  0  0  0  0  0  0  0
   20.9161  -19.8877  -15.3231 O   0  0  0  0  0  0  0  0  0  0  0  0
   21.5882  -19.3919  -17.3743 O   0  0  0  0  0  0  0  0  0  0  0  0
  2  1  1  6
  2  3  1  0
  2 13  1  0
  3  4  1  0
  4  5  2  0
  4 12  1  0
  5  6  1  0
  6  7  1  0
  7  8  2  0
  8  9  1  0
 10  9  2  0
 11 10  1  0
 12 11  2  0
 12  7  1  0
 13 19  1  0
 14 13  2  0
 16 15  1  1
 16 17  1  0
 18 16  1  0
 18 19  1  6
 20 27  1  0
 20 18  1  0
 21 20  2  0
 23 22  1  6
 23 24  1  0
 25 23  1  0
 26 25  1  6
 26 27  1  0
 28 26  1  0
 28 29  1  0
 30 28  2  0
M  END
$$$$
