WVL.pdb
     RDKit          3D

 30 31  0  0  1  0  0  0  0  0999 V2000
   26.9269  -22.3048  -10.7286 N   0  0  0  0  0  0  0  0  0  0  0  0
   26.0736  -21.2133  -11.1190 C   0  0  1  0  0  0  0  0  0  0  0  0
   26.7208  -19.9150  -10.7687 C   0  0  0  0  0  0  0  0  0  0  0  0
   26.8942  -19.7497   -9.3300 C   0  0  0  0  0  0  0  0  0  0  0  0
   25.9200  -19.3717   -8.4042 C   0  0  0  0  0  0  0  0  0  0  0  0
   26.4266  -19.3635   -7.1687 N   0  0  0  0  0  0  0  0  0  0  0  0
   27.7314  -19.7336   -7.2747 C   0  0  0  0  0  0  0  0  0  0  0  0
   28.7300  -19.8851   -6.3215 C   0  0  0  0  0  0  0  0  0  0  0  0
   30.0108  -20.2668   -6.6648 C   0  0  0  0  0  0  0  0  0  0  0  0
   30.3179  -20.5063   -7.9870 C   0  0  0  0  0  0  0  0  0  0  0  0
   29.3428  -20.3612   -8.9384 C   0  0  0  0  0  0  0  0  0  0  0  0
   28.0526  -19.9784   -8.5940 C   0  0  0  0  0  0  0  0  0  0  0  0
   25.7948  -21.3433  -12.5701 C   0  0  0  0  0  0  0  0  0  0  0  0
   26.7020  -21.0848  -13.3939 O   0  0  0  0  0  0  0  0  0  0  0  0
   24.7553  -23.2898  -16.5608 C   0  0  0  0  0  0  0  0  0  0  0  0
   25.0675  -23.0754  -15.1168 C   0  0  1  0  0  0  0  0  0  0  0  0
   26.5370  -22.7177  -15.0027 C   0  0  0  0  0  0  0  0  0  0  0  0
   24.2853  -21.9677  -14.4891 C   0  0  2  0  0  0  0  0  0  0  0  0
   24.5491  -21.7473  -13.1049 N   0  0  0  0  0  0  0  0  0  0  0  0
   22.8177  -22.2897  -14.6440 C   0  0  0  0  0  0  0  0  0  0  0  0
   22.2907  -23.1336  -13.8777 O   0  0  0  0  0  0  0  0  0  0  0  0
   18.9030  -18.6683  -14.6403 C   0  0  0  0  0  0  0  0  0  0  0  0
   19.7796  -19.3676  -13.6251 C   0  0  2  0  0  0  0  0  0  0  0  0
   20.0262  -18.5747  -12.3762 C   0  0  0  0  0  0  0  0  0  0  0  0
   20.9324  -20.0943  -14.1904 C   0  0  0  0  0  0  0  0  0  0  0  0
   20.7697  -20.9717  -15.3509 C   0  0  2  0  0  0  0  0  0  0  0  0
   22.0423  -21.6464  -15.6434 N   0  0  0  0  0  0  0  0  0  0  0  0
   20.0751  -20.4944  -16.5386 C   0  0  0  0  0  0  0  0  0  0  0  0
   18.7468  -20.7263  -16.8458 O   0  0  0  0  0  0  0  0  0  0  0  0
   20.6870  -19.8098  -17.3943 O   0  0  0  0  0  0  0  0  0  0  0  0
  2  1  1  6
  2  3  1  0
  2 13  1  0
  3  4  1  0
  4  5  2  0
  4 12  1  0
  5  6  1  0
  6  7  1  0
  7  8  2  0
  8  9  1  0
 10  9  2  0
 11 10  1  0
 12 11  2  0
 12  7  1  0
 13 19  1  0
 14 13  2  0
 16 15  1  6
 16 17  1  0
 18 16  1  0
 18 19  1  1
 20 27  1  0
 20 18  1  0
 21 20  2  0
 23 22  1  6
 23 24  1  0
 25 23  1  0
 26 25  1  1
 26 27  1  0
 28 26  1  0
 28 29  1  0
 30 28  2  0
M  END
$$$$
