WVL.pdb
     RDKit          3D

 30 31  0  0  1  0  0  0  0  0999 V2000
   28.1502  -21.5614  -10.6826 N   0  0  0  0  0  0  0  0  0  0  0  0
   26.8960  -21.1403  -10.1155 C   0  0  1  0  0  0  0  0  0  0  0  0
   27.1356  -20.0934   -9.0792 C   0  0  0  0  0  0  0  0  0  0  0  0
   28.2411  -20.4325   -8.1904 C   0  0  0  0  0  0  0  0  0  0  0  0
   29.3908  -21.1542   -8.5171 C   0  0  0  0  0  0  0  0  0  0  0  0
   30.2065  -21.2371   -7.4631 N   0  0  0  0  0  0  0  0  0  0  0  0
   29.6002  -20.5740   -6.4417 C   0  0  0  0  0  0  0  0  0  0  0  0
   29.9857  -20.3507   -5.1263 C   0  0  0  0  0  0  0  0  0  0  0  0
   29.1911  -19.6458   -4.2455 C   0  0  0  0  0  0  0  0  0  0  0  0
   27.9798  -19.1459   -4.6728 C   0  0  0  0  0  0  0  0  0  0  0  0
   27.5864  -19.3581   -5.9679 C   0  0  0  0  0  0  0  0  0  0  0  0
   28.3861  -20.0663   -6.8559 C   0  0  0  0  0  0  0  0  0  0  0  0
   26.0271  -20.6668  -11.2204 C   0  0  0  0  0  0  0  0  0  0  0  0
   26.4291  -19.7417  -11.9627 O   0  0  0  0  0  0  0  0  0  0  0  0
   23.2769  -22.1638  -14.8612 C   0  0  0  0  0  0  0  0  0  0  0  0
   23.9846  -22.3297  -13.5572 C   0  0  1  0  0  0  0  0  0  0  0  0
   25.4034  -22.7805  -13.8475 C   0  0  0  0  0  0  0  0  0  0  0  0
   24.0680  -21.0733  -12.7528 C   0  0  2  0  0  0  0  0  0  0  0  0
   24.7463  -21.1961  -11.5041 N   0  0  0  0  0  0  0  0  0  0  0  0
   22.6591  -20.6021  -12.4796 C   0  0  0  0  0  0  0  0  0  0  0  0
   22.0034  -21.1351  -11.5506 O   0  0  0  0  0  0  0  0  0  0  0  0
   19.0222  -17.2227  -11.5986 C   0  0  0  0  0  0  0  0  0  0  0  0
   19.9487  -16.6749  -12.6615 C   0  0  2  0  0  0  0  0  0  0  0  0
   19.4284  -15.4543  -13.3606 C   0  0  0  0  0  0  0  0  0  0  0  0
   20.6067  -17.6934  -13.5019 C   0  0  0  0  0  0  0  0  0  0  0  0
   20.7112  -19.0827  -13.0525 C   0  0  2  0  0  0  0  0  0  0  0  0
   22.0822  -19.5690  -13.2630 N   0  0  0  0  0  0  0  0  0  0  0  0
   19.6857  -20.0501  -13.4176 C   0  0  0  0  0  0  0  0  0  0  0  0
   18.5873  -20.3919  -12.6501 O   0  0  0  0  0  0  0  0  0  0  0  0
   19.7553  -20.6594  -14.5127 O   0  0  0  0  0  0  0  0  0  0  0  0
  2  1  1  6
  2  3  1  0
  2 13  1  0
  3  4  1  0
  4  5  2  0
  4 12  1  0
  5  6  1  0
  6  7  1  0
  7  8  2  0
  8  9  1  0
 10  9  2  0
 11 10  1  0
 12 11  2  0
 12  7  1  0
 13 19  1  0
 14 13  2  0
 16 15  1  6
 16 17  1  0
 18 16  1  0
 18 19  1  1
 20 27  1  0
 20 18  1  0
 21 20  2  0
 23 22  1  6
 23 24  1  0
 25 23  1  0
 26 25  1  6
 26 27  1  0
 28 26  1  0
 28 29  1  0
 30 28  2  0
M  END
$$$$
