WVL.pdb
     RDKit          3D

 30 31  0  0  1  0  0  0  0  0999 V2000
   21.3338  -19.8408  -16.1208 N   0  0  0  0  0  0  0  0  0  0  0  0
   22.2240  -19.0891  -15.2756 C   0  0  1  0  0  0  0  0  0  0  0  0
   22.0617  -19.5234  -13.8570 C   0  0  0  0  0  0  0  0  0  0  0  0
   20.6898  -19.3778  -13.3837 C   0  0  0  0  0  0  0  0  0  0  0  0
   19.8672  -20.3822  -12.8701 C   0  0  0  0  0  0  0  0  0  0  0  0
   18.6886  -19.8768  -12.4975 N   0  0  0  0  0  0  0  0  0  0  0  0
   18.7291  -18.5434  -12.7637 C   0  0  0  0  0  0  0  0  0  0  0  0
   17.7886  -17.5366  -12.5887 C   0  0  0  0  0  0  0  0  0  0  0  0
   18.0476  -16.2295  -12.9472 C   0  0  0  0  0  0  0  0  0  0  0  0
   19.2698  -15.9038  -13.4950 C   0  0  0  0  0  0  0  0  0  0  0  0
   20.2076  -16.8866  -13.6733 C   0  0  0  0  0  0  0  0  0  0  0  0
   19.9486  -18.2025  -13.3115 C   0  0  0  0  0  0  0  0  0  0  0  0
   23.6062  -19.2777  -15.7796 C   0  0  0  0  0  0  0  0  0  0  0  0
   23.8445  -20.2109  -16.5801 O   0  0  0  0  0  0  0  0  0  0  0  0
   26.6961  -16.6073  -16.6352 C   0  0  0  0  0  0  0  0  0  0  0  0
   27.0195  -17.6426  -15.6095 C   0  0  1  0  0  0  0  0  0  0  0  0
   26.9487  -16.9877  -14.2433 C   0  0  0  0  0  0  0  0  0  0  0  0
   26.0743  -18.7999  -15.6026 C   0  0  2  0  0  0  0  0  0  0  0  0
   24.7017  -18.4612  -15.4135 N   0  0  0  0  0  0  0  0  0  0  0  0
   26.4881  -19.7310  -14.4875 C   0  0  0  0  0  0  0  0  0  0  0  0
   27.5998  -20.3114  -14.5538 O   0  0  0  0  0  0  0  0  0  0  0  0
   25.2615  -20.4096   -8.5566 C   0  0  0  0  0  0  0  0  0  0  0  0
   26.0071  -20.9744   -9.7454 C   0  0  2  0  0  0  0  0  0  0  0  0
   27.3901  -21.4607   -9.4289 C   0  0  0  0  0  0  0  0  0  0  0  0
   25.8377  -20.2229  -11.0036 C   0  0  0  0  0  0  0  0  0  0  0  0
   25.9510  -20.8947  -12.2992 C   0  0  2  0  0  0  0  0  0  0  0  0
   25.6315  -19.9480  -13.3772 N   0  0  0  0  0  0  0  0  0  0  0  0
   25.3718  -22.2169  -12.4923 C   0  0  0  0  0  0  0  0  0  0  0  0
   25.9833  -23.4193  -12.1876 O   0  0  0  0  0  0  0  0  0  0  0  0
   24.2200  -22.3359  -12.9765 O   0  0  0  0  0  0  0  0  0  0  0  0
  2  1  1  6
  2  3  1  0
  2 13  1  0
  3  4  1  0
  4  5  2  0
  4 12  1  0
  5  6  1  0
  6  7  1  0
  7  8  2  0
  8  9  1  0
 10  9  2  0
 11 10  1  0
 12 11  2  0
 12  7  1  0
 13 19  1  0
 14 13  2  0
 16 15  1  6
 16 17  1  0
 18 16  1  0
 18 19  1  1
 20 27  1  0
 20 18  1  0
 21 20  2  0
 23 22  1  1
 23 24  1  0
 25 23  1  0
 26 25  1  1
 26 27  1  0
 28 26  1  0
 28 29  1  0
 30 28  2  0
M  END
$$$$
