WVL.pdb
     RDKit          3D

 30 31  0  0  1  0  0  0  0  0999 V2000
   23.3383  -22.1804  -13.4583 N   0  0  0  0  0  0  0  0  0  0  0  0
   23.8718  -20.9846  -12.8606 C   0  0  1  0  0  0  0  0  0  0  0  0
   22.7766  -20.2192  -12.1958 C   0  0  0  0  0  0  0  0  0  0  0  0
   21.9212  -19.5265  -13.1528 C   0  0  0  0  0  0  0  0  0  0  0  0
   20.5402  -19.6679  -13.3014 C   0  0  0  0  0  0  0  0  0  0  0  0
   20.0849  -18.8454  -14.2497 N   0  0  0  0  0  0  0  0  0  0  0  0
   21.1594  -18.1621  -14.7286 C   0  0  0  0  0  0  0  0  0  0  0  0
   21.2737  -17.1944  -15.7182 C   0  0  0  0  0  0  0  0  0  0  0  0
   22.4905  -16.6359  -16.0518 C   0  0  0  0  0  0  0  0  0  0  0  0
   23.6297  -17.0428  -15.3910 C   0  0  0  0  0  0  0  0  0  0  0  0
   23.5323  -17.9964  -14.4122 C   0  0  0  0  0  0  0  0  0  0  0  0
   22.3076  -18.5584  -14.0745 C   0  0  0  0  0  0  0  0  0  0  0  0
   24.9485  -21.3808  -11.9205 C   0  0  0  0  0  0  0  0  0  0  0  0
   24.8766  -22.4868  -11.3374 O   0  0  0  0  0  0  0  0  0  0  0  0
   29.6267  -21.0228  -10.3724 C   0  0  0  0  0  0  0  0  0  0  0  0
   28.5222  -20.6683  -11.3121 C   0  0  1  0  0  0  0  0  0  0  0  0
   28.7077  -21.4783  -12.5810 C   0  0  0  0  0  0  0  0  0  0  0  0
   27.1588  -20.9709  -10.7811 C   0  0  2  0  0  0  0  0  0  0  0  0
   26.0781  -20.5815  -11.6266 N   0  0  0  0  0  0  0  0  0  0  0  0
   27.0053  -20.2549   -9.4599 C   0  0  0  0  0  0  0  0  0  0  0  0
   26.3714  -19.1716   -9.4194 O   0  0  0  0  0  0  0  0  0  0  0  0
   28.1515  -19.6611   -4.0608 C   0  0  0  0  0  0  0  0  0  0  0  0
   26.9597  -20.4548   -4.5487 C   0  0  2  0  0  0  0  0  0  0  0  0
   26.4024  -21.4112   -3.5368 C   0  0  0  0  0  0  0  0  0  0  0  0
   27.0586  -20.9394   -5.9386 C   0  0  0  0  0  0  0  0  0  0  0  0
   27.5855  -20.0769   -6.9976 C   0  0  2  0  0  0  0  0  0  0  0  0
   27.5704  -20.7994   -8.2775 N   0  0  0  0  0  0  0  0  0  0  0  0
   28.8002  -19.3044   -6.7771 C   0  0  0  0  0  0  0  0  0  0  0  0
   28.8561  -17.9929   -6.3421 O   0  0  0  0  0  0  0  0  0  0  0  0
   29.9238  -19.8231   -6.9866 O   0  0  0  0  0  0  0  0  0  0  0  0
  2  1  1  1
  2  3  1  0
  2 13  1  0
  3  4  1  0
  4  5  2  0
  4 12  1  0
  5  6  1  0
  6  7  1  0
  7  8  2  0
  8  9  1  0
 10  9  2  0
 11 10  1  0
 12 11  2  0
 12  7  1  0
 13 19  1  0
 14 13  2  0
 16 15  1  1
 16 17  1  0
 18 16  1  0
 18 19  1  6
 20 27  1  0
 20 18  1  0
 21 20  2  0
 23 22  1  1
 23 24  1  0
 25 23  1  0
 26 25  1  1
 26 27  1  0
 28 26  1  0
 28 29  1  0
 30 28  2  0
M  END
$$$$
