QHW.pdb
     RDKit          3D

 34 36  0  0  1  0  0  0  0  0999 V2000
   13.1719  -17.5485   16.6181 N   0  0  0  0  0  0  0  0  0  0  0  0
   12.3274  -18.6671   16.7561 C   0  0  0  0  0  0  0  0  0  0  0  0
   12.6004  -19.7106   16.1148 O   0  0  0  0  0  0  0  0  0  0  0  0
   11.1102  -18.6728   17.6372 C   0  0  0  0  0  0  0  0  0  0  0  0
   10.9667  -17.3674   18.3376 C   0  0  0  0  0  0  0  0  0  0  0  0
   10.7543  -17.5602   19.8022 C   0  0  2  0  0  0  0  0  0  0  0  0
    9.5130  -18.3201   20.0442 N   0  0  0  0  0  0  0  0  0  0  0  0
   10.6232  -16.2816   20.4849 C   0  0  0  0  0  0  0  0  0  0  0  0
   11.6020  -15.4522   20.5231 O   0  0  0  0  0  0  0  0  0  0  0  0
    9.4213  -15.8784   21.1412 N   0  0  0  0  0  0  0  0  0  0  0  0
    9.2953  -14.6132   21.8224 C   0  0  1  0  0  0  0  0  0  0  0  0
    8.0546  -13.8619   21.4265 C   0  0  0  0  0  0  0  0  0  0  0  0
    7.9072  -13.7813   19.9422 C   0  0  0  0  0  0  0  0  0  0  0  0
    8.2646  -12.7101   19.1484 C   0  0  0  0  0  0  0  0  0  0  0  0
    7.9848  -13.0058   17.8866 N   0  0  0  0  0  0  0  0  0  0  0  0
    7.4573  -14.2317   17.8252 C   0  0  0  0  0  0  0  0  0  0  0  0
    7.4145  -14.6962   19.0874 N   0  0  0  0  0  0  0  0  0  0  0  0
    9.4511  -14.7398   23.2816 C   0  0  0  0  0  0  0  0  0  0  0  0
    9.5061  -13.6763   23.9906 O   0  0  0  0  0  0  0  0  0  0  0  0
    9.5476  -15.9518   23.9876 N   0  0  0  0  0  0  0  0  0  0  0  0
    9.8372  -16.0472   25.3889 C   0  0  1  0  0  0  0  0  0  0  0  0
    8.6561  -16.5791   26.1785 C   0  0  0  0  0  0  0  0  0  0  0  0
    7.4669  -15.7310   25.9916 C   0  0  0  0  0  0  0  0  0  0  0  0
    6.2652  -16.0495   25.3769 C   0  0  0  0  0  0  0  0  0  0  0  0
    5.4660  -14.9729   25.4386 N   0  0  0  0  0  0  0  0  0  0  0  0
    6.0624  -13.9584   26.0564 C   0  0  0  0  0  0  0  0  0  0  0  0
    5.6936  -12.6591   26.3771 C   0  0  0  0  0  0  0  0  0  0  0  0
    6.5820  -11.8356   27.0451 C   0  0  0  0  0  0  0  0  0  0  0  0
    7.8260  -12.3264   27.3816 C   0  0  0  0  0  0  0  0  0  0  0  0
    8.2244  -13.6103   27.0789 C   0  0  0  0  0  0  0  0  0  0  0  0
    7.3173  -14.4191   26.4086 C   0  0  0  0  0  0  0  0  0  0  0  0
   11.0381  -16.8904   25.5594 C   0  0  0  0  0  0  0  0  0  0  0  0
   11.5795  -17.4532   24.5816 O   0  0  0  0  0  0  0  0  0  0  0  0
   11.5904  -17.0752   26.8091 O   0  0  0  0  0  0  0  0  0  0  0  0
  2  3  2  0
  2  1  1  0
  4  2  1  0
  5  4  1  0
  6  5  1  0
  6  7  1  6
  8 10  1  0
  8  6  1  0
  9  8  2  0
 11 10  1  0
 11 12  1  1
 12 13  1  0
 13 17  1  0
 14 13  2  0
 14 15  1  0
 15 16  1  0
 17 16  2  0
 18 11  1  0
 19 18  2  0
 20 18  1  0
 21 20  1  0
 22 23  1  0
 21 22  1  1
 23 31  1  0
 24 25  1  0
 24 23  2  0
 25 26  1  0
 26 31  2  0
 26 27  1  0
 27 28  2  0
 28 29  1  0
 30 29  2  0
 31 30  1  0
 32 21  1  0
 32 34  1  0
 33 32  2  0
M  END
$$$$
