QHW.pdb
     RDKit          3D

 34 36  0  0  1  0  0  0  0  0999 V2000
    8.8683  -14.1997   16.1509 N   0  0  0  0  0  0  0  0  0  0  0  0
    7.9458  -14.0235   17.2005 C   0  0  0  0  0  0  0  0  0  0  0  0
    6.7266  -14.2082   16.9680 O   0  0  0  0  0  0  0  0  0  0  0  0
    8.3512  -13.6235   18.5910 C   0  0  0  0  0  0  0  0  0  0  0  0
    9.8282  -13.4616   18.6779 C   0  0  0  0  0  0  0  0  0  0  0  0
   10.2864  -13.4334   20.0980 C   0  0  2  0  0  0  0  0  0  0  0  0
   11.7556  -13.3149   20.1600 N   0  0  0  0  0  0  0  0  0  0  0  0
    9.9177  -14.6587   20.7913 C   0  0  0  0  0  0  0  0  0  0  0  0
    8.6856  -14.9544   20.9957 O   0  0  0  0  0  0  0  0  0  0  0  0
   10.8848  -15.5895   21.2774 N   0  0  0  0  0  0  0  0  0  0  0  0
   10.5279  -16.7283   22.0875 C   0  0  1  0  0  0  0  0  0  0  0  0
   11.2988  -17.9659   21.7208 C   0  0  0  0  0  0  0  0  0  0  0  0
   10.8201  -19.1605   22.4792 C   0  0  0  0  0  0  0  0  0  0  0  0
    9.6491  -19.8532   22.2468 C   0  0  0  0  0  0  0  0  0  0  0  0
    9.5663  -20.8497   23.1174 N   0  0  0  0  0  0  0  0  0  0  0  0
   10.6406  -20.8347   23.9115 C   0  0  0  0  0  0  0  0  0  0  0  0
   11.4001  -19.7980   23.5124 N   0  0  0  0  0  0  0  0  0  0  0  0
   10.5687  -16.4303   23.5295 C   0  0  0  0  0  0  0  0  0  0  0  0
   11.5029  -15.6799   23.9780 O   0  0  0  0  0  0  0  0  0  0  0  0
    9.6534  -16.9057   24.4849 N   0  0  0  0  0  0  0  0  0  0  0  0
    9.7023  -16.5785   25.8803 C   0  0  1  0  0  0  0  0  0  0  0  0
    8.3169  -16.4858   26.4913 C   0  0  0  0  0  0  0  0  0  0  0  0
    7.4855  -15.5031   25.7761 C   0  0  0  0  0  0  0  0  0  0  0  0
    6.5864  -15.7195   24.7425 C   0  0  0  0  0  0  0  0  0  0  0  0
    6.0516  -14.5372   24.3993 N   0  0  0  0  0  0  0  0  0  0  0  0
    6.5398  -13.5482   25.1410 C   0  0  0  0  0  0  0  0  0  0  0  0
    6.3328  -12.1767   25.1961 C   0  0  0  0  0  0  0  0  0  0  0  0
    7.0268  -11.4115   26.1161 C   0  0  0  0  0  0  0  0  0  0  0  0
    7.9173  -12.0319   26.9667 C   0  0  0  0  0  0  0  0  0  0  0  0
    8.1469  -13.3903   26.9391 C   0  0  0  0  0  0  0  0  0  0  0  0
    7.4399  -14.1387   26.0084 C   0  0  0  0  0  0  0  0  0  0  0  0
   10.5399  -17.5844   26.5649 C   0  0  0  0  0  0  0  0  0  0  0  0
   10.8221  -18.6740   26.0180 O   0  0  0  0  0  0  0  0  0  0  0  0
   11.0309  -17.3406   27.8300 O   0  0  0  0  0  0  0  0  0  0  0  0
  2  3  2  0
  2  1  1  0
  4  2  1  0
  5  4  1  0
  6  5  1  0
  6  7  1  6
  8 10  1  0
  8  6  1  0
  9  8  2  0
 11 10  1  0
 11 12  1  1
 12 13  1  0
 13 17  1  0
 14 13  2  0
 14 15  1  0
 15 16  1  0
 17 16  2  0
 18 11  1  0
 19 18  2  0
 20 18  1  0
 21 20  1  0
 22 23  1  0
 21 22  1  1
 23 31  1  0
 24 25  1  0
 24 23  2  0
 25 26  1  0
 26 31  2  0
 26 27  1  0
 27 28  2  0
 28 29  1  0
 30 29  2  0
 31 30  1  0
 32 21  1  0
 32 34  1  0
 33 32  2  0
M  END
$$$$
