QHW.pdb
     RDKit          3D

 34 36  0  0  1  0  0  0  0  0999 V2000
   10.6703  -17.9839   15.0829 N   0  0  0  0  0  0  0  0  0  0  0  0
    9.3828  -17.6373   15.5366 C   0  0  0  0  0  0  0  0  0  0  0  0
    8.5356  -17.2418   14.6997 O   0  0  0  0  0  0  0  0  0  0  0  0
    8.9718  -17.7178   16.9797 C   0  0  0  0  0  0  0  0  0  0  0  0
   10.0899  -18.2388   17.8126 C   0  0  0  0  0  0  0  0  0  0  0  0
    9.7220  -18.2607   19.2588 C   0  0  2  0  0  0  0  0  0  0  0  0
    8.3428  -18.7560   19.4291 N   0  0  0  0  0  0  0  0  0  0  0  0
    9.7802  -16.9250   19.8339 C   0  0  0  0  0  0  0  0  0  0  0  0
   10.8919  -16.2880   19.9084 O   0  0  0  0  0  0  0  0  0  0  0  0
    8.6267  -16.2537   20.3407 N   0  0  0  0  0  0  0  0  0  0  0  0
    8.7051  -14.9919   21.0352 C   0  0  1  0  0  0  0  0  0  0  0  0
    7.8069  -13.9443   20.4385 C   0  0  0  0  0  0  0  0  0  0  0  0
    8.0454  -13.7811   18.9729 C   0  0  0  0  0  0  0  0  0  0  0  0
    8.9933  -12.9637   18.3912 C   0  0  0  0  0  0  0  0  0  0  0  0
    8.9055  -13.0838   17.0738 N   0  0  0  0  0  0  0  0  0  0  0  0
    7.9346  -13.9503   16.7715 C   0  0  0  0  0  0  0  0  0  0  0  0
    7.4156  -14.3702   17.9400 N   0  0  0  0  0  0  0  0  0  0  0  0
    8.5330  -15.1372   22.4909 C   0  0  0  0  0  0  0  0  0  0  0  0
    7.3636  -15.3731   22.9531 O   0  0  0  0  0  0  0  0  0  0  0  0
    9.5603  -15.0382   23.4456 N   0  0  0  0  0  0  0  0  0  0  0  0
    9.4343  -15.4576   24.8112 C   0  0  1  0  0  0  0  0  0  0  0  0
    8.0858  -16.0953   25.0878 C   0  0  0  0  0  0  0  0  0  0  0  0
    7.1746  -15.1457   25.7484 C   0  0  0  0  0  0  0  0  0  0  0  0
    5.9166  -15.3826   26.2821 C   0  0  0  0  0  0  0  0  0  0  0  0
    5.4524  -14.2284   26.7863 N   0  0  0  0  0  0  0  0  0  0  0  0
    6.3243  -13.2390   26.6205 C   0  0  0  0  0  0  0  0  0  0  0  0
    6.3414  -11.8895   26.9454 C   0  0  0  0  0  0  0  0  0  0  0  0
    7.4404  -11.1158   26.6181 C   0  0  0  0  0  0  0  0  0  0  0  0
    8.5052  -11.7058   25.9705 C   0  0  0  0  0  0  0  0  0  0  0  0
    8.5214  -13.0418   25.6333 C   0  0  0  0  0  0  0  0  0  0  0  0
    7.4086  -13.7992   25.9712 C   0  0  0  0  0  0  0  0  0  0  0  0
   10.5506  -16.3739   25.1213 C   0  0  0  0  0  0  0  0  0  0  0  0
   10.9726  -17.1922   24.2738 O   0  0  0  0  0  0  0  0  0  0  0  0
   11.1544  -16.3452   26.3606 O   0  0  0  0  0  0  0  0  0  0  0  0
  2  3  2  0
  2  1  1  0
  4  2  1  0
  5  4  1  0
  6  5  1  0
  6  7  1  6
  8 10  1  0
  8  6  1  0
  9  8  2  0
 11 10  1  0
 11 12  1  6
 12 13  1  0
 13 17  1  0
 14 13  2  0
 14 15  1  0
 15 16  1  0
 17 16  2  0
 18 11  1  0
 19 18  2  0
 20 18  1  0
 21 20  1  0
 22 23  1  0
 21 22  1  6
 23 31  1  0
 24 25  1  0
 24 23  2  0
 25 26  1  0
 26 31  2  0
 26 27  1  0
 27 28  2  0
 28 29  1  0
 30 29  2  0
 31 30  1  0
 32 21  1  0
 32 34  1  0
 33 32  2  0
M  END
$$$$
