QHW.pdb
     RDKit          3D

 34 36  0  0  1  0  0  0  0  0999 V2000
    6.6493  -13.4884   17.8406 N   0  0  0  0  0  0  0  0  0  0  0  0
    7.9403  -13.7641   17.3496 C   0  0  0  0  0  0  0  0  0  0  0  0
    8.1198  -13.7886   16.1079 O   0  0  0  0  0  0  0  0  0  0  0  0
    9.1184  -14.0316   18.2432 C   0  0  0  0  0  0  0  0  0  0  0  0
    8.6950  -14.0635   19.6697 C   0  0  0  0  0  0  0  0  0  0  0  0
    9.8709  -14.1906   20.5799 C   0  0  2  0  0  0  0  0  0  0  0  0
   11.0879  -14.4978   19.8046 N   0  0  0  0  0  0  0  0  0  0  0  0
    9.6782  -15.2708   21.5360 C   0  0  0  0  0  0  0  0  0  0  0  0
    8.5727  -15.3943   22.1761 O   0  0  0  0  0  0  0  0  0  0  0  0
   10.6874  -16.2412   21.8155 N   0  0  0  0  0  0  0  0  0  0  0  0
   10.5291  -17.2568   22.8274 C   0  0  1  0  0  0  0  0  0  0  0  0
   11.5280  -18.3722   22.6914 C   0  0  0  0  0  0  0  0  0  0  0  0
   11.2770  -19.1932   21.4690 C   0  0  0  0  0  0  0  0  0  0  0  0
   10.0399  -19.5319   20.9591 C   0  0  0  0  0  0  0  0  0  0  0  0
   10.2173  -20.2653   19.8689 N   0  0  0  0  0  0  0  0  0  0  0  0
   11.5256  -20.4190   19.6462 C   0  0  0  0  0  0  0  0  0  0  0  0
   12.1639  -19.7596   20.6304 N   0  0  0  0  0  0  0  0  0  0  0  0
   10.4749  -16.6946   24.1878 C   0  0  0  0  0  0  0  0  0  0  0  0
   11.3472  -15.8237   24.5304 O   0  0  0  0  0  0  0  0  0  0  0  0
    9.5296  -17.0342   25.1715 N   0  0  0  0  0  0  0  0  0  0  0  0
    9.5695  -16.5610   26.5248 C   0  0  1  0  0  0  0  0  0  0  0  0
    8.1792  -16.3628   27.0987 C   0  0  0  0  0  0  0  0  0  0  0  0
    7.4388  -15.3311   26.3532 C   0  0  0  0  0  0  0  0  0  0  0  0
    6.5690  -15.4924   25.2851 C   0  0  0  0  0  0  0  0  0  0  0  0
    6.1222  -14.2796   24.9232 N   0  0  0  0  0  0  0  0  0  0  0  0
    6.6413  -13.3221   25.6849 C   0  0  0  0  0  0  0  0  0  0  0  0
    6.5176  -11.9403   25.7342 C   0  0  0  0  0  0  0  0  0  0  0  0
    7.2211  -11.2188   26.6818 C   0  0  0  0  0  0  0  0  0  0  0  0
    8.0377  -11.8924   27.5654 C   0  0  0  0  0  0  0  0  0  0  0  0
    8.1837  -13.2625   27.5445 C   0  0  0  0  0  0  0  0  0  0  0  0
    7.4686  -13.9664   26.5858 C   0  0  0  0  0  0  0  0  0  0  0  0
   10.3659  -17.5120   27.3268 C   0  0  0  0  0  0  0  0  0  0  0  0
   10.5778  -17.3151   28.5443 O   0  0  0  0  0  0  0  0  0  0  0  0
   10.8957  -18.6442   26.7450 O   0  0  0  0  0  0  0  0  0  0  0  0
  2  3  2  0
  2  1  1  0
  4  2  1  0
  5  4  1  0
  6  5  1  0
  6  7  1  6
  8 10  1  0
  8  6  1  0
  9  8  2  0
 11 10  1  0
 11 12  1  1
 12 13  1  0
 13 17  1  0
 14 13  2  0
 14 15  1  0
 15 16  1  0
 17 16  2  0
 18 11  1  0
 19 18  2  0
 20 18  1  0
 21 20  1  0
 22 23  1  0
 21 22  1  1
 23 31  1  0
 24 25  1  0
 24 23  2  0
 25 26  1  0
 26 31  2  0
 26 27  1  0
 27 28  2  0
 28 29  1  0
 30 29  2  0
 31 30  1  0
 32 21  1  0
 32 34  1  0
 33 32  2  0
M  END
$$$$
