QHW.pdb
     RDKit          3D

 34 36  0  0  1  0  0  0  0  0999 V2000
    7.9986  -12.4423   17.4035 N   0  0  0  0  0  0  0  0  0  0  0  0
    8.1481  -13.4126   16.3936 C   0  0  0  0  0  0  0  0  0  0  0  0
    7.9245  -13.0827   15.2038 O   0  0  0  0  0  0  0  0  0  0  0  0
    8.5638  -14.8296   16.6719 C   0  0  0  0  0  0  0  0  0  0  0  0
    8.7277  -15.0477   18.1351 C   0  0  0  0  0  0  0  0  0  0  0  0
    9.0853  -16.4656   18.4335 C   0  0  2  0  0  0  0  0  0  0  0  0
    8.4118  -17.3741   17.4860 N   0  0  0  0  0  0  0  0  0  0  0  0
    8.6616  -16.8412   19.7742 C   0  0  0  0  0  0  0  0  0  0  0  0
    7.4517  -16.6533   20.1593 O   0  0  0  0  0  0  0  0  0  0  0  0
    9.5481  -17.4304   20.7254 N   0  0  0  0  0  0  0  0  0  0  0  0
    9.1293  -17.7910   22.0578 C   0  0  1  0  0  0  0  0  0  0  0  0
    8.9579  -19.2746   22.2307 C   0  0  0  0  0  0  0  0  0  0  0  0
    7.7895  -19.7901   21.4558 C   0  0  0  0  0  0  0  0  0  0  0  0
    7.8429  -20.4100   20.2237 C   0  0  0  0  0  0  0  0  0  0  0  0
    6.6094  -20.7264   19.8547 N   0  0  0  0  0  0  0  0  0  0  0  0
    5.7501  -20.3363   20.8004 C   0  0  0  0  0  0  0  0  0  0  0  0
    6.4824  -19.7652   21.7743 N   0  0  0  0  0  0  0  0  0  0  0  0
    9.9756  -17.1836   23.0993 C   0  0  0  0  0  0  0  0  0  0  0  0
   11.2466  -17.2910   23.0014 O   0  0  0  0  0  0  0  0  0  0  0  0
    9.5053  -16.4782   24.2208 N   0  0  0  0  0  0  0  0  0  0  0  0
   10.3222  -16.1059   25.3393 C   0  0  1  0  0  0  0  0  0  0  0  0
    9.8346  -14.8300   25.9994 C   0  0  0  0  0  0  0  0  0  0  0  0
    8.3640  -14.7556   25.9904 C   0  0  0  0  0  0  0  0  0  0  0  0
    7.4464  -15.7872   25.8584 C   0  0  0  0  0  0  0  0  0  0  0  0
    6.2135  -15.2589   25.9088 N   0  0  0  0  0  0  0  0  0  0  0  0
    6.2550  -13.9397   26.0661 C   0  0  0  0  0  0  0  0  0  0  0  0
    5.2982  -12.9399   26.1745 C   0  0  0  0  0  0  0  0  0  0  0  0
    5.6922  -11.6234   26.3340 C   0  0  0  0  0  0  0  0  0  0  0  0
    7.0384  -11.3290   26.3824 C   0  0  0  0  0  0  0  0  0  0  0  0
    8.0143  -12.2963   26.2781 C   0  0  0  0  0  0  0  0  0  0  0  0
    7.5966  -13.6102   26.1187 C   0  0  0  0  0  0  0  0  0  0  0  0
   10.3567  -17.2380   26.2874 C   0  0  0  0  0  0  0  0  0  0  0  0
    9.5549  -18.1935   26.1862 O   0  0  0  0  0  0  0  0  0  0  0  0
   11.2804  -17.2644   27.3107 O   0  0  0  0  0  0  0  0  0  0  0  0
  2  3  2  0
  2  1  1  0
  4  2  1  0
  5  4  1  0
  6  5  1  0
  6  7  1  6
  8 10  1  0
  8  6  1  0
  9  8  2  0
 11 10  1  0
 11 12  1  6
 12 13  1  0
 13 17  1  0
 14 13  2  0
 14 15  1  0
 15 16  1  0
 17 16  2  0
 18 11  1  0
 19 18  2  0
 20 18  1  0
 21 20  1  0
 22 23  1  0
 21 22  1  1
 23 31  1  0
 24 25  1  0
 24 23  2  0
 25 26  1  0
 26 31  2  0
 26 27  1  0
 27 28  2  0
 28 29  1  0
 30 29  2  0
 31 30  1  0
 32 21  1  0
 32 34  1  0
 33 32  2  0
M  END
$$$$
