QHW.pdb
     RDKit          3D

 34 36  0  0  1  0  0  0  0  0999 V2000
    9.6013  -18.2922   15.0486 N   0  0  0  0  0  0  0  0  0  0  0  0
    9.2886  -19.0269   16.2088 C   0  0  0  0  0  0  0  0  0  0  0  0
    8.2731  -19.7639   16.1995 O   0  0  0  0  0  0  0  0  0  0  0  0
   10.1147  -18.9715   17.4628 C   0  0  0  0  0  0  0  0  0  0  0  0
   10.2026  -17.5745   17.9687 C   0  0  0  0  0  0  0  0  0  0  0  0
   10.3389  -17.5452   19.4546 C   0  0  2  0  0  0  0  0  0  0  0  0
   10.0146  -18.8666   20.0249 N   0  0  0  0  0  0  0  0  0  0  0  0
    9.4247  -16.5788   20.0451 C   0  0  0  0  0  0  0  0  0  0  0  0
    9.3991  -15.3622   19.6371 O   0  0  0  0  0  0  0  0  0  0  0  0
    8.5176  -16.9178   21.0940 N   0  0  0  0  0  0  0  0  0  0  0  0
    7.7095  -15.9329   21.7703 C   0  0  1  0  0  0  0  0  0  0  0  0
    6.2694  -16.3475   21.8910 C   0  0  0  0  0  0  0  0  0  0  0  0
    5.8556  -17.2420   20.7686 C   0  0  0  0  0  0  0  0  0  0  0  0
    6.6758  -17.7171   19.7652 C   0  0  0  0  0  0  0  0  0  0  0  0
    5.9551  -18.4789   18.9539 N   0  0  0  0  0  0  0  0  0  0  0  0
    4.6928  -18.5200   19.3896 C   0  0  0  0  0  0  0  0  0  0  0  0
    4.6434  -17.7604   20.4993 N   0  0  0  0  0  0  0  0  0  0  0  0
    8.2955  -15.5057   23.0524 C   0  0  0  0  0  0  0  0  0  0  0  0
    7.8697  -14.4290   23.5968 O   0  0  0  0  0  0  0  0  0  0  0  0
    9.3057  -16.1879   23.7528 N   0  0  0  0  0  0  0  0  0  0  0  0
    9.9513  -15.6838   24.9300 C   0  0  1  0  0  0  0  0  0  0  0  0
    9.1351  -15.9448   26.1819 C   0  0  0  0  0  0  0  0  0  0  0  0
    7.8769  -15.1800   26.1648 C   0  0  0  0  0  0  0  0  0  0  0  0
    6.5895  -15.6377   25.9267 C   0  0  0  0  0  0  0  0  0  0  0  0
    5.7516  -14.5928   26.0140 N   0  0  0  0  0  0  0  0  0  0  0  0
    6.4027  -13.4687   26.2953 C   0  0  0  0  0  0  0  0  0  0  0  0
    6.0272  -12.1462   26.4877 C   0  0  0  0  0  0  0  0  0  0  0  0
    6.9870  -11.1921   26.7747 C   0  0  0  0  0  0  0  0  0  0  0  0
    8.3079  -11.5776   26.8645 C   0  0  0  0  0  0  0  0  0  0  0  0
    8.7152  -12.8809   26.6794 C   0  0  0  0  0  0  0  0  0  0  0  0
    7.7358  -13.8215   26.3927 C   0  0  0  0  0  0  0  0  0  0  0  0
   11.2981  -16.2847   25.0154 C   0  0  0  0  0  0  0  0  0  0  0  0
   11.6736  -17.1537   24.1970 O   0  0  0  0  0  0  0  0  0  0  0  0
   12.1746  -15.8968   26.0065 O   0  0  0  0  0  0  0  0  0  0  0  0
  2  3  2  0
  2  1  1  0
  4  2  1  0
  5  4  1  0
  6  5  1  0
  6  7  1  1
  8 10  1  0
  8  6  1  0
  9  8  2  0
 11 10  1  0
 11 12  1  1
 12 13  1  0
 13 17  1  0
 14 13  2  0
 14 15  1  0
 15 16  1  0
 17 16  2  0
 18 11  1  0
 19 18  2  0
 20 18  1  0
 21 20  1  0
 22 23  1  0
 21 22  1  1
 23 31  1  0
 24 25  1  0
 24 23  2  0
 25 26  1  0
 26 31  2  0
 26 27  1  0
 27 28  2  0
 28 29  1  0
 30 29  2  0
 31 30  1  0
 32 21  1  0
 32 34  1  0
 33 32  2  0
M  END
$$$$
