QHW.pdb
     RDKit          3D

 34 36  0  0  1  0  0  0  0  0999 V2000
   12.7914  -14.9025   18.7083 N   0  0  0  0  0  0  0  0  0  0  0  0
   12.2169  -13.8939   19.5060 C   0  0  0  0  0  0  0  0  0  0  0  0
   12.9134  -13.3702   20.4089 O   0  0  0  0  0  0  0  0  0  0  0  0
   10.8047  -13.4119   19.3285 C   0  0  0  0  0  0  0  0  0  0  0  0
    9.8856  -14.5606   19.1027 C   0  0  0  0  0  0  0  0  0  0  0  0
    8.4645  -14.1102   19.0324 C   0  0  2  0  0  0  0  0  0  0  0  0
    8.3956  -12.6372   18.9883 N   0  0  0  0  0  0  0  0  0  0  0  0
    7.7184  -14.5472   20.2031 C   0  0  0  0  0  0  0  0  0  0  0  0
    7.2836  -13.6980   21.0615 O   0  0  0  0  0  0  0  0  0  0  0  0
    7.4295  -15.9207   20.4638 N   0  0  0  0  0  0  0  0  0  0  0  0
    8.3229  -16.7745   21.2077 C   0  0  1  0  0  0  0  0  0  0  0  0
    9.5959  -17.0705   20.4646 C   0  0  0  0  0  0  0  0  0  0  0  0
    9.3330  -17.7895   19.1819 C   0  0  0  0  0  0  0  0  0  0  0  0
    8.1019  -18.2223   18.7321 C   0  0  0  0  0  0  0  0  0  0  0  0
    8.2647  -18.8163   17.5580 N   0  0  0  0  0  0  0  0  0  0  0  0
    9.5576  -18.7882   17.2226 C   0  0  0  0  0  0  0  0  0  0  0  0
   10.2013  -18.1583   18.2225 N   0  0  0  0  0  0  0  0  0  0  0  0
    8.5557  -16.2898   22.5791 C   0  0  0  0  0  0  0  0  0  0  0  0
    7.6025  -16.3635   23.4293 O   0  0  0  0  0  0  0  0  0  0  0  0
    9.7588  -15.7391   23.0542 N   0  0  0  0  0  0  0  0  0  0  0  0
   10.2500  -15.9085   24.3909 C   0  0  1  0  0  0  0  0  0  0  0  0
    9.9035  -14.7274   25.2777 C   0  0  0  0  0  0  0  0  0  0  0  0
    8.4461  -14.5965   25.4429 C   0  0  0  0  0  0  0  0  0  0  0  0
    7.4697  -15.5728   25.3132 C   0  0  0  0  0  0  0  0  0  0  0  0
    6.2773  -15.0062   25.5556 N   0  0  0  0  0  0  0  0  0  0  0  0
    6.4010  -13.7134   25.8383 C   0  0  0  0  0  0  0  0  0  0  0  0
    5.5124  -12.6947   26.1539 C   0  0  0  0  0  0  0  0  0  0  0  0
    5.9860  -11.4182   26.3986 C   0  0  0  0  0  0  0  0  0  0  0  0
    7.3425  -11.1819   26.3234 C   0  0  0  0  0  0  0  0  0  0  0  0
    8.2521  -12.1694   26.0129 C   0  0  0  0  0  0  0  0  0  0  0  0
    7.7550  -13.4425   25.7713 C   0  0  0  0  0  0  0  0  0  0  0  0
    9.7127  -17.1758   24.9269 C   0  0  0  0  0  0  0  0  0  0  0  0
    8.5544  -17.5586   24.6479 O   0  0  0  0  0  0  0  0  0  0  0  0
   10.4830  -17.9680   25.7515 O   0  0  0  0  0  0  0  0  0  0  0  0
  2  3  2  0
  2  1  1  0
  4  2  1  0
  5  4  1  0
  6  5  1  0
  6  7  1  1
  8 10  1  0
  8  6  1  0
  9  8  2  0
 11 10  1  0
 11 12  1  6
 12 13  1  0
 13 17  1  0
 14 13  2  0
 14 15  1  0
 15 16  1  0
 17 16  2  0
 18 11  1  0
 19 18  2  0
 20 18  1  0
 21 20  1  0
 22 23  1  0
 21 22  1  1
 23 31  1  0
 24 25  1  0
 24 23  2  0
 25 26  1  0
 26 31  2  0
 26 27  1  0
 27 28  2  0
 28 29  1  0
 30 29  2  0
 31 30  1  0
 32 21  1  0
 32 34  1  0
 33 32  2  0
M  END
$$$$
