QHW.pdb
     RDKit          3D

 34 36  0  0  1  0  0  0  0  0999 V2000
    6.5054  -14.0318   18.1004 N   0  0  0  0  0  0  0  0  0  0  0  0
    7.7742  -13.5760   17.6929 C   0  0  0  0  0  0  0  0  0  0  0  0
    7.8834  -13.0203   16.5732 O   0  0  0  0  0  0  0  0  0  0  0  0
    9.0090  -13.7232   18.5364 C   0  0  0  0  0  0  0  0  0  0  0  0
    8.6987  -14.4596   19.7921 C   0  0  0  0  0  0  0  0  0  0  0  0
    9.8890  -14.5223   20.6903 C   0  0  2  0  0  0  0  0  0  0  0  0
   11.0922  -14.8928   19.9212 N   0  0  0  0  0  0  0  0  0  0  0  0
    9.7087  -15.5257   21.7289 C   0  0  0  0  0  0  0  0  0  0  0  0
    8.6278  -15.5718   22.4194 O   0  0  0  0  0  0  0  0  0  0  0  0
   10.7034  -16.5020   22.0376 N   0  0  0  0  0  0  0  0  0  0  0  0
   10.5646  -17.4335   23.1301 C   0  0  1  0  0  0  0  0  0  0  0  0
   11.5023  -18.6033   23.0181 C   0  0  0  0  0  0  0  0  0  0  0  0
   11.1335  -19.5008   21.8823 C   0  0  0  0  0  0  0  0  0  0  0  0
    9.8547  -19.8891   21.5374 C   0  0  0  0  0  0  0  0  0  0  0  0
    9.9244  -20.6844   20.4788 N   0  0  0  0  0  0  0  0  0  0  0  0
   11.2024  -20.8309   20.1180 C   0  0  0  0  0  0  0  0  0  0  0  0
   11.9326  -20.1031   20.9828 N   0  0  0  0  0  0  0  0  0  0  0  0
   10.6216  -16.7733   24.4456 C   0  0  0  0  0  0  0  0  0  0  0  0
   11.5825  -15.9644   24.6886 O   0  0  0  0  0  0  0  0  0  0  0  0
    9.6947  -16.9533   25.4873 N   0  0  0  0  0  0  0  0  0  0  0  0
    9.8130  -16.3523   26.7840 C   0  0  1  0  0  0  0  0  0  0  0  0
    8.4583  -16.0834   27.4116 C   0  0  0  0  0  0  0  0  0  0  0  0
    7.5627  -15.3945   26.4673 C   0  0  0  0  0  0  0  0  0  0  0  0
    6.6959  -15.9478   25.5367 C   0  0  0  0  0  0  0  0  0  0  0  0
    6.0759  -14.9451   24.8951 N   0  0  0  0  0  0  0  0  0  0  0  0
    6.4772  -13.7593   25.3417 C   0  0  0  0  0  0  0  0  0  0  0  0
    6.1645  -12.4431   25.0307 C   0  0  0  0  0  0  0  0  0  0  0  0
    6.7860  -11.4088   25.7071 C   0  0  0  0  0  0  0  0  0  0  0  0
    7.7110  -11.7089   26.6847 C   0  0  0  0  0  0  0  0  0  0  0  0
    8.0449  -13.0035   27.0186 C   0  0  0  0  0  0  0  0  0  0  0  0
    7.4093  -14.0254   26.3274 C   0  0  0  0  0  0  0  0  0  0  0  0
   10.6470  -17.2308   27.6295 C   0  0  0  0  0  0  0  0  0  0  0  0
   10.9890  -16.8865   28.7830 O   0  0  0  0  0  0  0  0  0  0  0  0
   11.0682  -18.4571   27.1606 O   0  0  0  0  0  0  0  0  0  0  0  0
  2  3  2  0
  2  1  1  0
  4  2  1  0
  5  4  1  0
  6  5  1  0
  6  7  1  6
  8 10  1  0
  8  6  1  0
  9  8  2  0
 11 10  1  0
 11 12  1  1
 12 13  1  0
 13 17  1  0
 14 13  2  0
 14 15  1  0
 15 16  1  0
 17 16  2  0
 18 11  1  0
 19 18  2  0
 20 18  1  0
 21 20  1  0
 22 23  1  0
 21 22  1  1
 23 31  1  0
 24 25  1  0
 24 23  2  0
 25 26  1  0
 26 31  2  0
 26 27  1  0
 27 28  2  0
 28 29  1  0
 30 29  2  0
 31 30  1  0
 32 21  1  0
 32 34  1  0
 33 32  2  0
M  END
$$$$
