QHW.pdb
     RDKit          3D

 34 36  0  0  1  0  0  0  0  0999 V2000
    9.0726  -12.5998   18.2037 N   0  0  0  0  0  0  0  0  0  0  0  0
    8.5270  -13.6497   17.4397 C   0  0  0  0  0  0  0  0  0  0  0  0
    8.7959  -13.7063   16.2154 O   0  0  0  0  0  0  0  0  0  0  0  0
    7.6349  -14.7100   18.0209 C   0  0  0  0  0  0  0  0  0  0  0  0
    7.5108  -14.5379   19.4941 C   0  0  0  0  0  0  0  0  0  0  0  0
    8.5555  -15.3188   20.2195 C   0  0  2  0  0  0  0  0  0  0  0  0
    8.9803  -16.4788   19.4129 N   0  0  0  0  0  0  0  0  0  0  0  0
    8.0443  -15.8294   21.4828 C   0  0  0  0  0  0  0  0  0  0  0  0
    7.4149  -15.0622   22.2968 O   0  0  0  0  0  0  0  0  0  0  0  0
    8.2079  -17.1887   21.8869 N   0  0  0  0  0  0  0  0  0  0  0  0
    7.8894  -17.6473   23.2169 C   0  0  1  0  0  0  0  0  0  0  0  0
    7.7631  -19.1431   23.3005 C   0  0  0  0  0  0  0  0  0  0  0  0
    7.3989  -19.5911   24.6782 C   0  0  0  0  0  0  0  0  0  0  0  0
    7.0065  -18.7746   25.7196 C   0  0  0  0  0  0  0  0  0  0  0  0
    6.7667  -19.5296   26.7828 N   0  0  0  0  0  0  0  0  0  0  0  0
    6.9878  -20.8108   26.4754 C   0  0  0  0  0  0  0  0  0  0  0  0
    7.3738  -20.8366   25.1865 N   0  0  0  0  0  0  0  0  0  0  0  0
    8.7912  -17.0873   24.2382 C   0  0  0  0  0  0  0  0  0  0  0  0
   10.0271  -16.9278   23.9488 O   0  0  0  0  0  0  0  0  0  0  0  0
    8.4114  -16.7014   25.5356 N   0  0  0  0  0  0  0  0  0  0  0  0
    9.3097  -16.1484   26.5072 C   0  0  1  0  0  0  0  0  0  0  0  0
    8.5694  -15.4731   27.6462 C   0  0  0  0  0  0  0  0  0  0  0  0
    7.4289  -14.6870   27.1465 C   0  0  0  0  0  0  0  0  0  0  0  0
    6.1130  -15.0879   26.9701 C   0  0  0  0  0  0  0  0  0  0  0  0
    5.4177  -14.0424   26.4957 N   0  0  0  0  0  0  0  0  0  0  0  0
    6.1903  -12.9713   26.3458 C   0  0  0  0  0  0  0  0  0  0  0  0
    5.9813  -11.6722   25.9036 C   0  0  0  0  0  0  0  0  0  0  0  0
    7.0360  -10.7777   25.8700 C   0  0  0  0  0  0  0  0  0  0  0  0
    8.2836  -11.1983   26.2798 C   0  0  0  0  0  0  0  0  0  0  0  0
    8.5261  -12.4799   26.7242 C   0  0  0  0  0  0  0  0  0  0  0  0
    7.4538  -13.3606   26.7498 C   0  0  0  0  0  0  0  0  0  0  0  0
   10.1953  -17.2280   26.9894 C   0  0  0  0  0  0  0  0  0  0  0  0
   10.0080  -18.4189   26.6540 O   0  0  0  0  0  0  0  0  0  0  0  0
   11.2539  -16.9422   27.8253 O   0  0  0  0  0  0  0  0  0  0  0  0
  2  3  2  0
  2  1  1  0
  4  2  1  0
  5  4  1  0
  6  5  1  0
  6  7  1  6
  8 10  1  0
  8  6  1  0
  9  8  2  0
 11 10  1  0
 11 12  1  6
 12 13  1  0
 13 17  1  0
 14 13  2  0
 14 15  1  0
 15 16  1  0
 17 16  2  0
 18 11  1  0
 19 18  2  0
 20 18  1  0
 21 20  1  0
 22 23  1  0
 21 22  1  1
 23 31  1  0
 24 25  1  0
 24 23  2  0
 25 26  1  0
 26 31  2  0
 26 27  1  0
 27 28  2  0
 28 29  1  0
 30 29  2  0
 31 30  1  0
 32 21  1  0
 32 34  1  0
 33 32  2  0
M  END
$$$$
