QHW.pdb
     RDKit          3D

 34 36  0  0  1  0  0  0  0  0999 V2000
   13.2596  -15.1404   15.2579 N   0  0  0  0  0  0  0  0  0  0  0  0
   13.6615  -16.4746   15.4630 C   0  0  0  0  0  0  0  0  0  0  0  0
   14.2504  -17.0760   14.5323 O   0  0  0  0  0  0  0  0  0  0  0  0
   13.4187  -17.2167   16.7468 C   0  0  0  0  0  0  0  0  0  0  0  0
   12.7607  -16.3308   17.7455 C   0  0  0  0  0  0  0  0  0  0  0  0
   12.6313  -17.0097   19.0683 C   0  0  2  0  0  0  0  0  0  0  0  0
   11.9498  -18.3089   18.9127 N   0  0  0  0  0  0  0  0  0  0  0  0
   11.8407  -16.2099   19.9920 C   0  0  0  0  0  0  0  0  0  0  0  0
   12.2381  -15.0473   20.3630 O   0  0  0  0  0  0  0  0  0  0  0  0
   10.5982  -16.6602   20.5319 N   0  0  0  0  0  0  0  0  0  0  0  0
    9.8698  -15.9158   21.5298 C   0  0  1  0  0  0  0  0  0  0  0  0
    8.3864  -15.9144   21.2849 C   0  0  0  0  0  0  0  0  0  0  0  0
    8.0095  -14.9833   20.1794 C   0  0  0  0  0  0  0  0  0  0  0  0
    8.8548  -14.0996   19.5392 C   0  0  0  0  0  0  0  0  0  0  0  0
    8.1635  -13.4448   18.6166 N   0  0  0  0  0  0  0  0  0  0  0  0
    6.8962  -13.8677   18.6292 C   0  0  0  0  0  0  0  0  0  0  0  0
    6.8135  -14.8079   19.5883 N   0  0  0  0  0  0  0  0  0  0  0  0
   10.2267  -16.3130   22.9026 C   0  0  0  0  0  0  0  0  0  0  0  0
   11.0220  -17.3008   23.0718 O   0  0  0  0  0  0  0  0  0  0  0  0
    9.7633  -15.6922   24.0759 N   0  0  0  0  0  0  0  0  0  0  0  0
   10.0510  -16.1579   25.4015 C   0  0  1  0  0  0  0  0  0  0  0  0
    9.6599  -15.1419   26.4580 C   0  0  0  0  0  0  0  0  0  0  0  0
    8.2624  -14.7101   26.2884 C   0  0  0  0  0  0  0  0  0  0  0  0
    7.1557  -15.4744   25.9498 C   0  0  0  0  0  0  0  0  0  0  0  0
    6.0852  -14.6657   25.9115 N   0  0  0  0  0  0  0  0  0  0  0  0
    6.4120  -13.4109   26.2036 C   0  0  0  0  0  0  0  0  0  0  0  0
    5.7095  -12.2176   26.3013 C   0  0  0  0  0  0  0  0  0  0  0  0
    6.3748  -11.0517   26.6356 C   0  0  0  0  0  0  0  0  0  0  0  0
    7.7333  -11.0992   26.8669 C   0  0  0  0  0  0  0  0  0  0  0  0
    8.4611  -12.2660   26.7786 C   0  0  0  0  0  0  0  0  0  0  0  0
    7.7736  -13.4236   26.4420 C   0  0  0  0  0  0  0  0  0  0  0  0
    9.3643  -17.4506   25.5997 C   0  0  0  0  0  0  0  0  0  0  0  0
    8.4605  -17.8309   24.8221 O   0  0  0  0  0  0  0  0  0  0  0  0
    9.7084  -18.2701   26.6537 O   0  0  0  0  0  0  0  0  0  0  0  0
  2  3  2  0
  2  1  1  0
  4  2  1  0
  5  4  1  0
  6  5  1  0
  6  7  1  6
  8 10  1  0
  8  6  1  0
  9  8  2  0
 11 10  1  0
 11 12  1  6
 12 13  1  0
 13 17  1  0
 14 13  2  0
 14 15  1  0
 15 16  1  0
 17 16  2  0
 18 11  1  0
 19 18  2  0
 20 18  1  0
 21 20  1  0
 22 23  1  0
 21 22  1  1
 23 31  1  0
 24 25  1  0
 24 23  2  0
 25 26  1  0
 26 31  2  0
 26 27  1  0
 27 28  2  0
 28 29  1  0
 30 29  2  0
 31 30  1  0
 32 21  1  0
 32 34  1  0
 33 32  2  0
M  END
$$$$
