QHW.pdb
     RDKit          3D

 34 36  0  0  1  0  0  0  0  0999 V2000
    8.2537  -12.4170   15.8979 N   0  0  0  0  0  0  0  0  0  0  0  0
    8.1944  -13.6286   15.1823 C   0  0  0  0  0  0  0  0  0  0  0  0
    8.4967  -13.6242   13.9645 O   0  0  0  0  0  0  0  0  0  0  0  0
    7.7849  -14.9321   15.8079 C   0  0  0  0  0  0  0  0  0  0  0  0
    7.7303  -14.8055   17.2898 C   0  0  0  0  0  0  0  0  0  0  0  0
    8.9796  -15.3210   17.9229 C   0  0  2  0  0  0  0  0  0  0  0  0
    9.5578  -16.4053   17.1064 N   0  0  0  0  0  0  0  0  0  0  0  0
    8.7098  -15.8667   19.2449 C   0  0  0  0  0  0  0  0  0  0  0  0
    8.0117  -15.2098   20.0984 O   0  0  0  0  0  0  0  0  0  0  0  0
    9.1952  -17.1414   19.6658 N   0  0  0  0  0  0  0  0  0  0  0  0
    8.8860  -17.7021   20.9583 C   0  0  1  0  0  0  0  0  0  0  0  0
    8.9398  -19.2046   20.9671 C   0  0  0  0  0  0  0  0  0  0  0  0
    7.7235  -19.8051   20.3416 C   0  0  0  0  0  0  0  0  0  0  0  0
    7.4479  -19.8574   18.9901 C   0  0  0  0  0  0  0  0  0  0  0  0
    6.2811  -20.4632   18.8187 N   0  0  0  0  0  0  0  0  0  0  0  0
    5.7826  -20.8096   20.0088 C   0  0  0  0  0  0  0  0  0  0  0  0
    6.6724  -20.4024   20.9325 N   0  0  0  0  0  0  0  0  0  0  0  0
    9.6745  -17.0910   22.0420 C   0  0  0  0  0  0  0  0  0  0  0  0
   10.9274  -16.9041   21.8633 O   0  0  0  0  0  0  0  0  0  0  0  0
    9.1662  -16.6830   23.2877 N   0  0  0  0  0  0  0  0  0  0  0  0
    9.9592  -16.0954   24.3282 C   0  0  1  0  0  0  0  0  0  0  0  0
    9.6124  -14.6355   24.5515 C   0  0  0  0  0  0  0  0  0  0  0  0
    8.2109  -14.4814   24.9766 C   0  0  0  0  0  0  0  0  0  0  0  0
    7.1970  -15.4276   24.9738 C   0  0  0  0  0  0  0  0  0  0  0  0
    6.0835  -14.8483   25.4493 N   0  0  0  0  0  0  0  0  0  0  0  0
    6.2947  -13.5753   25.7679 C   0  0  0  0  0  0  0  0  0  0  0  0
    5.5069  -12.5554   26.2837 C   0  0  0  0  0  0  0  0  0  0  0  0
    6.0555  -11.3045   26.5026 C   0  0  0  0  0  0  0  0  0  0  0  0
    7.3846  -11.0946   26.2014 C   0  0  0  0  0  0  0  0  0  0  0  0
    8.1949  -12.0841   25.6884 C   0  0  0  0  0  0  0  0  0  0  0  0
    7.6240  -13.3313   25.4769 C   0  0  0  0  0  0  0  0  0  0  0  0
    9.7832  -16.8972   25.5563 C   0  0  0  0  0  0  0  0  0  0  0  0
    8.8311  -17.7005   25.6755 O   0  0  0  0  0  0  0  0  0  0  0  0
   10.6717  -16.7753   26.6036 O   0  0  0  0  0  0  0  0  0  0  0  0
  2  3  2  0
  2  1  1  0
  4  2  1  0
  5  4  1  0
  6  5  1  0
  6  7  1  6
  8 10  1  0
  8  6  1  0
  9  8  2  0
 11 10  1  0
 11 12  1  6
 12 13  1  0
 13 17  1  0
 14 13  2  0
 14 15  1  0
 15 16  1  0
 17 16  2  0
 18 11  1  0
 19 18  2  0
 20 18  1  0
 21 20  1  0
 22 23  1  0
 21 22  1  1
 23 31  1  0
 24 25  1  0
 24 23  2  0
 25 26  1  0
 26 31  2  0
 26 27  1  0
 27 28  2  0
 28 29  1  0
 30 29  2  0
 31 30  1  0
 32 21  1  0
 32 34  1  0
 33 32  2  0
M  END
$$$$
