QHW.pdb
     RDKit          3D

 34 36  0  0  1  0  0  0  0  0999 V2000
    9.3927  -12.5852   19.4134 N   0  0  0  0  0  0  0  0  0  0  0  0
    8.3139  -12.7548   18.5241 C   0  0  0  0  0  0  0  0  0  0  0  0
    8.1738  -11.9355   17.5840 O   0  0  0  0  0  0  0  0  0  0  0  0
    7.3178  -13.8733   18.6459 C   0  0  0  0  0  0  0  0  0  0  0  0
    7.6039  -14.6980   19.8514 C   0  0  0  0  0  0  0  0  0  0  0  0
    8.6698  -15.7058   19.5764 C   0  0  2  0  0  0  0  0  0  0  0  0
    8.3017  -16.5366   18.4141 N   0  0  0  0  0  0  0  0  0  0  0  0
    8.8512  -16.5988   20.7112 C   0  0  0  0  0  0  0  0  0  0  0  0
    8.2360  -17.7237   20.7687 O   0  0  0  0  0  0  0  0  0  0  0  0
    9.7080  -16.2849   21.8090 N   0  0  0  0  0  0  0  0  0  0  0  0
    9.7793  -17.1008   22.9964 C   0  0  1  0  0  0  0  0  0  0  0  0
   10.3302  -18.4732   22.7254 C   0  0  0  0  0  0  0  0  0  0  0  0
   11.3572  -18.4524   21.6408 C   0  0  0  0  0  0  0  0  0  0  0  0
   11.3841  -17.5876   20.5654 C   0  0  0  0  0  0  0  0  0  0  0  0
   12.4423  -17.8724   19.8190 N   0  0  0  0  0  0  0  0  0  0  0  0
   13.1094  -18.8921   20.3667 C   0  0  0  0  0  0  0  0  0  0  0  0
   12.4372  -19.2387   21.4797 N   0  0  0  0  0  0  0  0  0  0  0  0
   10.4579  -16.4174   24.1110 C   0  0  0  0  0  0  0  0  0  0  0  0
   11.7367  -16.3810   24.1252 O   0  0  0  0  0  0  0  0  0  0  0  0
    9.8154  -15.7846   25.1895 N   0  0  0  0  0  0  0  0  0  0  0  0
   10.2493  -15.8782   26.5533 C   0  0  1  0  0  0  0  0  0  0  0  0
    9.0853  -15.8260   27.5248 C   0  0  0  0  0  0  0  0  0  0  0  0
    7.8919  -15.2385   26.8931 C   0  0  0  0  0  0  0  0  0  0  0  0
    6.7663  -15.8836   26.4029 C   0  0  0  0  0  0  0  0  0  0  0  0
    5.9293  -14.9532   25.9178 N   0  0  0  0  0  0  0  0  0  0  0  0
    6.4292  -13.7293   26.0553 C   0  0  0  0  0  0  0  0  0  0  0  0
    5.9880  -12.4536   25.7316 C   0  0  0  0  0  0  0  0  0  0  0  0
    6.7799  -11.3566   26.0203 C   0  0  0  0  0  0  0  0  0  0  0  0
    8.0013  -11.5546   26.6288 C   0  0  0  0  0  0  0  0  0  0  0  0
    8.4698  -12.8065   26.9637 C   0  0  0  0  0  0  0  0  0  0  0  0
    7.6591  -13.8927   26.6651 C   0  0  0  0  0  0  0  0  0  0  0  0
   11.0390  -17.1172   26.7062 C   0  0  0  0  0  0  0  0  0  0  0  0
   12.2067  -17.2007   26.2641 O   0  0  0  0  0  0  0  0  0  0  0  0
   10.5006  -18.2146   27.3439 O   0  0  0  0  0  0  0  0  0  0  0  0
  2  3  2  0
  2  1  1  0
  4  2  1  0
  5  4  1  0
  6  5  1  0
  6  7  1  6
  8 10  1  0
  8  6  1  0
  9  8  2  0
 11 10  1  0
 11 12  1  6
 12 13  1  0
 13 17  1  0
 14 13  2  0
 14 15  1  0
 15 16  1  0
 17 16  2  0
 18 11  1  0
 19 18  2  0
 20 18  1  0
 21 20  1  0
 22 23  1  0
 21 22  1  1
 23 31  1  0
 24 25  1  0
 24 23  2  0
 25 26  1  0
 26 31  2  0
 26 27  1  0
 27 28  2  0
 28 29  1  0
 30 29  2  0
 31 30  1  0
 32 21  1  0
 32 34  1  0
 33 32  2  0
M  END
$$$$
