QHW.pdb
     RDKit          3D

 34 36  0  0  1  0  0  0  0  0999 V2000
   17.0642  -18.9114   20.7017 N   0  0  0  0  0  0  0  0  0  0  0  0
   16.2611  -19.0772   19.5566 C   0  0  0  0  0  0  0  0  0  0  0  0
   16.8151  -19.3724   18.4701 O   0  0  0  0  0  0  0  0  0  0  0  0
   14.7671  -18.9170   19.5718 C   0  0  0  0  0  0  0  0  0  0  0  0
   14.2960  -18.5435   20.9334 C   0  0  0  0  0  0  0  0  0  0  0  0
   12.8164  -18.6970   21.0545 C   0  0  2  0  0  0  0  0  0  0  0  0
   12.2031  -18.8202   19.7183 N   0  0  0  0  0  0  0  0  0  0  0  0
   12.2212  -17.5377   21.7025 C   0  0  0  0  0  0  0  0  0  0  0  0
   12.8842  -16.4473   21.8393 O   0  0  0  0  0  0  0  0  0  0  0  0
   10.8892  -17.5415   22.2158 N   0  0  0  0  0  0  0  0  0  0  0  0
   10.0614  -16.3604   22.2362 C   0  0  1  0  0  0  0  0  0  0  0  0
    8.8117  -16.5133   21.4144 C   0  0  0  0  0  0  0  0  0  0  0  0
    7.9873  -15.2677   21.4249 C   0  0  0  0  0  0  0  0  0  0  0  0
    6.8081  -15.0811   22.1176 C   0  0  0  0  0  0  0  0  0  0  0  0
    6.3688  -13.8523   21.8832 N   0  0  0  0  0  0  0  0  0  0  0  0
    7.2176  -13.2274   21.0622 C   0  0  0  0  0  0  0  0  0  0  0  0
    8.2030  -14.1020   20.7885 N   0  0  0  0  0  0  0  0  0  0  0  0
    9.7967  -15.8801   23.6033 C   0  0  0  0  0  0  0  0  0  0  0  0
    8.6489  -15.3823   23.8707 O   0  0  0  0  0  0  0  0  0  0  0  0
   10.7112  -15.9180   24.6704 N   0  0  0  0  0  0  0  0  0  0  0  0
   10.3853  -16.3588   25.9956 C   0  0  1  0  0  0  0  0  0  0  0  0
    9.8501  -15.2289   26.8549 C   0  0  0  0  0  0  0  0  0  0  0  0
    8.4831  -14.8574   26.4528 C   0  0  0  0  0  0  0  0  0  0  0  0
    7.4609  -15.6785   26.0009 C   0  0  0  0  0  0  0  0  0  0  0  0
    6.3872  -14.9119   25.7539 N   0  0  0  0  0  0  0  0  0  0  0  0
    6.6327  -13.6317   26.0138 C   0  0  0  0  0  0  0  0  0  0  0  0
    5.8920  -12.4606   25.9323 C   0  0  0  0  0  0  0  0  0  0  0  0
    6.4679  -11.2546   26.2897 C   0  0  0  0  0  0  0  0  0  0  0  0
    7.7768  -11.2406   26.7232 C   0  0  0  0  0  0  0  0  0  0  0  0
    8.5405  -12.3838   26.8161 C   0  0  0  0  0  0  0  0  0  0  0  0
    7.9427  -13.5825   26.4527 C   0  0  0  0  0  0  0  0  0  0  0  0
    9.4229  -17.4746   25.8912 C   0  0  0  0  0  0  0  0  0  0  0  0
    8.9431  -17.8161   24.7870 O   0  0  0  0  0  0  0  0  0  0  0  0
    9.0312  -18.1671   27.0173 O   0  0  0  0  0  0  0  0  0  0  0  0
  2  3  2  0
  2  1  1  0
  4  2  1  0
  5  4  1  0
  6  5  1  0
  6  7  1  6
  8 10  1  0
  8  6  1  0
  9  8  2  0
 11 10  1  0
 11 12  1  1
 12 13  1  0
 13 17  1  0
 14 13  2  0
 14 15  1  0
 15 16  1  0
 17 16  2  0
 18 11  1  0
 19 18  2  0
 20 18  1  0
 21 20  1  0
 22 23  1  0
 21 22  1  1
 23 31  1  0
 24 25  1  0
 24 23  2  0
 25 26  1  0
 26 31  2  0
 26 27  1  0
 27 28  2  0
 28 29  1  0
 30 29  2  0
 31 30  1  0
 32 21  1  0
 32 34  1  0
 33 32  2  0
M  END
$$$$
