DQM.pdb
     RDKit          3D

 26 25  0  0  1  0  0  0  0  0999 V2000
   27.3827  -20.0620  -17.1223 N   0  0  0  0  0  0  0  0  0  0  0  0
   26.9265  -19.4994  -15.8862 C   0  0  1  0  0  0  0  0  0  0  0  0
   26.3644  -18.1118  -16.1424 C   0  0  0  0  0  0  0  0  0  0  0  0
   27.3823  -17.2201  -16.7470 C   0  0  0  0  0  0  0  0  0  0  0  0
   27.1737  -16.4606  -17.7244 O   0  0  0  0  0  0  0  0  0  0  0  0
   25.9887  -20.3417  -15.1431 C   0  0  0  0  0  0  0  0  0  0  0  0
   25.0779  -20.9298  -15.7654 O   0  0  0  0  0  0  0  0  0  0  0  0
   28.6536  -17.2204  -16.2003 O   0  0  0  0  0  0  0  0  0  0  0  0
   24.7075  -21.1345   -9.0643 N   0  0  0  0  0  0  0  0  0  0  0  0
   25.8097  -20.3828   -9.5398 C   0  0  0  0  0  0  0  0  0  0  0  0
   26.3277  -19.4856   -8.8600 O   0  0  0  0  0  0  0  0  0  0  0  0
   26.3568  -20.6793  -10.8878 C   0  0  0  0  0  0  0  0  0  0  0  0
   25.5069  -21.7046  -11.6145 C   0  0  0  0  0  0  0  0  0  0  0  0
   25.1127  -21.3104  -12.9786 C   0  0  2  0  0  0  0  0  0  0  0  0
   26.0201  -20.5572  -13.7455 N   0  0  0  0  0  0  0  0  0  0  0  0
   23.7644  -20.6664  -12.9059 C   0  0  0  0  0  0  0  0  0  0  0  0
   23.6338  -19.4067  -12.9854 O   0  0  0  0  0  0  0  0  0  0  0  0
   20.1083  -17.1694  -16.8151 C   0  0  0  0  0  0  0  0  0  0  0  0
   19.9394  -18.8008  -16.0438 S   0  0  0  0  0  0  0  0  0  0  0  0
   21.4029  -19.2120  -15.0542 C   0  0  0  0  0  0  0  0  0  0  0  0
   21.2836  -20.6476  -14.6192 C   0  0  0  0  0  0  0  0  0  0  0  0
   21.2778  -20.8163  -13.1143 C   0  0  2  0  0  0  0  0  0  0  0  0
   22.5569  -21.4019  -12.7460 N   0  0  0  0  0  0  0  0  0  0  0  0
   20.1733  -21.8057  -12.8321 C   0  0  0  0  0  0  0  0  0  0  0  0
   20.2925  -23.0282  -13.0989 O   0  0  0  0  0  0  0  0  0  0  0  0
   18.9779  -21.3913  -12.2624 O   0  0  0  0  0  0  0  0  0  0  0  0
  2  1  1  6
  2  3  1  0
  4  3  1  0
  4  8  1  0
  5  4  2  0
  6  2  1  0
  7  6  2  0
  9 10  1  0
 10 12  1  0
 11 10  2  0
 12 13  1  0
 14 13  1  1
 14 15  1  0
 15  6  1  0
 16 23  1  0
 16 14  1  0
 17 16  2  0
 18 19  1  0
 19 20  1  0
 21 20  1  0
 22 21  1  6
 22 23  1  0
 24 22  1  0
 24 26  1  0
 25 24  2  0
M  END
$$$$
