DQM.pdb
     RDKit          3D

 26 25  0  0  1  0  0  0  0  0999 V2000
   23.6024  -31.5610   -8.9364 N   0  0  0  0  0  0  0  0  0  0  0  0
   23.9643  -32.5417   -7.9568 C   0  0  1  0  0  0  0  0  0  0  0  0
   25.4011  -32.9771   -8.1880 C   0  0  0  0  0  0  0  0  0  0  0  0
   25.5345  -33.7536   -9.4433 C   0  0  0  0  0  0  0  0  0  0  0  0
   26.6166  -34.2085   -9.8881 O   0  0  0  0  0  0  0  0  0  0  0  0
   23.7321  -32.1329   -6.5711 C   0  0  0  0  0  0  0  0  0  0  0  0
   23.9183  -30.9386   -6.2520 O   0  0  0  0  0  0  0  0  0  0  0  0
   24.3895  -33.9977  -10.1814 O   0  0  0  0  0  0  0  0  0  0  0  0
   18.8095  -32.2648   -3.3843 N   0  0  0  0  0  0  0  0  0  0  0  0
   19.6848  -31.9453   -2.3177 C   0  0  0  0  0  0  0  0  0  0  0  0
   19.2594  -31.5612   -1.2190 O   0  0  0  0  0  0  0  0  0  0  0  0
   21.1494  -32.0746   -2.5235 C   0  0  0  0  0  0  0  0  0  0  0  0
   21.4701  -32.5229   -3.9370 C   0  0  0  0  0  0  0  0  0  0  0  0
   22.9106  -32.6228   -4.2310 C   0  0  2  0  0  0  0  0  0  0  0  0
   23.3039  -32.9902   -5.5307 N   0  0  0  0  0  0  0  0  0  0  0  0
   23.5405  -33.4872   -3.1851 C   0  0  0  0  0  0  0  0  0  0  0  0
   23.3185  -34.7360   -3.1451 O   0  0  0  0  0  0  0  0  0  0  0  0
   28.3243  -33.5238    3.1846 C   0  0  0  0  0  0  0  0  0  0  0  0
   27.3865  -32.6459    1.9061 S   0  0  0  0  0  0  0  0  0  0  0  0
   26.4738  -33.8053    0.8510 C   0  0  0  0  0  0  0  0  0  0  0  0
   25.7920  -33.0133   -0.2317 C   0  0  0  0  0  0  0  0  0  0  0  0
   24.9791  -33.8724   -1.1772 C   0  0  2  0  0  0  0  0  0  0  0  0
   24.4147  -32.9846   -2.1813 N   0  0  0  0  0  0  0  0  0  0  0  0
   23.8672  -34.4458   -0.3328 C   0  0  0  0  0  0  0  0  0  0  0  0
   22.8403  -33.7802   -0.0456 O   0  0  0  0  0  0  0  0  0  0  0  0
   23.9450  -35.7412    0.1584 O   0  0  0  0  0  0  0  0  0  0  0  0
  2  1  1  6
  2  3  1  0
  4  3  1  0
  4  8  1  0
  5  4  2  0
  6  2  1  0
  7  6  2  0
  9 10  1  0
 10 12  1  0
 11 10  2  0
 12 13  1  0
 14 13  1  6
 14 15  1  0
 15  6  1  0
 16 23  1  0
 16 14  1  0
 17 16  2  0
 18 19  1  0
 19 20  1  0
 21 20  1  0
 22 21  1  1
 22 23  1  0
 24 22  1  0
 24 26  1  0
 25 24  2  0
M  END
$$$$
