DQM.pdb
     RDKit          3D

 26 25  0  0  1  0  0  0  0  0999 V2000
   17.8361  -11.7164  -18.5658 N   0  0  0  0  0  0  0  0  0  0  0  0
   18.1623  -11.3245  -17.2270 C   0  0  1  0  0  0  0  0  0  0  0  0
   19.3080  -12.1817  -16.7172 C   0  0  0  0  0  0  0  0  0  0  0  0
   18.8964  -13.5972  -16.5638 C   0  0  0  0  0  0  0  0  0  0  0  0
   17.7065  -13.9970  -16.5615 O   0  0  0  0  0  0  0  0  0  0  0  0
   18.4301   -9.8959  -17.0587 C   0  0  0  0  0  0  0  0  0  0  0  0
   18.8249   -9.2331  -18.0424 O   0  0  0  0  0  0  0  0  0  0  0  0
   19.8888  -14.5499  -16.4121 O   0  0  0  0  0  0  0  0  0  0  0  0
   15.4297   -5.7351  -13.6073 N   0  0  0  0  0  0  0  0  0  0  0  0
   15.0367   -6.3697  -14.8109 C   0  0  0  0  0  0  0  0  0  0  0  0
   13.8631   -6.3436  -15.2077 O   0  0  0  0  0  0  0  0  0  0  0  0
   16.0590   -7.0840  -15.6165 C   0  0  0  0  0  0  0  0  0  0  0  0
   17.4191   -7.0400  -14.9457 C   0  0  0  0  0  0  0  0  0  0  0  0
   18.4690   -7.7971  -15.6499 C   0  0  2  0  0  0  0  0  0  0  0  0
   18.2783   -9.1764  -15.8504 N   0  0  0  0  0  0  0  0  0  0  0  0
   19.7792   -7.4981  -14.9926 C   0  0  0  0  0  0  0  0  0  0  0  0
   20.1291   -8.0913  -13.9269 O   0  0  0  0  0  0  0  0  0  0  0  0
   27.2864   -6.4048  -16.5333 C   0  0  0  0  0  0  0  0  0  0  0  0
   25.5454   -6.6150  -16.9913 S   0  0  0  0  0  0  0  0  0  0  0  0
   24.4597   -6.4000  -15.5542 C   0  0  0  0  0  0  0  0  0  0  0  0
   23.0408   -6.6208  -16.0042 C   0  0  0  0  0  0  0  0  0  0  0  0
   22.0249   -6.4037  -14.9025 C   0  0  2  0  0  0  0  0  0  0  0  0
   20.7081   -6.5485  -15.5023 N   0  0  0  0  0  0  0  0  0  0  0  0
   22.2205   -4.9737  -14.4610 C   0  0  0  0  0  0  0  0  0  0  0  0
   23.1834   -4.6302  -13.7295 O   0  0  0  0  0  0  0  0  0  0  0  0
   21.3330   -3.9820  -14.8535 O   0  0  0  0  0  0  0  0  0  0  0  0
  2  1  1  6
  2  3  1  0
  4  3  1  0
  4  8  1  0
  5  4  2  0
  6  2  1  0
  7  6  2  0
  9 10  1  0
 10 12  1  0
 11 10  2  0
 12 13  1  0
 14 13  1  1
 14 15  1  0
 15  6  1  0
 16 23  1  0
 16 14  1  0
 17 16  2  0
 18 19  1  0
 19 20  1  0
 21 20  1  0
 22 21  1  6
 22 23  1  0
 24 22  1  0
 24 26  1  0
 25 24  2  0
M  END
$$$$
