DQM.pdb
     RDKit          3D

 26 25  0  0  1  0  0  0  0  0999 V2000
   19.6375  -23.6656  -10.2420 N   0  0  0  0  0  0  0  0  0  0  0  0
   18.3170  -23.2426   -9.8818 C   0  0  1  0  0  0  0  0  0  0  0  0
   17.5235  -22.9436  -11.1420 C   0  0  0  0  0  0  0  0  0  0  0  0
   18.0412  -21.7389  -11.8328 C   0  0  0  0  0  0  0  0  0  0  0  0
   17.3218  -20.8374  -12.3285 O   0  0  0  0  0  0  0  0  0  0  0  0
   17.6054  -24.1598   -8.9911 C   0  0  0  0  0  0  0  0  0  0  0  0
   16.3602  -24.2384   -9.0709 O   0  0  0  0  0  0  0  0  0  0  0  0
   19.4129  -21.5915  -11.9424 O   0  0  0  0  0  0  0  0  0  0  0  0
   18.5317  -29.9667   -8.2528 N   0  0  0  0  0  0  0  0  0  0  0  0
   17.7327  -29.2702   -9.1922 C   0  0  0  0  0  0  0  0  0  0  0  0
   17.3408  -29.8066  -10.2383 O   0  0  0  0  0  0  0  0  0  0  0  0
   17.3561  -27.8612   -8.9143 C   0  0  0  0  0  0  0  0  0  0  0  0
   17.8945  -27.4010   -7.5726 C   0  0  0  0  0  0  0  0  0  0  0  0
   17.6013  -25.9932   -7.2505 C   0  0  2  0  0  0  0  0  0  0  0  0
   18.2152  -24.9891   -8.0210 N   0  0  0  0  0  0  0  0  0  0  0  0
   17.8234  -25.7949   -5.7845 C   0  0  0  0  0  0  0  0  0  0  0  0
   18.9564  -25.4431   -5.3342 O   0  0  0  0  0  0  0  0  0  0  0  0
   14.3212  -24.8622    1.2541 C   0  0  0  0  0  0  0  0  0  0  0  0
   14.2305  -25.3103   -0.4997 S   0  0  0  0  0  0  0  0  0  0  0  0
   15.8838  -25.5961   -1.1889 C   0  0  0  0  0  0  0  0  0  0  0  0
   15.7518  -25.7179   -2.6829 C   0  0  0  0  0  0  0  0  0  0  0  0
   17.0859  -25.7882   -3.3959 C   0  0  2  0  0  0  0  0  0  0  0  0
   16.8042  -25.9818   -4.8094 N   0  0  0  0  0  0  0  0  0  0  0  0
   17.7632  -27.0200   -2.8461 C   0  0  0  0  0  0  0  0  0  0  0  0
   18.4345  -26.9907   -1.7838 O   0  0  0  0  0  0  0  0  0  0  0  0
   17.6645  -28.2375   -3.5043 O   0  0  0  0  0  0  0  0  0  0  0  0
  2  1  1  6
  2  3  1  0
  4  3  1  0
  4  8  1  0
  5  4  2  0
  6  2  1  0
  7  6  2  0
  9 10  1  0
 10 12  1  0
 11 10  2  0
 12 13  1  0
 14 13  1  6
 14 15  1  0
 15  6  1  0
 16 23  1  0
 16 14  1  0
 17 16  2  0
 18 19  1  0
 19 20  1  0
 21 20  1  0
 22 21  1  1
 22 23  1  0
 24 22  1  0
 24 26  1  0
 25 24  2  0
M  END
$$$$
