DQM.pdb
     RDKit          3D

 26 25  0  0  1  0  0  0  0  0999 V2000
   18.5553   -9.2082  -13.9424 N   0  0  0  0  0  0  0  0  0  0  0  0
   18.7726   -8.6330  -12.6484 C   0  0  1  0  0  0  0  0  0  0  0  0
   19.8766   -7.5937  -12.7391 C   0  0  0  0  0  0  0  0  0  0  0  0
   21.1218   -8.1759  -13.2934 C   0  0  0  0  0  0  0  0  0  0  0  0
   21.6427   -7.8371  -14.3841 O   0  0  0  0  0  0  0  0  0  0  0  0
   17.5693   -8.0995  -12.0092 C   0  0  0  0  0  0  0  0  0  0  0  0
   16.7753   -7.4133  -12.6887 O   0  0  0  0  0  0  0  0  0  0  0  0
   21.7597   -9.1625  -12.5621 O   0  0  0  0  0  0  0  0  0  0  0  0
   13.3945  -10.3276   -9.4653 N   0  0  0  0  0  0  0  0  0  0  0  0
   13.0711   -9.1771   -8.7052 C   0  0  0  0  0  0  0  0  0  0  0  0
   11.9265   -8.9835   -8.2720 O   0  0  0  0  0  0  0  0  0  0  0  0
   14.1327   -8.1786   -8.4215 C   0  0  0  0  0  0  0  0  0  0  0  0
   15.4842   -8.6536   -8.9211 C   0  0  0  0  0  0  0  0  0  0  0  0
   16.0559   -7.8314  -10.0020 C   0  0  2  0  0  0  0  0  0  0  0  0
   17.2126   -8.2952  -10.6546 N   0  0  0  0  0  0  0  0  0  0  0  0
   16.2185   -6.4355   -9.4891 C   0  0  0  0  0  0  0  0  0  0  0  0
   17.0245   -6.1733   -8.5447 O   0  0  0  0  0  0  0  0  0  0  0  0
   15.3894    1.2349  -11.1362 C   0  0  0  0  0  0  0  0  0  0  0  0
   15.0840   -0.5100  -11.5194 S   0  0  0  0  0  0  0  0  0  0  0  0
   15.4702   -1.5699  -10.0989 C   0  0  0  0  0  0  0  0  0  0  0  0
   15.2918   -3.0024  -10.5235 C   0  0  0  0  0  0  0  0  0  0  0  0
   15.6750   -3.9959   -9.4468 C   0  0  2  0  0  0  0  0  0  0  0  0
   15.4981   -5.3247  -10.0103 N   0  0  0  0  0  0  0  0  0  0  0  0
   14.6725   -3.7835   -8.3385 C   0  0  0  0  0  0  0  0  0  0  0  0
   14.8299   -2.8970   -7.4613 O   0  0  0  0  0  0  0  0  0  0  0  0
   13.5324   -4.5696   -8.2527 O   0  0  0  0  0  0  0  0  0  0  0  0
  2  1  1  6
  2  3  1  0
  4  3  1  0
  4  8  1  0
  5  4  2  0
  6  2  1  0
  7  6  2  0
  9 10  1  0
 10 12  1  0
 11 10  2  0
 12 13  1  0
 14 13  1  1
 14 15  1  0
 15  6  1  0
 16 23  1  0
 16 14  1  0
 17 16  2  0
 18 19  1  0
 19 20  1  0
 21 20  1  0
 22 21  1  6
 22 23  1  0
 24 22  1  0
 24 26  1  0
 25 24  2  0
M  END
$$$$
