DQM.pdb
     RDKit          3D

 26 25  0  0  1  0  0  0  0  0999 V2000
   18.2636  -12.1486  -18.3832 N   0  0  0  0  0  0  0  0  0  0  0  0
   18.2059  -11.6661  -17.0355 C   0  0  1  0  0  0  0  0  0  0  0  0
   19.0146  -12.5859  -16.1370 C   0  0  0  0  0  0  0  0  0  0  0  0
   18.2573  -13.8147  -15.8008 C   0  0  0  0  0  0  0  0  0  0  0  0
   17.0317  -13.9781  -16.0176 O   0  0  0  0  0  0  0  0  0  0  0  0
   18.5918  -10.2640  -16.8735 C   0  0  0  0  0  0  0  0  0  0  0  0
   19.6112   -9.8438  -17.4627 O   0  0  0  0  0  0  0  0  0  0  0  0
   18.9437  -14.8589  -15.2059 O   0  0  0  0  0  0  0  0  0  0  0  0
   15.0995   -5.2646  -15.0615 N   0  0  0  0  0  0  0  0  0  0  0  0
   16.3905   -4.6914  -15.1653 C   0  0  0  0  0  0  0  0  0  0  0  0
   16.5773   -3.4757  -15.0142 O   0  0  0  0  0  0  0  0  0  0  0  0
   17.5484   -5.5717  -15.4629 C   0  0  0  0  0  0  0  0  0  0  0  0
   17.1294   -7.0280  -15.5359 C   0  0  0  0  0  0  0  0  0  0  0  0
   18.2094   -7.9525  -15.9237 C   0  0  2  0  0  0  0  0  0  0  0  0
   17.8968   -9.3142  -16.0890 N   0  0  0  0  0  0  0  0  0  0  0  0
   19.3575   -7.7466  -14.9871 C   0  0  0  0  0  0  0  0  0  0  0  0
   19.5259   -8.4999  -13.9799 O   0  0  0  0  0  0  0  0  0  0  0  0
   26.3182   -9.5235  -14.4424 C   0  0  0  0  0  0  0  0  0  0  0  0
   24.6281   -9.3769  -15.0803 S   0  0  0  0  0  0  0  0  0  0  0  0
   23.7770   -7.9474  -14.3576 C   0  0  0  0  0  0  0  0  0  0  0  0
   22.3845   -7.8971  -14.9258 C   0  0  0  0  0  0  0  0  0  0  0  0
   21.5672   -6.7358  -14.4001 C   0  0  2  0  0  0  0  0  0  0  0  0
   20.3231   -6.7148  -15.1527 N   0  0  0  0  0  0  0  0  0  0  0  0
   22.3740   -5.5036  -14.7300 C   0  0  0  0  0  0  0  0  0  0  0  0
   22.1537   -4.8224  -15.7632 O   0  0  0  0  0  0  0  0  0  0  0  0
   23.3960   -5.0794  -13.8929 O   0  0  0  0  0  0  0  0  0  0  0  0
  2  1  1  6
  2  3  1  0
  4  3  1  0
  4  8  1  0
  5  4  2  0
  6  2  1  0
  7  6  2  0
  9 10  1  0
 10 12  1  0
 11 10  2  0
 12 13  1  0
 14 13  1  1
 14 15  1  0
 15  6  1  0
 16 23  1  0
 16 14  1  0
 17 16  2  0
 18 19  1  0
 19 20  1  0
 21 20  1  0
 22 21  1  6
 22 23  1  0
 24 22  1  0
 24 26  1  0
 25 24  2  0
M  END
$$$$
