DQM.pdb
     RDKit          3D

 26 25  0  0  1  0  0  0  0  0999 V2000
   15.9595  -10.8575  -14.0212 N   0  0  0  0  0  0  0  0  0  0  0  0
   16.9220   -9.8751  -13.6199 C   0  0  1  0  0  0  0  0  0  0  0  0
   17.8613   -9.5887  -14.7788 C   0  0  0  0  0  0  0  0  0  0  0  0
   18.6078  -10.8040  -15.1816 C   0  0  0  0  0  0  0  0  0  0  0  0
   19.2547  -11.5366  -14.3938 O   0  0  0  0  0  0  0  0  0  0  0  0
   16.3463   -8.6493  -13.0656 C   0  0  0  0  0  0  0  0  0  0  0  0
   15.4677   -8.0438  -13.7169 O   0  0  0  0  0  0  0  0  0  0  0  0
   18.5948  -11.1616  -16.5185 O   0  0  0  0  0  0  0  0  0  0  0  0
   14.9687   -6.7131   -7.2346 N   0  0  0  0  0  0  0  0  0  0  0  0
   14.1583   -7.5103   -8.0793 C   0  0  0  0  0  0  0  0  0  0  0  0
   13.1513   -8.0940   -7.6541 O   0  0  0  0  0  0  0  0  0  0  0  0
   14.5267   -7.6488   -9.5109 C   0  0  0  0  0  0  0  0  0  0  0  0
   15.8217   -6.9213   -9.8198 C   0  0  0  0  0  0  0  0  0  0  0  0
   16.1806   -6.8993  -11.2488 C   0  0  2  0  0  0  0  0  0  0  0  0
   16.7034   -8.0713  -11.8251 N   0  0  0  0  0  0  0  0  0  0  0  0
   17.0576   -5.7117  -11.4905 C   0  0  0  0  0  0  0  0  0  0  0  0
   18.2941   -5.8492  -11.7406 O   0  0  0  0  0  0  0  0  0  0  0  0
   19.9773   -1.4879  -16.4096 C   0  0  0  0  0  0  0  0  0  0  0  0
   19.0753   -2.8284  -15.5884 S   0  0  0  0  0  0  0  0  0  0  0  0
   18.6153   -2.3672  -13.8954 C   0  0  0  0  0  0  0  0  0  0  0  0
   17.8233   -3.5007  -13.3019 C   0  0  0  0  0  0  0  0  0  0  0  0
   17.4423   -3.2686  -11.8548 C   0  0  2  0  0  0  0  0  0  0  0  0
   16.5811   -4.3714  -11.4587 N   0  0  0  0  0  0  0  0  0  0  0  0
   16.6463   -1.9862  -11.8567 C   0  0  0  0  0  0  0  0  0  0  0  0
   15.4005   -1.9779  -12.0238 O   0  0  0  0  0  0  0  0  0  0  0  0
   17.2727   -0.7620  -11.6718 O   0  0  0  0  0  0  0  0  0  0  0  0
  2  1  1  6
  2  3  1  0
  4  3  1  0
  4  8  1  0
  5  4  2  0
  6  2  1  0
  7  6  2  0
  9 10  1  0
 10 12  1  0
 11 10  2  0
 12 13  1  0
 14 13  1  1
 14 15  1  0
 15  6  1  0
 16 23  1  0
 16 14  1  0
 17 16  2  0
 18 19  1  0
 19 20  1  0
 21 20  1  0
 22 21  1  6
 22 23  1  0
 24 22  1  0
 24 26  1  0
 25 24  2  0
M  END
$$$$
