DQM.pdb
     RDKit          3D

 26 25  0  0  1  0  0  0  0  0999 V2000
   16.7216  -13.7948  -16.7617 N   0  0  0  0  0  0  0  0  0  0  0  0
   16.4665  -12.7111  -15.8601 C   0  0  1  0  0  0  0  0  0  0  0  0
   16.7094  -13.1754  -14.4344 C   0  0  0  0  0  0  0  0  0  0  0  0
   15.7709  -14.2567  -14.0515 C   0  0  0  0  0  0  0  0  0  0  0  0
   14.5199  -14.1621  -14.0926 O   0  0  0  0  0  0  0  0  0  0  0  0
   17.1946  -11.4795  -16.1667 C   0  0  0  0  0  0  0  0  0  0  0  0
   18.2931  -11.5560  -16.7587 O   0  0  0  0  0  0  0  0  0  0  0  0
   16.3050  -15.4573  -13.6173 O   0  0  0  0  0  0  0  0  0  0  0  0
   13.9926   -6.9661  -15.8651 N   0  0  0  0  0  0  0  0  0  0  0  0
   14.2043   -7.4327  -17.1855 C   0  0  0  0  0  0  0  0  0  0  0  0
   13.3025   -7.4140  -18.0352 O   0  0  0  0  0  0  0  0  0  0  0  0
   15.5421   -7.9573  -17.5590 C   0  0  0  0  0  0  0  0  0  0  0  0
   16.5391   -7.7793  -16.4294 C   0  0  0  0  0  0  0  0  0  0  0  0
   17.3848   -8.9586  -16.1736 C   0  0  2  0  0  0  0  0  0  0  0  0
   16.7563  -10.1736  -15.8455 N   0  0  0  0  0  0  0  0  0  0  0  0
   18.4287   -8.5749  -15.1731 C   0  0  0  0  0  0  0  0  0  0  0  0
   18.1720   -8.5584  -13.9305 O   0  0  0  0  0  0  0  0  0  0  0  0
   23.6784  -12.4840  -14.7886 C   0  0  0  0  0  0  0  0  0  0  0  0
   23.5948  -10.7050  -15.1248 S   0  0  0  0  0  0  0  0  0  0  0  0
   22.0089  -10.0101  -14.5840 C   0  0  0  0  0  0  0  0  0  0  0  0
   22.0257   -8.5325  -14.8684 C   0  0  0  0  0  0  0  0  0  0  0  0
   20.7257   -7.8419  -14.5133 C   0  0  2  0  0  0  0  0  0  0  0  0
   19.7558   -8.2087  -15.5327 N   0  0  0  0  0  0  0  0  0  0  0  0
   21.0231   -6.3654  -14.6120 C   0  0  0  0  0  0  0  0  0  0  0  0
   21.8176   -5.7936  -13.8233 O   0  0  0  0  0  0  0  0  0  0  0  0
   20.4215   -5.5840  -15.5881 O   0  0  0  0  0  0  0  0  0  0  0  0
  2  1  1  6
  2  3  1  0
  4  3  1  0
  4  8  1  0
  5  4  2  0
  6  2  1  0
  7  6  2  0
  9 10  1  0
 10 12  1  0
 11 10  2  0
 12 13  1  0
 14 13  1  1
 14 15  1  0
 15  6  1  0
 16 23  1  0
 16 14  1  0
 17 16  2  0
 18 19  1  0
 19 20  1  0
 21 20  1  0
 22 21  1  6
 22 23  1  0
 24 22  1  0
 24 26  1  0
 25 24  2  0
M  END
$$$$
