DQM.pdb
     RDKit          3D

 26 25  0  0  1  0  0  0  0  0999 V2000
   19.6569  -15.4505  -17.6170 N   0  0  0  0  0  0  0  0  0  0  0  0
   19.1101  -14.3809  -16.8363 C   0  0  1  0  0  0  0  0  0  0  0  0
   19.1207  -14.7731  -15.3688 C   0  0  0  0  0  0  0  0  0  0  0  0
   18.1782  -15.8850  -15.1004 C   0  0  0  0  0  0  0  0  0  0  0  0
   17.0312  -15.9832  -15.6009 O   0  0  0  0  0  0  0  0  0  0  0  0
   19.7405  -13.0795  -17.0600 C   0  0  0  0  0  0  0  0  0  0  0  0
   20.9558  -13.0364  -17.3499 O   0  0  0  0  0  0  0  0  0  0  0  0
   18.5852  -16.8883  -14.2385 O   0  0  0  0  0  0  0  0  0  0  0  0
   19.3564   -6.2123  -19.3597 N   0  0  0  0  0  0  0  0  0  0  0  0
   18.8327   -7.4600  -18.9412 C   0  0  0  0  0  0  0  0  0  0  0  0
   17.9183   -8.0228  -19.5598 O   0  0  0  0  0  0  0  0  0  0  0  0
   19.3954   -8.1083  -17.7299 C   0  0  0  0  0  0  0  0  0  0  0  0
   18.7082   -9.4300  -17.4423 C   0  0  0  0  0  0  0  0  0  0  0  0
   19.6294  -10.5593  -17.2242 C   0  0  2  0  0  0  0  0  0  0  0  0
   19.0814  -11.8309  -16.9760 N   0  0  0  0  0  0  0  0  0  0  0  0
   20.6195  -10.1571  -16.1774 C   0  0  0  0  0  0  0  0  0  0  0  0
   20.3164  -10.1775  -14.9453 O   0  0  0  0  0  0  0  0  0  0  0  0
   26.7718  -11.9871  -15.6861 C   0  0  0  0  0  0  0  0  0  0  0  0
   26.8690  -10.1989  -15.4070 S   0  0  0  0  0  0  0  0  0  0  0  0
   25.2928   -9.5456  -14.7913 C   0  0  0  0  0  0  0  0  0  0  0  0
   24.2421   -9.7980  -15.8385 C   0  0  0  0  0  0  0  0  0  0  0  0
   22.8591   -9.3483  -15.4165 C   0  0  2  0  0  0  0  0  0  0  0  0
   21.9434   -9.7320  -16.4790 N   0  0  0  0  0  0  0  0  0  0  0  0
   22.9388   -7.8429  -15.3422 C   0  0  0  0  0  0  0  0  0  0  0  0
   23.2737   -7.2467  -14.2875 O   0  0  0  0  0  0  0  0  0  0  0  0
   22.6413   -7.0610  -16.4492 O   0  0  0  0  0  0  0  0  0  0  0  0
  2  1  1  6
  2  3  1  0
  4  3  1  0
  4  8  1  0
  5  4  2  0
  6  2  1  0
  7  6  2  0
  9 10  1  0
 10 12  1  0
 11 10  2  0
 12 13  1  0
 14 13  1  1
 14 15  1  0
 15  6  1  0
 16 23  1  0
 16 14  1  0
 17 16  2  0
 18 19  1  0
 19 20  1  0
 21 20  1  0
 22 21  1  6
 22 23  1  0
 24 22  1  0
 24 26  1  0
 25 24  2  0
M  END
$$$$
