DQM.pdb
     RDKit          3D

 26 25  0  0  1  0  0  0  0  0999 V2000
   21.3058  -16.4862  -18.0106 N   0  0  0  0  0  0  0  0  0  0  0  0
   21.3682  -16.7228  -16.5990 C   0  0  1  0  0  0  0  0  0  0  0  0
   20.2280  -15.9883  -15.9151 C   0  0  0  0  0  0  0  0  0  0  0  0
   20.3477  -14.5216  -16.0918 C   0  0  0  0  0  0  0  0  0  0  0  0
   21.3297  -13.8364  -15.7149 O   0  0  0  0  0  0  0  0  0  0  0  0
   21.4156  -18.1352  -16.2196 C   0  0  0  0  0  0  0  0  0  0  0  0
   21.1069  -19.0012  -17.0668 O   0  0  0  0  0  0  0  0  0  0  0  0
   19.3074  -13.8549  -16.7151 O   0  0  0  0  0  0  0  0  0  0  0  0
   25.0645  -21.6598  -14.6746 N   0  0  0  0  0  0  0  0  0  0  0  0
   24.1960  -22.4508  -13.8834 C   0  0  0  0  0  0  0  0  0  0  0  0
   24.4000  -23.6595  -13.7022 O   0  0  0  0  0  0  0  0  0  0  0  0
   23.0113  -21.8130  -13.2557 C   0  0  0  0  0  0  0  0  0  0  0  0
   22.9453  -20.3325  -13.5803 C   0  0  0  0  0  0  0  0  0  0  0  0
   21.8928  -19.9680  -14.5451 C   0  0  2  0  0  0  0  0  0  0  0  0
   21.7895  -18.6235  -14.9459 N   0  0  0  0  0  0  0  0  0  0  0  0
   20.5919  -20.5083  -14.0413 C   0  0  0  0  0  0  0  0  0  0  0  0
   19.9829  -19.9569  -13.0742 O   0  0  0  0  0  0  0  0  0  0  0  0
   14.4402  -25.1668  -15.8317 C   0  0  0  0  0  0  0  0  0  0  0  0
   16.0960  -24.5131  -16.1720 S   0  0  0  0  0  0  0  0  0  0  0  0
   16.7334  -23.5750  -14.7564 C   0  0  0  0  0  0  0  0  0  0  0  0
   18.1092  -23.0771  -15.1080 C   0  0  0  0  0  0  0  0  0  0  0  0
   18.6709  -22.1073  -14.0897 C   0  0  2  0  0  0  0  0  0  0  0  0
   19.9563  -21.6538  -14.5966 N   0  0  0  0  0  0  0  0  0  0  0  0
   18.8851  -22.9265  -12.8402 C   0  0  0  0  0  0  0  0  0  0  0  0
   19.8657  -23.7030  -12.7150 O   0  0  0  0  0  0  0  0  0  0  0  0
   17.9957  -22.8469  -11.7782 O   0  0  0  0  0  0  0  0  0  0  0  0
  2  1  1  6
  2  3  1  0
  4  3  1  0
  4  8  1  0
  5  4  2  0
  6  2  1  0
  7  6  2  0
  9 10  1  0
 10 12  1  0
 11 10  2  0
 12 13  1  0
 14 13  1  1
 14 15  1  0
 15  6  1  0
 16 23  1  0
 16 14  1  0
 17 16  2  0
 18 19  1  0
 19 20  1  0
 21 20  1  0
 22 21  1  6
 22 23  1  0
 24 22  1  0
 24 26  1  0
 25 24  2  0
M  END
$$$$
