WFN.pdb
     RDKit          3D

 34 36  0  0  1  0  0  0  0  0999 V2000
    7.6468  -17.4798   22.7315 N   0  0  0  0  0  0  0  0  0  0  0  0
    8.2251  -16.2002   22.5344 C   0  0  1  0  0  0  0  0  0  0  0  0
    7.2738  -15.1173   22.0832 C   0  0  0  0  0  0  0  0  0  0  0  0
    7.2738  -14.8806   20.6355 C   0  0  0  0  0  0  0  0  0  0  0  0
    6.7190  -15.6768   19.6609 C   0  0  0  0  0  0  0  0  0  0  0  0
    6.8996  -15.1277   18.4519 N   0  0  0  0  0  0  0  0  0  0  0  0
    7.5675  -13.9782   18.6166 C   0  0  0  0  0  0  0  0  0  0  0  0
    8.0057  -13.0442   17.7345 C   0  0  0  0  0  0  0  0  0  0  0  0
    8.6925  -11.9123   18.1142 C   0  0  0  0  0  0  0  0  0  0  0  0
    8.9327  -11.7446   19.4553 C   0  0  0  0  0  0  0  0  0  0  0  0
    8.5017  -12.6718   20.3703 C   0  0  0  0  0  0  0  0  0  0  0  0
    7.8147  -13.8007   19.9801 C   0  0  0  0  0  0  0  0  0  0  0  0
    9.0248  -15.7459   23.7194 C   0  0  0  0  0  0  0  0  0  0  0  0
    9.8108  -14.7640   23.5835 O   0  0  0  0  0  0  0  0  0  0  0  0
    8.8443  -16.4540   24.9226 N   0  0  0  0  0  0  0  0  0  0  0  0
    9.5701  -16.1242   26.0969 C   0  0  1  0  0  0  0  0  0  0  0  0
    8.6354  -15.6752   27.1921 C   0  0  0  0  0  0  0  0  0  0  0  0
    7.9414  -14.4157   26.8531 C   0  0  0  0  0  0  0  0  0  0  0  0
    8.5687  -13.2009   26.9753 C   0  0  0  0  0  0  0  0  0  0  0  0
    7.9017  -12.0314   26.6550 C   0  0  0  0  0  0  0  0  0  0  0  0
    6.6014  -12.0763   26.2106 C   0  0  0  0  0  0  0  0  0  0  0  0
    5.9726  -13.2920   26.0880 C   0  0  0  0  0  0  0  0  0  0  0  0
    6.6468  -14.4663   26.4111 C   0  0  0  0  0  0  0  0  0  0  0  0
   10.3671  -17.3367   26.5185 C   0  0  0  0  0  0  0  0  0  0  0  0
   10.7354  -17.5386   27.6991 O   0  0  0  0  0  0  0  0  0  0  0  0
    9.9210  -20.9231   23.2393 N   0  0  0  0  0  0  0  0  0  0  0  0
   10.3592  -20.9266   24.5851 C   0  0  0  0  0  0  0  0  0  0  0  0
    9.5645  -21.3239   25.4659 O   0  0  0  0  0  0  0  0  0  0  0  0
   11.7150  -20.4736   24.9317 C   0  0  0  0  0  0  0  0  0  0  0  0
   11.7214  -19.3218   25.9308 C   0  0  2  0  0  0  0  0  0  0  0  0
   10.7401  -18.3235   25.5631 N   0  0  0  0  0  0  0  0  0  0  0  0
   13.0247  -18.6309   25.9995 C   0  0  0  0  0  0  0  0  0  0  0  0
   14.0873  -19.2567   26.2369 O   0  0  0  0  0  0  0  0  0  0  0  0
   13.1687  -17.2477   25.8079 O   0  0  0  0  0  0  0  0  0  0  0  0
  2  1  1  1
  3  2  1  0
  4  3  1  0
  4  5  2  0
  6  5  1  0
  7  6  1  0
  8  7  2  0
  9  8  1  0
 10  9  2  0
 10 11  1  0
 11 12  2  0
 12  7  1  0
 12  4  1  0
 13  2  1  0
 14 13  2  0
 15 13  1  0
 16 15  1  0
 16 17  1  1
 18 17  1  0
 18 19  2  0
 20 19  1  0
 21 20  2  0
 22 23  2  0
 22 21  1  0
 23 18  1  0
 24 16  1  0
 25 24  2  0
 26 27  1  0
 27 28  2  0
 30 29  1  6
 29 27  1  0
 30 31  1  0
 31 24  1  0
 32 34  1  0
 32 30  1  0
 33 32  2  0
M  END
$$$$
