WFN.pdb
     RDKit          3D

 34 36  0  0  1  0  0  0  0  0999 V2000
    7.7794  -18.9358   26.2605 N   0  0  0  0  0  0  0  0  0  0  0  0
    8.1737  -17.6086   25.9546 C   0  0  1  0  0  0  0  0  0  0  0  0
    9.6031  -17.2585   26.2945 C   0  0  0  0  0  0  0  0  0  0  0  0
    9.8088  -16.8553   27.6899 C   0  0  0  0  0  0  0  0  0  0  0  0
   10.3541  -17.6083   28.7034 C   0  0  0  0  0  0  0  0  0  0  0  0
   10.3992  -16.8984   29.8390 N   0  0  0  0  0  0  0  0  0  0  0  0
    9.8897  -15.6853   29.5876 C   0  0  0  0  0  0  0  0  0  0  0  0
    9.6986  -14.5959   30.3746 C   0  0  0  0  0  0  0  0  0  0  0  0
    9.1424  -13.4225   29.9154 C   0  0  0  0  0  0  0  0  0  0  0  0
    8.7719  -13.3786   28.5944 C   0  0  0  0  0  0  0  0  0  0  0  0
    8.9530  -14.4641   27.7748 C   0  0  0  0  0  0  0  0  0  0  0  0
    9.5110  -15.6334   28.2439 C   0  0  0  0  0  0  0  0  0  0  0  0
    7.8557  -17.2299   24.5385 C   0  0  0  0  0  0  0  0  0  0  0  0
    7.5076  -18.1374   23.7288 O   0  0  0  0  0  0  0  0  0  0  0  0
    7.9679  -15.8681   24.1997 N   0  0  0  0  0  0  0  0  0  0  0  0
    7.5946  -15.3863   22.9180 C   0  0  1  0  0  0  0  0  0  0  0  0
    7.2520  -13.9188   22.9798 C   0  0  0  0  0  0  0  0  0  0  0  0
    7.2514  -13.4028   24.3642 C   0  0  0  0  0  0  0  0  0  0  0  0
    7.9945  -12.3035   24.7156 C   0  0  0  0  0  0  0  0  0  0  0  0
    7.9831  -11.8361   26.0182 C   0  0  0  0  0  0  0  0  0  0  0  0
    7.2255  -12.4704   26.9741 C   0  0  0  0  0  0  0  0  0  0  0  0
    6.4812  -13.5711   26.6233 C   0  0  0  0  0  0  0  0  0  0  0  0
    6.4952  -14.0384   25.3120 C   0  0  0  0  0  0  0  0  0  0  0  0
    8.7369  -15.6433   21.9630 C   0  0  0  0  0  0  0  0  0  0  0  0
    8.6165  -15.5809   20.7172 O   0  0  0  0  0  0  0  0  0  0  0  0
   13.1898  -15.0438   19.3115 N   0  0  0  0  0  0  0  0  0  0  0  0
   13.2917  -15.3793   20.6827 C   0  0  0  0  0  0  0  0  0  0  0  0
   14.3644  -15.8755   21.0932 O   0  0  0  0  0  0  0  0  0  0  0  0
   12.1618  -15.1476   21.5956 C   0  0  0  0  0  0  0  0  0  0  0  0
   11.0965  -16.2353   21.5134 C   0  0  2  0  0  0  0  0  0  0  0  0
   10.0298  -15.9756   22.4566 N   0  0  0  0  0  0  0  0  0  0  0  0
   11.6240  -17.5782   21.8282 C   0  0  0  0  0  0  0  0  0  0  0  0
   11.3110  -18.5833   21.1433 O   0  0  0  0  0  0  0  0  0  0  0  0
   12.4989  -17.8253   22.8978 O   0  0  0  0  0  0  0  0  0  0  0  0
  2  1  1  6
  3  2  1  0
  4  3  1  0
  4  5  2  0
  6  5  1  0
  7  6  1  0
  8  7  2  0
  9  8  1  0
 10  9  2  0
 10 11  1  0
 11 12  2  0
 12  7  1  0
 12  4  1  0
 13  2  1  0
 14 13  2  0
 15 13  1  0
 16 15  1  0
 16 17  1  1
 18 17  1  0
 18 19  2  0
 20 19  1  0
 21 20  2  0
 22 23  2  0
 22 21  1  0
 23 18  1  0
 24 16  1  0
 25 24  2  0
 26 27  1  0
 27 28  2  0
 30 29  1  1
 29 27  1  0
 30 31  1  0
 31 24  1  0
 32 34  1  0
 32 30  1  0
 33 32  2  0
M  END
$$$$
