WFN.pdb
     RDKit          3D

 34 36  0  0  1  0  0  0  0  0999 V2000
    8.8266  -17.9649   23.0225 N   0  0  0  0  0  0  0  0  0  0  0  0
    9.1627  -16.6598   22.5815 C   0  0  1  0  0  0  0  0  0  0  0  0
    8.0279  -15.6632   22.5696 C   0  0  0  0  0  0  0  0  0  0  0  0
    7.5333  -15.3298   21.2293 C   0  0  0  0  0  0  0  0  0  0  0  0
    6.6615  -16.0610   20.4569 C   0  0  0  0  0  0  0  0  0  0  0  0
    6.4247  -15.4310   19.2981 N   0  0  0  0  0  0  0  0  0  0  0  0
    7.1303  -14.2924   19.2960 C   0  0  0  0  0  0  0  0  0  0  0  0
    7.2553  -13.2992   18.3791 C   0  0  0  0  0  0  0  0  0  0  0  0
    8.0525  -12.1925   18.5707 C   0  0  0  0  0  0  0  0  0  0  0  0
    8.7434  -12.1142   19.7542 C   0  0  0  0  0  0  0  0  0  0  0  0
    8.6366  -13.1027   20.6999 C   0  0  0  0  0  0  0  0  0  0  0  0
    7.8357  -14.2058   20.4987 C   0  0  0  0  0  0  0  0  0  0  0  0
   10.3534  -16.1016   23.3031 C   0  0  0  0  0  0  0  0  0  0  0  0
   11.2401  -15.4941   22.6361 O   0  0  0  0  0  0  0  0  0  0  0  0
   10.4051  -16.2943   24.6967 N   0  0  0  0  0  0  0  0  0  0  0  0
    9.5793  -15.5537   25.5821 C   0  0  1  0  0  0  0  0  0  0  0  0
    8.6016  -14.7021   24.8116 C   0  0  0  0  0  0  0  0  0  0  0  0
    7.8145  -13.8171   25.6947 C   0  0  0  0  0  0  0  0  0  0  0  0
    8.4130  -13.0952   26.6972 C   0  0  0  0  0  0  0  0  0  0  0  0
    7.6589  -12.2730   27.5160 C   0  0  0  0  0  0  0  0  0  0  0  0
    6.3001  -12.1717   27.3321 C   0  0  0  0  0  0  0  0  0  0  0  0
    5.7001  -12.8941   26.3287 C   0  0  0  0  0  0  0  0  0  0  0  0
    6.4620  -13.7202   25.5071 C   0  0  0  0  0  0  0  0  0  0  0  0
    8.8631  -16.5271   26.4891 C   0  0  0  0  0  0  0  0  0  0  0  0
    8.2891  -16.1823   27.5483 O   0  0  0  0  0  0  0  0  0  0  0  0
    6.8835  -20.8845   28.4713 N   0  0  0  0  0  0  0  0  0  0  0  0
    6.4538  -20.6672   27.1403 C   0  0  0  0  0  0  0  0  0  0  0  0
    5.5637  -21.4137   26.6758 O   0  0  0  0  0  0  0  0  0  0  0  0
    7.0427  -19.5898   26.3304 C   0  0  0  0  0  0  0  0  0  0  0  0
    8.1339  -18.8197   27.0660 C   0  0  2  0  0  0  0  0  0  0  0  0
    8.8120  -17.9121   26.1652 N   0  0  0  0  0  0  0  0  0  0  0  0
    9.1701  -19.7020   27.6392 C   0  0  0  0  0  0  0  0  0  0  0  0
    8.8792  -20.6125   28.4538 O   0  0  0  0  0  0  0  0  0  0  0  0
   10.5327  -19.5895   27.3209 O   0  0  0  0  0  0  0  0  0  0  0  0
  2  1  1  1
  3  2  1  0
  4  3  1  0
  4  5  2  0
  6  5  1  0
  7  6  1  0
  8  7  2  0
  9  8  1  0
 10  9  2  0
 10 11  1  0
 11 12  2  0
 12  7  1  0
 12  4  1  0
 13  2  1  0
 14 13  2  0
 15 13  1  0
 16 15  1  0
 16 17  1  6
 18 17  1  0
 18 19  2  0
 20 19  1  0
 21 20  2  0
 22 23  2  0
 22 21  1  0
 23 18  1  0
 24 16  1  0
 25 24  2  0
 26 27  1  0
 27 28  2  0
 30 29  1  6
 29 27  1  0
 30 31  1  0
 31 24  1  0
 32 34  1  0
 32 30  1  0
 33 32  2  0
M  END
$$$$
