WFN.pdb
     RDKit          3D

 34 36  0  0  1  0  0  0  0  0999 V2000
    6.6428  -18.0352   26.9863 N   0  0  0  0  0  0  0  0  0  0  0  0
    7.5948  -17.2460   26.2925 C   0  0  1  0  0  0  0  0  0  0  0  0
    9.0005  -17.7978   26.2612 C   0  0  0  0  0  0  0  0  0  0  0  0
    9.8291  -17.3999   27.4045 C   0  0  0  0  0  0  0  0  0  0  0  0
   10.0368  -18.1031   28.5681 C   0  0  0  0  0  0  0  0  0  0  0  0
   10.8707  -17.4328   29.3749 N   0  0  0  0  0  0  0  0  0  0  0  0
   11.2160  -16.2950   28.7581 C   0  0  0  0  0  0  0  0  0  0  0  0
   12.0217  -15.2666   29.1266 C   0  0  0  0  0  0  0  0  0  0  0  0
   12.2455  -14.1629   28.3336 C   0  0  0  0  0  0  0  0  0  0  0  0
   11.6111  -14.1255   27.1169 C   0  0  0  0  0  0  0  0  0  0  0  0
   10.7909  -15.1504   26.7174 C   0  0  0  0  0  0  0  0  0  0  0  0
   10.5742  -16.2507   27.5180 C   0  0  0  0  0  0  0  0  0  0  0  0
    7.1364  -16.8798   24.9120 C   0  0  0  0  0  0  0  0  0  0  0  0
    6.3516  -17.6631   24.3030 O   0  0  0  0  0  0  0  0  0  0  0  0
    7.6180  -15.6696   24.3779 N   0  0  0  0  0  0  0  0  0  0  0  0
    7.4172  -15.3244   23.0160 C   0  0  1  0  0  0  0  0  0  0  0  0
    7.0899  -13.8583   22.8808 C   0  0  0  0  0  0  0  0  0  0  0  0
    6.6461  -13.2646   24.1588 C   0  0  0  0  0  0  0  0  0  0  0  0
    5.6353  -13.8309   24.8949 C   0  0  0  0  0  0  0  0  0  0  0  0
    5.2315  -13.2592   26.0888 C   0  0  0  0  0  0  0  0  0  0  0  0
    5.8409  -12.1160   26.5492 C   0  0  0  0  0  0  0  0  0  0  0  0
    6.8529  -11.5483   25.8130 C   0  0  0  0  0  0  0  0  0  0  0  0
    7.2563  -12.1263   24.6124 C   0  0  0  0  0  0  0  0  0  0  0  0
    8.6679  -15.6806   22.2466 C   0  0  0  0  0  0  0  0  0  0  0  0
    8.6981  -15.7875   20.9985 O   0  0  0  0  0  0  0  0  0  0  0  0
   12.6548  -14.9914   20.2164 N   0  0  0  0  0  0  0  0  0  0  0  0
   13.0092  -14.7650   21.5678 C   0  0  0  0  0  0  0  0  0  0  0  0
   13.9613  -13.9899   21.8087 O   0  0  0  0  0  0  0  0  0  0  0  0
   12.2728  -15.4269   22.6555 C   0  0  0  0  0  0  0  0  0  0  0  0
   11.0776  -16.2342   22.1609 C   0  0  2  0  0  0  0  0  0  0  0  0
    9.8940  -15.9149   22.9304 N   0  0  0  0  0  0  0  0  0  0  0  0
   11.2819  -17.6917   22.2815 C   0  0  0  0  0  0  0  0  0  0  0  0
   11.5114  -18.2325   23.3915 O   0  0  0  0  0  0  0  0  0  0  0  0
   11.2353  -18.5645   21.1830 O   0  0  0  0  0  0  0  0  0  0  0  0
  2  1  1  6
  3  2  1  0
  4  3  1  0
  4  5  2  0
  6  5  1  0
  7  6  1  0
  8  7  2  0
  9  8  1  0
 10  9  2  0
 10 11  1  0
 11 12  2  0
 12  7  1  0
 12  4  1  0
 13  2  1  0
 14 13  2  0
 15 13  1  0
 16 15  1  0
 16 17  1  1
 18 17  1  0
 18 19  2  0
 20 19  1  0
 21 20  2  0
 22 23  2  0
 22 21  1  0
 23 18  1  0
 24 16  1  0
 25 24  2  0
 26 27  1  0
 27 28  2  0
 30 29  1  1
 29 27  1  0
 30 31  1  0
 31 24  1  0
 32 34  1  0
 32 30  1  0
 33 32  2  0
M  END
$$$$
