WFN.pdb
     RDKit          3D

 34 36  0  0  1  0  0  0  0  0999 V2000
    8.1247  -17.8684   22.0401 N   0  0  0  0  0  0  0  0  0  0  0  0
    8.5003  -16.5112   21.8743 C   0  0  1  0  0  0  0  0  0  0  0  0
    7.3677  -15.5125   21.9078 C   0  0  0  0  0  0  0  0  0  0  0  0
    6.8582  -15.2248   23.2530 C   0  0  0  0  0  0  0  0  0  0  0  0
    6.3320  -16.1207   24.1542 C   0  0  0  0  0  0  0  0  0  0  0  0
    5.9899  -15.4942   25.2883 N   0  0  0  0  0  0  0  0  0  0  0  0
    6.2836  -14.1949   25.1466 C   0  0  0  0  0  0  0  0  0  0  0  0
    6.1384  -13.1317   25.9779 C   0  0  0  0  0  0  0  0  0  0  0  0
    6.5053  -11.8497   25.6330 C   0  0  0  0  0  0  0  0  0  0  0  0
    7.0410  -11.6653   24.3827 C   0  0  0  0  0  0  0  0  0  0  0  0
    7.2000  -12.7211   23.5209 C   0  0  0  0  0  0  0  0  0  0  0  0
    6.8303  -14.0001   23.8759 C   0  0  0  0  0  0  0  0  0  0  0  0
    9.5973  -16.1031   22.8125 C   0  0  0  0  0  0  0  0  0  0  0  0
   10.2480  -15.0468   22.5658 O   0  0  0  0  0  0  0  0  0  0  0  0
    9.8330  -16.9365   23.9223 N   0  0  0  0  0  0  0  0  0  0  0  0
   10.4603  -16.4502   25.0989 C   0  0  1  0  0  0  0  0  0  0  0  0
    9.4488  -16.2577   26.2010 C   0  0  0  0  0  0  0  0  0  0  0  0
   10.0322  -15.5946   27.3854 C   0  0  0  0  0  0  0  0  0  0  0  0
   10.1827  -14.2312   27.4372 C   0  0  0  0  0  0  0  0  0  0  0  0
   10.7334  -13.6280   28.5544 C   0  0  0  0  0  0  0  0  0  0  0  0
   11.1357  -14.3912   29.6249 C   0  0  0  0  0  0  0  0  0  0  0  0
   10.9856  -15.7562   29.5739 C   0  0  0  0  0  0  0  0  0  0  0  0
   10.4312  -16.3594   28.4483 C   0  0  0  0  0  0  0  0  0  0  0  0
   11.5340  -17.4326   25.5051 C   0  0  0  0  0  0  0  0  0  0  0  0
   12.2328  -17.2972   26.5364 O   0  0  0  0  0  0  0  0  0  0  0  0
   15.7483  -18.8440   23.1929 N   0  0  0  0  0  0  0  0  0  0  0  0
   14.9862  -17.6818   22.9251 C   0  0  0  0  0  0  0  0  0  0  0  0
   15.4948  -16.7921   22.2075 O   0  0  0  0  0  0  0  0  0  0  0  0
   13.6321  -17.5309   23.4793 C   0  0  0  0  0  0  0  0  0  0  0  0
   13.1366  -18.7845   24.1919 C   0  0  2  0  0  0  0  0  0  0  0  0
   11.7999  -18.5818   24.7086 N   0  0  0  0  0  0  0  0  0  0  0  0
   13.9833  -19.1621   25.3413 C   0  0  0  0  0  0  0  0  0  0  0  0
   14.6119  -20.2490   25.3642 O   0  0  0  0  0  0  0  0  0  0  0  0
   14.1448  -18.3475   26.4731 O   0  0  0  0  0  0  0  0  0  0  0  0
  2  1  1  1
  3  2  1  0
  4  3  1  0
  4  5  2  0
  6  5  1  0
  7  6  1  0
  8  7  2  0
  9  8  1  0
 10  9  2  0
 10 11  1  0
 11 12  2  0
 12  7  1  0
 12  4  1  0
 13  2  1  0
 14 13  2  0
 15 13  1  0
 16 15  1  0
 16 17  1  1
 18 17  1  0
 18 19  2  0
 20 19  1  0
 21 20  2  0
 22 23  2  0
 22 21  1  0
 23 18  1  0
 24 16  1  0
 25 24  2  0
 26 27  1  0
 27 28  2  0
 30 29  1  1
 29 27  1  0
 30 31  1  0
 31 24  1  0
 32 34  1  0
 32 30  1  0
 33 32  2  0
M  END
$$$$
