WFN.pdb
     RDKit          3D

 34 36  0  0  1  0  0  0  0  0999 V2000
    8.4169  -17.3273   22.2488 N   0  0  0  0  0  0  0  0  0  0  0  0
    8.7768  -15.9778   22.4933 C   0  0  1  0  0  0  0  0  0  0  0  0
    7.6961  -14.9565   22.2277 C   0  0  0  0  0  0  0  0  0  0  0  0
    7.3311  -14.8200   20.8134 C   0  0  0  0  0  0  0  0  0  0  0  0
    6.4921  -15.6325   20.0870 C   0  0  0  0  0  0  0  0  0  0  0  0
    6.3829  -15.1839   18.8291 N   0  0  0  0  0  0  0  0  0  0  0  0
    7.1402  -14.0847   18.7159 C   0  0  0  0  0  0  0  0  0  0  0  0
    7.3885  -13.2523   17.6728 C   0  0  0  0  0  0  0  0  0  0  0  0
    8.2194  -12.1575   17.7634 C   0  0  0  0  0  0  0  0  0  0  0  0
    8.8127  -11.9189   18.9781 C   0  0  0  0  0  0  0  0  0  0  0  0
    8.5803  -12.7430   20.0504 C   0  0  0  0  0  0  0  0  0  0  0  0
    7.7468  -13.8355   19.9495 C   0  0  0  0  0  0  0  0  0  0  0  0
    9.3695  -15.7825   23.8573 C   0  0  0  0  0  0  0  0  0  0  0  0
   10.3282  -14.9685   23.9939 O   0  0  0  0  0  0  0  0  0  0  0  0
    8.8104  -16.5301   24.9109 N   0  0  0  0  0  0  0  0  0  0  0  0
    9.2259  -16.3479   26.2557 C   0  0  1  0  0  0  0  0  0  0  0  0
    8.0536  -15.9792   27.1300 C   0  0  0  0  0  0  0  0  0  0  0  0
    7.5838  -14.6005   26.8827 C   0  0  0  0  0  0  0  0  0  0  0  0
    8.3865  -13.5170   27.1394 C   0  0  0  0  0  0  0  0  0  0  0  0
    7.9282  -12.2327   26.9035 C   0  0  0  0  0  0  0  0  0  0  0  0
    6.6616  -12.0302   26.4086 C   0  0  0  0  0  0  0  0  0  0  0  0
    5.8572  -13.1143   26.1513 C   0  0  0  0  0  0  0  0  0  0  0  0
    6.3216  -14.4048   26.3899 C   0  0  0  0  0  0  0  0  0  0  0  0
    9.8818  -17.6250   26.7271 C   0  0  0  0  0  0  0  0  0  0  0  0
    9.9650  -17.9477   27.9351 O   0  0  0  0  0  0  0  0  0  0  0  0
    9.2736  -20.7042   23.4013 N   0  0  0  0  0  0  0  0  0  0  0  0
    9.4577  -20.8749   24.7942 C   0  0  0  0  0  0  0  0  0  0  0  0
    8.4426  -20.9898   25.5164 O   0  0  0  0  0  0  0  0  0  0  0  0
   10.8104  -20.9153   25.3707 C   0  0  0  0  0  0  0  0  0  0  0  0
   11.1072  -19.7267   26.2783 C   0  0  2  0  0  0  0  0  0  0  0  0
   10.4459  -18.5355   25.7899 N   0  0  0  0  0  0  0  0  0  0  0  0
   12.5477  -19.4111   26.3557 C   0  0  0  0  0  0  0  0  0  0  0  0
   12.9972  -18.3006   25.9791 O   0  0  0  0  0  0  0  0  0  0  0  0
   13.5036  -20.3140   26.8473 O   0  0  0  0  0  0  0  0  0  0  0  0
  2  1  1  1
  3  2  1  0
  4  3  1  0
  4  5  2  0
  6  5  1  0
  7  6  1  0
  8  7  2  0
  9  8  1  0
 10  9  2  0
 10 11  1  0
 11 12  2  0
 12  7  1  0
 12  4  1  0
 13  2  1  0
 14 13  2  0
 15 13  1  0
 16 15  1  0
 16 17  1  1
 18 17  1  0
 18 19  2  0
 20 19  1  0
 21 20  2  0
 22 23  2  0
 22 21  1  0
 23 18  1  0
 24 16  1  0
 25 24  2  0
 26 27  1  0
 27 28  2  0
 30 29  1  6
 29 27  1  0
 30 31  1  0
 31 24  1  0
 32 34  1  0
 32 30  1  0
 33 32  2  0
M  END
$$$$
