WFN.pdb
     RDKit          3D

 34 36  0  0  1  0  0  0  0  0999 V2000
    7.2358  -15.0242   22.2474 N   0  0  0  0  0  0  0  0  0  0  0  0
    8.2884  -15.9600   22.4119 C   0  0  1  0  0  0  0  0  0  0  0  0
    9.3600  -15.9295   21.3479 C   0  0  0  0  0  0  0  0  0  0  0  0
    8.8880  -15.4903   20.0303 C   0  0  0  0  0  0  0  0  0  0  0  0
    8.8678  -16.2219   18.8658 C   0  0  0  0  0  0  0  0  0  0  0  0
    8.3482  -15.4945   17.8675 N   0  0  0  0  0  0  0  0  0  0  0  0
    8.0253  -14.2908   18.3588 C   0  0  0  0  0  0  0  0  0  0  0  0
    7.4779  -13.1891   17.7852 C   0  0  0  0  0  0  0  0  0  0  0  0
    7.2255  -12.0254   18.4775 C   0  0  0  0  0  0  0  0  0  0  0  0
    7.5527  -12.0048   19.8105 C   0  0  0  0  0  0  0  0  0  0  0  0
    8.1072  -13.1034   20.4175 C   0  0  0  0  0  0  0  0  0  0  0  0
    8.3551  -14.2632   19.7161 C   0  0  0  0  0  0  0  0  0  0  0  0
    8.8970  -15.9006   23.7816 C   0  0  0  0  0  0  0  0  0  0  0  0
    9.7861  -15.0318   24.0160 O   0  0  0  0  0  0  0  0  0  0  0  0
    8.4306  -16.8308   24.7298 N   0  0  0  0  0  0  0  0  0  0  0  0
    8.7344  -16.7030   26.1103 C   0  0  1  0  0  0  0  0  0  0  0  0
    7.5238  -16.2393   26.8813 C   0  0  0  0  0  0  0  0  0  0  0  0
    7.3542  -14.7727   26.8259 C   0  0  0  0  0  0  0  0  0  0  0  0
    6.2609  -14.2038   26.2215 C   0  0  0  0  0  0  0  0  0  0  0  0
    6.1203  -12.8278   26.1774 C   0  0  0  0  0  0  0  0  0  0  0  0
    7.0769  -12.0164   26.7402 C   0  0  0  0  0  0  0  0  0  0  0  0
    8.1718  -12.5849   27.3455 C   0  0  0  0  0  0  0  0  0  0  0  0
    8.3098  -13.9696   27.3878 C   0  0  0  0  0  0  0  0  0  0  0  0
    9.2265  -18.0400   26.6138 C   0  0  0  0  0  0  0  0  0  0  0  0
    8.4584  -18.9608   26.9776 O   0  0  0  0  0  0  0  0  0  0  0  0
   12.0488  -20.4314   24.3505 N   0  0  0  0  0  0  0  0  0  0  0  0
   12.6736  -19.6305   25.3361 C   0  0  0  0  0  0  0  0  0  0  0  0
   13.4000  -18.6847   24.9578 O   0  0  0  0  0  0  0  0  0  0  0  0
   12.4695  -19.9088   26.7659 C   0  0  0  0  0  0  0  0  0  0  0  0
   11.0592  -19.5784   27.2421 C   0  0  2  0  0  0  0  0  0  0  0  0
   10.6212  -18.3115   26.6961 N   0  0  0  0  0  0  0  0  0  0  0  0
   10.9633  -19.4635   28.7112 C   0  0  0  0  0  0  0  0  0  0  0  0
   10.6781  -18.3739   29.2668 O   0  0  0  0  0  0  0  0  0  0  0  0
   11.1801  -20.5452   29.5792 O   0  0  0  0  0  0  0  0  0  0  0  0
  2  1  1  6
  3  2  1  0
  4  3  1  0
  4  5  2  0
  6  5  1  0
  7  6  1  0
  8  7  2  0
  9  8  1  0
 10  9  2  0
 10 11  1  0
 11 12  2  0
 12  7  1  0
 12  4  1  0
 13  2  1  0
 14 13  2  0
 15 13  1  0
 16 15  1  0
 16 17  1  1
 18 17  1  0
 18 19  2  0
 20 19  1  0
 21 20  2  0
 22 23  2  0
 22 21  1  0
 23 18  1  0
 24 16  1  0
 25 24  2  0
 26 27  1  0
 27 28  2  0
 30 29  1  1
 29 27  1  0
 30 31  1  0
 31 24  1  0
 32 34  1  0
 32 30  1  0
 33 32  2  0
M  END
$$$$
