WFN.pdb
     RDKit          3D

 34 36  0  0  1  0  0  0  0  0999 V2000
    6.8612  -18.8714   21.0101 N   0  0  0  0  0  0  0  0  0  0  0  0
    6.2358  -17.8633   21.7869 C   0  0  1  0  0  0  0  0  0  0  0  0
    5.0993  -18.3288   22.6660 C   0  0  0  0  0  0  0  0  0  0  0  0
    3.9612  -18.8918   21.9313 C   0  0  0  0  0  0  0  0  0  0  0  0
    2.8761  -19.5544   22.4557 C   0  0  0  0  0  0  0  0  0  0  0  0
    2.0285  -19.9062   21.4792 N   0  0  0  0  0  0  0  0  0  0  0  0
    2.5412  -19.4841   20.3159 C   0  0  0  0  0  0  0  0  0  0  0  0
    2.0988  -19.5806   19.0362 C   0  0  0  0  0  0  0  0  0  0  0  0
    2.7919  -19.0748   17.9589 C   0  0  0  0  0  0  0  0  0  0  0  0
    3.9850  -18.4476   18.2189 C   0  0  0  0  0  0  0  0  0  0  0  0
    4.4574  -18.3347   19.5021 C   0  0  0  0  0  0  0  0  0  0  0  0
    3.7559  -18.8437   20.5733 C   0  0  0  0  0  0  0  0  0  0  0  0
    7.2227  -17.0556   22.5766 C   0  0  0  0  0  0  0  0  0  0  0  0
    8.4122  -17.4745   22.6754 O   0  0  0  0  0  0  0  0  0  0  0  0
    6.7515  -15.8664   23.1644 N   0  0  0  0  0  0  0  0  0  0  0  0
    7.4567  -15.2251   24.2159 C   0  0  1  0  0  0  0  0  0  0  0  0
    6.8551  -13.8746   24.5146 C   0  0  0  0  0  0  0  0  0  0  0  0
    7.4542  -13.2482   25.7110 C   0  0  0  0  0  0  0  0  0  0  0  0
    6.6733  -12.7941   26.7446 C   0  0  0  0  0  0  0  0  0  0  0  0
    7.2525  -12.2080   27.8564 C   0  0  0  0  0  0  0  0  0  0  0  0
    8.6186  -12.0750   27.9357 C   0  0  0  0  0  0  0  0  0  0  0  0
    9.4011  -12.5292   26.9015 C   0  0  0  0  0  0  0  0  0  0  0  0
    8.8150  -13.1183   25.7846 C   0  0  0  0  0  0  0  0  0  0  0  0
    7.4185  -16.1235   25.4302 C   0  0  0  0  0  0  0  0  0  0  0  0
    6.4099  -16.7911   25.7578 O   0  0  0  0  0  0  0  0  0  0  0  0
   10.9400  -20.2564   25.1159 N   0  0  0  0  0  0  0  0  0  0  0  0
    9.7226  -19.7705   25.6496 C   0  0  0  0  0  0  0  0  0  0  0  0
    9.0450  -20.5353   26.3716 O   0  0  0  0  0  0  0  0  0  0  0  0
    9.2720  -18.4008   25.3587 C   0  0  0  0  0  0  0  0  0  0  0  0
    9.0364  -17.5712   26.6162 C   0  0  2  0  0  0  0  0  0  0  0  0
    8.5594  -16.2488   26.2717 N   0  0  0  0  0  0  0  0  0  0  0  0
   10.2630  -17.3849   27.4171 C   0  0  0  0  0  0  0  0  0  0  0  0
   10.2533  -17.4971   28.6679 O   0  0  0  0  0  0  0  0  0  0  0  0
   11.5083  -17.0740   26.8486 O   0  0  0  0  0  0  0  0  0  0  0  0
  2  1  1  1
  3  2  1  0
  4  3  1  0
  4  5  2  0
  6  5  1  0
  7  6  1  0
  8  7  2  0
  9  8  1  0
 10  9  2  0
 10 11  1  0
 11 12  2  0
 12  7  1  0
 12  4  1  0
 13  2  1  0
 14 13  2  0
 15 13  1  0
 16 15  1  0
 16 17  1  1
 18 17  1  0
 18 19  2  0
 20 19  1  0
 21 20  2  0
 22 23  2  0
 22 21  1  0
 23 18  1  0
 24 16  1  0
 25 24  2  0
 26 27  1  0
 27 28  2  0
 30 29  1  6
 29 27  1  0
 30 31  1  0
 31 24  1  0
 32 34  1  0
 32 30  1  0
 33 32  2  0
M  END
$$$$
