WFN.pdb
     RDKit          3D

 34 36  0  0  1  0  0  0  0  0999 V2000
    8.1084  -17.6919   22.1834 N   0  0  0  0  0  0  0  0  0  0  0  0
    8.5728  -16.3533   22.2396 C   0  0  1  0  0  0  0  0  0  0  0  0
    7.5541  -15.2946   21.8892 C   0  0  0  0  0  0  0  0  0  0  0  0
    7.3710  -15.0885   20.4484 C   0  0  0  0  0  0  0  0  0  0  0  0
    6.7211  -15.9173   19.5639 C   0  0  0  0  0  0  0  0  0  0  0  0
    6.7386  -15.3898   18.3322 N   0  0  0  0  0  0  0  0  0  0  0  0
    7.3928  -14.2224   18.3927 C   0  0  0  0  0  0  0  0  0  0  0  0
    7.6963  -13.2975   17.4466 C   0  0  0  0  0  0  0  0  0  0  0  0
    8.3960  -12.1427   17.7185 C   0  0  0  0  0  0  0  0  0  0  0  0
    8.7943  -11.9414   19.0167 C   0  0  0  0  0  0  0  0  0  0  0  0
    8.5018  -12.8586   19.9944 C   0  0  0  0  0  0  0  0  0  0  0  0
    7.8005  -14.0106   19.7120 C   0  0  0  0  0  0  0  0  0  0  0  0
    9.2437  -16.0353   23.5429 C   0  0  0  0  0  0  0  0  0  0  0  0
   10.3006  -15.3404   23.5303 O   0  0  0  0  0  0  0  0  0  0  0  0
    8.6426  -16.5398   24.7117 N   0  0  0  0  0  0  0  0  0  0  0  0
    9.2792  -16.4456   25.9767 C   0  0  1  0  0  0  0  0  0  0  0  0
    8.2978  -16.0090   27.0355 C   0  0  0  0  0  0  0  0  0  0  0  0
    7.8047  -14.6350   26.8079 C   0  0  0  0  0  0  0  0  0  0  0  0
    6.8943  -14.0548   27.6556 C   0  0  0  0  0  0  0  0  0  0  0  0
    6.4421  -12.7673   27.4249 C   0  0  0  0  0  0  0  0  0  0  0  0
    6.9019  -12.0565   26.3417 C   0  0  0  0  0  0  0  0  0  0  0  0
    7.8133  -12.6365   25.4923 C   0  0  0  0  0  0  0  0  0  0  0  0
    8.2658  -13.9319   25.7277 C   0  0  0  0  0  0  0  0  0  0  0  0
    9.8799  -17.7921   26.3072 C   0  0  0  0  0  0  0  0  0  0  0  0
    9.7445  -18.8013   25.5768 O   0  0  0  0  0  0  0  0  0  0  0  0
   12.6967  -19.7427   24.4129 N   0  0  0  0  0  0  0  0  0  0  0  0
   13.4057  -19.1944   25.5082 C   0  0  0  0  0  0  0  0  0  0  0  0
   14.5600  -19.6183   25.7388 O   0  0  0  0  0  0  0  0  0  0  0  0
   12.7951  -18.1535   26.3492 C   0  0  0  0  0  0  0  0  0  0  0  0
   11.8799  -18.7205   27.4290 C   0  0  2  0  0  0  0  0  0  0  0  0
   10.6441  -17.9699   27.4946 N   0  0  0  0  0  0  0  0  0  0  0  0
   12.4820  -18.6658   28.7763 C   0  0  0  0  0  0  0  0  0  0  0  0
   12.9632  -19.6895   29.3219 O   0  0  0  0  0  0  0  0  0  0  0  0
   12.5591  -17.4858   29.5327 O   0  0  0  0  0  0  0  0  0  0  0  0
  2  1  1  1
  3  2  1  0
  4  3  1  0
  4  5  2  0
  6  5  1  0
  7  6  1  0
  8  7  2  0
  9  8  1  0
 10  9  2  0
 10 11  1  0
 11 12  2  0
 12  7  1  0
 12  4  1  0
 13  2  1  0
 14 13  2  0
 15 13  1  0
 16 15  1  0
 16 17  1  1
 18 17  1  0
 18 19  2  0
 20 19  1  0
 21 20  2  0
 22 23  2  0
 22 21  1  0
 23 18  1  0
 24 16  1  0
 25 24  2  0
 26 27  1  0
 27 28  2  0
 30 29  1  6
 29 27  1  0
 30 31  1  0
 31 24  1  0
 32 34  1  0
 32 30  1  0
 33 32  2  0
M  END
$$$$
