WFN.pdb
     RDKit          3D

 34 36  0  0  1  0  0  0  0  0999 V2000
    8.1554  -17.6882   21.1498 N   0  0  0  0  0  0  0  0  0  0  0  0
    9.4894  -17.2788   20.8980 C   0  0  1  0  0  0  0  0  0  0  0  0
    9.6887  -16.4272   19.6666 C   0  0  0  0  0  0  0  0  0  0  0  0
    8.9878  -15.1391   19.7054 C   0  0  0  0  0  0  0  0  0  0  0  0
    9.0116  -14.1483   18.7518 C   0  0  0  0  0  0  0  0  0  0  0  0
    8.2326  -13.1237   19.1249 N   0  0  0  0  0  0  0  0  0  0  0  0
    7.6948  -13.4260   20.3139 C   0  0  0  0  0  0  0  0  0  0  0  0
    6.8482  -12.7482   21.1303 C   0  0  0  0  0  0  0  0  0  0  0  0
    6.4097  -13.2422   22.3389 C   0  0  0  0  0  0  0  0  0  0  0  0
    6.8656  -14.4817   22.7128 C   0  0  0  0  0  0  0  0  0  0  0  0
    7.7219  -15.1903   21.9081 C   0  0  0  0  0  0  0  0  0  0  0  0
    8.1543  -14.6875   20.7003 C   0  0  0  0  0  0  0  0  0  0  0  0
   10.1266  -16.6391   22.0959 C   0  0  0  0  0  0  0  0  0  0  0  0
   11.3065  -16.1946   21.9935 O   0  0  0  0  0  0  0  0  0  0  0  0
    9.3566  -16.5754   23.2727 N   0  0  0  0  0  0  0  0  0  0  0  0
    9.8783  -16.0321   24.4755 C   0  0  1  0  0  0  0  0  0  0  0  0
    8.7621  -15.5856   25.3864 C   0  0  0  0  0  0  0  0  0  0  0  0
    9.2683  -14.9609   26.6258 C   0  0  0  0  0  0  0  0  0  0  0  0
    9.5583  -13.6203   26.6814 C   0  0  0  0  0  0  0  0  0  0  0  0
   10.0338  -13.0532   27.8508 C   0  0  0  0  0  0  0  0  0  0  0  0
   10.2204  -13.8296   28.9700 C   0  0  0  0  0  0  0  0  0  0  0  0
    9.9304  -15.1717   28.9153 C   0  0  0  0  0  0  0  0  0  0  0  0
    9.4523  -15.7387   27.7372 C   0  0  0  0  0  0  0  0  0  0  0  0
   10.7392  -17.0830   25.1370 C   0  0  0  0  0  0  0  0  0  0  0  0
   10.3250  -18.2322   25.4166 O   0  0  0  0  0  0  0  0  0  0  0  0
   14.1049  -18.0177   23.5678 N   0  0  0  0  0  0  0  0  0  0  0  0
   14.9155  -17.5627   24.6350 C   0  0  0  0  0  0  0  0  0  0  0  0
   16.0953  -17.2310   24.3833 O   0  0  0  0  0  0  0  0  0  0  0  0
   14.3781  -17.4842   26.0020 C   0  0  0  0  0  0  0  0  0  0  0  0
   12.8972  -17.8387   26.0815 C   0  0  2  0  0  0  0  0  0  0  0  0
   12.0917  -16.7991   25.4771 N   0  0  0  0  0  0  0  0  0  0  0  0
   12.4193  -17.9929   27.4701 C   0  0  0  0  0  0  0  0  0  0  0  0
   12.1493  -19.1218   27.9496 O   0  0  0  0  0  0  0  0  0  0  0  0
   12.2349  -16.9074   28.3410 O   0  0  0  0  0  0  0  0  0  0  0  0
  2  1  1  1
  3  2  1  0
  4  3  1  0
  4  5  2  0
  6  5  1  0
  7  6  1  0
  8  7  2  0
  9  8  1  0
 10  9  2  0
 10 11  1  0
 11 12  2  0
 12  7  1  0
 12  4  1  0
 13  2  1  0
 14 13  2  0
 15 13  1  0
 16 15  1  0
 16 17  1  1
 18 17  1  0
 18 19  2  0
 20 19  1  0
 21 20  2  0
 22 23  2  0
 22 21  1  0
 23 18  1  0
 24 16  1  0
 25 24  2  0
 26 27  1  0
 27 28  2  0
 30 29  1  1
 29 27  1  0
 30 31  1  0
 31 24  1  0
 32 34  1  0
 32 30  1  0
 33 32  2  0
M  END
$$$$
