WFN.pdb
     RDKit          3D

 34 36  0  0  1  0  0  0  0  0999 V2000
    6.7494  -19.2212   26.4512 N   0  0  0  0  0  0  0  0  0  0  0  0
    7.5881  -18.0975   26.2399 C   0  0  1  0  0  0  0  0  0  0  0  0
    9.0059  -18.2389   26.7408 C   0  0  0  0  0  0  0  0  0  0  0  0
    9.2876  -17.4904   27.9706 C   0  0  0  0  0  0  0  0  0  0  0  0
    9.7024  -17.9990   29.1793 C   0  0  0  0  0  0  0  0  0  0  0  0
    9.8768  -17.0095   30.0659 N   0  0  0  0  0  0  0  0  0  0  0  0
    9.5818  -15.8533   29.4572 C   0  0  0  0  0  0  0  0  0  0  0  0
    9.5864  -14.5673   29.8916 C   0  0  0  0  0  0  0  0  0  0  0  0
    9.2371  -13.5007   29.0931 C   0  0  0  0  0  0  0  0  0  0  0  0
    8.8705  -13.7787   27.7999 C   0  0  0  0  0  0  0  0  0  0  0  0
    8.8564  -15.0688   27.3327 C   0  0  0  0  0  0  0  0  0  0  0  0
    9.2083  -16.1289   28.1395 C   0  0  0  0  0  0  0  0  0  0  0  0
    7.5716  -17.6320   24.8140 C   0  0  0  0  0  0  0  0  0  0  0  0
    7.2161  -18.4447   23.9121 O   0  0  0  0  0  0  0  0  0  0  0  0
    7.9592  -16.3007   24.5711 N   0  0  0  0  0  0  0  0  0  0  0  0
    7.8578  -15.7192   23.2804 C   0  0  1  0  0  0  0  0  0  0  0  0
    7.7169  -14.2209   23.3808 C   0  0  0  0  0  0  0  0  0  0  0  0
    7.6400  -13.5767   22.0535 C   0  0  0  0  0  0  0  0  0  0  0  0
    8.6883  -12.8441   21.5548 C   0  0  0  0  0  0  0  0  0  0  0  0
    8.5970  -12.2459   20.3102 C   0  0  0  0  0  0  0  0  0  0  0  0
    7.4526  -12.3806   19.5604 C   0  0  0  0  0  0  0  0  0  0  0  0
    6.4025  -13.1137   20.0587 C   0  0  0  0  0  0  0  0  0  0  0  0
    6.4980  -13.7139   21.3112 C   0  0  0  0  0  0  0  0  0  0  0  0
    9.0864  -16.1030   22.4890 C   0  0  0  0  0  0  0  0  0  0  0  0
    9.1388  -16.0552   21.2379 O   0  0  0  0  0  0  0  0  0  0  0  0
   12.9254  -14.6858   21.3673 N   0  0  0  0  0  0  0  0  0  0  0  0
   12.8965  -15.2406   22.6690 C   0  0  0  0  0  0  0  0  0  0  0  0
   13.0534  -14.4725   23.6441 O   0  0  0  0  0  0  0  0  0  0  0  0
   12.6868  -16.6835   22.8628 C   0  0  0  0  0  0  0  0  0  0  0  0
   11.3214  -17.1579   22.3774 C   0  0  2  0  0  0  0  0  0  0  0  0
   10.2642  -16.5461   23.1539 N   0  0  0  0  0  0  0  0  0  0  0  0
   11.1465  -18.6191   22.4992 C   0  0  0  0  0  0  0  0  0  0  0  0
   11.8938  -19.4225   21.8882 O   0  0  0  0  0  0  0  0  0  0  0  0
   10.1492  -19.2070   23.2931 O   0  0  0  0  0  0  0  0  0  0  0  0
  2  1  1  6
  3  2  1  0
  4  3  1  0
  4  5  2  0
  6  5  1  0
  7  6  1  0
  8  7  2  0
  9  8  1  0
 10  9  2  0
 10 11  1  0
 11 12  2  0
 12  7  1  0
 12  4  1  0
 13  2  1  0
 14 13  2  0
 15 13  1  0
 16 15  1  0
 16 17  1  1
 18 17  1  0
 18 19  2  0
 20 19  1  0
 21 20  2  0
 22 23  2  0
 22 21  1  0
 23 18  1  0
 24 16  1  0
 25 24  2  0
 26 27  1  0
 27 28  2  0
 30 29  1  1
 29 27  1  0
 30 31  1  0
 31 24  1  0
 32 34  1  0
 32 30  1  0
 33 32  2  0
M  END
$$$$
