WFN.pdb
     RDKit          3D

 34 36  0  0  1  0  0  0  0  0999 V2000
    8.8836  -17.0395   22.5519 N   0  0  0  0  0  0  0  0  0  0  0  0
    9.2247  -15.6964   22.8525 C   0  0  1  0  0  0  0  0  0  0  0  0
    8.1276  -14.6811   22.6362 C   0  0  0  0  0  0  0  0  0  0  0  0
    7.6237  -14.6229   21.2597 C   0  0  0  0  0  0  0  0  0  0  0  0
    6.5642  -15.3216   20.7298 C   0  0  0  0  0  0  0  0  0  0  0  0
    6.3875  -14.9945   19.4424 N   0  0  0  0  0  0  0  0  0  0  0  0
    7.3183  -14.0882   19.1156 C   0  0  0  0  0  0  0  0  0  0  0  0
    7.5886  -13.4367   17.9558 C   0  0  0  0  0  0  0  0  0  0  0  0
    8.6152  -12.5281   17.8233 C   0  0  0  0  0  0  0  0  0  0  0  0
    9.3874  -12.2878   18.9324 C   0  0  0  0  0  0  0  0  0  0  0  0
    9.1379  -12.9312   20.1184 C   0  0  0  0  0  0  0  0  0  0  0  0
    8.1078  -13.8382   20.2407 C   0  0  0  0  0  0  0  0  0  0  0  0
    9.8219  -15.5509   24.2208 C   0  0  0  0  0  0  0  0  0  0  0  0
   10.8853  -14.8787   24.3529 O   0  0  0  0  0  0  0  0  0  0  0  0
    9.1482  -16.1825   25.2833 N   0  0  0  0  0  0  0  0  0  0  0  0
    9.5740  -16.0330   26.6289 C   0  0  1  0  0  0  0  0  0  0  0  0
    8.4069  -15.6952   27.5225 C   0  0  0  0  0  0  0  0  0  0  0  0
    7.8026  -14.3904   27.1831 C   0  0  0  0  0  0  0  0  0  0  0  0
    8.4329  -13.2108   27.4920 C   0  0  0  0  0  0  0  0  0  0  0  0
    7.8502  -11.9981   27.1681 C   0  0  0  0  0  0  0  0  0  0  0  0
    6.6316  -11.9641   26.5324 C   0  0  0  0  0  0  0  0  0  0  0  0
    5.9998  -13.1445   26.2227 C   0  0  0  0  0  0  0  0  0  0  0  0
    6.5890  -14.3625   26.5502 C   0  0  0  0  0  0  0  0  0  0  0  0
   10.2420  -17.3177   27.0609 C   0  0  0  0  0  0  0  0  0  0  0  0
   10.5568  -17.5610   28.2492 O   0  0  0  0  0  0  0  0  0  0  0  0
   11.8175  -20.6138   23.6194 N   0  0  0  0  0  0  0  0  0  0  0  0
   10.6062  -20.5758   24.3505 C   0  0  0  0  0  0  0  0  0  0  0  0
    9.5407  -20.3875   23.7223 O   0  0  0  0  0  0  0  0  0  0  0  0
   10.6075  -20.7538   25.8106 C   0  0  0  0  0  0  0  0  0  0  0  0
   11.1765  -19.5522   26.5570 C   0  0  2  0  0  0  0  0  0  0  0  0
   10.5476  -18.3287   26.1070 N   0  0  0  0  0  0  0  0  0  0  0  0
   12.6288  -19.3844   26.3490 C   0  0  0  0  0  0  0  0  0  0  0  0
   13.4452  -20.2850   26.6645 O   0  0  0  0  0  0  0  0  0  0  0  0
   13.1935  -18.2257   25.7930 O   0  0  0  0  0  0  0  0  0  0  0  0
  2  1  1  1
  3  2  1  0
  4  3  1  0
  4  5  2  0
  6  5  1  0
  7  6  1  0
  8  7  2  0
  9  8  1  0
 10  9  2  0
 10 11  1  0
 11 12  2  0
 12  7  1  0
 12  4  1  0
 13  2  1  0
 14 13  2  0
 15 13  1  0
 16 15  1  0
 16 17  1  1
 18 17  1  0
 18 19  2  0
 20 19  1  0
 21 20  2  0
 22 23  2  0
 22 21  1  0
 23 18  1  0
 24 16  1  0
 25 24  2  0
 26 27  1  0
 27 28  2  0
 30 29  1  6
 29 27  1  0
 30 31  1  0
 31 24  1  0
 32 34  1  0
 32 30  1  0
 33 32  2  0
M  END
$$$$
