YAG.pdb
     RDKit          3D

 22 22  0  0  1  0  0  0  0  0999 V2000
   10.1068  -14.2720   30.5076 O   0  0  0  0  0  0  0  0  0  0  0  0
    9.8555  -14.5609   29.1650 C   0  0  0  0  0  0  0  0  0  0  0  0
   10.3852  -15.6636   28.5268 C   0  0  0  0  0  0  0  0  0  0  0  0
   10.1292  -15.9388   27.1981 C   0  0  0  0  0  0  0  0  0  0  0  0
    9.3202  -15.1047   26.4506 C   0  0  0  0  0  0  0  0  0  0  0  0
    9.0161  -15.3591   25.0186 C   0  0  0  0  0  0  0  0  0  0  0  0
    7.5604  -15.7064   24.8055 C   0  0  2  0  0  0  0  0  0  0  0  0
    7.2129  -16.9237   25.4744 N   0  0  0  0  0  0  0  0  0  0  0  0
    7.3682  -15.8384   23.3264 C   0  0  0  0  0  0  0  0  0  0  0  0
    7.1394  -16.9747   22.8533 O   0  0  0  0  0  0  0  0  0  0  0  0
    8.7920  -14.0032   27.0907 C   0  0  0  0  0  0  0  0  0  0  0  0
    9.0476  -13.7269   28.4206 C   0  0  0  0  0  0  0  0  0  0  0  0
    6.7741  -13.4449   20.4633 C   0  0  0  0  0  0  0  0  0  0  0  0
    7.1749  -14.7753   21.0518 C   0  0  2  0  0  0  0  0  0  0  0  0
    7.4401  -14.7122   22.4644 N   0  0  0  0  0  0  0  0  0  0  0  0
    8.2960  -15.4067   20.3035 C   0  0  0  0  0  0  0  0  0  0  0  0
    8.2106  -15.6074   19.0586 O   0  0  0  0  0  0  0  0  0  0  0  0
    9.5008  -15.8105   20.9380 N   0  0  0  0  0  0  0  0  0  0  0  0
   10.5795  -16.4611   20.2362 C   0  0  0  0  0  0  0  0  0  0  0  0
   11.7379  -16.7407   21.0968 C   0  0  0  0  0  0  0  0  0  0  0  0
   11.6009  -17.4276   22.1277 O   0  0  0  0  0  0  0  0  0  0  0  0
   12.9761  -16.2418   20.7614 O   0  0  0  0  0  0  0  0  0  0  0  0
  2  1  1  0
  2 12  2  0
  3  2  1  0
  4  3  2  0
  4  5  1  0
  5 11  2  0
  6  7  1  0
  6  5  1  0
  7  8  1  1
  9  7  1  0
  9 10  2  0
 11 12  1  0
 14 13  1  6
 14 15  1  0
 14 16  1  0
 15  9  1  0
 16 18  1  0
 17 16  2  0
 18 19  1  0
 19 20  1  0
 20 21  2  0
 20 22  1  0
M  END
$$$$
