YAG.pdb
     RDKit          3D

 22 22  0  0  1  0  0  0  0  0999 V2000
    8.4000  -13.6235   18.6848 O   0  0  0  0  0  0  0  0  0  0  0  0
    8.2093  -13.6252   20.0679 C   0  0  0  0  0  0  0  0  0  0  0  0
    8.0476  -14.7848   20.7978 C   0  0  0  0  0  0  0  0  0  0  0  0
    7.8597  -14.7735   22.1658 C   0  0  0  0  0  0  0  0  0  0  0  0
    7.8268  -13.5800   22.8610 C   0  0  0  0  0  0  0  0  0  0  0  0
    7.6274  -13.5172   24.3322 C   0  0  0  0  0  0  0  0  0  0  0  0
    6.7100  -14.6137   24.8231 C   0  0  2  0  0  0  0  0  0  0  0  0
    5.7047  -14.0962   25.7015 N   0  0  0  0  0  0  0  0  0  0  0  0
    7.5777  -15.6060   25.5333 C   0  0  0  0  0  0  0  0  0  0  0  0
    8.0274  -15.3054   26.6623 O   0  0  0  0  0  0  0  0  0  0  0  0
    7.9887  -12.4222   22.1293 C   0  0  0  0  0  0  0  0  0  0  0  0
    8.1768  -12.4325   20.7600 C   0  0  0  0  0  0  0  0  0  0  0  0
    8.4386  -19.2430   25.2691 C   0  0  0  0  0  0  0  0  0  0  0  0
    8.8024  -17.8063   25.5529 C   0  0  2  0  0  0  0  0  0  0  0  0
    7.8941  -16.8641   24.9555 N   0  0  0  0  0  0  0  0  0  0  0  0
   10.2194  -17.5063   25.2099 C   0  0  0  0  0  0  0  0  0  0  0  0
   11.1640  -17.9318   25.9338 O   0  0  0  0  0  0  0  0  0  0  0  0
   10.5791  -16.7390   24.0702 N   0  0  0  0  0  0  0  0  0  0  0  0
   11.9252  -16.2866   23.8196 C   0  0  0  0  0  0  0  0  0  0  0  0
   12.4143  -16.6533   22.4828 C   0  0  0  0  0  0  0  0  0  0  0  0
   13.5451  -16.2872   22.1076 O   0  0  0  0  0  0  0  0  0  0  0  0
   11.6201  -17.4028   21.6450 O   0  0  0  0  0  0  0  0  0  0  0  0
  2  1  1  0
  2 12  2  0
  3  2  1  0
  4  3  2  0
  4  5  1  0
  5 11  2  0
  6  7  1  0
  6  5  1  0
  7  8  1  1
  9  7  1  0
  9 10  2  0
 11 12  1  0
 14 13  1  6
 14 15  1  0
 14 16  1  0
 15  9  1  0
 16 18  1  0
 17 16  2  0
 18 19  1  0
 19 20  1  0
 20 21  2  0
 20 22  1  0
M  END
$$$$
