YAG.pdb
     RDKit          3D

 22 22  0  0  1  0  0  0  0  0999 V2000
   10.6022  -14.2016   30.6626 O   0  0  0  0  0  0  0  0  0  0  0  0
   10.3482  -14.5373   29.3314 C   0  0  0  0  0  0  0  0  0  0  0  0
   10.8518  -15.6775   28.7398 C   0  0  0  0  0  0  0  0  0  0  0  0
   10.5936  -15.9988   27.4220 C   0  0  0  0  0  0  0  0  0  0  0  0
    9.8087  -15.1749   26.6383 C   0  0  0  0  0  0  0  0  0  0  0  0
    9.5032  -15.4783   25.2162 C   0  0  0  0  0  0  0  0  0  0  0  0
    8.0922  -15.9915   25.0408 C   0  0  2  0  0  0  0  0  0  0  0  0
    7.9005  -17.2316   25.7303 N   0  0  0  0  0  0  0  0  0  0  0  0
    7.8838  -16.1637   23.5681 C   0  0  0  0  0  0  0  0  0  0  0  0
    7.9714  -17.3148   23.0834 O   0  0  0  0  0  0  0  0  0  0  0  0
    9.3065  -14.0358   27.2318 C   0  0  0  0  0  0  0  0  0  0  0  0
    9.5644  -13.7134   28.5508 C   0  0  0  0  0  0  0  0  0  0  0  0
    6.5803  -14.0479   20.7229 C   0  0  0  0  0  0  0  0  0  0  0  0
    7.3994  -15.1742   21.3036 C   0  0  2  0  0  0  0  0  0  0  0  0
    7.5927  -15.0591   22.7246 N   0  0  0  0  0  0  0  0  0  0  0  0
    8.6869  -15.3642   20.5813 C   0  0  0  0  0  0  0  0  0  0  0  0
    8.7068  -15.5359   19.3293 O   0  0  0  0  0  0  0  0  0  0  0  0
    9.9403  -15.3626   21.2493 N   0  0  0  0  0  0  0  0  0  0  0  0
   11.1992  -15.5008   20.5597 C   0  0  0  0  0  0  0  0  0  0  0  0
   11.6729  -16.8912   20.5032 C   0  0  0  0  0  0  0  0  0  0  0  0
   12.8614  -17.1367   20.2189 O   0  0  0  0  0  0  0  0  0  0  0  0
   10.8004  -17.9229   20.7653 O   0  0  0  0  0  0  0  0  0  0  0  0
  2  1  1  0
  2 12  2  0
  3  2  1  0
  4  3  2  0
  4  5  1  0
  5 11  2  0
  6  7  1  0
  6  5  1  0
  7  8  1  1
  9  7  1  0
  9 10  2  0
 11 12  1  0
 14 13  1  6
 14 15  1  0
 14 16  1  0
 15  9  1  0
 16 18  1  0
 17 16  2  0
 18 19  1  0
 19 20  1  0
 20 21  2  0
 20 22  1  0
M  END
$$$$
