YAG.pdb
     RDKit          3D

 22 22  0  0  1  0  0  0  0  0999 V2000
    5.7070  -11.5045   28.4933 O   0  0  0  0  0  0  0  0  0  0  0  0
    6.4077  -12.1027   27.4443 C   0  0  0  0  0  0  0  0  0  0  0  0
    7.4810  -12.9454   27.6480 C   0  0  0  0  0  0  0  0  0  0  0  0
    8.1662  -13.5311   26.6020 C   0  0  0  0  0  0  0  0  0  0  0  0
    7.7933  -13.2885   25.2939 C   0  0  0  0  0  0  0  0  0  0  0  0
    8.4995  -13.8953   24.1359 C   0  0  0  0  0  0  0  0  0  0  0  0
    7.6068  -14.8405   23.3647 C   0  0  2  0  0  0  0  0  0  0  0  0
    7.4570  -16.0892   24.0491 N   0  0  0  0  0  0  0  0  0  0  0  0
    8.2539  -15.0399   22.0292 C   0  0  0  0  0  0  0  0  0  0  0  0
    8.9961  -16.0352   21.8682 O   0  0  0  0  0  0  0  0  0  0  0  0
    6.7202  -12.4459   25.0928 C   0  0  0  0  0  0  0  0  0  0  0  0
    6.0338  -11.8591   26.1391 C   0  0  0  0  0  0  0  0  0  0  0  0
    8.2250  -13.2313   18.6756 C   0  0  0  0  0  0  0  0  0  0  0  0
    8.7437  -14.2060   19.7041 C   0  0  2  0  0  0  0  0  0  0  0  0
    8.0425  -14.1318   20.9581 N   0  0  0  0  0  0  0  0  0  0  0  0
   10.2176  -14.1024   19.8845 C   0  0  0  0  0  0  0  0  0  0  0  0
   10.7072  -13.6353   20.9519 O   0  0  0  0  0  0  0  0  0  0  0  0
   11.1365  -14.5161   18.8836 N   0  0  0  0  0  0  0  0  0  0  0  0
   12.5610  -14.3230   18.9957 C   0  0  0  0  0  0  0  0  0  0  0  0
   13.3094  -15.5872   19.0446 C   0  0  0  0  0  0  0  0  0  0  0  0
   12.7729  -16.6154   19.5012 O   0  0  0  0  0  0  0  0  0  0  0  0
   14.6059  -15.6335   18.5847 O   0  0  0  0  0  0  0  0  0  0  0  0
  2  1  1  0
  2 12  2  0
  3  2  1  0
  4  3  2  0
  4  5  1  0
  5 11  2  0
  6  7  1  0
  6  5  1  0
  7  8  1  1
  9  7  1  0
  9 10  2  0
 11 12  1  0
 14 13  1  6
 14 15  1  0
 14 16  1  0
 15  9  1  0
 16 18  1  0
 17 16  2  0
 18 19  1  0
 19 20  1  0
 20 21  2  0
 20 22  1  0
M  END
$$$$
