YAG.pdb
     RDKit          3D

 22 22  0  0  1  0  0  0  0  0999 V2000
   10.2843  -14.2866   30.8314 O   0  0  0  0  0  0  0  0  0  0  0  0
   10.0122  -14.5495   29.4875 C   0  0  0  0  0  0  0  0  0  0  0  0
    9.2856  -13.6889   28.6906 C   0  0  0  0  0  0  0  0  0  0  0  0
    9.0231  -13.9601   27.3624 C   0  0  0  0  0  0  0  0  0  0  0  0
    9.4873  -15.1224   26.7771 C   0  0  0  0  0  0  0  0  0  0  0  0
    9.2304  -15.4578   25.3525 C   0  0  0  0  0  0  0  0  0  0  0  0
    7.7847  -15.8289   25.1136 C   0  0  2  0  0  0  0  0  0  0  0  0
    7.4422  -17.0458   25.7858 N   0  0  0  0  0  0  0  0  0  0  0  0
    7.6241  -15.9760   23.6321 C   0  0  0  0  0  0  0  0  0  0  0  0
    7.5582  -17.1297   23.1505 O   0  0  0  0  0  0  0  0  0  0  0  0
   10.2133  -15.9810   27.5756 C   0  0  0  0  0  0  0  0  0  0  0  0
   10.4767  -15.7104   28.9052 C   0  0  0  0  0  0  0  0  0  0  0  0
    6.7988  -13.6208   20.7779 C   0  0  0  0  0  0  0  0  0  0  0  0
    7.2563  -14.9308   21.3708 C   0  0  2  0  0  0  0  0  0  0  0  0
    7.5463  -14.8448   22.7772 N   0  0  0  0  0  0  0  0  0  0  0  0
    8.3836  -15.5311   20.6065 C   0  0  0  0  0  0  0  0  0  0  0  0
    8.2506  -15.8305   19.3858 O   0  0  0  0  0  0  0  0  0  0  0  0
    9.6475  -15.7949   21.1984 N   0  0  0  0  0  0  0  0  0  0  0  0
   10.7144  -16.4734   20.5050 C   0  0  0  0  0  0  0  0  0  0  0  0
   11.9728  -16.4905   21.2645 C   0  0  0  0  0  0  0  0  0  0  0  0
   12.0004  -16.9560   22.4204 O   0  0  0  0  0  0  0  0  0  0  0  0
   13.1223  -15.9907   20.6960 O   0  0  0  0  0  0  0  0  0  0  0  0
  2  1  1  0
  2 12  2  0
  3  2  1  0
  4  3  2  0
  4  5  1  0
  5 11  2  0
  6  7  1  0
  6  5  1  0
  7  8  1  1
  9  7  1  0
  9 10  2  0
 11 12  1  0
 14 13  1  6
 14 15  1  0
 14 16  1  0
 15  9  1  0
 16 18  1  0
 17 16  2  0
 18 19  1  0
 19 20  1  0
 20 21  2  0
 20 22  1  0
M  END
$$$$
