YAG.pdb
     RDKit          3D

 22 22  0  0  1  0  0  0  0  0999 V2000
    5.9252  -10.9579   28.4917 O   0  0  0  0  0  0  0  0  0  0  0  0
    6.3323  -11.8963   27.5415 C   0  0  0  0  0  0  0  0  0  0  0  0
    7.5679  -12.5091   27.5791 C   0  0  0  0  0  0  0  0  0  0  0  0
    7.9592  -13.4359   26.6333 C   0  0  0  0  0  0  0  0  0  0  0  0
    7.1117  -13.7865   25.6000 C   0  0  0  0  0  0  0  0  0  0  0  0
    7.4879  -14.7781   24.5592 C   0  0  0  0  0  0  0  0  0  0  0  0
    6.4336  -15.8488   24.3946 C   0  0  2  0  0  0  0  0  0  0  0  0
    6.3814  -16.7075   25.5391 N   0  0  0  0  0  0  0  0  0  0  0  0
    6.8021  -16.6212   23.1660 C   0  0  0  0  0  0  0  0  0  0  0  0
    5.9732  -17.4375   22.7032 O   0  0  0  0  0  0  0  0  0  0  0  0
    5.8772  -13.1727   25.5645 C   0  0  0  0  0  0  0  0  0  0  0  0
    5.4847  -12.2449   26.5107 C   0  0  0  0  0  0  0  0  0  0  0  0
    7.7462  -14.2828   21.3959 C   0  0  0  0  0  0  0  0  0  0  0  0
    8.2299  -15.7091   21.3030 C   0  0  2  0  0  0  0  0  0  0  0  0
    8.0579  -16.4457   22.5267 N   0  0  0  0  0  0  0  0  0  0  0  0
    9.6251  -15.7981   20.7922 C   0  0  0  0  0  0  0  0  0  0  0  0
    9.9826  -15.1454   19.7706 O   0  0  0  0  0  0  0  0  0  0  0  0
   10.6121  -16.6075   21.4151 N   0  0  0  0  0  0  0  0  0  0  0  0
   11.7208  -16.0629   22.1591 C   0  0  0  0  0  0  0  0  0  0  0  0
   12.9879  -16.1069   21.4153 C   0  0  0  0  0  0  0  0  0  0  0  0
   13.0118  -16.5304   20.2433 O   0  0  0  0  0  0  0  0  0  0  0  0
   14.1497  -15.6788   22.0165 O   0  0  0  0  0  0  0  0  0  0  0  0
  2  1  1  0
  2 12  2  0
  3  2  1  0
  4  3  2  0
  4  5  1  0
  5 11  2  0
  6  7  1  0
  6  5  1  0
  7  8  1  1
  9  7  1  0
  9 10  2  0
 11 12  1  0
 14 13  1  1
 14 15  1  0
 14 16  1  0
 15  9  1  0
 16 18  1  0
 17 16  2  0
 18 19  1  0
 19 20  1  0
 20 21  2  0
 20 22  1  0
M  END
$$$$
