YAG.pdb
     RDKit          3D

 22 22  0  0  1  0  0  0  0  0999 V2000
    5.6223  -10.7644   26.9768 O   0  0  0  0  0  0  0  0  0  0  0  0
    6.3488  -11.8240   26.4302 C   0  0  0  0  0  0  0  0  0  0  0  0
    7.2402  -11.6599   25.3900 C   0  0  0  0  0  0  0  0  0  0  0  0
    7.9532  -12.7159   24.8578 C   0  0  0  0  0  0  0  0  0  0  0  0
    7.7948  -13.9941   25.3579 C   0  0  0  0  0  0  0  0  0  0  0  0
    8.5393  -15.1614   24.8184 C   0  0  0  0  0  0  0  0  0  0  0  0
    7.6627  -16.0363   23.9517 C   0  0  2  0  0  0  0  0  0  0  0  0
    6.7546  -16.8095   24.7437 N   0  0  0  0  0  0  0  0  0  0  0  0
    8.5852  -16.9267   23.1782 C   0  0  0  0  0  0  0  0  0  0  0  0
    8.7934  -18.0852   23.6046 O   0  0  0  0  0  0  0  0  0  0  0  0
    6.9033  -14.1556   26.3977 C   0  0  0  0  0  0  0  0  0  0  0  0
    6.1892  -13.0992   26.9311 C   0  0  0  0  0  0  0  0  0  0  0  0
   10.2015  -16.8539   19.7612 C   0  0  0  0  0  0  0  0  0  0  0  0
   10.0855  -17.3149   21.1933 C   0  0  2  0  0  0  0  0  0  0  0  0
    9.2184  -16.4849   21.9864 N   0  0  0  0  0  0  0  0  0  0  0  0
   11.4160  -17.5007   21.8341 C   0  0  0  0  0  0  0  0  0  0  0  0
   12.2501  -18.3263   21.3651 O   0  0  0  0  0  0  0  0  0  0  0  0
   11.8121  -16.7725   22.9874 N   0  0  0  0  0  0  0  0  0  0  0  0
   13.0440  -17.0259   23.6928 C   0  0  0  0  0  0  0  0  0  0  0  0
   14.2026  -16.3583   23.0826 C   0  0  0  0  0  0  0  0  0  0  0  0
   14.1254  -15.9040   21.9245 O   0  0  0  0  0  0  0  0  0  0  0  0
   15.3748  -16.2356   23.7936 O   0  0  0  0  0  0  0  0  0  0  0  0
  2  1  1  0
  2 12  2  0
  3  2  1  0
  4  3  2  0
  4  5  1  0
  5 11  2  0
  6  7  1  0
  6  5  1  0
  7  8  1  1
  9  7  1  0
  9 10  2  0
 11 12  1  0
 14 13  1  6
 14 15  1  0
 14 16  1  0
 15  9  1  0
 16 18  1  0
 17 16  2  0
 18 19  1  0
 19 20  1  0
 20 21  2  0
 20 22  1  0
M  END
$$$$
