YAG.pdb
     RDKit          3D

 22 22  0  0  1  0  0  0  0  0999 V2000
   11.7460  -11.6887    7.2515 O   0  0  0  0  0  0  0  0  0  0  0  0
   11.1771  -12.4025    8.3078 C   0  0  0  0  0  0  0  0  0  0  0  0
   10.2563  -11.8484    9.1731 C   0  0  0  0  0  0  0  0  0  0  0  0
    9.7005  -12.5649   10.2144 C   0  0  0  0  0  0  0  0  0  0  0  0
   10.0540  -13.8833   10.4282 C   0  0  0  0  0  0  0  0  0  0  0  0
    9.4834  -14.6945   11.5347 C   0  0  0  0  0  0  0  0  0  0  0  0
    8.4803  -15.7069   11.0310 C   0  0  2  0  0  0  0  0  0  0  0  0
    7.2828  -15.0692   10.5733 N   0  0  0  0  0  0  0  0  0  0  0  0
    8.1898  -16.6232   12.1790 C   0  0  0  0  0  0  0  0  0  0  0  0
    7.2824  -16.3060   12.9811 O   0  0  0  0  0  0  0  0  0  0  0  0
   10.9745  -14.4350    9.5620 C   0  0  0  0  0  0  0  0  0  0  0  0
   11.5314  -13.7187    8.5194 C   0  0  0  0  0  0  0  0  0  0  0  0
    8.0861  -20.0601   12.9905 C   0  0  0  0  0  0  0  0  0  0  0  0
    8.6646  -18.7445   13.4504 C   0  0  2  0  0  0  0  0  0  0  0  0
    8.9161  -17.8285   12.3700 N   0  0  0  0  0  0  0  0  0  0  0  0
    9.8629  -18.9279   14.3140 C   0  0  0  0  0  0  0  0  0  0  0  0
    9.8035  -19.6325   15.3614 O   0  0  0  0  0  0  0  0  0  0  0  0
   11.1157  -18.3308   14.0118 N   0  0  0  0  0  0  0  0  0  0  0  0
   11.7532  -17.3632   14.8701 C   0  0  0  0  0  0  0  0  0  0  0  0
   12.3479  -17.9657   16.0718 C   0  0  0  0  0  0  0  0  0  0  0  0
   11.6600  -18.6943   16.8131 O   0  0  0  0  0  0  0  0  0  0  0  0
   13.6679  -17.7235   16.3774 O   0  0  0  0  0  0  0  0  0  0  0  0
  2  1  1  0
  2 12  2  0
  3  2  1  0
  4  3  2  0
  4  5  1  0
  5 11  2  0
  6  7  1  0
  6  5  1  0
  7  8  1  1
  9  7  1  0
  9 10  2  0
 11 12  1  0
 14 13  1  6
 14 15  1  0
 14 16  1  0
 15  9  1  0
 16 18  1  0
 17 16  2  0
 18 19  1  0
 19 20  1  0
 20 21  2  0
 20 22  1  0
M  END
$$$$
