YAG.pdb
     RDKit          3D

 22 22  0  0  1  0  0  0  0  0999 V2000
    5.5577  -10.4084   27.6544 O   0  0  0  0  0  0  0  0  0  0  0  0
    6.0879  -11.4942   26.9550 C   0  0  0  0  0  0  0  0  0  0  0  0
    6.3962  -11.4382   25.6114 C   0  0  0  0  0  0  0  0  0  0  0  0
    6.9203  -12.5191   24.9306 C   0  0  0  0  0  0  0  0  0  0  0  0
    7.1575  -13.7134   25.5835 C   0  0  0  0  0  0  0  0  0  0  0  0
    7.7199  -14.9034   24.8939 C   0  0  0  0  0  0  0  0  0  0  0  0
    6.6663  -15.9574   24.6409 C   0  0  2  0  0  0  0  0  0  0  0  0
    6.4206  -16.7394   25.8149 N   0  0  0  0  0  0  0  0  0  0  0  0
    7.1839  -16.8157   23.5285 C   0  0  0  0  0  0  0  0  0  0  0  0
    6.5544  -17.8577   23.2361 O   0  0  0  0  0  0  0  0  0  0  0  0
    6.8485  -13.7670   26.9265 C   0  0  0  0  0  0  0  0  0  0  0  0
    6.3239  -12.6856   27.6089 C   0  0  0  0  0  0  0  0  0  0  0  0
    7.4517  -14.8132   21.2365 C   0  0  0  0  0  0  0  0  0  0  0  0
    8.3514  -16.0057   21.4495 C   0  0  2  0  0  0  0  0  0  0  0  0
    8.3599  -16.4722   22.8104 N   0  0  0  0  0  0  0  0  0  0  0  0
    9.7279  -15.7714   20.9338 C   0  0  0  0  0  0  0  0  0  0  0  0
    9.9174  -15.4081   19.7383 O   0  0  0  0  0  0  0  0  0  0  0  0
   10.8819  -15.9407   21.7443 N   0  0  0  0  0  0  0  0  0  0  0  0
   12.2222  -15.7211   21.2598 C   0  0  0  0  0  0  0  0  0  0  0  0
   12.8474  -16.9408   20.7286 C   0  0  0  0  0  0  0  0  0  0  0  0
   12.1741  -17.9805   20.5904 O   0  0  0  0  0  0  0  0  0  0  0  0
   14.1799  -16.9325   20.3836 O   0  0  0  0  0  0  0  0  0  0  0  0
  2  1  1  0
  2 12  2  0
  3  2  1  0
  4  3  2  0
  4  5  1  0
  5 11  2  0
  6  7  1  0
  6  5  1  0
  7  8  1  1
  9  7  1  0
  9 10  2  0
 11 12  1  0
 14 13  1  1
 14 15  1  0
 14 16  1  0
 15  9  1  0
 16 18  1  0
 17 16  2  0
 18 19  1  0
 19 20  1  0
 20 21  2  0
 20 22  1  0
M  END
$$$$
