KRN.pdb
     RDKit          3D

 29 28  0  0  1  0  0  0  0  0999 V2000
   11.2266  -22.8624   21.6830 N   0  0  0  0  0  0  0  0  0  0  0  0
   11.9216  -23.6359   22.6868 C   0  0  1  0  0  0  0  0  0  0  0  0
   13.3904  -23.4429   22.4895 C   0  0  0  0  0  0  0  0  0  0  0  0
   13.7731  -24.1586   21.2107 C   0  0  0  0  0  0  0  0  0  0  0  0
   15.2358  -24.0150   20.8780 C   0  0  0  0  0  0  0  0  0  0  0  0
   15.5173  -24.7624   19.5965 C   0  0  0  0  0  0  0  0  0  0  0  0
   16.8974  -24.6019   19.1806 N   0  0  0  0  0  0  0  0  0  0  0  0
   11.4463  -23.3483   24.0615 C   0  0  0  0  0  0  0  0  0  0  0  0
   11.7128  -22.2135   24.5293 O   0  0  0  0  0  0  0  0  0  0  0  0
   10.4402  -25.6560   31.1422 N   0  0  0  0  0  0  0  0  0  0  0  0
    9.0335  -25.8317   31.3440 C   0  0  0  0  0  0  0  0  0  0  0  0
    8.5759  -26.1298   32.5159 N   0  0  0  0  0  0  0  0  0  0  0  0
    8.0993  -25.6883   30.2925 N   0  0  0  0  0  0  0  0  0  0  0  0
    8.3970  -25.9390   28.9003 C   0  0  0  0  0  0  0  0  0  0  0  0
    9.1454  -24.7855   28.2680 C   0  0  0  0  0  0  0  0  0  0  0  0
    9.5220  -25.0624   26.8466 C   0  0  0  0  0  0  0  0  0  0  0  0
   10.2783  -23.9712   26.1596 C   0  0  2  0  0  0  0  0  0  0  0  0
   10.7246  -24.2897   24.8346 N   0  0  0  0  0  0  0  0  0  0  0  0
   11.4756  -23.6534   27.0220 C   0  0  0  0  0  0  0  0  0  0  0  0
   12.2562  -24.5688   27.2985 O   0  0  0  0  0  0  0  0  0  0  0  0
    7.5644  -26.2901   32.6255 N   0  0  0  0  0  0  0  0  0  0  0  0
   13.8546  -19.6100   25.7434 C   0  0  0  0  0  0  0  0  0  0  0  0
   14.0453  -20.6053   26.7164 O   0  0  0  0  0  0  0  0  0  0  0  0
   14.8478  -21.5603   26.4343 C   0  0  0  0  0  0  0  0  0  0  0  0
   13.4098  -20.6612   28.0393 C   0  0  2  0  0  0  0  0  0  0  0  0
   12.8050  -21.9917   28.3687 N   0  0  0  0  0  0  0  0  0  0  0  0
   11.7085  -22.3461   27.5065 C   0  0  0  0  0  0  0  0  0  0  0  0
   12.4631  -22.1359   29.8027 O   0  0  0  0  0  0  0  0  0  0  0  0
   11.2880  -22.3618   30.1376 O   0  0  0  0  0  0  0  0  0  0  0  0
  2  1  1  6
  3  2  1  0
  3  4  1  0
  4  5  1  0
  6  5  1  0
  7  6  1  0
  8  9  2  0
  8  2  1  0
 10 11  1  0
 11 12  2  0
 13 14  1  0
 13 11  1  0
 15 14  1  0
 15 16  1  0
 17 16  1  1
 17 18  1  0
 18  8  1  0
 19 17  1  0
 19 26  1  0
 20 19  2  0
 21 22  1  0
 22 24  1  0
 23 22  2  0
 25 24  1  6
 25 26  1  0
 25 27  1  0
 27 28  2  0
 27 29  1  0
M  END
$$$$
