KRN.pdb
     RDKit          3D

 29 28  0  0  1  0  0  0  0  0999 V2000
    8.3435  -20.7590   18.2703 N   0  0  0  0  0  0  0  0  0  0  0  0
    9.2989  -19.6745   18.2749 C   0  0  1  0  0  0  0  0  0  0  0  0
    9.2123  -18.9715   16.9589 C   0  0  0  0  0  0  0  0  0  0  0  0
    9.4769  -19.9996   15.8785 C   0  0  0  0  0  0  0  0  0  0  0  0
    9.4447  -19.4095   14.4923 C   0  0  0  0  0  0  0  0  0  0  0  0
    9.6834  -20.5131   13.4897 C   0  0  0  0  0  0  0  0  0  0  0  0
    9.7588  -19.9946   12.1374 N   0  0  0  0  0  0  0  0  0  0  0  0
    9.1512  -18.7867   19.4532 C   0  0  0  0  0  0  0  0  0  0  0  0
    9.8859  -17.7687   19.4934 O   0  0  0  0  0  0  0  0  0  0  0  0
    1.8984  -20.4532   23.1519 N   0  0  0  0  0  0  0  0  0  0  0  0
    2.0447  -19.8676   21.8534 C   0  0  0  0  0  0  0  0  0  0  0  0
    1.0391  -19.8228   21.0421 N   0  0  0  0  0  0  0  0  0  0  0  0
    3.2704  -19.3209   21.4089 N   0  0  0  0  0  0  0  0  0  0  0  0
    4.4615  -19.2262   22.2226 C   0  0  0  0  0  0  0  0  0  0  0  0
    5.5112  -18.3429   21.5836 C   0  0  0  0  0  0  0  0  0  0  0  0
    6.7884  -18.3221   22.3629 C   0  0  0  0  0  0  0  0  0  0  0  0
    8.0278  -18.1026   21.5565 C   0  0  2  0  0  0  0  0  0  0  0  0
    8.2342  -19.0493   20.4995 N   0  0  0  0  0  0  0  0  0  0  0  0
    9.1937  -18.1668   22.5130 C   0  0  0  0  0  0  0  0  0  0  0  0
    9.5764  -19.2767   22.8943 O   0  0  0  0  0  0  0  0  0  0  0  0
    1.1837  -19.4421   20.0961 N   0  0  0  0  0  0  0  0  0  0  0  0
   13.7108  -17.7433   24.2398 C   0  0  0  0  0  0  0  0  0  0  0  0
   13.3273  -16.4899   23.7344 O   0  0  0  0  0  0  0  0  0  0  0  0
   14.2518  -15.7218   23.2974 C   0  0  0  0  0  0  0  0  0  0  0  0
   11.9574  -15.9661   23.6557 C   0  0  2  0  0  0  0  0  0  0  0  0
   10.8981  -16.9859   23.9423 N   0  0  0  0  0  0  0  0  0  0  0  0
    9.8394  -16.9943   22.9674 C   0  0  0  0  0  0  0  0  0  0  0  0
   10.3850  -16.9170   25.3301 O   0  0  0  0  0  0  0  0  0  0  0  0
    9.3971  -16.2091   25.5887 O   0  0  0  0  0  0  0  0  0  0  0  0
  2  1  1  6
  3  2  1  0
  3  4  1  0
  4  5  1  0
  6  5  1  0
  7  6  1  0
  8  9  2  0
  8  2  1  0
 10 11  1  0
 11 12  2  0
 13 14  1  0
 13 11  1  0
 15 14  1  0
 15 16  1  0
 17 16  1  1
 17 18  1  0
 18  8  1  0
 19 17  1  0
 19 26  1  0
 20 19  2  0
 21 22  1  0
 22 24  1  0
 23 22  2  0
 25 24  1  6
 25 26  1  0
 25 27  1  0
 27 28  2  0
 27 29  1  0
M  END
$$$$
