KRN.pdb
     RDKit          3D

 29 28  0  0  1  0  0  0  0  0999 V2000
    9.4720  -19.4067   19.1513 N   0  0  0  0  0  0  0  0  0  0  0  0
   10.8354  -19.1056   19.5244 C   0  0  1  0  0  0  0  0  0  0  0  0
   11.7060  -19.3307   18.3307 C   0  0  0  0  0  0  0  0  0  0  0  0
   11.7815  -20.8259   18.1012 C   0  0  0  0  0  0  0  0  0  0  0  0
   13.1786  -21.3691   18.2552 C   0  0  0  0  0  0  0  0  0  0  0  0
   13.1685  -22.8388   17.9086 C   0  0  0  0  0  0  0  0  0  0  0  0
   14.4632  -23.4486   18.1435 N   0  0  0  0  0  0  0  0  0  0  0  0
   10.9773  -17.7643   20.1404 C   0  0  0  0  0  0  0  0  0  0  0  0
   11.9705  -17.0801   19.7899 O   0  0  0  0  0  0  0  0  0  0  0  0
    8.7307  -11.8444   19.8335 N   0  0  0  0  0  0  0  0  0  0  0  0
    7.8100  -12.7053   19.1541 C   0  0  0  0  0  0  0  0  0  0  0  0
    7.8218  -12.7828   17.8636 N   0  0  0  0  0  0  0  0  0  0  0  0
    6.8662  -13.4956   19.8496 N   0  0  0  0  0  0  0  0  0  0  0  0
    7.0811  -14.0462   21.1689 C   0  0  0  0  0  0  0  0  0  0  0  0
    7.9377  -15.2931   21.1259 C   0  0  0  0  0  0  0  0  0  0  0  0
    9.0483  -15.2554   22.1279 C   0  0  0  0  0  0  0  0  0  0  0  0
   10.2851  -16.0012   21.7424 C   0  0  2  0  0  0  0  0  0  0  0  0
   10.0526  -17.2531   21.0830 N   0  0  0  0  0  0  0  0  0  0  0  0
   11.0654  -16.2474   23.0108 C   0  0  0  0  0  0  0  0  0  0  0  0
   10.4525  -16.6437   24.0064 O   0  0  0  0  0  0  0  0  0  0  0  0
    7.0728  -13.3107   17.3932 N   0  0  0  0  0  0  0  0  0  0  0  0
   13.9931  -18.9903   26.2562 C   0  0  0  0  0  0  0  0  0  0  0  0
   13.9871  -18.9818   24.8513 O   0  0  0  0  0  0  0  0  0  0  0  0
   14.8614  -19.6983   24.2531 C   0  0  0  0  0  0  0  0  0  0  0  0
   13.0687  -18.2254   23.9902 C   0  0  1  0  0  0  0  0  0  0  0  0
   13.3483  -16.7542   23.9455 N   0  0  0  0  0  0  0  0  0  0  0  0
   12.4615  -16.0340   23.0702 C   0  0  0  0  0  0  0  0  0  0  0  0
   14.7725  -16.4408   23.6861 O   0  0  0  0  0  0  0  0  0  0  0  0
   15.1248  -16.0567   22.5581 O   0  0  0  0  0  0  0  0  0  0  0  0
  2  1  1  6
  3  2  1  0
  3  4  1  0
  4  5  1  0
  6  5  1  0
  7  6  1  0
  8  9  2  0
  8  2  1  0
 10 11  1  0
 11 12  2  0
 13 14  1  0
 13 11  1  0
 15 14  1  0
 15 16  1  0
 17 16  1  1
 17 18  1  0
 18  8  1  0
 19 17  1  0
 19 26  1  0
 20 19  2  0
 21 22  1  0
 22 24  1  0
 23 22  2  0
 25 24  1  1
 25 26  1  0
 25 27  1  0
 27 28  2  0
 27 29  1  0
M  END
$$$$
