KRN.pdb
     RDKit          3D

 29 28  0  0  1  0  0  0  0  0999 V2000
    8.5089  -15.9504   17.0034 N   0  0  0  0  0  0  0  0  0  0  0  0
    9.1412  -14.6981   17.3511 C   0  0  1  0  0  0  0  0  0  0  0  0
    8.4331  -13.6009   16.6243 C   0  0  0  0  0  0  0  0  0  0  0  0
    8.0277  -14.1435   15.2696 C   0  0  0  0  0  0  0  0  0  0  0  0
    7.4143  -13.0926   14.3808 C   0  0  0  0  0  0  0  0  0  0  0  0
    7.0224  -13.7336   13.0710 C   0  0  0  0  0  0  0  0  0  0  0  0
    6.2961  -12.8079   12.2232 N   0  0  0  0  0  0  0  0  0  0  0  0
    9.2420  -14.4953   18.8164 C   0  0  0  0  0  0  0  0  0  0  0  0
    9.8383  -13.4613   19.2074 O   0  0  0  0  0  0  0  0  0  0  0  0
    5.3054  -19.3373   22.1037 N   0  0  0  0  0  0  0  0  0  0  0  0
    4.3716  -18.6081   21.2996 C   0  0  0  0  0  0  0  0  0  0  0  0
    3.2270  -19.1280   20.9976 N   0  0  0  0  0  0  0  0  0  0  0  0
    4.6520  -17.3115   20.8107 N   0  0  0  0  0  0  0  0  0  0  0  0
    5.2936  -16.2720   21.5836 C   0  0  0  0  0  0  0  0  0  0  0  0
    6.7754  -16.5290   21.7524 C   0  0  0  0  0  0  0  0  0  0  0  0
    7.5550  -15.2650   21.9353 C   0  0  0  0  0  0  0  0  0  0  0  0
    8.8333  -15.1830   21.1646 C   0  0  2  0  0  0  0  0  0  0  0  0
    8.7018  -15.4079   19.7546 N   0  0  0  0  0  0  0  0  0  0  0  0
    9.7663  -16.2173   21.7459 C   0  0  0  0  0  0  0  0  0  0  0  0
    9.6713  -17.3810   21.3452 O   0  0  0  0  0  0  0  0  0  0  0  0
    2.5905  -18.5996   20.3840 N   0  0  0  0  0  0  0  0  0  0  0  0
   12.9589  -14.3965   20.2938 C   0  0  0  0  0  0  0  0  0  0  0  0
   13.4226  -15.3142   21.2512 O   0  0  0  0  0  0  0  0  0  0  0  0
   14.4969  -15.0195   21.8794 C   0  0  0  0  0  0  0  0  0  0  0  0
   12.7919  -16.5917   21.6081 C   0  0  1  0  0  0  0  0  0  0  0  0
   11.9936  -16.5439   22.8749 N   0  0  0  0  0  0  0  0  0  0  0  0
   10.7281  -15.8754   22.7237 C   0  0  0  0  0  0  0  0  0  0  0  0
   12.7664  -16.0318   24.0301 O   0  0  0  0  0  0  0  0  0  0  0  0
   12.4123  -14.9825   24.5936 O   0  0  0  0  0  0  0  0  0  0  0  0
  2  1  1  1
  3  2  1  0
  3  4  1  0
  4  5  1  0
  6  5  1  0
  7  6  1  0
  8  9  2  0
  8  2  1  0
 10 11  1  0
 11 12  2  0
 13 14  1  0
 13 11  1  0
 15 14  1  0
 15 16  1  0
 17 16  1  1
 17 18  1  0
 18  8  1  0
 19 17  1  0
 19 26  1  0
 20 19  2  0
 21 22  1  0
 22 24  1  0
 23 22  2  0
 25 24  1  6
 25 26  1  0
 25 27  1  0
 27 28  2  0
 27 29  1  0
M  END
$$$$
