KRN.pdb
     RDKit          3D

 29 28  0  0  1  0  0  0  0  0999 V2000
   11.5527  -19.3024   15.3441 N   0  0  0  0  0  0  0  0  0  0  0  0
   10.9852  -19.6611   16.6240 C   0  0  1  0  0  0  0  0  0  0  0  0
   11.6870  -20.8843   17.1187 C   0  0  0  0  0  0  0  0  0  0  0  0
   11.5523  -21.9474   16.0483 C   0  0  0  0  0  0  0  0  0  0  0  0
   12.1803  -23.2580   16.4465 C   0  0  0  0  0  0  0  0  0  0  0  0
   11.3368  -23.8917   17.5267 C   0  0  0  0  0  0  0  0  0  0  0  0
   11.9502  -25.1025   18.0375 N   0  0  0  0  0  0  0  0  0  0  0  0
   10.9771  -18.5306   17.5834 C   0  0  0  0  0  0  0  0  0  0  0  0
   11.9916  -17.7902   17.5978 O   0  0  0  0  0  0  0  0  0  0  0  0
    8.1850  -12.3317   20.2215 N   0  0  0  0  0  0  0  0  0  0  0  0
    7.7299  -12.6346   21.5449 C   0  0  0  0  0  0  0  0  0  0  0  0
    7.8625  -11.7667   22.4940 N   0  0  0  0  0  0  0  0  0  0  0  0
    7.1250  -13.8712   21.8674 N   0  0  0  0  0  0  0  0  0  0  0  0
    7.1226  -15.0265   20.9985 C   0  0  0  0  0  0  0  0  0  0  0  0
    8.5237  -15.4260   20.5889 C   0  0  0  0  0  0  0  0  0  0  0  0
    8.5387  -16.6565   19.7378 C   0  0  0  0  0  0  0  0  0  0  0  0
    9.8937  -17.1323   19.3226 C   0  0  2  0  0  0  0  0  0  0  0  0
    9.8913  -18.2741   18.4552 N   0  0  0  0  0  0  0  0  0  0  0  0
   10.6483  -17.4714   20.5850 C   0  0  0  0  0  0  0  0  0  0  0  0
   10.3789  -18.5297   21.1606 O   0  0  0  0  0  0  0  0  0  0  0  0
    7.5194  -12.0068   23.4349 N   0  0  0  0  0  0  0  0  0  0  0  0
   14.2707  -17.3098   24.5034 C   0  0  0  0  0  0  0  0  0  0  0  0
   14.4887  -16.3008   23.5505 O   0  0  0  0  0  0  0  0  0  0  0  0
   15.5304  -15.5722   23.6902 C   0  0  0  0  0  0  0  0  0  0  0  0
   13.6324  -15.9943   22.3972 C   0  0  2  0  0  0  0  0  0  0  0  0
   12.4737  -16.9297   22.2333 N   0  0  0  0  0  0  0  0  0  0  0  0
   11.6400  -16.6087   21.1049 C   0  0  0  0  0  0  0  0  0  0  0  0
   11.6915  -17.1101   23.4780 O   0  0  0  0  0  0  0  0  0  0  0  0
   10.8720  -16.2423   23.8235 O   0  0  0  0  0  0  0  0  0  0  0  0
  2  1  1  6
  3  2  1  0
  3  4  1  0
  4  5  1  0
  6  5  1  0
  7  6  1  0
  8  9  2  0
  8  2  1  0
 10 11  1  0
 11 12  2  0
 13 14  1  0
 13 11  1  0
 15 14  1  0
 15 16  1  0
 17 16  1  1
 17 18  1  0
 18  8  1  0
 19 17  1  0
 19 26  1  0
 20 19  2  0
 21 22  1  0
 22 24  1  0
 23 22  2  0
 25 24  1  6
 25 26  1  0
 25 27  1  0
 27 28  2  0
 27 29  1  0
M  END
$$$$
