KRN.pdb
     RDKit          3D

 29 28  0  0  1  0  0  0  0  0999 V2000
    7.2834  -21.9389   16.1344 N   0  0  0  0  0  0  0  0  0  0  0  0
    7.5455  -21.9214   17.5556 C   0  0  1  0  0  0  0  0  0  0  0  0
    7.8196  -23.3229   17.9963 C   0  0  0  0  0  0  0  0  0  0  0  0
    6.5225  -24.0961   17.8784 C   0  0  0  0  0  0  0  0  0  0  0  0
    6.6457  -25.5178   18.3625 C   0  0  0  0  0  0  0  0  0  0  0  0
    5.2778  -26.1570   18.3428 C   0  0  0  0  0  0  0  0  0  0  0  0
    5.3552  -27.5844   18.5878 N   0  0  0  0  0  0  0  0  0  0  0  0
    8.5967  -20.9456   17.9318 C   0  0  0  0  0  0  0  0  0  0  0  0
    9.7736  -21.2170   17.5872 O   0  0  0  0  0  0  0  0  0  0  0  0
    8.2289  -14.0264   20.6879 N   0  0  0  0  0  0  0  0  0  0  0  0
    8.0502  -13.5294   19.3569 C   0  0  0  0  0  0  0  0  0  0  0  0
    8.2309  -12.2751   19.1002 N   0  0  0  0  0  0  0  0  0  0  0  0
    7.6774  -14.3709   18.2837 N   0  0  0  0  0  0  0  0  0  0  0  0
    7.4645  -15.7957   18.4035 C   0  0  0  0  0  0  0  0  0  0  0  0
    8.7628  -16.5684   18.3149 C   0  0  0  0  0  0  0  0  0  0  0  0
    8.9427  -17.5122   19.4620 C   0  0  0  0  0  0  0  0  0  0  0  0
    9.3731  -18.8954   19.0927 C   0  0  2  0  0  0  0  0  0  0  0  0
    8.3164  -19.7560   18.6466 N   0  0  0  0  0  0  0  0  0  0  0  0
   10.0189  -19.4981   20.3165 C   0  0  0  0  0  0  0  0  0  0  0  0
    9.3393  -20.2421   21.0296 O   0  0  0  0  0  0  0  0  0  0  0  0
    8.0233  -11.9296   18.1524 N   0  0  0  0  0  0  0  0  0  0  0  0
   12.5813  -23.4346   20.5907 C   0  0  0  0  0  0  0  0  0  0  0  0
   12.5400  -22.0393   20.7486 O   0  0  0  0  0  0  0  0  0  0  0  0
   13.1263  -21.3274   19.8625 C   0  0  0  0  0  0  0  0  0  0  0  0
   11.8846  -21.3067   21.8399 C   0  0  1  0  0  0  0  0  0  0  0  0
   12.0546  -19.8202   21.7638 N   0  0  0  0  0  0  0  0  0  0  0  0
   11.3658  -19.2262   20.6484 C   0  0  0  0  0  0  0  0  0  0  0  0
   13.4703  -19.3920   21.8440 O   0  0  0  0  0  0  0  0  0  0  0  0
   14.1668  -19.7401   22.8124 O   0  0  0  0  0  0  0  0  0  0  0  0
  2  1  1  6
  3  2  1  0
  3  4  1  0
  4  5  1  0
  6  5  1  0
  7  6  1  0
  8  9  2  0
  8  2  1  0
 10 11  1  0
 11 12  2  0
 13 14  1  0
 13 11  1  0
 15 14  1  0
 15 16  1  0
 17 16  1  1
 17 18  1  0
 18  8  1  0
 19 17  1  0
 19 26  1  0
 20 19  2  0
 21 22  1  0
 22 24  1  0
 23 22  2  0
 25 24  1  1
 25 26  1  0
 25 27  1  0
 27 28  2  0
 27 29  1  0
M  END
$$$$
