KRN.pdb
     RDKit          3D

 29 28  0  0  1  0  0  0  0  0999 V2000
    6.7605  -17.7100   14.1739 N   0  0  0  0  0  0  0  0  0  0  0  0
    7.9396  -17.0106   14.6316 C   0  0  1  0  0  0  0  0  0  0  0  0
    7.8446  -15.5900   14.1771 C   0  0  0  0  0  0  0  0  0  0  0  0
    7.8797  -15.5961   12.6629 C   0  0  0  0  0  0  0  0  0  0  0  0
    7.7439  -14.2168   12.0715 C   0  0  0  0  0  0  0  0  0  0  0  0
    7.6601  -14.3395   10.5688 C   0  0  0  0  0  0  0  0  0  0  0  0
    7.7471  -13.0431    9.9246 N   0  0  0  0  0  0  0  0  0  0  0  0
    8.1723  -17.1726   16.0870 C   0  0  0  0  0  0  0  0  0  0  0  0
    7.1554  -17.2740   16.8173 O   0  0  0  0  0  0  0  0  0  0  0  0
   14.5874  -21.1263   21.1635 N   0  0  0  0  0  0  0  0  0  0  0  0
   13.3477  -20.9339   21.8538 C   0  0  0  0  0  0  0  0  0  0  0  0
   13.1098  -21.5691   22.9545 N   0  0  0  0  0  0  0  0  0  0  0  0
   12.3481  -20.0568   21.3740 N   0  0  0  0  0  0  0  0  0  0  0  0
   12.2471  -19.6114   20.0024 C   0  0  0  0  0  0  0  0  0  0  0  0
   11.0212  -18.7526   19.7782 C   0  0  0  0  0  0  0  0  0  0  0  0
   10.8565  -18.3593   18.3440 C   0  0  0  0  0  0  0  0  0  0  0  0
    9.6578  -17.5183   18.0434 C   0  0  2  0  0  0  0  0  0  0  0  0
    9.4685  -17.2136   16.6551 N   0  0  0  0  0  0  0  0  0  0  0  0
    9.8171  -16.2310   18.8153 C   0  0  0  0  0  0  0  0  0  0  0  0
   10.0272  -15.1922   18.1824 O   0  0  0  0  0  0  0  0  0  0  0  0
   12.2205  -21.3943   23.4438 N   0  0  0  0  0  0  0  0  0  0  0  0
    6.9663  -12.3046   19.7432 C   0  0  0  0  0  0  0  0  0  0  0  0
    7.9863  -13.2687   19.8052 O   0  0  0  0  0  0  0  0  0  0  0  0
    9.0991  -12.9878   19.2410 C   0  0  0  0  0  0  0  0  0  0  0  0
    7.9037  -14.5810   20.4596 C   0  0  2  0  0  0  0  0  0  0  0  0
    9.2154  -15.0872   20.9768 N   0  0  0  0  0  0  0  0  0  0  0  0
    9.7298  -16.2020   20.2259 C   0  0  0  0  0  0  0  0  0  0  0  0
    9.2040  -15.3478   22.4349 O   0  0  0  0  0  0  0  0  0  0  0  0
    9.0765  -14.4018   23.2302 O   0  0  0  0  0  0  0  0  0  0  0  0
  2  1  1  1
  3  2  1  0
  3  4  1  0
  4  5  1  0
  6  5  1  0
  7  6  1  0
  8  9  2  0
  8  2  1  0
 10 11  1  0
 11 12  2  0
 13 14  1  0
 13 11  1  0
 15 14  1  0
 15 16  1  0
 17 16  1  6
 17 18  1  0
 18  8  1  0
 19 17  1  0
 19 26  1  0
 20 19  2  0
 21 22  1  0
 22 24  1  0
 23 22  2  0
 25 24  1  6
 25 26  1  0
 25 27  1  0
 27 28  2  0
 27 29  1  0
M  END
$$$$
