KRN.pdb
     RDKit          3D

 29 28  0  0  1  0  0  0  0  0999 V2000
    6.7932  -16.3781   20.6921 N   0  0  0  0  0  0  0  0  0  0  0  0
    7.6487  -15.4590   21.4078 C   0  0  1  0  0  0  0  0  0  0  0  0
    6.9318  -14.1533   21.5292 C   0  0  0  0  0  0  0  0  0  0  0  0
    6.8578  -13.5472   20.1431 C   0  0  0  0  0  0  0  0  0  0  0  0
    8.1984  -13.0773   19.6404 C   0  0  0  0  0  0  0  0  0  0  0  0
    8.0067  -12.4097   18.2996 C   0  0  0  0  0  0  0  0  0  0  0  0
    9.2558  -11.8807   17.7866 N   0  0  0  0  0  0  0  0  0  0  0  0
    8.1332  -16.0125   22.6952 C   0  0  0  0  0  0  0  0  0  0  0  0
    7.2849  -16.5862   23.4224 O   0  0  0  0  0  0  0  0  0  0  0  0
   15.2531  -20.4407   23.4006 N   0  0  0  0  0  0  0  0  0  0  0  0
   13.9943  -20.8922   22.8889 C   0  0  0  0  0  0  0  0  0  0  0  0
   13.9100  -22.0266   22.2744 N   0  0  0  0  0  0  0  0  0  0  0  0
   12.8093  -20.1342   23.0311 N   0  0  0  0  0  0  0  0  0  0  0  0
   12.7240  -18.8865   23.7562 C   0  0  0  0  0  0  0  0  0  0  0  0
   11.3335  -18.2924   23.6929 C   0  0  0  0  0  0  0  0  0  0  0  0
   11.2235  -17.0177   24.4687 C   0  0  0  0  0  0  0  0  0  0  0  0
    9.8876  -16.3488   24.4165 C   0  0  2  0  0  0  0  0  0  0  0  0
    9.4828  -15.9131   23.1118 N   0  0  0  0  0  0  0  0  0  0  0  0
    9.9555  -15.1552   25.3379 C   0  0  0  0  0  0  0  0  0  0  0  0
   10.8448  -14.3203   25.1483 O   0  0  0  0  0  0  0  0  0  0  0  0
   13.0004  -22.3108   21.8837 N   0  0  0  0  0  0  0  0  0  0  0  0
    7.5079  -13.1407   25.2792 C   0  0  0  0  0  0  0  0  0  0  0  0
    7.1705  -12.9004   26.6216 O   0  0  0  0  0  0  0  0  0  0  0  0
    6.0711  -12.2894   26.8535 C   0  0  0  0  0  0  0  0  0  0  0  0
    7.9606  -13.2838   27.7988 C   0  0  2  0  0  0  0  0  0  0  0  0
    9.2059  -14.0504   27.4733 N   0  0  0  0  0  0  0  0  0  0  0  0
    9.0309  -14.9858   26.3936 C   0  0  0  0  0  0  0  0  0  0  0  0
    9.8326  -14.6733   28.6620 O   0  0  0  0  0  0  0  0  0  0  0  0
   10.1039  -13.9758   29.6539 O   0  0  0  0  0  0  0  0  0  0  0  0
  2  1  1  1
  3  2  1  0
  3  4  1  0
  4  5  1  0
  6  5  1  0
  7  6  1  0
  8  9  2  0
  8  2  1  0
 10 11  1  0
 11 12  2  0
 13 14  1  0
 13 11  1  0
 15 14  1  0
 15 16  1  0
 17 16  1  6
 17 18  1  0
 18  8  1  0
 19 17  1  0
 19 26  1  0
 20 19  2  0
 21 22  1  0
 22 24  1  0
 23 22  2  0
 25 24  1  6
 25 26  1  0
 25 27  1  0
 27 28  2  0
 27 29  1  0
M  END
$$$$
