KRN.pdb
     RDKit          3D

 29 28  0  0  1  0  0  0  0  0999 V2000
   12.1671  -17.1516   19.2650 N   0  0  0  0  0  0  0  0  0  0  0  0
   12.9075  -16.4222   20.2693 C   0  0  1  0  0  0  0  0  0  0  0  0
   13.5254  -15.2279   19.6171 C   0  0  0  0  0  0  0  0  0  0  0  0
   14.0817  -15.6784   18.2823 C   0  0  0  0  0  0  0  0  0  0  0  0
   14.8425  -14.5896   17.5707 C   0  0  0  0  0  0  0  0  0  0  0  0
   15.3077  -15.1167   16.2344 C   0  0  0  0  0  0  0  0  0  0  0  0
   15.9732  -14.0868   15.4599 N   0  0  0  0  0  0  0  0  0  0  0  0
   12.0920  -16.1108   21.4679 C   0  0  0  0  0  0  0  0  0  0  0  0
   12.6997  -15.6436   22.4629 O   0  0  0  0  0  0  0  0  0  0  0  0
    7.6737  -11.7324   20.2768 N   0  0  0  0  0  0  0  0  0  0  0  0
    8.1466  -12.6302   19.2665 C   0  0  0  0  0  0  0  0  0  0  0  0
    8.8273  -12.1814   18.2631 N   0  0  0  0  0  0  0  0  0  0  0  0
    7.8974  -14.0209   19.3200 N   0  0  0  0  0  0  0  0  0  0  0  0
    7.4040  -14.7144   20.4885 C   0  0  0  0  0  0  0  0  0  0  0  0
    8.2732  -14.4625   21.7015 C   0  0  0  0  0  0  0  0  0  0  0  0
    8.5128  -15.7063   22.4981 C   0  0  0  0  0  0  0  0  0  0  0  0
    9.9484  -16.0618   22.7154 C   0  0  2  0  0  0  0  0  0  0  0  0
   10.6927  -16.3209   21.5175 N   0  0  0  0  0  0  0  0  0  0  0  0
    9.9709  -17.2931   23.5881 C   0  0  0  0  0  0  0  0  0  0  0  0
    9.0885  -18.1409   23.4256 O   0  0  0  0  0  0  0  0  0  0  0  0
    9.1788  -12.8519   17.5648 N   0  0  0  0  0  0  0  0  0  0  0  0
   13.4606  -21.1643   26.3999 C   0  0  0  0  0  0  0  0  0  0  0  0
   12.2725  -20.8186   25.7346 O   0  0  0  0  0  0  0  0  0  0  0  0
   11.2605  -21.5833   25.8982 C   0  0  0  0  0  0  0  0  0  0  0  0
   12.0721  -19.6552   24.8609 C   0  0  2  0  0  0  0  0  0  0  0  0
   11.0815  -18.6619   25.3868 N   0  0  0  0  0  0  0  0  0  0  0  0
   10.9708  -17.4828   24.5691 C   0  0  0  0  0  0  0  0  0  0  0  0
   11.2868  -18.3378   26.8174 O   0  0  0  0  0  0  0  0  0  0  0  0
   11.6140  -17.1857   27.1488 O   0  0  0  0  0  0  0  0  0  0  0  0
  2  1  1  6
  3  2  1  0
  3  4  1  0
  4  5  1  0
  6  5  1  0
  7  6  1  0
  8  9  2  0
  8  2  1  0
 10 11  1  0
 11 12  2  0
 13 14  1  0
 13 11  1  0
 15 14  1  0
 15 16  1  0
 17 16  1  6
 17 18  1  0
 18  8  1  0
 19 17  1  0
 19 26  1  0
 20 19  2  0
 21 22  1  0
 22 24  1  0
 23 22  2  0
 25 24  1  6
 25 26  1  0
 25 27  1  0
 27 28  2  0
 27 29  1  0
M  END
$$$$
