GKI.pdb
     RDKit          3D

 22 21  0  0  1  0  0  0  0  0999 V2000
   17.4973  -14.4183  -17.1472 N   0  0  0  0  0  0  0  0  0  0  0  0
   16.7100  -13.2346  -17.3814 C   0  0  0  0  0  0  0  0  0  0  0  0
   17.5331  -12.0083  -17.3775 C   0  0  0  0  0  0  0  0  0  0  0  0
   18.7721  -12.1310  -17.5891 O   0  0  0  0  0  0  0  0  0  0  0  0
   16.9049  -10.7623  -17.1394 N   0  0  0  0  0  0  0  0  0  0  0  0
   17.6916   -9.5487  -17.1885 C   0  0  1  0  0  0  0  0  0  0  0  0
   16.7641   -8.3744  -17.3508 C   0  0  0  0  0  0  0  0  0  0  0  0
   15.9555   -8.3756  -18.6018 C   0  0  0  0  0  0  0  0  0  0  0  0
   14.9003   -7.3022  -18.6297 C   0  0  0  0  0  0  0  0  0  0  0  0
   14.1470   -7.3547  -19.9425 C   0  0  0  0  0  0  0  0  0  0  0  0
   13.0640   -6.4219  -20.0141 N   0  0  0  0  0  0  0  0  0  0  0  0
   18.5722   -9.4354  -15.9969 C   0  0  0  0  0  0  0  0  0  0  0  0
   18.1028   -9.7040  -14.8771 O   0  0  0  0  0  0  0  0  0  0  0  0
   23.9607  -10.6764  -13.7399 C   0  0  0  0  0  0  0  0  0  0  0  0
   22.8188   -9.7040  -13.7495 C   0  0  0  0  0  0  0  0  0  0  0  0
   21.9677   -9.8334  -14.9952 C   0  0  2  0  0  0  0  0  0  0  0  0
   22.7497   -9.3814  -16.2134 C   0  0  0  0  0  0  0  0  0  0  0  0
   20.7272   -8.9726  -14.9117 C   0  0  2  0  0  0  0  0  0  0  0  0
   19.9347   -9.0290  -16.1002 N   0  0  0  0  0  0  0  0  0  0  0  0
   21.1695   -7.5703  -14.7035 C   0  0  0  0  0  0  0  0  0  0  0  0
   21.1910   -6.8077  -15.7101 O   0  0  0  0  0  0  0  0  0  0  0  0
   21.5533   -7.0810  -13.4562 O   0  0  0  0  0  0  0  0  0  0  0  0
  2  3  1  0
  2  1  1  0
  3  4  2  0
  5  6  1  0
  5  3  1  0
  7  8  1  0
  6  7  1  1
  9 10  1  0
  9  8  1  0
 10 11  1  0
 12  6  1  0
 12 19  1  0
 13 12  2  0
 15 14  1  0
 16 15  1  0
 16 17  1  6
 18 19  1  6
 18 16  1  0
 20 18  1  0
 21 20  2  0
 22 20  1  0
M  END
$$$$
