GKI.pdb
     RDKit          3D

 22 21  0  0  1  0  0  0  0  0999 V2000
   25.1923  -20.1630  -18.7329 N   0  0  0  0  0  0  0  0  0  0  0  0
   24.9925  -19.0891  -17.7934 C   0  0  0  0  0  0  0  0  0  0  0  0
   23.5608  -18.8015  -17.5723 C   0  0  0  0  0  0  0  0  0  0  0  0
   22.8972  -18.3394  -18.5425 O   0  0  0  0  0  0  0  0  0  0  0  0
   23.0003  -19.0532  -16.2970 N   0  0  0  0  0  0  0  0  0  0  0  0
   21.5807  -18.8602  -16.0938 C   0  0  1  0  0  0  0  0  0  0  0  0
   21.1565  -19.6252  -14.8689 C   0  0  0  0  0  0  0  0  0  0  0  0
   20.8753  -21.0709  -15.0924 C   0  0  0  0  0  0  0  0  0  0  0  0
   20.2727  -21.7525  -13.8930 C   0  0  0  0  0  0  0  0  0  0  0  0
   20.0114  -23.2109  -14.2068 C   0  0  0  0  0  0  0  0  0  0  0  0
   19.4979  -23.9488  -13.0933 N   0  0  0  0  0  0  0  0  0  0  0  0
   21.2437  -17.4145  -16.0236 C   0  0  0  0  0  0  0  0  0  0  0  0
   21.8215  -16.7048  -15.1817 O   0  0  0  0  0  0  0  0  0  0  0  0
   20.1807  -12.4207  -19.1576 C   0  0  0  0  0  0  0  0  0  0  0  0
   19.8675  -13.2055  -17.9184 C   0  0  0  0  0  0  0  0  0  0  0  0
   20.2511  -14.6641  -18.0529 C   0  0  2  0  0  0  0  0  0  0  0  0
   19.4142  -15.3291  -19.1286 C   0  0  0  0  0  0  0  0  0  0  0  0
   20.0140  -15.4213  -16.7656 C   0  0  2  0  0  0  0  0  0  0  0  0
   20.2806  -16.8203  -16.8904 N   0  0  0  0  0  0  0  0  0  0  0  0
   18.5863  -15.2422  -16.3983 C   0  0  0  0  0  0  0  0  0  0  0  0
   17.8056  -16.2162  -16.5910 O   0  0  0  0  0  0  0  0  0  0  0  0
   18.0926  -14.0560  -15.8582 O   0  0  0  0  0  0  0  0  0  0  0  0
  2  3  1  0
  2  1  1  0
  3  4  2  0
  5  6  1  0
  5  3  1  0
  7  8  1  0
  6  7  1  1
  9 10  1  0
  9  8  1  0
 10 11  1  0
 12  6  1  0
 12 19  1  0
 13 12  2  0
 15 14  1  0
 16 15  1  0
 16 17  1  6
 18 19  1  6
 18 16  1  0
 20 18  1  0
 21 20  2  0
 22 20  1  0
M  END
$$$$
