GKI.pdb
     RDKit          3D

 22 21  0  0  1  0  0  0  0  0999 V2000
   29.5622  -23.0068  -16.2671 N   0  0  0  0  0  0  0  0  0  0  0  0
   28.3830  -22.3013  -16.7004 C   0  0  0  0  0  0  0  0  0  0  0  0
   27.8622  -21.3939  -15.6580 C   0  0  0  0  0  0  0  0  0  0  0  0
   28.4054  -21.4338  -14.5186 O   0  0  0  0  0  0  0  0  0  0  0  0
   26.7886  -20.5281  -15.9772 N   0  0  0  0  0  0  0  0  0  0  0  0
   26.2832  -19.6210  -14.9694 C   0  0  1  0  0  0  0  0  0  0  0  0
   25.5575  -18.4923  -15.6515 C   0  0  0  0  0  0  0  0  0  0  0  0
   26.4283  -17.3940  -16.1557 C   0  0  0  0  0  0  0  0  0  0  0  0
   25.6769  -16.3497  -16.9375 C   0  0  0  0  0  0  0  0  0  0  0  0
   26.6219  -15.2445  -17.3608 C   0  0  0  0  0  0  0  0  0  0  0  0
   25.9797  -14.1985  -18.0967 N   0  0  0  0  0  0  0  0  0  0  0  0
   25.4414  -20.3404  -13.9783 C   0  0  0  0  0  0  0  0  0  0  0  0
   24.6366  -21.1968  -14.3850 O   0  0  0  0  0  0  0  0  0  0  0  0
   26.8025  -20.5471   -8.4805 C   0  0  0  0  0  0  0  0  0  0  0  0
   26.4405  -20.9318   -9.8843 C   0  0  0  0  0  0  0  0  0  0  0  0
   25.0164  -20.5525  -10.2321 C   0  0  2  0  0  0  0  0  0  0  0  0
   24.0404  -21.3615   -9.3997 C   0  0  0  0  0  0  0  0  0  0  0  0
   24.7071  -20.8313  -11.6858 C   0  0  2  0  0  0  0  0  0  0  0  0
   25.5297  -20.0778  -12.5800 N   0  0  0  0  0  0  0  0  0  0  0  0
   23.2887  -20.4592  -11.9202 C   0  0  0  0  0  0  0  0  0  0  0  0
   22.4254  -21.3796  -11.8663 O   0  0  0  0  0  0  0  0  0  0  0  0
   22.8900  -19.1516  -12.1919 O   0  0  0  0  0  0  0  0  0  0  0  0
  2  3  1  0
  2  1  1  0
  3  4  2  0
  5  6  1  0
  5  3  1  0
  7  8  1  0
  6  7  1  6
  9 10  1  0
  9  8  1  0
 10 11  1  0
 12  6  1  0
 12 19  1  0
 13 12  2  0
 15 14  1  0
 16 15  1  0
 16 17  1  1
 18 19  1  6
 18 16  1  0
 20 18  1  0
 21 20  2  0
 22 20  1  0
M  END
$$$$
