GKI.pdb
     RDKit          3D

 22 21  0  0  1  0  0  0  0  0999 V2000
   26.3088  -14.3901  -16.0468 N   0  0  0  0  0  0  0  0  0  0  0  0
   26.2412  -15.3706  -14.9932 C   0  0  0  0  0  0  0  0  0  0  0  0
   25.5529  -16.6043  -15.4236 C   0  0  0  0  0  0  0  0  0  0  0  0
   24.5365  -16.4831  -16.1633 O   0  0  0  0  0  0  0  0  0  0  0  0
   26.0562  -17.8555  -14.9933 N   0  0  0  0  0  0  0  0  0  0  0  0
   25.3235  -19.0628  -15.3085 C   0  0  1  0  0  0  0  0  0  0  0  0
   26.2903  -20.2147  -15.3751 C   0  0  0  0  0  0  0  0  0  0  0  0
   25.6864  -21.5265  -15.7402 C   0  0  0  0  0  0  0  0  0  0  0  0
   26.7022  -22.6264  -15.8977 C   0  0  0  0  0  0  0  0  0  0  0  0
   26.0154  -23.9026  -16.3371 C   0  0  0  0  0  0  0  0  0  0  0  0
   26.9260  -24.9696  -16.6203 N   0  0  0  0  0  0  0  0  0  0  0  0
   24.2188  -19.2846  -14.3396 C   0  0  0  0  0  0  0  0  0  0  0  0
   24.4748  -19.2594  -13.1229 O   0  0  0  0  0  0  0  0  0  0  0  0
   18.3063  -18.3143  -13.3032 C   0  0  0  0  0  0  0  0  0  0  0  0
   19.5549  -19.0926  -13.0121 C   0  0  0  0  0  0  0  0  0  0  0  0
   20.6072  -18.9080  -14.0850 C   0  0  2  0  0  0  0  0  0  0  0  0
   20.0877  -19.4064  -15.4198 C   0  0  0  0  0  0  0  0  0  0  0  0
   21.8633  -19.6891  -13.7707 C   0  0  2  0  0  0  0  0  0  0  0  0
   22.8791  -19.5246  -14.7633 N   0  0  0  0  0  0  0  0  0  0  0  0
   21.4920  -21.1256  -13.7069 C   0  0  0  0  0  0  0  0  0  0  0  0
   20.8553  -21.5210  -12.6903 O   0  0  0  0  0  0  0  0  0  0  0  0
   21.8182  -22.0314  -14.7147 O   0  0  0  0  0  0  0  0  0  0  0  0
  2  3  1  0
  2  1  1  0
  3  4  2  0
  5  6  1  0
  5  3  1  0
  7  8  1  0
  6  7  1  1
  9 10  1  0
  9  8  1  0
 10 11  1  0
 12  6  1  0
 12 19  1  0
 13 12  2  0
 15 14  1  0
 16 15  1  0
 16 17  1  6
 18 19  1  6
 18 16  1  0
 20 18  1  0
 21 20  2  0
 22 20  1  0
M  END
$$$$
