GKI.pdb
     RDKit          3D

 22 21  0  0  1  0  0  0  0  0999 V2000
   25.0487  -20.2639   -8.7003 N   0  0  0  0  0  0  0  0  0  0  0  0
   24.1276  -20.5352   -9.7746 C   0  0  0  0  0  0  0  0  0  0  0  0
   24.7666  -20.4130  -11.1005 C   0  0  0  0  0  0  0  0  0  0  0  0
   25.9156  -19.8917  -11.1537 O   0  0  0  0  0  0  0  0  0  0  0  0
   24.0715  -20.8802  -12.2418 N   0  0  0  0  0  0  0  0  0  0  0  0
   24.6980  -20.7880  -13.5428 C   0  0  1  0  0  0  0  0  0  0  0  0
   24.3530  -22.0193  -14.3369 C   0  0  0  0  0  0  0  0  0  0  0  0
   24.9838  -22.1002  -15.6839 C   0  0  0  0  0  0  0  0  0  0  0  0
   26.2843  -22.8585  -15.6877 C   0  0  0  0  0  0  0  0  0  0  0  0
   26.8903  -22.8345  -17.0754 C   0  0  0  0  0  0  0  0  0  0  0  0
   28.1515  -23.5059  -17.1566 N   0  0  0  0  0  0  0  0  0  0  0  0
   24.3176  -19.5263  -14.2297 C   0  0  0  0  0  0  0  0  0  0  0  0
   23.1508  -19.1111  -14.1174 O   0  0  0  0  0  0  0  0  0  0  0  0
   27.0883  -14.7016  -16.7743 C   0  0  0  0  0  0  0  0  0  0  0  0
   26.1194  -15.8419  -16.8778 C   0  0  0  0  0  0  0  0  0  0  0  0
   25.8086  -16.4527  -15.5276 C   0  0  2  0  0  0  0  0  0  0  0  0
   27.0678  -17.0319  -14.9121 C   0  0  0  0  0  0  0  0  0  0  0  0
   24.8061  -17.5787  -15.6454 C   0  0  2  0  0  0  0  0  0  0  0  0
   25.2485  -18.7810  -15.0107 N   0  0  0  0  0  0  0  0  0  0  0  0
   24.6088  -17.8518  -17.0917 C   0  0  0  0  0  0  0  0  0  0  0  0
   25.1659  -18.8770  -17.5753 O   0  0  0  0  0  0  0  0  0  0  0  0
   23.8426  -17.0276  -17.9142 O   0  0  0  0  0  0  0  0  0  0  0  0
  2  3  1  0
  2  1  1  0
  3  4  2  0
  5  6  1  0
  5  3  1  0
  7  8  1  0
  6  7  1  6
  9 10  1  0
  9  8  1  0
 10 11  1  0
 12  6  1  0
 12 19  1  0
 13 12  2  0
 15 14  1  0
 16 15  1  0
 16 17  1  6
 18 19  1  1
 18 16  1  0
 20 18  1  0
 21 20  2  0
 22 20  1  0
M  END
$$$$
