GKI.pdb
     RDKit          3D

 22 21  0  0  1  0  0  0  0  0999 V2000
   19.5461  -17.0838  -15.2691 N   0  0  0  0  0  0  0  0  0  0  0  0
   20.9769  -16.9220  -15.2179 C   0  0  0  0  0  0  0  0  0  0  0  0
   21.6857  -18.2171  -15.2556 C   0  0  0  0  0  0  0  0  0  0  0  0
   21.3600  -19.0907  -14.4037 O   0  0  0  0  0  0  0  0  0  0  0  0
   22.6882  -18.4214  -16.2340 N   0  0  0  0  0  0  0  0  0  0  0  0
   23.4698  -19.6389  -16.2075 C   0  0  1  0  0  0  0  0  0  0  0  0
   24.0189  -19.8941  -17.5855 C   0  0  0  0  0  0  0  0  0  0  0  0
   24.9314  -21.0664  -17.6953 C   0  0  0  0  0  0  0  0  0  0  0  0
   24.2856  -22.2655  -18.3367 C   0  0  0  0  0  0  0  0  0  0  0  0
   25.2711  -23.4143  -18.3898 C   0  0  0  0  0  0  0  0  0  0  0  0
   24.7103  -24.6203  -18.9181 N   0  0  0  0  0  0  0  0  0  0  0  0
   24.5248  -19.5728  -15.1629 C   0  0  0  0  0  0  0  0  0  0  0  0
   25.1976  -18.5325  -15.0558 O   0  0  0  0  0  0  0  0  0  0  0  0
   24.0750  -21.2454  -10.0400 C   0  0  0  0  0  0  0  0  0  0  0  0
   24.4436  -20.5384  -11.3104 C   0  0  0  0  0  0  0  0  0  0  0  0
   25.5838  -21.2220  -12.0353 C   0  0  2  0  0  0  0  0  0  0  0  0
   26.8513  -21.1483  -11.2059 C   0  0  0  0  0  0  0  0  0  0  0  0
   25.8750  -20.5583  -13.3625 C   0  0  2  0  0  0  0  0  0  0  0  0
   24.7865  -20.6638  -14.2835 N   0  0  0  0  0  0  0  0  0  0  0  0
   27.0594  -21.2345  -13.9499 C   0  0  0  0  0  0  0  0  0  0  0  0
   28.1835  -20.6771  -13.8051 O   0  0  0  0  0  0  0  0  0  0  0  0
   26.9694  -22.4412  -14.6417 O   0  0  0  0  0  0  0  0  0  0  0  0
  2  3  1  0
  2  1  1  0
  3  4  2  0
  5  6  1  0
  5  3  1  0
  7  8  1  0
  6  7  1  6
  9 10  1  0
  9  8  1  0
 10 11  1  0
 12  6  1  0
 12 19  1  0
 13 12  2  0
 15 14  1  0
 16 15  1  0
 16 17  1  1
 18 19  1  6
 18 16  1  0
 20 18  1  0
 21 20  2  0
 22 20  1  0
M  END
$$$$
