GKI.pdb
     RDKit          3D

 22 21  0  0  1  0  0  0  0  0999 V2000
   14.2168  -12.3298  -13.7729 N   0  0  0  0  0  0  0  0  0  0  0  0
   14.4622  -11.2874  -14.7369 C   0  0  0  0  0  0  0  0  0  0  0  0
   15.8199  -11.3693  -15.3125 C   0  0  0  0  0  0  0  0  0  0  0  0
   16.5539  -12.3321  -14.9531 O   0  0  0  0  0  0  0  0  0  0  0  0
   16.2353  -10.3763  -16.2319 N   0  0  0  0  0  0  0  0  0  0  0  0
   17.5584  -10.4543  -16.8127 C   0  0  1  0  0  0  0  0  0  0  0  0
   17.4547  -10.2053  -18.2935 C   0  0  0  0  0  0  0  0  0  0  0  0
   18.7441  -10.2670  -19.0368 C   0  0  0  0  0  0  0  0  0  0  0  0
   18.5979   -9.9798  -20.5074 C   0  0  0  0  0  0  0  0  0  0  0  0
   19.9413  -10.1125  -21.1939 C   0  0  0  0  0  0  0  0  0  0  0  0
   19.8837   -9.8819  -22.6051 N   0  0  0  0  0  0  0  0  0  0  0  0
   18.4961   -9.5254  -16.1299 C   0  0  0  0  0  0  0  0  0  0  0  0
   18.0382   -8.5077  -15.5813 O   0  0  0  0  0  0  0  0  0  0  0  0
   23.5008  -11.0623  -13.7468 C   0  0  0  0  0  0  0  0  0  0  0  0
   22.1570  -10.4140  -13.8997 C   0  0  0  0  0  0  0  0  0  0  0  0
   22.1117   -9.4622  -15.0765 C   0  0  2  0  0  0  0  0  0  0  0  0
   23.0344   -8.2836  -14.8331 C   0  0  0  0  0  0  0  0  0  0  0  0
   20.7207   -8.9085  -15.2893 C   0  0  2  0  0  0  0  0  0  0  0  0
   19.9004   -9.7666  -16.0860 N   0  0  0  0  0  0  0  0  0  0  0  0
   20.8604   -7.6052  -15.9872 C   0  0  0  0  0  0  0  0  0  0  0  0
   21.0418   -6.5770  -15.2764 O   0  0  0  0  0  0  0  0  0  0  0  0
   20.7990   -7.4855  -17.3745 O   0  0  0  0  0  0  0  0  0  0  0  0
  2  3  1  0
  2  1  1  0
  3  4  2  0
  5  6  1  0
  5  3  1  0
  7  8  1  0
  6  7  1  6
  9 10  1  0
  9  8  1  0
 10 11  1  0
 12  6  1  0
 12 19  1  0
 13 12  2  0
 15 14  1  0
 16 15  1  0
 16 17  1  1
 18 19  1  6
 18 16  1  0
 20 18  1  0
 21 20  2  0
 22 20  1  0
M  END
$$$$
