GKI.pdb
     RDKit          3D

 22 21  0  0  1  0  0  0  0  0999 V2000
   28.4056  -17.7823  -15.7697 N   0  0  0  0  0  0  0  0  0  0  0  0
   28.4110  -19.0701  -15.1234 C   0  0  0  0  0  0  0  0  0  0  0  0
   27.3808  -19.1689  -14.0698 C   0  0  0  0  0  0  0  0  0  0  0  0
   27.2836  -18.2125  -13.2508 O   0  0  0  0  0  0  0  0  0  0  0  0
   26.5559  -20.3184  -14.0239 N   0  0  0  0  0  0  0  0  0  0  0  0
   25.4943  -20.3928  -13.0433 C   0  0  1  0  0  0  0  0  0  0  0  0
   24.3341  -21.1442  -13.6390 C   0  0  0  0  0  0  0  0  0  0  0  0
   23.1629  -21.3186  -12.7352 C   0  0  0  0  0  0  0  0  0  0  0  0
   22.0568  -20.3314  -12.9968 C   0  0  0  0  0  0  0  0  0  0  0  0
   20.9591  -20.5034  -11.9677 C   0  0  0  0  0  0  0  0  0  0  0  0
   19.9093  -19.5385  -12.0897 N   0  0  0  0  0  0  0  0  0  0  0  0
   25.9831  -20.9879  -11.7723 C   0  0  0  0  0  0  0  0  0  0  0  0
   26.5684  -22.0845  -11.8102 O   0  0  0  0  0  0  0  0  0  0  0  0
   27.6369  -18.6045   -6.9104 C   0  0  0  0  0  0  0  0  0  0  0  0
   26.9663  -19.0160   -8.1873 C   0  0  0  0  0  0  0  0  0  0  0  0
   27.2310  -20.4668   -8.5307 C   0  0  2  0  0  0  0  0  0  0  0  0
   28.4795  -20.5841   -9.3835 C   0  0  0  0  0  0  0  0  0  0  0  0
   26.0892  -21.0678   -9.3191 C   0  0  2  0  0  0  0  0  0  0  0  0
   25.8008  -20.3402  -10.5156 N   0  0  0  0  0  0  0  0  0  0  0  0
   24.8854  -21.0456   -8.4498 C   0  0  0  0  0  0  0  0  0  0  0  0
   24.9175  -21.7288   -7.3879 O   0  0  0  0  0  0  0  0  0  0  0  0
   23.7452  -20.3083   -8.7642 O   0  0  0  0  0  0  0  0  0  0  0  0
  2  3  1  0
  2  1  1  0
  3  4  2  0
  5  6  1  0
  5  3  1  0
  7  8  1  0
  6  7  1  6
  9 10  1  0
  9  8  1  0
 10 11  1  0
 12  6  1  0
 12 19  1  0
 13 12  2  0
 15 14  1  0
 16 15  1  0
 16 17  1  6
 18 19  1  6
 18 16  1  0
 20 18  1  0
 21 20  2  0
 22 20  1  0
M  END
$$$$
