GKI.pdb
     RDKit          3D

 22 21  0  0  1  0  0  0  0  0999 V2000
   29.4769  -19.8311  -17.9274 N   0  0  0  0  0  0  0  0  0  0  0  0
   28.9551  -20.8291  -17.0286 C   0  0  0  0  0  0  0  0  0  0  0  0
   27.8182  -20.3228  -16.2335 C   0  0  0  0  0  0  0  0  0  0  0  0
   27.9184  -19.1674  -15.7336 O   0  0  0  0  0  0  0  0  0  0  0  0
   26.6778  -21.1451  -16.0678 N   0  0  0  0  0  0  0  0  0  0  0  0
   25.5657  -20.6669  -15.2751 C   0  0  1  0  0  0  0  0  0  0  0  0
   24.3060  -20.7706  -16.0926 C   0  0  0  0  0  0  0  0  0  0  0  0
   23.0665  -20.3134  -15.4045 C   0  0  0  0  0  0  0  0  0  0  0  0
   22.8656  -18.8228  -15.4680 C   0  0  0  0  0  0  0  0  0  0  0  0
   21.5506  -18.4522  -14.8144 C   0  0  0  0  0  0  0  0  0  0  0  0
   21.3074  -17.0422  -14.7863 N   0  0  0  0  0  0  0  0  0  0  0  0
   25.4820  -21.3927  -13.9811 C   0  0  0  0  0  0  0  0  0  0  0  0
   25.4504  -22.6358  -13.9922 O   0  0  0  0  0  0  0  0  0  0  0  0
   26.2412  -19.4000   -8.5343 C   0  0  0  0  0  0  0  0  0  0  0  0
   25.9043  -19.6192   -9.9793 C   0  0  0  0  0  0  0  0  0  0  0  0
   26.1914  -21.0376  -10.4248 C   0  0  2  0  0  0  0  0  0  0  0  0
   27.6080  -21.1434  -10.9560 C   0  0  0  0  0  0  0  0  0  0  0  0
   25.2607  -21.4697  -11.5355 C   0  0  2  0  0  0  0  0  0  0  0  0
   25.4369  -20.7073  -12.7320 N   0  0  0  0  0  0  0  0  0  0  0  0
   23.8695  -21.2782  -11.0526 C   0  0  0  0  0  0  0  0  0  0  0  0
   23.1579  -20.4179  -11.6433 O   0  0  0  0  0  0  0  0  0  0  0  0
   23.3367  -22.0048   -9.9892 O   0  0  0  0  0  0  0  0  0  0  0  0
  2  3  1  0
  2  1  1  0
  3  4  2  0
  5  6  1  0
  5  3  1  0
  7  8  1  0
  6  7  1  6
  9 10  1  0
  9  8  1  0
 10 11  1  0
 12  6  1  0
 12 19  1  0
 13 12  2  0
 15 14  1  0
 16 15  1  0
 16 17  1  6
 18 19  1  6
 18 16  1  0
 20 18  1  0
 21 20  2  0
 22 20  1  0
M  END
$$$$
