GKI.pdb
     RDKit          3D

 22 21  0  0  1  0  0  0  0  0999 V2000
   20.2086  -15.3127  -16.9688 N   0  0  0  0  0  0  0  0  0  0  0  0
   19.1948  -14.5204  -16.3204 C   0  0  0  0  0  0  0  0  0  0  0  0
   19.3237  -13.0836  -16.6366 C   0  0  0  0  0  0  0  0  0  0  0  0
   20.4239  -12.6818  -17.1089 O   0  0  0  0  0  0  0  0  0  0  0  0
   18.2210  -12.2281  -16.3993 N   0  0  0  0  0  0  0  0  0  0  0  0
   18.3560  -10.8089  -16.6475 C   0  0  1  0  0  0  0  0  0  0  0  0
   16.9902  -10.2266  -16.8944 C   0  0  0  0  0  0  0  0  0  0  0  0
   16.2119  -10.8798  -17.9836 C   0  0  0  0  0  0  0  0  0  0  0  0
   14.8330  -10.3016  -18.1592 C   0  0  0  0  0  0  0  0  0  0  0  0
   14.0963  -11.0495  -19.2508 C   0  0  0  0  0  0  0  0  0  0  0  0
   12.7868  -10.5334  -19.5092 N   0  0  0  0  0  0  0  0  0  0  0  0
   19.0826  -10.1401  -15.5371 C   0  0  0  0  0  0  0  0  0  0  0  0
   18.7851  -10.4311  -14.3652 O   0  0  0  0  0  0  0  0  0  0  0  0
   24.1628  -10.5051  -15.0275 C   0  0  0  0  0  0  0  0  0  0  0  0
   22.6884  -10.3007  -14.8433 C   0  0  0  0  0  0  0  0  0  0  0  0
   22.3179   -8.8340  -14.7782 C   0  0  2  0  0  0  0  0  0  0  0  0
   22.9535   -8.1864  -13.5631 C   0  0  0  0  0  0  0  0  0  0  0  0
   20.8224   -8.6441  -14.6591 C   0  0  2  0  0  0  0  0  0  0  0  0
   20.1070   -9.1780  -15.7759 N   0  0  0  0  0  0  0  0  0  0  0  0
   20.5620   -7.1840  -14.5841 C   0  0  0  0  0  0  0  0  0  0  0  0
   20.7601   -6.6101  -13.4766 O   0  0  0  0  0  0  0  0  0  0  0  0
   20.1150   -6.4436  -15.6771 O   0  0  0  0  0  0  0  0  0  0  0  0
  2  3  1  0
  2  1  1  0
  3  4  2  0
  5  6  1  0
  5  3  1  0
  7  8  1  0
  6  7  1  1
  9 10  1  0
  9  8  1  0
 10 11  1  0
 12  6  1  0
 12 19  1  0
 13 12  2  0
 15 14  1  0
 16 15  1  0
 16 17  1  1
 18 19  1  6
 18 16  1  0
 20 18  1  0
 21 20  2  0
 22 20  1  0
M  END
$$$$
