GKI.pdb
     RDKit          3D

 22 21  0  0  1  0  0  0  0  0999 V2000
   19.0279  -20.3295  -13.0881 N   0  0  0  0  0  0  0  0  0  0  0  0
   20.0595  -19.3561  -13.3417 C   0  0  0  0  0  0  0  0  0  0  0  0
   21.3696  -19.9872  -13.5997 C   0  0  0  0  0  0  0  0  0  0  0  0
   21.7831  -20.8444  -12.7694 O   0  0  0  0  0  0  0  0  0  0  0  0
   22.0973  -19.6085  -14.7533 N   0  0  0  0  0  0  0  0  0  0  0  0
   23.3682  -20.2419  -15.0318 C   0  0  1  0  0  0  0  0  0  0  0  0
   23.7272  -19.9983  -16.4732 C   0  0  0  0  0  0  0  0  0  0  0  0
   23.8467  -21.2243  -17.3108 C   0  0  0  0  0  0  0  0  0  0  0  0
   22.7604  -21.3463  -18.3460 C   0  0  0  0  0  0  0  0  0  0  0  0
   23.0031  -22.5696  -19.2052 C   0  0  0  0  0  0  0  0  0  0  0  0
   21.9574  -22.8167  -20.1505 N   0  0  0  0  0  0  0  0  0  0  0  0
   24.4145  -19.7775  -14.0843 C   0  0  0  0  0  0  0  0  0  0  0  0
   24.5058  -18.5613  -13.8414 O   0  0  0  0  0  0  0  0  0  0  0  0
   25.2446  -20.9961   -9.0511 C   0  0  0  0  0  0  0  0  0  0  0  0
   25.2265  -20.3576  -10.4082 C   0  0  0  0  0  0  0  0  0  0  0  0
   26.4049  -20.7854  -11.2574 C   0  0  2  0  0  0  0  0  0  0  0  0
   27.7045  -20.3549  -10.6051 C   0  0  0  0  0  0  0  0  0  0  0  0
   26.3588  -20.1524  -12.6299 C   0  0  2  0  0  0  0  0  0  0  0  0
   25.3132  -20.6828  -13.4481 N   0  0  0  0  0  0  0  0  0  0  0  0
   27.6607  -20.4231  -13.2909 C   0  0  0  0  0  0  0  0  0  0  0  0
   27.7082  -21.3704  -14.1248 O   0  0  0  0  0  0  0  0  0  0  0  0
   28.8080  -19.6779  -13.0240 O   0  0  0  0  0  0  0  0  0  0  0  0
  2  3  1  0
  2  1  1  0
  3  4  2  0
  5  6  1  0
  5  3  1  0
  7  8  1  0
  6  7  1  6
  9 10  1  0
  9  8  1  0
 10 11  1  0
 12  6  1  0
 12 19  1  0
 13 12  2  0
 15 14  1  0
 16 15  1  0
 16 17  1  1
 18 19  1  6
 18 16  1  0
 20 18  1  0
 21 20  2  0
 22 20  1  0
M  END
$$$$
