GKI.pdb
     RDKit          3D

 22 21  0  0  1  0  0  0  0  0999 V2000
   22.0374  -16.6608  -17.5588 N   0  0  0  0  0  0  0  0  0  0  0  0
   23.1004  -16.6035  -16.5878 C   0  0  0  0  0  0  0  0  0  0  0  0
   23.5898  -17.9469  -16.2177 C   0  0  0  0  0  0  0  0  0  0  0  0
   22.7872  -18.7231  -15.6275 O   0  0  0  0  0  0  0  0  0  0  0  0
   24.9223  -18.3027  -16.5366 N   0  0  0  0  0  0  0  0  0  0  0  0
   25.4385  -19.5841  -16.1058 C   0  0  1  0  0  0  0  0  0  0  0  0
   26.6325  -19.9365  -16.9519 C   0  0  0  0  0  0  0  0  0  0  0  0
   27.2191  -21.2802  -16.6890 C   0  0  0  0  0  0  0  0  0  0  0  0
   28.3578  -21.6237  -17.6119 C   0  0  0  0  0  0  0  0  0  0  0  0
   28.8795  -23.0091  -17.2925 C   0  0  0  0  0  0  0  0  0  0  0  0
   29.8438  -23.4850  -18.2368 N   0  0  0  0  0  0  0  0  0  0  0  0
   25.7377  -19.5764  -14.6502 C   0  0  0  0  0  0  0  0  0  0  0  0
   26.4377  -18.6588  -14.1872 O   0  0  0  0  0  0  0  0  0  0  0  0
   23.7278  -20.3783   -9.0676 C   0  0  0  0  0  0  0  0  0  0  0  0
   24.8910  -20.4653  -10.0104 C   0  0  0  0  0  0  0  0  0  0  0  0
   24.4572  -20.4145  -11.4603 C   0  0  2  0  0  0  0  0  0  0  0  0
   23.5051  -21.5555  -11.7627 C   0  0  0  0  0  0  0  0  0  0  0  0
   25.6360  -20.5513  -12.3975 C   0  0  2  0  0  0  0  0  0  0  0  0
   25.2471  -20.5871  -13.7728 N   0  0  0  0  0  0  0  0  0  0  0  0
   26.3242  -21.8250  -12.0667 C   0  0  0  0  0  0  0  0  0  0  0  0
   27.1506  -21.8131  -11.1116 O   0  0  0  0  0  0  0  0  0  0  0  0
   26.0899  -23.0087  -12.7644 O   0  0  0  0  0  0  0  0  0  0  0  0
  2  3  1  0
  2  1  1  0
  3  4  2  0
  5  6  1  0
  5  3  1  0
  7  8  1  0
  6  7  1  6
  9 10  1  0
  9  8  1  0
 10 11  1  0
 12  6  1  0
 12 19  1  0
 13 12  2  0
 15 14  1  0
 16 15  1  0
 16 17  1  6
 18 19  1  6
 18 16  1  0
 20 18  1  0
 21 20  2  0
 22 20  1  0
M  END
$$$$
