EYY.pdb
     RDKit          3D

 34 35  0  0  1  0  0  0  0  0999 V2000
    7.2685  -17.3045   17.8596 N   0  0  0  0  0  0  0  0  0  0  0  0
    8.5727  -17.5745   18.5015 C   0  0  1  0  0  0  0  0  0  0  0  0
    9.5734  -17.5499   17.3921 C   0  0  0  0  0  0  0  0  0  0  0  0
    9.8846  -18.8555   16.7575 C   0  0  0  0  0  0  0  0  0  0  0  0
   10.8291  -18.6063   15.6339 C   0  0  0  0  0  0  0  0  0  0  0  0
   11.9646  -19.1272   15.5481 O   0  0  0  0  0  0  0  0  0  0  0  0
    8.8798  -16.4551   19.4490 C   0  0  0  0  0  0  0  0  0  0  0  0
    8.6075  -15.2665   19.1898 O   0  0  0  0  0  0  0  0  0  0  0  0
   10.4825  -17.7463   14.5793 O   0  0  0  0  0  0  0  0  0  0  0  0
    6.0773  -12.8162   26.6055 O   0  0  0  0  0  0  0  0  0  0  0  0
    6.5025  -13.4821   25.4824 C   0  0  0  0  0  0  0  0  0  0  0  0
    6.3752  -14.8376   25.3648 C   0  0  0  0  0  0  0  0  0  0  0  0
    6.8063  -15.4927   24.2340 C   0  0  0  0  0  0  0  0  0  0  0  0
    7.3831  -14.8330   23.1659 C   0  0  0  0  0  0  0  0  0  0  0  0
    7.8141  -15.5907   21.9634 C   0  0  0  0  0  0  0  0  0  0  0  0
    9.2571  -15.8791   21.8892 C   0  0  2  0  0  0  0  0  0  0  0  0
    9.5075  -16.7109   20.7042 N   0  0  0  0  0  0  0  0  0  0  0  0
    9.9234  -16.4014   23.0765 C   0  0  0  0  0  0  0  0  0  0  0  0
    9.5487  -17.5370   23.5134 O   0  0  0  0  0  0  0  0  0  0  0  0
    7.5091  -13.4712   23.2839 C   0  0  0  0  0  0  0  0  0  0  0  0
    7.0851  -12.8095   24.4046 C   0  0  0  0  0  0  0  0  0  0  0  0
   10.4843  -15.4674   31.6061 O   0  0  0  0  0  0  0  0  0  0  0  0
   10.4042  -15.3825   30.2257 C   0  0  0  0  0  0  0  0  0  0  0  0
    9.9539  -16.4400   29.4480 C   0  0  0  0  0  0  0  0  0  0  0  0
    9.8845  -16.3324   28.0747 C   0  0  0  0  0  0  0  0  0  0  0  0
   10.2563  -15.1739   27.3963 C   0  0  0  0  0  0  0  0  0  0  0  0
   10.1768  -15.0699   25.9224 C   0  0  0  0  0  0  0  0  0  0  0  0
   11.1832  -15.9216   25.2055 C   0  0  2  0  0  0  0  0  0  0  0  0
   10.9552  -15.7554   23.7879 N   0  0  0  0  0  0  0  0  0  0  0  0
   11.2635  -17.3026   25.6502 C   0  0  0  0  0  0  0  0  0  0  0  0
   12.3203  -17.7248   26.2017 O   0  0  0  0  0  0  0  0  0  0  0  0
   10.7033  -14.1263   28.1737 C   0  0  0  0  0  0  0  0  0  0  0  0
   10.7727  -14.2343   29.5528 C   0  0  0  0  0  0  0  0  0  0  0  0
   10.2412  -18.2278   25.5159 O   0  0  0  0  0  0  0  0  0  0  0  0
  2  1  1  6
  2  3  1  0
  3  4  1  0
  4  5  1  0
  5  9  1  0
  5  6  2  0
  7  8  2  0
  7  2  1  0
 10 11  1  0
 11 21  2  0
 12 11  1  0
 12 13  2  0
 13 14  1  0
 14 20  2  0
 14 15  1  0
 16 15  1  1
 16 17  1  0
 17  7  1  0
 18 16  1  0
 19 18  2  0
 21 20  1  0
 23 24  2  0
 23 22  1  0
 25 24  1  0
 26 25  2  0
 27 26  1  0
 28 27  1  1
 28 30  1  0
 28 29  1  0
 29 18  1  0
 30 34  1  0
 31 30  2  0
 32 26  1  0
 32 33  2  0
 33 23  1  0
M  END
$$$$
