EYY.pdb
     RDKit          3D

 34 35  0  0  1  0  0  0  0  0999 V2000
    9.9290  -16.7850   17.6110 N   0  0  0  0  0  0  0  0  0  0  0  0
    9.7480  -17.5267   18.8771 C   0  0  1  0  0  0  0  0  0  0  0  0
   10.9652  -18.3826   19.0128 C   0  0  0  0  0  0  0  0  0  0  0  0
   10.8636  -19.7617   18.4723 C   0  0  0  0  0  0  0  0  0  0  0  0
   11.7646  -20.6359   19.2728 C   0  0  0  0  0  0  0  0  0  0  0  0
   11.3968  -21.6983   19.8243 O   0  0  0  0  0  0  0  0  0  0  0  0
    9.7247  -16.5437   20.0076 C   0  0  0  0  0  0  0  0  0  0  0  0
   10.6500  -15.7324   20.2070 O   0  0  0  0  0  0  0  0  0  0  0  0
   13.1162  -20.3020   19.4552 O   0  0  0  0  0  0  0  0  0  0  0  0
    6.3582  -11.8530   26.8091 O   0  0  0  0  0  0  0  0  0  0  0  0
    6.5487  -12.6650   25.7182 C   0  0  0  0  0  0  0  0  0  0  0  0
    6.9440  -12.1593   24.5119 C   0  0  0  0  0  0  0  0  0  0  0  0
    7.1306  -12.9842   23.4263 C   0  0  0  0  0  0  0  0  0  0  0  0
    6.9348  -14.3505   23.4874 C   0  0  0  0  0  0  0  0  0  0  0  0
    7.1682  -15.1937   22.2873 C   0  0  0  0  0  0  0  0  0  0  0  0
    8.5752  -15.5543   22.0395 C   0  0  2  0  0  0  0  0  0  0  0  0
    8.6250  -16.4990   20.9153 N   0  0  0  0  0  0  0  0  0  0  0  0
    9.3873  -15.9993   23.1660 C   0  0  0  0  0  0  0  0  0  0  0  0
    9.3707  -17.2395   23.4535 O   0  0  0  0  0  0  0  0  0  0  0  0
    6.5395  -14.8582   24.6999 C   0  0  0  0  0  0  0  0  0  0  0  0
    6.3495  -14.0468   25.7859 C   0  0  0  0  0  0  0  0  0  0  0  0
   11.2943  -16.3510   31.6394 O   0  0  0  0  0  0  0  0  0  0  0  0
   10.9482  -15.9952   30.3460 C   0  0  0  0  0  0  0  0  0  0  0  0
   11.1628  -14.7163   29.8518 C   0  0  0  0  0  0  0  0  0  0  0  0
   10.8081  -14.3851   28.5608 C   0  0  0  0  0  0  0  0  0  0  0  0
   10.2225  -15.3000   27.6887 C   0  0  0  0  0  0  0  0  0  0  0  0
    9.8468  -14.9333   26.3053 C   0  0  0  0  0  0  0  0  0  0  0  0
   10.7201  -15.5624   25.2595 C   0  0  2  0  0  0  0  0  0  0  0  0
   10.1969  -15.1711   23.9702 N   0  0  0  0  0  0  0  0  0  0  0  0
   10.9519  -16.9885   25.4137 C   0  0  0  0  0  0  0  0  0  0  0  0
   12.1029  -17.4077   25.7279 O   0  0  0  0  0  0  0  0  0  0  0  0
   10.0111  -16.5693   28.1848 C   0  0  0  0  0  0  0  0  0  0  0  0
   10.3675  -16.9019   29.4813 C   0  0  0  0  0  0  0  0  0  0  0  0
    9.9813  -17.9615   25.2398 O   0  0  0  0  0  0  0  0  0  0  0  0
  2  1  1  6
  2  3  1  0
  3  4  1  0
  4  5  1  0
  5  9  1  0
  5  6  2  0
  7  8  2  0
  7  2  1  0
 10 11  1  0
 11 21  2  0
 12 11  1  0
 12 13  2  0
 13 14  1  0
 14 20  2  0
 14 15  1  0
 16 15  1  1
 16 17  1  0
 17  7  1  0
 18 16  1  0
 19 18  2  0
 21 20  1  0
 23 24  2  0
 23 22  1  0
 25 24  1  0
 26 25  2  0
 27 26  1  0
 28 27  1  1
 28 30  1  0
 28 29  1  0
 29 18  1  0
 30 34  1  0
 31 30  2  0
 32 26  1  0
 32 33  2  0
 33 23  1  0
M  END
$$$$
