EYY.pdb
     RDKit          3D

 34 35  0  0  1  0  0  0  0  0999 V2000
   10.1105  -17.0777   17.5039 N   0  0  0  0  0  0  0  0  0  0  0  0
   11.2455  -17.8392   18.0677 C   0  0  1  0  0  0  0  0  0  0  0  0
   12.2656  -17.8959   16.9773 C   0  0  0  0  0  0  0  0  0  0  0  0
   11.7435  -17.9062   15.5876 C   0  0  0  0  0  0  0  0  0  0  0  0
   12.9030  -18.0360   14.6626 C   0  0  0  0  0  0  0  0  0  0  0  0
   13.8738  -18.8009   14.8636 O   0  0  0  0  0  0  0  0  0  0  0  0
   11.8154  -17.0662   19.2177 C   0  0  0  0  0  0  0  0  0  0  0  0
   12.8119  -17.4566   19.8570 O   0  0  0  0  0  0  0  0  0  0  0  0
   12.9680  -17.2824   13.4795 O   0  0  0  0  0  0  0  0  0  0  0  0
   17.2776  -15.0802   17.3852 O   0  0  0  0  0  0  0  0  0  0  0  0
   16.1211  -14.7840   18.0636 C   0  0  0  0  0  0  0  0  0  0  0  0
   14.9332  -14.6137   17.4098 C   0  0  0  0  0  0  0  0  0  0  0  0
   13.7816  -14.3162   18.1019 C   0  0  0  0  0  0  0  0  0  0  0  0
   13.7544  -14.1749   19.4760 C   0  0  0  0  0  0  0  0  0  0  0  0
   12.4780  -13.8700   20.1713 C   0  0  0  0  0  0  0  0  0  0  0  0
   11.7794  -15.0372   20.7378 C   0  0  2  0  0  0  0  0  0  0  0  0
   11.2285  -15.8341   19.6331 N   0  0  0  0  0  0  0  0  0  0  0  0
   10.8002  -14.8152   21.7953 C   0  0  0  0  0  0  0  0  0  0  0  0
   10.0931  -13.7582   21.7339 O   0  0  0  0  0  0  0  0  0  0  0  0
   14.9476  -14.3478   20.1324 C   0  0  0  0  0  0  0  0  0  0  0  0
   16.0994  -14.6425   19.4540 C   0  0  0  0  0  0  0  0  0  0  0  0
    4.8654  -12.7292   27.3727 O   0  0  0  0  0  0  0  0  0  0  0  0
    5.7161  -13.2695   26.4222 C   0  0  0  0  0  0  0  0  0  0  0  0
    5.7636  -14.6327   26.1666 C   0  0  0  0  0  0  0  0  0  0  0  0
    6.6203  -15.1476   25.2163 C   0  0  0  0  0  0  0  0  0  0  0  0
    7.4763  -14.3429   24.4675 C   0  0  0  0  0  0  0  0  0  0  0  0
    8.3908  -14.9068   23.4501 C   0  0  0  0  0  0  0  0  0  0  0  0
    9.7146  -15.3409   24.0078 C   0  0  2  0  0  0  0  0  0  0  0  0
   10.5644  -15.6753   22.8874 N   0  0  0  0  0  0  0  0  0  0  0  0
    9.6531  -16.3542   25.0473 C   0  0  0  0  0  0  0  0  0  0  0  0
    9.6162  -17.5779   24.7307 O   0  0  0  0  0  0  0  0  0  0  0  0
    7.4255  -12.9892   24.7257 C   0  0  0  0  0  0  0  0  0  0  0  0
    6.5648  -12.4722   25.6799 C   0  0  0  0  0  0  0  0  0  0  0  0
    9.6319  -16.0807   26.4052 O   0  0  0  0  0  0  0  0  0  0  0  0
  2  1  1  6
  2  3  1  0
  3  4  1  0
  4  5  1  0
  5  9  1  0
  5  6  2  0
  7  8  2  0
  7  2  1  0
 10 11  1  0
 11 21  2  0
 12 11  1  0
 12 13  2  0
 13 14  1  0
 14 20  2  0
 14 15  1  0
 16 15  1  6
 16 17  1  0
 17  7  1  0
 18 16  1  0
 19 18  2  0
 21 20  1  0
 23 24  2  0
 23 22  1  0
 25 24  1  0
 26 25  2  0
 27 26  1  0
 28 27  1  6
 28 30  1  0
 28 29  1  0
 29 18  1  0
 30 34  1  0
 31 30  2  0
 32 26  1  0
 32 33  2  0
 33 23  1  0
M  END
$$$$
