EYY.pdb
     RDKit          3D

 34 35  0  0  1  0  0  0  0  0999 V2000
    8.7551  -18.6343   20.8321 N   0  0  0  0  0  0  0  0  0  0  0  0
   10.1208  -18.1177   20.5998 C   0  0  1  0  0  0  0  0  0  0  0  0
   10.1820  -17.8010   19.1408 C   0  0  0  0  0  0  0  0  0  0  0  0
   10.3201  -18.9585   18.2213 C   0  0  0  0  0  0  0  0  0  0  0  0
   10.3928  -18.4334   16.8300 C   0  0  0  0  0  0  0  0  0  0  0  0
   10.9198  -17.3396   16.5236 O   0  0  0  0  0  0  0  0  0  0  0  0
   10.2887  -16.8459   21.3739 C   0  0  0  0  0  0  0  0  0  0  0  0
   11.3356  -16.1704   21.3304 O   0  0  0  0  0  0  0  0  0  0  0  0
    9.8564  -19.1624   15.7564 O   0  0  0  0  0  0  0  0  0  0  0  0
    7.4998  -13.6053   16.9269 O   0  0  0  0  0  0  0  0  0  0  0  0
    7.6768  -13.7584   18.2800 C   0  0  0  0  0  0  0  0  0  0  0  0
    8.4720  -12.9092   18.9968 C   0  0  0  0  0  0  0  0  0  0  0  0
    8.6413  -13.0744   20.3525 C   0  0  0  0  0  0  0  0  0  0  0  0
    8.0283  -14.0898   21.0609 C   0  0  0  0  0  0  0  0  0  0  0  0
    8.2344  -14.2089   22.5269 C   0  0  0  0  0  0  0  0  0  0  0  0
    9.3506  -15.0806   22.9335 C   0  0  2  0  0  0  0  0  0  0  0  0
    9.2402  -16.3522   22.2056 N   0  0  0  0  0  0  0  0  0  0  0  0
    9.5913  -15.2829   24.3573 C   0  0  0  0  0  0  0  0  0  0  0  0
   10.2718  -14.4005   24.9732 O   0  0  0  0  0  0  0  0  0  0  0  0
    7.2283  -14.9415   20.3406 C   0  0  0  0  0  0  0  0  0  0  0  0
    7.0538  -14.7875   18.9917 C   0  0  0  0  0  0  0  0  0  0  0  0
    5.7077  -11.1367   25.9078 O   0  0  0  0  0  0  0  0  0  0  0  0
    6.2350  -12.3832   26.2033 C   0  0  0  0  0  0  0  0  0  0  0  0
    5.6095  -13.5587   25.8124 C   0  0  0  0  0  0  0  0  0  0  0  0
    6.1529  -14.7885   26.1198 C   0  0  0  0  0  0  0  0  0  0  0  0
    7.3438  -14.9227   26.8301 C   0  0  0  0  0  0  0  0  0  0  0  0
    7.9176  -16.2476   27.1536 C   0  0  0  0  0  0  0  0  0  0  0  0
    9.2739  -16.4769   26.5537 C   0  0  2  0  0  0  0  0  0  0  0  0
    9.1318  -16.3771   25.1187 N   0  0  0  0  0  0  0  0  0  0  0  0
    9.9682  -17.6674   27.0141 C   0  0  0  0  0  0  0  0  0  0  0  0
   10.1202  -17.8663   28.2537 O   0  0  0  0  0  0  0  0  0  0  0  0
    7.9611  -13.7516   27.2165 C   0  0  0  0  0  0  0  0  0  0  0  0
    7.4154  -12.5166   26.9075 C   0  0  0  0  0  0  0  0  0  0  0  0
   10.4954  -18.6376   26.1776 O   0  0  0  0  0  0  0  0  0  0  0  0
  2  1  1  6
  2  3  1  0
  3  4  1  0
  4  5  1  0
  5  9  1  0
  5  6  2  0
  7  8  2  0
  7  2  1  0
 10 11  1  0
 11 21  2  0
 12 11  1  0
 12 13  2  0
 13 14  1  0
 14 20  2  0
 14 15  1  0
 16 15  1  1
 16 17  1  0
 17  7  1  0
 18 16  1  0
 19 18  2  0
 21 20  1  0
 23 24  2  0
 23 22  1  0
 25 24  1  0
 26 25  2  0
 27 26  1  0
 28 27  1  1
 28 30  1  0
 28 29  1  0
 29 18  1  0
 30 34  1  0
 31 30  2  0
 32 26  1  0
 32 33  2  0
 33 23  1  0
M  END
$$$$
