EYY.pdb
     RDKit          3D

 34 35  0  0  1  0  0  0  0  0999 V2000
   10.9017  -16.6504   18.0383 N   0  0  0  0  0  0  0  0  0  0  0  0
   10.0274  -17.2980   19.0393 C   0  0  1  0  0  0  0  0  0  0  0  0
   10.7078  -18.5817   19.3887 C   0  0  0  0  0  0  0  0  0  0  0  0
   10.4708  -19.7235   18.4698 C   0  0  0  0  0  0  0  0  0  0  0  0
   11.0700  -20.9398   19.0848 C   0  0  0  0  0  0  0  0  0  0  0  0
   10.4302  -21.7518   19.7914 O   0  0  0  0  0  0  0  0  0  0  0  0
    9.9784  -16.4332   20.2619 C   0  0  0  0  0  0  0  0  0  0  0  0
   10.9731  -15.8077   20.6783 O   0  0  0  0  0  0  0  0  0  0  0  0
   12.4272  -21.2474   18.8971 O   0  0  0  0  0  0  0  0  0  0  0  0
    6.2285  -11.5802   26.7390 O   0  0  0  0  0  0  0  0  0  0  0  0
    6.4826  -12.3728   25.6468 C   0  0  0  0  0  0  0  0  0  0  0  0
    7.0551  -11.8659   24.5143 C   0  0  0  0  0  0  0  0  0  0  0  0
    7.3036  -12.6713   23.4265 C   0  0  0  0  0  0  0  0  0  0  0  0
    6.9968  -14.0183   23.4120 C   0  0  0  0  0  0  0  0  0  0  0  0
    7.3038  -14.8424   22.2152 C   0  0  0  0  0  0  0  0  0  0  0  0
    8.6692  -15.3943   22.1685 C   0  0  2  0  0  0  0  0  0  0  0  0
    8.7718  -16.2915   21.0096 N   0  0  0  0  0  0  0  0  0  0  0  0
    9.2170  -15.9965   23.3783 C   0  0  0  0  0  0  0  0  0  0  0  0
    8.9602  -17.2243   23.5962 O   0  0  0  0  0  0  0  0  0  0  0  0
    6.4234  -14.5273   24.5506 C   0  0  0  0  0  0  0  0  0  0  0  0
    6.1703  -13.7351   25.6379 C   0  0  0  0  0  0  0  0  0  0  0  0
   11.9421  -16.3476   31.8633 O   0  0  0  0  0  0  0  0  0  0  0  0
   11.6217  -15.9486   30.5760 C   0  0  0  0  0  0  0  0  0  0  0  0
   10.6600  -14.9807   30.3230 C   0  0  0  0  0  0  0  0  0  0  0  0
   10.3569  -14.6011   29.0322 C   0  0  0  0  0  0  0  0  0  0  0  0
   10.9881  -15.1575   27.9219 C   0  0  0  0  0  0  0  0  0  0  0  0
   10.6550  -14.7417   26.5415 C   0  0  0  0  0  0  0  0  0  0  0  0
   10.3544  -15.8910   25.6245 C   0  0  2  0  0  0  0  0  0  0  0  0
   10.0137  -15.3343   24.3348 N   0  0  0  0  0  0  0  0  0  0  0  0
    9.4062  -16.8666   26.1348 C   0  0  0  0  0  0  0  0  0  0  0  0
    8.1647  -16.6451   26.0408 O   0  0  0  0  0  0  0  0  0  0  0  0
   11.9427  -16.1191   28.1788 C   0  0  0  0  0  0  0  0  0  0  0  0
   12.2472  -16.5001   29.4752 C   0  0  0  0  0  0  0  0  0  0  0  0
    9.7625  -18.0625   26.7365 O   0  0  0  0  0  0  0  0  0  0  0  0
  2  1  1  6
  2  3  1  0
  3  4  1  0
  4  5  1  0
  5  9  1  0
  5  6  2  0
  7  8  2  0
  7  2  1  0
 10 11  1  0
 11 21  2  0
 12 11  1  0
 12 13  2  0
 13 14  1  0
 14 20  2  0
 14 15  1  0
 16 15  1  1
 16 17  1  0
 17  7  1  0
 18 16  1  0
 19 18  2  0
 21 20  1  0
 23 24  2  0
 23 22  1  0
 25 24  1  0
 26 25  2  0
 27 26  1  0
 28 27  1  1
 28 30  1  0
 28 29  1  0
 29 18  1  0
 30 34  1  0
 31 30  2  0
 32 26  1  0
 32 33  2  0
 33 23  1  0
M  END
$$$$
