EYY.pdb
     RDKit          3D

 34 35  0  0  1  0  0  0  0  0999 V2000
    9.7781  -19.6592   15.2616 N   0  0  0  0  0  0  0  0  0  0  0  0
   10.9121  -18.8579   15.7696 C   0  0  1  0  0  0  0  0  0  0  0  0
   10.7615  -17.5124   15.1375 C   0  0  0  0  0  0  0  0  0  0  0  0
   11.2456  -17.3839   13.7399 C   0  0  0  0  0  0  0  0  0  0  0  0
   11.1869  -15.9444   13.3643 C   0  0  0  0  0  0  0  0  0  0  0  0
   12.1063  -15.1255   13.5928 O   0  0  0  0  0  0  0  0  0  0  0  0
   10.7656  -18.7097   17.2533 C   0  0  0  0  0  0  0  0  0  0  0  0
    9.6579  -18.5517   17.8031 O   0  0  0  0  0  0  0  0  0  0  0  0
   10.0606  -15.4155   12.7134 O   0  0  0  0  0  0  0  0  0  0  0  0
   12.6262  -20.8253   25.6541 O   0  0  0  0  0  0  0  0  0  0  0  0
   12.5714  -20.6396   24.2946 C   0  0  0  0  0  0  0  0  0  0  0  0
   13.6499  -20.1798   23.5926 C   0  0  0  0  0  0  0  0  0  0  0  0
   13.5812  -19.9974   22.2304 C   0  0  0  0  0  0  0  0  0  0  0  0
   12.4389  -20.2640   21.5003 C   0  0  0  0  0  0  0  0  0  0  0  0
   12.4284  -20.0645   20.0287 C   0  0  0  0  0  0  0  0  0  0  0  0
   11.7895  -18.8184   19.5704 C   0  0  2  0  0  0  0  0  0  0  0  0
   11.9075  -18.7427   18.1078 N   0  0  0  0  0  0  0  0  0  0  0  0
   12.1653  -17.5663   20.2164 C   0  0  0  0  0  0  0  0  0  0  0  0
   13.2044  -16.9684   19.7876 O   0  0  0  0  0  0  0  0  0  0  0  0
   11.3565  -20.7275   22.2058 C   0  0  0  0  0  0  0  0  0  0  0  0
   11.4131  -20.9113   23.5611 C   0  0  0  0  0  0  0  0  0  0  0  0
    7.5300  -13.1513   17.9762 O   0  0  0  0  0  0  0  0  0  0  0  0
    8.3068  -13.5924   19.0350 C   0  0  0  0  0  0  0  0  0  0  0  0
    9.6813  -13.4041   19.0683 C   0  0  0  0  0  0  0  0  0  0  0  0
   10.4341  -13.8538   20.1329 C   0  0  0  0  0  0  0  0  0  0  0  0
    9.8689  -14.5137   21.2219 C   0  0  0  0  0  0  0  0  0  0  0  0
   10.6867  -14.9911   22.3589 C   0  0  0  0  0  0  0  0  0  0  0  0
   11.9147  -15.7452   21.9400 C   0  0  2  0  0  0  0  0  0  0  0  0
   11.4733  -16.9537   21.2812 N   0  0  0  0  0  0  0  0  0  0  0  0
   12.9087  -15.9485   22.9801 C   0  0  0  0  0  0  0  0  0  0  0  0
   12.9989  -17.0728   23.5520 O   0  0  0  0  0  0  0  0  0  0  0  0
    8.5028  -14.6986   21.1836 C   0  0  0  0  0  0  0  0  0  0  0  0
    7.7468  -14.2467   20.1146 C   0  0  0  0  0  0  0  0  0  0  0  0
   13.7983  -14.9782   23.4117 O   0  0  0  0  0  0  0  0  0  0  0  0
  2  1  1  6
  2  3  1  0
  3  4  1  0
  4  5  1  0
  5  9  1  0
  5  6  2  0
  7  8  2  0
  7  2  1  0
 10 11  1  0
 11 21  2  0
 12 11  1  0
 12 13  2  0
 13 14  1  0
 14 20  2  0
 14 15  1  0
 16 15  1  1
 16 17  1  0
 17  7  1  0
 18 16  1  0
 19 18  2  0
 21 20  1  0
 23 24  2  0
 23 22  1  0
 25 24  1  0
 26 25  2  0
 27 26  1  0
 28 27  1  1
 28 30  1  0
 28 29  1  0
 29 18  1  0
 30 34  1  0
 31 30  2  0
 32 26  1  0
 32 33  2  0
 33 23  1  0
M  END
$$$$
