EYY.pdb
     RDKit          3D

 34 35  0  0  1  0  0  0  0  0999 V2000
    9.8214  -16.3726   17.7650 N   0  0  0  0  0  0  0  0  0  0  0  0
    9.7272  -17.2226   18.9710 C   0  0  1  0  0  0  0  0  0  0  0  0
   10.9736  -18.0467   18.9738 C   0  0  0  0  0  0  0  0  0  0  0  0
   11.5185  -18.4204   17.6443 C   0  0  0  0  0  0  0  0  0  0  0  0
   11.6570  -19.9022   17.6049 C   0  0  0  0  0  0  0  0  0  0  0  0
   12.6011  -20.5293   18.1374 O   0  0  0  0  0  0  0  0  0  0  0  0
    9.7343  -16.3383   20.1806 C   0  0  0  0  0  0  0  0  0  0  0  0
   10.7173  -15.6366   20.4896 O   0  0  0  0  0  0  0  0  0  0  0  0
   10.7044  -20.6971   16.9472 O   0  0  0  0  0  0  0  0  0  0  0  0
    6.3202  -11.7568   27.0345 O   0  0  0  0  0  0  0  0  0  0  0  0
    6.5291  -12.4993   25.8984 C   0  0  0  0  0  0  0  0  0  0  0  0
    7.0536  -11.9409   24.7668 C   0  0  0  0  0  0  0  0  0  0  0  0
    7.2571  -12.6962   23.6347 C   0  0  0  0  0  0  0  0  0  0  0  0
    6.9506  -14.0420   23.5727 C   0  0  0  0  0  0  0  0  0  0  0  0
    7.2080  -14.8110   22.3284 C   0  0  0  0  0  0  0  0  0  0  0  0
    8.5603  -15.3852   22.2157 C   0  0  2  0  0  0  0  0  0  0  0  0
    8.5981  -16.2657   21.0401 N   0  0  0  0  0  0  0  0  0  0  0  0
    9.1479  -16.0155   23.3920 C   0  0  0  0  0  0  0  0  0  0  0  0
    8.9033  -17.2499   23.5858 O   0  0  0  0  0  0  0  0  0  0  0  0
    6.4255  -14.6027   24.7102 C   0  0  0  0  0  0  0  0  0  0  0  0
    6.2175  -13.8606   25.8415 C   0  0  0  0  0  0  0  0  0  0  0  0
   11.6107  -16.5361   31.9134 O   0  0  0  0  0  0  0  0  0  0  0  0
   11.3572  -16.1320   30.6128 C   0  0  0  0  0  0  0  0  0  0  0  0
   11.6243  -16.9484   29.5229 C   0  0  0  0  0  0  0  0  0  0  0  0
   11.3649  -16.5234   28.2367 C   0  0  0  0  0  0  0  0  0  0  0  0
   10.8274  -15.2686   27.9585 C   0  0  0  0  0  0  0  0  0  0  0  0
   10.5527  -14.8237   26.5743 C   0  0  0  0  0  0  0  0  0  0  0  0
   10.3398  -15.9550   25.6115 C   0  0  2  0  0  0  0  0  0  0  0  0
    9.9709  -15.3741   24.3403 N   0  0  0  0  0  0  0  0  0  0  0  0
    9.4579  -17.0128   26.0748 C   0  0  0  0  0  0  0  0  0  0  0  0
    9.9448  -18.1192   26.4464 O   0  0  0  0  0  0  0  0  0  0  0  0
   10.5642  -14.4611   29.0450 C   0  0  0  0  0  0  0  0  0  0  0  0
   10.8246  -14.8882   30.3367 C   0  0  0  0  0  0  0  0  0  0  0  0
    8.0786  -16.9053   26.1466 O   0  0  0  0  0  0  0  0  0  0  0  0
  2  1  1  6
  2  3  1  0
  3  4  1  0
  4  5  1  0
  5  9  1  0
  5  6  2  0
  7  8  2  0
  7  2  1  0
 10 11  1  0
 11 21  2  0
 12 11  1  0
 12 13  2  0
 13 14  1  0
 14 20  2  0
 14 15  1  0
 16 15  1  1
 16 17  1  0
 17  7  1  0
 18 16  1  0
 19 18  2  0
 21 20  1  0
 23 24  2  0
 23 22  1  0
 25 24  1  0
 26 25  2  0
 27 26  1  0
 28 27  1  1
 28 30  1  0
 28 29  1  0
 29 18  1  0
 30 34  1  0
 31 30  2  0
 32 26  1  0
 32 33  2  0
 33 23  1  0
M  END
$$$$
