EYY.pdb
     RDKit          3D

 34 35  0  0  1  0  0  0  0  0999 V2000
    9.1542  -20.6370   22.3444 N   0  0  0  0  0  0  0  0  0  0  0  0
    9.9629  -20.0262   21.2679 C   0  0  1  0  0  0  0  0  0  0  0  0
    9.2249  -20.3197   20.0023 C   0  0  0  0  0  0  0  0  0  0  0  0
    9.8209  -21.3519   19.1172 C   0  0  0  0  0  0  0  0  0  0  0  0
    8.9293  -22.5442   19.1371 C   0  0  0  0  0  0  0  0  0  0  0  0
    7.7091  -22.4984   19.4148 O   0  0  0  0  0  0  0  0  0  0  0  0
    9.9901  -18.5424   21.4740 C   0  0  0  0  0  0  0  0  0  0  0  0
   10.8507  -17.8102   20.9473 O   0  0  0  0  0  0  0  0  0  0  0  0
    9.4284  -23.8215   18.8354 O   0  0  0  0  0  0  0  0  0  0  0  0
    7.7681  -10.5704   20.2903 O   0  0  0  0  0  0  0  0  0  0  0  0
    7.7492  -11.8570   20.7696 C   0  0  0  0  0  0  0  0  0  0  0  0
    7.9638  -12.9282   19.9487 C   0  0  0  0  0  0  0  0  0  0  0  0
    7.9413  -14.2127   20.4420 C   0  0  0  0  0  0  0  0  0  0  0  0
    7.7060  -14.4945   21.7739 C   0  0  0  0  0  0  0  0  0  0  0  0
    7.7106  -15.9003   22.2529 C   0  0  0  0  0  0  0  0  0  0  0  0
    9.0420  -16.4543   22.5555 C   0  0  2  0  0  0  0  0  0  0  0  0
    9.0170  -17.9003   22.2960 N   0  0  0  0  0  0  0  0  0  0  0  0
    9.6499  -16.1386   23.8428 C   0  0  0  0  0  0  0  0  0  0  0  0
   10.6270  -15.3224   23.8510 O   0  0  0  0  0  0  0  0  0  0  0  0
    7.4923  -13.4181   22.5984 C   0  0  0  0  0  0  0  0  0  0  0  0
    7.5110  -12.1363   22.1183 C   0  0  0  0  0  0  0  0  0  0  0  0
    5.5893  -11.6594   25.7435 O   0  0  0  0  0  0  0  0  0  0  0  0
    6.3820  -12.7280   26.1292 C   0  0  0  0  0  0  0  0  0  0  0  0
    5.9310  -14.0390   26.0680 C   0  0  0  0  0  0  0  0  0  0  0  0
    6.7382  -15.0867   26.4594 C   0  0  0  0  0  0  0  0  0  0  0  0
    8.0345  -14.8950   26.9322 C   0  0  0  0  0  0  0  0  0  0  0  0
    8.8916  -16.0270   27.3486 C   0  0  0  0  0  0  0  0  0  0  0  0
    9.9334  -16.3961   26.3335 C   0  0  2  0  0  0  0  0  0  0  0  0
    9.2468  -16.6602   25.0892 N   0  0  0  0  0  0  0  0  0  0  0  0
   10.8672  -17.4310   26.7437 C   0  0  0  0  0  0  0  0  0  0  0  0
   11.5479  -17.2809   27.7988 O   0  0  0  0  0  0  0  0  0  0  0  0
    8.4776  -13.5904   26.9914 C   0  0  0  0  0  0  0  0  0  0  0  0
    7.6670  -12.5384   26.5981 C   0  0  0  0  0  0  0  0  0  0  0  0
   11.0802  -18.6112   26.0502 O   0  0  0  0  0  0  0  0  0  0  0  0
  2  1  1  1
  2  3  1  0
  3  4  1  0
  4  5  1  0
  5  9  1  0
  5  6  2  0
  7  8  2  0
  7  2  1  0
 10 11  1  0
 11 21  2  0
 12 11  1  0
 12 13  2  0
 13 14  1  0
 14 20  2  0
 14 15  1  0
 16 15  1  1
 16 17  1  0
 17  7  1  0
 18 16  1  0
 19 18  2  0
 21 20  1  0
 23 24  2  0
 23 22  1  0
 25 24  1  0
 26 25  2  0
 27 26  1  0
 28 27  1  1
 28 30  1  0
 28 29  1  0
 29 18  1  0
 30 34  1  0
 31 30  2  0
 32 26  1  0
 32 33  2  0
 33 23  1  0
M  END
$$$$
