EYY.pdb
     RDKit          3D

 34 35  0  0  1  0  0  0  0  0999 V2000
    8.8107  -18.4386   18.7961 N   0  0  0  0  0  0  0  0  0  0  0  0
   10.1443  -17.8359   19.0064 C   0  0  1  0  0  0  0  0  0  0  0  0
   10.4708  -17.1386   17.7259 C   0  0  0  0  0  0  0  0  0  0  0  0
   10.1783  -17.8856   16.4766 C   0  0  0  0  0  0  0  0  0  0  0  0
   10.5523  -17.0189   15.3253 C   0  0  0  0  0  0  0  0  0  0  0  0
   11.7340  -16.7739   14.9911 O   0  0  0  0  0  0  0  0  0  0  0  0
   10.0398  -16.8130   20.0963 C   0  0  0  0  0  0  0  0  0  0  0  0
   10.9617  -16.0142   20.3536 O   0  0  0  0  0  0  0  0  0  0  0  0
    9.5662  -16.4128   14.5303 O   0  0  0  0  0  0  0  0  0  0  0  0
    6.2649  -12.0247   26.6530 O   0  0  0  0  0  0  0  0  0  0  0  0
    6.5333  -12.8640   25.5999 C   0  0  0  0  0  0  0  0  0  0  0  0
    6.2436  -14.1982   25.6582 C   0  0  0  0  0  0  0  0  0  0  0  0
    6.5186  -15.0284   24.5958 C   0  0  0  0  0  0  0  0  0  0  0  0
    7.0931  -14.5733   23.4247 C   0  0  0  0  0  0  0  0  0  0  0  0
    7.3514  -15.5130   22.3040 C   0  0  0  0  0  0  0  0  0  0  0  0
    8.7724  -15.8069   22.0482 C   0  0  2  0  0  0  0  0  0  0  0  0
    8.8625  -16.7137   20.8957 N   0  0  0  0  0  0  0  0  0  0  0  0
    9.6014  -16.2520   23.1622 C   0  0  0  0  0  0  0  0  0  0  0  0
    9.6930  -17.5052   23.3673 O   0  0  0  0  0  0  0  0  0  0  0  0
    7.3823  -13.2327   23.3660 C   0  0  0  0  0  0  0  0  0  0  0  0
    7.1144  -12.3979   24.4173 C   0  0  0  0  0  0  0  0  0  0  0  0
   11.2045  -15.9303   31.8081 O   0  0  0  0  0  0  0  0  0  0  0  0
   10.9105  -15.6717   30.4792 C   0  0  0  0  0  0  0  0  0  0  0  0
   11.2391  -14.4672   29.8734 C   0  0  0  0  0  0  0  0  0  0  0  0
   10.9345  -14.2321   28.5489 C   0  0  0  0  0  0  0  0  0  0  0  0
   10.2890  -15.1748   27.7519 C   0  0  0  0  0  0  0  0  0  0  0  0
    9.9680  -14.9115   26.3317 C   0  0  0  0  0  0  0  0  0  0  0  0
   10.7174  -15.7909   25.3740 C   0  0  2  0  0  0  0  0  0  0  0  0
   10.3176  -15.4105   24.0381 N   0  0  0  0  0  0  0  0  0  0  0  0
   10.6458  -17.2162   25.6470 C   0  0  0  0  0  0  0  0  0  0  0  0
   11.6662  -17.8253   26.0795 O   0  0  0  0  0  0  0  0  0  0  0  0
    9.9644  -16.3698   28.3588 C   0  0  0  0  0  0  0  0  0  0  0  0
   10.2705  -16.6060   29.6889 C   0  0  0  0  0  0  0  0  0  0  0  0
    9.5113  -17.9906   25.4671 O   0  0  0  0  0  0  0  0  0  0  0  0
  2  1  1  6
  2  3  1  0
  3  4  1  0
  4  5  1  0
  5  9  1  0
  5  6  2  0
  7  8  2  0
  7  2  1  0
 10 11  1  0
 11 21  2  0
 12 11  1  0
 12 13  2  0
 13 14  1  0
 14 20  2  0
 14 15  1  0
 16 15  1  1
 16 17  1  0
 17  7  1  0
 18 16  1  0
 19 18  2  0
 21 20  1  0
 23 24  2  0
 23 22  1  0
 25 24  1  0
 26 25  2  0
 27 26  1  0
 28 27  1  1
 28 30  1  0
 28 29  1  0
 29 18  1  0
 30 34  1  0
 31 30  2  0
 32 26  1  0
 32 33  2  0
 33 23  1  0
M  END
$$$$
