EYY.pdb
     RDKit          3D

 34 35  0  0  1  0  0  0  0  0999 V2000
   10.1620  -17.1868   17.8318 N   0  0  0  0  0  0  0  0  0  0  0  0
    9.0549  -17.4223   18.7831 C   0  0  1  0  0  0  0  0  0  0  0  0
    9.1814  -18.8538   19.1923 C   0  0  0  0  0  0  0  0  0  0  0  0
    9.3521  -19.8393   18.0951 C   0  0  0  0  0  0  0  0  0  0  0  0
    9.3923  -21.1986   18.7011 C   0  0  0  0  0  0  0  0  0  0  0  0
   10.2064  -22.0887   18.3649 O   0  0  0  0  0  0  0  0  0  0  0  0
    9.2688  -16.5584   19.9885 C   0  0  0  0  0  0  0  0  0  0  0  0
   10.4043  -16.3076   20.4379 O   0  0  0  0  0  0  0  0  0  0  0  0
    8.4896  -21.5627   19.7132 O   0  0  0  0  0  0  0  0  0  0  0  0
    6.9397  -11.8738   27.2405 O   0  0  0  0  0  0  0  0  0  0  0  0
    6.9582  -12.5262   26.0323 C   0  0  0  0  0  0  0  0  0  0  0  0
    7.3656  -11.8994   24.8884 C   0  0  0  0  0  0  0  0  0  0  0  0
    7.3786  -12.5647   23.6839 C   0  0  0  0  0  0  0  0  0  0  0  0
    6.9887  -13.8842   23.5581 C   0  0  0  0  0  0  0  0  0  0  0  0
    7.0399  -14.5562   22.2347 C   0  0  0  0  0  0  0  0  0  0  0  0
    8.3339  -15.1741   21.8959 C   0  0  2  0  0  0  0  0  0  0  0  0
    8.1627  -15.9817   20.6805 N   0  0  0  0  0  0  0  0  0  0  0  0
    9.0527  -15.8973   22.9382 C   0  0  0  0  0  0  0  0  0  0  0  0
    8.6045  -17.0381   23.2829 O   0  0  0  0  0  0  0  0  0  0  0  0
    6.5812  -14.5138   24.7078 C   0  0  0  0  0  0  0  0  0  0  0  0
    6.5629  -13.8613   25.9111 C   0  0  0  0  0  0  0  0  0  0  0  0
   11.2009  -14.6961   31.1078 O   0  0  0  0  0  0  0  0  0  0  0  0
   10.8139  -15.0451   29.8242 C   0  0  0  0  0  0  0  0  0  0  0  0
   10.6560  -16.3684   29.4370 C   0  0  0  0  0  0  0  0  0  0  0  0
   10.2715  -16.6914   28.1525 C   0  0  0  0  0  0  0  0  0  0  0  0
   10.0223  -15.7240   27.1816 C   0  0  0  0  0  0  0  0  0  0  0  0
    9.6095  -16.0827   25.8066 C   0  0  0  0  0  0  0  0  0  0  0  0
   10.7321  -16.0367   24.8118 C   0  0  2  0  0  0  0  0  0  0  0  0
   10.2104  -15.4422   23.6020 N   0  0  0  0  0  0  0  0  0  0  0  0
   11.4453  -17.2873   24.6156 C   0  0  0  0  0  0  0  0  0  0  0  0
   11.0865  -18.0777   23.6959 O   0  0  0  0  0  0  0  0  0  0  0  0
   10.1810  -14.4107   27.5713 C   0  0  0  0  0  0  0  0  0  0  0  0
   10.5669  -14.0864   28.8615 C   0  0  0  0  0  0  0  0  0  0  0  0
   12.5249  -17.6997   25.3793 O   0  0  0  0  0  0  0  0  0  0  0  0
  2  1  1  6
  2  3  1  0
  3  4  1  0
  4  5  1  0
  5  9  1  0
  5  6  2  0
  7  8  2  0
  7  2  1  0
 10 11  1  0
 11 21  2  0
 12 11  1  0
 12 13  2  0
 13 14  1  0
 14 20  2  0
 14 15  1  0
 16 15  1  1
 16 17  1  0
 17  7  1  0
 18 16  1  0
 19 18  2  0
 21 20  1  0
 23 24  2  0
 23 22  1  0
 25 24  1  0
 26 25  2  0
 27 26  1  0
 28 27  1  1
 28 30  1  0
 28 29  1  0
 29 18  1  0
 30 34  1  0
 31 30  2  0
 32 26  1  0
 32 33  2  0
 33 23  1  0
M  END
$$$$
