EYY.pdb
     RDKit          3D

 34 35  0  0  1  0  0  0  0  0999 V2000
    6.3755  -19.8530   17.4090 N   0  0  0  0  0  0  0  0  0  0  0  0
    7.7281  -19.6649   17.9757 C   0  0  1  0  0  0  0  0  0  0  0  0
    8.3800  -18.6343   17.1122 C   0  0  0  0  0  0  0  0  0  0  0  0
    9.7294  -18.1808   17.5335 C   0  0  0  0  0  0  0  0  0  0  0  0
   10.1767  -17.1257   16.5830 C   0  0  0  0  0  0  0  0  0  0  0  0
    9.4823  -16.1334   16.2646 O   0  0  0  0  0  0  0  0  0  0  0  0
    7.5927  -19.1127   19.3620 C   0  0  0  0  0  0  0  0  0  0  0  0
    6.8287  -18.1654   19.6325 O   0  0  0  0  0  0  0  0  0  0  0  0
   11.4411  -17.1927   15.9759 O   0  0  0  0  0  0  0  0  0  0  0  0
    8.0697  -19.0346   28.2507 O   0  0  0  0  0  0  0  0  0  0  0  0
    8.0839  -19.3542   26.9153 C   0  0  0  0  0  0  0  0  0  0  0  0
    6.9575  -19.2631   26.1471 C   0  0  0  0  0  0  0  0  0  0  0  0
    6.9854  -19.5872   24.8100 C   0  0  0  0  0  0  0  0  0  0  0  0
    8.1333  -20.0161   24.1719 C   0  0  0  0  0  0  0  0  0  0  0  0
    8.1078  -20.3358   22.7218 C   0  0  0  0  0  0  0  0  0  0  0  0
    8.2024  -19.1725   21.8224 C   0  0  2  0  0  0  0  0  0  0  0  0
    8.3469  -19.6580   20.4432 N   0  0  0  0  0  0  0  0  0  0  0  0
    9.1669  -18.1258   22.1392 C   0  0  0  0  0  0  0  0  0  0  0  0
   10.3853  -18.3320   21.8324 O   0  0  0  0  0  0  0  0  0  0  0  0
    9.2650  -20.1057   24.9436 C   0  0  0  0  0  0  0  0  0  0  0  0
    9.2483  -19.7872   26.2749 C   0  0  0  0  0  0  0  0  0  0  0  0
    6.9911  -13.3075   17.9238 O   0  0  0  0  0  0  0  0  0  0  0  0
    7.5116  -13.6166   19.1699 C   0  0  0  0  0  0  0  0  0  0  0  0
    6.7265  -14.1437   20.1856 C   0  0  0  0  0  0  0  0  0  0  0  0
    7.2670  -14.4420   21.4188 C   0  0  0  0  0  0  0  0  0  0  0  0
    8.6126  -14.2355   21.7147 C   0  0  0  0  0  0  0  0  0  0  0  0
    9.1815  -14.5601   23.0415 C   0  0  0  0  0  0  0  0  0  0  0  0
    9.8586  -15.8983   23.0931 C   0  0  2  0  0  0  0  0  0  0  0  0
    8.8669  -16.8952   22.7585 N   0  0  0  0  0  0  0  0  0  0  0  0
   10.6104  -16.1724   24.3059 C   0  0  0  0  0  0  0  0  0  0  0  0
   11.6013  -15.4472   24.6085 O   0  0  0  0  0  0  0  0  0  0  0  0
    9.3883  -13.7112   20.7021 C   0  0  0  0  0  0  0  0  0  0  0  0
    8.8454  -13.4119   19.4635 C   0  0  0  0  0  0  0  0  0  0  0  0
   10.3204  -17.1985   25.1903 O   0  0  0  0  0  0  0  0  0  0  0  0
  2  1  1  6
  2  3  1  0
  3  4  1  0
  4  5  1  0
  5  9  1  0
  5  6  2  0
  7  8  2  0
  7  2  1  0
 10 11  1  0
 11 21  2  0
 12 11  1  0
 12 13  2  0
 13 14  1  0
 14 20  2  0
 14 15  1  0
 16 15  1  1
 16 17  1  0
 17  7  1  0
 18 16  1  0
 19 18  2  0
 21 20  1  0
 23 24  2  0
 23 22  1  0
 25 24  1  0
 26 25  2  0
 27 26  1  0
 28 27  1  1
 28 30  1  0
 28 29  1  0
 29 18  1  0
 30 34  1  0
 31 30  2  0
 32 26  1  0
 32 33  2  0
 33 23  1  0
M  END
$$$$
