EYY.pdb
     RDKit          3D

 34 35  0  0  1  0  0  0  0  0999 V2000
    9.0065  -18.3990   20.4190 N   0  0  0  0  0  0  0  0  0  0  0  0
   10.3946  -17.9006   20.5229 C   0  0  1  0  0  0  0  0  0  0  0  0
   10.8050  -17.5755   19.1234 C   0  0  0  0  0  0  0  0  0  0  0  0
   10.0578  -18.2649   18.0414 C   0  0  0  0  0  0  0  0  0  0  0  0
   10.8371  -18.1202   16.7811 C   0  0  0  0  0  0  0  0  0  0  0  0
   11.2908  -17.0307   16.3624 O   0  0  0  0  0  0  0  0  0  0  0  0
   10.3894  -16.6364   21.3270 C   0  0  0  0  0  0  0  0  0  0  0  0
   11.4278  -15.9854   21.5554 O   0  0  0  0  0  0  0  0  0  0  0  0
   11.1114  -19.2348   15.9722 O   0  0  0  0  0  0  0  0  0  0  0  0
    7.5656  -13.0082   16.7086 O   0  0  0  0  0  0  0  0  0  0  0  0
    7.6633  -13.2787   18.0513 C   0  0  0  0  0  0  0  0  0  0  0  0
    8.3053  -12.4279   18.9064 C   0  0  0  0  0  0  0  0  0  0  0  0
    8.3967  -12.7115   20.2499 C   0  0  0  0  0  0  0  0  0  0  0  0
    7.8540  -13.8528   20.8083 C   0  0  0  0  0  0  0  0  0  0  0  0
    7.9688  -14.0982   22.2685 C   0  0  0  0  0  0  0  0  0  0  0  0
    9.1385  -14.8944   22.6795 C   0  0  2  0  0  0  0  0  0  0  0  0
    9.1760  -16.1216   21.8726 N   0  0  0  0  0  0  0  0  0  0  0  0
    9.3304  -15.1656   24.0994 C   0  0  0  0  0  0  0  0  0  0  0  0
    9.5199  -14.1709   24.8711 O   0  0  0  0  0  0  0  0  0  0  0  0
    7.2077  -14.7063   19.9491 C   0  0  0  0  0  0  0  0  0  0  0  0
    7.1121  -14.4349   18.6108 C   0  0  0  0  0  0  0  0  0  0  0  0
    5.7340  -11.3428   26.9500 O   0  0  0  0  0  0  0  0  0  0  0  0
    6.2420  -12.6273   26.8440 C   0  0  0  0  0  0  0  0  0  0  0  0
    5.7525  -13.5385   25.9188 C   0  0  0  0  0  0  0  0  0  0  0  0
    6.2732  -14.8127   25.8331 C   0  0  0  0  0  0  0  0  0  0  0  0
    7.3058  -15.2549   26.6571 C   0  0  0  0  0  0  0  0  0  0  0  0
    7.8569  -16.6244   26.5555 C   0  0  0  0  0  0  0  0  0  0  0  0
    9.2944  -16.6624   26.1263 C   0  0  2  0  0  0  0  0  0  0  0  0
    9.3227  -16.4422   24.6981 N   0  0  0  0  0  0  0  0  0  0  0  0
   10.0515  -17.8174   26.5781 C   0  0  0  0  0  0  0  0  0  0  0  0
   10.5489  -18.6134   25.7307 O   0  0  0  0  0  0  0  0  0  0  0  0
    7.7883  -14.3458   27.5749 C   0  0  0  0  0  0  0  0  0  0  0  0
    7.2654  -13.0660   27.6608 C   0  0  0  0  0  0  0  0  0  0  0  0
   10.2825  -18.1292   27.9079 O   0  0  0  0  0  0  0  0  0  0  0  0
  2  1  1  6
  2  3  1  0
  3  4  1  0
  4  5  1  0
  5  9  1  0
  5  6  2  0
  7  8  2  0
  7  2  1  0
 10 11  1  0
 11 21  2  0
 12 11  1  0
 12 13  2  0
 13 14  1  0
 14 20  2  0
 14 15  1  0
 16 15  1  1
 16 17  1  0
 17  7  1  0
 18 16  1  0
 19 18  2  0
 21 20  1  0
 23 24  2  0
 23 22  1  0
 25 24  1  0
 26 25  2  0
 27 26  1  0
 28 27  1  6
 28 30  1  0
 28 29  1  0
 29 18  1  0
 30 34  1  0
 31 30  2  0
 32 26  1  0
 32 33  2  0
 33 23  1  0
M  END
$$$$
