QKN.pdb
     RDKit          3D

 27 26  0  0  1  0  0  0  0  0999 V2000
   21.0475  -17.4614  -14.2602 N   0  0  0  0  0  0  0  0  0  0  0  0
   19.8137  -18.1638  -14.2991 C   0  0  0  0  0  0  0  0  0  0  0  0
   19.7572  -19.4137  -14.1712 O   0  0  0  0  0  0  0  0  0  0  0  0
   18.5737  -17.3430  -14.5008 C   0  0  0  0  0  0  0  0  0  0  0  0
   18.8624  -16.2451  -15.4975 C   0  0  0  0  0  0  0  0  0  0  0  0
   17.6964  -15.2981  -15.6383 C   0  0  2  0  0  0  0  0  0  0  0  0
   16.5831  -16.0137  -16.1993 N   0  0  0  0  0  0  0  0  0  0  0  0
   18.0562  -14.0829  -16.3723 C   0  0  0  0  0  0  0  0  0  0  0  0
   18.3714  -14.1766  -17.5786 O   0  0  0  0  0  0  0  0  0  0  0  0
   18.0756  -12.7589  -15.8005 N   0  0  0  0  0  0  0  0  0  0  0  0
   18.3509  -11.6001  -16.5946 C   0  0  1  0  0  0  0  0  0  0  0  0
   17.3690  -11.3699  -17.6654 C   0  0  0  0  0  0  0  0  0  0  0  0
   17.4251  -10.2209  -18.5618 C   0  0  0  0  0  0  0  0  0  0  0  0
   16.4017  -10.0475  -19.6226 C   0  0  0  0  0  0  0  0  0  0  0  0
   16.7001   -8.7685  -20.4501 C   0  0  0  0  0  0  0  0  0  0  0  0
   15.8597   -8.7343  -21.6250 N   0  0  0  0  0  0  0  0  0  0  0  0
   18.6184  -10.4016  -15.7512 C   0  0  0  0  0  0  0  0  0  0  0  0
   17.9361  -10.2718  -14.7124 O   0  0  0  0  0  0  0  0  0  0  0  0
   20.5462   -6.0024  -13.9580 N   0  0  0  0  0  0  0  0  0  0  0  0
   21.4420   -7.1048  -13.8143 C   0  0  0  0  0  0  0  0  0  0  0  0
   22.4230   -6.9446  -13.0394 O   0  0  0  0  0  0  0  0  0  0  0  0
   21.1830   -8.3486  -14.5618 C   0  0  0  0  0  0  0  0  0  0  0  0
   19.9241   -8.2509  -15.3259 C   0  0  2  0  0  0  0  0  0  0  0  0
   19.5869   -9.4309  -16.0690 N   0  0  0  0  0  0  0  0  0  0  0  0
   19.8309   -6.9887  -16.1124 C   0  0  0  0  0  0  0  0  0  0  0  0
   20.2975   -6.8464  -17.2689 O   0  0  0  0  0  0  0  0  0  0  0  0
   19.1953   -5.8453  -15.5979 O   0  0  0  0  0  0  0  0  0  0  0  0
  1  2  1  0
  2  3  2  0
  4  5  1  0
  4  2  1  0
  5  6  1  0
  6  8  1  0
  6  7  1  6
  8  9  2  0
 10 11  1  0
 10  8  1  0
 11 12  1  6
 13 14  1  0
 13 12  1  0
 14 15  1  0
 16 15  1  0
 17 24  1  0
 17 11  1  0
 18 17  2  0
 19 20  1  0
 20 21  2  0
 20 22  1  0
 23 22  1  6
 23 24  1  0
 25 27  1  0
 25 23  1  0
 26 25  2  0
M  END
$$$$
