QKN.pdb
     RDKit          3D

 27 26  0  0  1  0  0  0  0  0999 V2000
   13.2641  -18.7636  -17.3819 N   0  0  0  0  0  0  0  0  0  0  0  0
   13.5282  -19.4720  -16.1795 C   0  0  0  0  0  0  0  0  0  0  0  0
   12.6023  -19.8826  -15.4340 O   0  0  0  0  0  0  0  0  0  0  0  0
   14.9698  -19.7100  -15.8370 C   0  0  0  0  0  0  0  0  0  0  0  0
   15.8388  -19.1786  -16.9526 C   0  0  0  0  0  0  0  0  0  0  0  0
   17.3018  -19.4421  -16.6945 C   0  0  2  0  0  0  0  0  0  0  0  0
   17.4212  -20.3387  -15.5773 N   0  0  0  0  0  0  0  0  0  0  0  0
   18.0700  -18.2035  -16.5511 C   0  0  0  0  0  0  0  0  0  0  0  0
   18.2326  -17.7221  -15.4087 O   0  0  0  0  0  0  0  0  0  0  0  0
   18.6664  -17.4808  -17.6476 N   0  0  0  0  0  0  0  0  0  0  0  0
   19.4686  -16.3148  -17.4327 C   0  0  1  0  0  0  0  0  0  0  0  0
   20.6868  -16.2748  -18.2561 C   0  0  0  0  0  0  0  0  0  0  0  0
   21.6231  -15.1569  -18.2367 C   0  0  0  0  0  0  0  0  0  0  0  0
   22.8237  -15.1698  -19.1091 C   0  0  0  0  0  0  0  0  0  0  0  0
   23.6738  -13.8936  -18.8683 C   0  0  0  0  0  0  0  0  0  0  0  0
   24.9154  -13.9825  -19.6023 N   0  0  0  0  0  0  0  0  0  0  0  0
   18.6577  -15.0664  -17.4908 C   0  0  0  0  0  0  0  0  0  0  0  0
   17.8728  -14.9410  -18.4550 O   0  0  0  0  0  0  0  0  0  0  0  0
   16.5478  -10.5388  -16.4624 N   0  0  0  0  0  0  0  0  0  0  0  0
   17.2936  -10.8379  -15.2823 C   0  0  0  0  0  0  0  0  0  0  0  0
   17.1815  -10.0337  -14.3183 O   0  0  0  0  0  0  0  0  0  0  0  0
   18.1394  -12.0446  -15.2484 C   0  0  0  0  0  0  0  0  0  0  0  0
   18.0511  -12.7851  -16.5220 C   0  0  2  0  0  0  0  0  0  0  0  0
   18.7375  -14.0449  -16.5258 N   0  0  0  0  0  0  0  0  0  0  0  0
   18.3484  -11.9262  -17.7028 C   0  0  0  0  0  0  0  0  0  0  0  0
   19.5067  -11.5988  -18.0586 O   0  0  0  0  0  0  0  0  0  0  0  0
   17.3240  -11.4150  -18.5185 O   0  0  0  0  0  0  0  0  0  0  0  0
  1  2  1  0
  2  3  2  0
  4  5  1  0
  4  2  1  0
  5  6  1  0
  6  8  1  0
  6  7  1  1
  8  9  2  0
 10 11  1  0
 10  8  1  0
 11 12  1  6
 13 14  1  0
 13 12  1  0
 14 15  1  0
 16 15  1  0
 17 24  1  0
 17 11  1  0
 18 17  2  0
 19 20  1  0
 20 21  2  0
 20 22  1  0
 23 22  1  1
 23 24  1  0
 25 27  1  0
 25 23  1  0
 26 25  2  0
M  END
$$$$
