QKN.pdb
     RDKit          3D

 27 26  0  0  1  0  0  0  0  0999 V2000
   23.4388  -13.8138  -16.0666 N   0  0  0  0  0  0  0  0  0  0  0  0
   24.6970  -14.4726  -16.0538 C   0  0  0  0  0  0  0  0  0  0  0  0
   24.7900  -15.7245  -15.9781 O   0  0  0  0  0  0  0  0  0  0  0  0
   25.9172  -13.6028  -16.1352 C   0  0  0  0  0  0  0  0  0  0  0  0
   25.4897  -12.1597  -16.2650 C   0  0  0  0  0  0  0  0  0  0  0  0
   25.3226  -11.7545  -17.7086 C   0  0  2  0  0  0  0  0  0  0  0  0
   26.6042  -11.8110  -18.3572 N   0  0  0  0  0  0  0  0  0  0  0  0
   24.6399  -10.4661  -17.8461 C   0  0  0  0  0  0  0  0  0  0  0  0
   25.3224   -9.4185  -17.8545 O   0  0  0  0  0  0  0  0  0  0  0  0
   23.2122  -10.3080  -17.9756 N   0  0  0  0  0  0  0  0  0  0  0  0
   22.6121   -9.0237  -18.1743 C   0  0  1  0  0  0  0  0  0  0  0  0
   21.4216   -9.0542  -19.0378 C   0  0  0  0  0  0  0  0  0  0  0  0
   20.6519   -7.8616  -19.3728 C   0  0  0  0  0  0  0  0  0  0  0  0
   21.2471   -6.7995  -20.2215 C   0  0  0  0  0  0  0  0  0  0  0  0
   20.2501   -5.6206  -20.3811 C   0  0  0  0  0  0  0  0  0  0  0  0
   20.8398   -4.5831  -21.1959 N   0  0  0  0  0  0  0  0  0  0  0  0
   22.4073   -8.3030  -16.8867 C   0  0  0  0  0  0  0  0  0  0  0  0
   21.8850   -8.9454  -15.9507 O   0  0  0  0  0  0  0  0  0  0  0  0
   22.2285   -4.6621  -13.2883 N   0  0  0  0  0  0  0  0  0  0  0  0
   22.5684   -3.9541  -14.4806 C   0  0  0  0  0  0  0  0  0  0  0  0
   22.7020   -2.7046  -14.3828 O   0  0  0  0  0  0  0  0  0  0  0  0
   22.7426   -4.7006  -15.7396 C   0  0  0  0  0  0  0  0  0  0  0  0
   22.5193   -6.1444  -15.5305 C   0  0  2  0  0  0  0  0  0  0  0  0
   22.7700   -6.9579  -16.6853 N   0  0  0  0  0  0  0  0  0  0  0  0
   21.2217   -6.4288  -14.8555 C   0  0  0  0  0  0  0  0  0  0  0  0
   21.1129   -6.7277  -13.6413 O   0  0  0  0  0  0  0  0  0  0  0  0
   20.0019   -6.3772  -15.5523 O   0  0  0  0  0  0  0  0  0  0  0  0
  1  2  1  0
  2  3  2  0
  4  5  1  0
  4  2  1  0
  5  6  1  0
  6  8  1  0
  6  7  1  1
  8  9  2  0
 10 11  1  0
 10  8  1  0
 11 12  1  1
 13 14  1  0
 13 12  1  0
 14 15  1  0
 16 15  1  0
 17 24  1  0
 17 11  1  0
 18 17  2  0
 19 20  1  0
 20 21  2  0
 20 22  1  0
 23 22  1  6
 23 24  1  0
 25 27  1  0
 25 23  1  0
 26 25  2  0
M  END
$$$$
