QKN.pdb
     RDKit          3D

 27 26  0  0  1  0  0  0  0  0999 V2000
   24.9252  -21.6963  -10.7157 N   0  0  0  0  0  0  0  0  0  0  0  0
   23.7135  -21.0951  -10.2826 C   0  0  0  0  0  0  0  0  0  0  0  0
   23.1916  -21.3777   -9.1738 O   0  0  0  0  0  0  0  0  0  0  0  0
   23.0806  -20.1020  -11.2128 C   0  0  0  0  0  0  0  0  0  0  0  0
   23.8770  -20.0462  -12.4953 C   0  0  0  0  0  0  0  0  0  0  0  0
   22.9839  -19.8851  -13.7005 C   0  0  2  0  0  0  0  0  0  0  0  0
   22.5524  -21.1857  -14.1349 N   0  0  0  0  0  0  0  0  0  0  0  0
   23.6130  -19.0826  -14.7518 C   0  0  0  0  0  0  0  0  0  0  0  0
   23.9974  -17.9244  -14.4796 O   0  0  0  0  0  0  0  0  0  0  0  0
   23.8284  -19.5334  -16.1048 N   0  0  0  0  0  0  0  0  0  0  0  0
   24.5140  -18.7254  -17.0672 C   0  0  1  0  0  0  0  0  0  0  0  0
   25.6789  -19.3879  -17.6736 C   0  0  0  0  0  0  0  0  0  0  0  0
   26.4925  -20.3699  -16.9660 C   0  0  0  0  0  0  0  0  0  0  0  0
   27.6067  -21.0609  -17.6616 C   0  0  0  0  0  0  0  0  0  0  0  0
   28.3404  -22.0144  -16.6810 C   0  0  0  0  0  0  0  0  0  0  0  0
   29.5123  -22.5703  -17.3179 N   0  0  0  0  0  0  0  0  0  0  0  0
   23.5752  -18.1267  -18.0570 C   0  0  0  0  0  0  0  0  0  0  0  0
   22.5069  -18.7383  -18.2715 O   0  0  0  0  0  0  0  0  0  0  0  0
   20.3686  -15.6110  -19.4329 N   0  0  0  0  0  0  0  0  0  0  0  0
   20.7146  -15.4975  -18.0524 C   0  0  0  0  0  0  0  0  0  0  0  0
   19.7641  -15.3591  -17.2363 O   0  0  0  0  0  0  0  0  0  0  0  0
   22.1336  -15.5464  -17.6566 C   0  0  0  0  0  0  0  0  0  0  0  0
   23.0003  -15.7643  -18.8312 C   0  0  2  0  0  0  0  0  0  0  0  0
   23.8363  -16.9270  -18.7453 N   0  0  0  0  0  0  0  0  0  0  0  0
   23.7192  -14.5269  -19.2468 C   0  0  0  0  0  0  0  0  0  0  0  0
   24.8292  -14.1705  -18.7818 O   0  0  0  0  0  0  0  0  0  0  0  0
   23.1882  -13.6562  -20.2143 O   0  0  0  0  0  0  0  0  0  0  0  0
  1  2  1  0
  2  3  2  0
  4  5  1  0
  4  2  1  0
  5  6  1  0
  6  8  1  0
  6  7  1  6
  8  9  2  0
 10 11  1  0
 10  8  1  0
 11 12  1  6
 13 14  1  0
 13 12  1  0
 14 15  1  0
 16 15  1  0
 17 24  1  0
 17 11  1  0
 18 17  2  0
 19 20  1  0
 20 21  2  0
 20 22  1  0
 23 22  1  1
 23 24  1  0
 25 27  1  0
 25 23  1  0
 26 25  2  0
M  END
$$$$
