QKN.pdb
     RDKit          3D

 27 26  0  0  1  0  0  0  0  0999 V2000
   16.1007  -13.9394  -14.4731 N   0  0  0  0  0  0  0  0  0  0  0  0
   15.1977  -13.6075  -15.5180 C   0  0  0  0  0  0  0  0  0  0  0  0
   14.1904  -14.3154  -15.7746 O   0  0  0  0  0  0  0  0  0  0  0  0
   15.5014  -12.3672  -16.3063 C   0  0  0  0  0  0  0  0  0  0  0  0
   16.6988  -11.6745  -15.6992 C   0  0  0  0  0  0  0  0  0  0  0  0
   17.9388  -11.8659  -16.5371 C   0  0  2  0  0  0  0  0  0  0  0  0
   18.1560  -13.2739  -16.7285 N   0  0  0  0  0  0  0  0  0  0  0  0
   19.0936  -11.1527  -15.9871 C   0  0  0  0  0  0  0  0  0  0  0  0
   19.0685  -10.7950  -14.7892 O   0  0  0  0  0  0  0  0  0  0  0  0
   20.2826  -10.8242  -16.7346 N   0  0  0  0  0  0  0  0  0  0  0  0
   21.3905  -10.1503  -16.1284 C   0  0  1  0  0  0  0  0  0  0  0  0
   22.7009  -10.6682  -16.5507 C   0  0  0  0  0  0  0  0  0  0  0  0
   23.9645  -10.1153  -16.0768 C   0  0  0  0  0  0  0  0  0  0  0  0
   25.2512  -10.6030  -16.6328 C   0  0  0  0  0  0  0  0  0  0  0  0
   26.4410   -9.9763  -15.8575 C   0  0  0  0  0  0  0  0  0  0  0  0
   27.6912  -10.4266  -16.4251 N   0  0  0  0  0  0  0  0  0  0  0  0
   21.2627   -8.6698  -16.2330 C   0  0  0  0  0  0  0  0  0  0  0  0
   21.1862   -8.1840  -17.3819 O   0  0  0  0  0  0  0  0  0  0  0  0
   21.1836   -3.6788  -15.2276 N   0  0  0  0  0  0  0  0  0  0  0  0
   19.9805   -4.3108  -14.7898 C   0  0  0  0  0  0  0  0  0  0  0  0
   19.0117   -3.5566  -14.5051 O   0  0  0  0  0  0  0  0  0  0  0  0
   19.9301   -5.7808  -14.6938 C   0  0  0  0  0  0  0  0  0  0  0  0
   21.2136   -6.3796  -15.1086 C   0  0  2  0  0  0  0  0  0  0  0  0
   21.2253   -7.8143  -15.1159 N   0  0  0  0  0  0  0  0  0  0  0  0
   22.3804   -5.7648  -14.4150 C   0  0  0  0  0  0  0  0  0  0  0  0
   22.5718   -4.5275  -14.3262 O   0  0  0  0  0  0  0  0  0  0  0  0
   23.3677   -6.5511  -13.7961 O   0  0  0  0  0  0  0  0  0  0  0  0
  1  2  1  0
  2  3  2  0
  4  5  1  0
  4  2  1  0
  5  6  1  0
  6  8  1  0
  6  7  1  1
  8  9  2  0
 10 11  1  0
 10  8  1  0
 11 12  1  6
 13 14  1  0
 13 12  1  0
 14 15  1  0
 16 15  1  0
 17 24  1  0
 17 11  1  0
 18 17  2  0
 19 20  1  0
 20 21  2  0
 20 22  1  0
 23 22  1  1
 23 24  1  0
 25 27  1  0
 25 23  1  0
 26 25  2  0
M  END
$$$$
