QKN.pdb
     RDKit          3D

 27 26  0  0  1  0  0  0  0  0999 V2000
   21.0357  -21.0311   -9.0581 N   0  0  0  0  0  0  0  0  0  0  0  0
   21.9905  -21.1804   -8.0174 C   0  0  0  0  0  0  0  0  0  0  0  0
   21.6466  -21.3928   -6.8265 O   0  0  0  0  0  0  0  0  0  0  0  0
   23.4363  -21.0728   -8.4049 C   0  0  0  0  0  0  0  0  0  0  0  0
   23.5317  -20.6970   -9.8650 C   0  0  0  0  0  0  0  0  0  0  0  0
   24.9568  -20.7333  -10.3589 C   0  0  2  0  0  0  0  0  0  0  0  0
   25.7676  -19.9190   -9.4953 N   0  0  0  0  0  0  0  0  0  0  0  0
   25.0596  -20.3852  -11.7778 C   0  0  0  0  0  0  0  0  0  0  0  0
   24.7589  -19.2265  -12.1390 O   0  0  0  0  0  0  0  0  0  0  0  0
   25.4897  -21.2933  -12.8125 N   0  0  0  0  0  0  0  0  0  0  0  0
   25.4422  -20.9334  -14.1972 C   0  0  1  0  0  0  0  0  0  0  0  0
   26.4483  -21.6200  -15.0218 C   0  0  0  0  0  0  0  0  0  0  0  0
   26.6541  -21.3245  -16.4350 C   0  0  0  0  0  0  0  0  0  0  0  0
   27.6761  -22.0663  -17.2146 C   0  0  0  0  0  0  0  0  0  0  0  0
   27.7314  -21.5308  -18.6704 C   0  0  0  0  0  0  0  0  0  0  0  0
   28.6000  -22.3642  -19.4697 N   0  0  0  0  0  0  0  0  0  0  0  0
   24.0579  -21.0110  -14.7424 C   0  0  0  0  0  0  0  0  0  0  0  0
   23.2118  -21.6311  -14.0633 O   0  0  0  0  0  0  0  0  0  0  0  0
   19.9271  -19.8809  -15.5312 N   0  0  0  0  0  0  0  0  0  0  0  0
   20.7030  -18.9805  -14.7403 C   0  0  0  0  0  0  0  0  0  0  0  0
   20.1173  -18.4203  -13.7749 O   0  0  0  0  0  0  0  0  0  0  0  0
   22.1187  -18.7540  -15.0824 C   0  0  0  0  0  0  0  0  0  0  0  0
   22.5274  -19.6014  -16.2195 C   0  0  2  0  0  0  0  0  0  0  0  0
   23.6723  -20.4274  -15.9638 N   0  0  0  0  0  0  0  0  0  0  0  0
   22.5979  -18.8425  -17.4999 C   0  0  0  0  0  0  0  0  0  0  0  0
   23.6567  -18.6558  -18.1477 O   0  0  0  0  0  0  0  0  0  0  0  0
   21.4524  -18.2732  -18.0829 O   0  0  0  0  0  0  0  0  0  0  0  0
  1  2  1  0
  2  3  2  0
  4  5  1  0
  4  2  1  0
  5  6  1  0
  6  8  1  0
  6  7  1  1
  8  9  2  0
 10 11  1  0
 10  8  1  0
 11 12  1  6
 13 14  1  0
 13 12  1  0
 14 15  1  0
 16 15  1  0
 17 24  1  0
 17 11  1  0
 18 17  2  0
 19 20  1  0
 20 21  2  0
 20 22  1  0
 23 22  1  1
 23 24  1  0
 25 27  1  0
 25 23  1  0
 26 25  2  0
M  END
$$$$
