QKN.pdb
     RDKit          3D

 27 26  0  0  1  0  0  0  0  0999 V2000
   17.4746  -14.3620  -14.3431 N   0  0  0  0  0  0  0  0  0  0  0  0
   16.2056  -14.5152  -14.9622 C   0  0  0  0  0  0  0  0  0  0  0  0
   15.4933  -15.5342  -14.7728 O   0  0  0  0  0  0  0  0  0  0  0  0
   15.7504  -13.4000  -15.8574 C   0  0  0  0  0  0  0  0  0  0  0  0
   16.7678  -12.2841  -15.8160 C   0  0  0  0  0  0  0  0  0  0  0  0
   17.3013  -11.9638  -17.1904 C   0  0  2  0  0  0  0  0  0  0  0  0
   18.2305  -12.9899  -17.5777 N   0  0  0  0  0  0  0  0  0  0  0  0
   17.8438  -10.6057  -17.2706 C   0  0  0  0  0  0  0  0  0  0  0  0
   19.0746  -10.4373  -17.1292 O   0  0  0  0  0  0  0  0  0  0  0  0
   17.0526   -9.4228  -17.5049 N   0  0  0  0  0  0  0  0  0  0  0  0
   17.6550   -8.1343  -17.6668 C   0  0  1  0  0  0  0  0  0  0  0  0
   16.7879   -7.1564  -18.3417 C   0  0  0  0  0  0  0  0  0  0  0  0
   17.2101   -5.7930  -18.6411 C   0  0  0  0  0  0  0  0  0  0  0  0
   16.3142   -4.8792  -19.3928 C   0  0  0  0  0  0  0  0  0  0  0  0
   16.9874   -3.4911  -19.5644 C   0  0  0  0  0  0  0  0  0  0  0  0
   16.2338   -2.6901  -20.5016 N   0  0  0  0  0  0  0  0  0  0  0  0
   18.2511   -7.6380  -16.3949 C   0  0  0  0  0  0  0  0  0  0  0  0
   17.9877   -8.2777  -15.3542 O   0  0  0  0  0  0  0  0  0  0  0  0
   22.6367   -5.9345  -13.5835 N   0  0  0  0  0  0  0  0  0  0  0  0
   21.3912   -6.6049  -13.3891 C   0  0  0  0  0  0  0  0  0  0  0  0
   20.9808   -6.7116  -12.2022 O   0  0  0  0  0  0  0  0  0  0  0  0
   20.6620   -7.1282  -14.5583 C   0  0  0  0  0  0  0  0  0  0  0  0
   19.8673   -6.0642  -15.2022 C   0  0  2  0  0  0  0  0  0  0  0  0
   19.0804   -6.5033  -16.3187 N   0  0  0  0  0  0  0  0  0  0  0  0
   20.6678   -4.8357  -15.4672 C   0  0  0  0  0  0  0  0  0  0  0  0
   21.3186   -4.6359  -16.5217 O   0  0  0  0  0  0  0  0  0  0  0  0
   20.7464   -3.7912  -14.5296 O   0  0  0  0  0  0  0  0  0  0  0  0
  1  2  1  0
  2  3  2  0
  4  5  1  0
  4  2  1  0
  5  6  1  0
  6  8  1  0
  6  7  1  1
  8  9  2  0
 10 11  1  0
 10  8  1  0
 11 12  1  1
 13 14  1  0
 13 12  1  0
 14 15  1  0
 16 15  1  0
 17 24  1  0
 17 11  1  0
 18 17  2  0
 19 20  1  0
 20 21  2  0
 20 22  1  0
 23 22  1  6
 23 24  1  0
 25 27  1  0
 25 23  1  0
 26 25  2  0
M  END
$$$$
