QKN.pdb
     RDKit          3D

 27 26  0  0  1  0  0  0  0  0999 V2000
   17.9254  -23.0782  -13.7421 N   0  0  0  0  0  0  0  0  0  0  0  0
   19.3121  -23.3283  -13.9196 C   0  0  0  0  0  0  0  0  0  0  0  0
   19.9457  -22.8816  -14.9099 O   0  0  0  0  0  0  0  0  0  0  0  0
   19.9911  -24.1541  -12.8664 C   0  0  0  0  0  0  0  0  0  0  0  0
   18.9662  -24.6042  -11.8520 C   0  0  0  0  0  0  0  0  0  0  0  0
   19.5502  -25.5853  -10.8658 C   0  0  2  0  0  0  0  0  0  0  0  0
   19.9216  -26.7832  -11.5684 N   0  0  0  0  0  0  0  0  0  0  0  0
   18.6642  -25.8140   -9.7223 C   0  0  0  0  0  0  0  0  0  0  0  0
   17.6157  -26.4737   -9.8927 O   0  0  0  0  0  0  0  0  0  0  0  0
   18.9118  -25.3279   -8.3872 N   0  0  0  0  0  0  0  0  0  0  0  0
   17.9503  -25.4855   -7.3384 C   0  0  1  0  0  0  0  0  0  0  0  0
   18.4960  -25.2429   -5.9942 C   0  0  0  0  0  0  0  0  0  0  0  0
   17.6885  -25.3211   -4.7824 C   0  0  0  0  0  0  0  0  0  0  0  0
   17.5338  -26.6122   -4.0669 C   0  0  0  0  0  0  0  0  0  0  0  0
   16.6111  -26.4324   -2.8318 C   0  0  0  0  0  0  0  0  0  0  0  0
   16.4189  -27.7029   -2.1709 N   0  0  0  0  0  0  0  0  0  0  0  0
   16.6921  -24.7408   -7.6241 C   0  0  0  0  0  0  0  0  0  0  0  0
   16.8060  -23.5883   -8.0937 O   0  0  0  0  0  0  0  0  0  0  0  0
   11.8260  -23.2937   -8.0066 N   0  0  0  0  0  0  0  0  0  0  0  0
   11.8387  -24.6878   -8.3142 C   0  0  0  0  0  0  0  0  0  0  0  0
   10.7602  -25.1891   -8.7314 O   0  0  0  0  0  0  0  0  0  0  0  0
   13.0834  -25.4564   -8.1334 C   0  0  0  0  0  0  0  0  0  0  0  0
   14.1447  -24.6106   -7.5534 C   0  0  2  0  0  0  0  0  0  0  0  0
   15.4086  -25.2700   -7.3922 N   0  0  0  0  0  0  0  0  0  0  0  0
   13.6863  -23.8692   -6.3448 C   0  0  0  0  0  0  0  0  0  0  0  0
   13.9287  -24.2288   -5.1669 O   0  0  0  0  0  0  0  0  0  0  0  0
   12.9346  -22.6857   -6.4476 O   0  0  0  0  0  0  0  0  0  0  0  0
  1  2  1  0
  2  3  2  0
  4  5  1  0
  4  2  1  0
  5  6  1  0
  6  8  1  0
  6  7  1  6
  8  9  2  0
 10 11  1  0
 10  8  1  0
 11 12  1  1
 13 14  1  0
 13 12  1  0
 14 15  1  0
 16 15  1  0
 17 24  1  0
 17 11  1  0
 18 17  2  0
 19 20  1  0
 20 21  2  0
 20 22  1  0
 23 22  1  1
 23 24  1  0
 25 27  1  0
 25 23  1  0
 26 25  2  0
M  END
$$$$
