QKN.pdb
     RDKit          3D

 27 26  0  0  1  0  0  0  0  0999 V2000
   20.0275  -15.0993  -18.6577 N   0  0  0  0  0  0  0  0  0  0  0  0
   20.7904  -15.1718  -17.4619 C   0  0  0  0  0  0  0  0  0  0  0  0
   21.4971  -16.1745  -17.1852 O   0  0  0  0  0  0  0  0  0  0  0  0
   20.7148  -13.9912  -16.5384 C   0  0  0  0  0  0  0  0  0  0  0  0
   19.8057  -12.9467  -17.1423 C   0  0  0  0  0  0  0  0  0  0  0  0
   18.6859  -12.5711  -16.2035 C   0  0  2  0  0  0  0  0  0  0  0  0
   17.5050  -13.3017  -16.5750 N   0  0  0  0  0  0  0  0  0  0  0  0
   18.4917  -11.1216  -16.1260 C   0  0  0  0  0  0  0  0  0  0  0  0
   18.8867  -10.4074  -17.0733 O   0  0  0  0  0  0  0  0  0  0  0  0
   17.8673  -10.4392  -15.0194 N   0  0  0  0  0  0  0  0  0  0  0  0
   17.5151   -9.0536  -15.0915 C   0  0  1  0  0  0  0  0  0  0  0  0
   16.1287   -8.7737  -14.6875 C   0  0  0  0  0  0  0  0  0  0  0  0
   14.9759   -9.4267  -15.2970 C   0  0  0  0  0  0  0  0  0  0  0  0
   13.6039   -9.1249  -14.8182 C   0  0  0  0  0  0  0  0  0  0  0  0
   12.5654   -9.9717  -15.6016 C   0  0  0  0  0  0  0  0  0  0  0  0
   11.2814   -9.9117  -14.9414 N   0  0  0  0  0  0  0  0  0  0  0  0
   18.5268   -8.1894  -14.4214 C   0  0  0  0  0  0  0  0  0  0  0  0
   18.9023   -8.5318  -13.2798 O   0  0  0  0  0  0  0  0  0  0  0  0
   23.0871   -4.5568  -14.7408 N   0  0  0  0  0  0  0  0  0  0  0  0
   22.2222   -5.3529  -13.9305 C   0  0  0  0  0  0  0  0  0  0  0  0
   22.2263   -5.1187  -12.6920 O   0  0  0  0  0  0  0  0  0  0  0  0
   21.3854   -6.3867  -14.5659 C   0  0  0  0  0  0  0  0  0  0  0  0
   19.9518   -6.0727  -14.4097 C   0  0  2  0  0  0  0  0  0  0  0  0
   19.0653   -7.0289  -15.0082 N   0  0  0  0  0  0  0  0  0  0  0  0
   19.6381   -4.6560  -14.7489 C   0  0  0  0  0  0  0  0  0  0  0  0
   19.4663   -4.2361  -15.9191 O   0  0  0  0  0  0  0  0  0  0  0  0
   19.5080   -3.6717  -13.7537 O   0  0  0  0  0  0  0  0  0  0  0  0
  1  2  1  0
  2  3  2  0
  4  5  1  0
  4  2  1  0
  5  6  1  0
  6  8  1  0
  6  7  1  6
  8  9  2  0
 10 11  1  0
 10  8  1  0
 11 12  1  1
 13 14  1  0
 13 12  1  0
 14 15  1  0
 16 15  1  0
 17 24  1  0
 17 11  1  0
 18 17  2  0
 19 20  1  0
 20 21  2  0
 20 22  1  0
 23 22  1  6
 23 24  1  0
 25 27  1  0
 25 23  1  0
 26 25  2  0
M  END
$$$$
