QKN.pdb
     RDKit          3D

 27 26  0  0  1  0  0  0  0  0999 V2000
   18.3604  -14.3044  -15.0704 N   0  0  0  0  0  0  0  0  0  0  0  0
   17.8851  -14.3339  -16.4084 C   0  0  0  0  0  0  0  0  0  0  0  0
   17.0997  -15.2284  -16.8143 O   0  0  0  0  0  0  0  0  0  0  0  0
   18.3648  -13.2435  -17.3212 C   0  0  0  0  0  0  0  0  0  0  0  0
   19.1742  -12.2488  -16.5228 C   0  0  0  0  0  0  0  0  0  0  0  0
   20.3852  -11.7732  -17.2866 C   0  0  2  0  0  0  0  0  0  0  0  0
   21.1301  -12.9183  -17.7341 N   0  0  0  0  0  0  0  0  0  0  0  0
   21.1771  -10.8070  -16.5222 C   0  0  0  0  0  0  0  0  0  0  0  0
   20.7830  -10.4676  -15.3852 O   0  0  0  0  0  0  0  0  0  0  0  0
   22.4017  -10.2041  -16.9881 N   0  0  0  0  0  0  0  0  0  0  0  0
   23.1397   -9.2796  -16.1819 C   0  0  1  0  0  0  0  0  0  0  0  0
   24.5985   -9.4079  -16.3198 C   0  0  0  0  0  0  0  0  0  0  0  0
   25.3237  -10.6297  -15.9906 C   0  0  0  0  0  0  0  0  0  0  0  0
   26.7805  -10.7309  -16.2557 C   0  0  0  0  0  0  0  0  0  0  0  0
   27.2900  -12.1551  -15.9078 C   0  0  0  0  0  0  0  0  0  0  0  0
   28.6886  -12.2758  -16.2505 N   0  0  0  0  0  0  0  0  0  0  0  0
   22.6375   -7.8857  -16.3373 C   0  0  0  0  0  0  0  0  0  0  0  0
   22.6891   -7.3855  -17.4813 O   0  0  0  0  0  0  0  0  0  0  0  0
   20.9366   -3.1705  -15.5261 N   0  0  0  0  0  0  0  0  0  0  0  0
   19.9330   -4.1479  -15.8015 C   0  0  0  0  0  0  0  0  0  0  0  0
   18.7940   -3.7186  -16.1284 O   0  0  0  0  0  0  0  0  0  0  0  0
   20.2689   -5.5790  -15.6929 C   0  0  0  0  0  0  0  0  0  0  0  0
   21.6800   -5.7600  -15.3001 C   0  0  2  0  0  0  0  0  0  0  0  0
   22.1187   -7.1257  -15.2722 N   0  0  0  0  0  0  0  0  0  0  0  0
   22.0371   -4.9808  -14.0812 C   0  0  0  0  0  0  0  0  0  0  0  0
   21.8221   -3.7516  -13.9460 O   0  0  0  0  0  0  0  0  0  0  0  0
   22.6520   -5.5881  -12.9725 O   0  0  0  0  0  0  0  0  0  0  0  0
  1  2  1  0
  2  3  2  0
  4  5  1  0
  4  2  1  0
  5  6  1  0
  6  8  1  0
  6  7  1  1
  8  9  2  0
 10 11  1  0
 10  8  1  0
 11 12  1  6
 13 14  1  0
 13 12  1  0
 14 15  1  0
 16 15  1  0
 17 24  1  0
 17 11  1  0
 18 17  2  0
 19 20  1  0
 20 21  2  0
 20 22  1  0
 23 22  1  1
 23 24  1  0
 25 27  1  0
 25 23  1  0
 26 25  2  0
M  END
$$$$
