QKN.pdb
     RDKit          3D

 27 26  0  0  1  0  0  0  0  0999 V2000
   29.5083  -20.8627  -18.0221 N   0  0  0  0  0  0  0  0  0  0  0  0
   28.7585  -19.6575  -18.0730 C   0  0  0  0  0  0  0  0  0  0  0  0
   28.4552  -19.1101  -19.1638 O   0  0  0  0  0  0  0  0  0  0  0  0
   28.3421  -19.0637  -16.7592 C   0  0  0  0  0  0  0  0  0  0  0  0
   27.0531  -19.7103  -16.3090 C   0  0  0  0  0  0  0  0  0  0  0  0
   27.3037  -20.8411  -15.3423 C   0  0  2  0  0  0  0  0  0  0  0  0
   27.5855  -22.0362  -16.0898 N   0  0  0  0  0  0  0  0  0  0  0  0
   26.2191  -20.9873  -14.3690 C   0  0  0  0  0  0  0  0  0  0  0  0
   25.1499  -21.5245  -14.7318 O   0  0  0  0  0  0  0  0  0  0  0  0
   26.2895  -20.5512  -12.9960 N   0  0  0  0  0  0  0  0  0  0  0  0
   25.1623  -20.6427  -12.1184 C   0  0  1  0  0  0  0  0  0  0  0  0
   25.4493  -20.2161  -10.7403 C   0  0  0  0  0  0  0  0  0  0  0  0
   24.4580  -20.2608   -9.6716 C   0  0  0  0  0  0  0  0  0  0  0  0
   23.6032  -21.4607   -9.4920 C   0  0  0  0  0  0  0  0  0  0  0  0
   22.5431  -21.2023   -8.3881 C   0  0  0  0  0  0  0  0  0  0  0  0
   21.7335  -22.3836   -8.1958 N   0  0  0  0  0  0  0  0  0  0  0  0
   23.9491  -20.0098  -12.7075 C   0  0  0  0  0  0  0  0  0  0  0  0
   24.1163  -18.9623  -13.3679 O   0  0  0  0  0  0  0  0  0  0  0  0
   20.2198  -18.3638  -15.8710 N   0  0  0  0  0  0  0  0  0  0  0  0
   20.4049  -19.7056  -15.4194 C   0  0  0  0  0  0  0  0  0  0  0  0
   19.4593  -20.5124  -15.6277 O   0  0  0  0  0  0  0  0  0  0  0  0
   21.6635  -20.0744  -14.7467 C   0  0  0  0  0  0  0  0  0  0  0  0
   21.4697  -20.1767  -13.2872 C   0  0  2  0  0  0  0  0  0  0  0  0
   22.6509  -20.5317  -12.5543 N   0  0  0  0  0  0  0  0  0  0  0  0
   20.2658  -20.9773  -12.9265 C   0  0  0  0  0  0  0  0  0  0  0  0
   20.2911  -22.2055  -12.6689 O   0  0  0  0  0  0  0  0  0  0  0  0
   18.9896  -20.3933  -12.8466 O   0  0  0  0  0  0  0  0  0  0  0  0
  1  2  1  0
  2  3  2  0
  4  5  1  0
  4  2  1  0
  5  6  1  0
  6  8  1  0
  6  7  1  6
  8  9  2  0
 10 11  1  0
 10  8  1  0
 11 12  1  1
 13 14  1  0
 13 12  1  0
 14 15  1  0
 16 15  1  0
 17 24  1  0
 17 11  1  0
 18 17  2  0
 19 20  1  0
 20 21  2  0
 20 22  1  0
 23 22  1  6
 23 24  1  0
 25 27  1  0
 25 23  1  0
 26 25  2  0
M  END
$$$$
