QKN.pdb
     RDKit          3D

 27 26  0  0  1  0  0  0  0  0999 V2000
   11.5043  -11.1949  -10.5691 N   0  0  0  0  0  0  0  0  0  0  0  0
   12.3126  -12.2422  -11.0858 C   0  0  0  0  0  0  0  0  0  0  0  0
   11.9188  -13.4364  -11.1059 O   0  0  0  0  0  0  0  0  0  0  0  0
   13.6653  -11.8574  -11.6097 C   0  0  0  0  0  0  0  0  0  0  0  0
   13.9020  -10.3898  -11.3411 C   0  0  0  0  0  0  0  0  0  0  0  0
   15.3010  -10.1328  -10.8381 C   0  0  2  0  0  0  0  0  0  0  0  0
   15.4884  -10.8467   -9.6045 N   0  0  0  0  0  0  0  0  0  0  0  0
   15.6040   -8.7025  -10.7523 C   0  0  0  0  0  0  0  0  0  0  0  0
   15.6553   -8.0314  -11.8060 O   0  0  0  0  0  0  0  0  0  0  0  0
   15.8527   -7.9927   -9.5216 N   0  0  0  0  0  0  0  0  0  0  0  0
   16.0643   -6.5771   -9.4988 C   0  0  1  0  0  0  0  0  0  0  0  0
   15.5365   -5.9195   -8.2935 C   0  0  0  0  0  0  0  0  0  0  0  0
   14.1111   -5.8212   -8.0012 C   0  0  0  0  0  0  0  0  0  0  0  0
   13.6424   -5.1030   -6.7899 C   0  0  0  0  0  0  0  0  0  0  0  0
   12.0961   -5.1863   -6.6832 C   0  0  0  0  0  0  0  0  0  0  0  0
   11.6474   -4.5118   -5.4866 N   0  0  0  0  0  0  0  0  0  0  0  0
   17.4772   -6.2232   -9.8116 C   0  0  0  0  0  0  0  0  0  0  0  0
   18.3149   -6.3576   -8.8942 O   0  0  0  0  0  0  0  0  0  0  0  0
   21.7520   -5.0310  -12.3926 N   0  0  0  0  0  0  0  0  0  0  0  0
   21.4530   -6.3774  -12.0235 C   0  0  0  0  0  0  0  0  0  0  0  0
   22.3786   -7.2228  -12.1535 O   0  0  0  0  0  0  0  0  0  0  0  0
   20.1073   -6.7067  -11.5201 C   0  0  0  0  0  0  0  0  0  0  0  0
   19.2412   -5.5118  -11.5126 C   0  0  2  0  0  0  0  0  0  0  0  0
   17.8981   -5.7541  -11.0702 N   0  0  0  0  0  0  0  0  0  0  0  0
   19.3336   -4.7327  -12.7795 C   0  0  0  0  0  0  0  0  0  0  0  0
   18.3650   -4.5314  -13.5518 O   0  0  0  0  0  0  0  0  0  0  0  0
   20.5433   -4.1546  -13.2022 O   0  0  0  0  0  0  0  0  0  0  0  0
  1  2  1  0
  2  3  2  0
  4  5  1  0
  4  2  1  0
  5  6  1  0
  6  8  1  0
  6  7  1  1
  8  9  2  0
 10 11  1  0
 10  8  1  0
 11 12  1  1
 13 14  1  0
 13 12  1  0
 14 15  1  0
 16 15  1  0
 17 24  1  0
 17 11  1  0
 18 17  2  0
 19 20  1  0
 20 21  2  0
 20 22  1  0
 23 22  1  6
 23 24  1  0
 25 27  1  0
 25 23  1  0
 26 25  2  0
M  END
$$$$
