NLL.pdb
     RDKit          3D

 25 24  0  0  1  0  0  0  0  0999 V2000
    9.1664  -20.0717   17.4272 N   0  0  0  0  0  0  0  0  0  0  0  0
    9.8613  -19.8550   18.6654 C   0  0  0  0  0  0  0  0  0  0  0  0
   10.3912  -20.8069   19.2483 O   0  0  0  0  0  0  0  0  0  0  0  0
    9.9040  -18.4948   19.1771 C   0  0  0  0  0  0  0  0  0  0  0  0
    9.6247  -18.3147   20.6426 C   0  0  2  0  0  0  0  0  0  0  0  0
    8.1465  -18.5565   20.7413 N   0  0  0  0  0  0  0  0  0  0  0  0
    9.7851  -16.9275   21.1316 C   0  0  0  0  0  0  0  0  0  0  0  0
   10.9739  -16.5125   21.3717 O   0  0  0  0  0  0  0  0  0  0  0  0
    8.9607  -13.1228   19.1383 C   0  0  0  0  0  0  0  0  0  0  0  0
    7.7893  -13.5152   19.9643 C   0  0  2  0  0  0  0  0  0  0  0  0
    6.5716  -12.6267   19.6686 C   0  0  0  0  0  0  0  0  0  0  0  0
    8.0103  -13.6248   21.4312 C   0  0  0  0  0  0  0  0  0  0  0  0
    9.0175  -14.6526   21.8703 C   0  0  2  0  0  0  0  0  0  0  0  0
    8.7522  -15.9853   21.3641 N   0  0  0  0  0  0  0  0  0  0  0  0
    9.0942  -14.5849   23.3487 C   0  0  0  0  0  0  0  0  0  0  0  0
    9.4865  -13.4835   23.8344 O   0  0  0  0  0  0  0  0  0  0  0  0
    6.0787  -12.7065   26.2397 C   0  0  0  0  0  0  0  0  0  0  0  0
    7.4025  -13.3504   25.8894 C   0  0  1  0  0  0  0  0  0  0  0  0
    8.3986  -12.7453   26.9164 C   0  0  0  0  0  0  0  0  0  0  0  0
    7.3838  -14.8365   26.0790 C   0  0  0  0  0  0  0  0  0  0  0  0
    8.6823  -15.4514   25.6987 C   0  0  2  0  0  0  0  0  0  0  0  0
    8.7776  -15.6088   24.2395 N   0  0  0  0  0  0  0  0  0  0  0  0
    8.8573  -16.7756   26.3314 C   0  0  0  0  0  0  0  0  0  0  0  0
    8.9533  -16.9551   27.6882 O   0  0  0  0  0  0  0  0  0  0  0  0
    8.9323  -17.8435   25.6293 O   0  0  0  0  0  0  0  0  0  0  0  0
  1  2  1  0
  2  4  1  0
  3  2  2  0
  5  4  1  0
  5  6  1  6
  7  8  2  0
  7  5  1  0
 10  9  1  6
 10 11  1  0
 10 12  1  0
 13 12  1  1
 13 14  1  0
 14  7  1  0
 15 13  1  0
 15 22  1  0
 16 15  2  0
 18 17  1  1
 18 20  1  0
 19 18  1  0
 21 20  1  6
 21 22  1  0
 21 23  1  0
 23 25  2  0
 23 24  1  0
M  END
$$$$
