NLL.pdb
     RDKit          3D

 25 24  0  0  1  0  0  0  0  0999 V2000
    8.0607  -19.6209   19.8456 N   0  0  0  0  0  0  0  0  0  0  0  0
    7.8406  -18.2833   19.3710 C   0  0  0  0  0  0  0  0  0  0  0  0
    7.4522  -18.0975   18.2128 O   0  0  0  0  0  0  0  0  0  0  0  0
    8.0930  -17.1952   20.3017 C   0  0  0  0  0  0  0  0  0  0  0  0
    8.7334  -17.5603   21.6111 C   0  0  2  0  0  0  0  0  0  0  0  0
    7.6061  -18.1848   22.3809 N   0  0  0  0  0  0  0  0  0  0  0  0
    9.1270  -16.4032   22.4450 C   0  0  0  0  0  0  0  0  0  0  0  0
   10.2117  -15.7906   22.1429 O   0  0  0  0  0  0  0  0  0  0  0  0
    7.3470  -12.2801   23.4617 C   0  0  0  0  0  0  0  0  0  0  0  0
    6.8589  -13.3434   24.3780 C   0  0  2  0  0  0  0  0  0  0  0  0
    5.7475  -12.8215   25.3011 C   0  0  0  0  0  0  0  0  0  0  0  0
    7.8881  -14.0752   25.1640 C   0  0  0  0  0  0  0  0  0  0  0  0
    8.9409  -14.7924   24.3635 C   0  0  2  0  0  0  0  0  0  0  0  0
    8.4231  -15.8824   23.5594 N   0  0  0  0  0  0  0  0  0  0  0  0
   10.0023  -15.2075   25.3109 C   0  0  0  0  0  0  0  0  0  0  0  0
   11.0388  -14.4807   25.3365 O   0  0  0  0  0  0  0  0  0  0  0  0
    9.8415  -14.7359   30.0274 C   0  0  0  0  0  0  0  0  0  0  0  0
   10.2795  -15.0298   28.6092 C   0  0  1  0  0  0  0  0  0  0  0  0
   11.4600  -14.0490   28.3691 C   0  0  0  0  0  0  0  0  0  0  0  0
   10.7951  -16.4273   28.4476 C   0  0  0  0  0  0  0  0  0  0  0  0
   11.0744  -16.7445   27.0228 C   0  0  2  0  0  0  0  0  0  0  0  0
    9.9630  -16.3089   26.1638 N   0  0  0  0  0  0  0  0  0  0  0  0
   11.2874  -18.1937   26.8251 C   0  0  0  0  0  0  0  0  0  0  0  0
   10.5264  -18.9578   25.9770 O   0  0  0  0  0  0  0  0  0  0  0  0
   12.2109  -18.8217   27.4510 O   0  0  0  0  0  0  0  0  0  0  0  0
  1  2  1  0
  2  4  1  0
  3  2  2  0
  5  4  1  0
  5  6  1  1
  7  8  2  0
  7  5  1  0
 10  9  1  1
 10 11  1  0
 10 12  1  0
 13 12  1  1
 13 14  1  0
 14  7  1  0
 15 13  1  0
 15 22  1  0
 16 15  2  0
 18 17  1  1
 18 20  1  0
 19 18  1  0
 21 20  1  1
 21 22  1  0
 21 23  1  0
 23 25  2  0
 23 24  1  0
M  END
$$$$
