NLL.pdb
     RDKit          3D

 25 24  0  0  1  0  0  0  0  0999 V2000
    8.9394  -21.0714   20.9594 N   0  0  0  0  0  0  0  0  0  0  0  0
   10.1522  -20.3379   21.1919 C   0  0  0  0  0  0  0  0  0  0  0  0
   11.2193  -20.7493   20.7242 O   0  0  0  0  0  0  0  0  0  0  0  0
   10.0553  -19.1226   21.9840 C   0  0  0  0  0  0  0  0  0  0  0  0
    9.0427  -18.1050   21.5399 C   0  0  2  0  0  0  0  0  0  0  0  0
    9.5283  -17.7126   20.1747 N   0  0  0  0  0  0  0  0  0  0  0  0
    9.0745  -16.8360   22.3001 C   0  0  0  0  0  0  0  0  0  0  0  0
   10.0997  -16.0798   22.1575 O   0  0  0  0  0  0  0  0  0  0  0  0
    6.0234  -13.1120   26.4025 C   0  0  0  0  0  0  0  0  0  0  0  0
    7.1792  -13.4884   25.5476 C   0  0  2  0  0  0  0  0  0  0  0  0
    7.6021  -12.3283   24.6338 C   0  0  0  0  0  0  0  0  0  0  0  0
    7.0529  -14.7477   24.7662 C   0  0  0  0  0  0  0  0  0  0  0  0
    8.2855  -15.1890   24.0249 C   0  0  2  0  0  0  0  0  0  0  0  0
    8.0768  -16.3502   23.1817 N   0  0  0  0  0  0  0  0  0  0  0  0
    9.3579  -15.3726   25.0311 C   0  0  0  0  0  0  0  0  0  0  0  0
   10.4527  -14.7845   24.7892 O   0  0  0  0  0  0  0  0  0  0  0  0
    9.2339  -14.0211   29.6988 C   0  0  0  0  0  0  0  0  0  0  0  0
    9.7519  -14.4993   28.3599 C   0  0  1  0  0  0  0  0  0  0  0  0
   10.9530  -13.5597   28.0638 C   0  0  0  0  0  0  0  0  0  0  0  0
   10.2639  -15.9064   28.4138 C   0  0  0  0  0  0  0  0  0  0  0  0
   10.4151  -16.4845   27.0531 C   0  0  2  0  0  0  0  0  0  0  0  0
    9.2712  -16.1226   26.2024 N   0  0  0  0  0  0  0  0  0  0  0  0
   10.5225  -17.9579   27.1025 C   0  0  0  0  0  0  0  0  0  0  0  0
    9.6106  -18.7993   26.5172 O   0  0  0  0  0  0  0  0  0  0  0  0
   11.4914  -18.5341   27.7093 O   0  0  0  0  0  0  0  0  0  0  0  0
  1  2  1  0
  2  4  1  0
  3  2  2  0
  5  4  1  0
  5  6  1  6
  7  8  2  0
  7  5  1  0
 10  9  1  6
 10 11  1  0
 10 12  1  0
 13 12  1  1
 13 14  1  0
 14  7  1  0
 15 13  1  0
 15 22  1  0
 16 15  2  0
 18 17  1  1
 18 20  1  0
 19 18  1  0
 21 20  1  1
 21 22  1  0
 21 23  1  0
 23 25  2  0
 23 24  1  0
M  END
$$$$
