NLL.pdb
     RDKit          3D

 25 24  0  0  1  0  0  0  0  0999 V2000
    8.1327  -19.9989   17.4311 N   0  0  0  0  0  0  0  0  0  0  0  0
    8.8143  -20.0433   18.6945 C   0  0  0  0  0  0  0  0  0  0  0  0
    8.9387  -21.1193   19.2890 O   0  0  0  0  0  0  0  0  0  0  0  0
    9.3330  -18.7896   19.2172 C   0  0  0  0  0  0  0  0  0  0  0  0
    9.1587  -18.5474   20.6900 C   0  0  2  0  0  0  0  0  0  0  0  0
    7.6685  -18.5807   20.8681 N   0  0  0  0  0  0  0  0  0  0  0  0
    9.5335  -17.1875   21.1364 C   0  0  0  0  0  0  0  0  0  0  0  0
   10.7711  -16.9585   21.3793 O   0  0  0  0  0  0  0  0  0  0  0  0
    9.1769  -13.2871   19.0675 C   0  0  0  0  0  0  0  0  0  0  0  0
    8.0014  -13.5243   19.9452 C   0  0  2  0  0  0  0  0  0  0  0  0
    6.8895  -12.4973   19.6833 C   0  0  0  0  0  0  0  0  0  0  0  0
    8.2673  -13.6437   21.4038 C   0  0  0  0  0  0  0  0  0  0  0  0
    9.1255  -14.8060   21.8236 C   0  0  2  0  0  0  0  0  0  0  0  0
    8.6616  -16.0861   21.3246 N   0  0  0  0  0  0  0  0  0  0  0  0
    9.2411  -14.7526   23.3001 C   0  0  0  0  0  0  0  0  0  0  0  0
   10.1173  -13.9628   23.7601 O   0  0  0  0  0  0  0  0  0  0  0  0
    5.8402  -12.7846   26.3485 C   0  0  0  0  0  0  0  0  0  0  0  0
    7.1677  -13.3464   25.8882 C   0  0  1  0  0  0  0  0  0  0  0  0
    8.2195  -12.5302   26.6887 C   0  0  0  0  0  0  0  0  0  0  0  0
    7.3313  -14.7926   26.2443 C   0  0  0  0  0  0  0  0  0  0  0  0
    8.5838  -15.3559   25.6763 C   0  0  2  0  0  0  0  0  0  0  0  0
    8.4833  -15.4818   24.2144 N   0  0  0  0  0  0  0  0  0  0  0  0
    8.8842  -16.6856   26.2477 C   0  0  0  0  0  0  0  0  0  0  0  0
    9.1695  -16.8880   27.5743 O   0  0  0  0  0  0  0  0  0  0  0  0
    8.8958  -17.7364   25.5166 O   0  0  0  0  0  0  0  0  0  0  0  0
  1  2  1  0
  2  4  1  0
  3  2  2  0
  5  4  1  0
  5  6  1  6
  7  8  2  0
  7  5  1  0
 10  9  1  6
 10 11  1  0
 10 12  1  0
 13 12  1  1
 13 14  1  0
 14  7  1  0
 15 13  1  0
 15 22  1  0
 16 15  2  0
 18 17  1  1
 18 20  1  0
 19 18  1  0
 21 20  1  1
 21 22  1  0
 21 23  1  0
 23 25  2  0
 23 24  1  0
M  END
$$$$
