NLL.pdb
     RDKit          3D

 25 24  0  0  1  0  0  0  0  0999 V2000
    8.4025  -18.6585   17.6354 N   0  0  0  0  0  0  0  0  0  0  0  0
    8.9188  -18.8632   18.9599 C   0  0  0  0  0  0  0  0  0  0  0  0
    9.1231  -20.0106   19.3700 O   0  0  0  0  0  0  0  0  0  0  0  0
    9.1788  -17.6806   19.7647 C   0  0  0  0  0  0  0  0  0  0  0  0
    9.2386  -17.8757   21.2534 C   0  0  2  0  0  0  0  0  0  0  0  0
    7.9038  -18.4838   21.5726 N   0  0  0  0  0  0  0  0  0  0  0  0
    9.2468  -16.6203   22.0366 C   0  0  0  0  0  0  0  0  0  0  0  0
   10.2638  -15.8492   21.9184 O   0  0  0  0  0  0  0  0  0  0  0  0
    6.1431  -13.1046   26.2798 C   0  0  0  0  0  0  0  0  0  0  0  0
    7.2544  -13.3643   25.3280 C   0  0  2  0  0  0  0  0  0  0  0  0
    7.5237  -12.1445   24.4340 C   0  0  0  0  0  0  0  0  0  0  0  0
    7.1584  -14.6009   24.5069 C   0  0  0  0  0  0  0  0  0  0  0  0
    8.3886  -14.9671   23.7220 C   0  0  2  0  0  0  0  0  0  0  0  0
    8.2342  -16.1630   22.9165 N   0  0  0  0  0  0  0  0  0  0  0  0
    9.5139  -15.0417   24.6834 C   0  0  0  0  0  0  0  0  0  0  0  0
   10.2521  -14.0156   24.7547 O   0  0  0  0  0  0  0  0  0  0  0  0
   11.9108  -14.0913   28.7298 C   0  0  0  0  0  0  0  0  0  0  0  0
   10.6556  -14.9013   28.9706 C   0  0  1  0  0  0  0  0  0  0  0  0
    9.8152  -14.0162   29.9316 C   0  0  0  0  0  0  0  0  0  0  0  0
    9.8614  -15.1120   27.7177 C   0  0  0  0  0  0  0  0  0  0  0  0
   10.5597  -16.0257   26.7763 C   0  0  2  0  0  0  0  0  0  0  0  0
    9.8279  -16.1231   25.5044 N   0  0  0  0  0  0  0  0  0  0  0  0
   10.7020  -17.3817   27.3472 C   0  0  0  0  0  0  0  0  0  0  0  0
   11.8214  -17.8018   28.0199 O   0  0  0  0  0  0  0  0  0  0  0  0
    9.7683  -18.2507   27.2376 O   0  0  0  0  0  0  0  0  0  0  0  0
  1  2  1  0
  2  4  1  0
  3  2  2  0
  5  4  1  0
  5  6  1  1
  7  8  2  0
  7  5  1  0
 10  9  1  6
 10 11  1  0
 10 12  1  0
 13 12  1  1
 13 14  1  0
 14  7  1  0
 15 13  1  0
 15 22  1  0
 16 15  2  0
 18 17  1  6
 18 20  1  0
 19 18  1  0
 21 20  1  1
 21 22  1  0
 21 23  1  0
 23 25  2  0
 23 24  1  0
M  END
$$$$
