NLL.pdb
     RDKit          3D

 25 24  0  0  1  0  0  0  0  0999 V2000
   10.3566  -18.6509   18.2738 N   0  0  0  0  0  0  0  0  0  0  0  0
   10.2066  -17.2343   18.0903 C   0  0  0  0  0  0  0  0  0  0  0  0
   10.4015  -16.7340   16.9775 O   0  0  0  0  0  0  0  0  0  0  0  0
    9.8246  -16.4479   19.2520 C   0  0  0  0  0  0  0  0  0  0  0  0
    9.6695  -17.1899   20.5495 C   0  0  2  0  0  0  0  0  0  0  0  0
    8.2841  -17.7600   20.4539 N   0  0  0  0  0  0  0  0  0  0  0  0
    9.6090  -16.3240   21.7477 C   0  0  0  0  0  0  0  0  0  0  0  0
   10.6062  -15.5524   21.9780 O   0  0  0  0  0  0  0  0  0  0  0  0
    7.9631  -12.5870   24.4917 C   0  0  0  0  0  0  0  0  0  0  0  0
    6.8411  -13.5552   24.3821 C   0  0  2  0  0  0  0  0  0  0  0  0
    5.7702  -13.2961   25.4525 C   0  0  0  0  0  0  0  0  0  0  0  0
    7.2019  -14.9977   24.3446 C   0  0  0  0  0  0  0  0  0  0  0  0
    8.5673  -15.3210   23.8018 C   0  0  2  0  0  0  0  0  0  0  0  0
    8.5491  -16.2464   22.6854 N   0  0  0  0  0  0  0  0  0  0  0  0
    9.3920  -15.7849   24.9423 C   0  0  0  0  0  0  0  0  0  0  0  0
    9.5477  -17.0375   25.0415 O   0  0  0  0  0  0  0  0  0  0  0  0
   12.2174  -15.2402   29.7452 C   0  0  0  0  0  0  0  0  0  0  0  0
   10.7320  -14.9946   29.5930 C   0  0  1  0  0  0  0  0  0  0  0  0
   10.4197  -13.9061   30.6563 C   0  0  0  0  0  0  0  0  0  0  0  0
   10.3783  -14.4439   28.2452 C   0  0  0  0  0  0  0  0  0  0  0  0
   10.5517  -15.4625   27.1770 C   0  0  2  0  0  0  0  0  0  0  0  0
   10.0031  -14.9789   25.9009 N   0  0  0  0  0  0  0  0  0  0  0  0
    9.8833  -16.7327   27.5300 C   0  0  0  0  0  0  0  0  0  0  0  0
   10.5596  -17.9101   27.7265 O   0  0  0  0  0  0  0  0  0  0  0  0
    8.6126  -16.7989   27.6705 O   0  0  0  0  0  0  0  0  0  0  0  0
  1  2  1  0
  2  4  1  0
  3  2  2  0
  5  4  1  0
  5  6  1  6
  7  8  2  0
  7  5  1  0
 10  9  1  1
 10 11  1  0
 10 12  1  0
 13 12  1  1
 13 14  1  0
 14  7  1  0
 15 13  1  0
 15 22  1  0
 16 15  2  0
 18 17  1  6
 18 20  1  0
 19 18  1  0
 21 20  1  1
 21 22  1  0
 21 23  1  0
 23 25  2  0
 23 24  1  0
M  END
$$$$
