NLL.pdb
     RDKit          3D

 25 24  0  0  1  0  0  0  0  0999 V2000
   13.5514  -17.8883   17.6166 N   0  0  0  0  0  0  0  0  0  0  0  0
   13.5090  -17.9205   19.0519 C   0  0  0  0  0  0  0  0  0  0  0  0
   14.1830  -18.7522   19.6688 O   0  0  0  0  0  0  0  0  0  0  0  0
   12.6547  -16.9494   19.7160 C   0  0  0  0  0  0  0  0  0  0  0  0
   11.6980  -17.4824   20.7449 C   0  0  2  0  0  0  0  0  0  0  0  0
   10.6819  -18.2168   19.9192 N   0  0  0  0  0  0  0  0  0  0  0  0
   10.9017  -16.4453   21.4375 C   0  0  0  0  0  0  0  0  0  0  0  0
   11.5141  -15.6653   22.2496 O   0  0  0  0  0  0  0  0  0  0  0  0
    8.4985  -12.8657   20.0345 C   0  0  0  0  0  0  0  0  0  0  0  0
    7.6171  -14.0601   20.1033 C   0  0  2  0  0  0  0  0  0  0  0  0
    6.2171  -13.7566   19.5489 C   0  0  0  0  0  0  0  0  0  0  0  0
    7.5188  -14.7456   21.4198 C   0  0  0  0  0  0  0  0  0  0  0  0
    8.8221  -15.1713   22.0393 C   0  0  2  0  0  0  0  0  0  0  0  0
    9.5113  -16.2092   21.2973 N   0  0  0  0  0  0  0  0  0  0  0  0
    8.5371  -15.5389   23.4464 C   0  0  0  0  0  0  0  0  0  0  0  0
    8.9959  -16.6540   23.8327 O   0  0  0  0  0  0  0  0  0  0  0  0
    6.2267  -11.7467   26.6811 C   0  0  0  0  0  0  0  0  0  0  0  0
    7.2275  -12.8239   26.3237 C   0  0  1  0  0  0  0  0  0  0  0  0
    8.3295  -12.6892   27.4103 C   0  0  0  0  0  0  0  0  0  0  0  0
    6.6448  -14.2009   26.4199 C   0  0  0  0  0  0  0  0  0  0  0  0
    7.5039  -15.2055   25.7407 C   0  0  2  0  0  0  0  0  0  0  0  0
    7.8210  -14.7790   24.3694 N   0  0  0  0  0  0  0  0  0  0  0  0
    6.8464  -16.5282   25.6864 C   0  0  0  0  0  0  0  0  0  0  0  0
    6.8415  -17.4103   26.7372 O   0  0  0  0  0  0  0  0  0  0  0  0
    6.2381  -16.9257   24.6324 O   0  0  0  0  0  0  0  0  0  0  0  0
  1  2  1  0
  2  4  1  0
  3  2  2  0
  5  4  1  0
  5  6  1  6
  7  8  2  0
  7  5  1  0
 10  9  1  1
 10 11  1  0
 10 12  1  0
 13 12  1  6
 13 14  1  0
 14  7  1  0
 15 13  1  0
 15 22  1  0
 16 15  2  0
 18 17  1  1
 18 20  1  0
 19 18  1  0
 21 20  1  6
 21 22  1  0
 21 23  1  0
 23 25  2  0
 23 24  1  0
M  END
$$$$
