NLL.pdb
     RDKit          3D

 25 24  0  0  1  0  0  0  0  0999 V2000
    7.9049  -20.2540   20.3037 N   0  0  0  0  0  0  0  0  0  0  0  0
    9.1292  -20.1274   21.0440 C   0  0  0  0  0  0  0  0  0  0  0  0
    9.8453  -21.1182   21.2229 O   0  0  0  0  0  0  0  0  0  0  0  0
    9.4667  -18.8086   21.5545 C   0  0  0  0  0  0  0  0  0  0  0  0
    8.4135  -17.7443   21.4270 C   0  0  2  0  0  0  0  0  0  0  0  0
    8.6095  -17.2349   20.0287 N   0  0  0  0  0  0  0  0  0  0  0  0
    8.6434  -16.5499   22.2694 C   0  0  0  0  0  0  0  0  0  0  0  0
    9.7544  -15.9258   22.1303 O   0  0  0  0  0  0  0  0  0  0  0  0
    6.2387  -12.7584   26.7277 C   0  0  0  0  0  0  0  0  0  0  0  0
    7.3115  -13.2213   25.8095 C   0  0  2  0  0  0  0  0  0  0  0  0
    7.8521  -12.0674   24.9517 C   0  0  0  0  0  0  0  0  0  0  0  0
    7.0028  -14.4023   24.9595 C   0  0  0  0  0  0  0  0  0  0  0  0
    8.1278  -14.9037   24.0954 C   0  0  2  0  0  0  0  0  0  0  0  0
    7.7539  -16.0042   23.2283 N   0  0  0  0  0  0  0  0  0  0  0  0
    9.2628  -15.2178   24.9952 C   0  0  0  0  0  0  0  0  0  0  0  0
   10.3797  -14.7138   24.6766 O   0  0  0  0  0  0  0  0  0  0  0  0
    9.6416  -13.8528   29.6770 C   0  0  0  0  0  0  0  0  0  0  0  0
   10.0908  -14.3763   28.3302 C   0  0  1  0  0  0  0  0  0  0  0  0
   11.4799  -13.7153   28.1139 C   0  0  0  0  0  0  0  0  0  0  0  0
   10.2770  -15.8629   28.3273 C   0  0  0  0  0  0  0  0  0  0  0  0
   10.3822  -16.3969   26.9443 C   0  0  2  0  0  0  0  0  0  0  0  0
    9.2122  -16.0056   26.1436 N   0  0  0  0  0  0  0  0  0  0  0  0
   10.4870  -17.8712   26.9425 C   0  0  0  0  0  0  0  0  0  0  0  0
    9.5827  -18.6896   26.3142 O   0  0  0  0  0  0  0  0  0  0  0  0
   11.4463  -18.4705   27.5422 O   0  0  0  0  0  0  0  0  0  0  0  0
  1  2  1  0
  2  4  1  0
  3  2  2  0
  5  4  1  0
  5  6  1  6
  7  8  2  0
  7  5  1  0
 10  9  1  6
 10 11  1  0
 10 12  1  0
 13 12  1  1
 13 14  1  0
 14  7  1  0
 15 13  1  0
 15 22  1  0
 16 15  2  0
 18 17  1  1
 18 20  1  0
 19 18  1  0
 21 20  1  1
 21 22  1  0
 21 23  1  0
 23 25  2  0
 23 24  1  0
M  END
$$$$
