PMD.pdb
     RDKit          3D

 24 24  0  0  1  0  0  0  0  0999 V2000
   28.7212  -20.2825  -15.7200 N   0  0  0  0  0  0  0  0  0  0  0  0
   28.2016  -19.4945  -16.8194 C   0  0  0  0  0  0  0  0  0  0  0  0
   27.5799  -18.2560  -16.2649 C   0  0  0  0  0  0  0  0  0  0  0  0
   28.0622  -18.2144  -14.8471 C   0  0  0  0  0  0  0  0  0  0  0  0
   28.2154  -19.6684  -14.5099 C   0  0  1  0  0  0  0  0  0  0  0  0
   26.9916  -20.3107  -14.0183 C   0  0  0  0  0  0  0  0  0  0  0  0
   26.5067  -21.2484  -14.7136 O   0  0  0  0  0  0  0  0  0  0  0  0
   25.1865  -19.9854   -7.8766 C   0  0  0  0  0  0  0  0  0  0  0  0
   26.5274  -21.0768   -8.3701 S   0  0  0  0  0  0  0  0  0  0  0  0
   26.5167  -21.3781  -10.1814 C   0  0  0  0  0  0  0  0  0  0  0  0
   25.3339  -20.6730  -10.7690 C   0  0  0  0  0  0  0  0  0  0  0  0
   25.2361  -20.7353  -12.2607 C   0  0  2  0  0  0  0  0  0  0  0  0
   26.3216  -19.9584  -12.8323 N   0  0  0  0  0  0  0  0  0  0  0  0
   23.9274  -20.3241  -12.8077 C   0  0  0  0  0  0  0  0  0  0  0  0
   23.6847  -19.1367  -13.0389 O   0  0  0  0  0  0  0  0  0  0  0  0
   22.9450  -21.2847  -13.0665 N   0  0  0  0  0  0  0  0  0  0  0  0
   21.6850  -21.0793  -13.6980 C   0  0  1  0  0  0  0  0  0  0  0  0
   21.3845  -21.9017  -14.8976 C   0  0  0  0  0  0  0  0  0  0  0  0
   20.0965  -21.6418  -15.5498 C   0  0  0  0  0  0  0  0  0  0  0  0
   19.5324  -20.5219  -15.5858 O   0  0  0  0  0  0  0  0  0  0  0  0
   20.5405  -21.1998  -12.7671 C   0  0  0  0  0  0  0  0  0  0  0  0
   20.3158  -22.3375  -12.0196 O   0  0  0  0  0  0  0  0  0  0  0  0
   19.4350  -22.6883  -16.1774 O   0  0  0  0  0  0  0  0  0  0  0  0
   19.7517  -20.2355  -12.6564 O   0  0  0  0  0  0  0  0  0  0  0  0
  2  1  1  0
  2  3  1  0
  3  4  1  0
  5  1  1  0
  5  6  1  6
  5  4  1  0
  6  7  2  0
  8  9  1  0
  9 10  1  0
 10 11  1  0
 12 11  1  1
 12 14  1  0
 13 12  1  0
 13  6  1  0
 14 15  2  0
 14 16  1  0
 16 17  1  0
 17 21  1  0
 17 18  1  6
 19 18  1  0
 20 19  2  0
 21 24  2  0
 21 22  1  0
 23 19  1  0
M  END
$$$$
