PMD.pdb
     RDKit          3D

 24 24  0  0  1  0  0  0  0  0999 V2000
   31.3338  -21.1362  -10.4668 N   0  0  0  0  0  0  0  0  0  0  0  0
   32.2576  -20.9594   -9.3646 C   0  0  0  0  0  0  0  0  0  0  0  0
   32.2631  -22.2060   -8.5438 C   0  0  0  0  0  0  0  0  0  0  0  0
   31.5642  -23.2099   -9.4087 C   0  0  0  0  0  0  0  0  0  0  0  0
   30.6083  -22.3592  -10.1922 C   0  0  1  0  0  0  0  0  0  0  0  0
   29.3235  -22.1175   -9.5267 C   0  0  0  0  0  0  0  0  0  0  0  0
   28.6438  -23.1282   -9.1888 O   0  0  0  0  0  0  0  0  0  0  0  0
   29.0121  -19.6811   -3.5294 C   0  0  0  0  0  0  0  0  0  0  0  0
   28.1006  -19.1132   -4.9713 S   0  0  0  0  0  0  0  0  0  0  0  0
   28.3182  -20.2519   -6.3953 C   0  0  0  0  0  0  0  0  0  0  0  0
   27.5227  -19.7223   -7.5476 C   0  0  0  0  0  0  0  0  0  0  0  0
   27.4510  -20.6271   -8.7370 C   0  0  2  0  0  0  0  0  0  0  0  0
   28.7960  -20.8453   -9.2391 N   0  0  0  0  0  0  0  0  0  0  0  0
   26.5409  -20.1663   -9.8048 C   0  0  0  0  0  0  0  0  0  0  0  0
   26.6721  -19.0468  -10.3067 O   0  0  0  0  0  0  0  0  0  0  0  0
   25.5138  -21.0007  -10.2562 N   0  0  0  0  0  0  0  0  0  0  0  0
   24.7320  -20.8430  -11.4362 C   0  0  1  0  0  0  0  0  0  0  0  0
   24.8482  -21.8990  -12.4740 C   0  0  0  0  0  0  0  0  0  0  0  0
   24.0969  -21.6692  -13.7129 C   0  0  0  0  0  0  0  0  0  0  0  0
   23.3112  -20.7091  -13.8987 O   0  0  0  0  0  0  0  0  0  0  0  0
   23.2929  -20.6366  -11.1582 C   0  0  0  0  0  0  0  0  0  0  0  0
   22.7671  -20.7353   -9.8864 O   0  0  0  0  0  0  0  0  0  0  0  0
   24.2468  -22.5592  -14.7674 O   0  0  0  0  0  0  0  0  0  0  0  0
   22.5298  -20.3633  -12.1108 O   0  0  0  0  0  0  0  0  0  0  0  0
  2  1  1  0
  2  3  1  0
  3  4  1  0
  5  1  1  0
  5  6  1  1
  5  4  1  0
  6  7  2  0
  8  9  1  0
  9 10  1  0
 10 11  1  0
 12 11  1  1
 12 14  1  0
 13 12  1  0
 13  6  1  0
 14 15  2  0
 14 16  1  0
 16 17  1  0
 17 21  1  0
 17 18  1  6
 19 18  1  0
 20 19  2  0
 21 24  2  0
 21 22  1  0
 23 19  1  0
M  END
$$$$
