PMD.pdb
     RDKit          3D

 24 24  0  0  1  0  0  0  0  0999 V2000
   28.0130  -19.9107  -15.0961 N   0  0  0  0  0  0  0  0  0  0  0  0
   27.1738  -19.1521  -16.0017 C   0  0  0  0  0  0  0  0  0  0  0  0
   26.5383  -18.0370  -15.2398 C   0  0  0  0  0  0  0  0  0  0  0  0
   27.3074  -17.9943  -13.9548 C   0  0  0  0  0  0  0  0  0  0  0  0
   27.7092  -19.4274  -13.7652 C   0  0  1  0  0  0  0  0  0  0  0  0
   26.7104  -20.2530  -13.0777 C   0  0  0  0  0  0  0  0  0  0  0  0
   26.3246  -21.3061  -13.6607 O   0  0  0  0  0  0  0  0  0  0  0  0
   27.1704  -18.7526   -7.1079 C   0  0  0  0  0  0  0  0  0  0  0  0
   27.0082  -20.5379   -7.2453 S   0  0  0  0  0  0  0  0  0  0  0  0
   26.9232  -21.0720   -9.0000 C   0  0  0  0  0  0  0  0  0  0  0  0
   25.6230  -20.6005   -9.5732 C   0  0  0  0  0  0  0  0  0  0  0  0
   25.4160  -20.9191  -11.0204 C   0  0  2  0  0  0  0  0  0  0  0  0
   26.1534  -19.9570  -11.8201 N   0  0  0  0  0  0  0  0  0  0  0  0
   24.0009  -20.9989  -11.4351 C   0  0  0  0  0  0  0  0  0  0  0  0
   23.1866  -21.6534  -10.7786 O   0  0  0  0  0  0  0  0  0  0  0  0
   23.5709  -20.3307  -12.5855 N   0  0  0  0  0  0  0  0  0  0  0  0
   22.2598  -20.3304  -13.1418 C   0  0  1  0  0  0  0  0  0  0  0  0
   21.5210  -19.0420  -13.1387 C   0  0  0  0  0  0  0  0  0  0  0  0
   20.1668  -19.0753  -13.7017 C   0  0  0  0  0  0  0  0  0  0  0  0
   19.1339  -19.3604  -13.0496 O   0  0  0  0  0  0  0  0  0  0  0  0
   22.2099  -20.8786  -14.5158 C   0  0  0  0  0  0  0  0  0  0  0  0
   21.0300  -21.2854  -15.1040 O   0  0  0  0  0  0  0  0  0  0  0  0
   19.9875  -18.7754  -15.0451 O   0  0  0  0  0  0  0  0  0  0  0  0
   23.2756  -20.9751  -15.1634 O   0  0  0  0  0  0  0  0  0  0  0  0
  2  1  1  0
  2  3  1  0
  3  4  1  0
  5  1  1  0
  5  6  1  6
  5  4  1  0
  6  7  2  0
  8  9  1  0
  9 10  1  0
 10 11  1  0
 12 11  1  1
 12 14  1  0
 13 12  1  0
 13  6  1  0
 14 15  2  0
 14 16  1  0
 16 17  1  0
 17 21  1  0
 17 18  1  6
 19 18  1  0
 20 19  2  0
 21 24  2  0
 21 22  1  0
 23 19  1  0
M  END
$$$$
