PMD.pdb
     RDKit          3D

 24 24  0  0  1  0  0  0  0  0999 V2000
   28.2811  -20.1282  -17.4406 N   0  0  0  0  0  0  0  0  0  0  0  0
   27.5957  -19.5575  -18.5826 C   0  0  0  0  0  0  0  0  0  0  0  0
   26.9914  -18.2557  -18.1728 C   0  0  0  0  0  0  0  0  0  0  0  0
   27.6416  -17.9549  -16.8570 C   0  0  0  0  0  0  0  0  0  0  0  0
   27.9004  -19.3233  -16.2986 C   0  0  1  0  0  0  0  0  0  0  0  0
   26.7763  -19.8975  -15.5511 C   0  0  0  0  0  0  0  0  0  0  0  0
   26.4566  -21.0931  -15.8080 O   0  0  0  0  0  0  0  0  0  0  0  0
   25.2699  -21.8119   -8.7667 C   0  0  0  0  0  0  0  0  0  0  0  0
   26.0708  -20.9782  -10.1438 S   0  0  0  0  0  0  0  0  0  0  0  0
   24.8993  -19.8853  -11.0408 C   0  0  0  0  0  0  0  0  0  0  0  0
   25.6147  -19.2899  -12.2135 C   0  0  0  0  0  0  0  0  0  0  0  0
   25.2568  -19.8808  -13.5406 C   0  0  2  0  0  0  0  0  0  0  0  0
   26.0314  -19.2144  -14.5723 N   0  0  0  0  0  0  0  0  0  0  0  0
   23.8129  -19.8650  -13.8503 C   0  0  0  0  0  0  0  0  0  0  0  0
   23.2752  -18.8507  -14.3025 O   0  0  0  0  0  0  0  0  0  0  0  0
   23.0379  -21.0074  -13.6285 N   0  0  0  0  0  0  0  0  0  0  0  0
   21.6286  -21.1364  -13.7888 C   0  0  1  0  0  0  0  0  0  0  0  0
   20.7839  -20.8947  -12.5915 C   0  0  0  0  0  0  0  0  0  0  0  0
   19.3630  -21.2330  -12.7274 C   0  0  0  0  0  0  0  0  0  0  0  0
   18.7558  -21.3206  -13.8216 O   0  0  0  0  0  0  0  0  0  0  0  0
   21.0909  -20.3151  -14.8966 C   0  0  0  0  0  0  0  0  0  0  0  0
   20.6223  -20.8743  -16.0677 O   0  0  0  0  0  0  0  0  0  0  0  0
   18.6155  -21.4776  -11.5836 O   0  0  0  0  0  0  0  0  0  0  0  0
   21.0616  -19.0718  -14.7638 O   0  0  0  0  0  0  0  0  0  0  0  0
  2  1  1  0
  2  3  1  0
  3  4  1  0
  5  1  1  0
  5  6  1  6
  5  4  1  0
  6  7  2  0
  8  9  1  0
  9 10  1  0
 10 11  1  0
 12 11  1  1
 12 14  1  0
 13 12  1  0
 13  6  1  0
 14 15  2  0
 14 16  1  0
 16 17  1  0
 17 21  1  0
 17 18  1  1
 19 18  1  0
 20 19  2  0
 21 24  2  0
 21 22  1  0
 23 19  1  0
M  END
$$$$
