PMD.pdb
     RDKit          3D

 24 24  0  0  1  0  0  0  0  0999 V2000
   22.3568  -11.2006  -18.3584 N   0  0  0  0  0  0  0  0  0  0  0  0
   22.6619  -12.4656  -17.7210 C   0  0  0  0  0  0  0  0  0  0  0  0
   21.3920  -13.2314  -17.5515 C   0  0  0  0  0  0  0  0  0  0  0  0
   20.4114  -12.4987  -18.4153 C   0  0  0  0  0  0  0  0  0  0  0  0
   20.9132  -11.0859  -18.3557 C   0  0  1  0  0  0  0  0  0  0  0  0
   20.4094  -10.3094  -17.2177 C   0  0  0  0  0  0  0  0  0  0  0  0
   19.1563  -10.1893  -17.1040 O   0  0  0  0  0  0  0  0  0  0  0  0
   22.9578  -10.2600  -11.6505 C   0  0  0  0  0  0  0  0  0  0  0  0
   21.8740   -8.8767  -11.2701 S   0  0  0  0  0  0  0  0  0  0  0  0
   20.8845   -8.3761  -12.7337 C   0  0  0  0  0  0  0  0  0  0  0  0
   21.3978   -9.1212  -13.9264 C   0  0  0  0  0  0  0  0  0  0  0  0
   20.7054   -8.8081  -15.2152 C   0  0  2  0  0  0  0  0  0  0  0  0
   21.2191   -9.6909  -16.2474 N   0  0  0  0  0  0  0  0  0  0  0  0
   20.7821   -7.3913  -15.6247 C   0  0  0  0  0  0  0  0  0  0  0  0
   21.8335   -6.9168  -16.0627 O   0  0  0  0  0  0  0  0  0  0  0  0
   19.6558   -6.5701  -15.5153 N   0  0  0  0  0  0  0  0  0  0  0  0
   19.5465   -5.2028  -15.8988 C   0  0  1  0  0  0  0  0  0  0  0  0
   18.5349   -4.8662  -16.9327 C   0  0  0  0  0  0  0  0  0  0  0  0
   18.4884   -3.4620  -17.3544 C   0  0  0  0  0  0  0  0  0  0  0  0
   19.2256   -2.5577  -16.8935 O   0  0  0  0  0  0  0  0  0  0  0  0
   19.3431   -4.2904  -14.7511 C   0  0  0  0  0  0  0  0  0  0  0  0
   19.5366   -2.9280  -14.8502 O   0  0  0  0  0  0  0  0  0  0  0  0
   17.5759   -3.0801  -18.3282 O   0  0  0  0  0  0  0  0  0  0  0  0
   18.9834   -4.7741  -13.6552 O   0  0  0  0  0  0  0  0  0  0  0  0
  2  1  1  0
  2  3  1  0
  3  4  1  0
  5  1  1  0
  5  6  1  1
  5  4  1  0
  6  7  2  0
  8  9  1  0
  9 10  1  0
 10 11  1  0
 12 11  1  1
 12 14  1  0
 13 12  1  0
 13  6  1  0
 14 15  2  0
 14 16  1  0
 16 17  1  0
 17 21  1  0
 17 18  1  6
 19 18  1  0
 20 19  2  0
 21 24  2  0
 21 22  1  0
 23 19  1  0
M  END
$$$$
