PMD.pdb
     RDKit          3D

 24 24  0  0  1  0  0  0  0  0999 V2000
   27.1747  -18.9717  -15.6174 N   0  0  0  0  0  0  0  0  0  0  0  0
   28.3728  -18.3999  -15.0367 C   0  0  0  0  0  0  0  0  0  0  0  0
   29.4044  -19.4725  -14.9220 C   0  0  0  0  0  0  0  0  0  0  0  0
   28.8612  -20.5864  -15.7638 C   0  0  0  0  0  0  0  0  0  0  0  0
   27.3778  -20.4055  -15.6298 C   0  0  1  0  0  0  0  0  0  0  0  0
   26.7871  -21.0707  -14.4634 C   0  0  0  0  0  0  0  0  0  0  0  0
   26.5039  -22.2976  -14.5744 O   0  0  0  0  0  0  0  0  0  0  0  0
   27.5249  -20.4678   -8.2091 C   0  0  0  0  0  0  0  0  0  0  0  0
   25.7329  -20.3226   -8.2095 S   0  0  0  0  0  0  0  0  0  0  0  0
   25.0141  -20.8773   -9.8055 C   0  0  0  0  0  0  0  0  0  0  0  0
   25.9581  -20.4988  -10.9040 C   0  0  0  0  0  0  0  0  0  0  0  0
   25.5477  -20.9421  -12.2728 C   0  0  2  0  0  0  0  0  0  0  0  0
   26.5143  -20.4424  -13.2345 N   0  0  0  0  0  0  0  0  0  0  0  0
   24.1677  -20.5748  -12.6490 C   0  0  0  0  0  0  0  0  0  0  0  0
   23.8666  -19.3999  -12.8759 O   0  0  0  0  0  0  0  0  0  0  0  0
   23.1837  -21.5631  -12.7483 N   0  0  0  0  0  0  0  0  0  0  0  0
   21.8286  -21.3916  -13.1520 C   0  0  1  0  0  0  0  0  0  0  0  0
   21.1992  -22.5043  -13.9078 C   0  0  0  0  0  0  0  0  0  0  0  0
   19.8199  -22.2798  -14.3541 C   0  0  0  0  0  0  0  0  0  0  0  0
   19.3705  -21.1748  -14.7420 O   0  0  0  0  0  0  0  0  0  0  0  0
   20.9278  -21.0371  -12.0323 C   0  0  0  0  0  0  0  0  0  0  0  0
   19.6655  -20.5195  -12.2383 O   0  0  0  0  0  0  0  0  0  0  0  0
   18.9303  -23.3453  -14.3574 O   0  0  0  0  0  0  0  0  0  0  0  0
   21.3273  -21.2139  -10.8604 O   0  0  0  0  0  0  0  0  0  0  0  0
  2  1  1  0
  2  3  1  0
  3  4  1  0
  5  1  1  0
  5  6  1  1
  5  4  1  0
  6  7  2  0
  8  9  1  0
  9 10  1  0
 10 11  1  0
 12 11  1  1
 12 14  1  0
 13 12  1  0
 13  6  1  0
 14 15  2  0
 14 16  1  0
 16 17  1  0
 17 21  1  0
 17 18  1  1
 19 18  1  0
 20 19  2  0
 21 24  2  0
 21 22  1  0
 23 19  1  0
M  END
$$$$
