PMD.pdb
     RDKit          3D

 24 24  0  0  1  0  0  0  0  0999 V2000
   28.2096  -20.4619  -16.0940 N   0  0  0  0  0  0  0  0  0  0  0  0
   27.4346  -19.7588  -17.0963 C   0  0  0  0  0  0  0  0  0  0  0  0
   26.9343  -18.4839  -16.5029 C   0  0  0  0  0  0  0  0  0  0  0  0
   27.7309  -18.3361  -15.2426 C   0  0  0  0  0  0  0  0  0  0  0  0
   27.9859  -19.7607  -14.8468 C   0  0  1  0  0  0  0  0  0  0  0  0
   26.9218  -20.3673  -14.0396 C   0  0  0  0  0  0  0  0  0  0  0  0
   26.1439  -21.1791  -14.6172 O   0  0  0  0  0  0  0  0  0  0  0  0
   27.0147  -20.7678   -7.6008 C   0  0  0  0  0  0  0  0  0  0  0  0
   25.2414  -20.5728   -7.8246 S   0  0  0  0  0  0  0  0  0  0  0  0
   24.7416  -20.9119   -9.5586 C   0  0  0  0  0  0  0  0  0  0  0  0
   25.8164  -20.4011  -10.4670 C   0  0  0  0  0  0  0  0  0  0  0  0
   25.5756  -20.6316  -11.9255 C   0  0  2  0  0  0  0  0  0  0  0  0
   26.7062  -20.1106  -12.6732 N   0  0  0  0  0  0  0  0  0  0  0  0
   24.2964  -20.0921  -12.4293 C   0  0  0  0  0  0  0  0  0  0  0  0
   24.2641  -19.0373  -13.0685 O   0  0  0  0  0  0  0  0  0  0  0  0
   23.1029  -20.7766  -12.1806 N   0  0  0  0  0  0  0  0  0  0  0  0
   21.8561  -20.6036  -12.8472 C   0  0  1  0  0  0  0  0  0  0  0  0
   21.8275  -20.8562  -14.3104 C   0  0  0  0  0  0  0  0  0  0  0  0
   20.5310  -20.6685  -14.9706 C   0  0  0  0  0  0  0  0  0  0  0  0
   19.6556  -19.8519  -14.5962 O   0  0  0  0  0  0  0  0  0  0  0  0
   20.7544  -21.3771  -12.2317 C   0  0  0  0  0  0  0  0  0  0  0  0
   20.9572  -22.2227  -11.1605 O   0  0  0  0  0  0  0  0  0  0  0  0
   20.2261  -21.4337  -16.0879 O   0  0  0  0  0  0  0  0  0  0  0  0
   19.6011  -21.2579  -12.7009 O   0  0  0  0  0  0  0  0  0  0  0  0
  2  1  1  0
  2  3  1  0
  3  4  1  0
  5  1  1  0
  5  6  1  6
  5  4  1  0
  6  7  2  0
  8  9  1  0
  9 10  1  0
 10 11  1  0
 12 11  1  1
 12 14  1  0
 13 12  1  0
 13  6  1  0
 14 15  2  0
 14 16  1  0
 16 17  1  0
 17 21  1  0
 17 18  1  6
 19 18  1  0
 20 19  2  0
 21 24  2  0
 21 22  1  0
 23 19  1  0
M  END
$$$$
