PMD.pdb
     RDKit          3D

 24 24  0  0  1  0  0  0  0  0999 V2000
   15.6594  -11.4095  -14.5311 N   0  0  0  0  0  0  0  0  0  0  0  0
   16.4021  -11.3183  -15.7719 C   0  0  0  0  0  0  0  0  0  0  0  0
   17.8513  -11.1654  -15.4488 C   0  0  0  0  0  0  0  0  0  0  0  0
   17.9339  -11.5085  -13.9928 C   0  0  0  0  0  0  0  0  0  0  0  0
   16.5937  -11.0740  -13.4767 C   0  0  1  0  0  0  0  0  0  0  0  0
   16.5216   -9.6621  -13.0850 C   0  0  0  0  0  0  0  0  0  0  0  0
   16.0996   -8.8396  -13.9471 O   0  0  0  0  0  0  0  0  0  0  0  0
   15.0476   -7.3734   -7.3546 C   0  0  0  0  0  0  0  0  0  0  0  0
   13.8742   -8.0499   -8.5370 S   0  0  0  0  0  0  0  0  0  0  0  0
   14.6420   -8.2804  -10.1889 C   0  0  0  0  0  0  0  0  0  0  0  0
   16.0098   -7.6725  -10.1614 C   0  0  0  0  0  0  0  0  0  0  0  0
   16.7690   -7.7625  -11.4475 C   0  0  2  0  0  0  0  0  0  0  0  0
   16.8876   -9.1603  -11.8226 N   0  0  0  0  0  0  0  0  0  0  0  0
   18.0842   -7.0909  -11.4322 C   0  0  0  0  0  0  0  0  0  0  0  0
   18.9813   -7.4767  -10.6781 O   0  0  0  0  0  0  0  0  0  0  0  0
   18.3231   -6.0024  -12.2766 N   0  0  0  0  0  0  0  0  0  0  0  0
   19.5841   -5.4265  -12.6034 C   0  0  1  0  0  0  0  0  0  0  0  0
   20.6420   -6.3440  -13.0979 C   0  0  0  0  0  0  0  0  0  0  0  0
   21.9046   -5.7138  -13.4987 C   0  0  0  0  0  0  0  0  0  0  0  0
   22.5948   -4.9735  -12.7578 O   0  0  0  0  0  0  0  0  0  0  0  0
   19.4799   -4.2986  -13.5562 C   0  0  0  0  0  0  0  0  0  0  0  0
   20.3996   -3.2705  -13.5836 O   0  0  0  0  0  0  0  0  0  0  0  0
   22.3918   -5.9346  -14.7796 O   0  0  0  0  0  0  0  0  0  0  0  0
   18.5244   -4.2797  -14.3630 O   0  0  0  0  0  0  0  0  0  0  0  0
  2  1  1  0
  2  3  1  0
  3  4  1  0
  5  1  1  0
  5  6  1  6
  5  4  1  0
  6  7  2  0
  8  9  1  0
  9 10  1  0
 10 11  1  0
 12 11  1  1
 12 14  1  0
 13 12  1  0
 13  6  1  0
 14 15  2  0
 14 16  1  0
 16 17  1  0
 17 21  1  0
 17 18  1  6
 19 18  1  0
 20 19  2  0
 21 24  2  0
 21 22  1  0
 23 19  1  0
M  END
$$$$
