PMD.pdb
     RDKit          3D

 24 24  0  0  1  0  0  0  0  0999 V2000
   21.2771  -13.7978  -17.7652 N   0  0  0  0  0  0  0  0  0  0  0  0
   20.0748  -14.3317  -17.1576 C   0  0  0  0  0  0  0  0  0  0  0  0
   18.9422  -13.4044  -17.4494 C   0  0  0  0  0  0  0  0  0  0  0  0
   19.4793  -12.5057  -18.5211 C   0  0  0  0  0  0  0  0  0  0  0  0
   20.9454  -12.4587  -18.2056 C   0  0  1  0  0  0  0  0  0  0  0  0
   21.3246  -11.4318  -17.2290 C   0  0  0  0  0  0  0  0  0  0  0  0
   20.5788  -11.2854  -16.2190 O   0  0  0  0  0  0  0  0  0  0  0  0
   27.5980  -11.8539  -14.9285 C   0  0  0  0  0  0  0  0  0  0  0  0
   26.7346  -10.4295  -15.6054 S   0  0  0  0  0  0  0  0  0  0  0  0
   24.9279  -10.7340  -15.7266 C   0  0  0  0  0  0  0  0  0  0  0  0
   24.2741   -9.4895  -16.2415 C   0  0  0  0  0  0  0  0  0  0  0  0
   22.7858   -9.5645  -16.3749 C   0  0  2  0  0  0  0  0  0  0  0  0
   22.4552  -10.6013  -17.3364 N   0  0  0  0  0  0  0  0  0  0  0  0
   22.1344   -8.2829  -16.7127 C   0  0  0  0  0  0  0  0  0  0  0  0
   21.8980   -7.9850  -17.8865 O   0  0  0  0  0  0  0  0  0  0  0  0
   21.7810   -7.3894  -15.6970 N   0  0  0  0  0  0  0  0  0  0  0  0
   21.1216   -6.1356  -15.8441 C   0  0  1  0  0  0  0  0  0  0  0  0
   19.6593   -6.1634  -16.1021 C   0  0  0  0  0  0  0  0  0  0  0  0
   19.0241   -4.8638  -16.3465 C   0  0  0  0  0  0  0  0  0  0  0  0
   18.4395   -4.1836  -15.4695 O   0  0  0  0  0  0  0  0  0  0  0  0
   21.3651   -5.2131  -14.7124 C   0  0  0  0  0  0  0  0  0  0  0  0
   21.0381   -3.8740  -14.7704 O   0  0  0  0  0  0  0  0  0  0  0  0
   19.0574   -4.3269  -17.6260 O   0  0  0  0  0  0  0  0  0  0  0  0
   21.8853   -5.6661  -13.6691 O   0  0  0  0  0  0  0  0  0  0  0  0
  2  1  1  0
  2  3  1  0
  3  4  1  0
  5  1  1  0
  5  6  1  1
  5  4  1  0
  6  7  2  0
  8  9  1  0
  9 10  1  0
 10 11  1  0
 12 11  1  6
 12 14  1  0
 13 12  1  0
 13  6  1  0
 14 15  2  0
 14 16  1  0
 16 17  1  0
 17 21  1  0
 17 18  1  1
 19 18  1  0
 20 19  2  0
 21 24  2  0
 21 22  1  0
 23 19  1  0
M  END
$$$$
