PMD.pdb
     RDKit          3D

 24 24  0  0  1  0  0  0  0  0999 V2000
   17.4960  -11.7964  -13.9823 N   0  0  0  0  0  0  0  0  0  0  0  0
   16.6056  -12.9146  -14.2201 C   0  0  0  0  0  0  0  0  0  0  0  0
   15.5367  -12.4786  -15.1662 C   0  0  0  0  0  0  0  0  0  0  0  0
   16.0459  -11.1793  -15.7112 C   0  0  0  0  0  0  0  0  0  0  0  0
   16.8539  -10.6383  -14.5686 C   0  0  1  0  0  0  0  0  0  0  0  0
   16.0817   -9.8640  -13.5908 C   0  0  0  0  0  0  0  0  0  0  0  0
   15.4074   -8.8866  -14.0240 O   0  0  0  0  0  0  0  0  0  0  0  0
   10.7678  -10.8172   -8.6238 C   0  0  0  0  0  0  0  0  0  0  0  0
   12.5383  -11.0394   -8.8441 S   0  0  0  0  0  0  0  0  0  0  0  0
   13.2212   -9.8376  -10.0528 C   0  0  0  0  0  0  0  0  0  0  0  0
   14.6775  -10.1316  -10.2376 C   0  0  0  0  0  0  0  0  0  0  0  0
   15.3742   -9.2728  -11.2453 C   0  0  2  0  0  0  0  0  0  0  0  0
   16.0387  -10.1309  -12.2100 N   0  0  0  0  0  0  0  0  0  0  0  0
   16.3048   -8.2816  -10.6686 C   0  0  0  0  0  0  0  0  0  0  0  0
   17.5251   -8.4141  -10.7934 O   0  0  0  0  0  0  0  0  0  0  0  0
   15.8058   -7.1788   -9.9688 N   0  0  0  0  0  0  0  0  0  0  0  0
   16.3475   -5.8620   -9.9372 C   0  0  1  0  0  0  0  0  0  0  0  0
   16.7551   -5.2641  -11.2342 C   0  0  0  0  0  0  0  0  0  0  0  0
   17.3581   -3.9285  -11.1658 C   0  0  0  0  0  0  0  0  0  0  0  0
   18.5839   -3.7103  -11.0125 O   0  0  0  0  0  0  0  0  0  0  0  0
   15.4735   -4.8891   -9.2440 C   0  0  0  0  0  0  0  0  0  0  0  0
   15.9314   -3.6578   -8.8225 O   0  0  0  0  0  0  0  0  0  0  0  0
   16.5399   -2.8127  -11.2753 O   0  0  0  0  0  0  0  0  0  0  0  0
   14.2794   -5.1967   -9.0345 O   0  0  0  0  0  0  0  0  0  0  0  0
  2  1  1  0
  2  3  1  0
  3  4  1  0
  5  1  1  0
  5  6  1  1
  5  4  1  0
  6  7  2  0
  8  9  1  0
  9 10  1  0
 10 11  1  0
 12 11  1  1
 12 14  1  0
 13 12  1  0
 13  6  1  0
 14 15  2  0
 14 16  1  0
 16 17  1  0
 17 21  1  0
 17 18  1  6
 19 18  1  0
 20 19  2  0
 21 24  2  0
 21 22  1  0
 23 19  1  0
M  END
$$$$
