PMD.pdb
     RDKit          3D

 24 24  0  0  1  0  0  0  0  0999 V2000
   27.4134  -19.2487  -15.2735 N   0  0  0  0  0  0  0  0  0  0  0  0
   28.7438  -19.0852  -14.7233 C   0  0  0  0  0  0  0  0  0  0  0  0
   29.4510  -20.3979  -14.7904 C   0  0  0  0  0  0  0  0  0  0  0  0
   28.5935  -21.2230  -15.7006 C   0  0  0  0  0  0  0  0  0  0  0  0
   27.2208  -20.6737  -15.4452 C   0  0  1  0  0  0  0  0  0  0  0  0
   26.5199  -21.2904  -14.3136 C   0  0  0  0  0  0  0  0  0  0  0  0
   25.9428  -22.3961  -14.5189 O   0  0  0  0  0  0  0  0  0  0  0  0
   27.4596  -20.7429   -8.0723 C   0  0  0  0  0  0  0  0  0  0  0  0
   25.6797  -20.5003   -7.9974 S   0  0  0  0  0  0  0  0  0  0  0  0
   24.8780  -20.9068   -9.5985 C   0  0  0  0  0  0  0  0  0  0  0  0
   25.8793  -20.7009  -10.6922 C   0  0  0  0  0  0  0  0  0  0  0  0
   25.4096  -21.0809  -12.0609 C   0  0  2  0  0  0  0  0  0  0  0  0
   26.4447  -20.7405  -13.0208 N   0  0  0  0  0  0  0  0  0  0  0  0
   24.1041  -20.5061  -12.4434 C   0  0  0  0  0  0  0  0  0  0  0  0
   23.9940  -19.3040  -12.6986 O   0  0  0  0  0  0  0  0  0  0  0  0
   22.9739  -21.3260  -12.5166 N   0  0  0  0  0  0  0  0  0  0  0  0
   21.7188  -21.0111  -13.1118 C   0  0  1  0  0  0  0  0  0  0  0  0
   21.4893  -21.4811  -14.5018 C   0  0  0  0  0  0  0  0  0  0  0  0
   20.1711  -21.1835  -15.0724 C   0  0  0  0  0  0  0  0  0  0  0  0
   19.9182  -20.1889  -15.7937 O   0  0  0  0  0  0  0  0  0  0  0  0
   20.5623  -21.4372  -12.2921 C   0  0  0  0  0  0  0  0  0  0  0  0
   20.6490  -22.4626  -11.3730 O   0  0  0  0  0  0  0  0  0  0  0  0
   19.1137  -22.0442  -14.8123 O   0  0  0  0  0  0  0  0  0  0  0  0
   19.4704  -20.8455  -12.4398 O   0  0  0  0  0  0  0  0  0  0  0  0
  2  1  1  0
  2  3  1  0
  3  4  1  0
  5  1  1  0
  5  6  1  1
  5  4  1  0
  6  7  2  0
  8  9  1  0
  9 10  1  0
 10 11  1  0
 12 11  1  1
 12 14  1  0
 13 12  1  0
 13  6  1  0
 14 15  2  0
 14 16  1  0
 16 17  1  0
 17 21  1  0
 17 18  1  6
 19 18  1  0
 20 19  2  0
 21 24  2  0
 21 22  1  0
 23 19  1  0
M  END
$$$$
