PMD.pdb
     RDKit          3D

 24 24  0  0  1  0  0  0  0  0999 V2000
   13.9886  -23.3788   -3.0104 N   0  0  0  0  0  0  0  0  0  0  0  0
   14.1475  -24.7879   -3.3084 C   0  0  0  0  0  0  0  0  0  0  0  0
   13.5531  -25.5802   -2.1918 C   0  0  0  0  0  0  0  0  0  0  0  0
   12.7594  -24.5726   -1.4177 C   0  0  0  0  0  0  0  0  0  0  0  0
   13.5334  -23.3061   -1.6376 C   0  0  1  0  0  0  0  0  0  0  0  0
   14.6308  -23.0917   -0.6881 C   0  0  0  0  0  0  0  0  0  0  0  0
   15.7041  -23.7297   -0.8851 O   0  0  0  0  0  0  0  0  0  0  0  0
   17.5911  -17.4578    0.7144 C   0  0  0  0  0  0  0  0  0  0  0  0
   17.0387  -18.1801    2.2655 S   0  0  0  0  0  0  0  0  0  0  0  0
   17.0531  -20.0149    2.1951 C   0  0  0  0  0  0  0  0  0  0  0  0
   15.8614  -20.4654    1.4089 C   0  0  0  0  0  0  0  0  0  0  0  0
   15.7102  -21.9484    1.2815 C   0  0  2  0  0  0  0  0  0  0  0  0
   14.5738  -22.2295    0.4223 N   0  0  0  0  0  0  0  0  0  0  0  0
   15.6099  -22.6679    2.5673 C   0  0  0  0  0  0  0  0  0  0  0  0
   14.5386  -23.1570    2.9352 O   0  0  0  0  0  0  0  0  0  0  0  0
   16.7365  -22.7983    3.3850 N   0  0  0  0  0  0  0  0  0  0  0  0
   16.8120  -23.4490    4.6497 C   0  0  1  0  0  0  0  0  0  0  0  0
   17.8400  -24.5091    4.8078 C   0  0  0  0  0  0  0  0  0  0  0  0
   17.7975  -25.2645    6.0646 C   0  0  0  0  0  0  0  0  0  0  0  0
   16.9319  -25.1063    6.9587 O   0  0  0  0  0  0  0  0  0  0  0  0
   16.9543  -22.5065    5.7821 C   0  0  0  0  0  0  0  0  0  0  0  0
   16.3103  -22.7001    6.9868 O   0  0  0  0  0  0  0  0  0  0  0  0
   18.7689  -26.2258    6.3069 O   0  0  0  0  0  0  0  0  0  0  0  0
   17.6841  -21.5009    5.6389 O   0  0  0  0  0  0  0  0  0  0  0  0
  2  1  1  0
  2  3  1  0
  3  4  1  0
  5  1  1  0
  5  6  1  1
  5  4  1  0
  6  7  2  0
  8  9  1  0
  9 10  1  0
 10 11  1  0
 12 11  1  1
 12 14  1  0
 13 12  1  0
 13  6  1  0
 14 15  2  0
 14 16  1  0
 16 17  1  0
 17 21  1  0
 17 18  1  6
 19 18  1  0
 20 19  2  0
 21 24  2  0
 21 22  1  0
 23 19  1  0
M  END
$$$$
