RMM.pdb
     RDKit          3D

 28 27  0  0  1  0  0  0  0  0999 V2000
    9.4838  -21.4928   17.3931 N   0  0  0  0  0  0  0  0  0  0  0  0
    9.9331  -22.2398   18.5122 C   0  0  0  0  0  0  0  0  0  0  0  0
   10.8145  -23.1553   18.3370 N   0  0  0  0  0  0  0  0  0  0  0  0
    9.3896  -21.9489   19.8095 N   0  0  0  0  0  0  0  0  0  0  0  0
    8.3965  -20.9461   19.9894 C   0  0  0  0  0  0  0  0  0  0  0  0
    8.7521  -19.5373   19.7282 C   0  0  0  0  0  0  0  0  0  0  0  0
    8.9189  -18.6453   20.8964 C   0  0  0  0  0  0  0  0  0  0  0  0
    8.4889  -17.2509   20.6535 C   0  0  2  0  0  0  0  0  0  0  0  0
    9.0011  -16.7054   19.4066 N   0  0  0  0  0  0  0  0  0  0  0  0
    8.9229  -16.3432   21.7929 C   0  0  0  0  0  0  0  0  0  0  0  0
   10.1038  -15.9996   21.8517 O   0  0  0  0  0  0  0  0  0  0  0  0
   11.1341  -23.7036   19.1419 C   0  0  0  0  0  0  0  0  0  0  0  0
    6.1424  -11.0077   25.7704 S   0  0  0  0  0  0  0  0  0  0  0  0
    5.9317  -12.7524   26.2297 C   0  0  0  0  0  0  0  0  0  0  0  0
    7.4420  -13.7020   25.8022 C   0  0  0  0  0  0  0  0  0  0  0  0
    7.1704  -14.4067   24.5160 C   0  0  1  0  0  0  0  0  0  0  0  0
    8.3062  -15.1764   23.9692 N   0  0  0  0  0  0  0  0  0  0  0  0
    8.0020  -15.8978   22.7661 C   0  0  0  0  0  0  0  0  0  0  0  0
    9.0757  -15.9812   24.9494 O   0  0  0  0  0  0  0  0  0  0  0  0
    8.6760  -17.1342   25.2152 C   0  0  0  0  0  0  0  0  0  0  0  0
    9.4812  -13.4021   29.1110 S   0  0  0  0  0  0  0  0  0  0  0  0
   10.2368  -14.6666   30.1638 C   0  0  0  0  0  0  0  0  0  0  0  0
   10.6414  -16.0935   29.1759 C   0  0  0  0  0  0  0  0  0  0  0  0
   10.0264  -16.1997   27.8438 C   0  0  2  0  0  0  0  0  0  0  0  0
   10.8832  -16.3768   26.6485 N   0  0  0  0  0  0  0  0  0  0  0  0
   10.2265  -15.5355   25.6019 C   0  0  0  0  0  0  0  0  0  0  0  0
   11.0778  -17.7241   26.1337 O   0  0  0  0  0  0  0  0  0  0  0  0
   12.1544  -18.5338   26.3977 O   0  0  0  0  0  0  0  0  0  0  0  0
  2  1  1  0
  3  2  2  0
  4  2  1  0
  5  4  1  0
  6  5  1  0
  7  6  1  0
  7  8  1  0
  8  9  1  6
 10  8  1  0
 10 17  1  0
 11 10  2  0
 12 13  1  0
 13 14  1  0
 16 15  1  6
 15 14  1  0
 16 17  1  0
 18 16  1  0
 19 18  2  0
 21 20  1  0
 21 22  1  0
 22 23  1  0
 24 23  1  1
 24 25  1  0
 24 26  1  0
 25 18  1  0
 26 27  1  0
 28 26  2  0
M  END
$$$$
