RMM.pdb
     RDKit          3D

 28 27  0  0  1  0  0  0  0  0999 V2000
    8.0208  -12.8148   17.5773 N   0  0  0  0  0  0  0  0  0  0  0  0
    7.5943  -13.4058   16.3603 C   0  0  0  0  0  0  0  0  0  0  0  0
    6.5724  -12.9197   15.7561 N   0  0  0  0  0  0  0  0  0  0  0  0
    8.3193  -14.5308   15.8387 N   0  0  0  0  0  0  0  0  0  0  0  0
    9.3214  -15.1873   16.6061 C   0  0  0  0  0  0  0  0  0  0  0  0
    8.9148  -15.9568   17.7985 C   0  0  0  0  0  0  0  0  0  0  0  0
    9.9731  -16.6686   18.5477 C   0  0  0  0  0  0  0  0  0  0  0  0
    9.5005  -17.3041   19.7971 C   0  0  2  0  0  0  0  0  0  0  0  0
    8.2031  -17.9454   19.6553 N   0  0  0  0  0  0  0  0  0  0  0  0
    9.4169  -16.2878   20.9245 C   0  0  0  0  0  0  0  0  0  0  0  0
    8.9838  -15.1637   20.6697 O   0  0  0  0  0  0  0  0  0  0  0  0
    6.2956  -13.3074   14.8485 C   0  0  0  0  0  0  0  0  0  0  0  0
    6.7976  -12.3135   25.3586 S   0  0  0  0  0  0  0  0  0  0  0  0
    7.4399  -14.0065   25.2150 C   0  0  0  0  0  0  0  0  0  0  0  0
    7.2618  -14.6022   23.4890 C   0  0  0  0  0  0  0  0  0  0  0  0
    7.7903  -15.9964   23.4470 C   0  0  2  0  0  0  0  0  0  0  0  0
    9.2629  -16.1108   23.4588 N   0  0  0  0  0  0  0  0  0  0  0  0
    9.8227  -16.6145   22.2368 C   0  0  0  0  0  0  0  0  0  0  0  0
    9.8550  -16.7331   24.6682 O   0  0  0  0  0  0  0  0  0  0  0  0
   10.3514  -17.8746   24.5661 C   0  0  0  0  0  0  0  0  0  0  0  0
   10.6809  -13.1837   29.8862 S   0  0  0  0  0  0  0  0  0  0  0  0
   11.2677  -14.7229   30.6378 C   0  0  0  0  0  0  0  0  0  0  0  0
   11.2840  -16.0124   29.4080 C   0  0  0  0  0  0  0  0  0  0  0  0
   10.6572  -15.7259   28.1084 C   0  0  1  0  0  0  0  0  0  0  0  0
   10.6281  -16.7701   27.0581 N   0  0  0  0  0  0  0  0  0  0  0  0
    9.8965  -16.1263   25.9247 C   0  0  0  0  0  0  0  0  0  0  0  0
   10.0044  -18.0468   27.3729 O   0  0  0  0  0  0  0  0  0  0  0  0
   10.6532  -19.1581   27.8506 O   0  0  0  0  0  0  0  0  0  0  0  0
  2  1  1  0
  3  2  2  0
  4  2  1  0
  5  4  1  0
  6  5  1  0
  7  6  1  0
  7  8  1  0
  8  9  1  6
 10  8  1  0
 10 17  1  0
 11 10  2  0
 12 13  1  0
 13 14  1  0
 16 15  1  6
 15 14  1  0
 16 17  1  0
 18 16  1  0
 19 18  2  0
 21 20  1  0
 21 22  1  0
 22 23  1  0
 24 23  1  6
 24 25  1  0
 24 26  1  0
 25 18  1  0
 26 27  1  0
 28 26  2  0
M  END
$$$$
