RMM.pdb
     RDKit          3D

 28 27  0  0  1  0  0  0  0  0999 V2000
    8.1062  -12.7147   15.7154 N   0  0  0  0  0  0  0  0  0  0  0  0
    8.1081  -13.9076   14.9478 C   0  0  0  0  0  0  0  0  0  0  0  0
    8.6608  -13.9028   13.7902 N   0  0  0  0  0  0  0  0  0  0  0  0
    7.4923  -15.0871   15.4890 N   0  0  0  0  0  0  0  0  0  0  0  0
    7.1485  -15.1783   16.8666 C   0  0  0  0  0  0  0  0  0  0  0  0
    8.0263  -14.5339   17.8635 C   0  0  0  0  0  0  0  0  0  0  0  0
    7.4890  -14.3456   19.2287 C   0  0  0  0  0  0  0  0  0  0  0  0
    7.8793  -15.4093   20.1797 C   0  0  2  0  0  0  0  0  0  0  0  0
    7.0158  -16.5776   20.1142 N   0  0  0  0  0  0  0  0  0  0  0  0
    7.8791  -14.8873   21.6073 C   0  0  0  0  0  0  0  0  0  0  0  0
    7.1913  -13.9007   21.8709 O   0  0  0  0  0  0  0  0  0  0  0  0
    8.6494  -14.7584   13.2259 C   0  0  0  0  0  0  0  0  0  0  0  0
    7.0215  -12.5661   27.0413 S   0  0  0  0  0  0  0  0  0  0  0  0
    6.0709  -12.5243   25.4940 C   0  0  0  0  0  0  0  0  0  0  0  0
    7.0560  -13.2575   24.1309 C   0  0  0  0  0  0  0  0  0  0  0  0
    7.3933  -14.6538   24.5324 C   0  0  2  0  0  0  0  0  0  0  0  0
    8.6758  -15.1659   24.0085 N   0  0  0  0  0  0  0  0  0  0  0  0
    8.6453  -15.5117   22.6157 C   0  0  0  0  0  0  0  0  0  0  0  0
    9.3571  -16.1846   24.8444 O   0  0  0  0  0  0  0  0  0  0  0  0
    8.6557  -17.0258   25.4446 C   0  0  0  0  0  0  0  0  0  0  0  0
   10.5024  -12.6511   28.7340 S   0  0  0  0  0  0  0  0  0  0  0  0
   10.2995  -14.1965   29.6553 C   0  0  0  0  0  0  0  0  0  0  0  0
   10.9230  -15.5518   28.6807 C   0  0  0  0  0  0  0  0  0  0  0  0
   10.7218  -15.4964   27.2245 C   0  0  1  0  0  0  0  0  0  0  0  0
   11.3335  -16.5289   26.3562 N   0  0  0  0  0  0  0  0  0  0  0  0
   10.7407  -16.2694   25.0088 C   0  0  0  0  0  0  0  0  0  0  0  0
   11.1401  -17.9278   26.7081 O   0  0  0  0  0  0  0  0  0  0  0  0
   12.1026  -18.7664   27.2129 O   0  0  0  0  0  0  0  0  0  0  0  0
  2  1  1  0
  3  2  2  0
  4  2  1  0
  5  4  1  0
  6  5  1  0
  7  6  1  0
  7  8  1  0
  8  9  1  1
 10  8  1  0
 10 17  1  0
 11 10  2  0
 12 13  1  0
 13 14  1  0
 16 15  1  6
 15 14  1  0
 16 17  1  0
 18 16  1  0
 19 18  2  0
 21 20  1  0
 21 22  1  0
 22 23  1  0
 24 23  1  6
 24 25  1  0
 24 26  1  0
 25 18  1  0
 26 27  1  0
 28 26  2  0
M  END
$$$$
