RMM.pdb
     RDKit          3D

 28 27  0  0  1  0  0  0  0  0999 V2000
    7.5831  -12.5072   15.7665 N   0  0  0  0  0  0  0  0  0  0  0  0
    7.5512  -13.7400   15.0654 C   0  0  0  0  0  0  0  0  0  0  0  0
    6.8587  -13.8270   13.9891 N   0  0  0  0  0  0  0  0  0  0  0  0
    8.2961  -14.8552   15.5800 N   0  0  0  0  0  0  0  0  0  0  0  0
    9.0628  -14.7472   16.7736 C   0  0  0  0  0  0  0  0  0  0  0  0
    8.4748  -15.2197   18.0426 C   0  0  0  0  0  0  0  0  0  0  0  0
    9.2613  -15.0175   19.2789 C   0  0  0  0  0  0  0  0  0  0  0  0
    8.9824  -16.0123   20.3375 C   0  0  2  0  0  0  0  0  0  0  0  0
    7.5638  -16.2851   20.5041 N   0  0  0  0  0  0  0  0  0  0  0  0
    9.5472  -15.5560   21.6730 C   0  0  0  0  0  0  0  0  0  0  0  0
   10.7142  -15.1654   21.7135 O   0  0  0  0  0  0  0  0  0  0  0  0
    6.9203  -14.6780   13.4211 C   0  0  0  0  0  0  0  0  0  0  0  0
    7.1616  -11.6139   26.0475 S   0  0  0  0  0  0  0  0  0  0  0  0
    6.0823  -12.8361   25.2472 C   0  0  0  0  0  0  0  0  0  0  0  0
    7.0682  -13.9152   24.1384 C   0  0  0  0  0  0  0  0  0  0  0  0
    8.2978  -14.3088   24.8853 C   0  0  1  0  0  0  0  0  0  0  0  0
    9.1929  -15.2438   24.1739 N   0  0  0  0  0  0  0  0  0  0  0  0
    8.7610  -15.5746   22.8457 C   0  0  0  0  0  0  0  0  0  0  0  0
    9.6436  -16.4258   24.9488 O   0  0  0  0  0  0  0  0  0  0  0  0
    8.7991  -17.2946   25.2515 C   0  0  0  0  0  0  0  0  0  0  0  0
   10.6239  -14.1259   31.4978 S   0  0  0  0  0  0  0  0  0  0  0  0
   10.3658  -14.0187   29.7089 C   0  0  0  0  0  0  0  0  0  0  0  0
   10.8051  -15.5721   28.9543 C   0  0  0  0  0  0  0  0  0  0  0  0
   10.8454  -15.6315   27.4850 C   0  0  1  0  0  0  0  0  0  0  0  0
   11.2694  -16.8796   26.8093 N   0  0  0  0  0  0  0  0  0  0  0  0
   10.9585  -16.6368   25.3675 C   0  0  0  0  0  0  0  0  0  0  0  0
   10.6604  -18.1324   27.2307 O   0  0  0  0  0  0  0  0  0  0  0  0
    9.6355  -18.7802   26.5871 O   0  0  0  0  0  0  0  0  0  0  0  0
  2  1  1  0
  3  2  2  0
  4  2  1  0
  5  4  1  0
  6  5  1  0
  7  6  1  0
  7  8  1  0
  8  9  1  1
 10  8  1  0
 10 17  1  0
 11 10  2  0
 12 13  1  0
 13 14  1  0
 16 15  1  6
 15 14  1  0
 16 17  1  0
 18 16  1  0
 19 18  2  0
 21 20  1  0
 21 22  1  0
 22 23  1  0
 24 23  1  6
 24 25  1  0
 24 26  1  0
 25 18  1  0
 26 27  1  0
 28 26  2  0
M  END
$$$$
