RMM.pdb
     RDKit          3D

 28 27  0  0  1  0  0  0  0  0999 V2000
    8.8019  -14.7298   16.2544 N   0  0  0  0  0  0  0  0  0  0  0  0
    8.1940  -13.7586   17.0907 C   0  0  0  0  0  0  0  0  0  0  0  0
    8.6094  -12.5459   17.0413 N   0  0  0  0  0  0  0  0  0  0  0  0
    7.1299  -14.1603   17.9680 N   0  0  0  0  0  0  0  0  0  0  0  0
    6.8057  -15.5322   18.1604 C   0  0  0  0  0  0  0  0  0  0  0  0
    7.2069  -16.1885   19.4204 C   0  0  0  0  0  0  0  0  0  0  0  0
    8.5723  -16.7528   19.4939 C   0  0  0  0  0  0  0  0  0  0  0  0
    8.8998  -17.3640   20.8005 C   0  0  2  0  0  0  0  0  0  0  0  0
    7.8182  -18.1735   21.3385 N   0  0  0  0  0  0  0  0  0  0  0  0
    9.2608  -16.2983   21.8226 C   0  0  0  0  0  0  0  0  0  0  0  0
   10.2487  -15.5943   21.6118 O   0  0  0  0  0  0  0  0  0  0  0  0
    8.2076  -11.8522   17.6799 C   0  0  0  0  0  0  0  0  0  0  0  0
    5.9554  -11.5364   27.1731 S   0  0  0  0  0  0  0  0  0  0  0  0
    5.8618  -12.9436   26.0284 C   0  0  0  0  0  0  0  0  0  0  0  0
    7.5499  -13.4667   25.5358 C   0  0  0  0  0  0  0  0  0  0  0  0
    7.3980  -14.5020   24.4728 C   0  0  1  0  0  0  0  0  0  0  0  0
    8.6618  -15.0848   23.9781 N   0  0  0  0  0  0  0  0  0  0  0  0
    8.4881  -16.1107   22.9894 C   0  0  0  0  0  0  0  0  0  0  0  0
    9.6608  -15.4415   25.0151 O   0  0  0  0  0  0  0  0  0  0  0  0
   10.0011  -14.5658   25.8380 C   0  0  0  0  0  0  0  0  0  0  0  0
   11.0556  -13.1225   28.8730 S   0  0  0  0  0  0  0  0  0  0  0  0
   10.9717  -14.6905   29.7743 C   0  0  0  0  0  0  0  0  0  0  0  0
   11.3457  -16.0320   28.6624 C   0  0  0  0  0  0  0  0  0  0  0  0
   10.7266  -16.0072   27.3282 C   0  0  1  0  0  0  0  0  0  0  0  0
   11.0936  -17.0347   26.3264 N   0  0  0  0  0  0  0  0  0  0  0  0
   10.2532  -16.6997   25.1365 C   0  0  0  0  0  0  0  0  0  0  0  0
   10.9028  -18.4350   26.6740 O   0  0  0  0  0  0  0  0  0  0  0  0
   10.0432  -19.3045   26.0499 O   0  0  0  0  0  0  0  0  0  0  0  0
  2  1  1  0
  3  2  2  0
  4  2  1  0
  5  4  1  0
  6  5  1  0
  7  6  1  0
  7  8  1  0
  8  9  1  1
 10  8  1  0
 10 17  1  0
 11 10  2  0
 12 13  1  0
 13 14  1  0
 16 15  1  6
 15 14  1  0
 16 17  1  0
 18 16  1  0
 19 18  2  0
 21 20  1  0
 21 22  1  0
 22 23  1  0
 24 23  1  6
 24 25  1  0
 24 26  1  0
 25 18  1  0
 26 27  1  0
 28 26  2  0
M  END
$$$$
