RMM.pdb
     RDKit          3D

 28 27  0  0  1  0  0  0  0  0999 V2000
    7.2687  -15.2483   15.3504 N   0  0  0  0  0  0  0  0  0  0  0  0
    7.6618  -13.9092   15.0966 C   0  0  0  0  0  0  0  0  0  0  0  0
    7.1416  -13.2845   14.1042 N   0  0  0  0  0  0  0  0  0  0  0  0
    8.6300  -13.2905   15.9586 N   0  0  0  0  0  0  0  0  0  0  0  0
    9.3083  -14.0330   16.9649 C   0  0  0  0  0  0  0  0  0  0  0  0
    8.5245  -14.6056   18.0772 C   0  0  0  0  0  0  0  0  0  0  0  0
    8.9195  -14.2369   19.4542 C   0  0  0  0  0  0  0  0  0  0  0  0
    9.0134  -15.3867   20.3801 C   0  0  2  0  0  0  0  0  0  0  0  0
    8.2745  -16.5514   19.9196 N   0  0  0  0  0  0  0  0  0  0  0  0
    8.5101  -15.0109   21.7643 C   0  0  0  0  0  0  0  0  0  0  0  0
    7.7636  -14.0377   21.8726 O   0  0  0  0  0  0  0  0  0  0  0  0
    7.4310  -12.3202   13.9118 C   0  0  0  0  0  0  0  0  0  0  0  0
    7.4901  -11.6789   25.6294 S   0  0  0  0  0  0  0  0  0  0  0  0
    6.2449  -12.9383   26.0328 C   0  0  0  0  0  0  0  0  0  0  0  0
    7.0028  -14.6085   25.9895 C   0  0  0  0  0  0  0  0  0  0  0  0
    7.2822  -14.9289   24.5598 C   0  0  1  0  0  0  0  0  0  0  0  0
    8.6555  -15.3927   24.2765 N   0  0  0  0  0  0  0  0  0  0  0  0
    8.8827  -15.7536   22.9059 C   0  0  0  0  0  0  0  0  0  0  0  0
    9.2194  -16.3736   25.2359 O   0  0  0  0  0  0  0  0  0  0  0  0
    8.4915  -17.3122   25.6221 C   0  0  0  0  0  0  0  0  0  0  0  0
    9.2832  -14.0120   30.0985 S   0  0  0  0  0  0  0  0  0  0  0  0
   10.8411  -13.5675   29.2901 C   0  0  0  0  0  0  0  0  0  0  0  0
   11.1553  -14.6990   27.9498 C   0  0  0  0  0  0  0  0  0  0  0  0
   10.6301  -16.0677   28.0729 C   0  0  2  0  0  0  0  0  0  0  0  0
   10.8796  -17.0524   26.9948 N   0  0  0  0  0  0  0  0  0  0  0  0
   10.5191  -16.3203   25.7424 C   0  0  0  0  0  0  0  0  0  0  0  0
   10.1623  -18.3180   27.0382 O   0  0  0  0  0  0  0  0  0  0  0  0
   10.5236  -19.4176   27.7763 O   0  0  0  0  0  0  0  0  0  0  0  0
  2  1  1  0
  3  2  2  0
  4  2  1  0
  5  4  1  0
  6  5  1  0
  7  6  1  0
  7  8  1  0
  8  9  1  6
 10  8  1  0
 10 17  1  0
 11 10  2  0
 12 13  1  0
 13 14  1  0
 16 15  1  6
 15 14  1  0
 16 17  1  0
 18 16  1  0
 19 18  2  0
 21 20  1  0
 21 22  1  0
 22 23  1  0
 24 23  1  6
 24 25  1  0
 24 26  1  0
 25 18  1  0
 26 27  1  0
 28 26  2  0
M  END
$$$$
