RMM.pdb
     RDKit          3D

 28 27  0  0  1  0  0  0  0  0999 V2000
    8.7602  -15.6415   15.0281 N   0  0  0  0  0  0  0  0  0  0  0  0
    8.1868  -14.3793   14.7275 C   0  0  0  0  0  0  0  0  0  0  0  0
    7.7805  -14.1481   13.5329 N   0  0  0  0  0  0  0  0  0  0  0  0
    8.0763  -13.3967   15.7694 N   0  0  0  0  0  0  0  0  0  0  0  0
    8.5883  -13.6393   17.0745 C   0  0  0  0  0  0  0  0  0  0  0  0
    8.0071  -14.7352   17.8748 C   0  0  0  0  0  0  0  0  0  0  0  0
    7.8322  -14.5054   19.3256 C   0  0  0  0  0  0  0  0  0  0  0  0
    8.6990  -15.3501   20.1760 C   0  0  2  0  0  0  0  0  0  0  0  0
    8.2150  -16.7153   20.3050 N   0  0  0  0  0  0  0  0  0  0  0  0
    8.8408  -14.7538   21.5671 C   0  0  0  0  0  0  0  0  0  0  0  0
    9.5555  -13.7614   21.7097 O   0  0  0  0  0  0  0  0  0  0  0  0
    7.4382  -13.2124   13.2923 C   0  0  0  0  0  0  0  0  0  0  0  0
    6.7522  -11.7786   27.3495 S   0  0  0  0  0  0  0  0  0  0  0  0
    6.5149  -12.5761   25.7348 C   0  0  0  0  0  0  0  0  0  0  0  0
    6.4690  -14.3992   25.9346 C   0  0  0  0  0  0  0  0  0  0  0  0
    6.6764  -14.9962   24.5836 C   0  0  1  0  0  0  0  0  0  0  0  0
    7.9861  -14.7092   23.9641 N   0  0  0  0  0  0  0  0  0  0  0  0
    8.1726  -15.3160   22.6767 C   0  0  0  0  0  0  0  0  0  0  0  0
    9.1675  -14.8527   24.8497 O   0  0  0  0  0  0  0  0  0  0  0  0
    9.2579  -14.1038   25.8451 C   0  0  0  0  0  0  0  0  0  0  0  0
   12.0325  -14.4159   30.8779 S   0  0  0  0  0  0  0  0  0  0  0  0
   11.0791  -14.0671   29.3787 C   0  0  0  0  0  0  0  0  0  0  0  0
   11.3828  -15.3452   28.1745 C   0  0  0  0  0  0  0  0  0  0  0  0
   10.7609  -15.1980   26.8496 C   0  0  1  0  0  0  0  0  0  0  0  0
   11.1476  -16.1105   25.7486 N   0  0  0  0  0  0  0  0  0  0  0  0
   10.1954  -15.7751   24.6462 C   0  0  0  0  0  0  0  0  0  0  0  0
   11.1131  -17.5440   25.9975 O   0  0  0  0  0  0  0  0  0  0  0  0
   10.1834  -18.4210   25.4966 O   0  0  0  0  0  0  0  0  0  0  0  0
  2  1  1  0
  3  2  2  0
  4  2  1  0
  5  4  1  0
  6  5  1  0
  7  6  1  0
  7  8  1  0
  8  9  1  1
 10  8  1  0
 10 17  1  0
 11 10  2  0
 12 13  1  0
 13 14  1  0
 16 15  1  6
 15 14  1  0
 16 17  1  0
 18 16  1  0
 19 18  2  0
 21 20  1  0
 21 22  1  0
 22 23  1  0
 24 23  1  6
 24 25  1  0
 24 26  1  0
 25 18  1  0
 26 27  1  0
 28 26  2  0
M  END
$$$$
