RMM.pdb
     RDKit          3D

 28 27  0  0  1  0  0  0  0  0999 V2000
    9.6412  -13.5775   17.5065 N   0  0  0  0  0  0  0  0  0  0  0  0
    8.2936  -13.8484   17.1558 C   0  0  0  0  0  0  0  0  0  0  0  0
    7.4651  -12.8732   17.0656 N   0  0  0  0  0  0  0  0  0  0  0  0
    7.8956  -15.2066   16.9105 N   0  0  0  0  0  0  0  0  0  0  0  0
    8.8052  -16.2876   17.0787 C   0  0  0  0  0  0  0  0  0  0  0  0
    8.8399  -16.9937   18.3747 C   0  0  0  0  0  0  0  0  0  0  0  0
    9.3132  -16.2369   19.5543 C   0  0  0  0  0  0  0  0  0  0  0  0
    9.3593  -17.0335   20.7999 C   0  0  2  0  0  0  0  0  0  0  0  0
    8.1243  -17.7556   21.0609 N   0  0  0  0  0  0  0  0  0  0  0  0
    9.6651  -16.1495   21.9981 C   0  0  0  0  0  0  0  0  0  0  0  0
   10.8205  -15.7540   22.1553 O   0  0  0  0  0  0  0  0  0  0  0  0
    6.4800  -13.0699   16.8618 C   0  0  0  0  0  0  0  0  0  0  0  0
    6.7382  -10.7720   26.2540 S   0  0  0  0  0  0  0  0  0  0  0  0
    7.1819  -12.5308   26.3492 C   0  0  0  0  0  0  0  0  0  0  0  0
    7.1389  -13.2816   24.6758 C   0  0  0  0  0  0  0  0  0  0  0  0
    7.5677  -14.7030   24.8192 C   0  0  2  0  0  0  0  0  0  0  0  0
    8.8306  -15.0503   24.1365 N   0  0  0  0  0  0  0  0  0  0  0  0
    8.6557  -15.7835   22.9150 C   0  0  0  0  0  0  0  0  0  0  0  0
    9.9019  -15.6066   24.9988 O   0  0  0  0  0  0  0  0  0  0  0  0
   10.7165  -14.8155   25.5187 C   0  0  0  0  0  0  0  0  0  0  0  0
   10.2927  -14.0990   30.6100 S   0  0  0  0  0  0  0  0  0  0  0  0
    9.6290  -14.6487   29.0177 C   0  0  0  0  0  0  0  0  0  0  0  0
    9.8998  -16.4007   28.8376 C   0  0  0  0  0  0  0  0  0  0  0  0
    9.5296  -17.0218   27.5565 C   0  0  2  0  0  0  0  0  0  0  0  0
   10.5864  -17.4193   26.5976 N   0  0  0  0  0  0  0  0  0  0  0  0
   10.0648  -16.9658   25.2723 C   0  0  0  0  0  0  0  0  0  0  0  0
   10.9507  -18.8261   26.5180 O   0  0  0  0  0  0  0  0  0  0  0  0
   10.4330  -19.7378   25.6319 O   0  0  0  0  0  0  0  0  0  0  0  0
  2  1  1  0
  3  2  2  0
  4  2  1  0
  5  4  1  0
  6  5  1  0
  7  6  1  0
  7  8  1  0
  8  9  1  1
 10  8  1  0
 10 17  1  0
 11 10  2  0
 12 13  1  0
 13 14  1  0
 16 15  1  6
 15 14  1  0
 16 17  1  0
 18 16  1  0
 19 18  2  0
 21 20  1  0
 21 22  1  0
 22 23  1  0
 24 23  1  1
 24 25  1  0
 24 26  1  0
 25 18  1  0
 26 27  1  0
 28 26  2  0
M  END
$$$$
