RMM.pdb
     RDKit          3D

 28 27  0  0  1  0  0  0  0  0999 V2000
    7.0643  -15.2054   15.4496 N   0  0  0  0  0  0  0  0  0  0  0  0
    7.8726  -14.0518   15.2823 C   0  0  0  0  0  0  0  0  0  0  0  0
    8.5176  -13.8968   14.1842 N   0  0  0  0  0  0  0  0  0  0  0  0
    7.9450  -13.0896   16.3463 N   0  0  0  0  0  0  0  0  0  0  0  0
    7.2024  -13.2564   17.5483 C   0  0  0  0  0  0  0  0  0  0  0  0
    7.5273  -14.3919   18.4341 C   0  0  0  0  0  0  0  0  0  0  0  0
    8.8517  -14.3891   19.0929 C   0  0  0  0  0  0  0  0  0  0  0  0
    9.0593  -15.5161   20.0284 C   0  0  2  0  0  0  0  0  0  0  0  0
    7.9870  -16.4973   19.9860 N   0  0  0  0  0  0  0  0  0  0  0  0
    9.2010  -15.0161   21.4569 C   0  0  0  0  0  0  0  0  0  0  0  0
   10.0522  -14.1592   21.6966 O   0  0  0  0  0  0  0  0  0  0  0  0
    9.0209  -13.0194   14.0183 C   0  0  0  0  0  0  0  0  0  0  0  0
    7.6596  -11.5102   26.6748 S   0  0  0  0  0  0  0  0  0  0  0  0
    6.4025  -12.4333   25.7437 C   0  0  0  0  0  0  0  0  0  0  0  0
    6.8369  -14.2151   25.6968 C   0  0  0  0  0  0  0  0  0  0  0  0
    6.9623  -14.6007   24.2615 C   0  0  1  0  0  0  0  0  0  0  0  0
    8.3118  -15.0299   23.8416 N   0  0  0  0  0  0  0  0  0  0  0  0
    8.3808  -15.5147   22.4923 C   0  0  0  0  0  0  0  0  0  0  0  0
    9.0486  -15.8854   24.8039 O   0  0  0  0  0  0  0  0  0  0  0  0
    8.4446  -16.8437   25.3298 C   0  0  0  0  0  0  0  0  0  0  0  0
   12.1251  -14.3789   31.0115 S   0  0  0  0  0  0  0  0  0  0  0  0
   11.0486  -13.7754   29.6867 C   0  0  0  0  0  0  0  0  0  0  0  0
   10.2729  -15.1610   28.8780 C   0  0  0  0  0  0  0  0  0  0  0  0
   10.1031  -15.0936   27.4184 C   0  0  1  0  0  0  0  0  0  0  0  0
   10.8537  -16.0256   26.5453 N   0  0  0  0  0  0  0  0  0  0  0  0
   10.3828  -15.6920   25.1665 C   0  0  0  0  0  0  0  0  0  0  0  0
   10.7048  -17.4551   26.7743 O   0  0  0  0  0  0  0  0  0  0  0  0
   11.6549  -18.2811   27.3215 O   0  0  0  0  0  0  0  0  0  0  0  0
  2  1  1  0
  3  2  2  0
  4  2  1  0
  5  4  1  0
  6  5  1  0
  7  6  1  0
  7  8  1  0
  8  9  1  1
 10  8  1  0
 10 17  1  0
 11 10  2  0
 12 13  1  0
 13 14  1  0
 16 15  1  6
 15 14  1  0
 16 17  1  0
 18 16  1  0
 19 18  2  0
 21 20  1  0
 21 22  1  0
 22 23  1  0
 24 23  1  6
 24 25  1  0
 24 26  1  0
 25 18  1  0
 26 27  1  0
 28 26  2  0
M  END
$$$$
