RMM.pdb
     RDKit          3D

 28 27  0  0  1  0  0  0  0  0999 V2000
    8.3753  -13.6921   14.3421 N   0  0  0  0  0  0  0  0  0  0  0  0
    8.0408  -14.8152   15.1414 C   0  0  0  0  0  0  0  0  0  0  0  0
    8.4536  -15.9771   14.7874 N   0  0  0  0  0  0  0  0  0  0  0  0
    7.2506  -14.6195   16.3249 N   0  0  0  0  0  0  0  0  0  0  0  0
    7.6029  -13.6439   17.2986 C   0  0  0  0  0  0  0  0  0  0  0  0
    8.8666  -13.8064   18.0443 C   0  0  0  0  0  0  0  0  0  0  0  0
    8.8231  -13.6287   19.5122 C   0  0  0  0  0  0  0  0  0  0  0  0
    8.8885  -14.8959   20.2726 C   0  0  2  0  0  0  0  0  0  0  0  0
    7.7330  -15.7516   20.0554 N   0  0  0  0  0  0  0  0  0  0  0  0
    9.0185  -14.6278   21.7632 C   0  0  0  0  0  0  0  0  0  0  0  0
    9.9820  -13.9714   22.1591 O   0  0  0  0  0  0  0  0  0  0  0  0
    8.2142  -16.7907   15.3629 C   0  0  0  0  0  0  0  0  0  0  0  0
    6.3196  -11.0574   26.2856 S   0  0  0  0  0  0  0  0  0  0  0  0
    7.5705  -12.3729   26.3504 C   0  0  0  0  0  0  0  0  0  0  0  0
    6.7813  -14.0053   26.0701 C   0  0  0  0  0  0  0  0  0  0  0  0
    6.8114  -14.2632   24.6014 C   0  0  2  0  0  0  0  0  0  0  0  0
    8.0471  -14.8983   24.1000 N   0  0  0  0  0  0  0  0  0  0  0  0
    8.0624  -15.1145   22.6811 C   0  0  0  0  0  0  0  0  0  0  0  0
    8.5328  -16.0691   24.8707 O   0  0  0  0  0  0  0  0  0  0  0  0
    7.8256  -17.0982   24.8960 C   0  0  0  0  0  0  0  0  0  0  0  0
   13.4804  -19.4902   23.5998 S   0  0  0  0  0  0  0  0  0  0  0  0
   13.8051  -19.1784   25.3535 C   0  0  0  0  0  0  0  0  0  0  0  0
   12.2729  -18.7975   26.1797 C   0  0  0  0  0  0  0  0  0  0  0  0
   11.4867  -17.6620   25.6730 C   0  0  1  0  0  0  0  0  0  0  0  0
   10.1738  -17.3449   26.2813 N   0  0  0  0  0  0  0  0  0  0  0  0
    9.7367  -16.1013   25.5765 C   0  0  0  0  0  0  0  0  0  0  0  0
   10.1145  -17.1315   27.7198 O   0  0  0  0  0  0  0  0  0  0  0  0
    9.9003  -15.9266   28.3418 O   0  0  0  0  0  0  0  0  0  0  0  0
  2  1  1  0
  3  2  2  0
  4  2  1  0
  5  4  1  0
  6  5  1  0
  7  6  1  0
  7  8  1  0
  8  9  1  1
 10  8  1  0
 10 17  1  0
 11 10  2  0
 12 13  1  0
 13 14  1  0
 16 15  1  6
 15 14  1  0
 16 17  1  0
 18 16  1  0
 19 18  2  0
 21 20  1  0
 21 22  1  0
 22 23  1  0
 24 23  1  6
 24 25  1  0
 24 26  1  0
 25 18  1  0
 26 27  1  0
 28 26  2  0
M  END
$$$$
