RMM.pdb
     RDKit          3D

 28 27  0  0  1  0  0  0  0  0999 V2000
    9.2123  -14.1192   16.5816 N   0  0  0  0  0  0  0  0  0  0  0  0
    8.3321  -13.3152   17.3503 C   0  0  0  0  0  0  0  0  0  0  0  0
    8.7030  -12.1353   17.6908 N   0  0  0  0  0  0  0  0  0  0  0  0
    7.0502  -13.8444   17.7244 N   0  0  0  0  0  0  0  0  0  0  0  0
    6.9245  -14.8362   18.7367 C   0  0  0  0  0  0  0  0  0  0  0  0
    7.7872  -16.0324   18.6724 C   0  0  0  0  0  0  0  0  0  0  0  0
    9.1680  -15.9093   19.1884 C   0  0  0  0  0  0  0  0  0  0  0  0
    9.4473  -16.7607   20.3655 C   0  0  2  0  0  0  0  0  0  0  0  0
    8.4999  -17.8536   20.5163 N   0  0  0  0  0  0  0  0  0  0  0  0
    9.4434  -15.9375   21.6434 C   0  0  0  0  0  0  0  0  0  0  0  0
   10.2518  -15.0149   21.7491 O   0  0  0  0  0  0  0  0  0  0  0  0
    8.0566  -11.5393   18.2175 C   0  0  0  0  0  0  0  0  0  0  0  0
    6.4852  -12.1104   26.9145 S   0  0  0  0  0  0  0  0  0  0  0  0
    6.6977  -13.1368   25.4310 C   0  0  0  0  0  0  0  0  0  0  0  0
    7.0797  -14.8655   25.9120 C   0  0  0  0  0  0  0  0  0  0  0  0
    7.1911  -15.6588   24.6538 C   0  0  2  0  0  0  0  0  0  0  0  0
    8.5064  -15.5948   23.9848 N   0  0  0  0  0  0  0  0  0  0  0  0
    8.5380  -16.2150   22.6907 C   0  0  0  0  0  0  0  0  0  0  0  0
    9.6784  -15.9442   24.8245 O   0  0  0  0  0  0  0  0  0  0  0  0
   10.7240  -15.2740   24.6929 C   0  0  0  0  0  0  0  0  0  0  0  0
   11.7438  -13.5250   31.0457 S   0  0  0  0  0  0  0  0  0  0  0  0
   10.8151  -13.6864   29.4999 C   0  0  0  0  0  0  0  0  0  0  0  0
   11.0217  -15.3349   28.8556 C   0  0  0  0  0  0  0  0  0  0  0  0
   10.3675  -15.6567   27.5778 C   0  0  1  0  0  0  0  0  0  0  0  0
   10.6457  -16.9508   26.9129 N   0  0  0  0  0  0  0  0  0  0  0  0
    9.6944  -16.9799   25.7603 C   0  0  0  0  0  0  0  0  0  0  0  0
   10.4987  -18.1713   27.6919 O   0  0  0  0  0  0  0  0  0  0  0  0
   11.4720  -18.7453   28.4714 O   0  0  0  0  0  0  0  0  0  0  0  0
  2  1  1  0
  3  2  2  0
  4  2  1  0
  5  4  1  0
  6  5  1  0
  7  6  1  0
  7  8  1  0
  8  9  1  1
 10  8  1  0
 10 17  1  0
 11 10  2  0
 12 13  1  0
 13 14  1  0
 16 15  1  6
 15 14  1  0
 16 17  1  0
 18 16  1  0
 19 18  2  0
 21 20  1  0
 21 22  1  0
 22 23  1  0
 24 23  1  6
 24 25  1  0
 24 26  1  0
 25 18  1  0
 26 27  1  0
 28 26  2  0
M  END
$$$$
