RMM.pdb
     RDKit          3D

 28 27  0  0  1  0  0  0  0  0999 V2000
    9.0661  -13.4764   16.9767 N   0  0  0  0  0  0  0  0  0  0  0  0
    8.6373  -14.0479   15.7512 C   0  0  0  0  0  0  0  0  0  0  0  0
    8.4560  -13.2836   14.7369 N   0  0  0  0  0  0  0  0  0  0  0  0
    8.4194  -15.4659   15.6806 N   0  0  0  0  0  0  0  0  0  0  0  0
    8.3230  -16.2606   16.8567 C   0  0  0  0  0  0  0  0  0  0  0  0
    7.3926  -15.8427   17.9239 C   0  0  0  0  0  0  0  0  0  0  0  0
    7.9745  -15.2344   19.1402 C   0  0  0  0  0  0  0  0  0  0  0  0
    8.1764  -16.1896   20.2516 C   0  0  2  0  0  0  0  0  0  0  0  0
    7.0260  -17.0490   20.4809 N   0  0  0  0  0  0  0  0  0  0  0  0
    8.4986  -15.4575   21.5442 C   0  0  0  0  0  0  0  0  0  0  0  0
    9.4727  -14.7046   21.5646 O   0  0  0  0  0  0  0  0  0  0  0  0
    8.1344  -13.6915   13.8533 C   0  0  0  0  0  0  0  0  0  0  0  0
    6.9594  -11.2942   26.2470 S   0  0  0  0  0  0  0  0  0  0  0  0
    5.9335  -12.7605   25.9358 C   0  0  0  0  0  0  0  0  0  0  0  0
    6.9338  -14.2839   26.1467 C   0  0  0  0  0  0  0  0  0  0  0  0
    6.7837  -15.0863   24.8983 C   0  0  2  0  0  0  0  0  0  0  0  0
    7.9580  -15.0804   24.0025 N   0  0  0  0  0  0  0  0  0  0  0  0
    7.7060  -15.6287   22.7001 C   0  0  0  0  0  0  0  0  0  0  0  0
    9.2297  -15.5593   24.5975 O   0  0  0  0  0  0  0  0  0  0  0  0
   10.2577  -14.8685   24.4369 C   0  0  0  0  0  0  0  0  0  0  0  0
    9.7132  -13.1604   28.8029 S   0  0  0  0  0  0  0  0  0  0  0  0
   11.0785  -14.1853   29.4061 C   0  0  0  0  0  0  0  0  0  0  0  0
   11.1679  -15.6794   28.4390 C   0  0  0  0  0  0  0  0  0  0  0  0
   10.3115  -15.7745   27.2467 C   0  0  1  0  0  0  0  0  0  0  0  0
   10.4760  -16.9102   26.3100 N   0  0  0  0  0  0  0  0  0  0  0  0
    9.3590  -16.7398   25.3314 C   0  0  0  0  0  0  0  0  0  0  0  0
   10.4422  -18.2606   26.8516 O   0  0  0  0  0  0  0  0  0  0  0  0
   11.4935  -18.9091   27.4505 O   0  0  0  0  0  0  0  0  0  0  0  0
  2  1  1  0
  3  2  2  0
  4  2  1  0
  5  4  1  0
  6  5  1  0
  7  6  1  0
  7  8  1  0
  8  9  1  1
 10  8  1  0
 10 17  1  0
 11 10  2  0
 12 13  1  0
 13 14  1  0
 16 15  1  6
 15 14  1  0
 16 17  1  0
 18 16  1  0
 19 18  2  0
 21 20  1  0
 21 22  1  0
 22 23  1  0
 24 23  1  6
 24 25  1  0
 24 26  1  0
 25 18  1  0
 26 27  1  0
 28 26  2  0
M  END
$$$$
