RMM.pdb
     RDKit          3D

 28 27  0  0  1  0  0  0  0  0999 V2000
    7.0657  -15.1166   14.5669 N   0  0  0  0  0  0  0  0  0  0  0  0
    8.0115  -14.0595   14.5557 C   0  0  0  0  0  0  0  0  0  0  0  0
    7.8884  -13.1225   13.6882 N   0  0  0  0  0  0  0  0  0  0  0  0
    9.0792  -14.0676   15.5166 N   0  0  0  0  0  0  0  0  0  0  0  0
    9.3079  -15.1895   16.3611 C   0  0  0  0  0  0  0  0  0  0  0  0
    8.7304  -15.1874   17.7197 C   0  0  0  0  0  0  0  0  0  0  0  0
    9.6162  -14.8013   18.8396 C   0  0  0  0  0  0  0  0  0  0  0  0
    9.7320  -15.8305   19.8958 C   0  0  2  0  0  0  0  0  0  0  0  0
    8.6192  -16.7666   19.9043 N   0  0  0  0  0  0  0  0  0  0  0  0
    9.8343  -15.1884   21.2699 C   0  0  0  0  0  0  0  0  0  0  0  0
   10.7898  -14.4470   21.5010 O   0  0  0  0  0  0  0  0  0  0  0  0
    8.5948  -12.3809   13.6481 C   0  0  0  0  0  0  0  0  0  0  0  0
    5.8316  -11.9573   27.1236 S   0  0  0  0  0  0  0  0  0  0  0  0
    5.9234  -12.8103   25.5226 C   0  0  0  0  0  0  0  0  0  0  0  0
    7.6258  -13.4323   25.2382 C   0  0  0  0  0  0  0  0  0  0  0  0
    7.6449  -14.0625   23.8865 C   0  0  2  0  0  0  0  0  0  0  0  0
    8.8381  -14.8815   23.5917 N   0  0  0  0  0  0  0  0  0  0  0  0
    8.8619  -15.4287   22.2650 C   0  0  0  0  0  0  0  0  0  0  0  0
    9.2214  -15.8666   24.6326 O   0  0  0  0  0  0  0  0  0  0  0  0
    9.1161  -17.0824   24.3671 C   0  0  0  0  0  0  0  0  0  0  0  0
   11.8324  -13.7364   30.0452 S   0  0  0  0  0  0  0  0  0  0  0  0
   12.0109  -15.4922   30.4495 C   0  0  0  0  0  0  0  0  0  0  0  0
   11.4689  -16.4754   29.0657 C   0  0  0  0  0  0  0  0  0  0  0  0
   10.8370  -15.7765   27.9360 C   0  0  1  0  0  0  0  0  0  0  0  0
   10.3604  -16.5487   26.7652 N   0  0  0  0  0  0  0  0  0  0  0  0
    9.6960  -15.5263   25.9006 C   0  0  0  0  0  0  0  0  0  0  0  0
    9.4439  -17.6553   26.9964 O   0  0  0  0  0  0  0  0  0  0  0  0
    9.8048  -18.9637   27.2016 O   0  0  0  0  0  0  0  0  0  0  0  0
  2  1  1  0
  3  2  2  0
  4  2  1  0
  5  4  1  0
  6  5  1  0
  7  6  1  0
  7  8  1  0
  8  9  1  1
 10  8  1  0
 10 17  1  0
 11 10  2  0
 12 13  1  0
 13 14  1  0
 16 15  1  6
 15 14  1  0
 16 17  1  0
 18 16  1  0
 19 18  2  0
 21 20  1  0
 21 22  1  0
 22 23  1  0
 24 23  1  6
 24 25  1  0
 24 26  1  0
 25 18  1  0
 26 27  1  0
 28 26  2  0
M  END
$$$$
