GRM.pdb
     RDKit          3D

 24 23  0  0  1  0  0  0  0  0999 V2000
    6.6067  -20.9756   23.3819 N   0  0  0  0  0  0  0  0  0  0  0  0
    6.2077  -19.6159   23.1496 C   0  0  0  0  0  0  0  0  0  0  0  0
    7.4039  -18.7959   22.8637 C   0  0  0  0  0  0  0  0  0  0  0  0
    8.5382  -19.3098   22.9941 O   0  0  0  0  0  0  0  0  0  0  0  0
    8.7709  -13.7266   17.6296 N   0  0  0  0  0  0  0  0  0  0  0  0
    8.4580  -12.8038   18.6422 C   0  0  0  0  0  0  0  0  0  0  0  0
    9.1264  -11.6887   18.7845 N   0  0  0  0  0  0  0  0  0  0  0  0
    7.4012  -13.0368   19.5600 N   0  0  0  0  0  0  0  0  0  0  0  0
    6.7568  -14.3909   19.5460 C   0  0  0  0  0  0  0  0  0  0  0  0
    7.0062  -15.0612   20.8518 C   0  0  0  0  0  0  0  0  0  0  0  0
    8.2264  -15.8260   21.0348 C   0  0  0  0  0  0  0  0  0  0  0  0
    8.5738  -16.6405   22.1990 C   0  0  2  0  0  0  0  0  0  0  0  0
    7.3210  -17.4498   22.4474 N   0  0  0  0  0  0  0  0  0  0  0  0
    8.7781  -15.9664   23.5075 C   0  0  0  0  0  0  0  0  0  0  0  0
    8.9105  -14.7290   23.5939 O   0  0  0  0  0  0  0  0  0  0  0  0
    8.9091  -11.0342   19.5557 C   0  0  0  0  0  0  0  0  0  0  0  0
    7.5703  -11.7959   27.5500 S   0  0  0  0  0  0  0  0  0  0  0  0
    6.2576  -12.9752   27.1739 C   0  0  0  0  0  0  0  0  0  0  0  0
    6.9273  -14.6345   27.2860 C   0  0  0  0  0  0  0  0  0  0  0  0
    7.3488  -15.2809   26.0297 C   0  0  1  0  0  0  0  0  0  0  0  0
    8.6849  -15.9010   26.0321 N   0  0  0  0  0  0  0  0  0  0  0  0
    8.8384  -16.6679   24.7476 C   0  0  0  0  0  0  0  0  0  0  0  0
    8.9219  -16.8116   27.1496 O   0  0  0  0  0  0  0  0  0  0  0  0
    9.1725  -16.4083   28.4439 O   0  0  0  0  0  0  0  0  0  0  0  0
  1  2  1  0
  3  2  1  0
  3 13  1  0
  4  3  2  0
  5  6  1  0
  6  8  1  0
  7  6  2  0
  8  9  1  0
  9 10  1  0
 10 11  1  0
 12 11  1  6
 12 13  1  0
 14 12  1  0
 14 21  1  0
 15 14  2  0
 17 16  1  0
 18 19  1  0
 18 17  1  0
 20 21  1  0
 20 19  1  6
 22 20  1  0
 23 22  1  0
 24 22  2  0
M  END
$$$$
