GRM.pdb
     RDKit          3D

 24 23  0  0  1  0  0  0  0  0999 V2000
   10.1464  -18.1097   19.3625 N   0  0  0  0  0  0  0  0  0  0  0  0
    9.0693  -19.0096   19.6658 C   0  0  0  0  0  0  0  0  0  0  0  0
    8.2800  -18.4677   20.7919 C   0  0  0  0  0  0  0  0  0  0  0  0
    7.9860  -17.2506   20.7978 O   0  0  0  0  0  0  0  0  0  0  0  0
    1.3972  -19.4369   22.2271 N   0  0  0  0  0  0  0  0  0  0  0  0
    2.0251  -19.9623   21.0849 C   0  0  0  0  0  0  0  0  0  0  0  0
    1.5378  -19.7731   19.8860 N   0  0  0  0  0  0  0  0  0  0  0  0
    3.2190  -20.7236   21.1765 N   0  0  0  0  0  0  0  0  0  0  0  0
    3.7868  -20.9607   22.5442 C   0  0  0  0  0  0  0  0  0  0  0  0
    4.5200  -19.7418   22.9839 C   0  0  0  0  0  0  0  0  0  0  0  0
    5.9613  -19.8012   23.1466 C   0  0  0  0  0  0  0  0  0  0  0  0
    6.9064  -18.7090   22.9160 C   0  0  2  0  0  0  0  0  0  0  0  0
    7.8410  -19.2691   21.8677 N   0  0  0  0  0  0  0  0  0  0  0  0
    7.8442  -18.3334   24.0059 C   0  0  0  0  0  0  0  0  0  0  0  0
    9.0549  -18.1274   23.7871 O   0  0  0  0  0  0  0  0  0  0  0  0
    2.0067  -20.1704   19.0537 C   0  0  0  0  0  0  0  0  0  0  0  0
    9.9486  -13.4556   28.3669 S   0  0  0  0  0  0  0  0  0  0  0  0
    9.8382  -14.7140   27.0786 C   0  0  0  0  0  0  0  0  0  0  0  0
    8.2218  -14.6085   26.3103 C   0  0  0  0  0  0  0  0  0  0  0  0
    7.7283  -15.8050   25.6042 C   0  0  1  0  0  0  0  0  0  0  0  0
    8.0774  -17.1052   26.2022 N   0  0  0  0  0  0  0  0  0  0  0  0
    7.4422  -18.1815   25.3657 C   0  0  0  0  0  0  0  0  0  0  0  0
    7.6349  -17.2678   27.5849 O   0  0  0  0  0  0  0  0  0  0  0  0
    8.4812  -17.3323   28.6714 O   0  0  0  0  0  0  0  0  0  0  0  0
  1  2  1  0
  3  2  1  0
  3 13  1  0
  4  3  2  0
  5  6  1  0
  6  8  1  0
  7  6  2  0
  8  9  1  0
  9 10  1  0
 10 11  1  0
 12 11  1  1
 12 13  1  0
 14 12  1  0
 14 21  1  0
 15 14  2  0
 17 16  1  0
 18 19  1  0
 18 17  1  0
 20 21  1  0
 20 19  1  6
 22 20  1  0
 23 22  1  0
 24 22  2  0
M  END
$$$$
