GRM.pdb
     RDKit          3D

 24 23  0  0  1  0  0  0  0  0999 V2000
    7.0153  -21.8568   24.5315 N   0  0  0  0  0  0  0  0  0  0  0  0
    6.3223  -20.6038   24.6385 C   0  0  0  0  0  0  0  0  0  0  0  0
    7.1059  -19.5505   23.9593 C   0  0  0  0  0  0  0  0  0  0  0  0
    8.3518  -19.6609   23.9030 O   0  0  0  0  0  0  0  0  0  0  0  0
    8.4572  -14.4793   18.0821 N   0  0  0  0  0  0  0  0  0  0  0  0
    8.2208  -13.3819   18.9275 C   0  0  0  0  0  0  0  0  0  0  0  0
    8.1164  -12.1652   18.4591 N   0  0  0  0  0  0  0  0  0  0  0  0
    8.0836  -13.5402   20.3308 N   0  0  0  0  0  0  0  0  0  0  0  0
    8.1043  -14.9371   20.8762 C   0  0  0  0  0  0  0  0  0  0  0  0
    6.7183  -15.3342   21.2479 C   0  0  0  0  0  0  0  0  0  0  0  0
    6.4937  -16.6255   21.8718 C   0  0  0  0  0  0  0  0  0  0  0  0
    7.3511  -17.2697   22.8664 C   0  0  2  0  0  0  0  0  0  0  0  0
    6.5054  -18.4184   23.3676 N   0  0  0  0  0  0  0  0  0  0  0  0
    7.6641  -16.5378   24.1213 C   0  0  0  0  0  0  0  0  0  0  0  0
    6.8815  -16.5373   25.0926 O   0  0  0  0  0  0  0  0  0  0  0  0
    8.0573  -11.3536   19.0981 C   0  0  0  0  0  0  0  0  0  0  0  0
    5.7958  -11.6756   26.4246 S   0  0  0  0  0  0  0  0  0  0  0  0
    7.4386  -11.8429   27.1517 C   0  0  0  0  0  0  0  0  0  0  0  0
    7.8657  -13.5830   27.2106 C   0  0  0  0  0  0  0  0  0  0  0  0
    7.8629  -14.3245   25.9362 C   0  0  1  0  0  0  0  0  0  0  0  0
    9.0859  -15.0824   25.6204 N   0  0  0  0  0  0  0  0  0  0  0  0
    8.8634  -15.7901   24.3121 C   0  0  0  0  0  0  0  0  0  0  0  0
    9.4554  -16.0727   26.6287 O   0  0  0  0  0  0  0  0  0  0  0  0
   10.1284  -15.7821   27.7964 O   0  0  0  0  0  0  0  0  0  0  0  0
  1  2  1  0
  3  2  1  0
  3 13  1  0
  4  3  2  0
  5  6  1  0
  6  8  1  0
  7  6  2  0
  8  9  1  0
  9 10  1  0
 10 11  1  0
 12 11  1  6
 12 13  1  0
 14 12  1  0
 14 21  1  0
 15 14  2  0
 17 16  1  0
 18 19  1  0
 18 17  1  0
 20 21  1  0
 20 19  1  6
 22 20  1  0
 23 22  1  0
 24 22  2  0
M  END
$$$$
