GRM.pdb
     RDKit          3D

 24 23  0  0  1  0  0  0  0  0999 V2000
    7.9205  -12.7630   17.8810 N   0  0  0  0  0  0  0  0  0  0  0  0
    8.9169  -13.3789   18.7114 C   0  0  0  0  0  0  0  0  0  0  0  0
    8.2649  -14.3303   19.6359 C   0  0  0  0  0  0  0  0  0  0  0  0
    7.0191  -14.4514   19.6042 O   0  0  0  0  0  0  0  0  0  0  0  0
   12.5067  -18.9478   21.5731 N   0  0  0  0  0  0  0  0  0  0  0  0
   12.5843  -19.1320   20.1821 C   0  0  0  0  0  0  0  0  0  0  0  0
   13.7339  -19.1932   19.5613 N   0  0  0  0  0  0  0  0  0  0  0  0
   11.4190  -19.2611   19.3829 N   0  0  0  0  0  0  0  0  0  0  0  0
   10.0909  -19.1392   20.0688 C   0  0  0  0  0  0  0  0  0  0  0  0
    9.9208  -17.7417   20.5535 C   0  0  0  0  0  0  0  0  0  0  0  0
    8.6577  -17.3468   21.1502 C   0  0  0  0  0  0  0  0  0  0  0  0
    8.2747  -15.9947   21.5558 C   0  0  2  0  0  0  0  0  0  0  0  0
    8.9918  -15.1128   20.5587 N   0  0  0  0  0  0  0  0  0  0  0  0
    8.7717  -15.4707   22.8546 C   0  0  0  0  0  0  0  0  0  0  0  0
    9.9507  -15.0901   23.0001 O   0  0  0  0  0  0  0  0  0  0  0  0
   13.7771  -19.2686   18.5304 C   0  0  0  0  0  0  0  0  0  0  0  0
    5.6108  -11.3338   26.1527 S   0  0  0  0  0  0  0  0  0  0  0  0
    6.8410  -11.6231   27.4405 C   0  0  0  0  0  0  0  0  0  0  0  0
    7.9721  -12.8953   26.8782 C   0  0  0  0  0  0  0  0  0  0  0  0
    7.5793  -13.6734   25.6891 C   0  0  2  0  0  0  0  0  0  0  0  0
    8.5206  -14.7198   25.2546 N   0  0  0  0  0  0  0  0  0  0  0  0
    7.9548  -15.3631   24.0186 C   0  0  0  0  0  0  0  0  0  0  0  0
    8.7638  -15.7597   26.2513 O   0  0  0  0  0  0  0  0  0  0  0  0
    9.5579  -15.5995   27.3669 O   0  0  0  0  0  0  0  0  0  0  0  0
  1  2  1  0
  3  2  1  0
  3 13  1  0
  4  3  2  0
  5  6  1  0
  6  8  1  0
  7  6  2  0
  8  9  1  0
  9 10  1  0
 10 11  1  0
 12 11  1  6
 12 13  1  0
 14 12  1  0
 14 21  1  0
 15 14  2  0
 17 16  1  0
 18 19  1  0
 18 17  1  0
 20 21  1  0
 20 19  1  6
 22 20  1  0
 23 22  1  0
 24 22  2  0
M  END
$$$$
