GRM.pdb
     RDKit          3D

 24 23  0  0  1  0  0  0  0  0999 V2000
    7.0336  -12.4409   18.7625 N   0  0  0  0  0  0  0  0  0  0  0  0
    8.2582  -13.1186   19.0832 C   0  0  0  0  0  0  0  0  0  0  0  0
    7.9995  -14.1293   20.1303 C   0  0  0  0  0  0  0  0  0  0  0  0
    6.8800  -14.1509   20.6907 O   0  0  0  0  0  0  0  0  0  0  0  0
   10.3792  -22.3900   20.6855 N   0  0  0  0  0  0  0  0  0  0  0  0
   10.2822  -21.6861   21.8980 C   0  0  0  0  0  0  0  0  0  0  0  0
   11.2449  -21.7085   22.7831 N   0  0  0  0  0  0  0  0  0  0  0  0
    9.1349  -20.9164   22.2212 N   0  0  0  0  0  0  0  0  0  0  0  0
    8.7675  -19.7966   21.2938 C   0  0  0  0  0  0  0  0  0  0  0  0
    9.5847  -18.5985   21.6309 C   0  0  0  0  0  0  0  0  0  0  0  0
    9.3253  -17.3467   20.9432 C   0  0  0  0  0  0  0  0  0  0  0  0
    8.6077  -16.1923   21.4834 C   0  0  2  0  0  0  0  0  0  0  0  0
    8.9670  -15.0770   20.5277 N   0  0  0  0  0  0  0  0  0  0  0  0
    9.0344  -15.6346   22.7931 C   0  0  0  0  0  0  0  0  0  0  0  0
   10.0935  -14.9872   22.9163 O   0  0  0  0  0  0  0  0  0  0  0  0
   11.1641  -21.1801   23.6688 C   0  0  0  0  0  0  0  0  0  0  0  0
    6.7189  -10.9704   25.5486 S   0  0  0  0  0  0  0  0  0  0  0  0
    6.9637  -11.8512   27.1042 C   0  0  0  0  0  0  0  0  0  0  0  0
    8.0016  -13.2803   26.7974 C   0  0  0  0  0  0  0  0  0  0  0  0
    7.7959  -14.0074   25.5313 C   0  0  1  0  0  0  0  0  0  0  0  0
    8.7422  -15.0996   25.2457 N   0  0  0  0  0  0  0  0  0  0  0  0
    8.2805  -15.7924   23.9933 C   0  0  0  0  0  0  0  0  0  0  0  0
    8.8537  -16.0913   26.3126 O   0  0  0  0  0  0  0  0  0  0  0  0
    8.4135  -17.3941   26.2146 O   0  0  0  0  0  0  0  0  0  0  0  0
  1  2  1  0
  3  2  1  0
  3 13  1  0
  4  3  2  0
  5  6  1  0
  6  8  1  0
  7  6  2  0
  8  9  1  0
  9 10  1  0
 10 11  1  0
 12 11  1  6
 12 13  1  0
 14 12  1  0
 14 21  1  0
 15 14  2  0
 17 16  1  0
 18 19  1  0
 18 17  1  0
 20 21  1  0
 20 19  1  6
 22 20  1  0
 23 22  1  0
 24 22  2  0
M  END
$$$$
