GRM.pdb
     RDKit          3D

 24 23  0  0  1  0  0  0  0  0999 V2000
    7.9060  -13.0410   18.3161 N   0  0  0  0  0  0  0  0  0  0  0  0
    8.6245  -14.1715   18.8335 C   0  0  0  0  0  0  0  0  0  0  0  0
    7.9038  -14.7172   20.0030 C   0  0  0  0  0  0  0  0  0  0  0  0
    6.8885  -14.1180   20.4249 O   0  0  0  0  0  0  0  0  0  0  0  0
    7.5534  -21.8125   23.9974 N   0  0  0  0  0  0  0  0  0  0  0  0
    6.2020  -21.5317   23.7333 C   0  0  0  0  0  0  0  0  0  0  0  0
    5.3756  -22.4597   23.3250 N   0  0  0  0  0  0  0  0  0  0  0  0
    5.6677  -20.2275   23.8970 N   0  0  0  0  0  0  0  0  0  0  0  0
    6.6036  -19.0683   23.7251 C   0  0  0  0  0  0  0  0  0  0  0  0
    6.8611  -18.8629   22.2731 C   0  0  0  0  0  0  0  0  0  0  0  0
    7.7973  -17.8343   21.8575 C   0  0  0  0  0  0  0  0  0  0  0  0
    7.5687  -16.3898   21.8861 C   0  0  2  0  0  0  0  0  0  0  0  0
    8.3142  -15.8923   20.6684 N   0  0  0  0  0  0  0  0  0  0  0  0
    8.1818  -15.5910   22.9790 C   0  0  0  0  0  0  0  0  0  0  0  0
    9.4171  -15.5489   23.1468 O   0  0  0  0  0  0  0  0  0  0  0  0
    4.4003  -22.2271   23.0699 C   0  0  0  0  0  0  0  0  0  0  0  0
    5.0858  -11.4596   27.5760 S   0  0  0  0  0  0  0  0  0  0  0  0
    6.6500  -10.7504   27.0231 C   0  0  0  0  0  0  0  0  0  0  0  0
    7.7240  -12.0803   26.4829 C   0  0  0  0  0  0  0  0  0  0  0  0
    7.2685  -12.8986   25.3441 C   0  0  1  0  0  0  0  0  0  0  0  0
    8.1373  -14.0251   24.9622 N   0  0  0  0  0  0  0  0  0  0  0  0
    7.4200  -14.8221   23.9077 C   0  0  0  0  0  0  0  0  0  0  0  0
    8.4829  -14.9175   26.0659 O   0  0  0  0  0  0  0  0  0  0  0  0
    7.8611  -16.1219   26.3183 O   0  0  0  0  0  0  0  0  0  0  0  0
  1  2  1  0
  3  2  1  0
  3 13  1  0
  4  3  2  0
  5  6  1  0
  6  8  1  0
  7  6  2  0
  8  9  1  0
  9 10  1  0
 10 11  1  0
 12 11  1  1
 12 13  1  0
 14 12  1  0
 14 21  1  0
 15 14  2  0
 17 16  1  0
 18 19  1  0
 18 17  1  0
 20 21  1  0
 20 19  1  6
 22 20  1  0
 23 22  1  0
 24 22  2  0
M  END
$$$$
