GRM.pdb
     RDKit          3D

 24 23  0  0  1  0  0  0  0  0999 V2000
    7.5667  -12.3695   18.8125 N   0  0  0  0  0  0  0  0  0  0  0  0
    8.7053  -13.1717   19.1616 C   0  0  0  0  0  0  0  0  0  0  0  0
    8.3166  -14.1492   20.2000 C   0  0  0  0  0  0  0  0  0  0  0  0
    7.1731  -14.0770   20.7050 O   0  0  0  0  0  0  0  0  0  0  0  0
    9.9505  -22.2598   21.7163 N   0  0  0  0  0  0  0  0  0  0  0  0
    8.7783  -21.8985   21.0307 C   0  0  0  0  0  0  0  0  0  0  0  0
    8.4251  -22.4882   19.9179 N   0  0  0  0  0  0  0  0  0  0  0  0
    7.9202  -20.8762   21.5122 N   0  0  0  0  0  0  0  0  0  0  0  0
    8.5599  -19.6399   22.0702 C   0  0  0  0  0  0  0  0  0  0  0  0
    8.8729  -18.7078   20.9521 C   0  0  0  0  0  0  0  0  0  0  0  0
    9.4453  -17.4079   21.2516 C   0  0  0  0  0  0  0  0  0  0  0  0
    8.7102  -16.2048   21.6409 C   0  0  2  0  0  0  0  0  0  0  0  0
    9.1853  -15.1670   20.6492 N   0  0  0  0  0  0  0  0  0  0  0  0
    9.0272  -15.5639   22.9437 C   0  0  0  0  0  0  0  0  0  0  0  0
   10.1775  -15.1657   23.2158 O   0  0  0  0  0  0  0  0  0  0  0  0
    7.5948  -22.1702   19.3890 C   0  0  0  0  0  0  0  0  0  0  0  0
    5.9070  -10.7076   26.0584 S   0  0  0  0  0  0  0  0  0  0  0  0
    6.1742  -11.9186   27.3690 C   0  0  0  0  0  0  0  0  0  0  0  0
    7.5072  -13.0118   26.8773 C   0  0  0  0  0  0  0  0  0  0  0  0
    7.3482  -13.7455   25.6084 C   0  0  1  0  0  0  0  0  0  0  0  0
    8.4615  -14.6297   25.2227 N   0  0  0  0  0  0  0  0  0  0  0  0
    8.0584  -15.3569   23.9696 C   0  0  0  0  0  0  0  0  0  0  0  0
    8.8237  -15.6160   26.2376 O   0  0  0  0  0  0  0  0  0  0  0  0
    9.6303  -15.3552   27.3249 O   0  0  0  0  0  0  0  0  0  0  0  0
  1  2  1  0
  3  2  1  0
  3 13  1  0
  4  3  2  0
  5  6  1  0
  6  8  1  0
  7  6  2  0
  8  9  1  0
  9 10  1  0
 10 11  1  0
 12 11  1  6
 12 13  1  0
 14 12  1  0
 14 21  1  0
 15 14  2  0
 17 16  1  0
 18 19  1  0
 18 17  1  0
 20 21  1  0
 20 19  1  6
 22 20  1  0
 23 22  1  0
 24 22  2  0
M  END
$$$$
