GRM.pdb
     RDKit          3D

 24 23  0  0  1  0  0  0  0  0999 V2000
    6.2078  -19.4246   25.0869 N   0  0  0  0  0  0  0  0  0  0  0  0
    5.9856  -18.0153   24.9243 C   0  0  0  0  0  0  0  0  0  0  0  0
    7.0399  -17.4496   24.0564 C   0  0  0  0  0  0  0  0  0  0  0  0
    7.9963  -18.1788   23.7080 O   0  0  0  0  0  0  0  0  0  0  0  0
    7.7336  -12.8305   17.2119 N   0  0  0  0  0  0  0  0  0  0  0  0
    8.5414  -13.7643   17.8830 C   0  0  0  0  0  0  0  0  0  0  0  0
    9.6833  -14.1652   17.3869 N   0  0  0  0  0  0  0  0  0  0  0  0
    8.1578  -14.3177   19.1319 N   0  0  0  0  0  0  0  0  0  0  0  0
    6.7826  -13.9993   19.6383 C   0  0  0  0  0  0  0  0  0  0  0  0
    6.5754  -14.6829   20.9446 C   0  0  0  0  0  0  0  0  0  0  0  0
    7.5478  -14.4944   22.0058 C   0  0  0  0  0  0  0  0  0  0  0  0
    8.1704  -15.5462   22.8092 C   0  0  2  0  0  0  0  0  0  0  0  0
    7.0141  -16.1140   23.6009 N   0  0  0  0  0  0  0  0  0  0  0  0
    9.1244  -15.1570   23.8801 C   0  0  0  0  0  0  0  0  0  0  0  0
    8.8957  -14.1992   24.6457 O   0  0  0  0  0  0  0  0  0  0  0  0
   10.2248  -14.9194   17.8434 C   0  0  0  0  0  0  0  0  0  0  0  0
    8.9626  -15.4364   29.1784 S   0  0  0  0  0  0  0  0  0  0  0  0
   10.4724  -14.4504   29.1165 C   0  0  0  0  0  0  0  0  0  0  0  0
   11.3630  -14.8582   27.6150 C   0  0  0  0  0  0  0  0  0  0  0  0
   10.5628  -15.1802   26.4192 C   0  0  1  0  0  0  0  0  0  0  0  0
   11.3038  -15.2990   25.1517 N   0  0  0  0  0  0  0  0  0  0  0  0
   10.3568  -15.8355   24.1139 C   0  0  0  0  0  0  0  0  0  0  0  0
   12.4690  -16.1777   25.2178 O   0  0  0  0  0  0  0  0  0  0  0  0
   13.6835  -15.8216   25.7646 O   0  0  0  0  0  0  0  0  0  0  0  0
  1  2  1  0
  3  2  1  0
  3 13  1  0
  4  3  2  0
  5  6  1  0
  6  8  1  0
  7  6  2  0
  8  9  1  0
  9 10  1  0
 10 11  1  0
 12 11  1  1
 12 13  1  0
 14 12  1  0
 14 21  1  0
 15 14  2  0
 17 16  1  0
 18 19  1  0
 18 17  1  0
 20 21  1  0
 20 19  1  6
 22 20  1  0
 23 22  1  0
 24 22  2  0
M  END
$$$$
