GRM.pdb
     RDKit          3D

 24 23  0  0  1  0  0  0  0  0999 V2000
    5.5666  -20.2191   23.5953 N   0  0  0  0  0  0  0  0  0  0  0  0
    5.5100  -18.8518   24.0302 C   0  0  0  0  0  0  0  0  0  0  0  0
    6.5979  -18.0867   23.3853 C   0  0  0  0  0  0  0  0  0  0  0  0
    7.5248  -18.7088   22.8182 O   0  0  0  0  0  0  0  0  0  0  0  0
    8.2137  -12.3508   18.2252 N   0  0  0  0  0  0  0  0  0  0  0  0
    8.1630  -13.6035   17.5904 C   0  0  0  0  0  0  0  0  0  0  0  0
    7.8709  -13.7177   16.3206 N   0  0  0  0  0  0  0  0  0  0  0  0
    8.4265  -14.8060   18.2960 N   0  0  0  0  0  0  0  0  0  0  0  0
    8.6088  -14.7124   19.7816 C   0  0  0  0  0  0  0  0  0  0  0  0
    7.3124  -15.0115   20.4500 C   0  0  0  0  0  0  0  0  0  0  0  0
    7.2366  -14.9745   21.8992 C   0  0  0  0  0  0  0  0  0  0  0  0
    7.8327  -15.9380   22.8243 C   0  0  2  0  0  0  0  0  0  0  0  0
    6.6364  -16.6758   23.3816 N   0  0  0  0  0  0  0  0  0  0  0  0
    8.4926  -15.4319   24.0559 C   0  0  0  0  0  0  0  0  0  0  0  0
    8.7906  -14.2284   24.1928 O   0  0  0  0  0  0  0  0  0  0  0  0
    7.9005  -14.6385   15.8498 C   0  0  0  0  0  0  0  0  0  0  0  0
    6.0820  -11.6671   26.0556 S   0  0  0  0  0  0  0  0  0  0  0  0
    6.9252  -12.3293   27.5067 C   0  0  0  0  0  0  0  0  0  0  0  0
    8.2898  -13.3552   26.9593 C   0  0  0  0  0  0  0  0  0  0  0  0
    8.0671  -14.8120   26.9166 C   0  0  2  0  0  0  0  0  0  0  0  0
    9.2066  -15.6328   26.4719 N   0  0  0  0  0  0  0  0  0  0  0  0
    8.8323  -16.2673   25.1607 C   0  0  0  0  0  0  0  0  0  0  0  0
    9.5878  -16.6877   27.4078 O   0  0  0  0  0  0  0  0  0  0  0  0
   10.3990  -16.4988   28.5065 O   0  0  0  0  0  0  0  0  0  0  0  0
  1  2  1  0
  3  2  1  0
  3 13  1  0
  4  3  2  0
  5  6  1  0
  6  8  1  0
  7  6  2  0
  8  9  1  0
  9 10  1  0
 10 11  1  0
 12 11  1  6
 12 13  1  0
 14 12  1  0
 14 21  1  0
 15 14  2  0
 17 16  1  0
 18 19  1  0
 18 17  1  0
 20 21  1  0
 20 19  1  6
 22 20  1  0
 23 22  1  0
 24 22  2  0
M  END
$$$$
