GRM.pdb
     RDKit          3D

 24 23  0  0  1  0  0  0  0  0999 V2000
    4.8831  -20.8246   23.8214 N   0  0  0  0  0  0  0  0  0  0  0  0
    4.5630  -19.4661   23.4840 C   0  0  0  0  0  0  0  0  0  0  0  0
    5.8046  -18.7402   23.1427 C   0  0  0  0  0  0  0  0  0  0  0  0
    6.9077  -19.2401   23.4604 O   0  0  0  0  0  0  0  0  0  0  0  0
    8.0296  -13.7779   17.2506 N   0  0  0  0  0  0  0  0  0  0  0  0
    8.7378  -13.1478   18.2880 C   0  0  0  0  0  0  0  0  0  0  0  0
    8.7917  -11.8449   18.3891 N   0  0  0  0  0  0  0  0  0  0  0  0
    9.4290  -13.8944   19.2770 N   0  0  0  0  0  0  0  0  0  0  0  0
    8.8064  -15.1789   19.7370 C   0  0  0  0  0  0  0  0  0  0  0  0
    7.5246  -14.8763   20.4315 C   0  0  0  0  0  0  0  0  0  0  0  0
    6.7400  -15.9678   20.9795 C   0  0  0  0  0  0  0  0  0  0  0  0
    7.0962  -16.8021   22.1268 C   0  0  2  0  0  0  0  0  0  0  0  0
    5.7992  -17.4995   22.4697 N   0  0  0  0  0  0  0  0  0  0  0  0
    7.4469  -16.1401   23.4102 C   0  0  0  0  0  0  0  0  0  0  0  0
    6.7176  -15.2640   23.9167 O   0  0  0  0  0  0  0  0  0  0  0  0
    9.3120  -11.3934   19.1611 C   0  0  0  0  0  0  0  0  0  0  0  0
    6.4486  -11.8467   26.3397 S   0  0  0  0  0  0  0  0  0  0  0  0
    7.1136  -12.9094   27.6374 C   0  0  0  0  0  0  0  0  0  0  0  0
    8.4251  -13.9138   26.9408 C   0  0  0  0  0  0  0  0  0  0  0  0
    8.0669  -14.8269   25.8400 C   0  0  1  0  0  0  0  0  0  0  0  0
    9.1897  -15.4180   25.0919 N   0  0  0  0  0  0  0  0  0  0  0  0
    8.6251  -16.4478   24.1525 C   0  0  0  0  0  0  0  0  0  0  0  0
   10.1998  -16.0574   25.9315 O   0  0  0  0  0  0  0  0  0  0  0  0
   11.1409  -15.3763   26.6739 O   0  0  0  0  0  0  0  0  0  0  0  0
  1  2  1  0
  3  2  1  0
  3 13  1  0
  4  3  2  0
  5  6  1  0
  6  8  1  0
  7  6  2  0
  8  9  1  0
  9 10  1  0
 10 11  1  0
 12 11  1  6
 12 13  1  0
 14 12  1  0
 14 21  1  0
 15 14  2  0
 17 16  1  0
 18 19  1  0
 18 17  1  0
 20 21  1  0
 20 19  1  6
 22 20  1  0
 23 22  1  0
 24 22  2  0
M  END
$$$$
