GRM.pdb
     RDKit          3D

 24 23  0  0  1  0  0  0  0  0999 V2000
    4.5620  -19.2232   21.4124 N   0  0  0  0  0  0  0  0  0  0  0  0
    4.5251  -17.8149   21.6901 C   0  0  0  0  0  0  0  0  0  0  0  0
    5.9048  -17.3120   21.8585 C   0  0  0  0  0  0  0  0  0  0  0  0
    6.7673  -18.0630   22.3684 O   0  0  0  0  0  0  0  0  0  0  0  0
    9.4682  -14.9895   17.6502 N   0  0  0  0  0  0  0  0  0  0  0  0
    8.5448  -14.3756   16.7868 C   0  0  0  0  0  0  0  0  0  0  0  0
    8.4658  -14.7021   15.5227 N   0  0  0  0  0  0  0  0  0  0  0  0
    7.6528  -13.3715   17.2443 N   0  0  0  0  0  0  0  0  0  0  0  0
    7.6513  -13.0618   18.7116 C   0  0  0  0  0  0  0  0  0  0  0  0
    7.4935  -14.3299   19.4758 C   0  0  0  0  0  0  0  0  0  0  0  0
    7.8313  -14.3540   20.8873 C   0  0  0  0  0  0  0  0  0  0  0  0
    7.6717  -15.4869   21.7986 C   0  0  2  0  0  0  0  0  0  0  0  0
    6.2937  -16.0131   21.4664 N   0  0  0  0  0  0  0  0  0  0  0  0
    7.5645  -15.2214   23.2568 C   0  0  0  0  0  0  0  0  0  0  0  0
    6.6626  -14.4994   23.7272 O   0  0  0  0  0  0  0  0  0  0  0  0
    7.7785  -14.2456   14.8985 C   0  0  0  0  0  0  0  0  0  0  0  0
    7.2883  -11.2130   26.3198 S   0  0  0  0  0  0  0  0  0  0  0  0
    7.1199  -12.3085   27.7436 C   0  0  0  0  0  0  0  0  0  0  0  0
    8.0372  -13.8145   27.4207 C   0  0  0  0  0  0  0  0  0  0  0  0
    7.7653  -14.5142   26.1517 C   0  0  1  0  0  0  0  0  0  0  0  0
    8.9422  -14.8900   25.3494 N   0  0  0  0  0  0  0  0  0  0  0  0
    8.4688  -15.7610   24.2185 C   0  0  0  0  0  0  0  0  0  0  0  0
    9.9707  -15.6120   26.0945 O   0  0  0  0  0  0  0  0  0  0  0  0
   10.6772  -15.0872   27.1557 O   0  0  0  0  0  0  0  0  0  0  0  0
  1  2  1  0
  3  2  1  0
  3 13  1  0
  4  3  2  0
  5  6  1  0
  6  8  1  0
  7  6  2  0
  8  9  1  0
  9 10  1  0
 10 11  1  0
 12 11  1  6
 12 13  1  0
 14 12  1  0
 14 21  1  0
 15 14  2  0
 17 16  1  0
 18 19  1  0
 18 17  1  0
 20 21  1  0
 20 19  1  6
 22 20  1  0
 23 22  1  0
 24 22  2  0
M  END
$$$$
