IET.pdb
     RDKit          3D

 25 24  0  0  1  0  0  0  0  0999 V2000
   26.5141  -20.4840   -9.7032 C   0  0  0  0  0  0  0  0  0  0  0  0
   26.2437  -20.4553  -11.1695 C   0  0  0  0  0  0  0  0  0  0  0  0
   24.9475  -21.1115  -11.5547 C   0  0  2  0  0  0  0  0  0  0  0  0
   25.0033  -22.5706  -11.1592 C   0  0  0  0  0  0  0  0  0  0  0  0
   24.7185  -21.0409  -13.0446 C   0  0  2  0  0  0  0  0  0  0  0  0
   25.1090  -19.7785  -13.5271 N   0  0  0  0  0  0  0  0  0  0  0  0
   23.2714  -21.2462  -13.3778 C   0  0  0  0  0  0  0  0  0  0  0  0
   22.7389  -22.3968  -13.3558 O   0  0  0  0  0  0  0  0  0  0  0  0
   22.4225  -20.1674  -13.7346 N   0  0  0  0  0  0  0  0  0  0  0  0
   21.0050  -20.3386  -14.0602 C   0  0  1  0  0  0  0  0  0  0  0  0
   20.3147  -19.1133  -13.5493 C   0  0  0  0  0  0  0  0  0  0  0  0
   18.8441  -19.0524  -13.8332 C   0  0  0  0  0  0  0  0  0  0  0  0
   18.2965  -17.7836  -13.3183 C   0  0  0  0  0  0  0  0  0  0  0  0
   17.3592  -17.7886  -12.4981 O   0  0  0  0  0  0  0  0  0  0  0  0
   20.8772  -20.5617  -15.5016 C   0  0  0  0  0  0  0  0  0  0  0  0
   21.5228  -19.9285  -16.3750 O   0  0  0  0  0  0  0  0  0  0  0  0
   18.8287  -16.5889  -13.7508 O   0  0  0  0  0  0  0  0  0  0  0  0
   21.6603  -23.4192  -17.6892 C   0  0  0  0  0  0  0  0  0  0  0  0
   20.1946  -23.1386  -17.8753 C   0  0  1  0  0  0  0  0  0  0  0  0
   19.4916  -24.0744  -17.1322 O   0  0  0  0  0  0  0  0  0  0  0  0
   19.8040  -21.7418  -17.4471 C   0  0  2  0  0  0  0  0  0  0  0  0
   19.9706  -21.5565  -16.0203 N   0  0  0  0  0  0  0  0  0  0  0  0
   18.4360  -21.3903  -17.8737 C   0  0  0  0  0  0  0  0  0  0  0  0
   18.0272  -21.3915  -19.1962 O   0  0  0  0  0  0  0  0  0  0  0  0
   17.5942  -21.0727  -16.9983 O   0  0  0  0  0  0  0  0  0  0  0  0
  2  1  1  0
  3  2  1  0
  3  4  1  6
  5  3  1  0
  5  6  1  1
  7  5  1  0
  7  8  2  0
  9  7  1  0
 10  9  1  0
 10 11  1  6
 12 11  1  0
 13 12  1  0
 14 13  2  0
 15 22  1  0
 15 10  1  0
 16 15  2  0
 17 13  1  0
 19 20  1  0
 19 18  1  1
 19 21  1  0
 21 22  1  1
 21 23  1  0
 23 25  2  0
 23 24  1  0
M  END
$$$$
