IET.pdb
     RDKit          3D

 25 24  0  0  1  0  0  0  0  0999 V2000
   18.2359  -12.4369  -20.1589 C   0  0  0  0  0  0  0  0  0  0  0  0
   19.2964  -12.1315  -19.1559 C   0  0  0  0  0  0  0  0  0  0  0  0
   18.9928  -10.9286  -18.3072 C   0  0  2  0  0  0  0  0  0  0  0  0
   18.9926   -9.6984  -19.1876 C   0  0  0  0  0  0  0  0  0  0  0  0
   20.0379  -10.7352  -17.2360 C   0  0  2  0  0  0  0  0  0  0  0  0
   20.1021  -11.8800  -16.4211 N   0  0  0  0  0  0  0  0  0  0  0  0
   19.7096   -9.5570  -16.3693 C   0  0  0  0  0  0  0  0  0  0  0  0
   18.7762   -9.5994  -15.5120 O   0  0  0  0  0  0  0  0  0  0  0  0
   20.4235   -8.3349  -16.4611 N   0  0  0  0  0  0  0  0  0  0  0  0
   20.0268   -7.1208  -15.7449 C   0  0  1  0  0  0  0  0  0  0  0  0
   21.0944   -6.8774  -14.7252 C   0  0  0  0  0  0  0  0  0  0  0  0
   20.9361   -5.6137  -13.9345 C   0  0  0  0  0  0  0  0  0  0  0  0
   22.0812   -5.4610  -13.0179 C   0  0  0  0  0  0  0  0  0  0  0  0
   22.2615   -6.2759  -12.0935 O   0  0  0  0  0  0  0  0  0  0  0  0
   19.8448   -6.0401  -16.7159 C   0  0  0  0  0  0  0  0  0  0  0  0
   20.6783   -5.7448  -17.6096 O   0  0  0  0  0  0  0  0  0  0  0  0
   22.9533   -4.4087  -13.1901 O   0  0  0  0  0  0  0  0  0  0  0  0
   16.9842   -5.2665  -19.2206 C   0  0  0  0  0  0  0  0  0  0  0  0
   17.1643   -4.1017  -18.2866 C   0  0  1  0  0  0  0  0  0  0  0  0
   16.1548   -4.1652  -17.3385 O   0  0  0  0  0  0  0  0  0  0  0  0
   18.5134   -4.0987  -17.6034 C   0  0  2  0  0  0  0  0  0  0  0  0
   18.6559   -5.2234  -16.7020 N   0  0  0  0  0  0  0  0  0  0  0  0
   18.7849   -2.8241  -16.9115 C   0  0  0  0  0  0  0  0  0  0  0  0
   18.8942   -1.6101  -17.5677 O   0  0  0  0  0  0  0  0  0  0  0  0
   18.9251   -2.8329  -15.6641 O   0  0  0  0  0  0  0  0  0  0  0  0
  2  1  1  0
  3  2  1  0
  3  4  1  6
  5  3  1  0
  5  6  1  1
  7  5  1  0
  7  8  2  0
  9  7  1  0
 10  9  1  0
 10 11  1  1
 12 11  1  0
 13 12  1  0
 14 13  2  0
 15 22  1  0
 15 10  1  0
 16 15  2  0
 17 13  1  0
 19 20  1  0
 19 18  1  6
 19 21  1  0
 21 22  1  1
 21 23  1  0
 23 25  2  0
 23 24  1  0
M  END
$$$$
