IET.pdb
     RDKit          3D

 25 24  0  0  1  0  0  0  0  0999 V2000
   18.2950  -14.6583  -17.3016 C   0  0  0  0  0  0  0  0  0  0  0  0
   18.0733  -13.1836  -17.3194 C   0  0  0  0  0  0  0  0  0  0  0  0
   19.2923  -12.3878  -16.9448 C   0  0  2  0  0  0  0  0  0  0  0  0
   19.7158  -12.7747  -15.5451 C   0  0  0  0  0  0  0  0  0  0  0  0
   19.0038  -10.9066  -16.9520 C   0  0  2  0  0  0  0  0  0  0  0  0
   18.6421  -10.4982  -18.2486 N   0  0  0  0  0  0  0  0  0  0  0  0
   20.2083  -10.1210  -16.5288 C   0  0  0  0  0  0  0  0  0  0  0  0
   20.8158  -10.3651  -15.4429 O   0  0  0  0  0  0  0  0  0  0  0  0
   20.7317   -9.0653  -17.3182 N   0  0  0  0  0  0  0  0  0  0  0  0
   21.8170   -8.1915  -16.8675 C   0  0  1  0  0  0  0  0  0  0  0  0
   22.6339   -7.8892  -18.0842 C   0  0  0  0  0  0  0  0  0  0  0  0
   23.4808   -9.0248  -18.5743 C   0  0  0  0  0  0  0  0  0  0  0  0
   24.1222   -8.6458  -19.8470 C   0  0  0  0  0  0  0  0  0  0  0  0
   23.6364   -7.7419  -20.5527 O   0  0  0  0  0  0  0  0  0  0  0  0
   21.2352   -7.0199  -16.2098 C   0  0  0  0  0  0  0  0  0  0  0  0
   20.4399   -6.2197  -16.7647 O   0  0  0  0  0  0  0  0  0  0  0  0
   25.2652   -9.2990  -20.2526 O   0  0  0  0  0  0  0  0  0  0  0  0
   18.7747   -6.6121  -13.8319 C   0  0  0  0  0  0  0  0  0  0  0  0
   19.9278   -5.8782  -13.2047 C   0  0  1  0  0  0  0  0  0  0  0  0
   20.4483   -6.6895  -12.2083 O   0  0  0  0  0  0  0  0  0  0  0  0
   21.0107   -5.5244  -14.1992 C   0  0  2  0  0  0  0  0  0  0  0  0
   21.5529   -6.7057  -14.8382 N   0  0  0  0  0  0  0  0  0  0  0  0
   22.0802   -4.7091  -13.5920 C   0  0  0  0  0  0  0  0  0  0  0  0
   21.8588   -3.4697  -13.0166 O   0  0  0  0  0  0  0  0  0  0  0  0
   23.2534   -5.1556  -13.5934 O   0  0  0  0  0  0  0  0  0  0  0  0
  2  1  1  0
  3  2  1  0
  3  4  1  1
  5  3  1  0
  5  6  1  6
  7  5  1  0
  7  8  2  0
  9  7  1  0
 10  9  1  0
 10 11  1  6
 12 11  1  0
 13 12  1  0
 14 13  2  0
 15 22  1  0
 15 10  1  0
 16 15  2  0
 17 13  1  0
 19 20  1  0
 19 18  1  6
 19 21  1  0
 21 22  1  1
 21 23  1  0
 23 25  2  0
 23 24  1  0
M  END
$$$$
