IET.pdb
     RDKit          3D

 25 24  0  0  1  0  0  0  0  0999 V2000
   16.7050  -14.6827  -18.5022 C   0  0  0  0  0  0  0  0  0  0  0  0
   17.2182  -14.1221  -17.2190 C   0  0  0  0  0  0  0  0  0  0  0  0
   17.6569  -12.6882  -17.3223 C   0  0  2  0  0  0  0  0  0  0  0  0
   18.8270  -12.6040  -18.2775 C   0  0  0  0  0  0  0  0  0  0  0  0
   18.1079  -12.1550  -15.9846 C   0  0  2  0  0  0  0  0  0  0  0  0
   17.0642  -12.2724  -15.0488 N   0  0  0  0  0  0  0  0  0  0  0  0
   18.4931  -10.7096  -16.0827 C   0  0  0  0  0  0  0  0  0  0  0  0
   19.4367  -10.3206  -16.8352 O   0  0  0  0  0  0  0  0  0  0  0  0
   17.8246   -9.7022  -15.3411 N   0  0  0  0  0  0  0  0  0  0  0  0
   18.1108   -8.2741  -15.4929 C   0  0  1  0  0  0  0  0  0  0  0  0
   16.8443   -7.5607  -15.1378 C   0  0  0  0  0  0  0  0  0  0  0  0
   16.9364   -6.0646  -15.1540 C   0  0  0  0  0  0  0  0  0  0  0  0
   15.6201   -5.4877  -14.8233 C   0  0  0  0  0  0  0  0  0  0  0  0
   14.7257   -5.4224  -15.6875 O   0  0  0  0  0  0  0  0  0  0  0  0
   19.2641   -7.9341  -14.6573 C   0  0  0  0  0  0  0  0  0  0  0  0
   19.3935   -8.2812  -13.4559 O   0  0  0  0  0  0  0  0  0  0  0  0
   15.3843   -5.0199  -13.5493 O   0  0  0  0  0  0  0  0  0  0  0  0
   22.6912   -8.9748  -14.5522 C   0  0  0  0  0  0  0  0  0  0  0  0
   22.7470   -7.4882  -14.7729 C   0  0  1  0  0  0  0  0  0  0  0  0
   22.9765   -7.2737  -16.1232 O   0  0  0  0  0  0  0  0  0  0  0  0
   21.4791   -6.7823  -14.3472 C   0  0  2  0  0  0  0  0  0  0  0  0
   20.3568   -7.1536  -15.1840 N   0  0  0  0  0  0  0  0  0  0  0  0
   21.6462   -5.3171  -14.2995 C   0  0  0  0  0  0  0  0  0  0  0  0
   22.4886   -4.6757  -13.4077 O   0  0  0  0  0  0  0  0  0  0  0  0
   20.9945   -4.6093  -15.1057 O   0  0  0  0  0  0  0  0  0  0  0  0
  2  1  1  0
  3  2  1  0
  3  4  1  6
  5  3  1  0
  5  6  1  1
  7  5  1  0
  7  8  2  0
  9  7  1  0
 10  9  1  0
 10 11  1  1
 12 11  1  0
 13 12  1  0
 14 13  2  0
 15 22  1  0
 15 10  1  0
 16 15  2  0
 17 13  1  0
 19 20  1  0
 19 18  1  6
 19 21  1  0
 21 22  1  6
 21 23  1  0
 23 25  2  0
 23 24  1  0
M  END
$$$$
