IET.pdb
     RDKit          3D

 25 24  0  0  1  0  0  0  0  0999 V2000
   19.8286  -19.1169  -19.4638 C   0  0  0  0  0  0  0  0  0  0  0  0
   20.4098  -18.5428  -18.2161 C   0  0  0  0  0  0  0  0  0  0  0  0
   21.2953  -19.5006  -17.4693 C   0  0  2  0  0  0  0  0  0  0  0  0
   20.4652  -20.6828  -17.0203 C   0  0  0  0  0  0  0  0  0  0  0  0
   21.8893  -18.8548  -16.2416 C   0  0  2  0  0  0  0  0  0  0  0  0
   22.5247  -17.6511  -16.5968 N   0  0  0  0  0  0  0  0  0  0  0  0
   22.9036  -19.7516  -15.5982 C   0  0  0  0  0  0  0  0  0  0  0  0
   22.6061  -20.9193  -15.2032 O   0  0  0  0  0  0  0  0  0  0  0  0
   24.2470  -19.3434  -15.3972 N   0  0  0  0  0  0  0  0  0  0  0  0
   25.2492  -20.1851  -14.7402 C   0  0  1  0  0  0  0  0  0  0  0  0
   26.5271  -19.9611  -15.4857 C   0  0  0  0  0  0  0  0  0  0  0  0
   26.5974  -20.6197  -16.8304 C   0  0  0  0  0  0  0  0  0  0  0  0
   26.9654  -22.0381  -16.6641 C   0  0  0  0  0  0  0  0  0  0  0  0
   27.4563  -22.4403  -15.5925 O   0  0  0  0  0  0  0  0  0  0  0  0
   25.2965  -19.8375  -13.3187 C   0  0  0  0  0  0  0  0  0  0  0  0
   25.1782  -18.6680  -12.8725 O   0  0  0  0  0  0  0  0  0  0  0  0
   26.7627  -22.9188  -17.7038 O   0  0  0  0  0  0  0  0  0  0  0  0
   24.4074  -20.7397   -8.6800 C   0  0  0  0  0  0  0  0  0  0  0  0
   24.3708  -21.0740  -10.1458 C   0  0  1  0  0  0  0  0  0  0  0  0
   23.1880  -20.5668  -10.6615 O   0  0  0  0  0  0  0  0  0  0  0  0
   25.5490  -20.5093  -10.9075 C   0  0  2  0  0  0  0  0  0  0  0  0
   25.4883  -20.8536  -12.3130 N   0  0  0  0  0  0  0  0  0  0  0  0
   26.8395  -20.9115  -10.3159 C   0  0  0  0  0  0  0  0  0  0  0  0
   27.3520  -20.3544   -9.1569 O   0  0  0  0  0  0  0  0  0  0  0  0
   27.5127  -21.8038  -10.8870 O   0  0  0  0  0  0  0  0  0  0  0  0
  2  1  1  0
  3  2  1  0
  3  4  1  1
  5  3  1  0
  5  6  1  6
  7  5  1  0
  7  8  2  0
  9  7  1  0
 10  9  1  0
 10 11  1  6
 12 11  1  0
 13 12  1  0
 14 13  2  0
 15 22  1  0
 15 10  1  0
 16 15  2  0
 17 13  1  0
 19 20  1  0
 19 18  1  1
 19 21  1  0
 21 22  1  6
 21 23  1  0
 23 25  2  0
 23 24  1  0
M  END
$$$$
