IET.pdb
     RDKit          3D

 25 24  0  0  1  0  0  0  0  0999 V2000
   12.0452  -13.4450   -9.9688 C   0  0  0  0  0  0  0  0  0  0  0  0
   13.2890  -13.0607  -10.6965 C   0  0  0  0  0  0  0  0  0  0  0  0
   13.9958  -11.8780  -10.0958 C   0  0  2  0  0  0  0  0  0  0  0  0
   13.0939  -10.6679  -10.1974 C   0  0  0  0  0  0  0  0  0  0  0  0
   15.2746  -11.5697  -10.8352 C   0  0  2  0  0  0  0  0  0  0  0  0
   16.1587  -12.6591  -10.7323 N   0  0  0  0  0  0  0  0  0  0  0  0
   15.9492  -10.3592  -10.2637 C   0  0  0  0  0  0  0  0  0  0  0  0
   16.6189  -10.4143   -9.1884 O   0  0  0  0  0  0  0  0  0  0  0  0
   15.8748   -9.0904  -10.8934 N   0  0  0  0  0  0  0  0  0  0  0  0
   16.5589   -7.9014  -10.3807 C   0  0  1  0  0  0  0  0  0  0  0  0
   17.7317   -7.6804  -11.2833 C   0  0  0  0  0  0  0  0  0  0  0  0
   18.5356   -6.4510  -10.9844 C   0  0  0  0  0  0  0  0  0  0  0  0
   19.5660   -6.2729  -12.0243 C   0  0  0  0  0  0  0  0  0  0  0  0
   19.3739   -5.4908  -12.9744 O   0  0  0  0  0  0  0  0  0  0  0  0
   15.6028   -6.7936  -10.3308 C   0  0  0  0  0  0  0  0  0  0  0  0
   14.7864   -6.5225  -11.2477 O   0  0  0  0  0  0  0  0  0  0  0  0
   20.7460   -6.9784  -11.9392 O   0  0  0  0  0  0  0  0  0  0  0  0
   13.0399   -5.7000   -7.4449 C   0  0  0  0  0  0  0  0  0  0  0  0
   14.0127   -4.6073   -7.7933 C   0  0  1  0  0  0  0  0  0  0  0  0
   15.0004   -4.6003   -6.8204 O   0  0  0  0  0  0  0  0  0  0  0  0
   14.6361   -4.7881   -9.1592 C   0  0  2  0  0  0  0  0  0  0  0  0
   15.5410   -5.9188   -9.1856 N   0  0  0  0  0  0  0  0  0  0  0  0
   15.3034   -3.5608   -9.6341 C   0  0  0  0  0  0  0  0  0  0  0  0
   14.6387   -2.3642   -9.8404 O   0  0  0  0  0  0  0  0  0  0  0  0
   16.5368   -3.5957   -9.8650 O   0  0  0  0  0  0  0  0  0  0  0  0
  2  1  1  0
  3  2  1  0
  3  4  1  6
  5  3  1  0
  5  6  1  1
  7  5  1  0
  7  8  2  0
  9  7  1  0
 10  9  1  0
 10 11  1  6
 12 11  1  0
 13 12  1  0
 14 13  2  0
 15 22  1  0
 15 10  1  0
 16 15  2  0
 17 13  1  0
 19 20  1  0
 19 18  1  1
 19 21  1  0
 21 22  1  1
 21 23  1  0
 23 25  2  0
 23 24  1  0
M  END
$$$$
