IET.pdb
     RDKit          3D

 25 24  0  0  1  0  0  0  0  0999 V2000
   27.3341  -20.2349   -7.7947 C   0  0  0  0  0  0  0  0  0  0  0  0
   27.1785  -20.9879   -9.0727 C   0  0  0  0  0  0  0  0  0  0  0  0
   26.0404  -20.4986   -9.9238 C   0  0  2  0  0  0  0  0  0  0  0  0
   24.7381  -20.7955   -9.2139 C   0  0  0  0  0  0  0  0  0  0  0  0
   26.0136  -21.2002  -11.2596 C   0  0  2  0  0  0  0  0  0  0  0  0
   27.2874  -21.1420  -11.8537 N   0  0  0  0  0  0  0  0  0  0  0  0
   25.0301  -20.5538  -12.1882 C   0  0  0  0  0  0  0  0  0  0  0  0
   25.1110  -19.3264  -12.4960 O   0  0  0  0  0  0  0  0  0  0  0  0
   23.9592  -21.2786  -12.7708 N   0  0  0  0  0  0  0  0  0  0  0  0
   22.9544  -20.6615  -13.6393 C   0  0  1  0  0  0  0  0  0  0  0  0
   23.4655  -20.8199  -15.0367 C   0  0  0  0  0  0  0  0  0  0  0  0
   22.5495  -20.3058  -16.1061 C   0  0  0  0  0  0  0  0  0  0  0  0
   23.1586  -20.5392  -17.4287 C   0  0  0  0  0  0  0  0  0  0  0  0
   22.8864  -21.5685  -18.0750 O   0  0  0  0  0  0  0  0  0  0  0  0
   21.6587  -21.2932  -13.3822 C   0  0  0  0  0  0  0  0  0  0  0  0
   21.4675  -22.5357  -13.3724 O   0  0  0  0  0  0  0  0  0  0  0  0
   24.0331  -19.6098  -17.9474 O   0  0  0  0  0  0  0  0  0  0  0  0
   19.2557  -20.8339  -10.3616 C   0  0  0  0  0  0  0  0  0  0  0  0
   18.5307  -20.5247  -11.6424 C   0  0  1  0  0  0  0  0  0  0  0  0
   18.4683  -19.1452  -11.7657 O   0  0  0  0  0  0  0  0  0  0  0  0
   19.2042  -21.1207  -12.8582 C   0  0  2  0  0  0  0  0  0  0  0  0
   20.4857  -20.4970  -13.1159 N   0  0  0  0  0  0  0  0  0  0  0  0
   18.3396  -21.0744  -14.0530 C   0  0  0  0  0  0  0  0  0  0  0  0
   18.6607  -20.3656  -15.1979 O   0  0  0  0  0  0  0  0  0  0  0  0
   17.2559  -21.7076  -14.0381 O   0  0  0  0  0  0  0  0  0  0  0  0
  2  1  1  0
  3  2  1  0
  3  4  1  1
  5  3  1  0
  5  6  1  6
  7  5  1  0
  7  8  2  0
  9  7  1  0
 10  9  1  0
 10 11  1  6
 12 11  1  0
 13 12  1  0
 14 13  2  0
 15 22  1  0
 15 10  1  0
 16 15  2  0
 17 13  1  0
 19 20  1  0
 19 18  1  1
 19 21  1  0
 21 22  1  6
 21 23  1  0
 23 25  2  0
 23 24  1  0
M  END
$$$$
