IET.pdb
     RDKit          3D

 25 24  0  0  1  0  0  0  0  0999 V2000
   14.1283  -12.7485  -16.3912 C   0  0  0  0  0  0  0  0  0  0  0  0
   15.5607  -12.3377  -16.4533 C   0  0  0  0  0  0  0  0  0  0  0  0
   16.0315  -11.6112  -15.2246 C   0  0  2  0  0  0  0  0  0  0  0  0
   15.1913  -10.3666  -15.0423 C   0  0  0  0  0  0  0  0  0  0  0  0
   17.4730  -11.1852  -15.3580 C   0  0  2  0  0  0  0  0  0  0  0  0
   18.2970  -12.3202  -15.4656 N   0  0  0  0  0  0  0  0  0  0  0  0
   17.9138  -10.3939  -14.1636 C   0  0  0  0  0  0  0  0  0  0  0  0
   18.1210  -10.9429  -13.0395 O   0  0  0  0  0  0  0  0  0  0  0  0
   18.1224   -8.9924  -14.2265 N   0  0  0  0  0  0  0  0  0  0  0  0
   18.5389   -8.1929  -13.0724 C   0  0  1  0  0  0  0  0  0  0  0  0
   19.7141   -7.3885  -13.5318 C   0  0  0  0  0  0  0  0  0  0  0  0
   20.2765   -6.4504  -12.5068 C   0  0  0  0  0  0  0  0  0  0  0  0
   21.4192   -5.7189  -13.0848 C   0  0  0  0  0  0  0  0  0  0  0  0
   21.4988   -4.4814  -12.9691 O   0  0  0  0  0  0  0  0  0  0  0  0
   17.3955   -7.4038  -12.6098 C   0  0  0  0  0  0  0  0  0  0  0  0
   16.6353   -6.7492  -13.3675 O   0  0  0  0  0  0  0  0  0  0  0  0
   22.4013   -6.4139  -13.7555 O   0  0  0  0  0  0  0  0  0  0  0  0
   16.2857   -7.2469   -8.3554 C   0  0  0  0  0  0  0  0  0  0  0  0
   15.3114   -7.2413   -9.5010 C   0  0  1  0  0  0  0  0  0  0  0  0
   14.1909   -6.5336   -9.0942 O   0  0  0  0  0  0  0  0  0  0  0  0
   15.8836   -6.6229  -10.7568 C   0  0  2  0  0  0  0  0  0  0  0  0
   17.0645   -7.3299  -11.2077 N   0  0  0  0  0  0  0  0  0  0  0  0
   16.1553   -5.1818  -10.5944 C   0  0  0  0  0  0  0  0  0  0  0  0
   15.1590   -4.2270  -10.4842 O   0  0  0  0  0  0  0  0  0  0  0  0
   17.3484   -4.7939  -10.5531 O   0  0  0  0  0  0  0  0  0  0  0  0
  2  1  1  0
  3  2  1  0
  3  4  1  6
  5  3  1  0
  5  6  1  1
  7  5  1  0
  7  8  2  0
  9  7  1  0
 10  9  1  0
 10 11  1  6
 12 11  1  0
 13 12  1  0
 14 13  2  0
 15 22  1  0
 15 10  1  0
 16 15  2  0
 17 13  1  0
 19 20  1  0
 19 18  1  1
 19 21  1  0
 21 22  1  1
 21 23  1  0
 23 25  2  0
 23 24  1  0
M  END
$$$$
