IET.pdb
     RDKit          3D

 25 24  0  0  1  0  0  0  0  0999 V2000
   15.3685  -11.5432  -18.2131 C   0  0  0  0  0  0  0  0  0  0  0  0
   16.6287  -11.4705  -17.4190 C   0  0  0  0  0  0  0  0  0  0  0  0
   16.7580  -10.2101  -16.6105 C   0  0  2  0  0  0  0  0  0  0  0  0
   16.8872   -9.0359  -17.5555 C   0  0  0  0  0  0  0  0  0  0  0  0
   17.9878  -10.2426  -15.7366 C   0  0  2  0  0  0  0  0  0  0  0  0
   17.9026  -11.3187  -14.8346 N   0  0  0  0  0  0  0  0  0  0  0  0
   18.1220   -8.9752  -14.9476 C   0  0  0  0  0  0  0  0  0  0  0  0
   17.4249   -8.7581  -13.9109 O   0  0  0  0  0  0  0  0  0  0  0  0
   19.0337   -7.9534  -15.3171 N   0  0  0  0  0  0  0  0  0  0  0  0
   19.1230   -6.6697  -14.6181 C   0  0  1  0  0  0  0  0  0  0  0  0
   20.5625   -6.5040  -14.2444 C   0  0  0  0  0  0  0  0  0  0  0  0
   20.8901   -5.2174  -13.5487 C   0  0  0  0  0  0  0  0  0  0  0  0
   22.3339   -5.1734  -13.2514 C   0  0  0  0  0  0  0  0  0  0  0  0
   22.7374   -5.2409  -12.0751 O   0  0  0  0  0  0  0  0  0  0  0  0
   18.5885   -5.6215  -15.4895 C   0  0  0  0  0  0  0  0  0  0  0  0
   18.9556   -5.4341  -16.6773 O   0  0  0  0  0  0  0  0  0  0  0  0
   23.2370   -5.0570  -14.2851 O   0  0  0  0  0  0  0  0  0  0  0  0
   15.3042   -4.9984  -17.0052 C   0  0  0  0  0  0  0  0  0  0  0  0
   15.6075   -3.7963  -16.1540 C   0  0  1  0  0  0  0  0  0  0  0  0
   14.9019   -3.9339  -14.9685 O   0  0  0  0  0  0  0  0  0  0  0  0
   17.0828   -3.6405  -15.8604 C   0  0  2  0  0  0  0  0  0  0  0  0
   17.5736   -4.7114  -15.0178 N   0  0  0  0  0  0  0  0  0  0  0  0
   17.3996   -2.3203  -15.2825 C   0  0  0  0  0  0  0  0  0  0  0  0
   17.1202   -1.1236  -15.9198 O   0  0  0  0  0  0  0  0  0  0  0  0
   17.9505   -2.2718  -14.1557 O   0  0  0  0  0  0  0  0  0  0  0  0
  2  1  1  0
  3  2  1  0
  3  4  1  6
  5  3  1  0
  5  6  1  1
  7  5  1  0
  7  8  2  0
  9  7  1  0
 10  9  1  0
 10 11  1  6
 12 11  1  0
 13 12  1  0
 14 13  2  0
 15 22  1  0
 15 10  1  0
 16 15  2  0
 17 13  1  0
 19 20  1  0
 19 18  1  6
 19 21  1  0
 21 22  1  1
 21 23  1  0
 23 25  2  0
 23 24  1  0
M  END
$$$$
