IET.pdb
     RDKit          3D

 25 24  0  0  1  0  0  0  0  0999 V2000
   14.5519  -11.7841  -17.6280 C   0  0  0  0  0  0  0  0  0  0  0  0
   16.0081  -11.5441  -17.4135 C   0  0  0  0  0  0  0  0  0  0  0  0
   16.2978  -10.4378  -16.4381 C   0  0  2  0  0  0  0  0  0  0  0  0
   15.7905   -9.1345  -17.0146 C   0  0  0  0  0  0  0  0  0  0  0  0
   17.7803  -10.2946  -16.1956 C   0  0  2  0  0  0  0  0  0  0  0  0
   18.2869  -11.4789  -15.6302 N   0  0  0  0  0  0  0  0  0  0  0  0
   18.0657   -9.1630  -15.2548 C   0  0  0  0  0  0  0  0  0  0  0  0
   17.7907   -9.2377  -14.0192 O   0  0  0  0  0  0  0  0  0  0  0  0
   18.6572   -7.9514  -15.6950 N   0  0  0  0  0  0  0  0  0  0  0  0
   18.8541   -6.7933  -14.8205 C   0  0  1  0  0  0  0  0  0  0  0  0
   20.3350   -6.6204  -14.6941 C   0  0  0  0  0  0  0  0  0  0  0  0
   20.7662   -5.3868  -13.9598 C   0  0  0  0  0  0  0  0  0  0  0  0
   22.2370   -5.3675  -13.8531 C   0  0  0  0  0  0  0  0  0  0  0  0
   22.9143   -6.3074  -14.3101 O   0  0  0  0  0  0  0  0  0  0  0  0
   18.1468   -5.6461  -15.3929 C   0  0  0  0  0  0  0  0  0  0  0  0
   18.1798   -5.3304  -16.6094 O   0  0  0  0  0  0  0  0  0  0  0  0
   22.8598   -4.3008  -13.2433 O   0  0  0  0  0  0  0  0  0  0  0  0
   14.4779   -4.6591  -15.6287 C   0  0  0  0  0  0  0  0  0  0  0  0
   15.2134   -3.6071  -14.8451 C   0  0  1  0  0  0  0  0  0  0  0  0
   14.9772   -3.8455  -13.4999 O   0  0  0  0  0  0  0  0  0  0  0  0
   16.7015   -3.6059  -15.1145 C   0  0  2  0  0  0  0  0  0  0  0  0
   17.3430   -4.7818  -14.5637 N   0  0  0  0  0  0  0  0  0  0  0  0
   17.3531   -2.3710  -14.6375 C   0  0  0  0  0  0  0  0  0  0  0  0
   16.9853   -1.1047  -15.0587 O   0  0  0  0  0  0  0  0  0  0  0  0
   18.2897   -2.4654  -13.8070 O   0  0  0  0  0  0  0  0  0  0  0  0
  2  1  1  0
  3  2  1  0
  3  4  1  6
  5  3  1  0
  5  6  1  1
  7  5  1  0
  7  8  2  0
  9  7  1  0
 10  9  1  0
 10 11  1  6
 12 11  1  0
 13 12  1  0
 14 13  2  0
 15 22  1  0
 15 10  1  0
 16 15  2  0
 17 13  1  0
 19 20  1  0
 19 18  1  6
 19 21  1  0
 21 22  1  1
 21 23  1  0
 23 25  2  0
 23 24  1  0
M  END
$$$$
