IET.pdb
     RDKit          3D

 25 24  0  0  1  0  0  0  0  0999 V2000
   33.7561  -21.9427   -9.2194 C   0  0  0  0  0  0  0  0  0  0  0  0
   32.5988  -22.6025   -9.8898 C   0  0  0  0  0  0  0  0  0  0  0  0
   31.4031  -21.7052  -10.0460 C   0  0  2  0  0  0  0  0  0  0  0  0
   30.9075  -21.3100   -8.6725 C   0  0  0  0  0  0  0  0  0  0  0  0
   30.2778  -22.4108  -10.7624 C   0  0  2  0  0  0  0  0  0  0  0  0
   30.7868  -23.1230  -11.8636 N   0  0  0  0  0  0  0  0  0  0  0  0
   29.2601  -21.4311  -11.2640 C   0  0  0  0  0  0  0  0  0  0  0  0
   28.6001  -20.6915  -10.4732 O   0  0  0  0  0  0  0  0  0  0  0  0
   28.9816  -21.2790  -12.6464 N   0  0  0  0  0  0  0  0  0  0  0  0
   27.9670  -20.3571  -13.1614 C   0  0  1  0  0  0  0  0  0  0  0  0
   28.3551  -20.0675  -14.5772 C   0  0  0  0  0  0  0  0  0  0  0  0
   27.3603  -19.2563  -15.3513 C   0  0  0  0  0  0  0  0  0  0  0  0
   27.8982  -18.9702  -16.6943 C   0  0  0  0  0  0  0  0  0  0  0  0
   29.0143  -19.4076  -17.0323 O   0  0  0  0  0  0  0  0  0  0  0  0
   26.6477  -20.9706  -12.9978 C   0  0  0  0  0  0  0  0  0  0  0  0
   26.4284  -22.2063  -13.0723 O   0  0  0  0  0  0  0  0  0  0  0  0
   27.1574  -18.2142  -17.5758 O   0  0  0  0  0  0  0  0  0  0  0  0
   24.8387  -21.6329  -10.2716 C   0  0  0  0  0  0  0  0  0  0  0  0
   23.8242  -20.8651  -11.0733 C   0  0  1  0  0  0  0  0  0  0  0  0
   23.7336  -19.5941  -10.5268 O   0  0  0  0  0  0  0  0  0  0  0  0
   24.1820  -20.7711  -12.5396 C   0  0  2  0  0  0  0  0  0  0  0  0
   25.4824  -20.1630  -12.7321 N   0  0  0  0  0  0  0  0  0  0  0  0
   23.1456  -20.0710  -13.3224 C   0  0  0  0  0  0  0  0  0  0  0  0
   21.8372  -20.5125  -13.4196 O   0  0  0  0  0  0  0  0  0  0  0  0
   23.4586  -19.0206  -13.9342 O   0  0  0  0  0  0  0  0  0  0  0  0
  2  1  1  0
  3  2  1  0
  3  4  1  1
  5  3  1  0
  5  6  1  6
  7  5  1  0
  7  8  2  0
  9  7  1  0
 10  9  1  0
 10 11  1  6
 12 11  1  0
 13 12  1  0
 14 13  2  0
 15 22  1  0
 15 10  1  0
 16 15  2  0
 17 13  1  0
 19 20  1  0
 19 18  1  1
 19 21  1  0
 21 22  1  1
 21 23  1  0
 23 25  2  0
 23 24  1  0
M  END
$$$$
