IET.pdb
     RDKit          3D

 25 24  0  0  1  0  0  0  0  0999 V2000
   15.2872  -12.1185  -16.4369 C   0  0  0  0  0  0  0  0  0  0  0  0
   16.6154  -11.4482  -16.3330 C   0  0  0  0  0  0  0  0  0  0  0  0
   16.8361  -10.7518  -15.0193 C   0  0  2  0  0  0  0  0  0  0  0  0
   15.7896   -9.6715  -14.8584 C   0  0  0  0  0  0  0  0  0  0  0  0
   18.1944  -10.0965  -14.9674 C   0  0  2  0  0  0  0  0  0  0  0  0
   19.1994  -11.0737  -15.0854 N   0  0  0  0  0  0  0  0  0  0  0  0
   18.3930   -9.3698  -13.6714 C   0  0  0  0  0  0  0  0  0  0  0  0
   18.5993   -9.9893  -12.5844 O   0  0  0  0  0  0  0  0  0  0  0  0
   18.3611   -7.9541  -13.5916 N   0  0  0  0  0  0  0  0  0  0  0  0
   18.5978   -7.2172  -12.3484 C   0  0  1  0  0  0  0  0  0  0  0  0
   19.6286   -6.1824  -12.6735 C   0  0  0  0  0  0  0  0  0  0  0  0
   21.0260   -6.7059  -12.8149 C   0  0  0  0  0  0  0  0  0  0  0  0
   21.9614   -5.5754  -12.9637 C   0  0  0  0  0  0  0  0  0  0  0  0
   22.2925   -5.1765  -14.0961 O   0  0  0  0  0  0  0  0  0  0  0  0
   17.3215   -6.6852  -11.8669 C   0  0  0  0  0  0  0  0  0  0  0  0
   16.4017   -6.2681  -12.6157 O   0  0  0  0  0  0  0  0  0  0  0  0
   22.4686   -4.9611  -11.8400 O   0  0  0  0  0  0  0  0  0  0  0  0
   14.7149   -8.2622   -9.4809 C   0  0  0  0  0  0  0  0  0  0  0  0
   15.1469   -6.9303   -8.9325 C   0  0  1  0  0  0  0  0  0  0  0  0
   16.0419   -7.1723   -7.9017 O   0  0  0  0  0  0  0  0  0  0  0  0
   15.7903   -6.0450   -9.9762 C   0  0  2  0  0  0  0  0  0  0  0  0
   17.0366   -6.6064  -10.4550 N   0  0  0  0  0  0  0  0  0  0  0  0
   15.9788   -4.6629   -9.4951 C   0  0  0  0  0  0  0  0  0  0  0  0
   14.9350   -3.8493   -9.0892 O   0  0  0  0  0  0  0  0  0  0  0  0
   17.1422   -4.1939   -9.4487 O   0  0  0  0  0  0  0  0  0  0  0  0
  2  1  1  0
  3  2  1  0
  3  4  1  6
  5  3  1  0
  5  6  1  1
  7  5  1  0
  7  8  2  0
  9  7  1  0
 10  9  1  0
 10 11  1  6
 12 11  1  0
 13 12  1  0
 14 13  2  0
 15 22  1  0
 15 10  1  0
 16 15  2  0
 17 13  1  0
 19 20  1  0
 19 18  1  6
 19 21  1  0
 21 22  1  1
 21 23  1  0
 23 25  2  0
 23 24  1  0
M  END
$$$$
