IET.pdb
     RDKit          3D

 25 24  0  0  1  0  0  0  0  0999 V2000
   24.6115  -14.4009  -18.4911 C   0  0  0  0  0  0  0  0  0  0  0  0
   24.4493  -13.6425  -17.2173 C   0  0  0  0  0  0  0  0  0  0  0  0
   23.8178  -12.2907  -17.3987 C   0  0  2  0  0  0  0  0  0  0  0  0
   24.7262  -11.4397  -18.2583 C   0  0  0  0  0  0  0  0  0  0  0  0
   23.6356  -11.5883  -16.0756 C   0  0  2  0  0  0  0  0  0  0  0  0
   23.0039  -12.4510  -15.1615 N   0  0  0  0  0  0  0  0  0  0  0  0
   22.7883  -10.3613  -16.2289 C   0  0  0  0  0  0  0  0  0  0  0  0
   23.1591   -9.3795  -16.9405 O   0  0  0  0  0  0  0  0  0  0  0  0
   21.5295  -10.2330  -15.5880 N   0  0  0  0  0  0  0  0  0  0  0  0
   20.6619   -9.0652  -15.7553 C   0  0  1  0  0  0  0  0  0  0  0  0
   19.2722   -9.5408  -15.4695 C   0  0  0  0  0  0  0  0  0  0  0  0
   18.2295   -8.4643  -15.4422 C   0  0  0  0  0  0  0  0  0  0  0  0
   16.9048   -9.0692  -15.2094 C   0  0  0  0  0  0  0  0  0  0  0  0
   16.3922   -9.0461  -14.0745 O   0  0  0  0  0  0  0  0  0  0  0  0
   21.1392   -7.9950  -14.8773 C   0  0  0  0  0  0  0  0  0  0  0  0
   21.5508   -8.1747  -13.7031 O   0  0  0  0  0  0  0  0  0  0  0  0
   16.2351   -9.6618  -16.2572 O   0  0  0  0  0  0  0  0  0  0  0  0
   22.8772   -4.4813  -16.4117 C   0  0  0  0  0  0  0  0  0  0  0  0
   23.0011   -5.0340  -15.0185 C   0  0  1  0  0  0  0  0  0  0  0  0
   23.4615   -4.0123  -14.2023 O   0  0  0  0  0  0  0  0  0  0  0  0
   21.6944   -5.5734  -14.4813 C   0  0  2  0  0  0  0  0  0  0  0  0
   21.1652   -6.6243  -15.3259 N   0  0  0  0  0  0  0  0  0  0  0  0
   20.6965   -4.5074  -14.2692 C   0  0  0  0  0  0  0  0  0  0  0  0
   20.8990   -3.4335  -13.4196 O   0  0  0  0  0  0  0  0  0  0  0  0
   19.6058   -4.5707  -14.8873 O   0  0  0  0  0  0  0  0  0  0  0  0
  2  1  1  0
  3  2  1  0
  3  4  1  6
  5  3  1  0
  5  6  1  1
  7  5  1  0
  7  8  2  0
  9  7  1  0
 10  9  1  0
 10 11  1  1
 12 11  1  0
 13 12  1  0
 14 13  2  0
 15 22  1  0
 15 10  1  0
 16 15  2  0
 17 13  1  0
 19 20  1  0
 19 18  1  6
 19 21  1  0
 21 22  1  6
 21 23  1  0
 23 25  2  0
 23 24  1  0
M  END
$$$$
