IET.pdb
     RDKit          3D

 25 24  0  0  1  0  0  0  0  0999 V2000
   16.6997  -13.7308  -16.6623 C   0  0  0  0  0  0  0  0  0  0  0  0
   15.8469  -12.5758  -16.2588 C   0  0  0  0  0  0  0  0  0  0  0  0
   16.4614  -11.2388  -16.5652 C   0  0  2  0  0  0  0  0  0  0  0  0
   17.3404  -11.3752  -17.7887 C   0  0  0  0  0  0  0  0  0  0  0  0
   17.3228  -10.7565  -15.4238 C   0  0  2  0  0  0  0  0  0  0  0  0
   16.5545  -10.6765  -14.2482 N   0  0  0  0  0  0  0  0  0  0  0  0
   17.8877   -9.3981  -15.7115 C   0  0  0  0  0  0  0  0  0  0  0  0
   18.7632   -9.2168  -16.6106 O   0  0  0  0  0  0  0  0  0  0  0  0
   17.4741   -8.2457  -14.9955 N   0  0  0  0  0  0  0  0  0  0  0  0
   17.8887   -6.8882  -15.3560 C   0  0  1  0  0  0  0  0  0  0  0  0
   16.6801   -6.0259  -15.1698 C   0  0  0  0  0  0  0  0  0  0  0  0
   15.6172   -6.1948  -16.2132 C   0  0  0  0  0  0  0  0  0  0  0  0
   14.2934   -5.9546  -15.6093 C   0  0  0  0  0  0  0  0  0  0  0  0
   14.1731   -5.1781  -14.6430 O   0  0  0  0  0  0  0  0  0  0  0  0
   19.0431   -6.5158  -14.5360 C   0  0  0  0  0  0  0  0  0  0  0  0
   19.1439   -6.7564  -13.3061 O   0  0  0  0  0  0  0  0  0  0  0  0
   13.1869   -6.5958  -16.1213 O   0  0  0  0  0  0  0  0  0  0  0  0
   22.3180   -7.8330  -14.4406 C   0  0  0  0  0  0  0  0  0  0  0  0
   22.5262   -6.3706  -14.7228 C   0  0  1  0  0  0  0  0  0  0  0  0
   22.7634   -6.2361  -16.0822 O   0  0  0  0  0  0  0  0  0  0  0  0
   21.3431   -5.5194  -14.3196 C   0  0  2  0  0  0  0  0  0  0  0  0
   20.1712   -5.8268  -15.1134 N   0  0  0  0  0  0  0  0  0  0  0  0
   21.6530   -4.0775  -14.3640 C   0  0  0  0  0  0  0  0  0  0  0  0
   22.5785   -3.4720  -13.5314 O   0  0  0  0  0  0  0  0  0  0  0  0
   21.0508   -3.3565  -15.1965 O   0  0  0  0  0  0  0  0  0  0  0  0
  2  1  1  0
  3  2  1  0
  3  4  1  6
  5  3  1  0
  5  6  1  1
  7  5  1  0
  7  8  2  0
  9  7  1  0
 10  9  1  0
 10 11  1  1
 12 11  1  0
 13 12  1  0
 14 13  2  0
 15 22  1  0
 15 10  1  0
 16 15  2  0
 17 13  1  0
 19 20  1  0
 19 18  1  6
 19 21  1  0
 21 22  1  6
 21 23  1  0
 23 25  2  0
 23 24  1  0
M  END
$$$$
