IET.pdb
     RDKit          3D

 25 24  0  0  1  0  0  0  0  0999 V2000
   22.1627  -15.0909  -16.2379 C   0  0  0  0  0  0  0  0  0  0  0  0
   23.2852  -14.1728  -16.5861 C   0  0  0  0  0  0  0  0  0  0  0  0
   23.0959  -12.7715  -16.0764 C   0  0  2  0  0  0  0  0  0  0  0  0
   21.8669  -12.1775  -16.7283 C   0  0  0  0  0  0  0  0  0  0  0  0
   24.2761  -11.8976  -16.4233 C   0  0  2  0  0  0  0  0  0  0  0  0
   25.4300  -12.3771  -15.7772 N   0  0  0  0  0  0  0  0  0  0  0  0
   24.0452  -10.4821  -15.9873 C   0  0  0  0  0  0  0  0  0  0  0  0
   24.0425  -10.1537  -14.7625 O   0  0  0  0  0  0  0  0  0  0  0  0
   23.8181   -9.4368  -16.9188 N   0  0  0  0  0  0  0  0  0  0  0  0
   23.5350   -8.0567  -16.5193 C   0  0  1  0  0  0  0  0  0  0  0  0
   24.3613   -7.1908  -17.4173 C   0  0  0  0  0  0  0  0  0  0  0  0
   24.1380   -5.7175  -17.2544 C   0  0  0  0  0  0  0  0  0  0  0  0
   25.0218   -4.9816  -18.1775 C   0  0  0  0  0  0  0  0  0  0  0  0
   24.5904   -4.5745  -19.2726 O   0  0  0  0  0  0  0  0  0  0  0  0
   22.0910   -7.8296  -16.6030 C   0  0  0  0  0  0  0  0  0  0  0  0
   21.4091   -7.9921  -17.6467 O   0  0  0  0  0  0  0  0  0  0  0  0
   26.3313   -4.7459  -17.8209 O   0  0  0  0  0  0  0  0  0  0  0  0
   19.2982   -9.5754  -15.1949 C   0  0  0  0  0  0  0  0  0  0  0  0
   19.1419   -8.1627  -14.7033 C   0  0  1  0  0  0  0  0  0  0  0  0
   19.5821   -8.1256  -13.3892 O   0  0  0  0  0  0  0  0  0  0  0  0
   19.9137   -7.1620  -15.5338 C   0  0  2  0  0  0  0  0  0  0  0  0
   21.3416   -7.3908  -15.4512 N   0  0  0  0  0  0  0  0  0  0  0  0
   19.5765   -5.7690  -15.1834 C   0  0  0  0  0  0  0  0  0  0  0  0
   18.2951   -5.2519  -15.2676 O   0  0  0  0  0  0  0  0  0  0  0  0
   20.4929   -5.0078  -14.7880 O   0  0  0  0  0  0  0  0  0  0  0  0
  2  1  1  0
  3  2  1  0
  3  4  1  6
  5  3  1  0
  5  6  1  1
  7  5  1  0
  7  8  2  0
  9  7  1  0
 10  9  1  0
 10 11  1  6
 12 11  1  0
 13 12  1  0
 14 13  2  0
 15 22  1  0
 15 10  1  0
 16 15  2  0
 17 13  1  0
 19 20  1  0
 19 18  1  6
 19 21  1  0
 21 22  1  1
 21 23  1  0
 23 25  2  0
 23 24  1  0
M  END
$$$$
