IQS.pdb
     RDKit          3D

 24 23  0  0  1  0  0  0  0  0999 V2000
   26.2345  -13.5300  -16.7210 C   0  0  0  0  0  0  0  0  0  0  0  0
   24.7462  -13.5114  -16.8762 C   0  0  0  0  0  0  0  0  0  0  0  0
   24.1167  -12.1744  -16.8370 C   0  0  2  0  0  0  0  0  0  0  0  0
   24.6036  -11.4556  -15.5907 C   0  0  0  0  0  0  0  0  0  0  0  0
   22.6386  -12.1539  -16.9774 C   0  0  2  0  0  0  0  0  0  0  0  0
   22.2583  -12.8268  -18.2223 N   0  0  0  0  0  0  0  0  0  0  0  0
   22.0426  -10.8223  -16.9838 C   0  0  0  0  0  0  0  0  0  0  0  0
   22.1833  -10.0744  -17.9802 O   0  0  0  0  0  0  0  0  0  0  0  0
   16.7696   -9.9130  -14.6227 N   0  0  0  0  0  0  0  0  0  0  0  0
   16.9670   -8.5488  -14.9641 C   0  0  0  0  0  0  0  0  0  0  0  0
   15.9834   -7.7772  -14.8989 O   0  0  0  0  0  0  0  0  0  0  0  0
   18.3280   -8.0478  -15.3932 C   0  0  0  0  0  0  0  0  0  0  0  0
   19.2107   -9.2352  -15.4604 C   0  0  0  0  0  0  0  0  0  0  0  0
   20.6068   -9.0291  -15.9469 C   0  0  2  0  0  0  0  0  0  0  0  0
   21.2987  -10.3411  -15.8827 N   0  0  0  0  0  0  0  0  0  0  0  0
   21.3926   -8.0098  -15.2538 C   0  0  0  0  0  0  0  0  0  0  0  0
   21.9773   -8.2923  -14.1416 O   0  0  0  0  0  0  0  0  0  0  0  0
   21.9838   -4.2917  -16.7371 O   0  0  0  0  0  0  0  0  0  0  0  0
   23.0113   -4.6913  -15.8752 C   0  0  0  0  0  0  0  0  0  0  0  0
   22.4224   -5.7467  -14.9592 C   0  0  2  0  0  0  0  0  0  0  0  0
   21.5939   -6.6820  -15.6962 N   0  0  0  0  0  0  0  0  0  0  0  0
   21.5813   -5.0263  -13.9781 C   0  0  0  0  0  0  0  0  0  0  0  0
   22.1091   -4.1439  -13.0536 O   0  0  0  0  0  0  0  0  0  0  0  0
   20.3330   -5.2030  -13.9595 O   0  0  0  0  0  0  0  0  0  0  0  0
  1  2  1  0
  3  2  1  0
  3  4  1  1
  5  3  1  0
  5  6  1  6
  7  5  1  0
  7  8  2  0
  9 10  1  0
 10 12  1  0
 11 10  2  0
 12 13  1  0
 14 15  1  0
 14 13  1  1
 15  7  1  0
 16 14  1  0
 17 16  2  0
 18 19  1  0
 20 19  1  6
 20 21  1  0
 21 16  1  0
 22 23  1  0
 22 20  1  0
 24 22  2  0
M  END
$$$$
