IQS.pdb
     RDKit          3D

 24 23  0  0  1  0  0  0  0  0999 V2000
   19.3754  -26.4436   -0.1863 C   0  0  0  0  0  0  0  0  0  0  0  0
   19.2927  -27.3034   -1.4084 C   0  0  0  0  0  0  0  0  0  0  0  0
   20.1136  -28.5326   -1.3811 C   0  0  2  0  0  0  0  0  0  0  0  0
   21.5386  -28.1452   -1.0256 C   0  0  0  0  0  0  0  0  0  0  0  0
   20.0309  -29.3894   -2.5909 C   0  0  2  0  0  0  0  0  0  0  0  0
   18.6346  -29.7661   -2.8264 N   0  0  0  0  0  0  0  0  0  0  0  0
   20.8244  -30.6122   -2.5306 C   0  0  0  0  0  0  0  0  0  0  0  0
   20.4753  -31.5527   -1.7784 O   0  0  0  0  0  0  0  0  0  0  0  0
   22.4808  -34.9982   -4.4265 N   0  0  0  0  0  0  0  0  0  0  0  0
   21.7420  -34.2062   -5.3449 C   0  0  0  0  0  0  0  0  0  0  0  0
   20.8333  -34.7613   -6.0030 O   0  0  0  0  0  0  0  0  0  0  0  0
   22.0482  -32.7354   -5.5190 C   0  0  0  0  0  0  0  0  0  0  0  0
   23.1635  -32.4261   -4.5949 C   0  0  0  0  0  0  0  0  0  0  0  0
   22.8116  -32.0076   -3.2060 C   0  0  2  0  0  0  0  0  0  0  0  0
   21.9944  -30.7723   -3.3071 N   0  0  0  0  0  0  0  0  0  0  0  0
   23.9293  -31.7996   -2.2871 C   0  0  0  0  0  0  0  0  0  0  0  0
   24.1614  -30.6262   -1.8096 O   0  0  0  0  0  0  0  0  0  0  0  0
   25.5661  -32.2726    1.6804 O   0  0  0  0  0  0  0  0  0  0  0  0
   24.7172  -32.4774    0.5869 C   0  0  0  0  0  0  0  0  0  0  0  0
   25.6086  -32.6368   -0.6295 C   0  0  2  0  0  0  0  0  0  0  0  0
   24.8256  -32.7975   -1.8401 N   0  0  0  0  0  0  0  0  0  0  0  0
   26.4070  -33.8621   -0.4050 C   0  0  0  0  0  0  0  0  0  0  0  0
   27.5654  -33.8658    0.3498 O   0  0  0  0  0  0  0  0  0  0  0  0
   26.0428  -34.9594   -0.9080 O   0  0  0  0  0  0  0  0  0  0  0  0
  1  2  1  0
  3  2  1  0
  3  4  1  6
  5  3  1  0
  5  6  1  1
  7  5  1  0
  7  8  2  0
  9 10  1  0
 10 12  1  0
 11 10  2  0
 12 13  1  0
 14 15  1  0
 14 13  1  6
 15  7  1  0
 16 14  1  0
 17 16  2  0
 18 19  1  0
 20 19  1  1
 20 21  1  0
 21 16  1  0
 22 23  1  0
 22 20  1  0
 24 22  2  0
M  END
$$$$
