IQS.pdb
     RDKit          3D

 24 23  0  0  1  0  0  0  0  0999 V2000
   25.4777  -14.5626  -18.9575 C   0  0  0  0  0  0  0  0  0  0  0  0
   25.4996  -13.5954  -17.8158 C   0  0  0  0  0  0  0  0  0  0  0  0
   24.3909  -12.6182  -17.7852 C   0  0  2  0  0  0  0  0  0  0  0  0
   24.3051  -11.9531  -19.1481 C   0  0  0  0  0  0  0  0  0  0  0  0
   24.4221  -11.6433  -16.6657 C   0  0  2  0  0  0  0  0  0  0  0  0
   24.4027  -12.3650  -15.3907 N   0  0  0  0  0  0  0  0  0  0  0  0
   23.3228  -10.6841  -16.6583 C   0  0  0  0  0  0  0  0  0  0  0  0
   23.2191   -9.8382  -17.5779 O   0  0  0  0  0  0  0  0  0  0  0  0
   18.1249  -10.6722  -16.7608 N   0  0  0  0  0  0  0  0  0  0  0  0
   17.8730   -9.7122  -15.7452 C   0  0  0  0  0  0  0  0  0  0  0  0
   16.7623   -9.1349  -15.7431 O   0  0  0  0  0  0  0  0  0  0  0  0
   18.9196   -9.4002  -14.6990 C   0  0  0  0  0  0  0  0  0  0  0  0
   20.0765  -10.2789  -14.9869 C   0  0  0  0  0  0  0  0  0  0  0  0
   21.2857   -9.6490  -15.5947 C   0  0  2  0  0  0  0  0  0  0  0  0
   22.3544  -10.6789  -15.6288 N   0  0  0  0  0  0  0  0  0  0  0  0
   21.7777   -8.4324  -14.9509 C   0  0  0  0  0  0  0  0  0  0  0  0
   22.4483   -8.5095  -13.8540 O   0  0  0  0  0  0  0  0  0  0  0  0
   23.2773   -3.9462  -14.8428 O   0  0  0  0  0  0  0  0  0  0  0  0
   22.8207   -5.0048  -15.6361 C   0  0  0  0  0  0  0  0  0  0  0  0
   22.0972   -5.9610  -14.7076 C   0  0  2  0  0  0  0  0  0  0  0  0
   21.5916   -7.1144  -15.4277 N   0  0  0  0  0  0  0  0  0  0  0  0
   20.9567   -5.2090  -14.1392 C   0  0  0  0  0  0  0  0  0  0  0  0
   21.0794   -4.4095  -13.0178 O   0  0  0  0  0  0  0  0  0  0  0  0
   19.8178   -5.2799  -14.6753 O   0  0  0  0  0  0  0  0  0  0  0  0
  1  2  1  0
  3  2  1  0
  3  4  1  6
  5  3  1  0
  5  6  1  1
  7  5  1  0
  7  8  2  0
  9 10  1  0
 10 12  1  0
 11 10  2  0
 12 13  1  0
 14 15  1  0
 14 13  1  1
 15  7  1  0
 16 14  1  0
 17 16  2  0
 18 19  1  0
 20 19  1  6
 20 21  1  0
 21 16  1  0
 22 23  1  0
 22 20  1  0
 24 22  2  0
M  END
$$$$
