IQS.pdb
     RDKit          3D

 24 23  0  0  1  0  0  0  0  0999 V2000
   15.8441  -12.1121  -19.5785 C   0  0  0  0  0  0  0  0  0  0  0  0
   17.0307  -11.9337  -18.6842 C   0  0  0  0  0  0  0  0  0  0  0  0
   17.0625  -10.6757  -17.9085 C   0  0  2  0  0  0  0  0  0  0  0  0
   16.9986   -9.5134  -18.8842 C   0  0  0  0  0  0  0  0  0  0  0  0
   18.1720  -10.5502  -16.9298 C   0  0  2  0  0  0  0  0  0  0  0  0
   18.1421  -11.6910  -16.0107 N   0  0  0  0  0  0  0  0  0  0  0  0
   18.1506   -9.3281  -16.1333 C   0  0  0  0  0  0  0  0  0  0  0  0
   17.2971   -9.1826  -15.2264 O   0  0  0  0  0  0  0  0  0  0  0  0
   22.9014   -6.8519  -13.9914 N   0  0  0  0  0  0  0  0  0  0  0  0
   22.0405   -5.8188  -13.5352 C   0  0  0  0  0  0  0  0  0  0  0  0
   22.4965   -4.9927  -12.7125 O   0  0  0  0  0  0  0  0  0  0  0  0
   20.6152   -5.7238  -14.0319 C   0  0  0  0  0  0  0  0  0  0  0  0
   20.4016   -6.8888  -14.9212 C   0  0  0  0  0  0  0  0  0  0  0  0
   19.0487   -7.0516  -15.5305 C   0  0  2  0  0  0  0  0  0  0  0  0
   19.0781   -8.2852  -16.3561 N   0  0  0  0  0  0  0  0  0  0  0  0
   18.5526   -5.9268  -16.3213 C   0  0  0  0  0  0  0  0  0  0  0  0
   18.8225   -5.8540  -17.5785 O   0  0  0  0  0  0  0  0  0  0  0  0
   15.4864   -2.7193  -17.6887 O   0  0  0  0  0  0  0  0  0  0  0  0
   15.8139   -3.8190  -16.8876 C   0  0  0  0  0  0  0  0  0  0  0  0
   17.3175   -3.7809  -16.6935 C   0  0  2  0  0  0  0  0  0  0  0  0
   17.7657   -4.8588  -15.8322 N   0  0  0  0  0  0  0  0  0  0  0  0
   17.6225   -2.4865  -16.0450 C   0  0  0  0  0  0  0  0  0  0  0  0
   17.3609   -1.2720  -16.6520 O   0  0  0  0  0  0  0  0  0  0  0  0
   18.1408   -2.4574  -14.8961 O   0  0  0  0  0  0  0  0  0  0  0  0
  1  2  1  0
  3  2  1  0
  3  4  1  6
  5  3  1  0
  5  6  1  1
  7  5  1  0
  7  8  2  0
  9 10  1  0
 10 12  1  0
 11 10  2  0
 12 13  1  0
 14 15  1  0
 14 13  1  6
 15  7  1  0
 16 14  1  0
 17 16  2  0
 18 19  1  0
 20 19  1  1
 20 21  1  0
 21 16  1  0
 22 23  1  0
 22 20  1  0
 24 22  2  0
M  END
$$$$
