IQS.pdb
     RDKit          3D

 24 23  0  0  1  0  0  0  0  0999 V2000
   12.0967  -12.8085  -15.5067 C   0  0  0  0  0  0  0  0  0  0  0  0
   13.5860  -12.8030  -15.6522 C   0  0  0  0  0  0  0  0  0  0  0  0
   14.3254  -12.0410  -14.6236 C   0  0  2  0  0  0  0  0  0  0  0  0
   13.7441  -10.6392  -14.5604 C   0  0  0  0  0  0  0  0  0  0  0  0
   15.8044  -12.0495  -14.7546 C   0  0  2  0  0  0  0  0  0  0  0  0
   16.2937  -13.4274  -14.6613 N   0  0  0  0  0  0  0  0  0  0  0  0
   16.5118  -11.2509  -13.7595 C   0  0  0  0  0  0  0  0  0  0  0  0
   16.6674  -11.6894  -12.5952 O   0  0  0  0  0  0  0  0  0  0  0  0
   21.2033   -7.9467  -14.9546 N   0  0  0  0  0  0  0  0  0  0  0  0
   21.0346   -7.3957  -13.6567 C   0  0  0  0  0  0  0  0  0  0  0  0
   21.9163   -6.6171  -13.2284 O   0  0  0  0  0  0  0  0  0  0  0  0
   19.8232   -7.7427  -12.8204 C   0  0  0  0  0  0  0  0  0  0  0  0
   18.9742   -8.6232  -13.6556 C   0  0  0  0  0  0  0  0  0  0  0  0
   17.7260   -9.1627  -13.0399 C   0  0  2  0  0  0  0  0  0  0  0  0
   17.0362   -9.9763  -14.0726 N   0  0  0  0  0  0  0  0  0  0  0  0
   16.8042   -8.1803  -12.4726 C   0  0  0  0  0  0  0  0  0  0  0  0
   16.0523   -7.4788  -13.2480 O   0  0  0  0  0  0  0  0  0  0  0  0
   16.8386   -7.1869   -8.5898 O   0  0  0  0  0  0  0  0  0  0  0  0
   15.5677   -6.9325   -9.1175 C   0  0  0  0  0  0  0  0  0  0  0  0
   15.7274   -6.8787  -10.6246 C   0  0  2  0  0  0  0  0  0  0  0  0
   16.6370   -7.9058  -11.0957 N   0  0  0  0  0  0  0  0  0  0  0  0
   16.2968   -5.5494  -10.9374 C   0  0  0  0  0  0  0  0  0  0  0  0
   15.6489   -4.3703  -10.6184 O   0  0  0  0  0  0  0  0  0  0  0  0
   17.4129   -5.4560  -11.5164 O   0  0  0  0  0  0  0  0  0  0  0  0
  1  2  1  0
  3  2  1  0
  3  4  1  6
  5  3  1  0
  5  6  1  1
  7  5  1  0
  7  8  2  0
  9 10  1  0
 10 12  1  0
 11 10  2  0
 12 13  1  0
 14 15  1  0
 14 13  1  6
 15  7  1  0
 16 14  1  0
 17 16  2  0
 18 19  1  0
 20 19  1  1
 20 21  1  0
 21 16  1  0
 22 23  1  0
 22 20  1  0
 24 22  2  0
M  END
$$$$
