IQS.pdb
     RDKit          3D

 24 23  0  0  1  0  0  0  0  0999 V2000
   26.5335  -14.9232  -19.4470 C   0  0  0  0  0  0  0  0  0  0  0  0
   26.5121  -16.2393  -18.7352 C   0  0  0  0  0  0  0  0  0  0  0  0
   27.7909  -16.6537  -18.1202 C   0  0  2  0  0  0  0  0  0  0  0  0
   28.8762  -16.5744  -19.1799 C   0  0  0  0  0  0  0  0  0  0  0  0
   27.7709  -17.9563  -17.4077 C   0  0  2  0  0  0  0  0  0  0  0  0
   27.3384  -19.0094  -18.3302 N   0  0  0  0  0  0  0  0  0  0  0  0
   26.9042  -17.9995  -16.2350 C   0  0  0  0  0  0  0  0  0  0  0  0
   27.1262  -17.2432  -15.2599 O   0  0  0  0  0  0  0  0  0  0  0  0
   21.1473  -19.5989  -16.3647 N   0  0  0  0  0  0  0  0  0  0  0  0
   21.2430  -19.6113  -14.9479 C   0  0  0  0  0  0  0  0  0  0  0  0
   20.1990  -19.8184  -14.2890 O   0  0  0  0  0  0  0  0  0  0  0  0
   22.5701  -19.3806  -14.2602 C   0  0  0  0  0  0  0  0  0  0  0  0
   23.5701  -19.1783  -15.3337 C   0  0  0  0  0  0  0  0  0  0  0  0
   24.9928  -18.9886  -14.9233 C   0  0  2  0  0  0  0  0  0  0  0  0
   25.8031  -18.8827  -16.1628 N   0  0  0  0  0  0  0  0  0  0  0  0
   25.5550  -20.0072  -14.0384 C   0  0  0  0  0  0  0  0  0  0  0  0
   26.0508  -21.0882  -14.5327 O   0  0  0  0  0  0  0  0  0  0  0  0
   25.1108  -19.9626  -10.0214 O   0  0  0  0  0  0  0  0  0  0  0  0
   26.3092  -20.5942  -10.3726 C   0  0  0  0  0  0  0  0  0  0  0  0
   26.1728  -21.0041  -11.8263 C   0  0  2  0  0  0  0  0  0  0  0  0
   25.6208  -19.9286  -12.6282 N   0  0  0  0  0  0  0  0  0  0  0  0
   25.2399  -22.1523  -11.8510 C   0  0  0  0  0  0  0  0  0  0  0  0
   25.5225  -23.3523  -11.2250 O   0  0  0  0  0  0  0  0  0  0  0  0
   24.1383  -22.0635  -12.4577 O   0  0  0  0  0  0  0  0  0  0  0  0
  1  2  1  0
  3  2  1  0
  3  4  1  6
  5  3  1  0
  5  6  1  6
  7  5  1  0
  7  8  2  0
  9 10  1  0
 10 12  1  0
 11 10  2  0
 12 13  1  0
 14 15  1  0
 14 13  1  6
 15  7  1  0
 16 14  1  0
 17 16  2  0
 18 19  1  0
 20 19  1  1
 20 21  1  0
 21 16  1  0
 22 23  1  0
 22 20  1  0
 24 22  2  0
M  END
$$$$
