IQS.pdb
     RDKit          3D

 24 23  0  0  1  0  0  0  0  0999 V2000
   28.4847  -12.2422  -16.1663 C   0  0  0  0  0  0  0  0  0  0  0  0
   27.0256  -12.5746  -16.1512 C   0  0  0  0  0  0  0  0  0  0  0  0
   26.1095  -11.4392  -16.3893 C   0  0  2  0  0  0  0  0  0  0  0  0
   26.3569  -10.3947  -15.3147 C   0  0  0  0  0  0  0  0  0  0  0  0
   24.6742  -11.7896  -16.5371 C   0  0  2  0  0  0  0  0  0  0  0  0
   24.5251  -12.7995  -17.5882 N   0  0  0  0  0  0  0  0  0  0  0  0
   23.8003  -10.6674  -16.8621 C   0  0  0  0  0  0  0  0  0  0  0  0
   23.8006  -10.1837  -18.0188 O   0  0  0  0  0  0  0  0  0  0  0  0
   18.2518  -10.6608  -15.9438 N   0  0  0  0  0  0  0  0  0  0  0  0
   18.2443   -9.2590  -16.1709 C   0  0  0  0  0  0  0  0  0  0  0  0
   17.1366   -8.6844  -16.2693 O   0  0  0  0  0  0  0  0  0  0  0  0
   19.5398   -8.4876  -16.2895 C   0  0  0  0  0  0  0  0  0  0  0  0
   20.6325   -9.4738  -16.1255 C   0  0  0  0  0  0  0  0  0  0  0  0
   22.0343   -8.9762  -16.2511 C   0  0  2  0  0  0  0  0  0  0  0  0
   22.9385  -10.0991  -15.8967 N   0  0  0  0  0  0  0  0  0  0  0  0
   22.3746   -7.7884  -15.4701 C   0  0  0  0  0  0  0  0  0  0  0  0
   22.5854   -7.8883  -14.2035 O   0  0  0  0  0  0  0  0  0  0  0  0
   22.6124   -4.0632  -17.0608 O   0  0  0  0  0  0  0  0  0  0  0  0
   23.4551   -4.2167  -15.9542 C   0  0  0  0  0  0  0  0  0  0  0  0
   22.8904   -5.3613  -15.1352 C   0  0  2  0  0  0  0  0  0  0  0  0
   22.5084   -6.4767  -15.9805 N   0  0  0  0  0  0  0  0  0  0  0  0
   21.6854   -4.8351  -14.4568 C   0  0  0  0  0  0  0  0  0  0  0  0
   21.7501   -3.8600  -13.4787 O   0  0  0  0  0  0  0  0  0  0  0  0
   20.5426   -5.2728  -14.7603 O   0  0  0  0  0  0  0  0  0  0  0  0
  1  2  1  0
  3  2  1  0
  3  4  1  1
  5  3  1  0
  5  6  1  6
  7  5  1  0
  7  8  2  0
  9 10  1  0
 10 12  1  0
 11 10  2  0
 12 13  1  0
 14 15  1  0
 14 13  1  1
 15  7  1  0
 16 14  1  0
 17 16  2  0
 18 19  1  0
 20 19  1  6
 20 21  1  0
 21 16  1  0
 22 23  1  0
 22 20  1  0
 24 22  2  0
M  END
$$$$
