IQS.pdb
     RDKit          3D

 24 23  0  0  1  0  0  0  0  0999 V2000
   15.7629  -14.1874  -15.5687 C   0  0  0  0  0  0  0  0  0  0  0  0
   15.9528  -12.7287  -15.8434 C   0  0  0  0  0  0  0  0  0  0  0  0
   16.2258  -11.8862  -14.6598 C   0  0  2  0  0  0  0  0  0  0  0  0
   15.1172  -12.1148  -13.6470 C   0  0  0  0  0  0  0  0  0  0  0  0
   16.4710  -10.4479  -14.9355 C   0  0  2  0  0  0  0  0  0  0  0  0
   17.3867  -10.3191  -16.0721 N   0  0  0  0  0  0  0  0  0  0  0  0
   17.0312   -9.6969  -13.8172 C   0  0  0  0  0  0  0  0  0  0  0  0
   16.5230   -9.7953  -12.6752 O   0  0  0  0  0  0  0  0  0  0  0  0
   21.8340   -5.9633  -14.5427 N   0  0  0  0  0  0  0  0  0  0  0  0
   21.6413   -5.6975  -13.1611 C   0  0  0  0  0  0  0  0  0  0  0  0
   22.4057   -4.8751  -12.6075 O   0  0  0  0  0  0  0  0  0  0  0  0
   20.5430   -6.3904  -12.3859 C   0  0  0  0  0  0  0  0  0  0  0  0
   19.8662   -7.3005  -13.3384 C   0  0  0  0  0  0  0  0  0  0  0  0
   18.6482   -8.0178  -12.8588 C   0  0  2  0  0  0  0  0  0  0  0  0
   18.1483   -8.8473  -13.9840 N   0  0  0  0  0  0  0  0  0  0  0  0
   17.5703   -7.1851  -12.3282 C   0  0  0  0  0  0  0  0  0  0  0  0
   16.7350   -6.6229  -13.1312 O   0  0  0  0  0  0  0  0  0  0  0  0
   17.1946   -6.3022   -8.3922 O   0  0  0  0  0  0  0  0  0  0  0  0
   15.9680   -6.1948   -9.0572 C   0  0  0  0  0  0  0  0  0  0  0  0
   16.2875   -6.0093  -10.5279 C   0  0  2  0  0  0  0  0  0  0  0  0
   17.3308   -6.9198  -10.9602 N   0  0  0  0  0  0  0  0  0  0  0  0
   16.7681   -4.6181  -10.6790 C   0  0  0  0  0  0  0  0  0  0  0  0
   15.9773   -3.5230  -10.3837 O   0  0  0  0  0  0  0  0  0  0  0  0
   17.9380   -4.3906  -11.0904 O   0  0  0  0  0  0  0  0  0  0  0  0
  1  2  1  0
  3  2  1  0
  3  4  1  1
  5  3  1  0
  5  6  1  6
  7  5  1  0
  7  8  2  0
  9 10  1  0
 10 12  1  0
 11 10  2  0
 12 13  1  0
 14 15  1  0
 14 13  1  6
 15  7  1  0
 16 14  1  0
 17 16  2  0
 18 19  1  0
 20 19  1  1
 20 21  1  0
 21 16  1  0
 22 23  1  0
 22 20  1  0
 24 22  2  0
M  END
$$$$
