IQS.pdb
     RDKit          3D

 24 23  0  0  1  0  0  0  0  0999 V2000
   28.4689  -20.0596   -4.7845 C   0  0  0  0  0  0  0  0  0  0  0  0
   27.1134  -19.9270   -5.4045 C   0  0  0  0  0  0  0  0  0  0  0  0
   27.0210  -20.3168   -6.8275 C   0  0  2  0  0  0  0  0  0  0  0  0
   28.1825  -19.6808   -7.5714 C   0  0  0  0  0  0  0  0  0  0  0  0
   25.7102  -20.0691   -7.4795 C   0  0  2  0  0  0  0  0  0  0  0  0
   24.6458  -20.6851   -6.6827 N   0  0  0  0  0  0  0  0  0  0  0  0
   25.6007  -20.5719   -8.8447 C   0  0  0  0  0  0  0  0  0  0  0  0
   26.1679  -21.6420   -9.1688 O   0  0  0  0  0  0  0  0  0  0  0  0
   20.9814  -22.5202  -11.6958 N   0  0  0  0  0  0  0  0  0  0  0  0
   21.8244  -21.4879  -12.1860 C   0  0  0  0  0  0  0  0  0  0  0  0
   22.1778  -21.5363  -13.3859 O   0  0  0  0  0  0  0  0  0  0  0  0
   22.2792  -20.3651  -11.2805 C   0  0  0  0  0  0  0  0  0  0  0  0
   23.5540  -19.8624  -11.8422 C   0  0  0  0  0  0  0  0  0  0  0  0
   24.8209  -20.3638  -11.2323 C   0  0  2  0  0  0  0  0  0  0  0  0
   24.8623  -19.8780   -9.8300 N   0  0  0  0  0  0  0  0  0  0  0  0
   26.0591  -20.0121  -11.9249 C   0  0  0  0  0  0  0  0  0  0  0  0
   26.5766  -18.8433  -11.7669 O   0  0  0  0  0  0  0  0  0  0  0  0
   28.4041  -22.5065  -14.3947 O   0  0  0  0  0  0  0  0  0  0  0  0
   28.9865  -21.4344  -13.7094 C   0  0  0  0  0  0  0  0  0  0  0  0
   27.9114  -20.3740  -13.5703 C   0  0  2  0  0  0  0  0  0  0  0  0
   26.7893  -20.8596  -12.7896 N   0  0  0  0  0  0  0  0  0  0  0  0
   27.4482  -20.0660  -14.9413 C   0  0  0  0  0  0  0  0  0  0  0  0
   28.2924  -19.5665  -15.9157 O   0  0  0  0  0  0  0  0  0  0  0  0
   26.2440  -20.2556  -15.2632 O   0  0  0  0  0  0  0  0  0  0  0  0
  1  2  1  0
  3  2  1  0
  3  4  1  6
  5  3  1  0
  5  6  1  1
  7  5  1  0
  7  8  2  0
  9 10  1  0
 10 12  1  0
 11 10  2  0
 12 13  1  0
 14 15  1  0
 14 13  1  6
 15  7  1  0
 16 14  1  0
 17 16  2  0
 18 19  1  0
 20 19  1  6
 20 21  1  0
 21 16  1  0
 22 23  1  0
 22 20  1  0
 24 22  2  0
M  END
$$$$
