SSS.pdb
     RDKit          3D

 19 18  0  0  1  0  0  0  0  0999 V2000
   10.1405  -17.5741   18.3898 O   0  0  0  0  0  0  0  0  0  0  0  0
    9.7018  -17.2975   17.0963 C   0  0  0  0  0  0  0  0  0  0  0  0
   10.2725  -15.9843   16.6284 C   0  0  2  0  0  0  0  0  0  0  0  0
   11.6414  -16.1206   16.2315 N   0  0  0  0  0  0  0  0  0  0  0  0
   10.2057  -14.9389   17.6833 C   0  0  0  0  0  0  0  0  0  0  0  0
   11.2417  -14.6803   18.3144 O   0  0  0  0  0  0  0  0  0  0  0  0
    6.5056  -13.2225   19.0020 O   0  0  0  0  0  0  0  0  0  0  0  0
    7.6500  -12.4271   18.9893 C   0  0  0  0  0  0  0  0  0  0  0  0
    8.8737  -13.2961   19.0679 C   0  0  2  0  0  0  0  0  0  0  0  0
    9.0161  -14.2260   18.0004 N   0  0  0  0  0  0  0  0  0  0  0  0
    9.0443  -13.9158   20.4086 C   0  0  0  0  0  0  0  0  0  0  0  0
    9.0844  -13.1976   21.4411 O   0  0  0  0  0  0  0  0  0  0  0  0
    7.7407  -17.3596   20.7899 O   0  0  0  0  0  0  0  0  0  0  0  0
    8.4766  -17.2229   21.9634 C   0  0  0  0  0  0  0  0  0  0  0  0
    9.2253  -15.9089   21.9308 C   0  0  2  0  0  0  0  0  0  0  0  0
    9.1693  -15.3245   20.5982 N   0  0  0  0  0  0  0  0  0  0  0  0
   10.6443  -16.0941   22.3425 C   0  0  0  0  0  0  0  0  0  0  0  0
   10.9265  -16.5742   23.6223 O   0  0  0  0  0  0  0  0  0  0  0  0
   11.6043  -15.8355   21.5839 O   0  0  0  0  0  0  0  0  0  0  0  0
  2  3  1  0
  2  1  1  0
  3  4  1  1
  5  6  2  0
  5  3  1  0
  7  8  1  0
  9  8  1  1
  9 10  1  0
 10  5  1  0
 11 12  2  0
 11  9  1  0
 13 14  1  0
 15 16  1  0
 15 14  1  6
 16 11  1  0
 17 15  1  0
 18 17  1  0
 19 17  2  0
M  END
$$$$
