SSS.pdb
     RDKit          3D

 19 18  0  0  1  0  0  0  0  0999 V2000
   12.3844  -18.4642   15.1185 O   0  0  0  0  0  0  0  0  0  0  0  0
   11.2048  -18.0222   14.5226 C   0  0  0  0  0  0  0  0  0  0  0  0
   11.2739  -16.5367   14.2826 C   0  0  2  0  0  0  0  0  0  0  0  0
   12.2102  -16.2169   13.2478 N   0  0  0  0  0  0  0  0  0  0  0  0
   11.6739  -15.7915   15.5053 C   0  0  0  0  0  0  0  0  0  0  0  0
   12.8378  -15.3687   15.5759 O   0  0  0  0  0  0  0  0  0  0  0  0
    9.0387  -13.6551   17.8745 O   0  0  0  0  0  0  0  0  0  0  0  0
    9.9324  -14.4258   18.6158 C   0  0  0  0  0  0  0  0  0  0  0  0
   11.1109  -14.8000   17.7615 C   0  0  2  0  0  0  0  0  0  0  0  0
   10.7891  -15.5427   16.5912 N   0  0  0  0  0  0  0  0  0  0  0  0
   12.2151  -15.4056   18.5519 C   0  0  0  0  0  0  0  0  0  0  0  0
   12.2890  -16.6544   18.6886 O   0  0  0  0  0  0  0  0  0  0  0  0
   15.9921  -14.2683   18.7083 O   0  0  0  0  0  0  0  0  0  0  0  0
   15.5124  -14.3922   20.0091 C   0  0  0  0  0  0  0  0  0  0  0  0
   14.2646  -15.2470   19.9998 C   0  0  2  0  0  0  0  0  0  0  0  0
   13.2291  -14.6268   19.1851 N   0  0  0  0  0  0  0  0  0  0  0  0
   13.7574  -15.4642   21.3830 C   0  0  0  0  0  0  0  0  0  0  0  0
   12.4592  -15.0652   21.7044 O   0  0  0  0  0  0  0  0  0  0  0  0
   14.4512  -15.9939   22.2786 O   0  0  0  0  0  0  0  0  0  0  0  0
  2  3  1  0
  2  1  1  0
  3  4  1  6
  5  6  2  0
  5  3  1  0
  7  8  1  0
  9  8  1  1
  9 10  1  0
 10  5  1  0
 11 12  2  0
 11  9  1  0
 13 14  1  0
 15 16  1  0
 15 14  1  1
 16 11  1  0
 17 15  1  0
 18 17  1  0
 19 17  2  0
M  END
$$$$
