SSS.pdb
     RDKit          3D

 19 18  0  0  1  0  0  0  0  0999 V2000
    8.1756  -19.4308   19.1245 O   0  0  0  0  0  0  0  0  0  0  0  0
    7.2281  -18.6178   18.5055 C   0  0  0  0  0  0  0  0  0  0  0  0
    7.8351  -17.2795   18.1741 C   0  0  2  0  0  0  0  0  0  0  0  0
    8.9188  -17.4116   17.2477 N   0  0  0  0  0  0  0  0  0  0  0  0
    8.3514  -16.5857   19.3834 C   0  0  0  0  0  0  0  0  0  0  0  0
    9.5657  -16.6602   19.6247 O   0  0  0  0  0  0  0  0  0  0  0  0
    7.4421  -13.7983   23.2984 O   0  0  0  0  0  0  0  0  0  0  0  0
    6.8778  -14.5014   22.2355 C   0  0  0  0  0  0  0  0  0  0  0  0
    7.9539  -15.2270   21.4777 C   0  0  2  0  0  0  0  0  0  0  0  0
    7.5221  -15.8450   20.2709 N   0  0  0  0  0  0  0  0  0  0  0  0
    8.7463  -16.1358   22.3478 C   0  0  0  0  0  0  0  0  0  0  0  0
    8.3813  -17.3272   22.5229 O   0  0  0  0  0  0  0  0  0  0  0  0
   12.9300  -17.4294   24.2146 O   0  0  0  0  0  0  0  0  0  0  0  0
   12.2022  -16.4758   23.5086 C   0  0  0  0  0  0  0  0  0  0  0  0
   10.7295  -16.6555   23.8033 C   0  0  2  0  0  0  0  0  0  0  0  0
    9.9358  -15.7210   23.0177 N   0  0  0  0  0  0  0  0  0  0  0  0
   10.4491  -16.4630   25.2530 C   0  0  0  0  0  0  0  0  0  0  0  0
   10.9872  -17.3597   26.1773 O   0  0  0  0  0  0  0  0  0  0  0  0
    9.7451  -15.5231   25.6832 O   0  0  0  0  0  0  0  0  0  0  0  0
  2  3  1  0
  2  1  1  0
  3  4  1  6
  5  6  2  0
  5  3  1  0
  7  8  1  0
  9  8  1  1
  9 10  1  0
 10  5  1  0
 11 12  2  0
 11  9  1  0
 13 14  1  0
 15 16  1  0
 15 14  1  1
 16 11  1  0
 17 15  1  0
 18 17  1  0
 19 17  2  0
M  END
$$$$
