SSS.pdb
     RDKit          3D

 19 18  0  0  1  0  0  0  0  0999 V2000
   10.6579  -14.7405   18.2833 O   0  0  0  0  0  0  0  0  0  0  0  0
    9.9270  -13.5772   18.0497 C   0  0  0  0  0  0  0  0  0  0  0  0
    8.4518  -13.8793   18.0872 C   0  0  2  0  0  0  0  0  0  0  0  0
    7.6735  -12.7312   17.7321 N   0  0  0  0  0  0  0  0  0  0  0  0
    8.0085  -14.3320   19.4321 C   0  0  0  0  0  0  0  0  0  0  0  0
    7.8298  -13.4717   20.3075 O   0  0  0  0  0  0  0  0  0  0  0  0
    7.6632  -18.5142   20.5563 O   0  0  0  0  0  0  0  0  0  0  0  0
    6.8517  -17.5317   21.1206 C   0  0  0  0  0  0  0  0  0  0  0  0
    7.5523  -16.2030   21.0697 C   0  0  2  0  0  0  0  0  0  0  0  0
    7.7814  -15.6978   19.7594 N   0  0  0  0  0  0  0  0  0  0  0  0
    8.7650  -16.1677   21.9292 C   0  0  0  0  0  0  0  0  0  0  0  0
    9.9120  -16.2030   21.4128 O   0  0  0  0  0  0  0  0  0  0  0  0
   10.7517  -15.9074   26.3662 O   0  0  0  0  0  0  0  0  0  0  0  0
    9.5817  -15.8536   25.6141 C   0  0  0  0  0  0  0  0  0  0  0  0
    9.9024  -16.1766   24.1716 C   0  0  2  0  0  0  0  0  0  0  0  0
    8.7011  -16.0937   23.3526 N   0  0  0  0  0  0  0  0  0  0  0  0
   10.5043  -17.5332   24.0506 C   0  0  0  0  0  0  0  0  0  0  0  0
   11.8935  -17.6669   24.0617 O   0  0  0  0  0  0  0  0  0  0  0  0
    9.8123  -18.5688   23.9384 O   0  0  0  0  0  0  0  0  0  0  0  0
  2  3  1  0
  2  1  1  0
  3  4  1  1
  5  6  2  0
  5  3  1  0
  7  8  1  0
  9  8  1  6
  9 10  1  0
 10  5  1  0
 11 12  2  0
 11  9  1  0
 13 14  1  0
 15 16  1  0
 15 14  1  1
 16 11  1  0
 17 15  1  0
 18 17  1  0
 19 17  2  0
M  END
$$$$
