SSS.pdb
     RDKit          3D

 19 18  0  0  1  0  0  0  0  0999 V2000
    7.7080  -19.1810   18.4770 O   0  0  0  0  0  0  0  0  0  0  0  0
    6.8367  -18.1792   18.0538 C   0  0  0  0  0  0  0  0  0  0  0  0
    7.6137  -16.9428   17.6840 C   0  0  2  0  0  0  0  0  0  0  0  0
    8.5274  -17.2003   16.6121 N   0  0  0  0  0  0  0  0  0  0  0  0
    8.3953  -16.4106   18.8312 C   0  0  0  0  0  0  0  0  0  0  0  0
    9.6283  -16.5432   18.8084 O   0  0  0  0  0  0  0  0  0  0  0  0
    6.6989  -15.3130   22.6207 O   0  0  0  0  0  0  0  0  0  0  0  0
    7.6564  -14.4778   22.0480 C   0  0  0  0  0  0  0  0  0  0  0  0
    8.4987  -15.2596   21.0795 C   0  0  2  0  0  0  0  0  0  0  0  0
    7.7981  -15.7602   19.9467 N   0  0  0  0  0  0  0  0  0  0  0  0
    9.3298  -16.2912   21.7546 C   0  0  0  0  0  0  0  0  0  0  0  0
    9.0399  -17.5111   21.6485 O   0  0  0  0  0  0  0  0  0  0  0  0
   13.2631  -18.3212   22.5059 O   0  0  0  0  0  0  0  0  0  0  0  0
   12.4629  -17.2849   22.0335 C   0  0  0  0  0  0  0  0  0  0  0  0
   11.3705  -17.0012   23.0405 C   0  0  2  0  0  0  0  0  0  0  0  0
   10.4749  -15.9670   22.5417 N   0  0  0  0  0  0  0  0  0  0  0  0
   11.9471  -16.5831   24.3482 C   0  0  0  0  0  0  0  0  0  0  0  0
   12.7491  -17.4782   25.0579 O   0  0  0  0  0  0  0  0  0  0  0  0
   11.7421  -15.4533   24.8437 O   0  0  0  0  0  0  0  0  0  0  0  0
  2  3  1  0
  2  1  1  0
  3  4  1  6
  5  6  2  0
  5  3  1  0
  7  8  1  0
  9  8  1  1
  9 10  1  0
 10  5  1  0
 11 12  2  0
 11  9  1  0
 13 14  1  0
 15 16  1  0
 15 14  1  6
 16 11  1  0
 17 15  1  0
 18 17  1  0
 19 17  2  0
M  END
$$$$
