SSS.pdb
     RDKit          3D

 19 18  0  0  1  0  0  0  0  0999 V2000
   -9.0573  -17.2728   21.0544 O   0  0  0  0  0  0  0  0  0  0  0  0
   -7.8225  -17.3779   20.4170 C   0  0  0  0  0  0  0  0  0  0  0  0
   -7.9010  -18.3917   19.3056 C   0  0  2  0  0  0  0  0  0  0  0  0
   -8.9745  -18.0984   18.4048 N   0  0  0  0  0  0  0  0  0  0  0  0
   -8.1030  -19.7713   19.8215 C   0  0  0  0  0  0  0  0  0  0  0  0
   -9.2478  -20.2470   19.7815 O   0  0  0  0  0  0  0  0  0  0  0  0
   -5.1370  -21.8546   22.0360 O   0  0  0  0  0  0  0  0  0  0  0  0
   -5.8979  -22.6005   21.1377 C   0  0  0  0  0  0  0  0  0  0  0  0
   -7.1922  -21.8905   20.8559 C   0  0  2  0  0  0  0  0  0  0  0  0
   -7.0507  -20.5659   20.3555 N   0  0  0  0  0  0  0  0  0  0  0  0
   -8.1507  -21.9873   21.9884 C   0  0  0  0  0  0  0  0  0  0  0  0
   -8.1005  -21.1617   22.9367 O   0  0  0  0  0  0  0  0  0  0  0  0
  -12.3349  -23.6163   23.7375 O   0  0  0  0  0  0  0  0  0  0  0  0
  -11.3697  -23.7631   22.7455 C   0  0  0  0  0  0  0  0  0  0  0  0
  -10.1121  -23.0337   23.1631 C   0  0  2  0  0  0  0  0  0  0  0  0
   -9.1573  -22.9956   22.0643 N   0  0  0  0  0  0  0  0  0  0  0  0
   -9.4903  -23.6814   24.3511 C   0  0  0  0  0  0  0  0  0  0  0  0
   -8.1858  -24.1687   24.2581 O   0  0  0  0  0  0  0  0  0  0  0  0
  -10.0922  -23.8092   25.4399 O   0  0  0  0  0  0  0  0  0  0  0  0
  2  3  1  0
  2  1  1  0
  3  4  1  6
  5  6  2  0
  5  3  1  0
  7  8  1  0
  9  8  1  1
  9 10  1  0
 10  5  1  0
 11 12  2  0
 11  9  1  0
 13 14  1  0
 15 16  1  0
 15 14  1  6
 16 11  1  0
 17 15  1  0
 18 17  1  0
 19 17  2  0
M  END
$$$$
