SSS.pdb
     RDKit          3D

 19 18  0  0  1  0  0  0  0  0999 V2000
   14.5757  -20.6642   19.0452 O   0  0  0  0  0  0  0  0  0  0  0  0
   13.1941  -20.6032   18.8735 C   0  0  0  0  0  0  0  0  0  0  0  0
   12.7903  -19.2208   18.4318 C   0  0  2  0  0  0  0  0  0  0  0  0
   13.4469  -18.8476   17.2154 N   0  0  0  0  0  0  0  0  0  0  0  0
   13.1096  -18.1918   19.4563 C   0  0  0  0  0  0  0  0  0  0  0  0
   14.1173  -17.4896   19.2832 O   0  0  0  0  0  0  0  0  0  0  0  0
   10.7972  -17.6496   23.0454 O   0  0  0  0  0  0  0  0  0  0  0  0
   11.3570  -16.5549   22.3892 C   0  0  0  0  0  0  0  0  0  0  0  0
   12.5684  -16.9917   21.6143 C   0  0  2  0  0  0  0  0  0  0  0  0
   12.3178  -17.9768   20.6185 N   0  0  0  0  0  0  0  0  0  0  0  0
   13.7143  -17.3334   22.4980 C   0  0  0  0  0  0  0  0  0  0  0  0
   14.0045  -18.5362   22.7271 O   0  0  0  0  0  0  0  0  0  0  0  0
   17.2696  -15.5773   22.7903 O   0  0  0  0  0  0  0  0  0  0  0  0
   16.6756  -15.6431   24.0473 C   0  0  0  0  0  0  0  0  0  0  0  0
   15.6035  -16.7101   24.0357 C   0  0  2  0  0  0  0  0  0  0  0  0
   14.5307  -16.3434   23.1218 N   0  0  0  0  0  0  0  0  0  0  0  0
   15.0522  -16.9261   25.4020 C   0  0  0  0  0  0  0  0  0  0  0  0
   15.8914  -17.4063   26.4085 O   0  0  0  0  0  0  0  0  0  0  0  0
   13.8577  -16.6936   25.6901 O   0  0  0  0  0  0  0  0  0  0  0  0
  2  3  1  0
  2  1  1  0
  3  4  1  6
  5  6  2  0
  5  3  1  0
  7  8  1  0
  9  8  1  1
  9 10  1  0
 10  5  1  0
 11 12  2  0
 11  9  1  0
 13 14  1  0
 15 16  1  0
 15 14  1  1
 16 11  1  0
 17 15  1  0
 18 17  1  0
 19 17  2  0
M  END
$$$$
