SSS.pdb
     RDKit          3D

 19 18  0  0  1  0  0  0  0  0999 V2000
   12.4948  -17.7963   12.8637 O   0  0  0  0  0  0  0  0  0  0  0  0
   11.1104  -17.9074   12.9781 C   0  0  0  0  0  0  0  0  0  0  0  0
   10.4854  -16.5374   13.0222 C   0  0  2  0  0  0  0  0  0  0  0  0
   10.8155  -15.7741   11.8567 N   0  0  0  0  0  0  0  0  0  0  0  0
   10.9225  -15.7625   14.2133 C   0  0  0  0  0  0  0  0  0  0  0  0
   11.8697  -14.9729   14.0800 O   0  0  0  0  0  0  0  0  0  0  0  0
    9.5289  -16.5577   18.2092 O   0  0  0  0  0  0  0  0  0  0  0  0
    9.7323  -15.2409   17.8006 C   0  0  0  0  0  0  0  0  0  0  0  0
   10.7234  -15.2066   16.6713 C   0  0  2  0  0  0  0  0  0  0  0  0
   10.3083  -15.8840   15.4908 N   0  0  0  0  0  0  0  0  0  0  0  0
   12.0943  -15.5817   17.1080 C   0  0  0  0  0  0  0  0  0  0  0  0
   12.5328  -16.7428   16.9005 O   0  0  0  0  0  0  0  0  0  0  0  0
   16.5460  -14.3321   18.3938 O   0  0  0  0  0  0  0  0  0  0  0  0
   15.2473  -13.8894   18.1599 C   0  0  0  0  0  0  0  0  0  0  0  0
   14.3051  -15.0722   18.1920 C   0  0  2  0  0  0  0  0  0  0  0  0
   12.9702  -14.6709   17.7706 N   0  0  0  0  0  0  0  0  0  0  0  0
   14.2469  -15.6700   19.5546 C   0  0  0  0  0  0  0  0  0  0  0  0
   13.0744  -15.5515   20.3023 O   0  0  0  0  0  0  0  0  0  0  0  0
   15.2128  -16.2799   20.0636 O   0  0  0  0  0  0  0  0  0  0  0  0
  2  3  1  0
  2  1  1  0
  3  4  1  6
  5  6  2  0
  5  3  1  0
  7  8  1  0
  9  8  1  1
  9 10  1  0
 10  5  1  0
 11 12  2  0
 11  9  1  0
 13 14  1  0
 15 16  1  0
 15 14  1  1
 16 11  1  0
 17 15  1  0
 18 17  1  0
 19 17  2  0
M  END
$$$$
