SSS.pdb
     RDKit          3D

 19 18  0  0  1  0  0  0  0  0999 V2000
    7.4597  -23.1532   12.0118 O   0  0  0  0  0  0  0  0  0  0  0  0
    6.6747  -23.2599   13.1583 C   0  0  0  0  0  0  0  0  0  0  0  0
    6.6391  -21.9399   13.8832 C   0  0  2  0  0  0  0  0  0  0  0  0
    7.9241  -21.3084   13.8834 N   0  0  0  0  0  0  0  0  0  0  0  0
    6.2052  -22.0909   15.2971 C   0  0  0  0  0  0  0  0  0  0  0  0
    6.9797  -21.7112   16.1885 O   0  0  0  0  0  0  0  0  0  0  0  0
    2.4794  -23.8400   16.2832 O   0  0  0  0  0  0  0  0  0  0  0  0
    3.0239  -22.9280   17.1854 C   0  0  0  0  0  0  0  0  0  0  0  0
    4.5153  -22.8675   17.0092 C   0  0  2  0  0  0  0  0  0  0  0  0
    4.9508  -22.6472   15.6726 N   0  0  0  0  0  0  0  0  0  0  0  0
    5.2112  -24.0031   17.6702 C   0  0  0  0  0  0  0  0  0  0  0  0
    5.8836  -24.8203   16.9894 O   0  0  0  0  0  0  0  0  0  0  0  0
    8.0360  -26.2552   20.0341 O   0  0  0  0  0  0  0  0  0  0  0  0
    7.3746  -25.1323   19.5451 C   0  0  0  0  0  0  0  0  0  0  0  0
    5.8825  -25.3274   19.6994 C   0  0  2  0  0  0  0  0  0  0  0  0
    5.1588  -24.2269   19.0784 N   0  0  0  0  0  0  0  0  0  0  0  0
    5.5051  -25.4342   21.1359 C   0  0  0  0  0  0  0  0  0  0  0  0
    5.8297  -26.5932   21.8424 O   0  0  0  0  0  0  0  0  0  0  0  0
    4.9036  -24.5213   21.7432 O   0  0  0  0  0  0  0  0  0  0  0  0
  2  3  1  0
  2  1  1  0
  3  4  1  1
  5  6  2  0
  5  3  1  0
  7  8  1  0
  9  8  1  6
  9 10  1  0
 10  5  1  0
 11 12  2  0
 11  9  1  0
 13 14  1  0
 15 16  1  0
 15 14  1  1
 16 11  1  0
 17 15  1  0
 18 17  1  0
 19 17  2  0
M  END
$$$$
