SSS.pdb
     RDKit          3D

 19 18  0  0  1  0  0  0  0  0999 V2000
    8.7985  -14.0585   18.0680 O   0  0  0  0  0  0  0  0  0  0  0  0
    8.0831  -14.1554   19.2600 C   0  0  0  0  0  0  0  0  0  0  0  0
    8.1053  -15.5761   19.7603 C   0  0  2  0  0  0  0  0  0  0  0  0
    7.3129  -16.4346   18.9326 N   0  0  0  0  0  0  0  0  0  0  0  0
    7.5942  -15.6860   21.1520 C   0  0  0  0  0  0  0  0  0  0  0  0
    6.3738  -15.5633   21.3365 O   0  0  0  0  0  0  0  0  0  0  0  0
    9.8046  -17.2127   24.5357 O   0  0  0  0  0  0  0  0  0  0  0  0
    8.4189  -17.1933   24.3887 C   0  0  0  0  0  0  0  0  0  0  0  0
    8.0053  -15.9632   23.6308 C   0  0  2  0  0  0  0  0  0  0  0  0
    8.4349  -15.9239   22.2748 N   0  0  0  0  0  0  0  0  0  0  0  0
    8.3051  -14.7110   24.3745 C   0  0  0  0  0  0  0  0  0  0  0  0
    9.4147  -14.1354   24.2301 O   0  0  0  0  0  0  0  0  0  0  0  0
    5.5072  -12.7924   26.8434 O   0  0  0  0  0  0  0  0  0  0  0  0
    6.5408  -12.0481   26.2820 C   0  0  0  0  0  0  0  0  0  0  0  0
    7.7415  -12.9437   26.0719 C   0  0  2  0  0  0  0  0  0  0  0  0
    7.3765  -14.1046   25.2721 N   0  0  0  0  0  0  0  0  0  0  0  0
    8.3107  -13.3860   27.3749 C   0  0  0  0  0  0  0  0  0  0  0  0
    8.3106  -14.7448   27.6936 O   0  0  0  0  0  0  0  0  0  0  0  0
    8.7938  -12.5848   28.2048 O   0  0  0  0  0  0  0  0  0  0  0  0
  2  3  1  0
  2  1  1  0
  3  4  1  6
  5  6  2  0
  5  3  1  0
  7  8  1  0
  9  8  1  1
  9 10  1  0
 10  5  1  0
 11 12  2  0
 11  9  1  0
 13 14  1  0
 15 16  1  0
 15 14  1  1
 16 11  1  0
 17 15  1  0
 18 17  1  0
 19 17  2  0
M  END
$$$$
