SSS.pdb
     RDKit          3D

 19 18  0  0  1  0  0  0  0  0999 V2000
    9.1561  -17.4726   15.2288 O   0  0  0  0  0  0  0  0  0  0  0  0
    7.9507  -16.7760   15.1669 C   0  0  0  0  0  0  0  0  0  0  0  0
    8.2111  -15.3203   14.8804 C   0  0  2  0  0  0  0  0  0  0  0  0
    8.8899  -15.1461   13.6319 N   0  0  0  0  0  0  0  0  0  0  0  0
    9.0351  -14.6813   15.9402 C   0  0  0  0  0  0  0  0  0  0  0  0
   10.2528  -14.5600   15.7383 O   0  0  0  0  0  0  0  0  0  0  0  0
    7.5085  -13.7690   19.8230 O   0  0  0  0  0  0  0  0  0  0  0  0
    8.4166  -12.8827   19.2467 C   0  0  0  0  0  0  0  0  0  0  0  0
    9.2421  -13.5999   18.2157 C   0  0  2  0  0  0  0  0  0  0  0  0
    8.4947  -14.2056   17.1672 N   0  0  0  0  0  0  0  0  0  0  0  0
   10.2406  -14.5171   18.8260 C   0  0  0  0  0  0  0  0  0  0  0  0
   10.0210  -15.7552   18.8743 O   0  0  0  0  0  0  0  0  0  0  0  0
   14.2020  -14.1947   18.6163 O   0  0  0  0  0  0  0  0  0  0  0  0
   13.8227  -14.3981   19.9400 C   0  0  0  0  0  0  0  0  0  0  0  0
   12.4285  -14.9838   19.9736 C   0  0  2  0  0  0  0  0  0  0  0  0
   11.4738  -14.0593   19.3783 N   0  0  0  0  0  0  0  0  0  0  0  0
   12.0191  -15.3047   21.3689 C   0  0  0  0  0  0  0  0  0  0  0  0
   12.7341  -16.2651   22.0861 O   0  0  0  0  0  0  0  0  0  0  0  0
   11.0526  -14.7456   21.9320 O   0  0  0  0  0  0  0  0  0  0  0  0
  2  3  1  0
  2  1  1  0
  3  4  1  6
  5  6  2  0
  5  3  1  0
  7  8  1  0
  9  8  1  1
  9 10  1  0
 10  5  1  0
 11 12  2  0
 11  9  1  0
 13 14  1  0
 15 16  1  0
 15 14  1  1
 16 11  1  0
 17 15  1  0
 18 17  1  0
 19 17  2  0
M  END
$$$$
