SSS.pdb
     RDKit          3D

 19 18  0  0  1  0  0  0  0  0999 V2000
   -3.8701  -23.9427   19.0986 O   0  0  0  0  0  0  0  0  0  0  0  0
   -3.4012  -22.6364   19.2237 C   0  0  0  0  0  0  0  0  0  0  0  0
   -2.0207  -22.6398   19.8264 C   0  0  2  0  0  0  0  0  0  0  0  0
   -1.0837  -23.3194   18.9837 N   0  0  0  0  0  0  0  0  0  0  0  0
   -1.9951  -23.2975   21.1595 C   0  0  0  0  0  0  0  0  0  0  0  0
   -1.6047  -24.4732   21.2224 O   0  0  0  0  0  0  0  0  0  0  0  0
   -3.0680  -21.2128   24.7058 O   0  0  0  0  0  0  0  0  0  0  0  0
   -2.1118  -22.2245   24.7718 C   0  0  0  0  0  0  0  0  0  0  0  0
   -2.3397  -23.2124   23.6623 C   0  0  2  0  0  0  0  0  0  0  0  0
   -2.3952  -22.6449   22.3587 N   0  0  0  0  0  0  0  0  0  0  0  0
   -3.4717  -24.1336   23.9466 C   0  0  0  0  0  0  0  0  0  0  0  0
   -4.6031  -23.9278   23.4356 O   0  0  0  0  0  0  0  0  0  0  0  0
   -2.9787  -28.0620   24.7990 O   0  0  0  0  0  0  0  0  0  0  0  0
   -3.9515  -27.4901   25.6138 C   0  0  0  0  0  0  0  0  0  0  0  0
   -4.4457  -26.2108   24.9755 C   0  0  2  0  0  0  0  0  0  0  0  0
   -3.3449  -25.2751   24.7931 N   0  0  0  0  0  0  0  0  0  0  0  0
   -5.5129  -25.5813   25.8013 C   0  0  0  0  0  0  0  0  0  0  0  0
   -6.8209  -26.0588   25.7056 O   0  0  0  0  0  0  0  0  0  0  0  0
   -5.2863  -24.6335   26.5852 O   0  0  0  0  0  0  0  0  0  0  0  0
  2  3  1  0
  2  1  1  0
  3  4  1  6
  5  6  2  0
  5  3  1  0
  7  8  1  0
  9  8  1  1
  9 10  1  0
 10  5  1  0
 11 12  2  0
 11  9  1  0
 13 14  1  0
 15 16  1  0
 15 14  1  1
 16 11  1  0
 17 15  1  0
 18 17  1  0
 19 17  2  0
M  END
$$$$
