SSS.pdb
     RDKit          3D

 19 18  0  0  1  0  0  0  0  0999 V2000
   13.8519  -21.5450   18.1867 O   0  0  0  0  0  0  0  0  0  0  0  0
   12.5852  -21.2306   18.6752 C   0  0  0  0  0  0  0  0  0  0  0  0
   12.1170  -19.9238   18.0902 C   0  0  2  0  0  0  0  0  0  0  0  0
   12.5735  -19.7603   16.7430 N   0  0  0  0  0  0  0  0  0  0  0  0
   12.5943  -18.7566   18.8778 C   0  0  0  0  0  0  0  0  0  0  0  0
   13.6130  -18.1667   18.4872 O   0  0  0  0  0  0  0  0  0  0  0  0
   10.7211  -17.4037   22.5461 O   0  0  0  0  0  0  0  0  0  0  0  0
   11.3290  -16.5194   21.6569 C   0  0  0  0  0  0  0  0  0  0  0  0
   12.4038  -17.2326   20.8857 C   0  0  2  0  0  0  0  0  0  0  0  0
   11.9406  -18.2881   20.0514 N   0  0  0  0  0  0  0  0  0  0  0  0
   13.5510  -17.6284   21.7449 C   0  0  0  0  0  0  0  0  0  0  0  0
   13.6154  -18.7898   22.2249 O   0  0  0  0  0  0  0  0  0  0  0  0
   16.9409  -15.2520   22.1306 O   0  0  0  0  0  0  0  0  0  0  0  0
   17.0471  -16.6339   22.2585 C   0  0  0  0  0  0  0  0  0  0  0  0
   15.7652  -17.1789   22.8481 C   0  0  2  0  0  0  0  0  0  0  0  0
   14.6181  -16.7378   22.0670 N   0  0  0  0  0  0  0  0  0  0  0  0
   15.6066  -16.7508   24.2655 C   0  0  0  0  0  0  0  0  0  0  0  0
   16.5439  -17.1658   25.2127 O   0  0  0  0  0  0  0  0  0  0  0  0
   14.6605  -16.0280   24.6483 O   0  0  0  0  0  0  0  0  0  0  0  0
  2  3  1  0
  2  1  1  0
  3  4  1  6
  5  6  2  0
  5  3  1  0
  7  8  1  0
  9  8  1  1
  9 10  1  0
 10  5  1  0
 11 12  2  0
 11  9  1  0
 13 14  1  0
 15 16  1  0
 15 14  1  6
 16 11  1  0
 17 15  1  0
 18 17  1  0
 19 17  2  0
M  END
$$$$
