SSS.pdb
     RDKit          3D

 19 18  0  0  1  0  0  0  0  0999 V2000
    8.8659  -16.0425   16.2745 O   0  0  0  0  0  0  0  0  0  0  0  0
    7.5834  -15.5011   16.3385 C   0  0  0  0  0  0  0  0  0  0  0  0
    7.6345  -14.1260   16.9513 C   0  0  2  0  0  0  0  0  0  0  0  0
    8.3027  -13.1952   16.0929 N   0  0  0  0  0  0  0  0  0  0  0  0
    8.3381  -14.1242   18.2610 C   0  0  0  0  0  0  0  0  0  0  0  0
    9.5562  -13.8906   18.2683 O   0  0  0  0  0  0  0  0  0  0  0  0
    6.4574  -15.2429   21.9944 O   0  0  0  0  0  0  0  0  0  0  0  0
    7.4069  -14.2240   21.9439 C   0  0  0  0  0  0  0  0  0  0  0  0
    8.3198  -14.4376   20.7694 C   0  0  2  0  0  0  0  0  0  0  0  0
    7.6829  -14.3765   19.4984 N   0  0  0  0  0  0  0  0  0  0  0  0
    9.1830  -15.6372   20.9325 C   0  0  0  0  0  0  0  0  0  0  0  0
    8.9093  -16.7052   20.3261 O   0  0  0  0  0  0  0  0  0  0  0  0
   12.7196  -15.4661   23.0120 O   0  0  0  0  0  0  0  0  0  0  0  0
   12.5797  -16.5416   22.1396 C   0  0  0  0  0  0  0  0  0  0  0  0
   11.1107  -16.8652   21.9804 C   0  0  2  0  0  0  0  0  0  0  0  0
   10.3420  -15.6474   21.7646 N   0  0  0  0  0  0  0  0  0  0  0  0
   10.5915  -17.5858   23.1756 C   0  0  0  0  0  0  0  0  0  0  0  0
   11.1882  -18.7873   23.5607 O   0  0  0  0  0  0  0  0  0  0  0  0
    9.6342  -17.1571   23.8565 O   0  0  0  0  0  0  0  0  0  0  0  0
  2  3  1  0
  2  1  1  0
  3  4  1  6
  5  6  2  0
  5  3  1  0
  7  8  1  0
  9  8  1  1
  9 10  1  0
 10  5  1  0
 11 12  2  0
 11  9  1  0
 13 14  1  0
 15 16  1  0
 15 14  1  1
 16 11  1  0
 17 15  1  0
 18 17  1  0
 19 17  2  0
M  END
$$$$
