QHD.pdb
     RDKit          3D

 28 28  0  0  1  0  0  0  0  0999 V2000
    9.5052  -13.7569   16.4325 N   0  0  0  0  0  0  0  0  0  0  0  0
    8.4973  -14.6467   16.8857 C   0  0  0  0  0  0  0  0  0  0  0  0
    7.3445  -14.5064   16.4382 O   0  0  0  0  0  0  0  0  0  0  0  0
    8.8142  -15.6930   17.8478 C   0  0  0  0  0  0  0  0  0  0  0  0
   10.1925  -15.7648   18.3643 C   0  0  0  0  0  0  0  0  0  0  0  0
   10.5328  -16.8285   19.3341 C   0  0  2  0  0  0  0  0  0  0  0  0
    9.9314  -18.1021   19.1431 N   0  0  0  0  0  0  0  0  0  0  0  0
   10.4608  -16.3620   20.7580 C   0  0  0  0  0  0  0  0  0  0  0  0
   11.1085  -15.3358   21.0677 O   0  0  0  0  0  0  0  0  0  0  0  0
    9.7103  -17.0151   21.7430 N   0  0  0  0  0  0  0  0  0  0  0  0
    9.5745  -16.6244   23.1156 C   0  0  1  0  0  0  0  0  0  0  0  0
    8.1951  -16.0763   23.3694 C   0  0  0  0  0  0  0  0  0  0  0  0
    7.9385  -14.8225   22.6163 C   0  0  0  0  0  0  0  0  0  0  0  0
    8.8264  -14.1585   21.8019 C   0  0  0  0  0  0  0  0  0  0  0  0
    8.2396  -13.0751   21.3008 N   0  0  0  0  0  0  0  0  0  0  0  0
    6.9899  -13.0504   21.7921 C   0  0  0  0  0  0  0  0  0  0  0  0
    6.7988  -14.1108   22.5938 N   0  0  0  0  0  0  0  0  0  0  0  0
    9.8926  -17.7515   24.0362 C   0  0  0  0  0  0  0  0  0  0  0  0
    8.9453  -18.2321   24.6983 O   0  0  0  0  0  0  0  0  0  0  0  0
   11.1995  -18.2739   24.1753 N   0  0  0  0  0  0  0  0  0  0  0  0
   11.4985  -19.3824   25.0374 C   0  0  1  0  0  0  0  0  0  0  0  0
   12.6571  -20.2037   24.5735 C   0  0  0  0  0  0  0  0  0  0  0  0
   12.7165  -20.3869   23.1234 C   0  0  0  0  0  0  0  0  0  0  0  0
   11.7359  -20.8372   22.4931 O   0  0  0  0  0  0  0  0  0  0  0  0
   11.6898  -18.9484   26.4545 C   0  0  0  0  0  0  0  0  0  0  0  0
   11.7289  -17.5969   26.7549 O   0  0  0  0  0  0  0  0  0  0  0  0
   13.8621  -20.0634   22.4252 O   0  0  0  0  0  0  0  0  0  0  0  0
   11.8198  -19.7589   27.4082 O   0  0  0  0  0  0  0  0  0  0  0  0
  2  1  1  0
  2  3  2  0
  4  5  1  0
  4  2  1  0
  5  6  1  0
  6  8  1  0
  6  7  1  1
  8  9  2  0
 10 11  1  0
 10  8  1  0
 11 12  1  6
 13 12  1  0
 14 13  2  0
 15 14  1  0
 16 15  1  0
 16 17  2  0
 17 13  1  0
 18 11  1  0
 19 18  2  0
 20 18  1  0
 21 22  1  6
 21 20  1  0
 23 22  1  0
 24 23  2  0
 25 26  1  0
 25 21  1  0
 27 23  1  0
 28 25  2  0
M  END
$$$$
