QHD.pdb
     RDKit          3D

 28 28  0  0  1  0  0  0  0  0999 V2000
   14.3589  -13.7333   15.3224 N   0  0  0  0  0  0  0  0  0  0  0  0
   13.2158  -14.5737   15.3079 C   0  0  0  0  0  0  0  0  0  0  0  0
   12.5684  -14.6675   14.2491 O   0  0  0  0  0  0  0  0  0  0  0  0
   12.8204  -15.3030   16.5047 C   0  0  0  0  0  0  0  0  0  0  0  0
   13.6606  -15.1676   17.7078 C   0  0  0  0  0  0  0  0  0  0  0  0
   13.2285  -15.8360   18.9545 C   0  0  2  0  0  0  0  0  0  0  0  0
   12.7622  -17.1746   18.8493 N   0  0  0  0  0  0  0  0  0  0  0  0
   12.3325  -14.9753   19.7953 C   0  0  0  0  0  0  0  0  0  0  0  0
   12.8557  -14.0199   20.4133 O   0  0  0  0  0  0  0  0  0  0  0  0
   10.9544  -15.1904   19.9170 N   0  0  0  0  0  0  0  0  0  0  0  0
   10.0513  -14.4881   20.7808 C   0  0  1  0  0  0  0  0  0  0  0  0
    8.6382  -14.6177   20.2768 C   0  0  0  0  0  0  0  0  0  0  0  0
    8.5065  -14.2105   18.8549 C   0  0  0  0  0  0  0  0  0  0  0  0
    8.8696  -13.0001   18.3113 C   0  0  0  0  0  0  0  0  0  0  0  0
    8.6002  -13.0033   17.0087 N   0  0  0  0  0  0  0  0  0  0  0  0
    8.0707  -14.2048   16.7266 C   0  0  0  0  0  0  0  0  0  0  0  0
    8.0103  -14.9455   17.8453 N   0  0  0  0  0  0  0  0  0  0  0  0
   10.1735  -14.9541   22.1905 C   0  0  0  0  0  0  0  0  0  0  0  0
    9.3743  -14.4695   23.0229 O   0  0  0  0  0  0  0  0  0  0  0  0
   11.1422  -15.9011   22.5969 N   0  0  0  0  0  0  0  0  0  0  0  0
   11.1263  -16.5104   23.8968 C   0  0  1  0  0  0  0  0  0  0  0  0
    9.8477  -17.2174   24.2089 C   0  0  0  0  0  0  0  0  0  0  0  0
    9.8311  -17.8714   25.5174 C   0  0  0  0  0  0  0  0  0  0  0  0
   10.7724  -17.7153   26.3244 O   0  0  0  0  0  0  0  0  0  0  0  0
   12.2968  -17.4170   24.0999 C   0  0  0  0  0  0  0  0  0  0  0  0
   13.1875  -17.1612   25.1292 O   0  0  0  0  0  0  0  0  0  0  0  0
    8.7702  -18.6748   25.8828 O   0  0  0  0  0  0  0  0  0  0  0  0
   12.5219  -18.4192   23.3732 O   0  0  0  0  0  0  0  0  0  0  0  0
  2  1  1  0
  2  3  2  0
  4  5  1  0
  4  2  1  0
  5  6  1  0
  6  8  1  0
  6  7  1  6
  8  9  2  0
 10 11  1  0
 10  8  1  0
 11 12  1  6
 13 12  1  0
 14 13  2  0
 15 14  1  0
 16 15  1  0
 16 17  2  0
 17 13  1  0
 18 11  1  0
 19 18  2  0
 20 18  1  0
 21 22  1  6
 21 20  1  0
 23 22  1  0
 24 23  2  0
 25 26  1  0
 25 21  1  0
 27 23  1  0
 28 25  2  0
M  END
$$$$
