QHD.pdb
     RDKit          3D

 28 28  0  0  1  0  0  0  0  0999 V2000
   16.8027  -14.1415   18.6643 N   0  0  0  0  0  0  0  0  0  0  0  0
   16.0373  -13.7480   17.5362 C   0  0  0  0  0  0  0  0  0  0  0  0
   16.6176  -13.1512   16.6111 O   0  0  0  0  0  0  0  0  0  0  0  0
   14.6122  -14.0407   17.4725 C   0  0  0  0  0  0  0  0  0  0  0  0
   14.1557  -15.3650   17.9303 C   0  0  0  0  0  0  0  0  0  0  0  0
   12.7027  -15.6375   17.9787 C   0  0  2  0  0  0  0  0  0  0  0  0
   11.9559  -15.4074   16.7914 N   0  0  0  0  0  0  0  0  0  0  0  0
   12.0435  -15.0631   19.1976 C   0  0  0  0  0  0  0  0  0  0  0  0
   12.5063  -13.9956   19.6611 O   0  0  0  0  0  0  0  0  0  0  0  0
   10.9473  -15.6605   19.8313 N   0  0  0  0  0  0  0  0  0  0  0  0
   10.2992  -15.2088   21.0275 C   0  0  1  0  0  0  0  0  0  0  0  0
    8.8103  -15.1274   20.8170 C   0  0  0  0  0  0  0  0  0  0  0  0
    8.4513  -14.2947   19.6411 C   0  0  0  0  0  0  0  0  0  0  0  0
    8.1754  -12.9471   19.6438 C   0  0  0  0  0  0  0  0  0  0  0  0
    7.8947  -12.5520   18.4051 N   0  0  0  0  0  0  0  0  0  0  0  0
    7.9913  -13.6386   17.6218 C   0  0  0  0  0  0  0  0  0  0  0  0
    8.3297  -14.7036   18.3668 N   0  0  0  0  0  0  0  0  0  0  0  0
   10.6400  -16.0744   22.1911 C   0  0  0  0  0  0  0  0  0  0  0  0
   10.6144  -17.3123   22.0081 O   0  0  0  0  0  0  0  0  0  0  0  0
   10.9802  -15.5457   23.4581 N   0  0  0  0  0  0  0  0  0  0  0  0
   11.2287  -16.3802   24.5997 C   0  0  1  0  0  0  0  0  0  0  0  0
   10.2116  -17.4590   24.7831 C   0  0  0  0  0  0  0  0  0  0  0  0
   10.5210  -18.3934   25.8653 C   0  0  0  0  0  0  0  0  0  0  0  0
   11.5237  -18.2244   26.5916 O   0  0  0  0  0  0  0  0  0  0  0  0
   12.6097  -16.9511   24.5805 C   0  0  0  0  0  0  0  0  0  0  0  0
   13.4509  -16.6668   23.5177 O   0  0  0  0  0  0  0  0  0  0  0  0
    9.7060  -19.4817   26.1023 O   0  0  0  0  0  0  0  0  0  0  0  0
   13.0587  -17.6901   25.4945 O   0  0  0  0  0  0  0  0  0  0  0  0
  2  1  1  0
  2  3  2  0
  4  5  1  0
  4  2  1  0
  5  6  1  0
  6  8  1  0
  6  7  1  6
  8  9  2  0
 10 11  1  0
 10  8  1  0
 11 12  1  6
 13 12  1  0
 14 13  2  0
 15 14  1  0
 16 15  1  0
 16 17  2  0
 17 13  1  0
 18 11  1  0
 19 18  2  0
 20 18  1  0
 21 22  1  6
 21 20  1  0
 23 22  1  0
 24 23  2  0
 25 26  1  0
 25 21  1  0
 27 23  1  0
 28 25  2  0
M  END
$$$$
