QHD.pdb
     RDKit          3D

 28 28  0  0  1  0  0  0  0  0999 V2000
    7.6207  -12.8347   16.6510 N   0  0  0  0  0  0  0  0  0  0  0  0
    8.5740  -13.6659   16.0079 C   0  0  0  0  0  0  0  0  0  0  0  0
    9.0420  -13.2895   14.9179 O   0  0  0  0  0  0  0  0  0  0  0  0
    8.9875  -14.9227   16.6163 C   0  0  0  0  0  0  0  0  0  0  0  0
    8.2862  -15.3668   17.8340 C   0  0  0  0  0  0  0  0  0  0  0  0
    8.7469  -16.5996   18.5090 C   0  0  2  0  0  0  0  0  0  0  0  0
    7.8058  -17.2897   19.3204 N   0  0  0  0  0  0  0  0  0  0  0  0
   10.0776  -16.4321   19.1808 C   0  0  0  0  0  0  0  0  0  0  0  0
   11.1054  -16.6452   18.4976 O   0  0  0  0  0  0  0  0  0  0  0  0
   10.2189  -16.0524   20.5210 N   0  0  0  0  0  0  0  0  0  0  0  0
   11.4480  -15.9022   21.2432 C   0  0  1  0  0  0  0  0  0  0  0  0
   12.0008  -14.5145   21.0522 C   0  0  0  0  0  0  0  0  0  0  0  0
   12.9410  -14.4344   19.9056 C   0  0  0  0  0  0  0  0  0  0  0  0
   12.6297  -14.0831   18.6126 C   0  0  0  0  0  0  0  0  0  0  0  0
   13.7304  -14.1254   17.8670 N   0  0  0  0  0  0  0  0  0  0  0  0
   14.7327  -14.5001   18.6787 C   0  0  0  0  0  0  0  0  0  0  0  0
   14.2602  -14.6902   19.9214 N   0  0  0  0  0  0  0  0  0  0  0  0
   11.2742  -16.2272   22.6866 C   0  0  0  0  0  0  0  0  0  0  0  0
   10.1125  -16.1678   23.1489 O   0  0  0  0  0  0  0  0  0  0  0  0
   12.3578  -16.5890   23.5204 N   0  0  0  0  0  0  0  0  0  0  0  0
   12.2922  -17.6958   24.4325 C   0  0  1  0  0  0  0  0  0  0  0  0
   11.8375  -18.9682   23.7953 C   0  0  0  0  0  0  0  0  0  0  0  0
   10.9390  -19.7660   24.6297 C   0  0  0  0  0  0  0  0  0  0  0  0
   11.2418  -20.0505   25.8082 O   0  0  0  0  0  0  0  0  0  0  0  0
   13.5844  -17.8971   25.1557 C   0  0  0  0  0  0  0  0  0  0  0  0
   13.6224  -17.7671   26.5341 O   0  0  0  0  0  0  0  0  0  0  0  0
    9.7368  -20.2191   24.1258 O   0  0  0  0  0  0  0  0  0  0  0  0
   14.6604  -18.1837   24.5699 O   0  0  0  0  0  0  0  0  0  0  0  0
  2  1  1  0
  2  3  2  0
  4  5  1  0
  4  2  1  0
  5  6  1  0
  6  8  1  0
  6  7  1  1
  8  9  2  0
 10 11  1  0
 10  8  1  0
 11 12  1  1
 13 12  1  0
 14 13  2  0
 15 14  1  0
 16 15  1  0
 16 17  2  0
 17 13  1  0
 18 11  1  0
 19 18  2  0
 20 18  1  0
 21 22  1  6
 21 20  1  0
 23 22  1  0
 24 23  2  0
 25 26  1  0
 25 21  1  0
 27 23  1  0
 28 25  2  0
M  END
$$$$
