QHD.pdb
     RDKit          3D

 28 28  0  0  1  0  0  0  0  0999 V2000
    8.5388  -13.1509   20.4752 N   0  0  0  0  0  0  0  0  0  0  0  0
    7.6759  -13.1186   19.3493 C   0  0  0  0  0  0  0  0  0  0  0  0
    6.8064  -12.2296   19.3002 O   0  0  0  0  0  0  0  0  0  0  0  0
    7.8136  -14.1033   18.2853 C   0  0  0  0  0  0  0  0  0  0  0  0
    8.8836  -15.1094   18.4064 C   0  0  0  0  0  0  0  0  0  0  0  0
    9.7603  -15.3572   17.2412 C   0  0  2  0  0  0  0  0  0  0  0  0
    9.2927  -16.2677   16.2549 N   0  0  0  0  0  0  0  0  0  0  0  0
   11.1873  -15.6076   17.6301 C   0  0  0  0  0  0  0  0  0  0  0  0
   11.5712  -16.7976   17.7004 O   0  0  0  0  0  0  0  0  0  0  0  0
   12.0972  -14.5820   17.9136 N   0  0  0  0  0  0  0  0  0  0  0  0
   13.4186  -14.7334   18.4483 C   0  0  1  0  0  0  0  0  0  0  0  0
   14.2907  -13.5823   18.0216 C   0  0  0  0  0  0  0  0  0  0  0  0
   15.7148  -13.7864   18.3894 C   0  0  0  0  0  0  0  0  0  0  0  0
   16.3239  -14.9859   18.6764 C   0  0  0  0  0  0  0  0  0  0  0  0
   17.6053  -14.7723   18.9623 N   0  0  0  0  0  0  0  0  0  0  0  0
   17.8091  -13.4489   18.8579 C   0  0  0  0  0  0  0  0  0  0  0  0
   16.6630  -12.8417   18.5095 N   0  0  0  0  0  0  0  0  0  0  0  0
   13.3924  -14.8789   19.9307 C   0  0  0  0  0  0  0  0  0  0  0  0
   12.5851  -14.1589   20.5604 O   0  0  0  0  0  0  0  0  0  0  0  0
   14.2331  -15.7829   20.6209 N   0  0  0  0  0  0  0  0  0  0  0  0
   14.1867  -15.9428   22.0469 C   0  0  1  0  0  0  0  0  0  0  0  0
   13.1933  -16.9621   22.5011 C   0  0  0  0  0  0  0  0  0  0  0  0
   13.1838  -17.1834   23.9472 C   0  0  0  0  0  0  0  0  0  0  0  0
   13.9892  -16.5859   24.6928 O   0  0  0  0  0  0  0  0  0  0  0  0
   15.5378  -16.2277   22.6183 C   0  0  0  0  0  0  0  0  0  0  0  0
   15.8651  -15.7398   23.8726 O   0  0  0  0  0  0  0  0  0  0  0  0
   12.2805  -18.0599   24.5133 O   0  0  0  0  0  0  0  0  0  0  0  0
   16.4113  -16.8994   22.0108 O   0  0  0  0  0  0  0  0  0  0  0  0
  2  1  1  0
  2  3  2  0
  4  5  1  0
  4  2  1  0
  5  6  1  0
  6  8  1  0
  6  7  1  1
  8  9  2  0
 10 11  1  0
 10  8  1  0
 11 12  1  1
 13 12  1  0
 14 13  2  0
 15 14  1  0
 16 15  1  0
 16 17  2  0
 17 13  1  0
 18 11  1  0
 19 18  2  0
 20 18  1  0
 21 22  1  6
 21 20  1  0
 23 22  1  0
 24 23  2  0
 25 26  1  0
 25 21  1  0
 27 23  1  0
 28 25  2  0
M  END
$$$$
