QHD.pdb
     RDKit          3D

 28 28  0  0  1  0  0  0  0  0999 V2000
   16.4691  -21.0221   15.8452 N   0  0  0  0  0  0  0  0  0  0  0  0
   15.9655  -20.6255   14.5794 C   0  0  0  0  0  0  0  0  0  0  0  0
   16.3778  -21.2237   13.5689 O   0  0  0  0  0  0  0  0  0  0  0  0
   14.9919  -19.5474   14.4770 C   0  0  0  0  0  0  0  0  0  0  0  0
   14.5789  -18.8667   15.7171 C   0  0  0  0  0  0  0  0  0  0  0  0
   13.1353  -18.6699   15.9720 C   0  0  2  0  0  0  0  0  0  0  0  0
   12.4107  -17.8766   15.0413 N   0  0  0  0  0  0  0  0  0  0  0  0
   12.8409  -18.3045   17.3968 C   0  0  0  0  0  0  0  0  0  0  0  0
   13.1701  -17.1599   17.7841 O   0  0  0  0  0  0  0  0  0  0  0  0
   12.2215  -19.1760   18.3007 N   0  0  0  0  0  0  0  0  0  0  0  0
   11.9891  -18.9396   19.6953 C   0  0  1  0  0  0  0  0  0  0  0  0
   10.9816  -19.9221   20.2316 C   0  0  0  0  0  0  0  0  0  0  0  0
   10.6765  -19.6911   21.6664 C   0  0  0  0  0  0  0  0  0  0  0  0
   10.2664  -18.5089   22.2378 C   0  0  0  0  0  0  0  0  0  0  0  0
   10.0928  -18.6876   23.5444 N   0  0  0  0  0  0  0  0  0  0  0  0
   10.3897  -19.9719   23.8015 C   0  0  0  0  0  0  0  0  0  0  0  0
   10.7460  -20.5895   22.6634 N   0  0  0  0  0  0  0  0  0  0  0  0
   13.2590  -18.9798   20.4731 C   0  0  0  0  0  0  0  0  0  0  0  0
   14.1990  -19.6547   19.9962 O   0  0  0  0  0  0  0  0  0  0  0  0
   13.4212  -18.2949   21.6999 N   0  0  0  0  0  0  0  0  0  0  0  0
   14.6972  -18.1596   22.3439 C   0  0  1  0  0  0  0  0  0  0  0  0
   15.6460  -17.2707   21.6079 C   0  0  0  0  0  0  0  0  0  0  0  0
   16.9450  -17.1123   22.2619 C   0  0  0  0  0  0  0  0  0  0  0  0
   17.5245  -18.0896   22.7823 O   0  0  0  0  0  0  0  0  0  0  0  0
   14.5580  -17.7241   23.7667 C   0  0  0  0  0  0  0  0  0  0  0  0
   13.3368  -17.2534   24.2199 O   0  0  0  0  0  0  0  0  0  0  0  0
   17.5539  -15.8750   22.3145 O   0  0  0  0  0  0  0  0  0  0  0  0
   15.5076  -17.7624   24.5914 O   0  0  0  0  0  0  0  0  0  0  0  0
  2  1  1  0
  2  3  2  0
  4  5  1  0
  4  2  1  0
  5  6  1  0
  6  8  1  0
  6  7  1  6
  8  9  2  0
 10 11  1  0
 10  8  1  0
 11 12  1  1
 13 12  1  0
 14 13  2  0
 15 14  1  0
 16 15  1  0
 16 17  2  0
 17 13  1  0
 18 11  1  0
 19 18  2  0
 20 18  1  0
 21 22  1  6
 21 20  1  0
 23 22  1  0
 24 23  2  0
 25 26  1  0
 25 21  1  0
 27 23  1  0
 28 25  2  0
M  END
$$$$
