QHD.pdb
     RDKit          3D

 28 28  0  0  1  0  0  0  0  0999 V2000
    9.0911  -14.8595   13.3605 N   0  0  0  0  0  0  0  0  0  0  0  0
    8.2456  -15.2699   14.4235 C   0  0  0  0  0  0  0  0  0  0  0  0
    7.0736  -14.8516   14.4377 O   0  0  0  0  0  0  0  0  0  0  0  0
    8.7457  -16.1577   15.4640 C   0  0  0  0  0  0  0  0  0  0  0  0
   10.1221  -16.6687   15.3362 C   0  0  0  0  0  0  0  0  0  0  0  0
   10.6692  -17.5136   16.4199 C   0  0  2  0  0  0  0  0  0  0  0  0
   10.0953  -18.8021   16.5954 N   0  0  0  0  0  0  0  0  0  0  0  0
   10.8287  -16.7699   17.7129 C   0  0  0  0  0  0  0  0  0  0  0  0
   11.8429  -16.0476   17.8476 O   0  0  0  0  0  0  0  0  0  0  0  0
    9.9047  -16.8468   18.7620 N   0  0  0  0  0  0  0  0  0  0  0  0
   10.0114  -16.2158   20.0447 C   0  0  1  0  0  0  0  0  0  0  0  0
    8.6966  -15.5919   20.4317 C   0  0  0  0  0  0  0  0  0  0  0  0
    8.2983  -14.4975   19.5104 C   0  0  0  0  0  0  0  0  0  0  0  0
    8.6993  -13.1833   19.5762 C   0  0  0  0  0  0  0  0  0  0  0  0
    8.1359  -12.5002   18.5836 N   0  0  0  0  0  0  0  0  0  0  0  0
    7.3835  -13.3722   17.8928 C   0  0  0  0  0  0  0  0  0  0  0  0
    7.4771  -14.5903   18.4508 N   0  0  0  0  0  0  0  0  0  0  0  0
   10.4895  -17.1711   21.0830 C   0  0  0  0  0  0  0  0  0  0  0  0
   10.2999  -18.3894   20.8679 O   0  0  0  0  0  0  0  0  0  0  0  0
   11.1316  -16.7459   22.2693 N   0  0  0  0  0  0  0  0  0  0  0  0
   12.1688  -17.5118   22.9011 C   0  0  1  0  0  0  0  0  0  0  0  0
   13.2835  -17.8824   21.9780 C   0  0  0  0  0  0  0  0  0  0  0  0
   14.3465  -18.6643   22.6095 C   0  0  0  0  0  0  0  0  0  0  0  0
   14.0897  -19.4716   23.5282 O   0  0  0  0  0  0  0  0  0  0  0  0
   12.6959  -16.8316   24.1229 C   0  0  0  0  0  0  0  0  0  0  0  0
   12.4236  -17.3648   25.3718 O   0  0  0  0  0  0  0  0  0  0  0  0
   15.6562  -18.5219   22.1983 O   0  0  0  0  0  0  0  0  0  0  0  0
   13.3868  -15.7809   24.0784 O   0  0  0  0  0  0  0  0  0  0  0  0
  2  1  1  0
  2  3  2  0
  4  5  1  0
  4  2  1  0
  5  6  1  0
  6  8  1  0
  6  7  1  1
  8  9  2  0
 10 11  1  0
 10  8  1  0
 11 12  1  1
 13 12  1  0
 14 13  2  0
 15 14  1  0
 16 15  1  0
 16 17  2  0
 17 13  1  0
 18 11  1  0
 19 18  2  0
 20 18  1  0
 21 22  1  6
 21 20  1  0
 23 22  1  0
 24 23  2  0
 25 26  1  0
 25 21  1  0
 27 23  1  0
 28 25  2  0
M  END
$$$$
