QHD.pdb
     RDKit          3D

 28 28  0  0  1  0  0  0  0  0999 V2000
    8.7959  -21.0606   13.6088 N   0  0  0  0  0  0  0  0  0  0  0  0
    8.1081  -19.8208   13.6625 C   0  0  0  0  0  0  0  0  0  0  0  0
    7.6132  -19.3769   12.6104 O   0  0  0  0  0  0  0  0  0  0  0  0
    7.9894  -19.0962   14.9201 C   0  0  0  0  0  0  0  0  0  0  0  0
    8.6401  -19.6671   16.1127 C   0  0  0  0  0  0  0  0  0  0  0  0
    7.9948  -19.4822   17.4307 C   0  0  2  0  0  0  0  0  0  0  0  0
    6.5759  -19.5514   17.4778 N   0  0  0  0  0  0  0  0  0  0  0  0
    8.5425  -18.3080   18.1868 C   0  0  0  0  0  0  0  0  0  0  0  0
    9.7485  -18.0168   18.0157 O   0  0  0  0  0  0  0  0  0  0  0  0
    7.7738  -17.5330   19.0636 N   0  0  0  0  0  0  0  0  0  0  0  0
    8.2120  -16.3824   19.7977 C   0  0  1  0  0  0  0  0  0  0  0  0
    7.0308  -15.5453   20.2122 C   0  0  0  0  0  0  0  0  0  0  0  0
    7.4399  -14.2763   20.8657 C   0  0  0  0  0  0  0  0  0  0  0  0
    7.1239  -13.8719   22.1420 C   0  0  0  0  0  0  0  0  0  0  0  0
    7.6664  -12.6798   22.3739 N   0  0  0  0  0  0  0  0  0  0  0  0
    8.3214  -12.3292   21.2551 C   0  0  0  0  0  0  0  0  0  0  0  0
    8.1883  -13.2959   20.3323 N   0  0  0  0  0  0  0  0  0  0  0  0
    9.0454  -16.7698   20.9701 C   0  0  0  0  0  0  0  0  0  0  0  0
    8.7238  -17.8156   21.5780 O   0  0  0  0  0  0  0  0  0  0  0  0
   10.1562  -16.0065   21.3989 N   0  0  0  0  0  0  0  0  0  0  0  0
   10.9834  -16.4029   22.5034 C   0  0  1  0  0  0  0  0  0  0  0  0
   12.3966  -15.9318   22.3898 C   0  0  0  0  0  0  0  0  0  0  0  0
   13.2485  -16.3233   23.5128 C   0  0  0  0  0  0  0  0  0  0  0  0
   13.0319  -17.3796   24.1444 O   0  0  0  0  0  0  0  0  0  0  0  0
   10.3925  -15.9958   23.8142 C   0  0  0  0  0  0  0  0  0  0  0  0
    9.2250  -15.2509   23.8346 O   0  0  0  0  0  0  0  0  0  0  0  0
   14.3101  -15.5282   23.8941 O   0  0  0  0  0  0  0  0  0  0  0  0
   10.9072  -16.2985   24.9218 O   0  0  0  0  0  0  0  0  0  0  0  0
  2  1  1  0
  2  3  2  0
  4  5  1  0
  4  2  1  0
  5  6  1  0
  6  8  1  0
  6  7  1  6
  8  9  2  0
 10 11  1  0
 10  8  1  0
 11 12  1  1
 13 12  1  0
 14 13  2  0
 15 14  1  0
 16 15  1  0
 16 17  2  0
 17 13  1  0
 18 11  1  0
 19 18  2  0
 20 18  1  0
 21 22  1  6
 21 20  1  0
 23 22  1  0
 24 23  2  0
 25 26  1  0
 25 21  1  0
 27 23  1  0
 28 25  2  0
M  END
$$$$
