QHD.pdb
     RDKit          3D

 28 28  0  0  1  0  0  0  0  0999 V2000
   17.0474  -18.3906   17.5144 N   0  0  0  0  0  0  0  0  0  0  0  0
   17.4974  -17.2914   16.7382 C   0  0  0  0  0  0  0  0  0  0  0  0
   18.6824  -17.2861   16.3580 O   0  0  0  0  0  0  0  0  0  0  0  0
   16.5885  -16.2050   16.4002 C   0  0  0  0  0  0  0  0  0  0  0  0
   15.1451  -16.4984   16.3530 C   0  0  0  0  0  0  0  0  0  0  0  0
   14.2176  -15.4318   15.9176 C   0  0  2  0  0  0  0  0  0  0  0  0
   14.7406  -14.4189   15.0685 N   0  0  0  0  0  0  0  0  0  0  0  0
   13.3996  -14.8762   17.0456 C   0  0  0  0  0  0  0  0  0  0  0  0
   14.0061  -14.2848   17.9681 O   0  0  0  0  0  0  0  0  0  0  0  0
   12.0056  -14.9880   17.1110 N   0  0  0  0  0  0  0  0  0  0  0  0
   11.1627  -14.5667   18.1913 C   0  0  1  0  0  0  0  0  0  0  0  0
    9.7258  -14.5141   17.7437 C   0  0  0  0  0  0  0  0  0  0  0  0
    8.8180  -14.0326   18.8156 C   0  0  0  0  0  0  0  0  0  0  0  0
    9.1717  -13.7036   20.1036 C   0  0  0  0  0  0  0  0  0  0  0  0
    8.0895  -13.3153   20.7725 N   0  0  0  0  0  0  0  0  0  0  0  0
    7.0570  -13.3968   19.9175 C   0  0  0  0  0  0  0  0  0  0  0  0
    7.4923  -13.8327   18.7241 N   0  0  0  0  0  0  0  0  0  0  0  0
   11.3312  -15.4407   19.3858 C   0  0  0  0  0  0  0  0  0  0  0  0
   11.1867  -16.6724   19.2164 O   0  0  0  0  0  0  0  0  0  0  0  0
   11.6403  -14.9265   20.6666 N   0  0  0  0  0  0  0  0  0  0  0  0
   11.9450  -15.7745   21.7844 C   0  0  1  0  0  0  0  0  0  0  0  0
   13.0411  -15.2474   22.6520 C   0  0  0  0  0  0  0  0  0  0  0  0
   14.3755  -15.3614   22.0635 C   0  0  0  0  0  0  0  0  0  0  0  0
   15.3050  -14.6118   22.4318 O   0  0  0  0  0  0  0  0  0  0  0  0
   10.7284  -16.0830   22.5955 C   0  0  0  0  0  0  0  0  0  0  0  0
   10.8082  -17.0129   23.6188 O   0  0  0  0  0  0  0  0  0  0  0  0
   14.6299  -16.3034   21.0876 O   0  0  0  0  0  0  0  0  0  0  0  0
    9.6141  -15.5337   22.3961 O   0  0  0  0  0  0  0  0  0  0  0  0
  2  1  1  0
  2  3  2  0
  4  5  1  0
  4  2  1  0
  5  6  1  0
  6  8  1  0
  6  7  1  1
  8  9  2  0
 10 11  1  0
 10  8  1  0
 11 12  1  6
 13 12  1  0
 14 13  2  0
 15 14  1  0
 16 15  1  0
 16 17  2  0
 17 13  1  0
 18 11  1  0
 19 18  2  0
 20 18  1  0
 21 22  1  1
 21 20  1  0
 23 22  1  0
 24 23  2  0
 25 26  1  0
 25 21  1  0
 27 23  1  0
 28 25  2  0
M  END
$$$$
