QHD.pdb
     RDKit          3D

 28 28  0  0  1  0  0  0  0  0999 V2000
   16.0309  -13.2235   17.0978 N   0  0  0  0  0  0  0  0  0  0  0  0
   15.0869  -13.9877   16.3644 C   0  0  0  0  0  0  0  0  0  0  0  0
   15.0981  -13.9016   15.1229 O   0  0  0  0  0  0  0  0  0  0  0  0
   14.1361  -14.8474   17.0556 C   0  0  0  0  0  0  0  0  0  0  0  0
   14.2516  -14.9717   18.5194 C   0  0  0  0  0  0  0  0  0  0  0  0
   13.2390  -15.7680   19.2464 C   0  0  2  0  0  0  0  0  0  0  0  0
   12.5450  -16.7677   18.5121 N   0  0  0  0  0  0  0  0  0  0  0  0
   12.3233  -14.9220   20.0808 C   0  0  0  0  0  0  0  0  0  0  0  0
   12.8324  -13.9811   20.7320 O   0  0  0  0  0  0  0  0  0  0  0  0
   10.9420  -15.1354   20.1617 N   0  0  0  0  0  0  0  0  0  0  0  0
   10.0383  -14.5446   21.1047 C   0  0  1  0  0  0  0  0  0  0  0  0
    8.6682  -14.4003   20.4965 C   0  0  0  0  0  0  0  0  0  0  0  0
    8.7244  -14.0027   19.0669 C   0  0  0  0  0  0  0  0  0  0  0  0
    9.8557  -13.7124   18.3401 C   0  0  0  0  0  0  0  0  0  0  0  0
    9.5108  -13.3963   17.0949 N   0  0  0  0  0  0  0  0  0  0  0  0
    8.1722  -13.4849   17.0306 C   0  0  0  0  0  0  0  0  0  0  0  0
    7.6861  -13.8534   18.2270 N   0  0  0  0  0  0  0  0  0  0  0  0
    9.9930  -15.3213   22.3751 C   0  0  0  0  0  0  0  0  0  0  0  0
    8.9033  -15.3457   22.9904 O   0  0  0  0  0  0  0  0  0  0  0  0
   11.1181  -16.0095   22.8860 N   0  0  0  0  0  0  0  0  0  0  0  0
   11.0164  -16.9728   23.9457 C   0  0  1  0  0  0  0  0  0  0  0  0
    9.9918  -18.0306   23.6944 C   0  0  0  0  0  0  0  0  0  0  0  0
    9.4717  -18.6586   24.9090 C   0  0  0  0  0  0  0  0  0  0  0  0
    9.8022  -18.2404   26.0393 O   0  0  0  0  0  0  0  0  0  0  0  0
   12.3410  -17.5839   24.2701 C   0  0  0  0  0  0  0  0  0  0  0  0
   12.6270  -17.9385   25.5781 O   0  0  0  0  0  0  0  0  0  0  0  0
    8.6036  -19.7281   24.8251 O   0  0  0  0  0  0  0  0  0  0  0  0
   13.2278  -17.7981   23.4036 O   0  0  0  0  0  0  0  0  0  0  0  0
  2  1  1  0
  2  3  2  0
  4  5  1  0
  4  2  1  0
  5  6  1  0
  6  8  1  0
  6  7  1  6
  8  9  2  0
 10 11  1  0
 10  8  1  0
 11 12  1  6
 13 12  1  0
 14 13  2  0
 15 14  1  0
 16 15  1  0
 16 17  2  0
 17 13  1  0
 18 11  1  0
 19 18  2  0
 20 18  1  0
 21 22  1  6
 21 20  1  0
 23 22  1  0
 24 23  2  0
 25 26  1  0
 25 21  1  0
 27 23  1  0
 28 25  2  0
M  END
$$$$
