QHD.pdb
     RDKit          3D

 28 28  0  0  1  0  0  0  0  0999 V2000
   12.0457  -17.0757   12.0078 N   0  0  0  0  0  0  0  0  0  0  0  0
   10.9633  -17.6063   12.7561 C   0  0  0  0  0  0  0  0  0  0  0  0
   10.7153  -18.8213   12.6508 O   0  0  0  0  0  0  0  0  0  0  0  0
   10.1712  -16.7437   13.6218 C   0  0  0  0  0  0  0  0  0  0  0  0
   10.6779  -16.4700   14.9783 C   0  0  0  0  0  0  0  0  0  0  0  0
   10.4103  -17.4553   16.0484 C   0  0  2  0  0  0  0  0  0  0  0  0
    9.1912  -18.1825   15.9757 N   0  0  0  0  0  0  0  0  0  0  0  0
   10.6789  -16.9113   17.4204 C   0  0  0  0  0  0  0  0  0  0  0  0
   11.7442  -16.2768   17.5966 O   0  0  0  0  0  0  0  0  0  0  0  0
    9.8015  -17.0792   18.4984 N   0  0  0  0  0  0  0  0  0  0  0  0
   10.0089  -16.6408   19.8473 C   0  0  1  0  0  0  0  0  0  0  0  0
    8.7293  -16.0929   20.4219 C   0  0  0  0  0  0  0  0  0  0  0  0
    8.2649  -14.8769   19.7072 C   0  0  0  0  0  0  0  0  0  0  0  0
    8.9312  -14.2093   18.7058 C   0  0  0  0  0  0  0  0  0  0  0  0
    8.2049  -13.1670   18.3118 N   0  0  0  0  0  0  0  0  0  0  0  0
    7.0868  -13.1717   19.0560 C   0  0  0  0  0  0  0  0  0  0  0  0
    7.1159  -14.2096   19.9078 N   0  0  0  0  0  0  0  0  0  0  0  0
   10.5649  -17.7326   20.6948 C   0  0  0  0  0  0  0  0  0  0  0  0
   10.7105  -18.8538   20.1579 O   0  0  0  0  0  0  0  0  0  0  0  0
   10.9200  -17.5373   22.0499 N   0  0  0  0  0  0  0  0  0  0  0  0
   12.1110  -18.0980   22.6228 C   0  0  1  0  0  0  0  0  0  0  0  0
   13.3563  -17.7420   21.8782 C   0  0  0  0  0  0  0  0  0  0  0  0
   14.1953  -18.8900   21.5346 C   0  0  0  0  0  0  0  0  0  0  0  0
   13.6915  -20.0164   21.3369 O   0  0  0  0  0  0  0  0  0  0  0  0
   12.2439  -17.7576   24.0719 C   0  0  0  0  0  0  0  0  0  0  0  0
   12.8157  -18.6743   24.9385 O   0  0  0  0  0  0  0  0  0  0  0  0
   15.5633  -18.7463   21.4225 O   0  0  0  0  0  0  0  0  0  0  0  0
   11.8575  -16.6629   24.5572 O   0  0  0  0  0  0  0  0  0  0  0  0
  2  1  1  0
  2  3  2  0
  4  5  1  0
  4  2  1  0
  5  6  1  0
  6  8  1  0
  6  7  1  1
  8  9  2  0
 10 11  1  0
 10  8  1  0
 11 12  1  1
 13 12  1  0
 14 13  2  0
 15 14  1  0
 16 15  1  0
 16 17  2  0
 17 13  1  0
 18 11  1  0
 19 18  2  0
 20 18  1  0
 21 22  1  6
 21 20  1  0
 23 22  1  0
 24 23  2  0
 25 26  1  0
 25 21  1  0
 27 23  1  0
 28 25  2  0
M  END
$$$$
