QHD.pdb
     RDKit          3D

 28 28  0  0  1  0  0  0  0  0999 V2000
   11.7170  -18.0400   13.8227 N   0  0  0  0  0  0  0  0  0  0  0  0
   12.2959  -16.7447   13.8151 C   0  0  0  0  0  0  0  0  0  0  0  0
   13.0038  -16.4227   12.8434 O   0  0  0  0  0  0  0  0  0  0  0  0
   12.0607  -15.8244   14.9189 C   0  0  0  0  0  0  0  0  0  0  0  0
   11.2102  -16.2810   16.0325 C   0  0  0  0  0  0  0  0  0  0  0  0
   11.8309  -17.0578   17.1275 C   0  0  2  0  0  0  0  0  0  0  0  0
   11.6331  -18.4654   17.1223 N   0  0  0  0  0  0  0  0  0  0  0  0
   11.6007  -16.4459   18.4776 C   0  0  0  0  0  0  0  0  0  0  0  0
   12.4948  -15.6999   18.9386 O   0  0  0  0  0  0  0  0  0  0  0  0
   10.4444  -16.6691   19.2348 N   0  0  0  0  0  0  0  0  0  0  0  0
   10.1485  -16.1233   20.5269 C   0  0  1  0  0  0  0  0  0  0  0  0
    8.7426  -15.5844   20.5577 C   0  0  0  0  0  0  0  0  0  0  0  0
    8.6279  -14.2677   19.8808 C   0  0  0  0  0  0  0  0  0  0  0  0
    9.6489  -13.5531   19.2983 C   0  0  0  0  0  0  0  0  0  0  0  0
    9.1637  -12.4216   18.7948 N   0  0  0  0  0  0  0  0  0  0  0  0
    7.8460  -12.4168   19.0547 C   0  0  0  0  0  0  0  0  0  0  0  0
    7.5121  -13.5373   19.7156 N   0  0  0  0  0  0  0  0  0  0  0  0
   10.3731  -17.1259   21.6055 C   0  0  0  0  0  0  0  0  0  0  0  0
   10.2286  -18.3317   21.3027 O   0  0  0  0  0  0  0  0  0  0  0  0
   10.7337  -16.7577   22.9226 N   0  0  0  0  0  0  0  0  0  0  0  0
   11.6274  -17.5442   23.7252 C   0  0  1  0  0  0  0  0  0  0  0  0
   12.9410  -17.8134   23.0664 C   0  0  0  0  0  0  0  0  0  0  0  0
   13.8784  -18.5742   23.8925 C   0  0  0  0  0  0  0  0  0  0  0  0
   13.5507  -19.6738   24.3875 O   0  0  0  0  0  0  0  0  0  0  0  0
   11.8265  -16.9484   25.0812 C   0  0  0  0  0  0  0  0  0  0  0  0
   11.5955  -17.7216   26.2069 O   0  0  0  0  0  0  0  0  0  0  0  0
   15.1458  -18.0870   24.1391 O   0  0  0  0  0  0  0  0  0  0  0  0
   12.1997  -15.7601   25.2598 O   0  0  0  0  0  0  0  0  0  0  0  0
  2  1  1  0
  2  3  2  0
  4  5  1  0
  4  2  1  0
  5  6  1  0
  6  8  1  0
  6  7  1  1
  8  9  2  0
 10 11  1  0
 10  8  1  0
 11 12  1  6
 13 12  1  0
 14 13  2  0
 15 14  1  0
 16 15  1  0
 16 17  2  0
 17 13  1  0
 18 11  1  0
 19 18  2  0
 20 18  1  0
 21 22  1  6
 21 20  1  0
 23 22  1  0
 24 23  2  0
 25 26  1  0
 25 21  1  0
 27 23  1  0
 28 25  2  0
M  END
$$$$
