QHD.pdb
     RDKit          3D

 28 28  0  0  1  0  0  0  0  0999 V2000
   10.4208  -19.5091   22.0274 N   0  0  0  0  0  0  0  0  0  0  0  0
   10.3242  -19.8341   20.6496 C   0  0  0  0  0  0  0  0  0  0  0  0
    9.3857  -20.5642   20.2821 O   0  0  0  0  0  0  0  0  0  0  0  0
   11.3015  -19.3210   19.6997 C   0  0  0  0  0  0  0  0  0  0  0  0
   10.8022  -18.6683   18.4764 C   0  0  0  0  0  0  0  0  0  0  0  0
   11.2029  -17.2710   18.2031 C   0  0  2  0  0  0  0  0  0  0  0  0
   12.3209  -17.0681   17.3491 N   0  0  0  0  0  0  0  0  0  0  0  0
   11.2618  -16.4296   19.4437 C   0  0  0  0  0  0  0  0  0  0  0  0
   12.3080  -15.7737   19.6529 O   0  0  0  0  0  0  0  0  0  0  0  0
   10.2115  -16.3464   20.3656 N   0  0  0  0  0  0  0  0  0  0  0  0
   10.1450  -15.4891   21.5126 C   0  0  1  0  0  0  0  0  0  0  0  0
    8.7188  -15.0900   21.7854 C   0  0  0  0  0  0  0  0  0  0  0  0
    8.1323  -14.2974   20.6752 C   0  0  0  0  0  0  0  0  0  0  0  0
    6.9372  -14.5378   20.0378 C   0  0  0  0  0  0  0  0  0  0  0  0
    6.7470  -13.6182   19.0958 N   0  0  0  0  0  0  0  0  0  0  0  0
    7.8116  -12.8003   19.1339 C   0  0  0  0  0  0  0  0  0  0  0  0
    8.6595  -13.2071   20.0927 N   0  0  0  0  0  0  0  0  0  0  0  0
   10.7719  -16.1255   22.7047 C   0  0  0  0  0  0  0  0  0  0  0  0
   10.0132  -16.7370   23.4902 O   0  0  0  0  0  0  0  0  0  0  0  0
   12.1611  -16.0560   22.9614 N   0  0  0  0  0  0  0  0  0  0  0  0
   12.8173  -16.9298   23.8926 C   0  0  1  0  0  0  0  0  0  0  0  0
   12.5808  -18.3794   23.6193 C   0  0  0  0  0  0  0  0  0  0  0  0
   13.2937  -19.2816   24.5237 C   0  0  0  0  0  0  0  0  0  0  0  0
   13.4673  -18.9809   25.7242 O   0  0  0  0  0  0  0  0  0  0  0  0
   14.2801  -16.6403   23.9900 C   0  0  0  0  0  0  0  0  0  0  0  0
   14.8332  -15.6466   23.1996 O   0  0  0  0  0  0  0  0  0  0  0  0
   13.7880  -20.4848   24.0630 O   0  0  0  0  0  0  0  0  0  0  0  0
   15.0518  -17.2617   24.7657 O   0  0  0  0  0  0  0  0  0  0  0  0
  2  1  1  0
  2  3  2  0
  4  5  1  0
  4  2  1  0
  5  6  1  0
  6  8  1  0
  6  7  1  1
  8  9  2  0
 10 11  1  0
 10  8  1  0
 11 12  1  1
 13 12  1  0
 14 13  2  0
 15 14  1  0
 16 15  1  0
 16 17  2  0
 17 13  1  0
 18 11  1  0
 19 18  2  0
 20 18  1  0
 21 22  1  6
 21 20  1  0
 23 22  1  0
 24 23  2  0
 25 26  1  0
 25 21  1  0
 27 23  1  0
 28 25  2  0
M  END
$$$$
