QHD.pdb
     RDKit          3D

 28 28  0  0  1  0  0  0  0  0999 V2000
    8.4458  -12.2763   17.4293 N   0  0  0  0  0  0  0  0  0  0  0  0
    7.9910  -13.4378   16.7531 C   0  0  0  0  0  0  0  0  0  0  0  0
    7.0731  -13.3128   15.9220 O   0  0  0  0  0  0  0  0  0  0  0  0
    8.5898  -14.7359   17.0310 C   0  0  0  0  0  0  0  0  0  0  0  0
    9.6873  -14.7968   18.0126 C   0  0  0  0  0  0  0  0  0  0  0  0
    9.5527  -15.7045   19.1726 C   0  0  2  0  0  0  0  0  0  0  0  0
    8.6727  -16.8123   19.0355 N   0  0  0  0  0  0  0  0  0  0  0  0
    9.3615  -14.9700   20.4666 C   0  0  0  0  0  0  0  0  0  0  0  0
    9.9649  -13.8824   20.6131 O   0  0  0  0  0  0  0  0  0  0  0  0
    8.5479  -15.4412   21.5041 N   0  0  0  0  0  0  0  0  0  0  0  0
    8.4439  -14.8956   22.8256 C   0  0  1  0  0  0  0  0  0  0  0  0
    7.0324  -14.4463   23.0964 C   0  0  0  0  0  0  0  0  0  0  0  0
    6.8862  -13.8209   24.4352 C   0  0  0  0  0  0  0  0  0  0  0  0
    6.1690  -14.3178   25.4988 C   0  0  0  0  0  0  0  0  0  0  0  0
    6.2702  -13.4814   26.5280 N   0  0  0  0  0  0  0  0  0  0  0  0
    7.0448  -12.4618   26.1226 C   0  0  0  0  0  0  0  0  0  0  0  0
    7.4238  -12.6612   24.8497 N   0  0  0  0  0  0  0  0  0  0  0  0
    8.9153  -15.8656   23.8533 C   0  0  0  0  0  0  0  0  0  0  0  0
    8.5796  -17.0622   23.7049 O   0  0  0  0  0  0  0  0  0  0  0  0
    9.7078  -15.4771   24.9585 N   0  0  0  0  0  0  0  0  0  0  0  0
   10.1847  -16.4173   25.9331 C   0  0  1  0  0  0  0  0  0  0  0  0
    9.1150  -17.3069   26.4775 C   0  0  0  0  0  0  0  0  0  0  0  0
    9.4770  -17.9822   27.7237 C   0  0  0  0  0  0  0  0  0  0  0  0
   10.6059  -17.8223   28.2354 O   0  0  0  0  0  0  0  0  0  0  0  0
   11.3310  -17.2230   25.4134 C   0  0  0  0  0  0  0  0  0  0  0  0
   11.9527  -18.1402   26.2443 O   0  0  0  0  0  0  0  0  0  0  0  0
    8.5729  -18.8104   28.3571 O   0  0  0  0  0  0  0  0  0  0  0  0
   11.7708  -17.1118   24.2397 O   0  0  0  0  0  0  0  0  0  0  0  0
  2  1  1  0
  2  3  2  0
  4  5  1  0
  4  2  1  0
  5  6  1  0
  6  8  1  0
  6  7  1  6
  8  9  2  0
 10 11  1  0
 10  8  1  0
 11 12  1  1
 13 12  1  0
 14 13  2  0
 15 14  1  0
 16 15  1  0
 16 17  2  0
 17 13  1  0
 18 11  1  0
 19 18  2  0
 20 18  1  0
 21 22  1  6
 21 20  1  0
 23 22  1  0
 24 23  2  0
 25 26  1  0
 25 21  1  0
 27 23  1  0
 28 25  2  0
M  END
$$$$
