QRM.pdb
     RDKit          3D

 29 28  0  0  1  0  0  0  0  0999 V2000
    6.4804  -20.3888   24.8582 N   0  0  0  0  0  0  0  0  0  0  0  0
    5.9231  -19.9799   23.5991 C   0  0  0  0  0  0  0  0  0  0  0  0
    4.7484  -19.5023   23.5069 O   0  0  0  0  0  0  0  0  0  0  0  0
    6.6337  -20.1826   22.3372 C   0  0  0  0  0  0  0  0  0  0  0  0
    7.9275  -19.3521   22.3223 C   0  0  0  0  0  0  0  0  0  0  0  0
    7.7628  -18.4542   21.1856 C   0  0  2  0  0  0  0  0  0  0  0  0
    8.8120  -18.8834   20.1744 N   0  0  0  0  0  0  0  0  0  0  0  0
    8.1523  -17.0008   21.2978 C   0  0  0  0  0  0  0  0  0  0  0  0
    9.2682  -16.5447   21.4901 O   0  0  0  0  0  0  0  0  0  0  0  0
    7.3634  -15.3142   16.2597 N   0  0  0  0  0  0  0  0  0  0  0  0
    8.6717  -14.9674   16.4403 C   0  0  0  0  0  0  0  0  0  0  0  0
    9.6470  -15.5178   16.0068 N   0  0  0  0  0  0  0  0  0  0  0  0
    9.0245  -13.7169   17.1617 N   0  0  0  0  0  0  0  0  0  0  0  0
    8.1008  -13.1828   18.2029 C   0  0  0  0  0  0  0  0  0  0  0  0
    8.4133  -13.6164   19.4868 C   0  0  0  0  0  0  0  0  0  0  0  0
    7.6497  -13.6166   20.7378 C   0  0  0  0  0  0  0  0  0  0  0  0
    7.8627  -14.6686   21.6298 C   0  0  2  0  0  0  0  0  0  0  0  0
    7.0434  -15.9157   21.1962 N   0  0  0  0  0  0  0  0  0  0  0  0
    7.8960  -14.6489   23.0378 C   0  0  0  0  0  0  0  0  0  0  0  0
    7.0245  -13.8262   23.6876 O   0  0  0  0  0  0  0  0  0  0  0  0
   10.7254  -15.3409   16.0040 C   0  0  0  0  0  0  0  0  0  0  0  0
    6.6061  -11.4547   27.0877 S   0  0  0  0  0  0  0  0  0  0  0  0
    6.0473  -13.1479   27.3598 C   0  0  0  0  0  0  0  0  0  0  0  0
    7.3826  -14.3789   27.2490 C   0  0  0  0  0  0  0  0  0  0  0  0
    7.4130  -14.8979   25.9024 C   0  0  2  0  0  0  0  0  0  0  0  0
    8.9120  -14.9492   25.2714 N   0  0  0  0  0  0  0  0  0  0  0  0
    8.5724  -15.4399   24.0089 C   0  0  0  0  0  0  0  0  0  0  0  0
    9.7199  -15.6752   26.2019 O   0  0  0  0  0  0  0  0  0  0  0  0
   10.0717  -15.0929   27.4196 O   0  0  0  0  0  0  0  0  0  0  0  0
  1  2  1  0
  2  3  2  0
  4  2  1  0
  4  5  1  0
  6  5  1  0
  6  7  1  6
  8  6  1  0
  8  9  2  0
 10 11  1  0
 11 13  1  0
 11 12  2  0
 13 14  1  0
 14 15  1  0
 16 15  1  0
 17 16  1  1
 18 17  1  0
 18  8  1  0
 19 20  2  0
 19 17  1  0
 22 23  1  0
 22 21  1  0
 23 24  1  0
 25 24  1  6
 25 26  1  0
 25 27  1  0
 26 19  1  0
 27 28  1  0
 29 27  2  0
M  END
$$$$
