QRM.pdb
     RDKit          3D

 29 28  0  0  1  0  0  0  0  0999 V2000
   13.3335  -14.2587   18.7858 N   0  0  0  0  0  0  0  0  0  0  0  0
   13.2080  -15.5938   18.2711 C   0  0  0  0  0  0  0  0  0  0  0  0
   14.1123  -16.1255   17.5528 O   0  0  0  0  0  0  0  0  0  0  0  0
   11.9907  -16.3824   18.4573 C   0  0  0  0  0  0  0  0  0  0  0  0
   11.4933  -16.2490   19.9059 C   0  0  0  0  0  0  0  0  0  0  0  0
   10.4629  -17.2732   20.0259 C   0  0  2  0  0  0  0  0  0  0  0  0
    9.3983  -16.8986   19.0093 N   0  0  0  0  0  0  0  0  0  0  0  0
    9.5824  -17.3312   21.2499 C   0  0  0  0  0  0  0  0  0  0  0  0
    8.6730  -16.5724   21.5457 O   0  0  0  0  0  0  0  0  0  0  0  0
    4.4516  -23.3186   22.7537 N   0  0  0  0  0  0  0  0  0  0  0  0
    4.9267  -22.8122   21.5778 C   0  0  0  0  0  0  0  0  0  0  0  0
    4.6331  -23.1417   20.4610 N   0  0  0  0  0  0  0  0  0  0  0  0
    5.8451  -21.6439   21.5799 N   0  0  0  0  0  0  0  0  0  0  0  0
    6.2940  -21.0634   22.8777 C   0  0  0  0  0  0  0  0  0  0  0  0
    7.2460  -20.0606   22.7291 C   0  0  0  0  0  0  0  0  0  0  0  0
    8.0664  -19.3317   23.7005 C   0  0  0  0  0  0  0  0  0  0  0  0
    8.6660  -18.1425   23.2833 C   0  0  2  0  0  0  0  0  0  0  0  0
    9.8357  -18.4438   22.3058 N   0  0  0  0  0  0  0  0  0  0  0  0
    9.0261  -17.0127   24.0436 C   0  0  0  0  0  0  0  0  0  0  0  0
   10.3283  -16.8875   24.4273 O   0  0  0  0  0  0  0  0  0  0  0  0
    4.8888  -22.8285   19.4458 C   0  0  0  0  0  0  0  0  0  0  0  0
    6.1970  -10.4647   27.4747 S   0  0  0  0  0  0  0  0  0  0  0  0
    6.2254  -11.7826   26.2436 C   0  0  0  0  0  0  0  0  0  0  0  0
    7.5090  -13.0349   26.5513 C   0  0  0  0  0  0  0  0  0  0  0  0
    7.4509  -14.0160   25.4941 C   0  0  1  0  0  0  0  0  0  0  0  0
    8.7062  -15.0512   25.5137 N   0  0  0  0  0  0  0  0  0  0  0  0
    8.3358  -15.8232   24.4106 C   0  0  0  0  0  0  0  0  0  0  0  0
    8.7824  -15.5722   26.8435 O   0  0  0  0  0  0  0  0  0  0  0  0
    9.5600  -14.9218   27.8017 O   0  0  0  0  0  0  0  0  0  0  0  0
  1  2  1  0
  2  3  2  0
  4  2  1  0
  4  5  1  0
  6  5  1  0
  6  7  1  6
  8  6  1  0
  8  9  2  0
 10 11  1  0
 11 13  1  0
 11 12  2  0
 13 14  1  0
 14 15  1  0
 16 15  1  0
 17 16  1  1
 18 17  1  0
 18  8  1  0
 19 20  2  0
 19 17  1  0
 22 23  1  0
 22 21  1  0
 23 24  1  0
 25 24  1  6
 25 26  1  0
 25 27  1  0
 26 19  1  0
 27 28  1  0
 29 27  2  0
M  END
$$$$
