QRM.pdb
     RDKit          3D

 29 28  0  0  1  0  0  0  0  0999 V2000
   15.4753  -20.2405   20.7513 N   0  0  0  0  0  0  0  0  0  0  0  0
   14.6681  -20.0433   19.5797 C   0  0  0  0  0  0  0  0  0  0  0  0
   15.1774  -19.9651   18.4174 O   0  0  0  0  0  0  0  0  0  0  0  0
   13.2255  -19.8194   19.6640 C   0  0  0  0  0  0  0  0  0  0  0  0
   12.9278  -18.6628   20.6322 C   0  0  0  0  0  0  0  0  0  0  0  0
   11.4732  -18.5661   20.6372 C   0  0  2  0  0  0  0  0  0  0  0  0
   11.0728  -18.4008   19.1813 N   0  0  0  0  0  0  0  0  0  0  0  0
   10.7912  -17.3389   21.1899 C   0  0  0  0  0  0  0  0  0  0  0  0
   10.4906  -16.3219   20.5853 O   0  0  0  0  0  0  0  0  0  0  0  0
    7.8635  -11.9195   19.3093 N   0  0  0  0  0  0  0  0  0  0  0  0
    7.9790  -13.0433   18.5421 C   0  0  0  0  0  0  0  0  0  0  0  0
    8.4872  -13.1477   17.4591 N   0  0  0  0  0  0  0  0  0  0  0  0
    7.5422  -14.3617   19.0709 N   0  0  0  0  0  0  0  0  0  0  0  0
    6.9594  -14.4485   20.4404 C   0  0  0  0  0  0  0  0  0  0  0  0
    7.8955  -14.7797   21.4140 C   0  0  0  0  0  0  0  0  0  0  0  0
    8.8184  -15.9105   21.5466 C   0  0  0  0  0  0  0  0  0  0  0  0
    9.5616  -16.0092   22.7238 C   0  0  2  0  0  0  0  0  0  0  0  0
   10.4348  -17.2943   22.7026 N   0  0  0  0  0  0  0  0  0  0  0  0
    9.1540  -15.7926   24.0545 C   0  0  0  0  0  0  0  0  0  0  0  0
    7.9924  -16.3722   24.4710 O   0  0  0  0  0  0  0  0  0  0  0  0
    8.6662  -13.9490   16.7381 C   0  0  0  0  0  0  0  0  0  0  0  0
    7.4077  -11.0626   26.5722 S   0  0  0  0  0  0  0  0  0  0  0  0
    6.4487  -12.5902   26.5790 C   0  0  0  0  0  0  0  0  0  0  0  0
    7.3299  -13.9964   27.3251 C   0  0  0  0  0  0  0  0  0  0  0  0
    7.7952  -14.8571   26.2638 C   0  0  2  0  0  0  0  0  0  0  0  0
    9.3211  -15.3770   26.4857 N   0  0  0  0  0  0  0  0  0  0  0  0
    9.7803  -15.1878   25.1806 C   0  0  0  0  0  0  0  0  0  0  0  0
    9.2261  -16.6637   27.1032 O   0  0  0  0  0  0  0  0  0  0  0  0
    9.7938  -17.7764   26.4826 O   0  0  0  0  0  0  0  0  0  0  0  0
  1  2  1  0
  2  3  2  0
  4  2  1  0
  4  5  1  0
  6  5  1  0
  6  7  1  6
  8  6  1  0
  8  9  2  0
 10 11  1  0
 11 13  1  0
 11 12  2  0
 13 14  1  0
 14 15  1  0
 16 15  1  0
 17 16  1  6
 18 17  1  0
 18  8  1  0
 19 20  2  0
 19 17  1  0
 22 23  1  0
 22 21  1  0
 23 24  1  0
 25 24  1  1
 25 26  1  0
 25 27  1  0
 26 19  1  0
 27 28  1  0
 29 27  2  0
M  END
$$$$
