QRM.pdb
     RDKit          3D

 29 28  0  0  1  0  0  0  0  0999 V2000
   12.5763  -14.3836   20.6014 N   0  0  0  0  0  0  0  0  0  0  0  0
   12.7086  -14.4738   19.1740 C   0  0  0  0  0  0  0  0  0  0  0  0
   13.6940  -15.0608   18.6255 O   0  0  0  0  0  0  0  0  0  0  0  0
   11.7728  -13.8094   18.2678 C   0  0  0  0  0  0  0  0  0  0  0  0
   10.5991  -13.2166   19.0646 C   0  0  0  0  0  0  0  0  0  0  0  0
    9.4970  -14.1381   18.8166 C   0  0  2  0  0  0  0  0  0  0  0  0
    8.3759  -13.2856   18.2475 N   0  0  0  0  0  0  0  0  0  0  0  0
    8.7395  -14.7505   19.9689 C   0  0  0  0  0  0  0  0  0  0  0  0
    7.9056  -14.2109   20.6785 O   0  0  0  0  0  0  0  0  0  0  0  0
    8.0341  -20.6684   23.8651 N   0  0  0  0  0  0  0  0  0  0  0  0
    6.8136  -20.6605   24.4776 C   0  0  0  0  0  0  0  0  0  0  0  0
    6.4988  -21.2042   25.5010 N   0  0  0  0  0  0  0  0  0  0  0  0
    5.7089  -19.8244   23.9400 N   0  0  0  0  0  0  0  0  0  0  0  0
    5.8061  -19.2783   22.5561 C   0  0  0  0  0  0  0  0  0  0  0  0
    6.6650  -18.1891   22.4562 C   0  0  0  0  0  0  0  0  0  0  0  0
    7.1554  -17.4258   21.3052 C   0  0  0  0  0  0  0  0  0  0  0  0
    8.0439  -16.3778   21.5504 C   0  0  2  0  0  0  0  0  0  0  0  0
    9.0357  -16.2248   20.3641 N   0  0  0  0  0  0  0  0  0  0  0  0
    8.7408  -16.0597   22.7324 C   0  0  0  0  0  0  0  0  0  0  0  0
    9.7657  -15.1645   22.6504 O   0  0  0  0  0  0  0  0  0  0  0  0
    5.5990  -21.2830   26.1160 C   0  0  0  0  0  0  0  0  0  0  0  0
    6.9869  -11.9784   28.1031 S   0  0  0  0  0  0  0  0  0  0  0  0
    7.1287  -12.2711   26.3289 C   0  0  0  0  0  0  0  0  0  0  0  0
    6.8437  -14.0045   25.8548 C   0  0  0  0  0  0  0  0  0  0  0  0
    7.7229  -14.3265   24.7561 C   0  0  1  0  0  0  0  0  0  0  0  0
    8.8223  -15.4661   25.1307 N   0  0  0  0  0  0  0  0  0  0  0  0
    8.5235  -16.3657   24.1054 C   0  0  0  0  0  0  0  0  0  0  0  0
    8.6375  -15.7689   26.5163 O   0  0  0  0  0  0  0  0  0  0  0  0
    9.4381  -15.1499   27.4763 O   0  0  0  0  0  0  0  0  0  0  0  0
  1  2  1  0
  2  3  2  0
  4  2  1  0
  4  5  1  0
  6  5  1  0
  6  7  1  6
  8  6  1  0
  8  9  2  0
 10 11  1  0
 11 13  1  0
 11 12  2  0
 13 14  1  0
 14 15  1  0
 16 15  1  0
 17 16  1  1
 18 17  1  0
 18  8  1  0
 19 20  2  0
 19 17  1  0
 22 23  1  0
 22 21  1  0
 23 24  1  0
 25 24  1  6
 25 26  1  0
 25 27  1  0
 26 19  1  0
 27 28  1  0
 29 27  2  0
M  END
$$$$
