QRM.pdb
     RDKit          3D

 29 28  0  0  1  0  0  0  0  0999 V2000
   12.0082  -21.6220   25.3484 N   0  0  0  0  0  0  0  0  0  0  0  0
   11.4545  -22.4003   24.2757 C   0  0  0  0  0  0  0  0  0  0  0  0
   10.6921  -23.3949   24.4902 O   0  0  0  0  0  0  0  0  0  0  0  0
   11.8150  -22.1583   22.8793 C   0  0  0  0  0  0  0  0  0  0  0  0
   12.7395  -20.9339   22.7788 C   0  0  0  0  0  0  0  0  0  0  0  0
   12.1225  -20.1035   21.7517 C   0  0  2  0  0  0  0  0  0  0  0  0
   13.1675  -19.9685   20.6575 N   0  0  0  0  0  0  0  0  0  0  0  0
   11.8793  -18.6353   22.0008 C   0  0  0  0  0  0  0  0  0  0  0  0
   12.6692  -17.7168   21.8505 O   0  0  0  0  0  0  0  0  0  0  0  0
    7.6767  -14.5101   17.9340 N   0  0  0  0  0  0  0  0  0  0  0  0
    7.5284  -13.4835   18.8221 C   0  0  0  0  0  0  0  0  0  0  0  0
    7.0082  -12.4172   18.6362 N   0  0  0  0  0  0  0  0  0  0  0  0
    7.9391  -13.6521   20.2403 N   0  0  0  0  0  0  0  0  0  0  0  0
    9.3519  -14.0047   20.5601 C   0  0  0  0  0  0  0  0  0  0  0  0
    9.5190  -15.3428   20.9000 C   0  0  0  0  0  0  0  0  0  0  0  0
   10.6983  -16.1163   21.2984 C   0  0  0  0  0  0  0  0  0  0  0  0
   10.7221  -16.6482   22.5885 C   0  0  2  0  0  0  0  0  0  0  0  0
   10.4930  -18.1844   22.5413 N   0  0  0  0  0  0  0  0  0  0  0  0
   10.1148  -16.1626   23.7629 C   0  0  0  0  0  0  0  0  0  0  0  0
    8.8383  -16.5570   24.0341 O   0  0  0  0  0  0  0  0  0  0  0  0
    6.8246  -11.5095   19.2163 C   0  0  0  0  0  0  0  0  0  0  0  0
    6.0436  -11.1599   26.7552 S   0  0  0  0  0  0  0  0  0  0  0  0
    6.9839  -12.1813   25.6037 C   0  0  0  0  0  0  0  0  0  0  0  0
    8.0633  -13.3941   26.4249 C   0  0  0  0  0  0  0  0  0  0  0  0
    8.8207  -14.0894   25.4117 C   0  0  2  0  0  0  0  0  0  0  0  0
    9.8338  -15.2053   26.0248 N   0  0  0  0  0  0  0  0  0  0  0  0
   10.5995  -15.4210   24.8771 C   0  0  0  0  0  0  0  0  0  0  0  0
    9.0140  -16.2151   26.6199 O   0  0  0  0  0  0  0  0  0  0  0  0
    8.9128  -16.2996   28.0085 O   0  0  0  0  0  0  0  0  0  0  0  0
  1  2  1  0
  2  3  2  0
  4  2  1  0
  4  5  1  0
  6  5  1  0
  6  7  1  6
  8  6  1  0
  8  9  2  0
 10 11  1  0
 11 13  1  0
 11 12  2  0
 13 14  1  0
 14 15  1  0
 16 15  1  0
 17 16  1  6
 18 17  1  0
 18  8  1  0
 19 20  2  0
 19 17  1  0
 22 23  1  0
 22 21  1  0
 23 24  1  0
 25 24  1  1
 25 26  1  0
 25 27  1  0
 26 19  1  0
 27 28  1  0
 29 27  2  0
M  END
$$$$
