QRM.pdb
     RDKit          3D

 29 28  0  0  1  0  0  0  0  0999 V2000
   15.8565  -13.0494   18.8196 N   0  0  0  0  0  0  0  0  0  0  0  0
   15.5365  -14.2380   18.0795 C   0  0  0  0  0  0  0  0  0  0  0  0
   16.1669  -14.5636   17.0244 O   0  0  0  0  0  0  0  0  0  0  0  0
   14.4026  -15.0893   18.4373 C   0  0  0  0  0  0  0  0  0  0  0  0
   13.9076  -14.7406   19.8505 C   0  0  0  0  0  0  0  0  0  0  0  0
   13.0035  -15.8319   20.1920 C   0  0  2  0  0  0  0  0  0  0  0  0
   12.3790  -16.2677   18.8777 N   0  0  0  0  0  0  0  0  0  0  0  0
   11.7312  -15.5591   20.9560 C   0  0  0  0  0  0  0  0  0  0  0  0
   11.4723  -14.5820   21.6404 O   0  0  0  0  0  0  0  0  0  0  0  0
    8.5290  -14.9638   16.7262 N   0  0  0  0  0  0  0  0  0  0  0  0
    7.9655  -13.8373   17.2537 C   0  0  0  0  0  0  0  0  0  0  0  0
    8.2499  -12.6935   17.0236 N   0  0  0  0  0  0  0  0  0  0  0  0
    6.7860  -13.9377   18.1522 N   0  0  0  0  0  0  0  0  0  0  0  0
    6.7212  -15.0331   19.1615 C   0  0  0  0  0  0  0  0  0  0  0  0
    7.8525  -15.1029   19.9673 C   0  0  0  0  0  0  0  0  0  0  0  0
    8.2499  -16.0355   21.0257 C   0  0  0  0  0  0  0  0  0  0  0  0
    9.4780  -15.8222   21.6535 C   0  0  2  0  0  0  0  0  0  0  0  0
   10.5973  -16.6225   20.9316 N   0  0  0  0  0  0  0  0  0  0  0  0
    9.7841  -15.8066   23.0283 C   0  0  0  0  0  0  0  0  0  0  0  0
   10.8291  -16.5679   23.4605 O   0  0  0  0  0  0  0  0  0  0  0  0
    7.9238  -11.7083   17.3658 C   0  0  0  0  0  0  0  0  0  0  0  0
    7.6544  -12.7883   30.0262 S   0  0  0  0  0  0  0  0  0  0  0  0
    7.5506  -12.9972   28.2377 C   0  0  0  0  0  0  0  0  0  0  0  0
    8.6511  -14.2953   27.5940 C   0  0  0  0  0  0  0  0  0  0  0  0
    8.5727  -14.2855   26.1527 C   0  0  2  0  0  0  0  0  0  0  0  0
    9.5481  -15.3836   25.4524 N   0  0  0  0  0  0  0  0  0  0  0  0
    9.3182  -15.0246   24.1227 C   0  0  0  0  0  0  0  0  0  0  0  0
    9.1825  -16.6558   25.9941 O   0  0  0  0  0  0  0  0  0  0  0  0
    9.8340  -17.1424   27.1275 O   0  0  0  0  0  0  0  0  0  0  0  0
  1  2  1  0
  2  3  2  0
  4  2  1  0
  4  5  1  0
  6  5  1  0
  6  7  1  6
  8  6  1  0
  8  9  2  0
 10 11  1  0
 11 13  1  0
 11 12  2  0
 13 14  1  0
 14 15  1  0
 16 15  1  0
 17 16  1  1
 18 17  1  0
 18  8  1  0
 19 20  2  0
 19 17  1  0
 22 23  1  0
 22 21  1  0
 23 24  1  0
 25 24  1  1
 25 26  1  0
 25 27  1  0
 26 19  1  0
 27 28  1  0
 29 27  2  0
M  END
$$$$
