QRM.pdb
     RDKit          3D

 29 28  0  0  1  0  0  0  0  0999 V2000
    8.7334  -20.2634   27.2907 N   0  0  0  0  0  0  0  0  0  0  0  0
    7.3803  -20.7256   27.1551 C   0  0  0  0  0  0  0  0  0  0  0  0
    6.8192  -21.4352   28.0485 O   0  0  0  0  0  0  0  0  0  0  0  0
    6.6027  -20.4937   25.9386 C   0  0  0  0  0  0  0  0  0  0  0  0
    6.6266  -19.0000   25.5750 C   0  0  0  0  0  0  0  0  0  0  0  0
    6.5188  -18.9842   24.1213 C   0  0  2  0  0  0  0  0  0  0  0  0
    7.3751  -20.1421   23.6385 N   0  0  0  0  0  0  0  0  0  0  0  0
    7.1699  -17.8844   23.3191 C   0  0  0  0  0  0  0  0  0  0  0  0
    8.3634  -17.7116   23.1299 O   0  0  0  0  0  0  0  0  0  0  0  0
    9.9594  -13.9278   17.7531 N   0  0  0  0  0  0  0  0  0  0  0  0
    8.6456  -14.1345   17.4433 C   0  0  0  0  0  0  0  0  0  0  0  0
    8.1930  -14.6547   16.4602 N   0  0  0  0  0  0  0  0  0  0  0  0
    7.5810  -13.7994   18.4245 N   0  0  0  0  0  0  0  0  0  0  0  0
    7.9416  -13.1016   19.6917 C   0  0  0  0  0  0  0  0  0  0  0  0
    7.9413  -13.9426   20.7993 C   0  0  0  0  0  0  0  0  0  0  0  0
    7.0021  -14.9728   21.2515 C   0  0  0  0  0  0  0  0  0  0  0  0
    7.3405  -15.7077   22.3887 C   0  0  2  0  0  0  0  0  0  0  0  0
    6.2701  -16.8006   22.6611 N   0  0  0  0  0  0  0  0  0  0  0  0
    7.8114  -15.2520   23.6355 C   0  0  0  0  0  0  0  0  0  0  0  0
    7.5067  -13.9764   24.0079 O   0  0  0  0  0  0  0  0  0  0  0  0
    7.2025  -14.9314   16.0908 C   0  0  0  0  0  0  0  0  0  0  0  0
    6.0213  -10.6330   26.5745 S   0  0  0  0  0  0  0  0  0  0  0  0
    6.3344  -12.3664   26.9628 C   0  0  0  0  0  0  0  0  0  0  0  0
    7.7161  -13.0826   26.0203 C   0  0  0  0  0  0  0  0  0  0  0  0
    7.8678  -14.4634   26.4127 C   0  0  2  0  0  0  0  0  0  0  0  0
    9.1463  -15.1890   25.7152 N   0  0  0  0  0  0  0  0  0  0  0  0
    8.4527  -15.8961   24.7310 C   0  0  0  0  0  0  0  0  0  0  0  0
    9.8768  -15.8249   26.7677 O   0  0  0  0  0  0  0  0  0  0  0  0
   10.0153  -17.2128   26.7781 O   0  0  0  0  0  0  0  0  0  0  0  0
  1  2  1  0
  2  3  2  0
  4  2  1  0
  4  5  1  0
  6  5  1  0
  6  7  1  6
  8  6  1  0
  8  9  2  0
 10 11  1  0
 11 13  1  0
 11 12  2  0
 13 14  1  0
 14 15  1  0
 16 15  1  0
 17 16  1  1
 18 17  1  0
 18  8  1  0
 19 20  2  0
 19 17  1  0
 22 23  1  0
 22 21  1  0
 23 24  1  0
 25 24  1  6
 25 26  1  0
 25 27  1  0
 26 19  1  0
 27 28  1  0
 29 27  2  0
M  END
$$$$
