QRM.pdb
     RDKit          3D

 29 28  0  0  1  0  0  0  0  0999 V2000
    7.3746  -12.2129   17.0188 N   0  0  0  0  0  0  0  0  0  0  0  0
    7.9054  -13.4165   16.4421 C   0  0  0  0  0  0  0  0  0  0  0  0
    7.4215  -13.9245   15.3818 O   0  0  0  0  0  0  0  0  0  0  0  0
    8.9658  -14.1836   17.0944 C   0  0  0  0  0  0  0  0  0  0  0  0
    8.4396  -14.8066   18.3978 C   0  0  0  0  0  0  0  0  0  0  0  0
    9.6030  -15.4723   18.9710 C   0  0  2  0  0  0  0  0  0  0  0  0
    9.8670  -16.6703   18.0752 N   0  0  0  0  0  0  0  0  0  0  0  0
    9.4931  -16.2050   20.2854 C   0  0  0  0  0  0  0  0  0  0  0  0
    8.5024  -16.3212   20.9891 O   0  0  0  0  0  0  0  0  0  0  0  0
    8.0519  -21.3692   19.0885 N   0  0  0  0  0  0  0  0  0  0  0  0
    8.1900  -21.7870   20.3812 C   0  0  0  0  0  0  0  0  0  0  0  0
    7.3802  -22.3531   21.0636 N   0  0  0  0  0  0  0  0  0  0  0  0
    9.4973  -21.6588   21.0762 N   0  0  0  0  0  0  0  0  0  0  0  0
   10.6135  -20.9248   20.4143 C   0  0  0  0  0  0  0  0  0  0  0  0
   10.7147  -19.5989   20.8215 C   0  0  0  0  0  0  0  0  0  0  0  0
   10.4769  -18.9457   22.1118 C   0  0  0  0  0  0  0  0  0  0  0  0
   10.1257  -17.5950   22.1022 C   0  0  2  0  0  0  0  0  0  0  0  0
   10.7615  -16.8825   20.8765 N   0  0  0  0  0  0  0  0  0  0  0  0
   10.1042  -16.6733   23.1671 C   0  0  0  0  0  0  0  0  0  0  0  0
   11.2881  -16.1274   23.5658 O   0  0  0  0  0  0  0  0  0  0  0  0
    7.3265  -22.7289   22.0883 C   0  0  0  0  0  0  0  0  0  0  0  0
    6.1401  -11.2854   27.3030 S   0  0  0  0  0  0  0  0  0  0  0  0
    6.3303  -12.5354   26.0167 C   0  0  0  0  0  0  0  0  0  0  0  0
    7.8548  -13.5155   26.1776 C   0  0  0  0  0  0  0  0  0  0  0  0
    7.9414  -14.4116   25.0493 C   0  0  2  0  0  0  0  0  0  0  0  0
    9.2662  -15.3557   25.0836 N   0  0  0  0  0  0  0  0  0  0  0  0
    9.0532  -16.0297   23.8793 C   0  0  0  0  0  0  0  0  0  0  0  0
    9.2670  -16.0085   26.3563 O   0  0  0  0  0  0  0  0  0  0  0  0
    9.7542  -15.3409   27.4799 O   0  0  0  0  0  0  0  0  0  0  0  0
  1  2  1  0
  2  3  2  0
  4  2  1  0
  4  5  1  0
  6  5  1  0
  6  7  1  6
  8  6  1  0
  8  9  2  0
 10 11  1  0
 11 13  1  0
 11 12  2  0
 13 14  1  0
 14 15  1  0
 16 15  1  0
 17 16  1  1
 18 17  1  0
 18  8  1  0
 19 20  2  0
 19 17  1  0
 22 23  1  0
 22 21  1  0
 23 24  1  0
 25 24  1  6
 25 26  1  0
 25 27  1  0
 26 19  1  0
 27 28  1  0
 29 27  2  0
M  END
$$$$
