QRM.pdb
     RDKit          3D

 29 28  0  0  1  0  0  0  0  0999 V2000
   11.6286  -21.8304   21.9144 N   0  0  0  0  0  0  0  0  0  0  0  0
   12.5622  -21.1051   21.0986 C   0  0  0  0  0  0  0  0  0  0  0  0
   13.7995  -21.3965   21.0712 O   0  0  0  0  0  0  0  0  0  0  0  0
   12.1640  -19.9263   20.3304 C   0  0  0  0  0  0  0  0  0  0  0  0
   11.2008  -19.0593   21.1578 C   0  0  0  0  0  0  0  0  0  0  0  0
   10.8044  -17.9943   20.2447 C   0  0  2  0  0  0  0  0  0  0  0  0
   12.0763  -17.5854   19.5219 N   0  0  0  0  0  0  0  0  0  0  0  0
   10.4126  -16.6380   20.7774 C   0  0  0  0  0  0  0  0  0  0  0  0
   11.1532  -15.7680   21.2074 O   0  0  0  0  0  0  0  0  0  0  0  0
    9.2089  -13.4510   15.9902 N   0  0  0  0  0  0  0  0  0  0  0  0
    8.2649  -14.4303   16.1105 C   0  0  0  0  0  0  0  0  0  0  0  0
    8.2044  -15.4729   15.5176 N   0  0  0  0  0  0  0  0  0  0  0  0
    7.2028  -14.3267   17.1447 N   0  0  0  0  0  0  0  0  0  0  0  0
    7.4496  -13.5206   18.3744 C   0  0  0  0  0  0  0  0  0  0  0  0
    8.0998  -14.2340   19.3756 C   0  0  0  0  0  0  0  0  0  0  0  0
    8.4860  -13.8786   20.7439 C   0  0  0  0  0  0  0  0  0  0  0  0
    9.0125  -14.8860   21.5538 C   0  0  2  0  0  0  0  0  0  0  0  0
    8.9054  -16.2616   20.8393 N   0  0  0  0  0  0  0  0  0  0  0  0
    8.8289  -15.1065   22.9328 C   0  0  0  0  0  0  0  0  0  0  0  0
    8.7270  -16.3946   23.3675 O   0  0  0  0  0  0  0  0  0  0  0  0
    7.5984  -16.3810   15.5646 C   0  0  0  0  0  0  0  0  0  0  0  0
    5.5520  -11.3327   28.6633 S   0  0  0  0  0  0  0  0  0  0  0  0
    6.6561  -11.6512   27.2731 C   0  0  0  0  0  0  0  0  0  0  0  0
    6.3505  -13.2475   26.4551 C   0  0  0  0  0  0  0  0  0  0  0  0
    7.1592  -13.3096   25.2610 C   0  0  2  0  0  0  0  0  0  0  0  0
    8.2028  -14.5580   25.2606 N   0  0  0  0  0  0  0  0  0  0  0  0
    8.8673  -14.2526   24.0710 C   0  0  0  0  0  0  0  0  0  0  0  0
    7.4201  -15.7419   25.4381 O   0  0  0  0  0  0  0  0  0  0  0  0
    7.4260  -16.4017   26.6670 O   0  0  0  0  0  0  0  0  0  0  0  0
  1  2  1  0
  2  3  2  0
  4  2  1  0
  4  5  1  0
  6  5  1  0
  6  7  1  6
  8  6  1  0
  8  9  2  0
 10 11  1  0
 11 13  1  0
 11 12  2  0
 13 14  1  0
 14 15  1  0
 16 15  1  0
 17 16  1  6
 18 17  1  0
 18  8  1  0
 19 20  2  0
 19 17  1  0
 22 23  1  0
 22 21  1  0
 23 24  1  0
 25 24  1  1
 25 26  1  0
 25 27  1  0
 26 19  1  0
 27 28  1  0
 29 27  2  0
M  END
$$$$
