QRM.pdb
     RDKit          3D

 29 28  0  0  1  0  0  0  0  0999 V2000
   13.7819  -19.9707   17.0820 N   0  0  0  0  0  0  0  0  0  0  0  0
   12.9944  -18.9074   16.5233 C   0  0  0  0  0  0  0  0  0  0  0  0
   13.5016  -18.0214   15.7654 O   0  0  0  0  0  0  0  0  0  0  0  0
   11.5868  -18.7221   16.8734 C   0  0  0  0  0  0  0  0  0  0  0  0
   11.4297  -17.5016   17.7951 C   0  0  0  0  0  0  0  0  0  0  0  0
   11.2909  -18.0756   19.1279 C   0  0  2  0  0  0  0  0  0  0  0  0
   10.1412  -19.0632   19.0264 N   0  0  0  0  0  0  0  0  0  0  0  0
   10.7593  -17.2412   20.2673 C   0  0  0  0  0  0  0  0  0  0  0  0
   11.0771  -16.1000   20.5619 O   0  0  0  0  0  0  0  0  0  0  0  0
    5.8853  -14.2866   25.8810 N   0  0  0  0  0  0  0  0  0  0  0  0
    6.6370  -13.2355   25.4394 C   0  0  0  0  0  0  0  0  0  0  0  0
    6.5558  -12.0826   25.7655 N   0  0  0  0  0  0  0  0  0  0  0  0
    7.7820  -13.4647   24.5202 N   0  0  0  0  0  0  0  0  0  0  0  0
    7.5315  -14.0071   23.1543 C   0  0  0  0  0  0  0  0  0  0  0  0
    7.5344  -15.3970   23.1079 C   0  0  0  0  0  0  0  0  0  0  0  0
    8.0415  -16.3467   22.1134 C   0  0  0  0  0  0  0  0  0  0  0  0
    9.4086  -16.6274   22.1197 C   0  0  2  0  0  0  0  0  0  0  0  0
    9.7079  -17.8644   21.2283 N   0  0  0  0  0  0  0  0  0  0  0  0
   10.3063  -16.6567   23.2048 C   0  0  0  0  0  0  0  0  0  0  0  0
   11.0703  -17.7730   23.3741 O   0  0  0  0  0  0  0  0  0  0  0  0
    7.1262  -11.1659   25.5967 C   0  0  0  0  0  0  0  0  0  0  0  0
   10.3781  -13.3612   30.1101 S   0  0  0  0  0  0  0  0  0  0  0  0
   10.1155  -13.4884   28.3301 C   0  0  0  0  0  0  0  0  0  0  0  0
   10.2803  -15.1844   27.6920 C   0  0  0  0  0  0  0  0  0  0  0  0
   10.0574  -15.1582   26.2661 C   0  0  2  0  0  0  0  0  0  0  0  0
   11.1646  -16.0091   25.4308 N   0  0  0  0  0  0  0  0  0  0  0  0
   10.7325  -15.6768   24.1452 C   0  0  0  0  0  0  0  0  0  0  0  0
   11.1282  -17.3418   25.9487 O   0  0  0  0  0  0  0  0  0  0  0  0
   10.0098  -18.1446   25.7247 O   0  0  0  0  0  0  0  0  0  0  0  0
  1  2  1  0
  2  3  2  0
  4  2  1  0
  4  5  1  0
  6  5  1  0
  6  7  1  6
  8  6  1  0
  8  9  2  0
 10 11  1  0
 11 13  1  0
 11 12  2  0
 13 14  1  0
 14 15  1  0
 16 15  1  0
 17 16  1  1
 18 17  1  0
 18  8  1  0
 19 20  2  0
 19 17  1  0
 22 23  1  0
 22 21  1  0
 23 24  1  0
 25 24  1  1
 25 26  1  0
 25 27  1  0
 26 19  1  0
 27 28  1  0
 29 27  2  0
M  END
$$$$
