QRM.pdb
     RDKit          3D

 29 28  0  0  1  0  0  0  0  0999 V2000
    6.8020  -12.4225   18.1500 N   0  0  0  0  0  0  0  0  0  0  0  0
    7.7361  -13.2968   17.4972 C   0  0  0  0  0  0  0  0  0  0  0  0
    7.4434  -13.9139   16.4248 O   0  0  0  0  0  0  0  0  0  0  0  0
    9.0407  -13.6077   18.0801 C   0  0  0  0  0  0  0  0  0  0  0  0
    9.1548  -15.1188   18.3397 C   0  0  0  0  0  0  0  0  0  0  0  0
    9.9485  -15.2132   19.5588 C   0  0  2  0  0  0  0  0  0  0  0  0
   10.9872  -16.2870   19.2844 N   0  0  0  0  0  0  0  0  0  0  0  0
    9.3536  -15.8034   20.8137 C   0  0  0  0  0  0  0  0  0  0  0  0
    8.3022  -15.4951   21.3520 O   0  0  0  0  0  0  0  0  0  0  0  0
   11.9041  -21.3849   22.6024 N   0  0  0  0  0  0  0  0  0  0  0  0
   12.1341  -21.4741   23.9455 C   0  0  0  0  0  0  0  0  0  0  0  0
   13.1062  -21.9100   24.4997 N   0  0  0  0  0  0  0  0  0  0  0  0
   11.1654  -20.8966   24.9133 N   0  0  0  0  0  0  0  0  0  0  0  0
    9.8407  -20.4137   24.4288 C   0  0  0  0  0  0  0  0  0  0  0  0
    9.9407  -19.4386   23.4423 C   0  0  0  0  0  0  0  0  0  0  0  0
    8.9281  -18.6673   22.7158 C   0  0  0  0  0  0  0  0  0  0  0  0
    9.0880  -17.2824   22.6508 C   0  0  2  0  0  0  0  0  0  0  0  0
   10.1395  -16.9126   21.5681 N   0  0  0  0  0  0  0  0  0  0  0  0
    9.2102  -16.3502   23.6996 C   0  0  0  0  0  0  0  0  0  0  0  0
   10.4213  -15.7534   23.8883 O   0  0  0  0  0  0  0  0  0  0  0  0
   13.4439  -22.0377   25.5311 C   0  0  0  0  0  0  0  0  0  0  0  0
    6.2972  -10.3720   27.6779 S   0  0  0  0  0  0  0  0  0  0  0  0
    6.3447  -11.6431   26.3992 C   0  0  0  0  0  0  0  0  0  0  0  0
    7.3549  -13.0877   26.8497 C   0  0  0  0  0  0  0  0  0  0  0  0
    7.3199  -14.0274   25.7545 C   0  0  1  0  0  0  0  0  0  0  0  0
    8.6589  -14.9470   25.6588 N   0  0  0  0  0  0  0  0  0  0  0  0
    8.2701  -15.7406   24.5776 C   0  0  0  0  0  0  0  0  0  0  0  0
    8.8877  -15.4692   26.9706 O   0  0  0  0  0  0  0  0  0  0  0  0
    8.5692  -16.7969   27.2559 O   0  0  0  0  0  0  0  0  0  0  0  0
  1  2  1  0
  2  3  2  0
  4  2  1  0
  4  5  1  0
  6  5  1  0
  6  7  1  6
  8  6  1  0
  8  9  2  0
 10 11  1  0
 11 13  1  0
 11 12  2  0
 13 14  1  0
 14 15  1  0
 16 15  1  0
 17 16  1  1
 18 17  1  0
 18  8  1  0
 19 20  2  0
 19 17  1  0
 22 23  1  0
 22 21  1  0
 23 24  1  0
 25 24  1  6
 25 26  1  0
 25 27  1  0
 26 19  1  0
 27 28  1  0
 29 27  2  0
M  END
$$$$
