QRM.pdb
     RDKit          3D

 29 28  0  0  1  0  0  0  0  0999 V2000
   10.1483  -12.2809   18.8389 N   0  0  0  0  0  0  0  0  0  0  0  0
    9.0555  -12.4552   17.9232 C   0  0  0  0  0  0  0  0  0  0  0  0
    9.1846  -12.2505   16.6750 O   0  0  0  0  0  0  0  0  0  0  0  0
    7.7059  -12.7794   18.3835 C   0  0  0  0  0  0  0  0  0  0  0  0
    7.7596  -13.3558   19.8078 C   0  0  0  0  0  0  0  0  0  0  0  0
    8.3931  -14.6583   19.6428 C   0  0  2  0  0  0  0  0  0  0  0  0
    7.4699  -15.4454   18.7287 N   0  0  0  0  0  0  0  0  0  0  0  0
    8.4431  -15.6345   20.7923 C   0  0  0  0  0  0  0  0  0  0  0  0
    7.5216  -15.9742   21.5172 O   0  0  0  0  0  0  0  0  0  0  0  0
   13.5058  -20.7494   20.6736 N   0  0  0  0  0  0  0  0  0  0  0  0
   13.9702  -20.4796   21.9291 C   0  0  0  0  0  0  0  0  0  0  0  0
   15.1116  -20.3653   22.2843 N   0  0  0  0  0  0  0  0  0  0  0  0
   13.0211  -20.1768   23.0319 N   0  0  0  0  0  0  0  0  0  0  0  0
   11.5535  -20.2397   22.7774 C   0  0  0  0  0  0  0  0  0  0  0  0
   10.9480  -18.9880   22.7518 C   0  0  0  0  0  0  0  0  0  0  0  0
    9.7097  -18.5072   22.1327 C   0  0  0  0  0  0  0  0  0  0  0  0
    9.3456  -17.1780   22.3531 C   0  0  2  0  0  0  0  0  0  0  0  0
    9.8032  -16.2904   21.1626 N   0  0  0  0  0  0  0  0  0  0  0  0
    9.4573  -16.4074   23.5268 C   0  0  0  0  0  0  0  0  0  0  0  0
   10.4686  -15.4963   23.6011 O   0  0  0  0  0  0  0  0  0  0  0  0
   15.6381  -20.1860   23.2249 C   0  0  0  0  0  0  0  0  0  0  0  0
    6.9502  -10.7779   27.2113 S   0  0  0  0  0  0  0  0  0  0  0  0
    6.4591  -12.5016   27.0087 C   0  0  0  0  0  0  0  0  0  0  0  0
    7.8553  -13.6663   27.0773 C   0  0  0  0  0  0  0  0  0  0  0  0
    7.7661  -14.5517   25.9407 C   0  0  1  0  0  0  0  0  0  0  0  0
    9.0423  -15.5525   25.8090 N   0  0  0  0  0  0  0  0  0  0  0  0
    8.6258  -16.2462   24.6709 C   0  0  0  0  0  0  0  0  0  0  0  0
    9.2060  -16.1726   27.0874 O   0  0  0  0  0  0  0  0  0  0  0  0
    9.0466  -17.5523   27.2166 O   0  0  0  0  0  0  0  0  0  0  0  0
  1  2  1  0
  2  3  2  0
  4  2  1  0
  4  5  1  0
  6  5  1  0
  6  7  1  6
  8  6  1  0
  8  9  2  0
 10 11  1  0
 11 13  1  0
 11 12  2  0
 13 14  1  0
 14 15  1  0
 16 15  1  0
 17 16  1  1
 18 17  1  0
 18  8  1  0
 19 20  2  0
 19 17  1  0
 22 23  1  0
 22 21  1  0
 23 24  1  0
 25 24  1  6
 25 26  1  0
 25 27  1  0
 26 19  1  0
 27 28  1  0
 29 27  2  0
M  END
$$$$
