QRM.pdb
     RDKit          3D

 29 28  0  0  1  0  0  0  0  0999 V2000
   14.7736  -17.7154   18.3049 N   0  0  0  0  0  0  0  0  0  0  0  0
   13.6607  -17.7927   17.4001 C   0  0  0  0  0  0  0  0  0  0  0  0
   13.8020  -17.6409   16.1457 O   0  0  0  0  0  0  0  0  0  0  0  0
   12.2870  -17.9492   17.8763 C   0  0  0  0  0  0  0  0  0  0  0  0
   12.2818  -18.2154   19.3906 C   0  0  0  0  0  0  0  0  0  0  0  0
   11.0770  -17.5468   19.8668 C   0  0  2  0  0  0  0  0  0  0  0  0
   10.9930  -16.2516   19.0777 N   0  0  0  0  0  0  0  0  0  0  0  0
   11.0286  -16.9578   21.2552 C   0  0  0  0  0  0  0  0  0  0  0  0
   11.1038  -17.5550   22.3171 O   0  0  0  0  0  0  0  0  0  0  0  0
    8.2425  -12.7156   18.0885 N   0  0  0  0  0  0  0  0  0  0  0  0
    7.9547  -13.9519   17.5851 C   0  0  0  0  0  0  0  0  0  0  0  0
    8.2604  -14.4015   16.5144 N   0  0  0  0  0  0  0  0  0  0  0  0
    7.2720  -14.9663   18.4298 N   0  0  0  0  0  0  0  0  0  0  0  0
    6.6736  -14.5566   19.7324 C   0  0  0  0  0  0  0  0  0  0  0  0
    7.5623  -14.6525   20.7977 C   0  0  0  0  0  0  0  0  0  0  0  0
    8.4341  -15.7377   21.2564 C   0  0  0  0  0  0  0  0  0  0  0  0
    9.4598  -15.4161   22.1467 C   0  0  2  0  0  0  0  0  0  0  0  0
   10.8300  -15.4240   21.4141 N   0  0  0  0  0  0  0  0  0  0  0  0
    9.6758  -15.8774   23.4599 C   0  0  0  0  0  0  0  0  0  0  0  0
    9.5089  -17.2076   23.7071 O   0  0  0  0  0  0  0  0  0  0  0  0
    8.1408  -15.3508   15.9865 C   0  0  0  0  0  0  0  0  0  0  0  0
    7.1514  -10.5050   27.4842 S   0  0  0  0  0  0  0  0  0  0  0  0
    7.2524  -11.8012   26.2341 C   0  0  0  0  0  0  0  0  0  0  0  0
    8.3096  -13.1992   26.7227 C   0  0  0  0  0  0  0  0  0  0  0  0
    8.5060  -14.0462   25.5704 C   0  0  2  0  0  0  0  0  0  0  0  0
    9.5184  -15.2877   25.8555 N   0  0  0  0  0  0  0  0  0  0  0  0
   10.1969  -15.2665   24.6352 C   0  0  0  0  0  0  0  0  0  0  0  0
    8.7056  -16.3855   26.2800 O   0  0  0  0  0  0  0  0  0  0  0  0
    8.8034  -16.8578   27.5888 O   0  0  0  0  0  0  0  0  0  0  0  0
  1  2  1  0
  2  3  2  0
  4  2  1  0
  4  5  1  0
  6  5  1  0
  6  7  1  6
  8  6  1  0
  8  9  2  0
 10 11  1  0
 11 13  1  0
 11 12  2  0
 13 14  1  0
 14 15  1  0
 16 15  1  0
 17 16  1  6
 18 17  1  0
 18  8  1  0
 19 20  2  0
 19 17  1  0
 22 23  1  0
 22 21  1  0
 23 24  1  0
 25 24  1  1
 25 26  1  0
 25 27  1  0
 26 19  1  0
 27 28  1  0
 29 27  2  0
M  END
$$$$
