QRM.pdb
     RDKit          3D

 29 28  0  0  1  0  0  0  0  0999 V2000
   11.3961  -18.1156   15.8300 N   0  0  0  0  0  0  0  0  0  0  0  0
   12.0340  -19.1649   16.5753 C   0  0  0  0  0  0  0  0  0  0  0  0
   12.6631  -20.1098   16.0028 O   0  0  0  0  0  0  0  0  0  0  0  0
   11.9119  -19.2642   18.0291 C   0  0  0  0  0  0  0  0  0  0  0  0
   11.1616  -18.0403   18.5794 C   0  0  0  0  0  0  0  0  0  0  0  0
   11.7521  -17.8204   19.8940 C   0  0  2  0  0  0  0  0  0  0  0  0
   11.3126  -19.0037   20.7391 N   0  0  0  0  0  0  0  0  0  0  0  0
   11.2408  -16.7159   20.7859 C   0  0  0  0  0  0  0  0  0  0  0  0
   11.5763  -15.5422   20.7793 O   0  0  0  0  0  0  0  0  0  0  0  0
    8.1368  -12.2862   18.9131 N   0  0  0  0  0  0  0  0  0  0  0  0
    7.9569  -13.4460   18.2151 C   0  0  0  0  0  0  0  0  0  0  0  0
    8.2798  -13.6828   17.0830 N   0  0  0  0  0  0  0  0  0  0  0  0
    7.3936  -14.6465   18.8859 N   0  0  0  0  0  0  0  0  0  0  0  0
    6.8282  -14.5241   20.2600 C   0  0  0  0  0  0  0  0  0  0  0  0
    7.7345  -14.8666   21.2576 C   0  0  0  0  0  0  0  0  0  0  0  0
    9.1985  -14.9319   21.2759 C   0  0  0  0  0  0  0  0  0  0  0  0
    9.8059  -15.6207   22.3269 C   0  0  2  0  0  0  0  0  0  0  0  0
   10.1885  -17.0582   21.8780 N   0  0  0  0  0  0  0  0  0  0  0  0
    9.4330  -15.6829   23.6837 C   0  0  0  0  0  0  0  0  0  0  0  0
    8.6644  -16.7333   24.0892 O   0  0  0  0  0  0  0  0  0  0  0  0
    8.1706  -14.5136   16.3816 C   0  0  0  0  0  0  0  0  0  0  0  0
    6.2636  -10.9194   27.5256 S   0  0  0  0  0  0  0  0  0  0  0  0
    6.6614  -12.1936   26.3125 C   0  0  0  0  0  0  0  0  0  0  0  0
    7.5423  -13.6194   27.0207 C   0  0  0  0  0  0  0  0  0  0  0  0
    7.8563  -14.5374   25.9519 C   0  0  2  0  0  0  0  0  0  0  0  0
    9.3227  -15.2248   26.1105 N   0  0  0  0  0  0  0  0  0  0  0  0
    9.8099  -14.9346   24.8345 C   0  0  0  0  0  0  0  0  0  0  0  0
    9.0981  -16.5577   26.5781 O   0  0  0  0  0  0  0  0  0  0  0  0
    9.4003  -16.8917   27.8983 O   0  0  0  0  0  0  0  0  0  0  0  0
  1  2  1  0
  2  3  2  0
  4  2  1  0
  4  5  1  0
  6  5  1  0
  6  7  1  1
  8  6  1  0
  8  9  2  0
 10 11  1  0
 11 13  1  0
 11 12  2  0
 13 14  1  0
 14 15  1  0
 16 15  1  0
 17 16  1  6
 18 17  1  0
 18  8  1  0
 19 20  2  0
 19 17  1  0
 22 23  1  0
 22 21  1  0
 23 24  1  0
 25 24  1  1
 25 26  1  0
 25 27  1  0
 26 19  1  0
 27 28  1  0
 29 27  2  0
M  END
$$$$
