QRM.pdb
     RDKit          3D

 29 28  0  0  1  0  0  0  0  0999 V2000
    9.6891  -12.5138   18.6610 N   0  0  0  0  0  0  0  0  0  0  0  0
    8.6523  -12.8611   17.7295 C   0  0  0  0  0  0  0  0  0  0  0  0
    8.6691  -12.4586   16.5236 O   0  0  0  0  0  0  0  0  0  0  0  0
    7.4661  -13.6122   18.1383 C   0  0  0  0  0  0  0  0  0  0  0  0
    7.5924  -14.0353   19.6110 C   0  0  0  0  0  0  0  0  0  0  0  0
    8.2728  -15.3234   19.5558 C   0  0  2  0  0  0  0  0  0  0  0  0
    7.2119  -16.3246   19.1320 N   0  0  0  0  0  0  0  0  0  0  0  0
    8.7197  -16.0061   20.8251 C   0  0  0  0  0  0  0  0  0  0  0  0
    8.0388  -16.6729   21.5878 O   0  0  0  0  0  0  0  0  0  0  0  0
   11.4560  -23.2177   21.5184 N   0  0  0  0  0  0  0  0  0  0  0  0
   11.9917  -22.0925   20.9602 C   0  0  0  0  0  0  0  0  0  0  0  0
   12.8413  -22.0218   20.1145 N   0  0  0  0  0  0  0  0  0  0  0  0
   11.4507  -20.7522   21.3055 N   0  0  0  0  0  0  0  0  0  0  0  0
   12.0934  -19.5315   20.7402 C   0  0  0  0  0  0  0  0  0  0  0  0
   11.4532  -18.3539   21.1109 C   0  0  0  0  0  0  0  0  0  0  0  0
   11.2177  -17.7317   22.4168 C   0  0  0  0  0  0  0  0  0  0  0  0
   10.1872  -16.7956   22.5151 C   0  0  2  0  0  0  0  0  0  0  0  0
   10.1982  -15.8518   21.2808 N   0  0  0  0  0  0  0  0  0  0  0  0
    9.7776  -16.0363   23.6286 C   0  0  0  0  0  0  0  0  0  0  0  0
   10.2573  -14.7659   23.7490 O   0  0  0  0  0  0  0  0  0  0  0  0
   13.4253  -21.2309   19.6373 C   0  0  0  0  0  0  0  0  0  0  0  0
    6.5502  -11.3405   27.4648 S   0  0  0  0  0  0  0  0  0  0  0  0
    7.0106  -12.5554   26.2137 C   0  0  0  0  0  0  0  0  0  0  0  0
    6.5576  -14.2608   26.6575 C   0  0  0  0  0  0  0  0  0  0  0  0
    7.0654  -15.1471   25.6375 C   0  0  2  0  0  0  0  0  0  0  0  0
    8.6713  -15.3875   25.7419 N   0  0  0  0  0  0  0  0  0  0  0  0
    8.8084  -16.2466   24.6496 C   0  0  0  0  0  0  0  0  0  0  0  0
    8.9355  -15.7867   27.0897 O   0  0  0  0  0  0  0  0  0  0  0  0
    9.2083  -17.1239   27.3782 O   0  0  0  0  0  0  0  0  0  0  0  0
  1  2  1  0
  2  3  2  0
  4  2  1  0
  4  5  1  0
  6  5  1  0
  6  7  1  1
  8  6  1  0
  8  9  2  0
 10 11  1  0
 11 13  1  0
 11 12  2  0
 13 14  1  0
 14 15  1  0
 16 15  1  0
 17 16  1  1
 18 17  1  0
 18  8  1  0
 19 20  2  0
 19 17  1  0
 22 23  1  0
 22 21  1  0
 23 24  1  0
 25 24  1  6
 25 26  1  0
 25 27  1  0
 26 19  1  0
 27 28  1  0
 29 27  2  0
M  END
$$$$
