LHQ.pdb
     RDKit          3D

 28 28  0  0  1  0  0  0  0  0999 V2000
    7.1672  -12.2364   19.1137 C   0  0  0  0  0  0  0  0  0  0  0  0
    8.0965  -13.4198   19.2649 C   0  0  1  0  0  0  0  0  0  0  0  0
    9.5023  -12.9237   19.1660 C   0  0  0  0  0  0  0  0  0  0  0  0
    7.7816  -14.1209   20.5525 C   0  0  0  0  0  0  0  0  0  0  0  0
    8.7687  -15.2692   20.7780 C   0  0  2  0  0  0  0  0  0  0  0  0
    8.8709  -16.1142   19.6316 N   0  0  0  0  0  0  0  0  0  0  0  0
    8.4588  -15.9971   22.0220 C   0  0  0  0  0  0  0  0  0  0  0  0
    8.2623  -15.3425   23.0782 O   0  0  0  0  0  0  0  0  0  0  0  0
    8.3749  -17.4275   22.0635 N   0  0  0  0  0  0  0  0  0  0  0  0
    8.0126  -18.1434   23.2484 C   0  0  1  0  0  0  0  0  0  0  0  0
    7.8547  -19.6229   22.9803 C   0  0  0  0  0  0  0  0  0  0  0  0
    7.3891  -20.3070   24.2133 C   0  0  0  0  0  0  0  0  0  0  0  0
    7.1091  -19.6732   25.4221 C   0  0  0  0  0  0  0  0  0  0  0  0
    6.7210  -20.6072   26.2906 N   0  0  0  0  0  0  0  0  0  0  0  0
    6.7380  -21.8059   25.7006 C   0  0  0  0  0  0  0  0  0  0  0  0
    7.1479  -21.6026   24.4345 N   0  0  0  0  0  0  0  0  0  0  0  0
    8.9407  -17.8594   24.3453 C   0  0  0  0  0  0  0  0  0  0  0  0
   10.1850  -17.8881   24.0951 O   0  0  0  0  0  0  0  0  0  0  0  0
    8.9178  -13.2802   28.1529 N   0  0  0  0  0  0  0  0  0  0  0  0
   10.0093  -13.9824   28.6927 C   0  0  0  0  0  0  0  0  0  0  0  0
   10.7252  -13.4551   29.5517 O   0  0  0  0  0  0  0  0  0  0  0  0
   10.2902  -15.3832   28.2079 C   0  0  0  0  0  0  0  0  0  0  0  0
    9.3030  -15.7806   27.1492 C   0  0  0  0  0  0  0  0  0  0  0  0
    9.5596  -17.1588   26.6628 C   0  0  2  0  0  0  0  0  0  0  0  0
    8.5619  -17.5559   25.6610 N   0  0  0  0  0  0  0  0  0  0  0  0
    9.6257  -18.1339   27.7472 C   0  0  0  0  0  0  0  0  0  0  0  0
    8.6183  -19.0030   28.0864 O   0  0  0  0  0  0  0  0  0  0  0  0
   10.6854  -18.1965   28.4433 O   0  0  0  0  0  0  0  0  0  0  0  0
  2  1  1  1
  2  3  1  0
  4  5  1  0
  4  2  1  0
  5  6  1  6
  7  8  2  0
  7  5  1  0
  9  7  1  0
 10  9  1  0
 11 12  1  0
 10 11  1  6
 12 13  2  0
 12 16  1  0
 13 14  1  0
 14 15  1  0
 16 15  2  0
 17 18  2  0
 17 10  1  0
 19 20  1  0
 20 22  1  0
 21 20  2  0
 22 23  1  0
 24 23  1  1
 24 25  1  0
 25 17  1  0
 26 24  1  0
 27 26  1  0
 28 26  2  0
M  END
$$$$
