LHQ.pdb
     RDKit          3D

 28 28  0  0  1  0  0  0  0  0999 V2000
    8.4141  -12.0549   19.8806 C   0  0  0  0  0  0  0  0  0  0  0  0
    7.9506  -13.4067   20.3752 C   0  0  1  0  0  0  0  0  0  0  0  0
    6.4859  -13.3220   20.6579 C   0  0  0  0  0  0  0  0  0  0  0  0
    8.3213  -14.4465   19.3605 C   0  0  0  0  0  0  0  0  0  0  0  0
    9.0748  -15.5940   20.0382 C   0  0  2  0  0  0  0  0  0  0  0  0
    9.3392  -15.3162   21.4136 N   0  0  0  0  0  0  0  0  0  0  0  0
   10.2767  -15.9652   19.2694 C   0  0  0  0  0  0  0  0  0  0  0  0
   10.1840  -16.8565   18.3865 O   0  0  0  0  0  0  0  0  0  0  0  0
   11.5467  -15.3410   19.4981 N   0  0  0  0  0  0  0  0  0  0  0  0
   12.6955  -15.6144   18.6900 C   0  0  1  0  0  0  0  0  0  0  0  0
   12.8453  -14.6061   17.5735 C   0  0  0  0  0  0  0  0  0  0  0  0
   12.1043  -15.0745   16.3748 C   0  0  0  0  0  0  0  0  0  0  0  0
   12.4671  -16.1640   15.5859 C   0  0  0  0  0  0  0  0  0  0  0  0
   11.5684  -16.2748   14.6075 N   0  0  0  0  0  0  0  0  0  0  0  0
   10.6491  -15.3128   14.7292 C   0  0  0  0  0  0  0  0  0  0  0  0
   10.9927  -14.5910   15.8125 N   0  0  0  0  0  0  0  0  0  0  0  0
   13.9032  -15.7406   19.5090 C   0  0  0  0  0  0  0  0  0  0  0  0
   14.0528  -14.9339   20.4778 O   0  0  0  0  0  0  0  0  0  0  0  0
   17.1139  -20.9798   21.8404 N   0  0  0  0  0  0  0  0  0  0  0  0
   16.8250  -19.8134   22.5698 C   0  0  0  0  0  0  0  0  0  0  0  0
   16.4441  -19.8918   23.7434 O   0  0  0  0  0  0  0  0  0  0  0  0
   16.9869  -18.4718   21.8990 C   0  0  0  0  0  0  0  0  0  0  0  0
   15.8452  -18.2130   20.9596 C   0  0  0  0  0  0  0  0  0  0  0  0
   15.9758  -16.8880   20.3044 C   0  0  2  0  0  0  0  0  0  0  0  0
   14.9163  -16.6890   19.3071 N   0  0  0  0  0  0  0  0  0  0  0  0
   17.2941  -16.6818   19.7123 C   0  0  0  0  0  0  0  0  0  0  0  0
   17.5261  -16.3898   18.3907 O   0  0  0  0  0  0  0  0  0  0  0  0
   18.3165  -16.7787   20.4584 O   0  0  0  0  0  0  0  0  0  0  0  0
  2  1  1  6
  2  3  1  0
  4  5  1  0
  4  2  1  0
  5  6  1  1
  7  8  2  0
  7  5  1  0
  9  7  1  0
 10  9  1  0
 11 12  1  0
 10 11  1  6
 12 13  2  0
 12 16  1  0
 13 14  1  0
 14 15  1  0
 16 15  2  0
 17 18  2  0
 17 10  1  0
 19 20  1  0
 20 22  1  0
 21 20  2  0
 22 23  1  0
 24 23  1  6
 24 25  1  0
 25 17  1  0
 26 24  1  0
 27 26  1  0
 28 26  2  0
M  END
$$$$
