LHQ.pdb
     RDKit          3D

 28 28  0  0  1  0  0  0  0  0999 V2000
    5.3674  -11.5226   26.3241 C   0  0  0  0  0  0  0  0  0  0  0  0
    6.5938  -12.4033   26.2402 C   0  0  1  0  0  0  0  0  0  0  0  0
    7.4877  -12.0676   27.3894 C   0  0  0  0  0  0  0  0  0  0  0  0
    6.1580  -13.8374   26.1995 C   0  0  0  0  0  0  0  0  0  0  0  0
    7.3090  -14.7206   25.7106 C   0  0  2  0  0  0  0  0  0  0  0  0
    8.5753  -14.2410   26.1634 N   0  0  0  0  0  0  0  0  0  0  0  0
    7.2407  -14.9198   24.2515 C   0  0  0  0  0  0  0  0  0  0  0  0
    6.2837  -15.5800   23.7708 O   0  0  0  0  0  0  0  0  0  0  0  0
    8.2316  -14.3838   23.3651 N   0  0  0  0  0  0  0  0  0  0  0  0
    8.2664  -14.6975   21.9694 C   0  0  1  0  0  0  0  0  0  0  0  0
    8.0074  -13.4763   21.1164 C   0  0  0  0  0  0  0  0  0  0  0  0
    8.0846  -13.8451   19.6800 C   0  0  0  0  0  0  0  0  0  0  0  0
    8.6653  -13.0629   18.6839 C   0  0  0  0  0  0  0  0  0  0  0  0
    8.5438  -13.7186   17.5295 N   0  0  0  0  0  0  0  0  0  0  0  0
    7.9155  -14.8797   17.7349 C   0  0  0  0  0  0  0  0  0  0  0  0
    7.6434  -14.9391   19.0521 N   0  0  0  0  0  0  0  0  0  0  0  0
    9.5066  -15.3894   21.6112 C   0  0  0  0  0  0  0  0  0  0  0  0
   10.5739  -15.0452   22.2063 O   0  0  0  0  0  0  0  0  0  0  0  0
   12.5688  -18.8274   23.7543 N   0  0  0  0  0  0  0  0  0  0  0  0
   11.2502  -19.1944   23.4344 C   0  0  0  0  0  0  0  0  0  0  0  0
   10.6494  -20.0233   24.1276 O   0  0  0  0  0  0  0  0  0  0  0  0
   10.5848  -18.5627   22.2368 C   0  0  0  0  0  0  0  0  0  0  0  0
   11.5248  -17.6120   21.5543 C   0  0  0  0  0  0  0  0  0  0  0  0
   10.9079  -17.0222   20.3404 C   0  0  2  0  0  0  0  0  0  0  0  0
    9.6106  -16.4105   20.6556 N   0  0  0  0  0  0  0  0  0  0  0  0
   10.7788  -17.9858   19.2514 C   0  0  0  0  0  0  0  0  0  0  0  0
   11.8258  -18.6452   18.6559 O   0  0  0  0  0  0  0  0  0  0  0  0
    9.6192  -18.2452   18.8048 O   0  0  0  0  0  0  0  0  0  0  0  0
  2  1  1  1
  2  3  1  0
  4  5  1  0
  4  2  1  0
  5  6  1  6
  7  8  2  0
  7  5  1  0
  9  7  1  0
 10  9  1  0
 11 12  1  0
 10 11  1  6
 12 13  2  0
 12 16  1  0
 13 14  1  0
 14 15  1  0
 16 15  2  0
 17 18  2  0
 17 10  1  0
 19 20  1  0
 20 22  1  0
 21 20  2  0
 22 23  1  0
 24 23  1  1
 24 25  1  0
 25 17  1  0
 26 24  1  0
 27 26  1  0
 28 26  2  0
M  END
$$$$
