LHQ.pdb
     RDKit          3D

 28 28  0  0  1  0  0  0  0  0999 V2000
    7.2883  -11.2365   27.6894 C   0  0  0  0  0  0  0  0  0  0  0  0
    6.3575  -12.2395   27.0457 C   0  0  1  0  0  0  0  0  0  0  0  0
    5.3397  -11.4874   26.2515 C   0  0  0  0  0  0  0  0  0  0  0  0
    7.1715  -13.2082   26.2410 C   0  0  0  0  0  0  0  0  0  0  0  0
    6.2642  -14.2921   25.6528 C   0  0  2  0  0  0  0  0  0  0  0  0
    5.6080  -15.0459   26.6725 N   0  0  0  0  0  0  0  0  0  0  0  0
    6.9960  -15.1252   24.6814 C   0  0  0  0  0  0  0  0  0  0  0  0
    7.2771  -16.3128   24.9868 O   0  0  0  0  0  0  0  0  0  0  0  0
    7.3965  -14.6224   23.4001 N   0  0  0  0  0  0  0  0  0  0  0  0
    8.0436  -15.4400   22.4202 C   0  0  1  0  0  0  0  0  0  0  0  0
    8.0124  -14.8002   21.0507 C   0  0  0  0  0  0  0  0  0  0  0  0
    8.5276  -15.7583   20.0399 C   0  0  0  0  0  0  0  0  0  0  0  0
    7.7393  -16.6210   19.2812 C   0  0  0  0  0  0  0  0  0  0  0  0
    8.5505  -17.3229   18.4897 N   0  0  0  0  0  0  0  0  0  0  0  0
    9.8171  -16.9544   18.7023 C   0  0  0  0  0  0  0  0  0  0  0  0
    9.7831  -15.9996   19.6508 N   0  0  0  0  0  0  0  0  0  0  0  0
    9.3957  -15.8092   22.8454 C   0  0  0  0  0  0  0  0  0  0  0  0
   10.2070  -14.8746   23.1283 O   0  0  0  0  0  0  0  0  0  0  0  0
   11.3829  -21.0383   25.6019 N   0  0  0  0  0  0  0  0  0  0  0  0
   12.5515  -20.2572   25.6116 C   0  0  0  0  0  0  0  0  0  0  0  0
   13.5496  -20.6384   26.2338 O   0  0  0  0  0  0  0  0  0  0  0  0
   12.5662  -18.9527   24.8538 C   0  0  0  0  0  0  0  0  0  0  0  0
   11.2426  -18.7184   24.1858 C   0  0  0  0  0  0  0  0  0  0  0  0
   11.2065  -17.3982   23.5090 C   0  0  2  0  0  0  0  0  0  0  0  0
    9.8700  -17.1234   22.9660 N   0  0  0  0  0  0  0  0  0  0  0  0
   12.2264  -17.2705   22.4724 C   0  0  0  0  0  0  0  0  0  0  0  0
   12.0116  -17.4607   21.1295 O   0  0  0  0  0  0  0  0  0  0  0  0
   13.4086  -16.9641   22.8186 O   0  0  0  0  0  0  0  0  0  0  0  0
  2  1  1  6
  2  3  1  0
  4  5  1  0
  4  2  1  0
  5  6  1  1
  7  8  2  0
  7  5  1  0
  9  7  1  0
 10  9  1  0
 11 12  1  0
 10 11  1  6
 12 13  2  0
 12 16  1  0
 13 14  1  0
 14 15  1  0
 16 15  2  0
 17 18  2  0
 17 10  1  0
 19 20  1  0
 20 22  1  0
 21 20  2  0
 22 23  1  0
 24 23  1  6
 24 25  1  0
 25 17  1  0
 26 24  1  0
 27 26  1  0
 28 26  2  0
M  END
$$$$
