LHQ.pdb
     RDKit          3D

 28 28  0  0  1  0  0  0  0  0999 V2000
    7.1660  -12.4936   28.3696 C   0  0  0  0  0  0  0  0  0  0  0  0
    6.4582  -12.9033   27.0977 C   0  0  1  0  0  0  0  0  0  0  0  0
    6.1527  -11.6673   26.3158 C   0  0  0  0  0  0  0  0  0  0  0  0
    7.3116  -13.8968   26.3675 C   0  0  0  0  0  0  0  0  0  0  0  0
    6.5392  -14.4775   25.1801 C   0  0  2  0  0  0  0  0  0  0  0  0
    5.3623  -15.1688   25.5993 N   0  0  0  0  0  0  0  0  0  0  0  0
    7.4218  -15.2842   24.3178 C   0  0  0  0  0  0  0  0  0  0  0  0
    7.3668  -16.5388   24.3932 O   0  0  0  0  0  0  0  0  0  0  0  0
    8.3402  -14.6817   23.3967 N   0  0  0  0  0  0  0  0  0  0  0  0
    9.3036  -15.4425   22.6615 C   0  0  1  0  0  0  0  0  0  0  0  0
    9.8799  -14.6499   21.5102 C   0  0  0  0  0  0  0  0  0  0  0  0
    8.8145  -14.3690   20.5145 C   0  0  0  0  0  0  0  0  0  0  0  0
    8.3631  -13.0984   20.1636 C   0  0  0  0  0  0  0  0  0  0  0  0
    7.4067  -13.2456   19.2466 N   0  0  0  0  0  0  0  0  0  0  0  0
    7.2225  -14.5443   18.9923 C   0  0  0  0  0  0  0  0  0  0  0  0
    8.0898  -15.2136   19.7748 N   0  0  0  0  0  0  0  0  0  0  0  0
   10.3335  -15.9923   23.5460 C   0  0  0  0  0  0  0  0  0  0  0  0
   10.9365  -15.1932   24.3267 O   0  0  0  0  0  0  0  0  0  0  0  0
    8.5071  -19.4987   27.4900 N   0  0  0  0  0  0  0  0  0  0  0  0
    9.8465  -19.5051   27.9165 C   0  0  0  0  0  0  0  0  0  0  0  0
   10.1413  -19.9414   29.0351 O   0  0  0  0  0  0  0  0  0  0  0  0
   10.9119  -18.9729   26.9903 C   0  0  0  0  0  0  0  0  0  0  0  0
   10.2944  -18.4414   25.7296 C   0  0  0  0  0  0  0  0  0  0  0  0
   11.3268  -17.9073   24.8072 C   0  0  2  0  0  0  0  0  0  0  0  0
   10.7100  -17.3420   23.6002 N   0  0  0  0  0  0  0  0  0  0  0  0
   12.3373  -18.9017   24.4590 C   0  0  0  0  0  0  0  0  0  0  0  0
   13.4671  -19.1658   25.1934 O   0  0  0  0  0  0  0  0  0  0  0  0
   12.1794  -19.5820   23.3990 O   0  0  0  0  0  0  0  0  0  0  0  0
  2  1  1  1
  2  3  1  0
  4  5  1  0
  4  2  1  0
  5  6  1  1
  7  8  2  0
  7  5  1  0
  9  7  1  0
 10  9  1  0
 11 12  1  0
 10 11  1  6
 12 13  2  0
 12 16  1  0
 13 14  1  0
 14 15  1  0
 16 15  2  0
 17 18  2  0
 17 10  1  0
 19 20  1  0
 20 22  1  0
 21 20  2  0
 22 23  1  0
 24 23  1  1
 24 25  1  0
 25 17  1  0
 26 24  1  0
 27 26  1  0
 28 26  2  0
M  END
$$$$
