LHQ.pdb
     RDKit          3D

 28 28  0  0  1  0  0  0  0  0999 V2000
    6.8405  -11.5010   27.1188 C   0  0  0  0  0  0  0  0  0  0  0  0
    6.2373  -12.6173   26.2960 C   0  0  1  0  0  0  0  0  0  0  0  0
    5.7781  -12.0418   24.9959 C   0  0  0  0  0  0  0  0  0  0  0  0
    7.2471  -13.7171   26.1585 C   0  0  0  0  0  0  0  0  0  0  0  0
    6.6598  -14.8669   25.3357 C   0  0  2  0  0  0  0  0  0  0  0  0
    5.6339  -15.5592   26.0476 N   0  0  0  0  0  0  0  0  0  0  0  0
    7.7240  -15.7507   24.8260 C   0  0  0  0  0  0  0  0  0  0  0  0
    8.0016  -16.7999   25.4624 O   0  0  0  0  0  0  0  0  0  0  0  0
    8.4512  -15.4501   23.6278 N   0  0  0  0  0  0  0  0  0  0  0  0
    9.4877  -16.2978   23.1232 C   0  0  1  0  0  0  0  0  0  0  0  0
    9.9812  -15.8322   21.7721 C   0  0  0  0  0  0  0  0  0  0  0  0
   10.9541  -16.8146   21.2301 C   0  0  0  0  0  0  0  0  0  0  0  0
   11.4395  -17.9233   21.9203 C   0  0  0  0  0  0  0  0  0  0  0  0
   12.2876  -18.5639   21.1156 N   0  0  0  0  0  0  0  0  0  0  0  0
   12.3703  -17.9229   19.9462 C   0  0  0  0  0  0  0  0  0  0  0  0
   11.5503  -16.8589   20.0350 N   0  0  0  0  0  0  0  0  0  0  0  0
   10.5675  -16.4559   24.1001 C   0  0  0  0  0  0  0  0  0  0  0  0
   11.2030  -15.4170   24.4586 O   0  0  0  0  0  0  0  0  0  0  0  0
   10.7558  -15.3223   28.3374 N   0  0  0  0  0  0  0  0  0  0  0  0
   10.9755  -16.6920   28.5640 C   0  0  0  0  0  0  0  0  0  0  0  0
   11.6012  -17.0650   29.5630 O   0  0  0  0  0  0  0  0  0  0  0  0
   10.4373  -17.6935   27.5722 C   0  0  0  0  0  0  0  0  0  0  0  0
   11.5630  -18.4309   26.9070 C   0  0  0  0  0  0  0  0  0  0  0  0
   12.0236  -17.7240   25.6864 C   0  0  2  0  0  0  0  0  0  0  0  0
   10.9589  -17.6730   24.6762 N   0  0  0  0  0  0  0  0  0  0  0  0
   13.2431  -18.3017   25.1293 C   0  0  0  0  0  0  0  0  0  0  0  0
   14.4544  -18.3546   25.7739 O   0  0  0  0  0  0  0  0  0  0  0  0
   13.2021  -18.7949   23.9604 O   0  0  0  0  0  0  0  0  0  0  0  0
  2  1  1  1
  2  3  1  0
  4  5  1  0
  4  2  1  0
  5  6  1  1
  7  8  2  0
  7  5  1  0
  9  7  1  0
 10  9  1  0
 11 12  1  0
 10 11  1  6
 12 13  2  0
 12 16  1  0
 13 14  1  0
 14 15  1  0
 16 15  2  0
 17 18  2  0
 17 10  1  0
 19 20  1  0
 20 22  1  0
 21 20  2  0
 22 23  1  0
 24 23  1  1
 24 25  1  0
 25 17  1  0
 26 24  1  0
 27 26  1  0
 28 26  2  0
M  END
$$$$
