LHQ.pdb
     RDKit          3D

 28 28  0  0  1  0  0  0  0  0999 V2000
    7.3132  -13.1370   20.5171 C   0  0  0  0  0  0  0  0  0  0  0  0
    8.0195  -13.5756   19.2539 C   0  0  1  0  0  0  0  0  0  0  0  0
    8.0963  -12.4024   18.3320 C   0  0  0  0  0  0  0  0  0  0  0  0
    9.3522  -14.1565   19.6214 C   0  0  0  0  0  0  0  0  0  0  0  0
   10.0926  -14.6070   18.3593 C   0  0  2  0  0  0  0  0  0  0  0  0
    9.2851  -15.4578   17.5453 N   0  0  0  0  0  0  0  0  0  0  0  0
   11.4070  -15.1846   18.6944 C   0  0  0  0  0  0  0  0  0  0  0  0
   11.4900  -16.4191   18.9218 O   0  0  0  0  0  0  0  0  0  0  0  0
   12.5921  -14.3816   18.7689 N   0  0  0  0  0  0  0  0  0  0  0  0
   13.8422  -14.8958   19.2384 C   0  0  1  0  0  0  0  0  0  0  0  0
   15.0135  -14.1838   18.6006 C   0  0  0  0  0  0  0  0  0  0  0  0
   15.3348  -14.8194   17.2975 C   0  0  0  0  0  0  0  0  0  0  0  0
   15.3080  -14.1720   16.0640 C   0  0  0  0  0  0  0  0  0  0  0  0
   15.6518  -15.0602   15.1311 N   0  0  0  0  0  0  0  0  0  0  0  0
   15.8974  -16.2423   15.7034 C   0  0  0  0  0  0  0  0  0  0  0  0
   15.6988  -16.0758   17.0245 N   0  0  0  0  0  0  0  0  0  0  0  0
   13.9020  -14.8921   20.7019 C   0  0  0  0  0  0  0  0  0  0  0  0
   12.8888  -14.4680   21.3383 O   0  0  0  0  0  0  0  0  0  0  0  0
   11.9387  -18.8939   23.0819 N   0  0  0  0  0  0  0  0  0  0  0  0
   12.4655  -18.4212   24.2964 C   0  0  0  0  0  0  0  0  0  0  0  0
   12.0210  -18.8388   25.3719 O   0  0  0  0  0  0  0  0  0  0  0  0
   13.5764  -17.4009   24.2645 C   0  0  0  0  0  0  0  0  0  0  0  0
   13.7065  -16.8088   22.8912 C   0  0  0  0  0  0  0  0  0  0  0  0
   14.8181  -15.8277   22.8303 C   0  0  2  0  0  0  0  0  0  0  0  0
   14.9982  -15.3232   21.4629 N   0  0  0  0  0  0  0  0  0  0  0  0
   16.0697  -16.3636   23.3570 C   0  0  0  0  0  0  0  0  0  0  0  0
   16.5502  -16.1399   24.6237 O   0  0  0  0  0  0  0  0  0  0  0  0
   16.7840  -17.0915   22.6011 O   0  0  0  0  0  0  0  0  0  0  0  0
  2  1  1  1
  2  3  1  0
  4  5  1  0
  4  2  1  0
  5  6  1  1
  7  8  2  0
  7  5  1  0
  9  7  1  0
 10  9  1  0
 11 12  1  0
 10 11  1  6
 12 13  2  0
 12 16  1  0
 13 14  1  0
 14 15  1  0
 16 15  2  0
 17 18  2  0
 17 10  1  0
 19 20  1  0
 20 22  1  0
 21 20  2  0
 22 23  1  0
 24 23  1  6
 24 25  1  0
 25 17  1  0
 26 24  1  0
 27 26  1  0
 28 26  2  0
M  END
$$$$
