LHQ.pdb
     RDKit          3D

 28 28  0  0  1  0  0  0  0  0999 V2000
    6.9567  -12.6046   19.1878 C   0  0  0  0  0  0  0  0  0  0  0  0
    8.3538  -13.1805   19.2454 C   0  0  1  0  0  0  0  0  0  0  0  0
    9.3153  -12.0521   19.4316 C   0  0  0  0  0  0  0  0  0  0  0  0
    8.4058  -14.2169   20.3277 C   0  0  0  0  0  0  0  0  0  0  0  0
    9.8436  -14.7096   20.5118 C   0  0  2  0  0  0  0  0  0  0  0  0
   10.4468  -15.0638   19.2671 N   0  0  0  0  0  0  0  0  0  0  0  0
    9.9115  -15.7777   21.5257 C   0  0  0  0  0  0  0  0  0  0  0  0
    9.0518  -15.8018   22.4439 O   0  0  0  0  0  0  0  0  0  0  0  0
   10.9273  -16.7887   21.4961 N   0  0  0  0  0  0  0  0  0  0  0  0
   11.0401  -17.7964   22.5058 C   0  0  1  0  0  0  0  0  0  0  0  0
   11.9744  -18.9075   22.0834 C   0  0  0  0  0  0  0  0  0  0  0  0
   11.3328  -19.7226   21.0207 C   0  0  0  0  0  0  0  0  0  0  0  0
   10.0501  -20.2620   21.0916 C   0  0  0  0  0  0  0  0  0  0  0  0
    9.8253  -20.9266   19.9580 N   0  0  0  0  0  0  0  0  0  0  0  0
   10.8974  -20.8407   19.1653 C   0  0  0  0  0  0  0  0  0  0  0  0
   11.8061  -20.1027   19.8303 N   0  0  0  0  0  0  0  0  0  0  0  0
   11.3979  -17.2132   23.8008 C   0  0  0  0  0  0  0  0  0  0  0  0
   12.4669  -16.5322   23.8723 O   0  0  0  0  0  0  0  0  0  0  0  0
    9.2630  -13.4410   29.5851 N   0  0  0  0  0  0  0  0  0  0  0  0
    9.1095  -14.2070   28.4165 C   0  0  0  0  0  0  0  0  0  0  0  0
    8.0216  -14.2357   27.8298 O   0  0  0  0  0  0  0  0  0  0  0  0
   10.2890  -14.9889   27.8937 C   0  0  0  0  0  0  0  0  0  0  0  0
    9.9020  -15.7685   26.6707 C   0  0  0  0  0  0  0  0  0  0  0  0
   11.0205  -16.6223   26.1993 C   0  0  2  0  0  0  0  0  0  0  0  0
   10.6479  -17.3479   24.9781 N   0  0  0  0  0  0  0  0  0  0  0  0
   11.4963  -17.5427   27.2276 C   0  0  0  0  0  0  0  0  0  0  0  0
   11.3998  -18.9110   27.1646 O   0  0  0  0  0  0  0  0  0  0  0  0
   12.0408  -17.0612   28.2683 O   0  0  0  0  0  0  0  0  0  0  0  0
  2  1  1  1
  2  3  1  0
  4  5  1  0
  4  2  1  0
  5  6  1  6
  7  8  2  0
  7  5  1  0
  9  7  1  0
 10  9  1  0
 11 12  1  0
 10 11  1  6
 12 13  2  0
 12 16  1  0
 13 14  1  0
 14 15  1  0
 16 15  2  0
 17 18  2  0
 17 10  1  0
 19 20  1  0
 20 22  1  0
 21 20  2  0
 22 23  1  0
 24 23  1  1
 24 25  1  0
 25 17  1  0
 26 24  1  0
 27 26  1  0
 28 26  2  0
M  END
$$$$
