LHQ.pdb
     RDKit          3D

 28 28  0  0  1  0  0  0  0  0999 V2000
    7.5043  -11.6912   19.5153 C   0  0  0  0  0  0  0  0  0  0  0  0
    8.1022  -13.0617   19.2895 C   0  0  1  0  0  0  0  0  0  0  0  0
    9.5310  -12.8863   18.8892 C   0  0  0  0  0  0  0  0  0  0  0  0
    7.9078  -13.8845   20.5279 C   0  0  0  0  0  0  0  0  0  0  0  0
    8.4430  -15.3013   20.3042 C   0  0  2  0  0  0  0  0  0  0  0  0
    7.7261  -15.9831   19.2747 N   0  0  0  0  0  0  0  0  0  0  0  0
    8.5078  -16.0492   21.5730 C   0  0  0  0  0  0  0  0  0  0  0  0
    7.5173  -16.0215   22.3480 O   0  0  0  0  0  0  0  0  0  0  0  0
    9.6653  -16.8065   21.9493 N   0  0  0  0  0  0  0  0  0  0  0  0
    9.7706  -17.4769   23.2091 C   0  0  1  0  0  0  0  0  0  0  0  0
   10.8499  -18.5355   23.1895 C   0  0  0  0  0  0  0  0  0  0  0  0
   10.8598  -19.2626   24.4843 C   0  0  0  0  0  0  0  0  0  0  0  0
    9.9331  -19.0831   25.5091 C   0  0  0  0  0  0  0  0  0  0  0  0
   10.2652  -19.9037   26.5059 N   0  0  0  0  0  0  0  0  0  0  0  0
   11.3563  -20.5990   26.1724 C   0  0  0  0  0  0  0  0  0  0  0  0
   11.7042  -20.1944   24.9364 N   0  0  0  0  0  0  0  0  0  0  0  0
    9.9304  -16.5213   24.3075 C   0  0  0  0  0  0  0  0  0  0  0  0
   10.9507  -15.7660   24.2962 O   0  0  0  0  0  0  0  0  0  0  0  0
    5.6586  -13.2108   26.7782 N   0  0  0  0  0  0  0  0  0  0  0  0
    6.6589  -12.6116   25.9933 C   0  0  0  0  0  0  0  0  0  0  0  0
    6.4585  -11.5133   25.4620 O   0  0  0  0  0  0  0  0  0  0  0  0
    7.9740  -13.3282   25.8115 C   0  0  0  0  0  0  0  0  0  0  0  0
    8.0161  -14.5704   26.6533 C   0  0  0  0  0  0  0  0  0  0  0  0
    9.2568  -15.3463   26.4076 C   0  0  2  0  0  0  0  0  0  0  0  0
    9.0391  -16.3726   25.3799 N   0  0  0  0  0  0  0  0  0  0  0  0
    9.8004  -15.9371   27.6269 C   0  0  0  0  0  0  0  0  0  0  0  0
   10.0032  -17.2802   27.8278 O   0  0  0  0  0  0  0  0  0  0  0  0
   10.1126  -15.1678   28.5872 O   0  0  0  0  0  0  0  0  0  0  0  0
  2  1  1  1
  2  3  1  0
  4  5  1  0
  4  2  1  0
  5  6  1  6
  7  8  2  0
  7  5  1  0
  9  7  1  0
 10  9  1  0
 11 12  1  0
 10 11  1  6
 12 13  2  0
 12 16  1  0
 13 14  1  0
 14 15  1  0
 16 15  2  0
 17 18  2  0
 17 10  1  0
 19 20  1  0
 20 22  1  0
 21 20  2  0
 22 23  1  0
 24 23  1  1
 24 25  1  0
 25 17  1  0
 26 24  1  0
 27 26  1  0
 28 26  2  0
M  END
$$$$
