LHQ.pdb
     RDKit          3D

 28 28  0  0  1  0  0  0  0  0999 V2000
    7.2210  -11.4341   27.3087 C   0  0  0  0  0  0  0  0  0  0  0  0
    6.5485  -12.1593   26.1647 C   0  0  1  0  0  0  0  0  0  0  0  0
    6.4993  -11.2348   24.9920 C   0  0  0  0  0  0  0  0  0  0  0  0
    7.2824  -13.4410   25.9062 C   0  0  0  0  0  0  0  0  0  0  0  0
    6.8320  -14.0421   24.5721 C   0  0  2  0  0  0  0  0  0  0  0  0
    5.4390  -14.3552   24.5744 N   0  0  0  0  0  0  0  0  0  0  0  0
    7.6912  -15.1759   24.1852 C   0  0  0  0  0  0  0  0  0  0  0  0
    7.7171  -16.1984   24.9175 O   0  0  0  0  0  0  0  0  0  0  0  0
    8.4973  -15.1475   23.0002 N   0  0  0  0  0  0  0  0  0  0  0  0
    9.3519  -16.2318   22.6243 C   0  0  1  0  0  0  0  0  0  0  0  0
    9.9414  -16.0264   21.2473 C   0  0  0  0  0  0  0  0  0  0  0  0
   10.6906  -17.2416   20.8384 C   0  0  0  0  0  0  0  0  0  0  0  0
   10.1106  -18.4181   20.3687 C   0  0  0  0  0  0  0  0  0  0  0  0
   11.0937  -19.2792   20.1055 N   0  0  0  0  0  0  0  0  0  0  0  0
   12.2728  -18.7150   20.3822 C   0  0  0  0  0  0  0  0  0  0  0  0
   12.0067  -17.4728   20.8279 N   0  0  0  0  0  0  0  0  0  0  0  0
   10.3692  -16.4856   23.6470 C   0  0  0  0  0  0  0  0  0  0  0  0
   10.9763  -15.4874   24.1437 O   0  0  0  0  0  0  0  0  0  0  0  0
   10.4786  -20.4681   28.2699 N   0  0  0  0  0  0  0  0  0  0  0  0
   11.7880  -19.9672   28.3707 C   0  0  0  0  0  0  0  0  0  0  0  0
   12.5081  -20.2947   29.3209 O   0  0  0  0  0  0  0  0  0  0  0  0
   12.2964  -19.0280   27.3051 C   0  0  0  0  0  0  0  0  0  0  0  0
   11.2413  -18.7955   26.2630 C   0  0  0  0  0  0  0  0  0  0  0  0
   11.7359  -17.9044   25.1844 C   0  0  2  0  0  0  0  0  0  0  0  0
   10.7295  -17.7536   24.1256 N   0  0  0  0  0  0  0  0  0  0  0  0
   13.0120  -18.3476   24.6309 C   0  0  0  0  0  0  0  0  0  0  0  0
   14.2380  -18.1343   25.2113 O   0  0  0  0  0  0  0  0  0  0  0  0
   13.0096  -18.9769   23.5284 O   0  0  0  0  0  0  0  0  0  0  0  0
  2  1  1  1
  2  3  1  0
  4  5  1  0
  4  2  1  0
  5  6  1  1
  7  8  2  0
  7  5  1  0
  9  7  1  0
 10  9  1  0
 11 12  1  0
 10 11  1  6
 12 13  2  0
 12 16  1  0
 13 14  1  0
 14 15  1  0
 16 15  2  0
 17 18  2  0
 17 10  1  0
 19 20  1  0
 20 22  1  0
 21 20  2  0
 22 23  1  0
 24 23  1  1
 24 25  1  0
 25 17  1  0
 26 24  1  0
 27 26  1  0
 28 26  2  0
M  END
$$$$
