LHQ.pdb
     RDKit          3D

 28 28  0  0  1  0  0  0  0  0999 V2000
    7.9391  -11.7338   19.6097 C   0  0  0  0  0  0  0  0  0  0  0  0
    8.2523  -13.2120   19.5501 C   0  0  1  0  0  0  0  0  0  0  0  0
    7.1542  -13.8908   18.7981 C   0  0  0  0  0  0  0  0  0  0  0  0
    9.6133  -13.3944   18.9478 C   0  0  0  0  0  0  0  0  0  0  0  0
   10.0469  -14.8578   19.0678 C   0  0  2  0  0  0  0  0  0  0  0  0
    8.9487  -15.7530   18.8916 N   0  0  0  0  0  0  0  0  0  0  0  0
   10.8004  -15.0862   20.3142 C   0  0  0  0  0  0  0  0  0  0  0  0
   11.8093  -14.3744   20.5555 O   0  0  0  0  0  0  0  0  0  0  0  0
   10.4177  -16.0945   21.2585 N   0  0  0  0  0  0  0  0  0  0  0  0
   11.1796  -16.3746   22.4369 C   0  0  1  0  0  0  0  0  0  0  0  0
   10.5405  -17.4631   23.2691 C   0  0  0  0  0  0  0  0  0  0  0  0
   11.3149  -17.6537   24.5218 C   0  0  0  0  0  0  0  0  0  0  0  0
   11.8899  -16.6288   25.2701 C   0  0  0  0  0  0  0  0  0  0  0  0
   12.4998  -17.1832   26.3179 N   0  0  0  0  0  0  0  0  0  0  0  0
   12.3452  -18.5098   26.2791 C   0  0  0  0  0  0  0  0  0  0  0  0
   11.6201  -18.7778   25.1769 N   0  0  0  0  0  0  0  0  0  0  0  0
   12.5794  -16.6558   22.1100 C   0  0  0  0  0  0  0  0  0  0  0  0
   12.8317  -17.6784   21.4013 O   0  0  0  0  0  0  0  0  0  0  0  0
   15.4438  -14.0353   17.7904 N   0  0  0  0  0  0  0  0  0  0  0  0
   15.8719  -14.2394   19.1136 C   0  0  0  0  0  0  0  0  0  0  0  0
   16.8379  -13.6096   19.5593 O   0  0  0  0  0  0  0  0  0  0  0  0
   15.1359  -15.2351   19.9755 C   0  0  0  0  0  0  0  0  0  0  0  0
   15.7190  -15.2651   21.3584 C   0  0  0  0  0  0  0  0  0  0  0  0
   15.0486  -16.2834   22.2043 C   0  0  2  0  0  0  0  0  0  0  0  0
   13.6726  -15.8793   22.5206 N   0  0  0  0  0  0  0  0  0  0  0  0
   15.7966  -16.5830   23.4216 C   0  0  0  0  0  0  0  0  0  0  0  0
   17.0338  -17.1774   23.4588 O   0  0  0  0  0  0  0  0  0  0  0  0
   15.2797  -16.2816   24.5412 O   0  0  0  0  0  0  0  0  0  0  0  0
  2  1  1  6
  2  3  1  0
  4  5  1  0
  4  2  1  0
  5  6  1  1
  7  8  2  0
  7  5  1  0
  9  7  1  0
 10  9  1  0
 11 12  1  0
 10 11  1  6
 12 13  2  0
 12 16  1  0
 13 14  1  0
 14 15  1  0
 16 15  2  0
 17 18  2  0
 17 10  1  0
 19 20  1  0
 20 22  1  0
 21 20  2  0
 22 23  1  0
 24 23  1  1
 24 25  1  0
 25 17  1  0
 26 24  1  0
 27 26  1  0
 28 26  2  0
M  END
$$$$
