LHQ.pdb
     RDKit          3D

 28 28  0  0  1  0  0  0  0  0999 V2000
    7.6006  -12.2241   18.9146 C   0  0  0  0  0  0  0  0  0  0  0  0
    8.0066  -13.6707   19.0862 C   0  0  1  0  0  0  0  0  0  0  0  0
    9.4821  -13.7688   18.8726 C   0  0  0  0  0  0  0  0  0  0  0  0
    7.5478  -14.1456   20.4325 C   0  0  0  0  0  0  0  0  0  0  0  0
    7.9146  -15.6201   20.6202 C   0  0  2  0  0  0  0  0  0  0  0  0
    7.2682  -16.4544   19.6586 N   0  0  0  0  0  0  0  0  0  0  0  0
    7.6953  -16.0469   22.0142 C   0  0  0  0  0  0  0  0  0  0  0  0
    6.5975  -15.7801   22.5676 O   0  0  0  0  0  0  0  0  0  0  0  0
    8.6953  -16.7563   22.7569 N   0  0  0  0  0  0  0  0  0  0  0  0
    8.4940  -17.1806   24.1085 C   0  0  1  0  0  0  0  0  0  0  0  0
    9.0270  -18.5762   24.3406 C   0  0  0  0  0  0  0  0  0  0  0  0
    8.0188  -19.5750   23.9034 C   0  0  0  0  0  0  0  0  0  0  0  0
    6.7539  -19.2690   23.4058 C   0  0  0  0  0  0  0  0  0  0  0  0
    6.1395  -20.4177   23.1226 N   0  0  0  0  0  0  0  0  0  0  0  0
    6.9454  -21.4431   23.4132 C   0  0  0  0  0  0  0  0  0  0  0  0
    8.0865  -20.9095   23.8880 N   0  0  0  0  0  0  0  0  0  0  0  0
    9.0287  -16.2018   25.0579 C   0  0  0  0  0  0  0  0  0  0  0  0
   10.2285  -15.8165   24.9037 O   0  0  0  0  0  0  0  0  0  0  0  0
    6.2700  -11.5229   27.6035 N   0  0  0  0  0  0  0  0  0  0  0  0
    6.8903  -11.6099   26.3452 C   0  0  0  0  0  0  0  0  0  0  0  0
    6.6632  -10.7572   25.4792 O   0  0  0  0  0  0  0  0  0  0  0  0
    7.8328  -12.7557   26.0715 C   0  0  0  0  0  0  0  0  0  0  0  0
    8.0785  -13.5445   27.3247 C   0  0  0  0  0  0  0  0  0  0  0  0
    8.9555  -14.7126   27.0633 C   0  0  2  0  0  0  0  0  0  0  0  0
    8.3156  -15.6513   26.1326 N   0  0  0  0  0  0  0  0  0  0  0  0
    9.3660  -15.3921   28.2884 C   0  0  0  0  0  0  0  0  0  0  0  0
   10.1955  -14.8587   29.2439 O   0  0  0  0  0  0  0  0  0  0  0  0
    8.9368  -16.5672   28.5037 O   0  0  0  0  0  0  0  0  0  0  0  0
  2  1  1  1
  2  3  1  0
  4  5  1  0
  4  2  1  0
  5  6  1  6
  7  8  2  0
  7  5  1  0
  9  7  1  0
 10  9  1  0
 11 12  1  0
 10 11  1  6
 12 13  2  0
 12 16  1  0
 13 14  1  0
 14 15  1  0
 16 15  2  0
 17 18  2  0
 17 10  1  0
 19 20  1  0
 20 22  1  0
 21 20  2  0
 22 23  1  0
 24 23  1  1
 24 25  1  0
 25 17  1  0
 26 24  1  0
 27 26  1  0
 28 26  2  0
M  END
$$$$
