LHQ.pdb
     RDKit          3D

 28 28  0  0  1  0  0  0  0  0999 V2000
    6.8438  -12.8152   19.0975 C   0  0  0  0  0  0  0  0  0  0  0  0
    8.2249  -13.4244   19.1876 C   0  0  1  0  0  0  0  0  0  0  0  0
    9.2272  -12.3185   19.1178 C   0  0  0  0  0  0  0  0  0  0  0  0
    8.3085  -14.2514   20.4356 C   0  0  0  0  0  0  0  0  0  0  0  0
    9.7411  -14.7528   20.6361 C   0  0  2  0  0  0  0  0  0  0  0  0
   10.3188  -15.2118   19.4137 N   0  0  0  0  0  0  0  0  0  0  0  0
    9.8082  -15.7409   21.7282 C   0  0  0  0  0  0  0  0  0  0  0  0
    9.1240  -15.5491   22.7663 O   0  0  0  0  0  0  0  0  0  0  0  0
   10.6294  -16.9126   21.6421 N   0  0  0  0  0  0  0  0  0  0  0  0
   10.6745  -17.8989   22.6778 C   0  0  1  0  0  0  0  0  0  0  0  0
   11.4196  -19.1382   22.2364 C   0  0  0  0  0  0  0  0  0  0  0  0
   10.6302  -19.8535   21.2018 C   0  0  0  0  0  0  0  0  0  0  0  0
    9.2477  -20.0241   21.2270 C   0  0  0  0  0  0  0  0  0  0  0  0
    8.9030  -20.7125   20.1387 N   0  0  0  0  0  0  0  0  0  0  0  0
    9.9930  -20.9914   19.4181 C   0  0  0  0  0  0  0  0  0  0  0  0
   11.0363  -20.4596   20.0822 N   0  0  0  0  0  0  0  0  0  0  0  0
   11.1954  -17.3357   23.9255 C   0  0  0  0  0  0  0  0  0  0  0  0
   12.3182  -16.7444   23.8889 O   0  0  0  0  0  0  0  0  0  0  0  0
    9.9887  -13.5609   29.8931 N   0  0  0  0  0  0  0  0  0  0  0  0
   10.1576  -13.8455   28.5270 C   0  0  0  0  0  0  0  0  0  0  0  0
    9.6984  -13.0811   27.6707 O   0  0  0  0  0  0  0  0  0  0  0  0
   10.9049  -15.0934   28.1263 C   0  0  0  0  0  0  0  0  0  0  0  0
   10.3395  -15.6593   26.8562 C   0  0  0  0  0  0  0  0  0  0  0  0
   11.1514  -16.8006   26.3661 C   0  0  2  0  0  0  0  0  0  0  0  0
   10.5478  -17.3977   25.1678 N   0  0  0  0  0  0  0  0  0  0  0  0
   11.3775  -17.8116   27.3946 C   0  0  0  0  0  0  0  0  0  0  0  0
   10.8830  -19.0922   27.3613 O   0  0  0  0  0  0  0  0  0  0  0  0
   12.0793  -17.5021   28.4060 O   0  0  0  0  0  0  0  0  0  0  0  0
  2  1  1  1
  2  3  1  0
  4  5  1  0
  4  2  1  0
  5  6  1  6
  7  8  2  0
  7  5  1  0
  9  7  1  0
 10  9  1  0
 11 12  1  0
 10 11  1  6
 12 13  2  0
 12 16  1  0
 13 14  1  0
 14 15  1  0
 16 15  2  0
 17 18  2  0
 17 10  1  0
 19 20  1  0
 20 22  1  0
 21 20  2  0
 22 23  1  0
 24 23  1  1
 24 25  1  0
 25 17  1  0
 26 24  1  0
 27 26  1  0
 28 26  2  0
M  END
$$$$
