MVH.pdb
     RDKit          3D

 26 26  0  0  1  0  0  0  0  0999 V2000
   20.5778  -38.2979   -9.4648 C   0  0  0  0  0  0  0  0  0  0  0  0
   21.7554  -39.1188  -10.5112 S   0  0  0  0  0  0  0  0  0  0  0  0
   22.9703  -38.1103  -11.3156 C   0  0  0  0  0  0  0  0  0  0  0  0
   24.0194  -37.6268  -10.3654 C   0  0  0  0  0  0  0  0  0  0  0  0
   24.5085  -36.2793  -10.7537 C   0  0  2  0  0  0  0  0  0  0  0  0
   25.4074  -36.4589  -11.8891 N   0  0  0  0  0  0  0  0  0  0  0  0
   25.2599  -35.6222   -9.6125 C   0  0  0  0  0  0  0  0  0  0  0  0
   26.4740  -35.9240   -9.5272 O   0  0  0  0  0  0  0  0  0  0  0  0
   25.6741  -32.1753   -6.1693 C   0  0  0  0  0  0  0  0  0  0  0  0
   25.0294  -32.6770   -7.4519 C   0  0  1  0  0  0  0  0  0  0  0  0
   25.4023  -31.8552   -8.6434 C   0  0  0  0  0  0  0  0  0  0  0  0
   25.2718  -34.1630   -7.6193 C   0  0  2  0  0  0  0  0  0  0  0  0
   24.6072  -34.7378   -8.7267 N   0  0  0  0  0  0  0  0  0  0  0  0
   25.0196  -34.8617   -6.3375 C   0  0  0  0  0  0  0  0  0  0  0  0
   24.1863  -35.8096   -6.3830 O   0  0  0  0  0  0  0  0  0  0  0  0
   25.6199  -34.5580   -5.1139 N   0  0  0  0  0  0  0  0  0  0  0  0
   25.7488  -35.4769   -4.0064 C   0  0  1  0  0  0  0  0  0  0  0  0
   26.4108  -36.7705   -4.4008 C   0  0  0  0  0  0  0  0  0  0  0  0
   26.4204  -37.7126   -3.2558 C   0  0  0  0  0  0  0  0  0  0  0  0
   25.8499  -37.5460   -2.0007 C   0  0  0  0  0  0  0  0  0  0  0  0
   26.0764  -38.6290   -1.2359 N   0  0  0  0  0  0  0  0  0  0  0  0
   26.7786  -39.4774   -1.9818 C   0  0  0  0  0  0  0  0  0  0  0  0
   26.9912  -38.9299   -3.2069 N   0  0  0  0  0  0  0  0  0  0  0  0
   26.4089  -34.7907   -2.8818 C   0  0  0  0  0  0  0  0  0  0  0  0
   25.9585  -35.0526   -1.5975 O   0  0  0  0  0  0  0  0  0  0  0  0
   27.3560  -33.9786   -2.9785 O   0  0  0  0  0  0  0  0  0  0  0  0
  2  3  1  0
  2  1  1  0
  4  3  1  0
  4  5  1  0
  5  6  1  6
  5  7  1  0
  7  8  2  0
 10 11  1  6
 10  9  1  0
 12 10  1  0
 13  7  1  0
 12 13  1  6
 14 12  1  0
 14 15  2  0
 16 14  1  0
 17 24  1  0
 17 16  1  0
 17 18  1  6
 19 18  1  0
 19 23  1  0
 20 21  1  0
 20 19  2  0
 21 22  1  0
 22 23  2  0
 24 25  1  0
 26 24  2  0
M  END
$$$$
