MVH.pdb
     RDKit          3D

 26 26  0  0  1  0  0  0  0  0999 V2000
   13.9034  -14.6464  -19.2374 C   0  0  0  0  0  0  0  0  0  0  0  0
   14.7129  -14.0367  -17.7786 S   0  0  0  0  0  0  0  0  0  0  0  0
   16.4506  -14.3475  -17.6228 C   0  0  0  0  0  0  0  0  0  0  0  0
   17.0205  -13.7466  -16.3772 C   0  0  0  0  0  0  0  0  0  0  0  0
   18.4590  -14.0868  -16.2326 C   0  0  2  0  0  0  0  0  0  0  0  0
   18.5317  -15.3416  -15.4912 N   0  0  0  0  0  0  0  0  0  0  0  0
   19.2009  -13.0057  -15.4713 C   0  0  0  0  0  0  0  0  0  0  0  0
   18.8497  -12.8550  -14.2770 O   0  0  0  0  0  0  0  0  0  0  0  0
   22.7360  -11.1725  -17.0666 C   0  0  0  0  0  0  0  0  0  0  0  0
   22.3592  -11.1530  -15.5935 C   0  0  1  0  0  0  0  0  0  0  0  0
   23.0463  -10.0617  -14.8379 C   0  0  0  0  0  0  0  0  0  0  0  0
   20.8529  -11.1694  -15.4328 C   0  0  2  0  0  0  0  0  0  0  0  0
   20.2108  -12.2411  -16.0945 N   0  0  0  0  0  0  0  0  0  0  0  0
   20.2966   -9.8372  -15.7656 C   0  0  0  0  0  0  0  0  0  0  0  0
   20.1442   -9.5971  -16.9961 O   0  0  0  0  0  0  0  0  0  0  0  0
   19.9371   -8.8526  -14.8431 N   0  0  0  0  0  0  0  0  0  0  0  0
   19.4081   -7.5526  -15.1865 C   0  0  1  0  0  0  0  0  0  0  0  0
   18.3046   -7.1132  -14.2611 C   0  0  0  0  0  0  0  0  0  0  0  0
   17.7927   -5.7823  -14.6677 C   0  0  0  0  0  0  0  0  0  0  0  0
   16.8737   -5.4826  -15.6648 C   0  0  0  0  0  0  0  0  0  0  0  0
   16.6676   -4.1549  -15.7278 N   0  0  0  0  0  0  0  0  0  0  0  0
   17.4375   -3.6087  -14.7909 C   0  0  0  0  0  0  0  0  0  0  0  0
   18.1224   -4.5876  -14.1441 N   0  0  0  0  0  0  0  0  0  0  0  0
   20.5182   -6.5888  -15.2866 C   0  0  0  0  0  0  0  0  0  0  0  0
   20.4353   -5.5891  -16.2429 O   0  0  0  0  0  0  0  0  0  0  0  0
   21.5483   -6.5874  -14.5760 O   0  0  0  0  0  0  0  0  0  0  0  0
  2  3  1  0
  2  1  1  0
  4  3  1  0
  4  5  1  0
  5  6  1  1
  5  7  1  0
  7  8  2  0
 10 11  1  6
 10  9  1  0
 12 10  1  0
 13  7  1  0
 12 13  1  6
 14 12  1  0
 14 15  2  0
 16 14  1  0
 17 24  1  0
 17 16  1  0
 17 18  1  1
 19 18  1  0
 19 23  1  0
 20 21  1  0
 20 19  2  0
 21 22  1  0
 22 23  2  0
 24 25  1  0
 26 24  2  0
M  END
$$$$
