MVH.pdb
     RDKit          3D

 26 26  0  0  1  0  0  0  0  0999 V2000
   11.9212  -14.3968  -14.6241 C   0  0  0  0  0  0  0  0  0  0  0  0
   12.4113  -15.4573  -15.9622 S   0  0  0  0  0  0  0  0  0  0  0  0
   14.0752  -15.3055  -16.5527 C   0  0  0  0  0  0  0  0  0  0  0  0
   14.9144  -14.4501  -15.6576 C   0  0  0  0  0  0  0  0  0  0  0  0
   16.2991  -14.3306  -16.1813 C   0  0  2  0  0  0  0  0  0  0  0  0
   16.8834  -15.6676  -16.1611 N   0  0  0  0  0  0  0  0  0  0  0  0
   17.1303  -13.4021  -15.3177 C   0  0  0  0  0  0  0  0  0  0  0  0
   17.7307  -13.9525  -14.3643 O   0  0  0  0  0  0  0  0  0  0  0  0
   20.1114  -11.3166  -16.0570 C   0  0  0  0  0  0  0  0  0  0  0  0
   19.0259  -10.3710  -15.5669 C   0  0  1  0  0  0  0  0  0  0  0  0
   18.4896   -9.4970  -16.6543 C   0  0  0  0  0  0  0  0  0  0  0  0
   17.9652  -11.1352  -14.8014 C   0  0  2  0  0  0  0  0  0  0  0  0
   17.2009  -12.0200  -15.5962 N   0  0  0  0  0  0  0  0  0  0  0  0
   17.1515  -10.1959  -13.9949 C   0  0  0  0  0  0  0  0  0  0  0  0
   16.1702   -9.6685  -14.5896 O   0  0  0  0  0  0  0  0  0  0  0  0
   17.3831   -9.8594  -12.6596 N   0  0  0  0  0  0  0  0  0  0  0  0
   16.5870   -8.9294  -11.8922 C   0  0  1  0  0  0  0  0  0  0  0  0
   16.6543   -9.1935  -10.4113 C   0  0  0  0  0  0  0  0  0  0  0  0
   15.7871   -8.2391   -9.6794 C   0  0  0  0  0  0  0  0  0  0  0  0
   14.4703   -7.8916   -9.9512 C   0  0  0  0  0  0  0  0  0  0  0  0
   14.0299   -6.9894   -9.0559 N   0  0  0  0  0  0  0  0  0  0  0  0
   15.0413   -6.7593   -8.2235 C   0  0  0  0  0  0  0  0  0  0  0  0
   16.1096   -7.5123   -8.5941 N   0  0  0  0  0  0  0  0  0  0  0  0
   16.9547   -7.5526  -12.2670 C   0  0  0  0  0  0  0  0  0  0  0  0
   18.2994   -7.2473  -12.4070 O   0  0  0  0  0  0  0  0  0  0  0  0
   16.1525   -6.6150  -12.4752 O   0  0  0  0  0  0  0  0  0  0  0  0
  2  3  1  0
  2  1  1  0
  4  3  1  0
  4  5  1  0
  5  6  1  1
  5  7  1  0
  7  8  2  0
 10 11  1  6
 10  9  1  0
 12 10  1  0
 13  7  1  0
 12 13  1  6
 14 12  1  0
 14 15  2  0
 16 14  1  0
 17 24  1  0
 17 16  1  0
 17 18  1  1
 19 18  1  0
 19 23  1  0
 20 21  1  0
 20 19  2  0
 21 22  1  0
 22 23  2  0
 24 25  1  0
 26 24  2  0
M  END
$$$$
