MVH.pdb
     RDKit          3D

 26 26  0  0  1  0  0  0  0  0999 V2000
   29.5195  -19.3940   -6.1615 C   0  0  0  0  0  0  0  0  0  0  0  0
   27.9205  -19.4866   -5.3933 S   0  0  0  0  0  0  0  0  0  0  0  0
   26.5133  -19.6357   -6.4599 C   0  0  0  0  0  0  0  0  0  0  0  0
   26.8958  -20.0691   -7.8394 C   0  0  0  0  0  0  0  0  0  0  0  0
   25.7148  -20.0809   -8.7399 C   0  0  2  0  0  0  0  0  0  0  0  0
   24.7817  -21.0712   -8.2124 N   0  0  0  0  0  0  0  0  0  0  0  0
   26.1106  -20.4612  -10.1532 C   0  0  0  0  0  0  0  0  0  0  0  0
   26.7321  -21.5449  -10.2617 O   0  0  0  0  0  0  0  0  0  0  0  0
   25.7464  -22.4634  -12.0325 C   0  0  0  0  0  0  0  0  0  0  0  0
   25.2823  -21.3381  -12.9440 C   0  0  1  0  0  0  0  0  0  0  0  0
   23.7931  -21.2322  -13.0154 C   0  0  0  0  0  0  0  0  0  0  0  0
   25.9826  -20.0437  -12.5847 C   0  0  2  0  0  0  0  0  0  0  0  0
   25.7860  -19.6301  -11.2472 N   0  0  0  0  0  0  0  0  0  0  0  0
   25.6631  -19.0028  -13.5892 C   0  0  0  0  0  0  0  0  0  0  0  0
   25.2849  -17.8901  -13.1266 O   0  0  0  0  0  0  0  0  0  0  0  0
   25.7473  -19.1565  -14.9746 N   0  0  0  0  0  0  0  0  0  0  0  0
   26.5627  -18.3439  -15.8477 C   0  0  1  0  0  0  0  0  0  0  0  0
   28.0006  -18.2812  -15.4054 C   0  0  0  0  0  0  0  0  0  0  0  0
   28.7632  -17.3474  -16.2686 C   0  0  0  0  0  0  0  0  0  0  0  0
   28.3061  -16.6135  -17.3553 C   0  0  0  0  0  0  0  0  0  0  0  0
   29.3050  -15.8804  -17.8788 N   0  0  0  0  0  0  0  0  0  0  0  0
   30.3847  -16.1357  -17.1453 C   0  0  0  0  0  0  0  0  0  0  0  0
   30.0652  -17.0235  -16.1678 N   0  0  0  0  0  0  0  0  0  0  0  0
   26.3884  -18.8011  -17.2377 C   0  0  0  0  0  0  0  0  0  0  0  0
   26.6915  -20.1198  -17.5378 O   0  0  0  0  0  0  0  0  0  0  0  0
   25.9846  -18.0979  -18.1908 O   0  0  0  0  0  0  0  0  0  0  0  0
  2  3  1  0
  2  1  1  0
  4  3  1  0
  4  5  1  0
  5  6  1  1
  5  7  1  0
  7  8  2  0
 10 11  1  1
 10  9  1  0
 12 10  1  0
 13  7  1  0
 12 13  1  1
 14 12  1  0
 14 15  2  0
 16 14  1  0
 17 24  1  0
 17 16  1  0
 17 18  1  1
 19 18  1  0
 19 23  1  0
 20 21  1  0
 20 19  2  0
 21 22  1  0
 22 23  2  0
 24 25  1  0
 26 24  2  0
M  END
$$$$
