MVH.pdb
     RDKit          3D

 26 26  0  0  1  0  0  0  0  0999 V2000
   25.7982  -17.9335  -18.0868 C   0  0  0  0  0  0  0  0  0  0  0  0
   27.1703  -18.9588  -18.5574 S   0  0  0  0  0  0  0  0  0  0  0  0
   27.8297  -20.0503  -17.3269 C   0  0  0  0  0  0  0  0  0  0  0  0
   26.7687  -20.5730  -16.4112 C   0  0  0  0  0  0  0  0  0  0  0  0
   27.3661  -21.3374  -15.2866 C   0  0  2  0  0  0  0  0  0  0  0  0
   27.8970  -22.5773  -15.8436 N   0  0  0  0  0  0  0  0  0  0  0  0
   26.3246  -21.6611  -14.2334 C   0  0  0  0  0  0  0  0  0  0  0  0
   25.6673  -22.7097  -14.4353 O   0  0  0  0  0  0  0  0  0  0  0  0
   24.2303  -20.7938   -9.8557 C   0  0  0  0  0  0  0  0  0  0  0  0
   25.4092  -20.5416  -10.7826 C   0  0  1  0  0  0  0  0  0  0  0  0
   26.7007  -21.0424  -10.2210 C   0  0  0  0  0  0  0  0  0  0  0  0
   25.1008  -21.0426  -12.1786 C   0  0  2  0  0  0  0  0  0  0  0  0
   26.1346  -20.8188  -13.1166 N   0  0  0  0  0  0  0  0  0  0  0  0
   23.7761  -20.5406  -12.6124 C   0  0  0  0  0  0  0  0  0  0  0  0
   23.7127  -19.3051  -12.8661 O   0  0  0  0  0  0  0  0  0  0  0  0
   22.6218  -21.3128  -12.7583 N   0  0  0  0  0  0  0  0  0  0  0  0
   21.3316  -20.8018  -13.1606 C   0  0  1  0  0  0  0  0  0  0  0  0
   20.4523  -21.8623  -13.7684 C   0  0  0  0  0  0  0  0  0  0  0  0
   20.9692  -22.2566  -15.1010 C   0  0  0  0  0  0  0  0  0  0  0  0
   22.0331  -21.7099  -15.8065 C   0  0  0  0  0  0  0  0  0  0  0  0
   22.1900  -22.3435  -16.9826 N   0  0  0  0  0  0  0  0  0  0  0  0
   21.2470  -23.2799  -17.0353 C   0  0  0  0  0  0  0  0  0  0  0  0
   20.5031  -23.2340  -15.8994 N   0  0  0  0  0  0  0  0  0  0  0  0
   20.7133  -20.0976  -12.0235 C   0  0  0  0  0  0  0  0  0  0  0  0
   19.7921  -19.0978  -12.2930 O   0  0  0  0  0  0  0  0  0  0  0  0
   20.9456  -20.3213  -10.8144 O   0  0  0  0  0  0  0  0  0  0  0  0
  2  3  1  0
  2  1  1  0
  4  3  1  0
  4  5  1  0
  5  6  1  6
  5  7  1  0
  7  8  2  0
 10 11  1  1
 10  9  1  0
 12 10  1  0
 13  7  1  0
 12 13  1  6
 14 12  1  0
 14 15  2  0
 16 14  1  0
 17 24  1  0
 17 16  1  0
 17 18  1  1
 19 18  1  0
 19 23  1  0
 20 21  1  0
 20 19  2  0
 21 22  1  0
 22 23  2  0
 24 25  1  0
 26 24  2  0
M  END
$$$$
