MVH.pdb
     RDKit          3D

 26 26  0  0  1  0  0  0  0  0999 V2000
   17.4588  -17.3676  -21.3889 C   0  0  0  0  0  0  0  0  0  0  0  0
   17.9933  -16.1358  -20.2261 S   0  0  0  0  0  0  0  0  0  0  0  0
   18.6227  -16.7047  -18.6703 C   0  0  0  0  0  0  0  0  0  0  0  0
   18.9721  -15.5732  -17.7566 C   0  0  0  0  0  0  0  0  0  0  0  0
   20.2105  -15.8697  -16.9922 C   0  0  2  0  0  0  0  0  0  0  0  0
   19.9697  -17.0990  -16.2436 N   0  0  0  0  0  0  0  0  0  0  0  0
   20.5383  -14.7464  -16.0281 C   0  0  0  0  0  0  0  0  0  0  0  0
   19.7405  -14.6137  -15.0698 O   0  0  0  0  0  0  0  0  0  0  0  0
   23.9078  -13.8928  -14.2556 C   0  0  0  0  0  0  0  0  0  0  0  0
   23.4208  -12.6785  -15.0306 C   0  0  1  0  0  0  0  0  0  0  0  0
   24.3005  -12.3462  -16.1924 C   0  0  0  0  0  0  0  0  0  0  0  0
   21.9548  -12.8285  -15.3819 C   0  0  2  0  0  0  0  0  0  0  0  0
   21.6703  -13.9264  -16.2259 N   0  0  0  0  0  0  0  0  0  0  0  0
   21.4203  -11.5374  -15.8739 C   0  0  0  0  0  0  0  0  0  0  0  0
   21.7003  -11.2469  -17.0707 O   0  0  0  0  0  0  0  0  0  0  0  0
   20.6492  -10.6407  -15.1315 N   0  0  0  0  0  0  0  0  0  0  0  0
   20.1480   -9.3780  -15.6236 C   0  0  1  0  0  0  0  0  0  0  0  0
   18.8189   -9.0076  -15.0208 C   0  0  0  0  0  0  0  0  0  0  0  0
   18.3188   -7.7451  -15.6162 C   0  0  0  0  0  0  0  0  0  0  0  0
   17.9588   -7.5000  -16.9349 C   0  0  0  0  0  0  0  0  0  0  0  0
   17.5539   -6.2256  -17.0805 N   0  0  0  0  0  0  0  0  0  0  0  0
   17.6503   -5.6596  -15.8807 C   0  0  0  0  0  0  0  0  0  0  0  0
   18.1129   -6.5733  -14.9880 N   0  0  0  0  0  0  0  0  0  0  0  0
   21.1855   -8.3456  -15.4538 C   0  0  0  0  0  0  0  0  0  0  0  0
   21.2768   -7.3436  -16.4070 O   0  0  0  0  0  0  0  0  0  0  0  0
   22.0076   -8.2866  -14.5122 O   0  0  0  0  0  0  0  0  0  0  0  0
  2  3  1  0
  2  1  1  0
  4  3  1  0
  4  5  1  0
  5  6  1  1
  5  7  1  0
  7  8  2  0
 10 11  1  6
 10  9  1  0
 12 10  1  0
 13  7  1  0
 12 13  1  6
 14 12  1  0
 14 15  2  0
 16 14  1  0
 17 24  1  0
 17 16  1  0
 17 18  1  1
 19 18  1  0
 19 23  1  0
 20 21  1  0
 20 19  2  0
 21 22  1  0
 22 23  2  0
 24 25  1  0
 26 24  2  0
M  END
$$$$
