MVH.pdb
     RDKit          3D

 26 26  0  0  1  0  0  0  0  0999 V2000
   27.4387  -19.3064   -4.8150 C   0  0  0  0  0  0  0  0  0  0  0  0
   28.8618  -20.0093   -5.6126 S   0  0  0  0  0  0  0  0  0  0  0  0
   28.5895  -20.9164   -7.1104 C   0  0  0  0  0  0  0  0  0  0  0  0
   27.5367  -20.2869   -7.9663 C   0  0  0  0  0  0  0  0  0  0  0  0
   27.2565  -21.1198   -9.1636 C   0  0  2  0  0  0  0  0  0  0  0  0
   28.5447  -21.5075   -9.7288 N   0  0  0  0  0  0  0  0  0  0  0  0
   26.4648  -20.3413  -10.1961 C   0  0  0  0  0  0  0  0  0  0  0  0
   26.6405  -19.0999  -10.1808 O   0  0  0  0  0  0  0  0  0  0  0  0
   27.1198  -19.2815  -13.0409 C   0  0  0  0  0  0  0  0  0  0  0  0
   25.9476  -20.1849  -13.3906 C   0  0  1  0  0  0  0  0  0  0  0  0
   26.3802  -21.4799  -13.9989 C   0  0  0  0  0  0  0  0  0  0  0  0
   25.0216  -20.3337  -12.2010 C   0  0  2  0  0  0  0  0  0  0  0  0
   25.5995  -21.0001  -11.0961 N   0  0  0  0  0  0  0  0  0  0  0  0
   23.7274  -20.9065  -12.6390 C   0  0  0  0  0  0  0  0  0  0  0  0
   23.6349  -22.1647  -12.5796 O   0  0  0  0  0  0  0  0  0  0  0  0
   22.6298  -20.1769  -13.1005 N   0  0  0  0  0  0  0  0  0  0  0  0
   21.4200  -20.7559  -13.6377 C   0  0  1  0  0  0  0  0  0  0  0  0
   21.6944  -21.8552  -14.6293 C   0  0  0  0  0  0  0  0  0  0  0  0
   22.4646  -21.3274  -15.7813 C   0  0  0  0  0  0  0  0  0  0  0  0
   22.8026  -20.0091  -16.0578 C   0  0  0  0  0  0  0  0  0  0  0  0
   23.5083  -19.9366  -17.2006 N   0  0  0  0  0  0  0  0  0  0  0  0
   23.6235  -21.1822  -17.6525 C   0  0  0  0  0  0  0  0  0  0  0  0
   22.9940  -22.0309  -16.7986 N   0  0  0  0  0  0  0  0  0  0  0  0
   20.5432  -21.1642  -12.5260 C   0  0  0  0  0  0  0  0  0  0  0  0
   19.3206  -21.7409  -12.8320 O   0  0  0  0  0  0  0  0  0  0  0  0
   20.8030  -21.0372  -11.3085 O   0  0  0  0  0  0  0  0  0  0  0  0
  2  3  1  0
  2  1  1  0
  4  3  1  0
  4  5  1  0
  5  6  1  6
  5  7  1  0
  7  8  2  0
 10 11  1  1
 10  9  1  0
 12 10  1  0
 13  7  1  0
 12 13  1  1
 14 12  1  0
 14 15  2  0
 16 14  1  0
 17 24  1  0
 17 16  1  0
 17 18  1  1
 19 18  1  0
 19 23  1  0
 20 21  1  0
 20 19  2  0
 21 22  1  0
 22 23  2  0
 24 25  1  0
 26 24  2  0
M  END
$$$$
