MVH.pdb
     RDKit          3D

 26 26  0  0  1  0  0  0  0  0999 V2000
   27.3081  -18.5349   -5.1431 C   0  0  0  0  0  0  0  0  0  0  0  0
   28.2258  -20.0558   -5.1569 S   0  0  0  0  0  0  0  0  0  0  0  0
   28.1422  -21.0428   -6.6262 C   0  0  0  0  0  0  0  0  0  0  0  0
   27.2808  -20.4168   -7.6767 C   0  0  0  0  0  0  0  0  0  0  0  0
   27.1566  -21.3044   -8.8610 C   0  0  2  0  0  0  0  0  0  0  0  0
   28.5101  -21.6432   -9.2884 N   0  0  0  0  0  0  0  0  0  0  0  0
   26.4290  -20.6050   -9.9925 C   0  0  0  0  0  0  0  0  0  0  0  0
   26.4560  -19.3520   -9.9525 O   0  0  0  0  0  0  0  0  0  0  0  0
   27.2588  -20.6203  -13.5309 C   0  0  0  0  0  0  0  0  0  0  0  0
   25.8233  -21.1161  -13.4524 C   0  0  1  0  0  0  0  0  0  0  0  0
   25.6974  -22.5692  -13.7792 C   0  0  0  0  0  0  0  0  0  0  0  0
   25.1980  -20.7181  -12.1313 C   0  0  2  0  0  0  0  0  0  0  0  0
   25.7774  -21.3438  -11.0036 N   0  0  0  0  0  0  0  0  0  0  0  0
   23.7254  -20.8610  -12.2079 C   0  0  0  0  0  0  0  0  0  0  0  0
   23.1410  -21.1214  -11.1190 O   0  0  0  0  0  0  0  0  0  0  0  0
   22.9551  -20.7321  -13.3654 N   0  0  0  0  0  0  0  0  0  0  0  0
   21.5423  -20.4301  -13.3880 C   0  0  1  0  0  0  0  0  0  0  0  0
   21.2082  -19.1653  -12.6424 C   0  0  0  0  0  0  0  0  0  0  0  0
   19.7521  -18.8950  -12.7162 C   0  0  0  0  0  0  0  0  0  0  0  0
   18.7694  -19.6454  -13.3485 C   0  0  0  0  0  0  0  0  0  0  0  0
   17.5648  -19.0684  -13.1893 N   0  0  0  0  0  0  0  0  0  0  0  0
   17.7656  -17.9684  -12.4692 C   0  0  0  0  0  0  0  0  0  0  0  0
   19.0879  -17.8559  -12.1784 N   0  0  0  0  0  0  0  0  0  0  0  0
   21.0669  -20.4404  -14.7827 C   0  0  0  0  0  0  0  0  0  0  0  0
   19.7837  -20.8991  -15.0354 O   0  0  0  0  0  0  0  0  0  0  0  0
   21.7247  -20.0669  -15.7796 O   0  0  0  0  0  0  0  0  0  0  0  0
  2  3  1  0
  2  1  1  0
  4  3  1  0
  4  5  1  0
  5  6  1  6
  5  7  1  0
  7  8  2  0
 10 11  1  1
 10  9  1  0
 12 10  1  0
 13  7  1  0
 12 13  1  1
 14 12  1  0
 14 15  2  0
 16 14  1  0
 17 24  1  0
 17 16  1  0
 17 18  1  6
 19 18  1  0
 19 23  1  0
 20 21  1  0
 20 19  2  0
 21 22  1  0
 22 23  2  0
 24 25  1  0
 26 24  2  0
M  END
$$$$
