MVH.pdb
     RDKit          3D

 26 26  0  0  1  0  0  0  0  0999 V2000
   26.2712  -20.1112  -19.6953 C   0  0  0  0  0  0  0  0  0  0  0  0
   27.6165  -19.3457  -18.8237 S   0  0  0  0  0  0  0  0  0  0  0  0
   28.2374  -20.1820  -17.3900 C   0  0  0  0  0  0  0  0  0  0  0  0
   27.1452  -20.8273  -16.5976 C   0  0  0  0  0  0  0  0  0  0  0  0
   27.6922  -21.5165  -15.4010 C   0  0  2  0  0  0  0  0  0  0  0  0
   28.2962  -22.7626  -15.8612 N   0  0  0  0  0  0  0  0  0  0  0  0
   26.5954  -21.8251  -14.4007 C   0  0  0  0  0  0  0  0  0  0  0  0
   26.0187  -22.9268  -14.5618 O   0  0  0  0  0  0  0  0  0  0  0  0
   24.3017  -20.8726  -10.1544 C   0  0  0  0  0  0  0  0  0  0  0  0
   25.5246  -20.6908  -11.0399 C   0  0  1  0  0  0  0  0  0  0  0  0
   26.7627  -21.2732  -10.4383 C   0  0  0  0  0  0  0  0  0  0  0  0
   25.2329  -21.1663  -12.4483 C   0  0  2  0  0  0  0  0  0  0  0  0
   26.2722  -20.9133  -13.3727 N   0  0  0  0  0  0  0  0  0  0  0  0
   23.9069  -20.6688  -12.8832 C   0  0  0  0  0  0  0  0  0  0  0  0
   23.8171  -19.4206  -13.0537 O   0  0  0  0  0  0  0  0  0  0  0  0
   22.7778  -21.4575  -13.1131 N   0  0  0  0  0  0  0  0  0  0  0  0
   21.5067  -20.9616  -13.5885 C   0  0  1  0  0  0  0  0  0  0  0  0
   20.9579  -21.7751  -14.7305 C   0  0  0  0  0  0  0  0  0  0  0  0
   19.7159  -21.1554  -15.2523 C   0  0  0  0  0  0  0  0  0  0  0  0
   19.0526  -20.0303  -14.7802 C   0  0  0  0  0  0  0  0  0  0  0  0
   17.9588  -19.7854  -15.5236 N   0  0  0  0  0  0  0  0  0  0  0  0
   17.9167  -20.7326  -16.4564 C   0  0  0  0  0  0  0  0  0  0  0  0
   18.9775  -21.5666  -16.2990 N   0  0  0  0  0  0  0  0  0  0  0  0
   20.5796  -20.8351  -12.4501 C   0  0  0  0  0  0  0  0  0  0  0  0
   19.7103  -19.7560  -12.4284 O   0  0  0  0  0  0  0  0  0  0  0  0
   20.5014  -21.6251  -11.4828 O   0  0  0  0  0  0  0  0  0  0  0  0
  2  3  1  0
  2  1  1  0
  4  3  1  0
  4  5  1  0
  5  6  1  6
  5  7  1  0
  7  8  2  0
 10 11  1  1
 10  9  1  0
 12 10  1  0
 13  7  1  0
 12 13  1  6
 14 12  1  0
 14 15  2  0
 16 14  1  0
 17 24  1  0
 17 16  1  0
 17 18  1  6
 19 18  1  0
 19 23  1  0
 20 21  1  0
 20 19  2  0
 21 22  1  0
 22 23  2  0
 24 25  1  0
 26 24  2  0
M  END
$$$$
