MVH.pdb
     RDKit          3D

 26 26  0  0  1  0  0  0  0  0999 V2000
   22.5473  -12.6241  -22.0232 C   0  0  0  0  0  0  0  0  0  0  0  0
   24.2054  -12.2303  -22.5241 S   0  0  0  0  0  0  0  0  0  0  0  0
   25.5285  -13.0224  -21.6511 C   0  0  0  0  0  0  0  0  0  0  0  0
   25.0314  -14.0649  -20.7007 C   0  0  0  0  0  0  0  0  0  0  0  0
   26.1487  -14.6372  -19.9070 C   0  0  2  0  0  0  0  0  0  0  0  0
   27.1004  -15.2087  -20.8542 N   0  0  0  0  0  0  0  0  0  0  0  0
   25.6528  -15.7223  -18.9713 C   0  0  0  0  0  0  0  0  0  0  0  0
   25.5596  -16.8651  -19.4787 O   0  0  0  0  0  0  0  0  0  0  0  0
   27.0998  -16.9127  -15.6661 C   0  0  0  0  0  0  0  0  0  0  0  0
   25.6652  -16.4698  -15.4247 C   0  0  1  0  0  0  0  0  0  0  0  0
   25.5785  -15.2103  -14.6245 C   0  0  0  0  0  0  0  0  0  0  0  0
   24.8966  -16.4332  -16.7296 C   0  0  2  0  0  0  0  0  0  0  0  0
   25.3278  -15.4311  -17.6287 N   0  0  0  0  0  0  0  0  0  0  0  0
   23.4408  -16.4095  -16.4558 C   0  0  0  0  0  0  0  0  0  0  0  0
   22.8395  -15.3447  -16.7714 O   0  0  0  0  0  0  0  0  0  0  0  0
   22.7028  -17.4509  -15.8895 N   0  0  0  0  0  0  0  0  0  0  0  0
   21.2646  -17.5741  -15.9535 C   0  0  1  0  0  0  0  0  0  0  0  0
   20.7298  -17.3995  -17.3502 C   0  0  0  0  0  0  0  0  0  0  0  0
   19.4406  -16.6676  -17.3187 C   0  0  0  0  0  0  0  0  0  0  0  0
   18.7440  -16.2006  -16.2118 C   0  0  0  0  0  0  0  0  0  0  0  0
   17.6116  -15.5852  -16.5967 N   0  0  0  0  0  0  0  0  0  0  0  0
   17.5777  -15.6533  -17.9245 C   0  0  0  0  0  0  0  0  0  0  0  0
   18.6820  -16.3075  -18.3699 N   0  0  0  0  0  0  0  0  0  0  0  0
   20.8578  -18.8386  -15.3156 C   0  0  0  0  0  0  0  0  0  0  0  0
   19.7422  -18.8297  -14.4932 O   0  0  0  0  0  0  0  0  0  0  0  0
   21.4351  -19.9408  -15.4489 O   0  0  0  0  0  0  0  0  0  0  0  0
  2  3  1  0
  2  1  1  0
  4  3  1  0
  4  5  1  0
  5  6  1  6
  5  7  1  0
  7  8  2  0
 10 11  1  6
 10  9  1  0
 12 10  1  0
 13  7  1  0
 12 13  1  1
 14 12  1  0
 14 15  2  0
 16 14  1  0
 17 24  1  0
 17 16  1  0
 17 18  1  6
 19 18  1  0
 19 23  1  0
 20 21  1  0
 20 19  2  0
 21 22  1  0
 22 23  2  0
 24 25  1  0
 26 24  2  0
M  END
$$$$
