MVH.pdb
     RDKit          3D

 26 26  0  0  1  0  0  0  0  0999 V2000
   27.8236  -15.1477  -15.6369 C   0  0  0  0  0  0  0  0  0  0  0  0
   26.6349  -16.1658  -14.7969 S   0  0  0  0  0  0  0  0  0  0  0  0
   25.0502  -16.3674  -15.5639 C   0  0  0  0  0  0  0  0  0  0  0  0
   24.4733  -15.0633  -16.0154 C   0  0  0  0  0  0  0  0  0  0  0  0
   23.1286  -15.2560  -16.6158 C   0  0  2  0  0  0  0  0  0  0  0  0
   23.2876  -16.1693  -17.7427 N   0  0  0  0  0  0  0  0  0  0  0  0
   22.5575  -13.9404  -17.1076 C   0  0  0  0  0  0  0  0  0  0  0  0
   22.9145  -13.5996  -18.2603 O   0  0  0  0  0  0  0  0  0  0  0  0
   19.1268  -10.5020  -16.9456 C   0  0  0  0  0  0  0  0  0  0  0  0
   19.6359  -11.9303  -16.8306 C   0  0  1  0  0  0  0  0  0  0  0  0
   19.0774  -12.8275  -17.8877 C   0  0  0  0  0  0  0  0  0  0  0  0
   21.1477  -11.9465  -16.7344 C   0  0  2  0  0  0  0  0  0  0  0  0
   21.6877  -13.1781  -16.2982 N   0  0  0  0  0  0  0  0  0  0  0  0
   21.6152  -10.7756  -15.9564 C   0  0  0  0  0  0  0  0  0  0  0  0
   21.3556  -10.7977  -14.7206 O   0  0  0  0  0  0  0  0  0  0  0  0
   22.3045   -9.6775  -16.4749 N   0  0  0  0  0  0  0  0  0  0  0  0
   22.6662   -8.4987  -15.7218 C   0  0  1  0  0  0  0  0  0  0  0  0
   23.8819   -7.8061  -16.2781 C   0  0  0  0  0  0  0  0  0  0  0  0
   25.0704   -8.6856  -16.1658 C   0  0  0  0  0  0  0  0  0  0  0  0
   25.1708   -9.9189  -15.5353 C   0  0  0  0  0  0  0  0  0  0  0  0
   26.4198  -10.4042  -15.6520 N   0  0  0  0  0  0  0  0  0  0  0  0
   27.1116   -9.5030  -16.3436 C   0  0  0  0  0  0  0  0  0  0  0  0
   26.3016   -8.4588  -16.6587 N   0  0  0  0  0  0  0  0  0  0  0  0
   21.4880   -7.6223  -15.5983 C   0  0  0  0  0  0  0  0  0  0  0  0
   21.3440   -6.8755  -14.4396 O   0  0  0  0  0  0  0  0  0  0  0  0
   20.5881   -7.4857  -16.4570 O   0  0  0  0  0  0  0  0  0  0  0  0
  2  3  1  0
  2  1  1  0
  4  3  1  0
  4  5  1  0
  5  6  1  6
  5  7  1  0
  7  8  2  0
 10 11  1  6
 10  9  1  0
 12 10  1  0
 13  7  1  0
 12 13  1  1
 14 12  1  0
 14 15  2  0
 16 14  1  0
 17 24  1  0
 17 16  1  0
 17 18  1  6
 19 18  1  0
 19 23  1  0
 20 21  1  0
 20 19  2  0
 21 22  1  0
 22 23  2  0
 24 25  1  0
 26 24  2  0
M  END
$$$$
