MVH.pdb
     RDKit          3D

 26 26  0  0  1  0  0  0  0  0999 V2000
   17.5606  -16.8673  -16.2711 C   0  0  0  0  0  0  0  0  0  0  0  0
   16.3726  -15.5563  -16.4302 S   0  0  0  0  0  0  0  0  0  0  0  0
   16.9317  -14.0345  -17.1456 C   0  0  0  0  0  0  0  0  0  0  0  0
   18.0006  -13.3857  -16.3247 C   0  0  0  0  0  0  0  0  0  0  0  0
   18.4656  -12.1251  -16.9575 C   0  0  2  0  0  0  0  0  0  0  0  0
   19.2229  -12.4957  -18.1486 N   0  0  0  0  0  0  0  0  0  0  0  0
   19.3566  -11.3388  -16.0159 C   0  0  0  0  0  0  0  0  0  0  0  0
   18.8572  -11.0842  -14.8942 O   0  0  0  0  0  0  0  0  0  0  0  0
   23.7809   -9.6228  -14.7585 C   0  0  0  0  0  0  0  0  0  0  0  0
   22.9365  -10.6025  -15.5585 C   0  0  1  0  0  0  0  0  0  0  0  0
   23.1544  -12.0221  -15.1445 C   0  0  0  0  0  0  0  0  0  0  0  0
   21.4847  -10.1698  -15.5608 C   0  0  2  0  0  0  0  0  0  0  0  0
   20.6522  -10.9375  -16.4072 N   0  0  0  0  0  0  0  0  0  0  0  0
   21.3950   -8.7093  -15.7927 C   0  0  0  0  0  0  0  0  0  0  0  0
   21.6704   -8.3206  -16.9623 O   0  0  0  0  0  0  0  0  0  0  0  0
   21.0371   -7.7549  -14.8383 N   0  0  0  0  0  0  0  0  0  0  0  0
   20.9388   -6.3349  -15.0867 C   0  0  1  0  0  0  0  0  0  0  0  0
   19.5194   -5.8350  -15.0368 C   0  0  0  0  0  0  0  0  0  0  0  0
   18.7161   -6.4609  -16.1147 C   0  0  0  0  0  0  0  0  0  0  0  0
   17.7713   -7.4728  -16.0055 C   0  0  0  0  0  0  0  0  0  0  0  0
   17.2595   -7.7677  -17.2140 N   0  0  0  0  0  0  0  0  0  0  0  0
   17.8614   -6.9630  -18.0852 C   0  0  0  0  0  0  0  0  0  0  0  0
   18.7453   -6.1682  -17.4275 N   0  0  0  0  0  0  0  0  0  0  0  0
   21.8525   -5.6198  -14.1785 C   0  0  0  0  0  0  0  0  0  0  0  0
   22.5149   -6.3504  -13.2046 O   0  0  0  0  0  0  0  0  0  0  0  0
   22.0918   -4.3918  -14.2039 O   0  0  0  0  0  0  0  0  0  0  0  0
  2  3  1  0
  2  1  1  0
  4  3  1  0
  4  5  1  0
  5  6  1  6
  5  7  1  0
  7  8  2  0
 10 11  1  1
 10  9  1  0
 12 10  1  0
 13  7  1  0
 12 13  1  6
 14 12  1  0
 14 15  2  0
 16 14  1  0
 17 24  1  0
 17 16  1  0
 17 18  1  1
 19 18  1  0
 19 23  1  0
 20 21  1  0
 20 19  2  0
 21 22  1  0
 22 23  2  0
 24 25  1  0
 26 24  2  0
M  END
$$$$
