DDL.pdb
     RDKit          3D

 25 24  0  0  1  0  0  0  0  0999 V2000
    6.7303  -15.9013   19.3899 N   0  0  0  0  0  0  0  0  0  0  0  0
    7.8707  -15.3650   20.1114 C   0  0  1  0  0  0  0  0  0  0  0  0
    7.8722  -13.8590   20.0599 C   0  0  0  0  0  0  0  0  0  0  0  0
    8.0574  -13.3599   18.6896 C   0  0  0  0  0  0  0  0  0  0  0  0
    8.5684  -14.0515   17.7880 O   0  0  0  0  0  0  0  0  0  0  0  0
    7.9164  -15.9030   21.4725 C   0  0  0  0  0  0  0  0  0  0  0  0
    6.8324  -16.1250   22.0710 O   0  0  0  0  0  0  0  0  0  0  0  0
    7.6553  -12.0777   18.3714 O   0  0  0  0  0  0  0  0  0  0  0  0
    9.0982  -16.1945   22.1723 N   0  0  0  0  0  0  0  0  0  0  0  0
    9.1549  -16.8401   23.4759 C   0  0  1  0  0  0  0  0  0  0  0  0
   10.0328  -18.0441   23.4732 C   0  0  0  0  0  0  0  0  0  0  0  0
   10.0540  -18.6484   24.8205 C   0  0  0  0  0  0  0  0  0  0  0  0
    9.0166  -18.9222   25.5001 O   0  0  0  0  0  0  0  0  0  0  0  0
    9.5669  -15.8593   24.5203 C   0  0  0  0  0  0  0  0  0  0  0  0
   10.7024  -15.3318   24.5394 O   0  0  0  0  0  0  0  0  0  0  0  0
   11.2665  -18.9675   25.4520 O   0  0  0  0  0  0  0  0  0  0  0  0
    6.0507  -12.3023   26.5380 C   0  0  0  0  0  0  0  0  0  0  0  0
    7.2914  -13.0171   26.0704 C   0  0  1  0  0  0  0  0  0  0  0  0
    8.2306  -11.9381   25.5306 C   0  0  0  0  0  0  0  0  0  0  0  0
    8.0225  -13.7405   27.1527 C   0  0  0  0  0  0  0  0  0  0  0  0
    9.1391  -14.6351   26.6570 C   0  0  2  0  0  0  0  0  0  0  0  0
    8.6732  -15.4725   25.5580 N   0  0  0  0  0  0  0  0  0  0  0  0
    9.7256  -15.4807   27.7108 C   0  0  0  0  0  0  0  0  0  0  0  0
   10.2348  -14.9125   28.7193 O   0  0  0  0  0  0  0  0  0  0  0  0
    9.7454  -16.8705   27.6498 O   0  0  0  0  0  0  0  0  0  0  0  0
  2  1  1  1
  2  6  1  0
  2  3  1  0
  4  3  1  0
  5  4  2  0
  6  7  2  0
  8  4  1  0
  9 10  1  0
  9  6  1  0
 10 14  1  0
 10 11  1  6
 12 11  1  0
 13 12  2  0
 14 15  2  0
 16 12  1  0
 18 17  1  1
 18 19  1  0
 20 18  1  0
 21 20  1  1
 22 14  1  0
 22 21  1  0
 23 21  1  0
 24 23  2  0
 25 23  1  0
M  END
$$$$
