DDL.pdb
     RDKit          3D

 25 24  0  0  1  0  0  0  0  0999 V2000
    6.5061  -16.9794   20.7612 N   0  0  0  0  0  0  0  0  0  0  0  0
    6.8637  -18.1945   21.4713 C   0  0  1  0  0  0  0  0  0  0  0  0
    6.8052  -19.3856   20.5500 C   0  0  0  0  0  0  0  0  0  0  0  0
    6.4095  -19.0025   19.1871 C   0  0  0  0  0  0  0  0  0  0  0  0
    7.2349  -18.6416   18.3262 O   0  0  0  0  0  0  0  0  0  0  0  0
    8.1565  -18.0367   22.1406 C   0  0  0  0  0  0  0  0  0  0  0  0
    8.6000  -18.9905   22.8305 O   0  0  0  0  0  0  0  0  0  0  0  0
    5.0762  -19.0382   18.8292 O   0  0  0  0  0  0  0  0  0  0  0  0
    8.9521  -16.8820   22.0695 N   0  0  0  0  0  0  0  0  0  0  0  0
   10.2548  -16.7297   22.7014 C   0  0  1  0  0  0  0  0  0  0  0  0
   11.2433  -16.0645   21.8065 C   0  0  0  0  0  0  0  0  0  0  0  0
   11.6247  -16.9832   20.7150 C   0  0  0  0  0  0  0  0  0  0  0  0
   11.4170  -16.7578   19.4825 O   0  0  0  0  0  0  0  0  0  0  0  0
   10.1175  -16.0126   24.0012 C   0  0  0  0  0  0  0  0  0  0  0  0
   11.0942  -15.5038   24.5971 O   0  0  0  0  0  0  0  0  0  0  0  0
   12.2627  -18.2040   20.9857 O   0  0  0  0  0  0  0  0  0  0  0  0
    8.2412  -12.3704   24.8644 C   0  0  0  0  0  0  0  0  0  0  0  0
    7.6970  -12.9720   26.1336 C   0  0  1  0  0  0  0  0  0  0  0  0
    6.3347  -12.3190   26.3682 C   0  0  0  0  0  0  0  0  0  0  0  0
    7.4757  -14.4468   26.0629 C   0  0  0  0  0  0  0  0  0  0  0  0
    8.7476  -15.2609   25.9520 C   0  0  2  0  0  0  0  0  0  0  0  0
    8.8496  -15.8719   24.6320 N   0  0  0  0  0  0  0  0  0  0  0  0
    8.8729  -16.2986   26.9899 C   0  0  0  0  0  0  0  0  0  0  0  0
    8.4895  -17.4713   26.7124 O   0  0  0  0  0  0  0  0  0  0  0  0
    9.3921  -16.0507   28.2566 O   0  0  0  0  0  0  0  0  0  0  0  0
  2  1  1  6
  2  6  1  0
  2  3  1  0
  4  3  1  0
  5  4  2  0
  6  7  2  0
  8  4  1  0
  9 10  1  0
  9  6  1  0
 10 14  1  0
 10 11  1  6
 12 11  1  0
 13 12  2  0
 14 15  2  0
 16 12  1  0
 18 17  1  6
 18 19  1  0
 20 18  1  0
 21 20  1  6
 22 14  1  0
 22 21  1  0
 23 21  1  0
 24 23  2  0
 25 23  1  0
M  END
$$$$
