DDL.pdb
     RDKit          3D

 25 24  0  0  1  0  0  0  0  0999 V2000
    7.1900  -16.1637   18.9377 N   0  0  0  0  0  0  0  0  0  0  0  0
    7.9930  -15.3522   19.8351 C   0  0  1  0  0  0  0  0  0  0  0  0
    7.5725  -13.9069   19.7647 C   0  0  0  0  0  0  0  0  0  0  0  0
    7.9729  -13.2831   18.4952 C   0  0  0  0  0  0  0  0  0  0  0  0
    8.6130  -13.8966   17.6198 O   0  0  0  0  0  0  0  0  0  0  0  0
    7.9635  -15.9037   21.1913 C   0  0  0  0  0  0  0  0  0  0  0  0
    6.8494  -16.0729   21.7504 O   0  0  0  0  0  0  0  0  0  0  0  0
    7.6352  -11.9675   18.2462 O   0  0  0  0  0  0  0  0  0  0  0  0
    9.1036  -16.2641   21.9273 N   0  0  0  0  0  0  0  0  0  0  0  0
    9.0812  -16.9206   23.2265 C   0  0  1  0  0  0  0  0  0  0  0  0
    9.9108  -18.1582   23.2492 C   0  0  0  0  0  0  0  0  0  0  0  0
    9.7680  -18.8300   24.5565 C   0  0  0  0  0  0  0  0  0  0  0  0
    8.6645  -18.9869   25.1654 O   0  0  0  0  0  0  0  0  0  0  0  0
    9.4879  -15.9642   24.2953 C   0  0  0  0  0  0  0  0  0  0  0  0
   10.6251  -15.4413   24.3354 O   0  0  0  0  0  0  0  0  0  0  0  0
   10.8844  -19.3539   25.2273 O   0  0  0  0  0  0  0  0  0  0  0  0
    5.7360  -12.7281   26.6243 C   0  0  0  0  0  0  0  0  0  0  0  0
    6.9901  -13.3226   26.0390 C   0  0  1  0  0  0  0  0  0  0  0  0
    7.7871  -12.1551   25.4566 C   0  0  0  0  0  0  0  0  0  0  0  0
    7.8661  -14.0029   27.0385 C   0  0  0  0  0  0  0  0  0  0  0  0
    9.0356  -14.7498   26.4326 C   0  0  2  0  0  0  0  0  0  0  0  0
    8.5869  -15.5968   25.3338 N   0  0  0  0  0  0  0  0  0  0  0  0
    9.7846  -15.5593   27.4090 C   0  0  0  0  0  0  0  0  0  0  0  0
    9.7536  -16.8181   27.2913 O   0  0  0  0  0  0  0  0  0  0  0  0
   10.5228  -15.0066   28.4507 O   0  0  0  0  0  0  0  0  0  0  0  0
  2  1  1  6
  2  6  1  0
  2  3  1  0
  4  3  1  0
  5  4  2  0
  6  7  2  0
  8  4  1  0
  9 10  1  0
  9  6  1  0
 10 14  1  0
 10 11  1  6
 12 11  1  0
 13 12  2  0
 14 15  2  0
 16 12  1  0
 18 17  1  1
 18 19  1  0
 20 18  1  0
 21 20  1  1
 22 14  1  0
 22 21  1  0
 23 21  1  0
 24 23  2  0
 25 23  1  0
M  END
$$$$
