DDL.pdb
     RDKit          3D

 25 24  0  0  1  0  0  0  0  0999 V2000
    9.5810  -15.9162   19.5920 N   0  0  0  0  0  0  0  0  0  0  0  0
    8.2789  -16.0114   20.2278 C   0  0  1  0  0  0  0  0  0  0  0  0
    7.3954  -16.9820   19.4876 C   0  0  0  0  0  0  0  0  0  0  0  0
    7.4823  -16.7982   18.0317 C   0  0  0  0  0  0  0  0  0  0  0  0
    7.3954  -15.6789   17.4913 O   0  0  0  0  0  0  0  0  0  0  0  0
    8.4241  -16.3223   21.6514 C   0  0  0  0  0  0  0  0  0  0  0  0
    7.4104  -16.2472   22.3924 O   0  0  0  0  0  0  0  0  0  0  0  0
    7.6675  -17.8970   17.2161 O   0  0  0  0  0  0  0  0  0  0  0  0
    9.6293  -16.7041   22.2623 N   0  0  0  0  0  0  0  0  0  0  0  0
    9.7722  -17.0654   23.6653 C   0  0  1  0  0  0  0  0  0  0  0  0
   10.9318  -17.9710   23.9009 C   0  0  0  0  0  0  0  0  0  0  0  0
   10.7279  -19.2409   23.1753 C   0  0  0  0  0  0  0  0  0  0  0  0
    9.6951  -19.9718   23.2854 O   0  0  0  0  0  0  0  0  0  0  0  0
    9.8500  -15.8387   24.5090 C   0  0  0  0  0  0  0  0  0  0  0  0
   10.7308  -14.9635   24.3469 O   0  0  0  0  0  0  0  0  0  0  0  0
   11.6991  -19.7325   22.2889 O   0  0  0  0  0  0  0  0  0  0  0  0
    5.7336  -12.7889   26.0367 C   0  0  0  0  0  0  0  0  0  0  0  0
    7.0975  -13.3343   25.7035 C   0  0  1  0  0  0  0  0  0  0  0  0
    7.8983  -12.1657   25.1287 C   0  0  0  0  0  0  0  0  0  0  0  0
    7.8521  -13.8513   26.8836 C   0  0  0  0  0  0  0  0  0  0  0  0
    9.1480  -14.5520   26.5336 C   0  0  2  0  0  0  0  0  0  0  0  0
    8.9109  -15.6041   25.5522 N   0  0  0  0  0  0  0  0  0  0  0  0
    9.8467  -15.1126   27.7028 C   0  0  0  0  0  0  0  0  0  0  0  0
    9.9113  -16.3706   27.8144 O   0  0  0  0  0  0  0  0  0  0  0  0
   10.4377  -14.3263   28.6867 O   0  0  0  0  0  0  0  0  0  0  0  0
  2  1  1  6
  2  6  1  0
  2  3  1  0
  4  3  1  0
  5  4  2  0
  6  7  2  0
  8  4  1  0
  9 10  1  0
  9  6  1  0
 10 14  1  0
 10 11  1  6
 12 11  1  0
 13 12  2  0
 14 15  2  0
 16 12  1  0
 18 17  1  1
 18 19  1  0
 20 18  1  0
 21 20  1  1
 22 14  1  0
 22 21  1  0
 23 21  1  0
 24 23  2  0
 25 23  1  0
M  END
$$$$
