DDL.pdb
     RDKit          3D

 25 24  0  0  1  0  0  0  0  0999 V2000
    9.9716  -16.0220   19.9663 N   0  0  0  0  0  0  0  0  0  0  0  0
    8.6878  -16.2673   20.5992 C   0  0  1  0  0  0  0  0  0  0  0  0
    7.9291  -17.3416   19.8638 C   0  0  0  0  0  0  0  0  0  0  0  0
    7.9936  -17.1556   18.4070 C   0  0  0  0  0  0  0  0  0  0  0  0
    9.0524  -17.2795   17.7619 O   0  0  0  0  0  0  0  0  0  0  0  0
    8.8638  -16.5485   22.0254 C   0  0  0  0  0  0  0  0  0  0  0  0
    7.8419  -16.7360   22.7346 O   0  0  0  0  0  0  0  0  0  0  0  0
    6.8464  -16.8311   17.7101 O   0  0  0  0  0  0  0  0  0  0  0  0
   10.1076  -16.6259   22.6723 N   0  0  0  0  0  0  0  0  0  0  0  0
   10.2953  -16.9671   24.0751 C   0  0  1  0  0  0  0  0  0  0  0  0
   11.5834  -17.6758   24.3174 C   0  0  0  0  0  0  0  0  0  0  0  0
   11.6627  -18.8737   23.4573 C   0  0  0  0  0  0  0  0  0  0  0  0
   10.8277  -19.8303   23.4814 O   0  0  0  0  0  0  0  0  0  0  0  0
   10.1679  -15.7485   24.9244 C   0  0  0  0  0  0  0  0  0  0  0  0
   11.0642  -14.8767   24.9916 O   0  0  0  0  0  0  0  0  0  0  0  0
   12.7036  -19.0307   22.5286 O   0  0  0  0  0  0  0  0  0  0  0  0
    5.7117  -12.9491   25.7598 C   0  0  0  0  0  0  0  0  0  0  0  0
    7.1655  -13.3371   25.6917 C   0  0  1  0  0  0  0  0  0  0  0  0
    7.9365  -12.0571   25.3678 C   0  0  0  0  0  0  0  0  0  0  0  0
    7.7139  -13.8731   26.9727 C   0  0  0  0  0  0  0  0  0  0  0  0
    9.0418  -14.5866   26.8294 C   0  0  2  0  0  0  0  0  0  0  0  0
    9.0027  -15.5182   25.7084 N   0  0  0  0  0  0  0  0  0  0  0  0
    9.4617  -15.2964   28.0499 C   0  0  0  0  0  0  0  0  0  0  0  0
    9.6718  -14.6160   29.0950 O   0  0  0  0  0  0  0  0  0  0  0  0
    9.6369  -16.6754   28.1074 O   0  0  0  0  0  0  0  0  0  0  0  0
  2  1  1  6
  2  6  1  0
  2  3  1  0
  4  3  1  0
  5  4  2  0
  6  7  2  0
  8  4  1  0
  9 10  1  0
  9  6  1  0
 10 14  1  0
 10 11  1  6
 12 11  1  0
 13 12  2  0
 14 15  2  0
 16 12  1  0
 18 17  1  1
 18 19  1  0
 20 18  1  0
 21 20  1  1
 22 14  1  0
 22 21  1  0
 23 21  1  0
 24 23  2  0
 25 23  1  0
M  END
$$$$
