DDL.pdb
     RDKit          3D

 25 24  0  0  1  0  0  0  0  0999 V2000
    9.8045  -14.3921   18.8527 N   0  0  0  0  0  0  0  0  0  0  0  0
    8.5346  -14.0536   19.4705 C   0  0  1  0  0  0  0  0  0  0  0  0
    7.4031  -14.2301   18.4912 C   0  0  0  0  0  0  0  0  0  0  0  0
    7.8546  -14.0723   17.1011 C   0  0  0  0  0  0  0  0  0  0  0  0
    9.0511  -13.8968   16.8011 O   0  0  0  0  0  0  0  0  0  0  0  0
    8.3527  -14.8039   20.7147 C   0  0  0  0  0  0  0  0  0  0  0  0
    7.2960  -14.6314   21.3751 O   0  0  0  0  0  0  0  0  0  0  0  0
    6.9311  -14.1180   16.0754 O   0  0  0  0  0  0  0  0  0  0  0  0
    9.2839  -15.7166   21.2355 N   0  0  0  0  0  0  0  0  0  0  0  0
    9.1151  -16.4603   22.4756 C   0  0  1  0  0  0  0  0  0  0  0  0
    9.8564  -17.7528   22.4654 C   0  0  0  0  0  0  0  0  0  0  0  0
    9.5943  -18.4678   21.2001 C   0  0  0  0  0  0  0  0  0  0  0  0
    8.4455  -18.8512   20.8178 O   0  0  0  0  0  0  0  0  0  0  0  0
    9.4982  -15.6139   23.6414 C   0  0  0  0  0  0  0  0  0  0  0  0
   10.1779  -14.5689   23.5218 O   0  0  0  0  0  0  0  0  0  0  0  0
   10.6378  -18.7767   20.3133 O   0  0  0  0  0  0  0  0  0  0  0  0
    6.9892  -12.8285   26.8900 C   0  0  0  0  0  0  0  0  0  0  0  0
    7.6345  -13.4302   25.6691 C   0  0  1  0  0  0  0  0  0  0  0  0
    7.4473  -12.4157   24.5408 C   0  0  0  0  0  0  0  0  0  0  0  0
    9.1013  -13.6705   25.8108 C   0  0  0  0  0  0  0  0  0  0  0  0
    9.4702  -15.1123   26.0899 C   0  0  2  0  0  0  0  0  0  0  0  0
    9.1014  -15.9613   24.9632 N   0  0  0  0  0  0  0  0  0  0  0  0
    8.8720  -15.6425   27.3271 C   0  0  0  0  0  0  0  0  0  0  0  0
    7.9837  -16.5370   27.2263 O   0  0  0  0  0  0  0  0  0  0  0  0
    9.2372  -15.2078   28.5973 O   0  0  0  0  0  0  0  0  0  0  0  0
  2  1  1  6
  2  6  1  0
  2  3  1  0
  4  3  1  0
  5  4  2  0
  6  7  2  0
  8  4  1  0
  9 10  1  0
  9  6  1  0
 10 14  1  0
 10 11  1  6
 12 11  1  0
 13 12  2  0
 14 15  2  0
 16 12  1  0
 18 17  1  1
 18 19  1  0
 20 18  1  0
 21 20  1  6
 22 14  1  0
 22 21  1  0
 23 21  1  0
 24 23  2  0
 25 23  1  0
M  END
$$$$
