DDL.pdb
     RDKit          3D

 25 24  0  0  1  0  0  0  0  0999 V2000
    9.8455  -14.3534   19.0710 N   0  0  0  0  0  0  0  0  0  0  0  0
    8.6388  -13.7416   19.5986 C   0  0  1  0  0  0  0  0  0  0  0  0
    7.5912  -13.6176   18.5225 C   0  0  0  0  0  0  0  0  0  0  0  0
    8.1627  -13.8014   17.1806 C   0  0  0  0  0  0  0  0  0  0  0  0
    7.6855  -13.2535   16.1684 O   0  0  0  0  0  0  0  0  0  0  0  0
    8.1744  -14.4624   20.7856 C   0  0  0  0  0  0  0  0  0  0  0  0
    7.1279  -14.0673   21.3612 O   0  0  0  0  0  0  0  0  0  0  0  0
    9.2711  -14.6085   17.0168 O   0  0  0  0  0  0  0  0  0  0  0  0
    8.8194  -15.5798   21.3395 N   0  0  0  0  0  0  0  0  0  0  0  0
    8.3535  -16.3150   22.5064 C   0  0  1  0  0  0  0  0  0  0  0  0
    8.7235  -17.7573   22.4511 C   0  0  0  0  0  0  0  0  0  0  0  0
   10.1636  -17.8913   22.1530 C   0  0  0  0  0  0  0  0  0  0  0  0
   11.0384  -17.0142   22.4325 O   0  0  0  0  0  0  0  0  0  0  0  0
    8.8457  -15.6668   23.7555 C   0  0  0  0  0  0  0  0  0  0  0  0
    9.9838  -15.1523   23.8448 O   0  0  0  0  0  0  0  0  0  0  0  0
   10.6683  -19.0382   21.5201 O   0  0  0  0  0  0  0  0  0  0  0  0
    5.9331  -12.1629   26.4122 C   0  0  0  0  0  0  0  0  0  0  0  0
    7.1508  -12.9095   25.9340 C   0  0  1  0  0  0  0  0  0  0  0  0
    8.3185  -11.9264   26.0214 C   0  0  0  0  0  0  0  0  0  0  0  0
    7.5058  -14.0951   26.7691 C   0  0  0  0  0  0  0  0  0  0  0  0
    8.5442  -15.0046   26.1467 C   0  0  2  0  0  0  0  0  0  0  0  0
    8.0303  -15.6024   24.9200 N   0  0  0  0  0  0  0  0  0  0  0  0
    9.0168  -16.0638   27.0545 C   0  0  0  0  0  0  0  0  0  0  0  0
    8.6603  -17.2545   26.8211 O   0  0  0  0  0  0  0  0  0  0  0  0
    9.8347  -15.8175   28.1527 O   0  0  0  0  0  0  0  0  0  0  0  0
  2  1  1  6
  2  6  1  0
  2  3  1  0
  4  3  1  0
  5  4  2  0
  6  7  2  0
  8  4  1  0
  9 10  1  0
  9  6  1  0
 10 14  1  0
 10 11  1  6
 12 11  1  0
 13 12  2  0
 14 15  2  0
 16 12  1  0
 18 17  1  1
 18 19  1  0
 20 18  1  0
 21 20  1  1
 22 14  1  0
 22 21  1  0
 23 21  1  0
 24 23  2  0
 25 23  1  0
M  END
$$$$
