DDL.pdb
     RDKit          3D

 25 24  0  0  1  0  0  0  0  0999 V2000
    9.6284  -16.8271   19.9365 N   0  0  0  0  0  0  0  0  0  0  0  0
    8.3890  -16.0710   19.9095 C   0  0  1  0  0  0  0  0  0  0  0  0
    7.5563  -16.4574   18.7146 C   0  0  0  0  0  0  0  0  0  0  0  0
    8.3891  -16.7322   17.5347 C   0  0  0  0  0  0  0  0  0  0  0  0
    9.6341  -16.7000   17.5713 O   0  0  0  0  0  0  0  0  0  0  0  0
    7.6791  -16.2029   21.1835 C   0  0  0  0  0  0  0  0  0  0  0  0
    6.5848  -15.6001   21.3304 O   0  0  0  0  0  0  0  0  0  0  0  0
    7.7855  -17.0397   16.3314 O   0  0  0  0  0  0  0  0  0  0  0  0
    8.1349  -16.9639   22.2718 N   0  0  0  0  0  0  0  0  0  0  0  0
    7.4992  -17.0067   23.5808 C   0  0  1  0  0  0  0  0  0  0  0  0
    7.7215  -18.3060   24.2755 C   0  0  0  0  0  0  0  0  0  0  0  0
    6.9126  -18.3561   25.5099 C   0  0  0  0  0  0  0  0  0  0  0  0
    5.7785  -17.8011   25.6471 O   0  0  0  0  0  0  0  0  0  0  0  0
    7.9490  -15.8532   24.4112 C   0  0  0  0  0  0  0  0  0  0  0  0
    7.7485  -14.6630   24.0772 O   0  0  0  0  0  0  0  0  0  0  0  0
    7.3662  -19.0454   26.6456 O   0  0  0  0  0  0  0  0  0  0  0  0
    6.2179  -12.3094   25.8931 C   0  0  0  0  0  0  0  0  0  0  0  0
    7.4633  -13.1173   25.6373 C   0  0  1  0  0  0  0  0  0  0  0  0
    8.6033  -12.1106   25.4812 C   0  0  0  0  0  0  0  0  0  0  0  0
    7.8333  -14.0368   26.7539 C   0  0  0  0  0  0  0  0  0  0  0  0
    9.0294  -14.9181   26.4620 C   0  0  2  0  0  0  0  0  0  0  0  0
    8.6366  -16.0569   25.6404 N   0  0  0  0  0  0  0  0  0  0  0  0
    9.7173  -15.3948   27.6741 C   0  0  0  0  0  0  0  0  0  0  0  0
   10.2213  -14.5352   28.4528 O   0  0  0  0  0  0  0  0  0  0  0  0
    9.8379  -16.7414   28.0022 O   0  0  0  0  0  0  0  0  0  0  0  0
  2  1  1  1
  2  6  1  0
  2  3  1  0
  4  3  1  0
  5  4  2  0
  6  7  2  0
  8  4  1  0
  9 10  1  0
  9  6  1  0
 10 14  1  0
 10 11  1  1
 12 11  1  0
 13 12  2  0
 14 15  2  0
 16 12  1  0
 18 17  1  1
 18 19  1  0
 20 18  1  0
 21 20  1  1
 22 14  1  0
 22 21  1  0
 23 21  1  0
 24 23  2  0
 25 23  1  0
M  END
$$$$
