WVP.pdb
     RDKit          3D

 29 31  0  0  1  0  0  0  0  0999 V2000
   21.3338  -18.3367  -16.2372 N   0  0  0  0  0  0  0  0  0  0  0  0
   21.9635  -19.4660  -16.8248 C   0  0  1  0  0  0  0  0  0  0  0  0
   21.7792  -19.5731  -18.3081 C   0  0  0  0  0  0  0  0  0  0  0  0
   20.4424  -19.1023  -18.7266 C   0  0  0  0  0  0  0  0  0  0  0  0
   20.1680  -17.9050  -19.3534 C   0  0  0  0  0  0  0  0  0  0  0  0
   18.8626  -17.7919  -19.5659 N   0  0  0  0  0  0  0  0  0  0  0  0
   18.2459  -18.8986  -19.0915 C   0  0  0  0  0  0  0  0  0  0  0  0
   16.9258  -19.2719  -19.0707 C   0  0  0  0  0  0  0  0  0  0  0  0
   16.5436  -20.4638  -18.5328 C   0  0  0  0  0  0  0  0  0  0  0  0
   17.5006  -21.2846  -18.0127 C   0  0  0  0  0  0  0  0  0  0  0  0
   18.8311  -20.9435  -18.0162 C   0  0  0  0  0  0  0  0  0  0  0  0
   19.2237  -19.7286  -18.5632 C   0  0  0  0  0  0  0  0  0  0  0  0
   23.3984  -19.5641  -16.4303 C   0  0  0  0  0  0  0  0  0  0  0  0
   24.1150  -20.3964  -17.0429 O   0  0  0  0  0  0  0  0  0  0  0  0
   25.5915  -16.6804  -14.1361 C   0  0  0  0  0  0  0  0  0  0  0  0
   26.0906  -17.7699  -15.0294 C   0  0  2  0  0  0  0  0  0  0  0  0
   26.1840  -17.3294  -16.4776 C   0  0  0  0  0  0  0  0  0  0  0  0
   25.3576  -19.0973  -14.9007 C   0  0  2  0  0  0  0  0  0  0  0  0
   23.9890  -18.7923  -15.4300 N   0  0  0  0  0  0  0  0  0  0  0  0
   25.2142  -19.5817  -13.5356 C   0  0  0  0  0  0  0  0  0  0  0  0
   24.3535  -18.9842  -12.7925 O   0  0  0  0  0  0  0  0  0  0  0  0
   25.9203  -20.6516  -12.9285 N   0  0  0  0  0  0  0  0  0  0  0  0
   26.8043  -21.6195  -13.5416 C   0  0  0  0  0  0  0  0  0  0  0  0
   27.8911  -21.7554  -12.4773 C   0  0  0  0  0  0  0  0  0  0  0  0
   26.9671  -22.0177  -11.2724 C   0  0  0  0  0  0  0  0  0  0  0  0
   25.8128  -21.0348  -11.5348 C   0  0  1  0  0  0  0  0  0  0  0  0
   25.9156  -19.8918  -10.5985 C   0  0  0  0  0  0  0  0  0  0  0  0
   25.3366  -19.9902   -9.3490 O   0  0  0  0  0  0  0  0  0  0  0  0
   26.5098  -18.8418  -10.9040 O   0  0  0  0  0  0  0  0  0  0  0  0
  2  1  1  6
  2  3  1  0
  2 13  1  0
  4 12  1  0
  4  3  1  0
  5  4  2  0
  6  5  1  0
  6  7  1  0
  7  8  1  0
  7 12  2  0
  8  9  2  0
  9 10  1  0
 11 10  2  0
 12 11  1  0
 13 14  2  0
 16 18  1  0
 16 15  1  1
 17 16  1  0
 19 13  1  0
 18 19  1  1
 20 18  1  0
 20 21  2  0
 22 26  1  0
 22 20  1  0
 23 22  1  0
 24 23  1  0
 24 25  1  0
 25 26  1  0
 26 27  1  1
 27 29  2  0
 27 28  1  0
M  END
$$$$
