WVP.pdb
     RDKit          3D

 29 31  0  0  1  0  0  0  0  0999 V2000
   26.0429  -21.9081   -8.6068 N   0  0  0  0  0  0  0  0  0  0  0  0
   26.5573  -20.7094   -9.1689 C   0  0  1  0  0  0  0  0  0  0  0  0
   27.8603  -20.2611   -8.5797 C   0  0  0  0  0  0  0  0  0  0  0  0
   27.9394  -20.5664   -7.1360 C   0  0  0  0  0  0  0  0  0  0  0  0
   28.0730  -21.8225   -6.5828 C   0  0  0  0  0  0  0  0  0  0  0  0
   28.0893  -21.7364   -5.2583 N   0  0  0  0  0  0  0  0  0  0  0  0
   27.9688  -20.4364   -4.9041 C   0  0  0  0  0  0  0  0  0  0  0  0
   27.9368  -19.8219   -3.6778 C   0  0  0  0  0  0  0  0  0  0  0  0
   27.8125  -18.4690   -3.5756 C   0  0  0  0  0  0  0  0  0  0  0  0
   27.7202  -17.7315   -4.7191 C   0  0  0  0  0  0  0  0  0  0  0  0
   27.7486  -18.3127   -5.9633 C   0  0  0  0  0  0  0  0  0  0  0  0
   27.8743  -19.6919   -6.0706 C   0  0  0  0  0  0  0  0  0  0  0  0
   26.6099  -20.7773  -10.6578 C   0  0  0  0  0  0  0  0  0  0  0  0
   27.2322  -21.7400  -11.1751 O   0  0  0  0  0  0  0  0  0  0  0  0
   24.2143  -21.4890  -13.0439 C   0  0  0  0  0  0  0  0  0  0  0  0
   25.6560  -21.2648  -13.3689 C   0  0  2  0  0  0  0  0  0  0  0  0
   26.5445  -22.3740  -12.8396 C   0  0  0  0  0  0  0  0  0  0  0  0
   26.1976  -19.8938  -12.9913 C   0  0  2  0  0  0  0  0  0  0  0  0
   26.0133  -19.8437  -11.5048 N   0  0  0  0  0  0  0  0  0  0  0  0
   25.4724  -18.7734  -13.5724 C   0  0  0  0  0  0  0  0  0  0  0  0
   24.2170  -18.6938  -13.3122 O   0  0  0  0  0  0  0  0  0  0  0  0
   26.0005  -17.7476  -14.3974 N   0  0  0  0  0  0  0  0  0  0  0  0
   27.3811  -17.4736  -14.7337 C   0  0  0  0  0  0  0  0  0  0  0  0
   27.2626  -17.0746  -16.2031 C   0  0  0  0  0  0  0  0  0  0  0  0
   26.1502  -16.0208  -16.0407 C   0  0  0  0  0  0  0  0  0  0  0  0
   25.2219  -16.6915  -15.0132 C   0  0  1  0  0  0  0  0  0  0  0  0
   24.0011  -17.1790  -15.6957 C   0  0  0  0  0  0  0  0  0  0  0  0
   22.9083  -16.3420  -15.8010 O   0  0  0  0  0  0  0  0  0  0  0  0
   23.9296  -18.3238  -16.1788 O   0  0  0  0  0  0  0  0  0  0  0  0
  2  1  1  1
  2  3  1  0
  2 13  1  0
  4 12  1  0
  4  3  1  0
  5  4  2  0
  6  5  1  0
  6  7  1  0
  7  8  1  0
  7 12  2  0
  8  9  2  0
  9 10  1  0
 11 10  2  0
 12 11  1  0
 13 14  2  0
 16 18  1  0
 16 15  1  1
 17 16  1  0
 19 13  1  0
 18 19  1  1
 20 18  1  0
 20 21  2  0
 22 26  1  0
 22 20  1  0
 23 22  1  0
 24 23  1  0
 24 25  1  0
 25 26  1  0
 26 27  1  6
 27 29  2  0
 27 28  1  0
M  END
$$$$
