WVP.pdb
     RDKit          3D

 29 31  0  0  1  0  0  0  0  0999 V2000
   25.8358  -20.4212  -13.0833 N   0  0  0  0  0  0  0  0  0  0  0  0
   25.5152  -20.6953  -11.7271 C   0  0  1  0  0  0  0  0  0  0  0  0
   24.4115  -21.6920  -11.5431 C   0  0  0  0  0  0  0  0  0  0  0  0
   23.1456  -21.2201  -12.1419 C   0  0  0  0  0  0  0  0  0  0  0  0
   22.6512  -21.5852  -13.3764 C   0  0  0  0  0  0  0  0  0  0  0  0
   21.5046  -20.9585  -13.6103 N   0  0  0  0  0  0  0  0  0  0  0  0
   21.2131  -20.1717  -12.5490 C   0  0  0  0  0  0  0  0  0  0  0  0
   20.1552  -19.3364  -12.2932 C   0  0  0  0  0  0  0  0  0  0  0  0
   20.0795  -18.6401  -11.1246 C   0  0  0  0  0  0  0  0  0  0  0  0
   21.0784  -18.7885  -10.2079 C   0  0  0  0  0  0  0  0  0  0  0  0
   22.1521  -19.6156  -10.4302 C   0  0  0  0  0  0  0  0  0  0  0  0
   22.2325  -20.3261  -11.6211 C   0  0  0  0  0  0  0  0  0  0  0  0
   26.7281  -21.0503  -10.9352 C   0  0  0  0  0  0  0  0  0  0  0  0
   27.7390  -21.4514  -11.5668 O   0  0  0  0  0  0  0  0  0  0  0  0
   26.6592  -18.0439   -8.9595 C   0  0  0  0  0  0  0  0  0  0  0  0
   27.8418  -18.8336   -9.4198 C   0  0  2  0  0  0  0  0  0  0  0  0
   27.9864  -18.8267  -10.9295 C   0  0  0  0  0  0  0  0  0  0  0  0
   27.9320  -20.2464   -8.8615 C   0  0  2  0  0  0  0  0  0  0  0  0
   26.8080  -20.9638   -9.5455 N   0  0  0  0  0  0  0  0  0  0  0  0
   27.7210  -20.3460   -7.4247 C   0  0  0  0  0  0  0  0  0  0  0  0
   26.5625  -20.0124   -6.9813 O   0  0  0  0  0  0  0  0  0  0  0  0
   28.6566  -20.7781   -6.4502 N   0  0  0  0  0  0  0  0  0  0  0  0
   29.9318  -21.4343   -6.6441 C   0  0  0  0  0  0  0  0  0  0  0  0
   30.7840  -20.7669   -5.5668 C   0  0  0  0  0  0  0  0  0  0  0  0
   29.8278  -20.9920   -4.3796 C   0  0  0  0  0  0  0  0  0  0  0  0
   28.4557  -20.7105   -5.0164 C   0  0  1  0  0  0  0  0  0  0  0  0
   27.9565  -19.3959   -4.5513 C   0  0  0  0  0  0  0  0  0  0  0  0
   27.4246  -19.2879   -3.2818 O   0  0  0  0  0  0  0  0  0  0  0  0
   28.0017  -18.3821   -5.2717 O   0  0  0  0  0  0  0  0  0  0  0  0
  2  1  1  6
  2  3  1  0
  2 13  1  0
  4 12  1  0
  4  3  1  0
  5  4  2  0
  6  5  1  0
  6  7  1  0
  7  8  1  0
  7 12  2  0
  8  9  2  0
  9 10  1  0
 11 10  2  0
 12 11  1  0
 13 14  2  0
 16 18  1  0
 16 15  1  6
 17 16  1  0
 19 13  1  0
 18 19  1  6
 20 18  1  0
 20 21  2  0
 22 26  1  0
 22 20  1  0
 23 22  1  0
 24 23  1  0
 24 25  1  0
 25 26  1  0
 26 27  1  6
 27 29  2  0
 27 28  1  0
M  END
$$$$
