WVP.pdb
     RDKit          3D

 29 31  0  0  1  0  0  0  0  0999 V2000
   26.5613  -18.1450   -8.3024 N   0  0  0  0  0  0  0  0  0  0  0  0
   26.7072  -19.5198   -8.6282 C   0  0  1  0  0  0  0  0  0  0  0  0
   26.2138  -20.4603   -7.5710 C   0  0  0  0  0  0  0  0  0  0  0  0
   26.8488  -20.1923   -6.2638 C   0  0  0  0  0  0  0  0  0  0  0  0
   26.1990  -19.7750   -5.1212 C   0  0  0  0  0  0  0  0  0  0  0  0
   27.0731  -19.6091   -4.1361 N   0  0  0  0  0  0  0  0  0  0  0  0
   28.3099  -19.9091   -4.5951 C   0  0  0  0  0  0  0  0  0  0  0  0
   29.5381  -19.9045   -3.9838 C   0  0  0  0  0  0  0  0  0  0  0  0
   30.6617  -20.2604   -4.6672 C   0  0  0  0  0  0  0  0  0  0  0  0
   30.5444  -20.6236   -5.9766 C   0  0  0  0  0  0  0  0  0  0  0  0
   29.3314  -20.6397   -6.6207 C   0  0  0  0  0  0  0  0  0  0  0  0
   28.1842  -20.2765   -5.9267 C   0  0  0  0  0  0  0  0  0  0  0  0
   26.1322  -19.8324   -9.9683 C   0  0  0  0  0  0  0  0  0  0  0  0
   25.1589  -19.1391  -10.3604 O   0  0  0  0  0  0  0  0  0  0  0  0
   29.0035  -20.9889  -12.3913 C   0  0  0  0  0  0  0  0  0  0  0  0
   27.6754  -21.5346  -12.8069 C   0  0  2  0  0  0  0  0  0  0  0  0
   27.5908  -21.7655  -14.3034 C   0  0  0  0  0  0  0  0  0  0  0  0
   26.4700  -20.7580  -12.2975 C   0  0  2  0  0  0  0  0  0  0  0  0
   26.6069  -20.8402  -10.8073 N   0  0  0  0  0  0  0  0  0  0  0  0
   25.1816  -21.3283  -12.6629 C   0  0  0  0  0  0  0  0  0  0  0  0
   25.0111  -22.5800  -12.4296 O   0  0  0  0  0  0  0  0  0  0  0  0
   24.0813  -20.6516  -13.2487 N   0  0  0  0  0  0  0  0  0  0  0  0
   23.9033  -19.2333  -13.4740 C   0  0  0  0  0  0  0  0  0  0  0  0
   23.2174  -19.2260  -14.8384 C   0  0  0  0  0  0  0  0  0  0  0  0
   22.0974  -20.2322  -14.5108 C   0  0  0  0  0  0  0  0  0  0  0  0
   22.8461  -21.2816  -13.6708 C   0  0  1  0  0  0  0  0  0  0  0  0
   23.0534  -22.5047  -14.4800 C   0  0  0  0  0  0  0  0  0  0  0  0
   22.0645  -23.4676  -14.5110 O   0  0  0  0  0  0  0  0  0  0  0  0
   24.0949  -22.6921  -15.1350 O   0  0  0  0  0  0  0  0  0  0  0  0
  2  1  1  1
  2  3  1  0
  2 13  1  0
  4 12  1  0
  4  3  1  0
  5  4  2  0
  6  5  1  0
  6  7  1  0
  7  8  1  0
  7 12  2  0
  8  9  2  0
  9 10  1  0
 11 10  2  0
 12 11  1  0
 13 14  2  0
 16 18  1  0
 16 15  1  6
 17 16  1  0
 19 13  1  0
 18 19  1  1
 20 18  1  0
 20 21  2  0
 22 26  1  0
 22 20  1  0
 23 22  1  0
 24 23  1  0
 24 25  1  0
 25 26  1  0
 26 27  1  6
 27 29  2  0
 27 28  1  0
M  END
$$$$
