WVP.pdb
     RDKit          3D

 29 31  0  0  1  0  0  0  0  0999 V2000
   22.4226  -20.0758  -18.0085 N   0  0  0  0  0  0  0  0  0  0  0  0
   22.4747  -19.5389  -16.6947 C   0  0  1  0  0  0  0  0  0  0  0  0
   21.1946  -19.6638  -15.9256 C   0  0  0  0  0  0  0  0  0  0  0  0
   20.2267  -18.6133  -16.3042 C   0  0  0  0  0  0  0  0  0  0  0  0
   19.4029  -18.6355  -17.4100 C   0  0  0  0  0  0  0  0  0  0  0  0
   18.6780  -17.5245  -17.4590 N   0  0  0  0  0  0  0  0  0  0  0  0
   18.9987  -16.7472  -16.3992 C   0  0  0  0  0  0  0  0  0  0  0  0
   18.5391  -15.5200  -15.9929 C   0  0  0  0  0  0  0  0  0  0  0  0
   19.0209  -14.9309  -14.8629 C   0  0  0  0  0  0  0  0  0  0  0  0
   19.9730  -15.5853  -14.1380 C   0  0  0  0  0  0  0  0  0  0  0  0
   20.4563  -16.8145  -14.5147 C   0  0  0  0  0  0  0  0  0  0  0  0
   19.9676  -17.4172  -15.6668 C   0  0  0  0  0  0  0  0  0  0  0  0
   23.6412  -20.0666  -15.9298 C   0  0  0  0  0  0  0  0  0  0  0  0
   23.8334  -21.3093  -15.9450 O   0  0  0  0  0  0  0  0  0  0  0  0
   26.7975  -17.5679  -14.2851 C   0  0  0  0  0  0  0  0  0  0  0  0
   26.8494  -18.9488  -14.8551 C   0  0  2  0  0  0  0  0  0  0  0  0
   27.0620  -18.9440  -16.3567 C   0  0  0  0  0  0  0  0  0  0  0  0
   25.6903  -19.8534  -14.4629 C   0  0  2  0  0  0  0  0  0  0  0  0
   24.5262  -19.2693  -15.2043 N   0  0  0  0  0  0  0  0  0  0  0  0
   25.3685  -19.8468  -13.0433 C   0  0  0  0  0  0  0  0  0  0  0  0
   24.8703  -18.7643  -12.5636 O   0  0  0  0  0  0  0  0  0  0  0  0
   25.5400  -20.9115  -12.1220 N   0  0  0  0  0  0  0  0  0  0  0  0
   25.8499  -22.3000  -12.3867 C   0  0  0  0  0  0  0  0  0  0  0  0
   26.8106  -22.6203  -11.2435 C   0  0  0  0  0  0  0  0  0  0  0  0
   25.9356  -22.0985  -10.0875 C   0  0  0  0  0  0  0  0  0  0  0  0
   25.3451  -20.8114  -10.6892 C   0  0  1  0  0  0  0  0  0  0  0  0
   26.0090  -19.6340  -10.0837 C   0  0  0  0  0  0  0  0  0  0  0  0
   25.5837  -19.1806   -8.8510 O   0  0  0  0  0  0  0  0  0  0  0  0
   26.9416  -19.0386  -10.6535 O   0  0  0  0  0  0  0  0  0  0  0  0
  2  1  1  6
  2  3  1  0
  2 13  1  0
  4 12  1  0
  4  3  1  0
  5  4  2  0
  6  5  1  0
  6  7  1  0
  7  8  1  0
  7 12  2  0
  8  9  2  0
  9 10  1  0
 11 10  2  0
 12 11  1  0
 13 14  2  0
 16 18  1  0
 16 15  1  6
 17 16  1  0
 19 13  1  0
 18 19  1  6
 20 18  1  0
 20 21  2  0
 22 26  1  0
 22 20  1  0
 23 22  1  0
 24 23  1  0
 24 25  1  0
 25 26  1  0
 26 27  1  1
 27 29  2  0
 27 28  1  0
M  END
$$$$
