WVP.pdb
     RDKit          3D

 29 31  0  0  1  0  0  0  0  0999 V2000
   24.2330  -22.5031  -13.6113 N   0  0  0  0  0  0  0  0  0  0  0  0
   24.3085  -21.4435  -12.6686 C   0  0  1  0  0  0  0  0  0  0  0  0
   23.0131  -21.1360  -11.9807 C   0  0  0  0  0  0  0  0  0  0  0  0
   21.9789  -20.6935  -12.9390 C   0  0  0  0  0  0  0  0  0  0  0  0
   20.7335  -21.2628  -13.1023 C   0  0  0  0  0  0  0  0  0  0  0  0
   20.0681  -20.6325  -14.0626 N   0  0  0  0  0  0  0  0  0  0  0  0
   20.8462  -19.6409  -14.5540 C   0  0  0  0  0  0  0  0  0  0  0  0
   20.6281  -18.7098  -15.5378 C   0  0  0  0  0  0  0  0  0  0  0  0
   21.5818  -17.7900  -15.8551 C   0  0  0  0  0  0  0  0  0  0  0  0
   22.7634  -17.8102  -15.1743 C   0  0  0  0  0  0  0  0  0  0  0  0
   23.0163  -18.7276  -14.1840 C   0  0  0  0  0  0  0  0  0  0  0  0
   22.0463  -19.6672  -13.8589 C   0  0  0  0  0  0  0  0  0  0  0  0
   25.4229  -21.6474  -11.6987 C   0  0  0  0  0  0  0  0  0  0  0  0
   25.6830  -22.8274  -11.3503 O   0  0  0  0  0  0  0  0  0  0  0  0
   28.2839  -18.6887  -11.1606 C   0  0  0  0  0  0  0  0  0  0  0  0
   28.5047  -20.1512  -10.9445 C   0  0  2  0  0  0  0  0  0  0  0  0
   28.9356  -20.8619  -12.2131 C   0  0  0  0  0  0  0  0  0  0  0  0
   27.3588  -20.8835  -10.2617 C   0  0  2  0  0  0  0  0  0  0  0  0
   26.1893  -20.6144  -11.1594 N   0  0  0  0  0  0  0  0  0  0  0  0
   27.0288  -20.3896   -8.9328 C   0  0  0  0  0  0  0  0  0  0  0  0
   26.1340  -19.4709   -8.8580 O   0  0  0  0  0  0  0  0  0  0  0  0
   27.5851  -20.8146   -7.6992 N   0  0  0  0  0  0  0  0  0  0  0  0
   28.4450  -21.9478   -7.4337 C   0  0  0  0  0  0  0  0  0  0  0  0
   29.4085  -21.3632   -6.4030 C   0  0  0  0  0  0  0  0  0  0  0  0
   28.3534  -20.7890   -5.4379 C   0  0  0  0  0  0  0  0  0  0  0  0
   27.3120  -20.2093   -6.4109 C   0  0  1  0  0  0  0  0  0  0  0  0
   27.4135  -18.7317   -6.4191 C   0  0  0  0  0  0  0  0  0  0  0  0
   26.9247  -18.0168   -5.3439 O   0  0  0  0  0  0  0  0  0  0  0  0
   27.9273  -18.1124   -7.3685 O   0  0  0  0  0  0  0  0  0  0  0  0
  2  1  1  1
  2  3  1  0
  2 13  1  0
  4 12  1  0
  4  3  1  0
  5  4  2  0
  6  5  1  0
  6  7  1  0
  7  8  1  0
  7 12  2  0
  8  9  2  0
  9 10  1  0
 11 10  2  0
 12 11  1  0
 13 14  2  0
 16 18  1  0
 16 15  1  6
 17 16  1  0
 19 13  1  0
 18 19  1  6
 20 18  1  0
 20 21  2  0
 22 26  1  0
 22 20  1  0
 23 22  1  0
 24 23  1  0
 24 25  1  0
 25 26  1  0
 26 27  1  6
 27 29  2  0
 27 28  1  0
M  END
$$$$
