WVP.pdb
     RDKit          3D

 29 31  0  0  1  0  0  0  0  0999 V2000
   26.2549  -21.4222  -12.9654 N   0  0  0  0  0  0  0  0  0  0  0  0
   27.2929  -21.0951  -12.0529 C   0  0  1  0  0  0  0  0  0  0  0  0
   28.4191  -20.3105  -12.6544 C   0  0  0  0  0  0  0  0  0  0  0  0
   29.5243  -21.1896  -13.0897 C   0  0  0  0  0  0  0  0  0  0  0  0
   29.7337  -21.6475  -14.3735 C   0  0  0  0  0  0  0  0  0  0  0  0
   30.8033  -22.4329  -14.4071 N   0  0  0  0  0  0  0  0  0  0  0  0
   31.3242  -22.5142  -13.1613 C   0  0  0  0  0  0  0  0  0  0  0  0
   32.4158  -23.1833  -12.6684 C   0  0  0  0  0  0  0  0  0  0  0  0
   32.7495  -23.1035  -11.3499 C   0  0  0  0  0  0  0  0  0  0  0  0
   31.9760  -22.3427  -10.5234 C   0  0  0  0  0  0  0  0  0  0  0  0
   30.8762  -21.6595  -10.9820 C   0  0  0  0  0  0  0  0  0  0  0  0
   30.5331  -21.7397  -12.3256 C   0  0  0  0  0  0  0  0  0  0  0  0
   26.7586  -20.4512  -10.8184 C   0  0  0  0  0  0  0  0  0  0  0  0
   25.8720  -19.5703  -10.9583 O   0  0  0  0  0  0  0  0  0  0  0  0
   24.2958  -20.4345   -9.5405 C   0  0  0  0  0  0  0  0  0  0  0  0
   25.1216  -20.8027   -8.3503 C   0  0  2  0  0  0  0  0  0  0  0  0
   24.3842  -20.5737   -7.0450 C   0  0  0  0  0  0  0  0  0  0  0  0
   26.5135  -20.1887   -8.3149 C   0  0  2  0  0  0  0  0  0  0  0  0
   27.1799  -20.7662   -9.5267 N   0  0  0  0  0  0  0  0  0  0  0  0
   27.3073  -20.5505   -7.1497 C   0  0  0  0  0  0  0  0  0  0  0  0
   27.2044  -21.7591   -6.7268 O   0  0  0  0  0  0  0  0  0  0  0  0
   28.1931  -19.7134   -6.4242 N   0  0  0  0  0  0  0  0  0  0  0  0
   28.6321  -18.3700   -6.7354 C   0  0  0  0  0  0  0  0  0  0  0  0
   28.6503  -17.7277   -5.3499 C   0  0  0  0  0  0  0  0  0  0  0  0
   29.4884  -18.8049   -4.6349 C   0  0  0  0  0  0  0  0  0  0  0  0
   28.9146  -20.1030   -5.2290 C   0  0  1  0  0  0  0  0  0  0  0  0
   28.0648  -20.7745   -4.2187 C   0  0  0  0  0  0  0  0  0  0  0  0
   28.6637  -21.4043   -3.1459 O   0  0  0  0  0  0  0  0  0  0  0  0
   26.8235  -20.7887   -4.3071 O   0  0  0  0  0  0  0  0  0  0  0  0
  2  1  1  6
  2  3  1  0
  2 13  1  0
  4 12  1  0
  4  3  1  0
  5  4  2  0
  6  5  1  0
  6  7  1  0
  7  8  1  0
  7 12  2  0
  8  9  2  0
  9 10  1  0
 11 10  2  0
 12 11  1  0
 13 14  2  0
 16 18  1  0
 16 15  1  6
 17 16  1  0
 19 13  1  0
 18 19  1  6
 20 18  1  0
 20 21  2  0
 22 26  1  0
 22 20  1  0
 23 22  1  0
 24 23  1  0
 24 25  1  0
 25 26  1  0
 26 27  1  1
 27 29  2  0
 27 28  1  0
M  END
$$$$
