WVP.pdb
     RDKit          3D

 29 31  0  0  1  0  0  0  0  0999 V2000
   25.9604  -22.0759  -12.8354 N   0  0  0  0  0  0  0  0  0  0  0  0
   26.1276  -21.2685  -11.6789 C   0  0  1  0  0  0  0  0  0  0  0  0
   24.8531  -20.9537  -10.9564 C   0  0  0  0  0  0  0  0  0  0  0  0
   25.1050  -20.2033   -9.7085 C   0  0  0  0  0  0  0  0  0  0  0  0
   25.8111  -19.0233   -9.6049 C   0  0  0  0  0  0  0  0  0  0  0  0
   25.8645  -18.6356   -8.3364 N   0  0  0  0  0  0  0  0  0  0  0  0
   25.2025  -19.5378   -7.5762 C   0  0  0  0  0  0  0  0  0  0  0  0
   24.9647  -19.5969   -6.2263 C   0  0  0  0  0  0  0  0  0  0  0  0
   24.2510  -20.6237   -5.6854 C   0  0  0  0  0  0  0  0  0  0  0  0
   23.7741  -21.5973   -6.5130 C   0  0  0  0  0  0  0  0  0  0  0  0
   23.9931  -21.5705   -7.8687 C   0  0  0  0  0  0  0  0  0  0  0  0
   24.7210  -20.5254   -8.4229 C   0  0  0  0  0  0  0  0  0  0  0  0
   27.1669  -21.8241  -10.7649 C   0  0  0  0  0  0  0  0  0  0  0  0
   26.9225  -22.9235  -10.2053 O   0  0  0  0  0  0  0  0  0  0  0  0
   31.7925  -22.1708   -9.2292 C   0  0  0  0  0  0  0  0  0  0  0  0
   30.6798  -21.5987  -10.0472 C   0  0  2  0  0  0  0  0  0  0  0  0
   30.9793  -20.1894  -10.5207 C   0  0  0  0  0  0  0  0  0  0  0  0
   29.2997  -21.6880   -9.4125 C   0  0  2  0  0  0  0  0  0  0  0  0
   28.3857  -21.2017  -10.4962 N   0  0  0  0  0  0  0  0  0  0  0  0
   29.1105  -20.8351   -8.2483 C   0  0  0  0  0  0  0  0  0  0  0  0
   28.9382  -19.5809   -8.4664 O   0  0  0  0  0  0  0  0  0  0  0  0
   29.0902  -21.2359   -6.8879 N   0  0  0  0  0  0  0  0  0  0  0  0
   29.0985  -22.5735   -6.3354 C   0  0  0  0  0  0  0  0  0  0  0  0
   30.0109  -22.3960   -5.1236 C   0  0  0  0  0  0  0  0  0  0  0  0
   29.3017  -21.1736   -4.5097 C   0  0  0  0  0  0  0  0  0  0  0  0
   28.9687  -20.3371   -5.7573 C   0  0  1  0  0  0  0  0  0  0  0  0
   29.8809  -19.1723   -5.8282 C   0  0  0  0  0  0  0  0  0  0  0  0
   29.7474  -18.1549   -4.9046 O   0  0  0  0  0  0  0  0  0  0  0  0
   30.7669  -19.0820   -6.6975 O   0  0  0  0  0  0  0  0  0  0  0  0
  2  1  1  6
  2  3  1  0
  2 13  1  0
  4 12  1  0
  4  3  1  0
  5  4  2  0
  6  5  1  0
  6  7  1  0
  7  8  1  0
  7 12  2  0
  8  9  2  0
  9 10  1  0
 11 10  2  0
 12 11  1  0
 13 14  2  0
 16 18  1  0
 16 15  1  1
 17 16  1  0
 19 13  1  0
 18 19  1  6
 20 18  1  0
 20 21  2  0
 22 26  1  0
 22 20  1  0
 23 22  1  0
 24 23  1  0
 24 25  1  0
 25 26  1  0
 26 27  1  6
 27 29  2  0
 27 28  1  0
M  END
$$$$
