WVP.pdb
     RDKit          3D

 29 31  0  0  1  0  0  0  0  0999 V2000
   26.1234  -21.1420  -13.0804 N   0  0  0  0  0  0  0  0  0  0  0  0
   25.4673  -21.0146  -11.8272 C   0  0  1  0  0  0  0  0  0  0  0  0
   24.1195  -21.6671  -11.7671 C   0  0  0  0  0  0  0  0  0  0  0  0
   23.0289  -20.6767  -11.8840 C   0  0  0  0  0  0  0  0  0  0  0  0
   22.7145  -19.9520  -13.0143 C   0  0  0  0  0  0  0  0  0  0  0  0
   21.6955  -19.1389  -12.7640 N   0  0  0  0  0  0  0  0  0  0  0  0
   21.3128  -19.3025  -11.4768 C   0  0  0  0  0  0  0  0  0  0  0  0
   20.3199  -18.7128  -10.7360 C   0  0  0  0  0  0  0  0  0  0  0  0
   20.1211  -19.0559   -9.4326 C   0  0  0  0  0  0  0  0  0  0  0  0
   20.9301  -20.0008   -8.8733 C   0  0  0  0  0  0  0  0  0  0  0  0
   21.9338  -20.6117   -9.5845 C   0  0  0  0  0  0  0  0  0  0  0  0
   22.1394  -20.2634  -10.9134 C   0  0  0  0  0  0  0  0  0  0  0  0
   26.3459  -21.4397  -10.6996 C   0  0  0  0  0  0  0  0  0  0  0  0
   26.3870  -22.6660  -10.4238 O   0  0  0  0  0  0  0  0  0  0  0  0
   29.7881  -19.4717   -9.8166 C   0  0  0  0  0  0  0  0  0  0  0  0
   29.4227  -20.8785   -9.4676 C   0  0  2  0  0  0  0  0  0  0  0  0
   29.6435  -21.8343  -10.6242 C   0  0  0  0  0  0  0  0  0  0  0  0
   28.0386  -21.0546   -8.8604 C   0  0  2  0  0  0  0  0  0  0  0  0
   27.1202  -20.5643   -9.9385 N   0  0  0  0  0  0  0  0  0  0  0  0
   27.7941  -20.2599   -7.6656 C   0  0  0  0  0  0  0  0  0  0  0  0
   27.3323  -19.0738   -7.8388 O   0  0  0  0  0  0  0  0  0  0  0  0
   28.0058  -20.6518   -6.3190 N   0  0  0  0  0  0  0  0  0  0  0  0
   28.3046  -21.9662   -5.7923 C   0  0  0  0  0  0  0  0  0  0  0  0
   29.3141  -21.6321   -4.6961 C   0  0  0  0  0  0  0  0  0  0  0  0
   28.4898  -20.5432   -3.9826 C   0  0  0  0  0  0  0  0  0  0  0  0
   27.8732  -19.7807   -5.1682 C   0  0  1  0  0  0  0  0  0  0  0  0
   28.5622  -18.4795   -5.3299 C   0  0  0  0  0  0  0  0  0  0  0  0
   28.3383  -17.4791   -4.4052 O   0  0  0  0  0  0  0  0  0  0  0  0
   29.3394  -18.2594   -6.2767 O   0  0  0  0  0  0  0  0  0  0  0  0
  2  1  1  6
  2  3  1  0
  2 13  1  0
  4 12  1  0
  4  3  1  0
  5  4  2  0
  6  5  1  0
  6  7  1  0
  7  8  1  0
  7 12  2  0
  8  9  2  0
  9 10  1  0
 11 10  2  0
 12 11  1  0
 13 14  2  0
 16 18  1  0
 16 15  1  6
 17 16  1  0
 19 13  1  0
 18 19  1  6
 20 18  1  0
 20 21  2  0
 22 26  1  0
 22 20  1  0
 23 22  1  0
 24 23  1  0
 24 25  1  0
 25 26  1  0
 26 27  1  6
 27 29  2  0
 27 28  1  0
M  END
$$$$
