WVP.pdb
     RDKit          3D

 29 31  0  0  1  0  0  0  0  0999 V2000
   23.2857  -21.4293  -16.5393 N   0  0  0  0  0  0  0  0  0  0  0  0
   23.1247  -21.1388  -15.1584 C   0  0  1  0  0  0  0  0  0  0  0  0
   21.9507  -21.8153  -14.5182 C   0  0  0  0  0  0  0  0  0  0  0  0
   20.7160  -21.0162  -14.6623 C   0  0  0  0  0  0  0  0  0  0  0  0
   19.7295  -21.2178  -15.6046 C   0  0  0  0  0  0  0  0  0  0  0  0
   18.7742  -20.3069  -15.4645 N   0  0  0  0  0  0  0  0  0  0  0  0
   19.0991  -19.4884  -14.4376 C   0  0  0  0  0  0  0  0  0  0  0  0
   18.4549  -18.4076  -13.8906 C   0  0  0  0  0  0  0  0  0  0  0  0
   18.9897  -17.7350  -12.8333 C   0  0  0  0  0  0  0  0  0  0  0  0
   20.1828  -18.1567  -12.3246 C   0  0  0  0  0  0  0  0  0  0  0  0
   20.8556  -19.2343  -12.8468 C   0  0  0  0  0  0  0  0  0  0  0  0
   20.3133  -19.9214  -13.9253 C   0  0  0  0  0  0  0  0  0  0  0  0
   24.3864  -21.3672  -14.3967 C   0  0  0  0  0  0  0  0  0  0  0  0
   24.8950  -22.5164  -14.4437 O   0  0  0  0  0  0  0  0  0  0  0  0
   26.9968  -18.2758  -13.3993 C   0  0  0  0  0  0  0  0  0  0  0  0
   27.3080  -19.7307  -13.5436 C   0  0  2  0  0  0  0  0  0  0  0  0
   27.5849  -20.1200  -14.9829 C   0  0  0  0  0  0  0  0  0  0  0  0
   26.3023  -20.6733  -12.8987 C   0  0  2  0  0  0  0  0  0  0  0  0
   25.0321  -20.3885  -13.6414 N   0  0  0  0  0  0  0  0  0  0  0  0
   26.0609  -20.4284  -11.4843 C   0  0  0  0  0  0  0  0  0  0  0  0
   25.3325  -19.4137  -11.1845 O   0  0  0  0  0  0  0  0  0  0  0  0
   26.5395  -21.1927  -10.3896 N   0  0  0  0  0  0  0  0  0  0  0  0
   27.1764  -22.4921  -10.3990 C   0  0  0  0  0  0  0  0  0  0  0  0
   28.2408  -22.3168   -9.3180 C   0  0  0  0  0  0  0  0  0  0  0  0
   27.3194  -21.7747   -8.2083 C   0  0  0  0  0  0  0  0  0  0  0  0
   26.3951  -20.8284   -8.9941 C   0  0  1  0  0  0  0  0  0  0  0  0
   26.7692  -19.4239   -8.7086 C   0  0  0  0  0  0  0  0  0  0  0  0
   26.3319  -18.8346   -7.5392 O   0  0  0  0  0  0  0  0  0  0  0  0
   27.4678  -18.7563   -9.4929 O   0  0  0  0  0  0  0  0  0  0  0  0
  2  1  1  6
  2  3  1  0
  2 13  1  0
  4 12  1  0
  4  3  1  0
  5  4  2  0
  6  5  1  0
  6  7  1  0
  7  8  1  0
  7 12  2  0
  8  9  2  0
  9 10  1  0
 11 10  2  0
 12 11  1  0
 13 14  2  0
 16 18  1  0
 16 15  1  6
 17 16  1  0
 19 13  1  0
 18 19  1  6
 20 18  1  0
 20 21  2  0
 22 26  1  0
 22 20  1  0
 23 22  1  0
 24 23  1  0
 24 25  1  0
 25 26  1  0
 26 27  1  6
 27 29  2  0
 27 28  1  0
M  END
$$$$
