WVP.pdb
     RDKit          3D

 29 31  0  0  1  0  0  0  0  0999 V2000
   20.7679  -23.1907  -15.2304 N   0  0  0  0  0  0  0  0  0  0  0  0
   21.7170  -22.4892  -14.4402 C   0  0  1  0  0  0  0  0  0  0  0  0
   21.8494  -22.9991  -13.0373 C   0  0  0  0  0  0  0  0  0  0  0  0
   22.3894  -21.9650  -12.1303 C   0  0  0  0  0  0  0  0  0  0  0  0
   21.6765  -20.9187  -11.5837 C   0  0  0  0  0  0  0  0  0  0  0  0
   22.4742  -20.1675  -10.8344 N   0  0  0  0  0  0  0  0  0  0  0  0
   23.7213  -20.6909  -10.8646 C   0  0  0  0  0  0  0  0  0  0  0  0
   24.8913  -20.3013  -10.2631 C   0  0  0  0  0  0  0  0  0  0  0  0
   26.0410  -21.0099  -10.4433 C   0  0  0  0  0  0  0  0  0  0  0  0
   26.0091  -22.1194  -11.2357 C   0  0  0  0  0  0  0  0  0  0  0  0
   24.8563  -22.5387  -11.8535 C   0  0  0  0  0  0  0  0  0  0  0  0
   23.6828  -21.8178  -11.6724 C   0  0  0  0  0  0  0  0  0  0  0  0
   23.0374  -22.3876  -15.1261 C   0  0  0  0  0  0  0  0  0  0  0  0
   23.6718  -23.4544  -15.3287 O   0  0  0  0  0  0  0  0  0  0  0  0
   24.2993  -19.2661  -17.7504 C   0  0  0  0  0  0  0  0  0  0  0  0
   24.7125  -20.6939  -17.5922 C   0  0  2  0  0  0  0  0  0  0  0  0
   23.7686  -21.6479  -18.2986 C   0  0  0  0  0  0  0  0  0  0  0  0
   24.9760  -21.1350  -16.1599 C   0  0  2  0  0  0  0  0  0  0  0  0
   23.6063  -21.1883  -15.5541 N   0  0  0  0  0  0  0  0  0  0  0  0
   25.7784  -20.2069  -15.3766 C   0  0  0  0  0  0  0  0  0  0  0  0
   25.2481  -19.0709  -15.0964 O   0  0  0  0  0  0  0  0  0  0  0  0
   27.0898  -20.4181  -14.8792 N   0  0  0  0  0  0  0  0  0  0  0  0
   27.8002  -21.6651  -14.6930 C   0  0  0  0  0  0  0  0  0  0  0  0
   29.2138  -21.2763  -15.1207 C   0  0  0  0  0  0  0  0  0  0  0  0
   29.3565  -20.0197  -14.2405 C   0  0  0  0  0  0  0  0  0  0  0  0
   27.9627  -19.3804  -14.3675 C   0  0  1  0  0  0  0  0  0  0  0  0
   28.0439  -18.1906  -15.2459 C   0  0  0  0  0  0  0  0  0  0  0  0
   28.2773  -16.9519  -14.6827 O   0  0  0  0  0  0  0  0  0  0  0  0
   27.9079  -18.2731  -16.4802 O   0  0  0  0  0  0  0  0  0  0  0  0
  2  1  1  6
  2  3  1  0
  2 13  1  0
  4 12  1  0
  4  3  1  0
  5  4  2  0
  6  5  1  0
  6  7  1  0
  7  8  1  0
  7 12  2  0
  8  9  2  0
  9 10  1  0
 11 10  2  0
 12 11  1  0
 13 14  2  0
 16 18  1  0
 16 15  1  1
 17 16  1  0
 19 13  1  0
 18 19  1  1
 20 18  1  0
 20 21  2  0
 22 26  1  0
 22 20  1  0
 23 22  1  0
 24 23  1  0
 24 25  1  0
 25 26  1  0
 26 27  1  6
 27 29  2  0
 27 28  1  0
M  END
$$$$
