WVP.pdb
     RDKit          3D

 29 31  0  0  1  0  0  0  0  0999 V2000
   22.2157  -21.6710  -14.3929 N   0  0  0  0  0  0  0  0  0  0  0  0
   22.8353  -20.6007  -13.6945 C   0  0  1  0  0  0  0  0  0  0  0  0
   21.8762  -19.6580  -13.0332 C   0  0  0  0  0  0  0  0  0  0  0  0
   21.1244  -18.8609  -14.0247 C   0  0  0  0  0  0  0  0  0  0  0  0
   19.7685  -18.9402  -14.2632 C   0  0  0  0  0  0  0  0  0  0  0  0
   19.4279  -18.1012  -15.2339 N   0  0  0  0  0  0  0  0  0  0  0  0
   20.5363  -17.4518  -15.6581 C   0  0  0  0  0  0  0  0  0  0  0  0
   20.7220  -16.4935  -16.6221 C   0  0  0  0  0  0  0  0  0  0  0  0
   21.9586  -15.9764  -16.8664 C   0  0  0  0  0  0  0  0  0  0  0  0
   23.0148  -16.4297  -16.1323 C   0  0  0  0  0  0  0  0  0  0  0  0
   22.8661  -17.3880  -15.1596 C   0  0  0  0  0  0  0  0  0  0  0  0
   21.6067  -17.9177  -14.9088 C   0  0  0  0  0  0  0  0  0  0  0  0
   23.8799  -21.0908  -12.7497 C   0  0  0  0  0  0  0  0  0  0  0  0
   23.6289  -22.1346  -12.0946 O   0  0  0  0  0  0  0  0  0  0  0  0
   27.4372  -21.8727  -13.6344 C   0  0  0  0  0  0  0  0  0  0  0  0
   27.4218  -20.9825  -12.4337 C   0  0  2  0  0  0  0  0  0  0  0  0
   28.6429  -21.1787  -11.5560 C   0  0  0  0  0  0  0  0  0  0  0  0
   26.1394  -21.0239  -11.6155 C   0  0  2  0  0  0  0  0  0  0  0  0
   25.1107  -20.4655  -12.5515 N   0  0  0  0  0  0  0  0  0  0  0  0
   26.1557  -20.1952  -10.4189 C   0  0  0  0  0  0  0  0  0  0  0  0
   26.5007  -18.9666  -10.5655 O   0  0  0  0  0  0  0  0  0  0  0  0
   25.8265  -20.5930   -9.0979 N   0  0  0  0  0  0  0  0  0  0  0  0
   25.2286  -21.8306   -8.6448 C   0  0  0  0  0  0  0  0  0  0  0  0
   25.9968  -22.0828   -7.3493 C   0  0  0  0  0  0  0  0  0  0  0  0
   25.7860  -20.6958   -6.7120 C   0  0  0  0  0  0  0  0  0  0  0  0
   25.9605  -19.7591   -7.9200 C   0  0  1  0  0  0  0  0  0  0  0  0
   27.2703  -19.0737   -7.8276 C   0  0  0  0  0  0  0  0  0  0  0  0
   27.3945  -17.9648   -7.0146 O   0  0  0  0  0  0  0  0  0  0  0  0
   28.2657  -19.4676   -8.4623 O   0  0  0  0  0  0  0  0  0  0  0  0
  2  1  1  1
  2  3  1  0
  2 13  1  0
  4 12  1  0
  4  3  1  0
  5  4  2  0
  6  5  1  0
  6  7  1  0
  7  8  1  0
  7 12  2  0
  8  9  2  0
  9 10  1  0
 11 10  2  0
 12 11  1  0
 13 14  2  0
 16 18  1  0
 16 15  1  6
 17 16  1  0
 19 13  1  0
 18 19  1  6
 20 18  1  0
 20 21  2  0
 22 26  1  0
 22 20  1  0
 23 22  1  0
 24 23  1  0
 24 25  1  0
 25 26  1  0
 26 27  1  1
 27 29  2  0
 27 28  1  0
M  END
$$$$
