AQY.pdb
     RDKit          3D

 27 27  0  0  1  0  0  0  0  0999 V2000
    7.3652  -19.2842   21.5356 C   0  0  0  0  0  0  0  0  0  0  0  0
    6.9972  -18.2335   20.5133 C   0  0  2  0  0  0  0  0  0  0  0  0
    6.8335  -18.8733   19.2527 N   0  0  0  0  0  0  0  0  0  0  0  0
    7.9963  -17.1336   20.4869 C   0  0  0  0  0  0  0  0  0  0  0  0
    9.0835  -17.2468   19.8649 O   0  0  0  0  0  0  0  0  0  0  0  0
    9.3703  -12.6978   18.8331 N   0  0  0  0  0  0  0  0  0  0  0  0
    8.0785  -13.1563   18.5501 C   0  0  0  0  0  0  0  0  0  0  0  0
    7.6799  -13.2817   17.3847 O   0  0  0  0  0  0  0  0  0  0  0  0
    7.1225  -13.5150   19.6553 C   0  0  0  0  0  0  0  0  0  0  0  0
    7.8172  -13.5139   20.9847 C   0  0  0  0  0  0  0  0  0  0  0  0
    8.5891  -14.7670   21.1834 C   0  0  2  0  0  0  0  0  0  0  0  0
    7.7229  -15.9435   21.1692 N   0  0  0  0  0  0  0  0  0  0  0  0
    9.2652  -14.7773   22.4985 C   0  0  0  0  0  0  0  0  0  0  0  0
   10.1310  -13.9267   22.8618 O   0  0  0  0  0  0  0  0  0  0  0  0
    5.1920  -11.3458   26.4689 O   0  0  0  0  0  0  0  0  0  0  0  0
    5.9841  -12.4830   26.2985 C   0  0  0  0  0  0  0  0  0  0  0  0
    5.4134  -13.7193   26.0844 C   0  0  0  0  0  0  0  0  0  0  0  0
    6.2043  -14.8338   25.9175 C   0  0  0  0  0  0  0  0  0  0  0  0
    7.6012  -14.7718   25.9556 C   0  0  0  0  0  0  0  0  0  0  0  0
    8.3857  -16.0091   25.7806 C   0  0  0  0  0  0  0  0  0  0  0  0
    9.5189  -15.7975   24.8084 C   0  0  2  0  0  0  0  0  0  0  0  0
    8.9648  -15.7902   23.4696 N   0  0  0  0  0  0  0  0  0  0  0  0
   10.5133  -16.8898   24.8528 C   0  0  0  0  0  0  0  0  0  0  0  0
   10.7387  -17.7581   23.7863 O   0  0  0  0  0  0  0  0  0  0  0  0
    8.1573  -13.5302   26.1707 C   0  0  0  0  0  0  0  0  0  0  0  0
    7.3584  -12.4070   26.3386 C   0  0  0  0  0  0  0  0  0  0  0  0
   11.2033  -17.0734   25.8800 O   0  0  0  0  0  0  0  0  0  0  0  0
  2  1  1  1
  2  3  1  0
  4  5  2  0
  4  2  1  0
  7  6  1  0
  7  9  1  0
  8  7  2  0
 11 10  1  1
 10  9  1  0
 11 12  1  0
 12  4  1  0
 13 11  1  0
 13 14  2  0
 15 16  1  0
 16 17  2  0
 16 26  1  0
 17 18  1  0
 18 19  2  0
 19 20  1  0
 21 20  1  1
 21 22  1  0
 22 13  1  0
 23 21  1  0
 23 24  1  0
 25 19  1  0
 26 25  2  0
 27 23  2  0
M  END
$$$$
