AQY.pdb
     RDKit          3D

 27 27  0  0  1  0  0  0  0  0999 V2000
    7.7445  -12.2666   20.0607 C   0  0  0  0  0  0  0  0  0  0  0  0
    8.1450  -13.5060   19.2938 C   0  0  2  0  0  0  0  0  0  0  0  0
    7.3393  -13.5885   18.1237 N   0  0  0  0  0  0  0  0  0  0  0  0
    8.0630  -14.7190   20.1485 C   0  0  0  0  0  0  0  0  0  0  0  0
    7.0402  -15.4507   20.1565 O   0  0  0  0  0  0  0  0  0  0  0  0
   12.4205  -18.7051   20.1713 N   0  0  0  0  0  0  0  0  0  0  0  0
   11.3652  -18.3634   19.3177 C   0  0  0  0  0  0  0  0  0  0  0  0
   11.3417  -18.7404   18.1388 O   0  0  0  0  0  0  0  0  0  0  0  0
   10.2156  -17.5222   19.8026 C   0  0  0  0  0  0  0  0  0  0  0  0
   10.4107  -17.1251   21.2358 C   0  0  0  0  0  0  0  0  0  0  0  0
    9.2739  -16.3010   21.7197 C   0  0  2  0  0  0  0  0  0  0  0  0
    9.1481  -15.0568   20.9641 N   0  0  0  0  0  0  0  0  0  0  0  0
    9.4642  -15.9009   23.1306 C   0  0  0  0  0  0  0  0  0  0  0  0
   10.2247  -14.9608   23.5088 O   0  0  0  0  0  0  0  0  0  0  0  0
    6.9446  -10.4566   26.7989 O   0  0  0  0  0  0  0  0  0  0  0  0
    7.1177  -11.8360   26.6693 C   0  0  0  0  0  0  0  0  0  0  0  0
    8.3770  -12.3966   26.6768 C   0  0  0  0  0  0  0  0  0  0  0  0
    8.5358  -13.7580   26.5484 C   0  0  0  0  0  0  0  0  0  0  0  0
    7.4493  -14.6274   26.4063 C   0  0  0  0  0  0  0  0  0  0  0  0
    7.6947  -16.0752   26.2616 C   0  0  0  0  0  0  0  0  0  0  0  0
    9.0206  -16.3342   25.5915 C   0  0  2  0  0  0  0  0  0  0  0  0
    8.7710  -16.5828   24.1860 N   0  0  0  0  0  0  0  0  0  0  0  0
    9.6978  -17.5351   26.1236 C   0  0  0  0  0  0  0  0  0  0  0  0
    9.9208  -18.6826   25.3648 O   0  0  0  0  0  0  0  0  0  0  0  0
    6.1973  -14.0533   26.4002 C   0  0  0  0  0  0  0  0  0  0  0  0
    6.0387  -12.6799   26.5300 C   0  0  0  0  0  0  0  0  0  0  0  0
   10.1034  -17.5585   27.3068 O   0  0  0  0  0  0  0  0  0  0  0  0
  2  1  1  1
  2  3  1  0
  4  5  2  0
  4  2  1  0
  7  6  1  0
  7  9  1  0
  8  7  2  0
 11 10  1  6
 10  9  1  0
 11 12  1  0
 12  4  1  0
 13 11  1  0
 13 14  2  0
 15 16  1  0
 16 17  2  0
 16 26  1  0
 17 18  1  0
 18 19  2  0
 19 20  1  0
 21 20  1  1
 21 22  1  0
 22 13  1  0
 23 21  1  0
 23 24  1  0
 25 19  1  0
 26 25  2  0
 27 23  2  0
M  END
$$$$
