AQY.pdb
     RDKit          3D

 27 27  0  0  1  0  0  0  0  0999 V2000
    7.8060  -19.3858   18.7703 C   0  0  0  0  0  0  0  0  0  0  0  0
    8.3538  -19.0556   20.1397 C   0  0  2  0  0  0  0  0  0  0  0  0
    7.2620  -18.7275   20.9916 N   0  0  0  0  0  0  0  0  0  0  0  0
    9.3815  -17.9847   20.0655 C   0  0  0  0  0  0  0  0  0  0  0  0
   10.4556  -18.1461   19.4314 O   0  0  0  0  0  0  0  0  0  0  0  0
    7.8642  -12.4681   18.6935 N   0  0  0  0  0  0  0  0  0  0  0  0
    7.4203  -13.7355   19.0882 C   0  0  0  0  0  0  0  0  0  0  0  0
    6.5205  -14.3235   18.4741 O   0  0  0  0  0  0  0  0  0  0  0  0
    8.0221  -14.4332   20.2778 C   0  0  0  0  0  0  0  0  0  0  0  0
    9.5203  -14.4113   20.2091 C   0  0  0  0  0  0  0  0  0  0  0  0
   10.0978  -15.6567   20.7760 C   0  0  2  0  0  0  0  0  0  0  0  0
    9.1510  -16.7678   20.7156 N   0  0  0  0  0  0  0  0  0  0  0  0
   10.4349  -15.4887   22.2060 C   0  0  0  0  0  0  0  0  0  0  0  0
   11.0003  -14.4632   22.6896 O   0  0  0  0  0  0  0  0  0  0  0  0
   10.6960  -14.7906   30.7017 O   0  0  0  0  0  0  0  0  0  0  0  0
   10.4618  -14.8734   29.3277 C   0  0  0  0  0  0  0  0  0  0  0  0
   10.9643  -15.9199   28.5844 C   0  0  0  0  0  0  0  0  0  0  0  0
   10.7270  -15.9916   27.2302 C   0  0  0  0  0  0  0  0  0  0  0  0
    9.9782  -15.0254   26.5502 C   0  0  0  0  0  0  0  0  0  0  0  0
    9.7737  -15.1599   25.0951 C   0  0  0  0  0  0  0  0  0  0  0  0
   10.4318  -16.4111   24.5703 C   0  0  2  0  0  0  0  0  0  0  0  0
   10.1278  -16.5180   23.1576 N   0  0  0  0  0  0  0  0  0  0  0  0
    9.9110  -17.6358   25.2128 C   0  0  0  0  0  0  0  0  0  0  0  0
   10.4742  -18.1925   26.3595 O   0  0  0  0  0  0  0  0  0  0  0  0
    9.4828  -13.9856   27.3056 C   0  0  0  0  0  0  0  0  0  0  0  0
    9.7228  -13.9148   28.6713 C   0  0  0  0  0  0  0  0  0  0  0  0
    8.9191  -18.2274   24.7321 O   0  0  0  0  0  0  0  0  0  0  0  0
  2  1  1  6
  2  3  1  0
  4  5  2  0
  4  2  1  0
  7  6  1  0
  7  9  1  0
  8  7  2  0
 11 10  1  1
 10  9  1  0
 11 12  1  0
 12  4  1  0
 13 11  1  0
 13 14  2  0
 15 16  1  0
 16 17  2  0
 16 26  1  0
 17 18  1  0
 18 19  2  0
 19 20  1  0
 21 20  1  1
 21 22  1  0
 22 13  1  0
 23 21  1  0
 23 24  1  0
 25 19  1  0
 26 25  2  0
 27 23  2  0
M  END
$$$$
