AQY.pdb
     RDKit          3D

 27 27  0  0  1  0  0  0  0  0999 V2000
    8.5638  -20.1229   22.1733 C   0  0  0  0  0  0  0  0  0  0  0  0
    8.5928  -19.2904   20.9121 C   0  0  2  0  0  0  0  0  0  0  0  0
    9.0158  -20.1210   19.8368 N   0  0  0  0  0  0  0  0  0  0  0  0
    9.4370  -18.0796   21.0844 C   0  0  0  0  0  0  0  0  0  0  0  0
   10.6783  -18.1087   20.8845 O   0  0  0  0  0  0  0  0  0  0  0  0
    7.2808  -12.4447   19.9074 N   0  0  0  0  0  0  0  0  0  0  0  0
    7.7066  -13.4890   19.0784 C   0  0  0  0  0  0  0  0  0  0  0  0
    7.4030  -13.5244   17.8788 O   0  0  0  0  0  0  0  0  0  0  0  0
    8.5522  -14.6115   19.6160 C   0  0  0  0  0  0  0  0  0  0  0  0
    8.7488  -14.4713   21.0964 C   0  0  0  0  0  0  0  0  0  0  0  0
    9.5392  -15.6057   21.6386 C   0  0  2  0  0  0  0  0  0  0  0  0
    8.8390  -16.8779   21.4783 N   0  0  0  0  0  0  0  0  0  0  0  0
    9.7718  -15.4513   23.0908 C   0  0  0  0  0  0  0  0  0  0  0  0
   10.4408  -14.5086   23.6095 O   0  0  0  0  0  0  0  0  0  0  0  0
    6.5949  -10.7261   26.7503 O   0  0  0  0  0  0  0  0  0  0  0  0
    6.9790  -12.0604   26.6024 C   0  0  0  0  0  0  0  0  0  0  0  0
    6.2205  -12.9384   25.8582 C   0  0  0  0  0  0  0  0  0  0  0  0
    6.6088  -14.2518   25.7189 C   0  0  0  0  0  0  0  0  0  0  0  0
    7.7707  -14.7550   26.3135 C   0  0  0  0  0  0  0  0  0  0  0  0
    8.1195  -16.1771   26.1316 C   0  0  0  0  0  0  0  0  0  0  0  0
    9.4587  -16.3226   25.4538 C   0  0  2  0  0  0  0  0  0  0  0  0
    9.2315  -16.3975   24.0247 N   0  0  0  0  0  0  0  0  0  0  0  0
   10.1559  -17.5668   25.8408 C   0  0  0  0  0  0  0  0  0  0  0  0
   10.4950  -18.5648   24.9291 O   0  0  0  0  0  0  0  0  0  0  0  0
    8.5183  -13.8664   27.0543 C   0  0  0  0  0  0  0  0  0  0  0  0
    8.1254  -12.5420   27.1936 C   0  0  0  0  0  0  0  0  0  0  0  0
   10.4722  -17.7676   27.0344 O   0  0  0  0  0  0  0  0  0  0  0  0
  2  1  1  1
  2  3  1  0
  4  5  2  0
  4  2  1  0
  7  6  1  0
  7  9  1  0
  8  7  2  0
 11 10  1  1
 10  9  1  0
 11 12  1  0
 12  4  1  0
 13 11  1  0
 13 14  2  0
 15 16  1  0
 16 17  2  0
 16 26  1  0
 17 18  1  0
 18 19  2  0
 19 20  1  0
 21 20  1  1
 21 22  1  0
 22 13  1  0
 23 21  1  0
 23 24  1  0
 25 19  1  0
 26 25  2  0
 27 23  2  0
M  END
$$$$
