AQY.pdb
     RDKit          3D

 27 27  0  0  1  0  0  0  0  0999 V2000
    8.0074  -12.0613   19.9279 C   0  0  0  0  0  0  0  0  0  0  0  0
    8.2483  -13.3836   19.2365 C   0  0  2  0  0  0  0  0  0  0  0  0
    7.3960  -13.4561   18.0992 N   0  0  0  0  0  0  0  0  0  0  0  0
    8.0719  -14.5227   20.1745 C   0  0  0  0  0  0  0  0  0  0  0  0
    6.9976  -15.1749   20.2233 O   0  0  0  0  0  0  0  0  0  0  0  0
   12.0293  -18.7509   19.6268 N   0  0  0  0  0  0  0  0  0  0  0  0
   11.4595  -19.1974   20.8247 C   0  0  0  0  0  0  0  0  0  0  0  0
   11.7737  -20.2870   21.3212 O   0  0  0  0  0  0  0  0  0  0  0  0
   10.4402  -18.3669   21.5564 C   0  0  0  0  0  0  0  0  0  0  0  0
   10.2905  -17.0183   20.9171 C   0  0  0  0  0  0  0  0  0  0  0  0
    9.2935  -16.1918   21.6440 C   0  0  2  0  0  0  0  0  0  0  0  0
    9.1241  -14.8796   21.0242 N   0  0  0  0  0  0  0  0  0  0  0  0
    9.7249  -15.9309   23.0341 C   0  0  0  0  0  0  0  0  0  0  0  0
   10.7519  -15.2586   23.3477 O   0  0  0  0  0  0  0  0  0  0  0  0
    6.5771  -10.6760   26.6925 O   0  0  0  0  0  0  0  0  0  0  0  0
    6.9820  -12.0100   26.6140 C   0  0  0  0  0  0  0  0  0  0  0  0
    6.0587  -13.0248   26.4815 C   0  0  0  0  0  0  0  0  0  0  0  0
    6.4694  -14.3366   26.4049 C   0  0  0  0  0  0  0  0  0  0  0  0
    7.8186  -14.7019   26.4564 C   0  0  0  0  0  0  0  0  0  0  0  0
    8.1857  -16.1289   26.3803 C   0  0  0  0  0  0  0  0  0  0  0  0
    9.4088  -16.3273   25.5209 C   0  0  2  0  0  0  0  0  0  0  0  0
    8.9741  -16.4453   24.1437 N   0  0  0  0  0  0  0  0  0  0  0  0
   10.1335  -17.5730   25.8478 C   0  0  0  0  0  0  0  0  0  0  0  0
   10.9740  -17.6974   26.9526 O   0  0  0  0  0  0  0  0  0  0  0  0
    8.7297  -13.6774   26.5892 C   0  0  0  0  0  0  0  0  0  0  0  0
    8.3140  -12.3549   26.6662 C   0  0  0  0  0  0  0  0  0  0  0  0
   10.0107  -18.5837   25.1209 O   0  0  0  0  0  0  0  0  0  0  0  0
  2  1  1  1
  2  3  1  0
  4  5  2  0
  4  2  1  0
  7  6  1  0
  7  9  1  0
  8  7  2  0
 11 10  1  6
 10  9  1  0
 11 12  1  0
 12  4  1  0
 13 11  1  0
 13 14  2  0
 15 16  1  0
 16 17  2  0
 16 26  1  0
 17 18  1  0
 18 19  2  0
 19 20  1  0
 21 20  1  1
 21 22  1  0
 22 13  1  0
 23 21  1  0
 23 24  1  0
 25 19  1  0
 26 25  2  0
 27 23  2  0
M  END
$$$$
