AQY.pdb
     RDKit          3D

 27 27  0  0  1  0  0  0  0  0999 V2000
    7.0235  -12.5065   19.4333 C   0  0  0  0  0  0  0  0  0  0  0  0
    8.2377  -13.1825   20.0277 C   0  0  2  0  0  0  0  0  0  0  0  0
    9.0155  -13.7213   18.9649 N   0  0  0  0  0  0  0  0  0  0  0  0
    7.8479  -14.1969   21.0414 C   0  0  0  0  0  0  0  0  0  0  0  0
    7.1778  -13.8864   22.0594 O   0  0  0  0  0  0  0  0  0  0  0  0
    8.8782  -20.4844   20.2545 N   0  0  0  0  0  0  0  0  0  0  0  0
    8.2463  -20.3996   21.5005 C   0  0  0  0  0  0  0  0  0  0  0  0
    7.9500  -21.4152   22.1436 O   0  0  0  0  0  0  0  0  0  0  0  0
    7.9023  -19.0664   22.1074 C   0  0  0  0  0  0  0  0  0  0  0  0
    8.2781  -17.9456   21.1841 C   0  0  0  0  0  0  0  0  0  0  0  0
    7.8869  -16.6315   21.7547 C   0  0  2  0  0  0  0  0  0  0  0  0
    8.2346  -15.5290   20.8612 N   0  0  0  0  0  0  0  0  0  0  0  0
    8.5985  -16.3647   23.0233 C   0  0  0  0  0  0  0  0  0  0  0  0
    9.7844  -15.9249   23.0968 O   0  0  0  0  0  0  0  0  0  0  0  0
    6.7245  -10.2850   26.4393 O   0  0  0  0  0  0  0  0  0  0  0  0
    6.9382  -11.6646   26.4637 C   0  0  0  0  0  0  0  0  0  0  0  0
    5.8946  -12.5472   26.2846 C   0  0  0  0  0  0  0  0  0  0  0  0
    6.1169  -13.9056   26.3105 C   0  0  0  0  0  0  0  0  0  0  0  0
    7.3883  -14.4513   26.5158 C   0  0  0  0  0  0  0  0  0  0  0  0
    7.5510  -15.9176   26.5431 C   0  0  0  0  0  0  0  0  0  0  0  0
    8.6055  -16.3627   25.5612 C   0  0  2  0  0  0  0  0  0  0  0  0
    7.9588  -16.5993   24.2863 N   0  0  0  0  0  0  0  0  0  0  0  0
    9.2460  -17.6342   25.9573 C   0  0  0  0  0  0  0  0  0  0  0  0
   10.1657  -17.7311   26.9999 O   0  0  0  0  0  0  0  0  0  0  0  0
    8.4212  -13.5576   26.6935 C   0  0  0  0  0  0  0  0  0  0  0  0
    8.1955  -12.1878   26.6670 C   0  0  0  0  0  0  0  0  0  0  0  0
    8.9738  -18.6937   25.3503 O   0  0  0  0  0  0  0  0  0  0  0  0
  2  1  1  6
  2  3  1  0
  4  5  2  0
  4  2  1  0
  7  6  1  0
  7  9  1  0
  8  7  2  0
 11 10  1  6
 10  9  1  0
 11 12  1  0
 12  4  1  0
 13 11  1  0
 13 14  2  0
 15 16  1  0
 16 17  2  0
 16 26  1  0
 17 18  1  0
 18 19  2  0
 19 20  1  0
 21 20  1  1
 21 22  1  0
 22 13  1  0
 23 21  1  0
 23 24  1  0
 25 19  1  0
 26 25  2  0
 27 23  2  0
M  END
$$$$
