AQY.pdb
     RDKit          3D

 27 27  0  0  1  0  0  0  0  0999 V2000
    7.7374  -19.4077   19.6118 C   0  0  0  0  0  0  0  0  0  0  0  0
    8.0976  -18.9353   21.0016 C   0  0  2  0  0  0  0  0  0  0  0  0
    6.8953  -18.6074   21.6888 N   0  0  0  0  0  0  0  0  0  0  0  0
    9.0704  -17.8129   20.9545 C   0  0  0  0  0  0  0  0  0  0  0  0
   10.2179  -17.9567   20.4604 O   0  0  0  0  0  0  0  0  0  0  0  0
    7.9551  -12.2605   19.1422 N   0  0  0  0  0  0  0  0  0  0  0  0
    8.1181  -13.5230   18.5603 C   0  0  0  0  0  0  0  0  0  0  0  0
    7.7595  -13.7477   17.3969 O   0  0  0  0  0  0  0  0  0  0  0  0
    8.7374  -14.6583   19.3295 C   0  0  0  0  0  0  0  0  0  0  0  0
    9.0088  -14.2572   20.7492 C   0  0  0  0  0  0  0  0  0  0  0  0
    9.5710  -15.3918   21.5251 C   0  0  2  0  0  0  0  0  0  0  0  0
    8.7032  -16.5660   21.4714 N   0  0  0  0  0  0  0  0  0  0  0  0
    9.7012  -15.0492   22.9577 C   0  0  0  0  0  0  0  0  0  0  0  0
    9.5284  -13.8870   23.4315 O   0  0  0  0  0  0  0  0  0  0  0  0
    5.8699  -10.9893   26.3773 O   0  0  0  0  0  0  0  0  0  0  0  0
    6.4058  -12.2511   26.1122 C   0  0  0  0  0  0  0  0  0  0  0  0
    7.6222  -12.6299   26.6386 C   0  0  0  0  0  0  0  0  0  0  0  0
    8.1410  -13.8766   26.3708 C   0  0  0  0  0  0  0  0  0  0  0  0
    7.4745  -14.8067   25.5662 C   0  0  0  0  0  0  0  0  0  0  0  0
    8.0958  -16.1206   25.3118 C   0  0  0  0  0  0  0  0  0  0  0  0
    9.6000  -16.0144   25.3027 C   0  0  2  0  0  0  0  0  0  0  0  0
   10.0433  -16.0538   23.9238 N   0  0  0  0  0  0  0  0  0  0  0  0
   10.2508  -17.1477   25.9927 C   0  0  0  0  0  0  0  0  0  0  0  0
   10.5105  -17.1578   27.3619 O   0  0  0  0  0  0  0  0  0  0  0  0
    6.2606  -14.4143   25.0469 C   0  0  0  0  0  0  0  0  0  0  0  0
    5.7385  -13.1566   25.3181 C   0  0  0  0  0  0  0  0  0  0  0  0
   10.5986  -18.1625   25.3492 O   0  0  0  0  0  0  0  0  0  0  0  0
  2  1  1  6
  2  3  1  0
  4  5  2  0
  4  2  1  0
  7  6  1  0
  7  9  1  0
  8  7  2  0
 11 10  1  6
 10  9  1  0
 11 12  1  0
 12  4  1  0
 13 11  1  0
 13 14  2  0
 15 16  1  0
 16 17  2  0
 16 26  1  0
 17 18  1  0
 18 19  2  0
 19 20  1  0
 21 20  1  6
 21 22  1  0
 22 13  1  0
 23 21  1  0
 23 24  1  0
 25 19  1  0
 26 25  2  0
 27 23  2  0
M  END
$$$$
