AQY.pdb
     RDKit          3D

 27 27  0  0  1  0  0  0  0  0999 V2000
   11.2553  -16.8280   15.8865 C   0  0  0  0  0  0  0  0  0  0  0  0
    9.9978  -17.6650   15.9371 C   0  0  2  0  0  0  0  0  0  0  0  0
    9.0800  -17.1527   14.9778 N   0  0  0  0  0  0  0  0  0  0  0  0
    9.4392  -17.7164   17.3133 C   0  0  0  0  0  0  0  0  0  0  0  0
    8.5170  -16.9433   17.6787 O   0  0  0  0  0  0  0  0  0  0  0  0
   10.4039  -22.5330   21.3903 N   0  0  0  0  0  0  0  0  0  0  0  0
    9.7019  -21.5902   22.1502 C   0  0  0  0  0  0  0  0  0  0  0  0
    9.3411  -21.8356   23.3087 O   0  0  0  0  0  0  0  0  0  0  0  0
    9.3582  -20.2385   21.5855 C   0  0  0  0  0  0  0  0  0  0  0  0
    9.8063  -20.1253   20.1586 C   0  0  0  0  0  0  0  0  0  0  0  0
    9.5323  -18.7686   19.6202 C   0  0  2  0  0  0  0  0  0  0  0  0
    9.9497  -18.6460   18.2254 N   0  0  0  0  0  0  0  0  0  0  0  0
   10.2871  -17.7353   20.3615 C   0  0  0  0  0  0  0  0  0  0  0  0
   11.4839  -17.4065   20.1070 O   0  0  0  0  0  0  0  0  0  0  0  0
    7.6120  -12.4468   17.6852 O   0  0  0  0  0  0  0  0  0  0  0  0
    8.0302  -13.0502   18.8730 C   0  0  0  0  0  0  0  0  0  0  0  0
    9.3559  -13.0302   19.2500 C   0  0  0  0  0  0  0  0  0  0  0  0
    9.7570  -13.6282   20.4234 C   0  0  0  0  0  0  0  0  0  0  0  0
    8.8583  -14.2749   21.2783 C   0  0  0  0  0  0  0  0  0  0  0  0
    9.3606  -14.9048   22.5144 C   0  0  0  0  0  0  0  0  0  0  0  0
   10.3616  -15.9882   22.2007 C   0  0  2  0  0  0  0  0  0  0  0  0
    9.6804  -17.0233   21.4499 N   0  0  0  0  0  0  0  0  0  0  0  0
   10.9011  -16.6289   23.4182 C   0  0  0  0  0  0  0  0  0  0  0  0
   11.8916  -16.0490   24.2088 O   0  0  0  0  0  0  0  0  0  0  0  0
    7.5373  -14.2872   20.8885 C   0  0  0  0  0  0  0  0  0  0  0  0
    7.1342  -13.6835   19.7048 C   0  0  0  0  0  0  0  0  0  0  0  0
   10.4722  -17.7448   23.7868 O   0  0  0  0  0  0  0  0  0  0  0  0
  2  1  1  1
  2  3  1  0
  4  5  2  0
  4  2  1  0
  7  6  1  0
  7  9  1  0
  8  7  2  0
 11 10  1  1
 10  9  1  0
 11 12  1  0
 12  4  1  0
 13 11  1  0
 13 14  2  0
 15 16  1  0
 16 17  2  0
 16 26  1  0
 17 18  1  0
 18 19  2  0
 19 20  1  0
 21 20  1  1
 21 22  1  0
 22 13  1  0
 23 21  1  0
 23 24  1  0
 25 19  1  0
 26 25  2  0
 27 23  2  0
M  END
$$$$
