AQY.pdb
     RDKit          3D

 27 27  0  0  1  0  0  0  0  0999 V2000
    8.5311  -19.3610   19.1014 C   0  0  0  0  0  0  0  0  0  0  0  0
    9.3355  -19.2992   20.3795 C   0  0  2  0  0  0  0  0  0  0  0  0
    8.4736  -19.6157   21.4668 N   0  0  0  0  0  0  0  0  0  0  0  0
   10.0091  -17.9830   20.5296 C   0  0  0  0  0  0  0  0  0  0  0  0
   10.9182  -17.6153   19.7423 O   0  0  0  0  0  0  0  0  0  0  0  0
    7.6874  -12.9219   19.8504 N   0  0  0  0  0  0  0  0  0  0  0  0
    7.0747  -13.8815   20.6646 C   0  0  0  0  0  0  0  0  0  0  0  0
    5.8451  -13.9191   20.8033 O   0  0  0  0  0  0  0  0  0  0  0  0
    7.8903  -14.9071   21.4042 C   0  0  0  0  0  0  0  0  0  0  0  0
    9.3497  -14.7563   21.0920 C   0  0  0  0  0  0  0  0  0  0  0  0
   10.1541  -15.7883   21.7945 C   0  0  2  0  0  0  0  0  0  0  0  0
    9.6245  -17.1315   21.5706 N   0  0  0  0  0  0  0  0  0  0  0  0
   10.1299  -15.5819   23.2586 C   0  0  0  0  0  0  0  0  0  0  0  0
   10.5110  -14.5203   23.8354 O   0  0  0  0  0  0  0  0  0  0  0  0
    5.9944  -11.1677   26.0280 O   0  0  0  0  0  0  0  0  0  0  0  0
    6.5336  -12.4557   26.0209 C   0  0  0  0  0  0  0  0  0  0  0  0
    5.8335  -13.5146   25.4837 C   0  0  0  0  0  0  0  0  0  0  0  0
    6.3750  -14.7803   25.4819 C   0  0  0  0  0  0  0  0  0  0  0  0
    7.6392  -15.0535   26.0147 C   0  0  0  0  0  0  0  0  0  0  0  0
    8.1520  -16.4368   25.9896 C   0  0  0  0  0  0  0  0  0  0  0  0
    9.6023  -16.4681   25.5775 C   0  0  2  0  0  0  0  0  0  0  0  0
    9.6553  -16.6130   24.1368 N   0  0  0  0  0  0  0  0  0  0  0  0
   10.3276  -17.6216   26.1494 C   0  0  0  0  0  0  0  0  0  0  0  0
   10.9479  -18.5946   25.3679 O   0  0  0  0  0  0  0  0  0  0  0  0
    8.3268  -13.9859   26.5483 C   0  0  0  0  0  0  0  0  0  0  0  0
    7.7795  -12.7098   26.5491 C   0  0  0  0  0  0  0  0  0  0  0  0
   10.4092  -17.7636   27.3897 O   0  0  0  0  0  0  0  0  0  0  0  0
  2  1  1  6
  2  3  1  0
  4  5  2  0
  4  2  1  0
  7  6  1  0
  7  9  1  0
  8  7  2  0
 11 10  1  6
 10  9  1  0
 11 12  1  0
 12  4  1  0
 13 11  1  0
 13 14  2  0
 15 16  1  0
 16 17  2  0
 16 26  1  0
 17 18  1  0
 18 19  2  0
 19 20  1  0
 21 20  1  1
 21 22  1  0
 22 13  1  0
 23 21  1  0
 23 24  1  0
 25 19  1  0
 26 25  2  0
 27 23  2  0
M  END
$$$$
