AQY.pdb
     RDKit          3D

 27 27  0  0  1  0  0  0  0  0999 V2000
    7.9672  -16.5937   14.9236 C   0  0  0  0  0  0  0  0  0  0  0  0
    9.2215  -16.1303   15.6282 C   0  0  2  0  0  0  0  0  0  0  0  0
   10.3441  -16.5104   14.8405 N   0  0  0  0  0  0  0  0  0  0  0  0
    9.2805  -16.6472   17.0203 C   0  0  0  0  0  0  0  0  0  0  0  0
    8.3883  -16.3720   17.8629 O   0  0  0  0  0  0  0  0  0  0  0  0
   13.4281  -20.6775   21.4485 N   0  0  0  0  0  0  0  0  0  0  0  0
   12.8044  -20.6272   20.1964 C   0  0  0  0  0  0  0  0  0  0  0  0
   13.3136  -21.1584   19.2008 O   0  0  0  0  0  0  0  0  0  0  0  0
   11.4873  -19.9232   20.0129 C   0  0  0  0  0  0  0  0  0  0  0  0
   11.4289  -19.2367   18.6805 C   0  0  0  0  0  0  0  0  0  0  0  0
   10.5127  -18.0687   18.7228 C   0  0  2  0  0  0  0  0  0  0  0  0
   10.3527  -17.4591   17.4046 N   0  0  0  0  0  0  0  0  0  0  0  0
   11.0428  -17.0031   19.6005 C   0  0  0  0  0  0  0  0  0  0  0  0
   11.9882  -16.2219   19.2824 O   0  0  0  0  0  0  0  0  0  0  0  0
    7.0626  -12.8181   17.6772 O   0  0  0  0  0  0  0  0  0  0  0  0
    7.7062  -13.3447   18.7989 C   0  0  0  0  0  0  0  0  0  0  0  0
    9.0082  -13.0026   19.0954 C   0  0  0  0  0  0  0  0  0  0  0  0
    9.6328  -13.5278   20.2041 C   0  0  0  0  0  0  0  0  0  0  0  0
    8.9921  -14.4187   21.0714 C   0  0  0  0  0  0  0  0  0  0  0  0
    9.7270  -14.9515   22.2347 C   0  0  0  0  0  0  0  0  0  0  0  0
   10.9390  -15.7342   21.7959 C   0  0  2  0  0  0  0  0  0  0  0  0
   10.4933  -16.7897   20.9089 N   0  0  0  0  0  0  0  0  0  0  0  0
   11.6283  -16.3898   22.9268 C   0  0  0  0  0  0  0  0  0  0  0  0
   12.4452  -15.7022   23.8225 O   0  0  0  0  0  0  0  0  0  0  0  0
    7.6917  -14.7517   20.7625 C   0  0  0  0  0  0  0  0  0  0  0  0
    7.0630  -14.2210   19.6440 C   0  0  0  0  0  0  0  0  0  0  0  0
   11.4953  -17.6186   23.1200 O   0  0  0  0  0  0  0  0  0  0  0  0
  2  1  1  6
  2  3  1  0
  4  5  2  0
  4  2  1  0
  7  6  1  0
  7  9  1  0
  8  7  2  0
 11 10  1  6
 10  9  1  0
 11 12  1  0
 12  4  1  0
 13 11  1  0
 13 14  2  0
 15 16  1  0
 16 17  2  0
 16 26  1  0
 17 18  1  0
 18 19  2  0
 19 20  1  0
 21 20  1  1
 21 22  1  0
 22 13  1  0
 23 21  1  0
 23 24  1  0
 25 19  1  0
 26 25  2  0
 27 23  2  0
M  END
$$$$
