AQY.pdb
     RDKit          3D

 27 27  0  0  1  0  0  0  0  0999 V2000
    8.4919  -19.3367   20.9833 C   0  0  0  0  0  0  0  0  0  0  0  0
    8.5178  -18.3860   19.8085 C   0  0  2  0  0  0  0  0  0  0  0  0
    9.2075  -19.0181   18.7361 N   0  0  0  0  0  0  0  0  0  0  0  0
    9.1029  -17.0740   20.1892 C   0  0  0  0  0  0  0  0  0  0  0  0
   10.3273  -16.8303   20.0371 O   0  0  0  0  0  0  0  0  0  0  0  0
    9.2418  -12.6417   18.3211 N   0  0  0  0  0  0  0  0  0  0  0  0
    8.3386  -13.6563   17.9835 C   0  0  0  0  0  0  0  0  0  0  0  0
    8.3461  -14.1788   16.8612 O   0  0  0  0  0  0  0  0  0  0  0  0
    7.3213  -14.1517   18.9754 C   0  0  0  0  0  0  0  0  0  0  0  0
    7.6923  -13.7447   20.3706 C   0  0  0  0  0  0  0  0  0  0  0  0
    8.6661  -14.6972   20.9622 C   0  0  2  0  0  0  0  0  0  0  0  0
    8.2740  -16.0854   20.7296 N   0  0  0  0  0  0  0  0  0  0  0  0
    8.7461  -14.5392   22.4303 C   0  0  0  0  0  0  0  0  0  0  0  0
    8.2706  -13.5534   23.0684 O   0  0  0  0  0  0  0  0  0  0  0  0
    5.6081  -10.7831   26.8852 O   0  0  0  0  0  0  0  0  0  0  0  0
    6.1789  -11.9784   26.4433 C   0  0  0  0  0  0  0  0  0  0  0  0
    5.6599  -13.1965   26.8268 C   0  0  0  0  0  0  0  0  0  0  0  0
    6.2306  -14.3688   26.3849 C   0  0  0  0  0  0  0  0  0  0  0  0
    7.3453  -14.3856   25.5400 C   0  0  0  0  0  0  0  0  0  0  0  0
    7.9122  -15.6799   25.1151 C   0  0  0  0  0  0  0  0  0  0  0  0
    9.3505  -15.5261   24.6890 C   0  0  2  0  0  0  0  0  0  0  0  0
    9.3916  -15.5323   23.2407 N   0  0  0  0  0  0  0  0  0  0  0  0
   10.1981  -16.6476   25.1448 C   0  0  0  0  0  0  0  0  0  0  0  0
   10.7281  -16.7276   26.4312 O   0  0  0  0  0  0  0  0  0  0  0  0
    7.8531  -13.1613   25.1654 C   0  0  0  0  0  0  0  0  0  0  0  0
    7.2763  -11.9798   25.6118 C   0  0  0  0  0  0  0  0  0  0  0  0
   10.4736  -17.5872   24.3661 O   0  0  0  0  0  0  0  0  0  0  0  0
  2  1  1  1
  2  3  1  0
  4  5  2  0
  4  2  1  0
  7  6  1  0
  7  9  1  0
  8  7  2  0
 11 10  1  1
 10  9  1  0
 11 12  1  0
 12  4  1  0
 13 11  1  0
 13 14  2  0
 15 16  1  0
 16 17  2  0
 16 26  1  0
 17 18  1  0
 18 19  2  0
 19 20  1  0
 21 20  1  6
 21 22  1  0
 22 13  1  0
 23 21  1  0
 23 24  1  0
 25 19  1  0
 26 25  2  0
 27 23  2  0
M  END
$$$$
