AQY.pdb
     RDKit          3D

 27 27  0  0  1  0  0  0  0  0999 V2000
    8.1364  -12.1619   18.9837 C   0  0  0  0  0  0  0  0  0  0  0  0
    8.5804  -13.3669   18.1866 C   0  0  2  0  0  0  0  0  0  0  0  0
    7.4620  -13.8578   17.4564 N   0  0  0  0  0  0  0  0  0  0  0  0
    9.2045  -14.3926   19.0624 C   0  0  0  0  0  0  0  0  0  0  0  0
    8.5745  -15.4182   19.4270 O   0  0  0  0  0  0  0  0  0  0  0  0
   15.4403  -14.8897   19.3147 N   0  0  0  0  0  0  0  0  0  0  0  0
   14.5212  -14.8650   18.2594 C   0  0  0  0  0  0  0  0  0  0  0  0
   14.8918  -14.7437   17.0845 O   0  0  0  0  0  0  0  0  0  0  0  0
   13.0432  -14.9853   18.5143 C   0  0  0  0  0  0  0  0  0  0  0  0
   12.7582  -15.0578   19.9852 C   0  0  0  0  0  0  0  0  0  0  0  0
   11.3020  -15.2007   20.2393 C   0  0  2  0  0  0  0  0  0  0  0  0
   10.5236  -14.2152   19.4925 N   0  0  0  0  0  0  0  0  0  0  0  0
   10.9819  -14.9741   21.6651 C   0  0  0  0  0  0  0  0  0  0  0  0
   11.8115  -14.5496   22.5234 O   0  0  0  0  0  0  0  0  0  0  0  0
    5.9411  -12.2303   28.3318 O   0  0  0  0  0  0  0  0  0  0  0  0
    6.4093  -12.7184   27.1102 C   0  0  0  0  0  0  0  0  0  0  0  0
    7.2057  -11.9431   26.2949 C   0  0  0  0  0  0  0  0  0  0  0  0
    7.6617  -12.4348   25.0926 C   0  0  0  0  0  0  0  0  0  0  0  0
    7.3473  -13.7216   24.6435 C   0  0  0  0  0  0  0  0  0  0  0  0
    7.8615  -14.1786   23.3382 C   0  0  0  0  0  0  0  0  0  0  0  0
    9.2207  -14.8149   23.4855 C   0  0  2  0  0  0  0  0  0  0  0  0
    9.6641  -15.2331   22.1710 N   0  0  0  0  0  0  0  0  0  0  0  0
    9.1890  -16.0267   24.3307 C   0  0  0  0  0  0  0  0  0  0  0  0
    9.2234  -17.3191   23.8105 O   0  0  0  0  0  0  0  0  0  0  0  0
    6.5506  -14.4846   25.4683 C   0  0  0  0  0  0  0  0  0  0  0  0
    6.0915  -13.9874   26.6807 C   0  0  0  0  0  0  0  0  0  0  0  0
    9.1283  -15.9257   25.5762 O   0  0  0  0  0  0  0  0  0  0  0  0
  2  1  1  1
  2  3  1  0
  4  5  2  0
  4  2  1  0
  7  6  1  0
  7  9  1  0
  8  7  2  0
 11 10  1  1
 10  9  1  0
 11 12  1  0
 12  4  1  0
 13 11  1  0
 13 14  2  0
 15 16  1  0
 16 17  2  0
 16 26  1  0
 17 18  1  0
 18 19  2  0
 19 20  1  0
 21 20  1  6
 21 22  1  0
 22 13  1  0
 23 21  1  0
 23 24  1  0
 25 19  1  0
 26 25  2  0
 27 23  2  0
M  END
$$$$
