ICR.pdb
     RDKit          3D

 26 25  0  0  1  0  0  0  0  0999 V2000
   24.9263  -13.8990  -20.3923 C   0  0  0  0  0  0  0  0  0  0  0  0
   25.3362  -13.0314  -19.1936 C   0  0  0  0  0  0  0  0  0  0  0  0
   24.1671  -12.2153  -18.7071 C   0  0  2  0  0  0  0  0  0  0  0  0
   23.4452  -11.5162  -19.8081 C   0  0  0  0  0  0  0  0  0  0  0  0
   24.5106  -11.3650  -17.5182 C   0  0  2  0  0  0  0  0  0  0  0  0
   25.1167  -12.2424  -16.4919 N   0  0  0  0  0  0  0  0  0  0  0  0
   23.4066  -10.6557  -16.8873 C   0  0  0  0  0  0  0  0  0  0  0  0
   22.4580  -11.3307  -16.4048 O   0  0  0  0  0  0  0  0  0  0  0  0
   23.3020   -9.2492  -16.7636 N   0  0  0  0  0  0  0  0  0  0  0  0
   22.1268   -8.6551  -16.2226 C   0  0  1  0  0  0  0  0  0  0  0  0
   22.0453   -8.7330  -14.7154 C   0  0  0  0  0  0  0  0  0  0  0  0
   20.6040   -7.8964  -14.0471 S   0  0  0  0  0  0  0  0  0  0  0  0
   21.9773   -7.2327  -16.6697 C   0  0  0  0  0  0  0  0  0  0  0  0
   22.9371   -6.4501  -16.4734 O   0  0  0  0  0  0  0  0  0  0  0  0
   16.5970   -5.7575  -23.1153 N   0  0  0  0  0  0  0  0  0  0  0  0
   17.8851   -6.2925  -23.2913 C   0  0  0  0  0  0  0  0  0  0  0  0
   18.2684   -6.8264  -24.4201 N   0  0  0  0  0  0  0  0  0  0  0  0
   18.8545   -6.2859  -22.2519 N   0  0  0  0  0  0  0  0  0  0  0  0
   18.5471   -5.6863  -20.9465 C   0  0  0  0  0  0  0  0  0  0  0  0
   19.7228   -5.8051  -20.0121 C   0  0  0  0  0  0  0  0  0  0  0  0
   19.5172   -5.2113  -18.6733 C   0  0  0  0  0  0  0  0  0  0  0  0
   20.6780   -5.3527  -17.7503 C   0  0  2  0  0  0  0  0  0  0  0  0
   20.8054   -6.7398  -17.2990 N   0  0  0  0  0  0  0  0  0  0  0  0
   20.4936   -4.4488  -16.5850 C   0  0  0  0  0  0  0  0  0  0  0  0
   20.2894   -4.9659  -15.4705 O   0  0  0  0  0  0  0  0  0  0  0  0
   20.5557   -3.0901  -16.7730 O   0  0  0  0  0  0  0  0  0  0  0  0
  2  1  1  0
  3  4  1  6
  3  2  1  0
  5  3  1  0
  5  6  1  1
  7  8  2  0
  7  5  1  0
  9  7  1  0
 10  9  1  0
 11 12  1  0
 10 11  1  1
 13 14  2  0
 13 10  1  0
 16 15  1  0
 17 16  2  0
 18 16  1  0
 19 18  1  0
 20 21  1  0
 20 19  1  0
 22 21  1  6
 22 23  1  0
 23 13  1  0
 24 22  1  0
 25 24  2  0
 26 24  1  0
M  END
$$$$
