ICR.pdb
     RDKit          3D

 26 25  0  0  1  0  0  0  0  0999 V2000
   26.1835  -17.5016  -18.8981 C   0  0  0  0  0  0  0  0  0  0  0  0
   26.8277  -16.8408  -17.6708 C   0  0  0  0  0  0  0  0  0  0  0  0
   26.1984  -15.4988  -17.4014 C   0  0  2  0  0  0  0  0  0  0  0  0
   26.0201  -14.6801  -18.6342 C   0  0  0  0  0  0  0  0  0  0  0  0
   26.8293  -14.7874  -16.2393 C   0  0  2  0  0  0  0  0  0  0  0  0
   26.7404  -15.6766  -15.0595 N   0  0  0  0  0  0  0  0  0  0  0  0
   26.2424  -13.5085  -15.8656 C   0  0  0  0  0  0  0  0  0  0  0  0
   25.1391  -13.5103  -15.2563 O   0  0  0  0  0  0  0  0  0  0  0  0
   26.8114  -12.2390  -16.1287 N   0  0  0  0  0  0  0  0  0  0  0  0
   26.1394  -11.0480  -15.7330 C   0  0  1  0  0  0  0  0  0  0  0  0
   26.9785  -10.1357  -14.8682 C   0  0  0  0  0  0  0  0  0  0  0  0
   28.4870   -9.5945  -15.6776 S   0  0  0  0  0  0  0  0  0  0  0  0
   25.6203  -10.2931  -16.9188 C   0  0  0  0  0  0  0  0  0  0  0  0
   26.2708  -10.3582  -17.9888 O   0  0  0  0  0  0  0  0  0  0  0  0
   18.0528   -6.5296  -16.9018 N   0  0  0  0  0  0  0  0  0  0  0  0
   19.2691   -5.8246  -16.9001 C   0  0  0  0  0  0  0  0  0  0  0  0
   19.3582   -4.5920  -16.4771 N   0  0  0  0  0  0  0  0  0  0  0  0
   20.4815   -6.4085  -17.3577 N   0  0  0  0  0  0  0  0  0  0  0  0
   20.5526   -7.0449  -18.6798 C   0  0  0  0  0  0  0  0  0  0  0  0
   21.9334   -7.5887  -18.9391 C   0  0  0  0  0  0  0  0  0  0  0  0
   22.5706   -8.2498  -17.7797 C   0  0  0  0  0  0  0  0  0  0  0  0
   23.9363   -8.7818  -18.0461 C   0  0  2  0  0  0  0  0  0  0  0  0
   24.4351   -9.5146  -16.8807 N   0  0  0  0  0  0  0  0  0  0  0  0
   24.8488   -7.6551  -18.3730 C   0  0  0  0  0  0  0  0  0  0  0  0
   25.5067   -7.1474  -17.4452 O   0  0  0  0  0  0  0  0  0  0  0  0
   24.9368   -7.2178  -19.6715 O   0  0  0  0  0  0  0  0  0  0  0  0
  2  1  1  0
  3  4  1  6
  3  2  1  0
  5  3  1  0
  5  6  1  1
  7  8  2  0
  7  5  1  0
  9  7  1  0
 10  9  1  0
 11 12  1  0
 10 11  1  6
 13 14  2  0
 13 10  1  0
 16 15  1  0
 17 16  2  0
 18 16  1  0
 19 18  1  0
 20 21  1  0
 20 19  1  0
 22 21  1  1
 22 23  1  0
 23 13  1  0
 24 22  1  0
 25 24  2  0
 26 24  1  0
M  END
$$$$
