ICR.pdb
     RDKit          3D

 26 25  0  0  1  0  0  0  0  0999 V2000
   28.2421  -18.6688  -17.9870 C   0  0  0  0  0  0  0  0  0  0  0  0
   28.7377  -19.5892  -16.8623 C   0  0  0  0  0  0  0  0  0  0  0  0
   27.6247  -19.8837  -15.8908 C   0  0  2  0  0  0  0  0  0  0  0  0
   26.8952  -18.6603  -15.4513 C   0  0  0  0  0  0  0  0  0  0  0  0
   28.0487  -20.8130  -14.7903 C   0  0  2  0  0  0  0  0  0  0  0  0
   28.4328  -22.1023  -15.4071 N   0  0  0  0  0  0  0  0  0  0  0  0
   27.0557  -21.0998  -13.7649 C   0  0  0  0  0  0  0  0  0  0  0  0
   26.0604  -21.8078  -14.0756 O   0  0  0  0  0  0  0  0  0  0  0  0
   27.1098  -20.6476  -12.4244 N   0  0  0  0  0  0  0  0  0  0  0  0
   26.0663  -20.9663  -11.5098 C   0  0  1  0  0  0  0  0  0  0  0  0
   26.3431  -20.5197  -10.0927 C   0  0  0  0  0  0  0  0  0  0  0  0
   24.9881  -20.8734   -8.9690 S   0  0  0  0  0  0  0  0  0  0  0  0
   24.7494  -20.4192  -11.9701 C   0  0  0  0  0  0  0  0  0  0  0  0
   24.7573  -19.3864  -12.6812 O   0  0  0  0  0  0  0  0  0  0  0  0
   21.2211  -19.5505  -17.7292 N   0  0  0  0  0  0  0  0  0  0  0  0
   20.0928  -20.3809  -17.6119 C   0  0  0  0  0  0  0  0  0  0  0  0
   18.9901  -20.1540  -18.2744 N   0  0  0  0  0  0  0  0  0  0  0  0
   20.0795  -21.5225  -16.7653 N   0  0  0  0  0  0  0  0  0  0  0  0
   21.2547  -21.8647  -15.9530 C   0  0  0  0  0  0  0  0  0  0  0  0
   21.1875  -21.1954  -14.6050 C   0  0  0  0  0  0  0  0  0  0  0  0
   22.3832  -21.3839  -13.7554 C   0  0  0  0  0  0  0  0  0  0  0  0
   22.2832  -20.7672  -12.4031 C   0  0  2  0  0  0  0  0  0  0  0  0
   23.5061  -21.0154  -11.6370 N   0  0  0  0  0  0  0  0  0  0  0  0
   21.1075  -21.3315  -11.6901 C   0  0  0  0  0  0  0  0  0  0  0  0
   21.3179  -22.0847  -10.7206 O   0  0  0  0  0  0  0  0  0  0  0  0
   19.8439  -21.0064  -12.1173 O   0  0  0  0  0  0  0  0  0  0  0  0
  2  1  1  0
  3  4  1  1
  3  2  1  0
  5  3  1  0
  5  6  1  6
  7  8  2  0
  7  5  1  0
  9  7  1  0
 10  9  1  0
 11 12  1  0
 10 11  1  1
 13 14  2  0
 13 10  1  0
 16 15  1  0
 17 16  2  0
 18 16  1  0
 19 18  1  0
 20 21  1  0
 20 19  1  0
 22 21  1  6
 22 23  1  0
 23 13  1  0
 24 22  1  0
 25 24  2  0
 26 24  1  0
M  END
$$$$
