ICR.pdb
     RDKit          3D

 26 25  0  0  1  0  0  0  0  0999 V2000
   30.2104  -21.2841   -8.7099 C   0  0  0  0  0  0  0  0  0  0  0  0
   28.7482  -21.2940   -8.2413 C   0  0  0  0  0  0  0  0  0  0  0  0
   28.2176  -19.8881   -8.1343 C   0  0  2  0  0  0  0  0  0  0  0  0
   28.9837  -19.0473   -7.1710 C   0  0  0  0  0  0  0  0  0  0  0  0
   26.7242  -19.8438   -7.9845 C   0  0  2  0  0  0  0  0  0  0  0  0
   26.3839  -20.4030   -6.6571 N   0  0  0  0  0  0  0  0  0  0  0  0
   25.9508  -20.5767   -8.9768 C   0  0  0  0  0  0  0  0  0  0  0  0
   25.9297  -21.8351   -8.9106 O   0  0  0  0  0  0  0  0  0  0  0  0
   25.2049  -19.9913  -10.0282 N   0  0  0  0  0  0  0  0  0  0  0  0
   24.4464  -20.8038  -10.9177 C   0  0  1  0  0  0  0  0  0  0  0  0
   22.9553  -20.5729  -10.8294 C   0  0  0  0  0  0  0  0  0  0  0  0
   22.3238  -20.7035   -9.1538 S   0  0  0  0  0  0  0  0  0  0  0  0
   24.9059  -20.6402  -12.3346 C   0  0  0  0  0  0  0  0  0  0  0  0
   25.2821  -19.5024  -12.7036 O   0  0  0  0  0  0  0  0  0  0  0  0
   29.4904  -26.4333  -15.7140 N   0  0  0  0  0  0  0  0  0  0  0  0
   28.6643  -25.7371  -16.6136 C   0  0  0  0  0  0  0  0  0  0  0  0
   28.7813  -25.8662  -17.9082 N   0  0  0  0  0  0  0  0  0  0  0  0
   27.6470  -24.8481  -16.1722 N   0  0  0  0  0  0  0  0  0  0  0  0
   26.8307  -24.1054  -17.1417 C   0  0  0  0  0  0  0  0  0  0  0  0
   26.3941  -22.7811  -16.5714 C   0  0  0  0  0  0  0  0  0  0  0  0
   25.9735  -22.8212  -15.1542 C   0  0  0  0  0  0  0  0  0  0  0  0
   25.4046  -21.5430  -14.6425 C   0  0  2  0  0  0  0  0  0  0  0  0
   24.9317  -21.7090  -13.2668 N   0  0  0  0  0  0  0  0  0  0  0  0
   24.2853  -21.1151  -15.5218 C   0  0  0  0  0  0  0  0  0  0  0  0
   23.1218  -21.3386  -15.1378 O   0  0  0  0  0  0  0  0  0  0  0  0
   24.5675  -20.4933  -16.7130 O   0  0  0  0  0  0  0  0  0  0  0  0
  2  1  1  0
  3  4  1  1
  3  2  1  0
  5  3  1  0
  5  6  1  1
  7  8  2  0
  7  5  1  0
  9  7  1  0
 10  9  1  0
 11 12  1  0
 10 11  1  6
 13 14  2  0
 13 10  1  0
 16 15  1  0
 17 16  2  0
 18 16  1  0
 19 18  1  0
 20 21  1  0
 20 19  1  0
 22 21  1  6
 22 23  1  0
 23 13  1  0
 24 22  1  0
 25 24  2  0
 26 24  1  0
M  END
$$$$
