ICR.pdb
     RDKit          3D

 26 25  0  0  1  0  0  0  0  0999 V2000
   21.0646  -18.9760  -15.5070 C   0  0  0  0  0  0  0  0  0  0  0  0
   20.7157  -18.6814  -14.0410 C   0  0  0  0  0  0  0  0  0  0  0  0
   20.8151  -19.9350  -13.2115 C   0  0  2  0  0  0  0  0  0  0  0  0
   20.1932  -21.1199  -13.8682 C   0  0  0  0  0  0  0  0  0  0  0  0
   20.4256  -19.7123  -11.7786 C   0  0  2  0  0  0  0  0  0  0  0  0
   21.2022  -18.5594  -11.2705 N   0  0  0  0  0  0  0  0  0  0  0  0
   20.6493  -20.8240  -10.8654 C   0  0  0  0  0  0  0  0  0  0  0  0
   20.0332  -21.9037  -11.0730 O   0  0  0  0  0  0  0  0  0  0  0  0
   21.5144  -20.8009   -9.7448 N   0  0  0  0  0  0  0  0  0  0  0  0
   21.6651  -21.9532   -8.9224 C   0  0  1  0  0  0  0  0  0  0  0  0
   22.9642  -21.9828   -8.1505 C   0  0  0  0  0  0  0  0  0  0  0  0
   24.0385  -20.5959   -8.5327 S   0  0  0  0  0  0  0  0  0  0  0  0
   20.5085  -22.1096   -7.9826 C   0  0  0  0  0  0  0  0  0  0  0  0
   20.0762  -21.0838   -7.4054 O   0  0  0  0  0  0  0  0  0  0  0  0
   12.3921  -23.7075   -8.7139 N   0  0  0  0  0  0  0  0  0  0  0  0
   13.5064  -22.8872   -8.9624 C   0  0  0  0  0  0  0  0  0  0  0  0
   13.5641  -22.0852   -9.9918 N   0  0  0  0  0  0  0  0  0  0  0  0
   14.6424  -22.8767   -8.1083 N   0  0  0  0  0  0  0  0  0  0  0  0
   15.0171  -24.0763   -7.3476 C   0  0  0  0  0  0  0  0  0  0  0  0
   16.3194  -23.8645   -6.6204 C   0  0  0  0  0  0  0  0  0  0  0  0
   17.4888  -23.6253   -7.4936 C   0  0  0  0  0  0  0  0  0  0  0  0
   18.7856  -23.5066   -6.7700 C   0  0  2  0  0  0  0  0  0  0  0  0
   19.8892  -23.3586   -7.7208 N   0  0  0  0  0  0  0  0  0  0  0  0
   18.9921  -24.7138   -5.9279 C   0  0  0  0  0  0  0  0  0  0  0  0
   19.5925  -25.6820   -6.4312 O   0  0  0  0  0  0  0  0  0  0  0  0
   18.5216  -24.7208   -4.6381 O   0  0  0  0  0  0  0  0  0  0  0  0
  2  1  1  0
  3  4  1  6
  3  2  1  0
  5  3  1  0
  5  6  1  1
  7  8  2  0
  7  5  1  0
  9  7  1  0
 10  9  1  0
 11 12  1  0
 10 11  1  1
 13 14  2  0
 13 10  1  0
 16 15  1  0
 17 16  2  0
 18 16  1  0
 19 18  1  0
 20 21  1  0
 20 19  1  0
 22 21  1  6
 22 23  1  0
 23 13  1  0
 24 22  1  0
 25 24  2  0
 26 24  1  0
M  END
$$$$
