ICR.pdb
     RDKit          3D

 26 25  0  0  1  0  0  0  0  0999 V2000
   28.7032  -19.7579   -6.3432 C   0  0  0  0  0  0  0  0  0  0  0  0
   28.6188  -20.9334   -7.3275 C   0  0  0  0  0  0  0  0  0  0  0  0
   27.7539  -20.5741   -8.5075 C   0  0  2  0  0  0  0  0  0  0  0  0
   26.4001  -20.0909   -8.1127 C   0  0  0  0  0  0  0  0  0  0  0  0
   27.7773  -21.6227   -9.5819 C   0  0  2  0  0  0  0  0  0  0  0  0
   29.1927  -21.9390   -9.8773 N   0  0  0  0  0  0  0  0  0  0  0  0
   27.1371  -21.2743  -10.8423 C   0  0  0  0  0  0  0  0  0  0  0  0
   27.7912  -20.5971  -11.6800 O   0  0  0  0  0  0  0  0  0  0  0  0
   25.8212  -21.6364  -11.2190 N   0  0  0  0  0  0  0  0  0  0  0  0
   25.3246  -21.3162  -12.5142 C   0  0  1  0  0  0  0  0  0  0  0  0
   25.3501  -22.4792  -13.4792 C   0  0  0  0  0  0  0  0  0  0  0  0
   24.7443  -24.0056  -12.7535 S   0  0  0  0  0  0  0  0  0  0  0  0
   23.9427  -20.7410  -12.4435 C   0  0  0  0  0  0  0  0  0  0  0  0
   23.2625  -20.9684  -11.4150 O   0  0  0  0  0  0  0  0  0  0  0  0
   19.2186  -14.5163  -15.4124 N   0  0  0  0  0  0  0  0  0  0  0  0
   20.4910  -14.8326  -15.9198 C   0  0  0  0  0  0  0  0  0  0  0  0
   21.3328  -13.9131  -16.3098 N   0  0  0  0  0  0  0  0  0  0  0  0
   20.9443  -16.1743  -16.0401 N   0  0  0  0  0  0  0  0  0  0  0  0
   20.0027  -17.2954  -15.9195 C   0  0  0  0  0  0  0  0  0  0  0  0
   20.3150  -18.1289  -14.7040 C   0  0  0  0  0  0  0  0  0  0  0  0
   21.7041  -18.6316  -14.6332 C   0  0  0  0  0  0  0  0  0  0  0  0
   21.9867  -19.5015  -13.4574 C   0  0  2  0  0  0  0  0  0  0  0  0
   23.3777  -19.9580  -13.4826 N   0  0  0  0  0  0  0  0  0  0  0  0
   21.0639  -20.6665  -13.4734 C   0  0  0  0  0  0  0  0  0  0  0  0
   21.3460  -21.6257  -14.2161 O   0  0  0  0  0  0  0  0  0  0  0  0
   19.9456  -20.6478  -12.6771 O   0  0  0  0  0  0  0  0  0  0  0  0
  2  1  1  0
  3  4  1  1
  3  2  1  0
  5  3  1  0
  5  6  1  6
  7  8  2  0
  7  5  1  0
  9  7  1  0
 10  9  1  0
 11 12  1  0
 10 11  1  6
 13 14  2  0
 13 10  1  0
 16 15  1  0
 17 16  2  0
 18 16  1  0
 19 18  1  0
 20 21  1  0
 20 19  1  0
 22 21  1  6
 22 23  1  0
 23 13  1  0
 24 22  1  0
 25 24  2  0
 26 24  1  0
M  END
$$$$
