ICR.pdb
     RDKit          3D

 26 25  0  0  1  0  0  0  0  0999 V2000
   21.0486  -21.1784  -14.3241 C   0  0  0  0  0  0  0  0  0  0  0  0
   21.6220  -20.3294  -15.4678 C   0  0  0  0  0  0  0  0  0  0  0  0
   21.7785  -18.8951  -15.0346 C   0  0  2  0  0  0  0  0  0  0  0  0
   20.6091  -18.3883  -14.2616 C   0  0  0  0  0  0  0  0  0  0  0  0
   22.2531  -18.0041  -16.1461 C   0  0  2  0  0  0  0  0  0  0  0  0
   23.4465  -18.6332  -16.7547 N   0  0  0  0  0  0  0  0  0  0  0  0
   22.6190  -16.6443  -15.7760 C   0  0  0  0  0  0  0  0  0  0  0  0
   21.7397  -15.9079  -15.2536 O   0  0  0  0  0  0  0  0  0  0  0  0
   23.8987  -16.0647  -15.9521 N   0  0  0  0  0  0  0  0  0  0  0  0
   24.1205  -14.6921  -15.6461 C   0  0  1  0  0  0  0  0  0  0  0  0
   25.5721  -14.2788  -15.7261 C   0  0  0  0  0  0  0  0  0  0  0  0
   26.6245  -15.1924  -14.5943 S   0  0  0  0  0  0  0  0  0  0  0  0
   23.2858  -13.7971  -16.5107 C   0  0  0  0  0  0  0  0  0  0  0  0
   23.0699  -14.1551  -17.6929 O   0  0  0  0  0  0  0  0  0  0  0  0
   16.1485   -8.7589  -14.7467 N   0  0  0  0  0  0  0  0  0  0  0  0
   16.5287   -8.4778  -16.0707 C   0  0  0  0  0  0  0  0  0  0  0  0
   15.7812   -7.7684  -16.8735 N   0  0  0  0  0  0  0  0  0  0  0  0
   17.7523   -8.9466  -16.6213 N   0  0  0  0  0  0  0  0  0  0  0  0
   18.6421   -9.8128  -15.8365 C   0  0  0  0  0  0  0  0  0  0  0  0
   19.7635  -10.3437  -16.6910 C   0  0  0  0  0  0  0  0  0  0  0  0
   20.7256  -11.2169  -15.9845 C   0  0  0  0  0  0  0  0  0  0  0  0
   21.7979  -11.7819  -16.8505 C   0  0  2  0  0  0  0  0  0  0  0  0
   22.7358  -12.5728  -16.0515 N   0  0  0  0  0  0  0  0  0  0  0  0
   22.5141  -10.6734  -17.5342 C   0  0  0  0  0  0  0  0  0  0  0  0
   23.6290  -10.3372  -17.0923 O   0  0  0  0  0  0  0  0  0  0  0  0
   21.9309  -10.0653  -18.6183 O   0  0  0  0  0  0  0  0  0  0  0  0
  2  1  1  0
  3  4  1  6
  3  2  1  0
  5  3  1  0
  5  6  1  1
  7  8  2  0
  7  5  1  0
  9  7  1  0
 10  9  1  0
 11 12  1  0
 10 11  1  6
 13 14  2  0
 13 10  1  0
 16 15  1  0
 17 16  2  0
 18 16  1  0
 19 18  1  0
 20 21  1  0
 20 19  1  0
 22 21  1  1
 22 23  1  0
 23 13  1  0
 24 22  1  0
 25 24  2  0
 26 24  1  0
M  END
$$$$
