ICR.pdb
     RDKit          3D

 26 25  0  0  1  0  0  0  0  0999 V2000
   28.1448  -20.3096  -18.4650 C   0  0  0  0  0  0  0  0  0  0  0  0
   27.8588  -21.7609  -18.0528 C   0  0  0  0  0  0  0  0  0  0  0  0
   26.6270  -21.8321  -17.1884 C   0  0  2  0  0  0  0  0  0  0  0  0
   25.4154  -21.2723  -17.8522 C   0  0  0  0  0  0  0  0  0  0  0  0
   26.8755  -21.3525  -15.7874 C   0  0  2  0  0  0  0  0  0  0  0  0
   28.0135  -22.1233  -15.2384 N   0  0  0  0  0  0  0  0  0  0  0  0
   25.7686  -21.4842  -14.8508 C   0  0  0  0  0  0  0  0  0  0  0  0
   25.3494  -22.6408  -14.5769 O   0  0  0  0  0  0  0  0  0  0  0  0
   25.1095  -20.4093  -14.2069 N   0  0  0  0  0  0  0  0  0  0  0  0
   23.9480  -20.6408  -13.4168 C   0  0  1  0  0  0  0  0  0  0  0  0
   23.9159  -19.8410  -12.1348 C   0  0  0  0  0  0  0  0  0  0  0  0
   22.8018  -20.5295  -10.9068 S   0  0  0  0  0  0  0  0  0  0  0  0
   22.6950  -20.3982  -14.2021 C   0  0  0  0  0  0  0  0  0  0  0  0
   22.5866  -19.3104  -14.8162 O   0  0  0  0  0  0  0  0  0  0  0  0
   17.8886  -24.6827  -12.6561 N   0  0  0  0  0  0  0  0  0  0  0  0
   17.5401  -24.9765  -13.9860 C   0  0  0  0  0  0  0  0  0  0  0  0
   17.6408  -26.1808  -14.4818 N   0  0  0  0  0  0  0  0  0  0  0  0
   17.0541  -23.9816  -14.8772 N   0  0  0  0  0  0  0  0  0  0  0  0
   16.8604  -22.5989  -14.4205 C   0  0  0  0  0  0  0  0  0  0  0  0
   17.9452  -21.7010  -14.9558 C   0  0  0  0  0  0  0  0  0  0  0  0
   19.2782  -21.9036  -14.3480 C   0  0  0  0  0  0  0  0  0  0  0  0
   20.3485  -21.0275  -14.9010 C   0  0  2  0  0  0  0  0  0  0  0  0
   21.6363  -21.3393  -14.2779 N   0  0  0  0  0  0  0  0  0  0  0  0
   19.9933  -19.6044  -14.6607 C   0  0  0  0  0  0  0  0  0  0  0  0
   20.0937  -19.1647  -13.4996 O   0  0  0  0  0  0  0  0  0  0  0  0
   19.5733  -18.8303  -15.7140 O   0  0  0  0  0  0  0  0  0  0  0  0
  2  1  1  0
  3  4  1  6
  3  2  1  0
  5  3  1  0
  5  6  1  1
  7  8  2  0
  7  5  1  0
  9  7  1  0
 10  9  1  0
 11 12  1  0
 10 11  1  1
 13 14  2  0
 13 10  1  0
 16 15  1  0
 17 16  2  0
 18 16  1  0
 19 18  1  0
 20 21  1  0
 20 19  1  0
 22 21  1  1
 22 23  1  0
 23 13  1  0
 24 22  1  0
 25 24  2  0
 26 24  1  0
M  END
$$$$
