ICR.pdb
     RDKit          3D

 26 25  0  0  1  0  0  0  0  0999 V2000
   22.2847  -20.8599   -7.7481 C   0  0  0  0  0  0  0  0  0  0  0  0
   23.8045  -21.0387   -7.8754 C   0  0  0  0  0  0  0  0  0  0  0  0
   24.2744  -20.6141   -9.2423 C   0  0  2  0  0  0  0  0  0  0  0  0
   23.4880  -21.2322  -10.3475 C   0  0  0  0  0  0  0  0  0  0  0  0
   25.7666  -20.6908   -9.3901 C   0  0  2  0  0  0  0  0  0  0  0  0
   26.3735  -19.9339   -8.2724 N   0  0  0  0  0  0  0  0  0  0  0  0
   26.3238  -20.1620  -10.6270 C   0  0  0  0  0  0  0  0  0  0  0  0
   26.2918  -18.9162  -10.8146 O   0  0  0  0  0  0  0  0  0  0  0  0
   26.9111  -20.9364  -11.6565 N   0  0  0  0  0  0  0  0  0  0  0  0
   27.2427  -20.3449  -12.9083 C   0  0  1  0  0  0  0  0  0  0  0  0
   28.6825  -20.5551  -13.3172 C   0  0  0  0  0  0  0  0  0  0  0  0
   29.0440  -19.9253  -14.9592 S   0  0  0  0  0  0  0  0  0  0  0  0
   26.3280  -20.8186  -13.9966 C   0  0  0  0  0  0  0  0  0  0  0  0
   26.2208  -22.0545  -14.1790 O   0  0  0  0  0  0  0  0  0  0  0  0
   18.4606  -19.2950  -14.9768 N   0  0  0  0  0  0  0  0  0  0  0  0
   19.4840  -18.4322  -15.4064 C   0  0  0  0  0  0  0  0  0  0  0  0
   19.3287  -17.1360  -15.4500 N   0  0  0  0  0  0  0  0  0  0  0  0
   20.7553  -18.9149  -15.8202 N   0  0  0  0  0  0  0  0  0  0  0  0
   20.9007  -20.2755  -16.3546 C   0  0  0  0  0  0  0  0  0  0  0  0
   22.3469  -20.5883  -16.6376 C   0  0  0  0  0  0  0  0  0  0  0  0
   23.2967  -20.1402  -15.5962 C   0  0  0  0  0  0  0  0  0  0  0  0
   24.7283  -20.4068  -15.9102 C   0  0  2  0  0  0  0  0  0  0  0  0
   25.5863  -19.9347  -14.8217 N   0  0  0  0  0  0  0  0  0  0  0  0
   25.0891  -19.7252  -17.1807 C   0  0  0  0  0  0  0  0  0  0  0  0
   25.3867  -18.5167  -17.1317 O   0  0  0  0  0  0  0  0  0  0  0  0
   25.0844  -20.4418  -18.3517 O   0  0  0  0  0  0  0  0  0  0  0  0
  2  1  1  0
  3  4  1  6
  3  2  1  0
  5  3  1  0
  5  6  1  1
  7  8  2  0
  7  5  1  0
  9  7  1  0
 10  9  1  0
 11 12  1  0
 10 11  1  6
 13 14  2  0
 13 10  1  0
 16 15  1  0
 17 16  2  0
 18 16  1  0
 19 18  1  0
 20 21  1  0
 20 19  1  0
 22 21  1  1
 22 23  1  0
 23 13  1  0
 24 22  1  0
 25 24  2  0
 26 24  1  0
M  END
$$$$
