ICR.pdb
     RDKit          3D

 26 25  0  0  1  0  0  0  0  0999 V2000
   28.0273  -19.2227   -7.1742 C   0  0  0  0  0  0  0  0  0  0  0  0
   26.5200  -19.5127   -7.1339 C   0  0  0  0  0  0  0  0  0  0  0  0
   26.0439  -20.0237   -8.4686 C   0  0  2  0  0  0  0  0  0  0  0  0
   26.6309  -19.2816   -9.6205 C   0  0  0  0  0  0  0  0  0  0  0  0
   24.5557  -20.2172   -8.5161 C   0  0  2  0  0  0  0  0  0  0  0  0
   24.1735  -21.0827   -7.3779 N   0  0  0  0  0  0  0  0  0  0  0  0
   24.0190  -20.8259   -9.7249 C   0  0  0  0  0  0  0  0  0  0  0  0
   24.2941  -22.0328   -9.9615 O   0  0  0  0  0  0  0  0  0  0  0  0
   23.1988  -20.1716  -10.6755 N   0  0  0  0  0  0  0  0  0  0  0  0
   22.6580  -20.8879  -11.7807 C   0  0  1  0  0  0  0  0  0  0  0  0
   21.2051  -21.2665  -11.6069 C   0  0  0  0  0  0  0  0  0  0  0  0
   20.3630  -20.2678  -10.3752 S   0  0  0  0  0  0  0  0  0  0  0  0
   22.8398  -20.1341  -13.0630 C   0  0  0  0  0  0  0  0  0  0  0  0
   22.4977  -18.9281  -13.0904 O   0  0  0  0  0  0  0  0  0  0  0  0
   28.0950  -16.2275  -17.8377 N   0  0  0  0  0  0  0  0  0  0  0  0
   26.7367  -16.1585  -18.1936 C   0  0  0  0  0  0  0  0  0  0  0  0
   26.2184  -15.1011  -18.7589 N   0  0  0  0  0  0  0  0  0  0  0  0
   25.8393  -17.2362  -17.9624 N   0  0  0  0  0  0  0  0  0  0  0  0
   26.3129  -18.4858  -17.3524 C   0  0  0  0  0  0  0  0  0  0  0  0
   25.2069  -19.5071  -17.2957 C   0  0  0  0  0  0  0  0  0  0  0  0
   24.9636  -20.0886  -15.9578 C   0  0  0  0  0  0  0  0  0  0  0  0
   23.5565  -19.9756  -15.4820 C   0  0  2  0  0  0  0  0  0  0  0  0
   23.3772  -20.7235  -14.2360 N   0  0  0  0  0  0  0  0  0  0  0  0
   22.6391  -20.4957  -16.5293 C   0  0  0  0  0  0  0  0  0  0  0  0
   22.3277  -21.7010  -16.4877 O   0  0  0  0  0  0  0  0  0  0  0  0
   22.1694  -19.6404  -17.4952 O   0  0  0  0  0  0  0  0  0  0  0  0
  2  1  1  0
  3  4  1  6
  3  2  1  0
  5  3  1  0
  5  6  1  1
  7  8  2  0
  7  5  1  0
  9  7  1  0
 10  9  1  0
 11 12  1  0
 10 11  1  1
 13 14  2  0
 13 10  1  0
 16 15  1  0
 17 16  2  0
 18 16  1  0
 19 18  1  0
 20 21  1  0
 20 19  1  0
 22 21  1  6
 22 23  1  0
 23 13  1  0
 24 22  1  0
 25 24  2  0
 26 24  1  0
M  END
$$$$
