ECQ.pdb
     RDKit          3D

 25 24  0  0  1  0  0  0  0  0999 V2000
    7.4424  -16.7069   21.4340 N   0  0  0  0  0  0  0  0  0  0  0  0
    8.6758  -16.6207   22.1078 C   0  0  1  0  0  0  0  0  0  0  0  0
    9.8739  -16.7387   21.2274 C   0  0  0  0  0  0  0  0  0  0  0  0
    9.5997  -17.2586   19.8651 C   0  0  0  0  0  0  0  0  0  0  0  0
   10.7435  -17.3245   18.9773 C   0  0  0  0  0  0  0  0  0  0  0  0
   10.7566  -17.6674   17.7914 O   0  0  0  0  0  0  0  0  0  0  0  0
    8.8600  -15.3543   22.8811 C   0  0  0  0  0  0  0  0  0  0  0  0
   10.0357  -14.9643   23.1976 O   0  0  0  0  0  0  0  0  0  0  0  0
   11.9941  -16.9583   19.5129 O   0  0  0  0  0  0  0  0  0  0  0  0
    7.8221  -14.5078   23.3151 N   0  0  0  0  0  0  0  0  0  0  0  0
    7.8596  -13.7883   24.5574 C   0  0  1  0  0  0  0  0  0  0  0  0
    6.5915  -13.0729   24.8968 C   0  0  0  0  0  0  0  0  0  0  0  0
    6.6836  -12.1760   26.4624 S   0  0  0  0  0  0  0  0  0  0  0  0
    8.1741  -14.7179   25.6665 C   0  0  0  0  0  0  0  0  0  0  0  0
    7.6219  -15.8551   25.7351 O   0  0  0  0  0  0  0  0  0  0  0  0
   12.7055  -19.0128   28.6816 N   0  0  0  0  0  0  0  0  0  0  0  0
   12.2202  -17.9972   27.8008 C   0  0  0  0  0  0  0  0  0  0  0  0
   12.8763  -17.7018   26.7790 O   0  0  0  0  0  0  0  0  0  0  0  0
   10.9399  -17.3421   28.1637 C   0  0  0  0  0  0  0  0  0  0  0  0
   10.4652  -16.3390   27.1600 C   0  0  0  0  0  0  0  0  0  0  0  0
    9.4354  -15.3874   27.7095 C   0  0  2  0  0  0  0  0  0  0  0  0
    9.0974  -14.3851   26.6940 N   0  0  0  0  0  0  0  0  0  0  0  0
   10.0100  -14.7001   28.8850 C   0  0  0  0  0  0  0  0  0  0  0  0
   10.4046  -15.3977   29.8510 O   0  0  0  0  0  0  0  0  0  0  0  0
   10.1531  -13.3326   29.0108 O   0  0  0  0  0  0  0  0  0  0  0  0
  2  1  1  6
  2  7  1  0
  3  2  1  0
  4  3  1  0
  5  4  1  0
  6  5  2  0
  7  8  2  0
  9  5  1  0
 10 11  1  0
 10  7  1  0
 11 12  1  1
 12 13  1  0
 14 15  2  0
 14 11  1  0
 16 17  1  0
 17 19  1  0
 18 17  2  0
 19 20  1  0
 21 20  1  6
 21 23  1  0
 21 22  1  0
 22 14  1  0
 23 25  1  0
 24 23  2  0
M  END
$$$$
