ECQ.pdb
     RDKit          3D

 25 24  0  0  1  0  0  0  0  0999 V2000
    9.7412  -19.1152   20.3154 N   0  0  0  0  0  0  0  0  0  0  0  0
   10.8649  -18.6435   21.0210 C   0  0  1  0  0  0  0  0  0  0  0  0
   12.0567  -18.3578   20.1711 C   0  0  0  0  0  0  0  0  0  0  0  0
   11.8063  -17.4418   19.0311 C   0  0  0  0  0  0  0  0  0  0  0  0
   12.9505  -17.1666   18.1850 C   0  0  0  0  0  0  0  0  0  0  0  0
   13.8632  -16.3616   18.3922 O   0  0  0  0  0  0  0  0  0  0  0  0
   10.6124  -17.3949   21.8038 C   0  0  0  0  0  0  0  0  0  0  0  0
   11.5774  -16.8139   22.4086 O   0  0  0  0  0  0  0  0  0  0  0  0
   13.0490  -17.8931   16.9818 O   0  0  0  0  0  0  0  0  0  0  0  0
    9.3620  -16.7642   21.9483 N   0  0  0  0  0  0  0  0  0  0  0  0
    9.1560  -15.6009   22.7648 C   0  0  1  0  0  0  0  0  0  0  0  0
    7.8299  -14.9375   22.5736 C   0  0  0  0  0  0  0  0  0  0  0  0
    6.4698  -15.8412   23.3464 S   0  0  0  0  0  0  0  0  0  0  0  0
    9.2876  -15.9618   24.1951 C   0  0  0  0  0  0  0  0  0  0  0  0
    9.1516  -17.1616   24.5757 O   0  0  0  0  0  0  0  0  0  0  0  0
   11.8484  -15.6157   28.6090 N   0  0  0  0  0  0  0  0  0  0  0  0
   10.7703  -15.3029   29.4935 C   0  0  0  0  0  0  0  0  0  0  0  0
   10.8039  -15.7093   30.6749 O   0  0  0  0  0  0  0  0  0  0  0  0
    9.6534  -14.4983   28.9410 C   0  0  0  0  0  0  0  0  0  0  0  0
    9.7869  -14.1957   27.4817 C   0  0  0  0  0  0  0  0  0  0  0  0
    9.6099  -15.4063   26.6034 C   0  0  2  0  0  0  0  0  0  0  0  0
    9.5689  -14.9942   25.1968 N   0  0  0  0  0  0  0  0  0  0  0  0
    8.3268  -16.0537   26.9481 C   0  0  0  0  0  0  0  0  0  0  0  0
    7.2732  -15.6009   26.4378 O   0  0  0  0  0  0  0  0  0  0  0  0
    8.1880  -17.1340   27.7967 O   0  0  0  0  0  0  0  0  0  0  0  0
  2  1  1  6
  2  7  1  0
  3  2  1  0
  4  3  1  0
  5  4  1  0
  6  5  2  0
  7  8  2  0
  9  5  1  0
 10 11  1  0
 10  7  1  0
 11 12  1  1
 12 13  1  0
 14 15  2  0
 14 11  1  0
 16 17  1  0
 17 19  1  0
 18 17  2  0
 19 20  1  0
 21 20  1  1
 21 23  1  0
 21 22  1  0
 22 14  1  0
 23 25  1  0
 24 23  2  0
M  END
$$$$
