ECQ.pdb
     RDKit          3D

 25 24  0  0  1  0  0  0  0  0999 V2000
    8.1463  -13.6162   20.1245 N   0  0  0  0  0  0  0  0  0  0  0  0
    7.3069  -13.9290   21.2111 C   0  0  1  0  0  0  0  0  0  0  0  0
    6.5666  -15.2163   21.0733 C   0  0  0  0  0  0  0  0  0  0  0  0
    7.4205  -16.4296   21.0550 C   0  0  0  0  0  0  0  0  0  0  0  0
    6.7217  -17.6852   20.8653 C   0  0  0  0  0  0  0  0  0  0  0  0
    6.0366  -18.2970   21.6901 O   0  0  0  0  0  0  0  0  0  0  0  0
    8.0150  -14.0034   22.5259 C   0  0  0  0  0  0  0  0  0  0  0  0
    9.2280  -14.4040   22.5765 O   0  0  0  0  0  0  0  0  0  0  0  0
    6.8253  -18.2926   19.5983 O   0  0  0  0  0  0  0  0  0  0  0  0
    7.4559  -13.6600   23.7716 N   0  0  0  0  0  0  0  0  0  0  0  0
    8.1922  -13.7011   25.0039 C   0  0  1  0  0  0  0  0  0  0  0  0
    7.5384  -12.9818   26.1398 C   0  0  0  0  0  0  0  0  0  0  0  0
    5.7639  -12.7440   25.8978 S   0  0  0  0  0  0  0  0  0  0  0  0
    8.4072  -15.1080   25.4134 C   0  0  0  0  0  0  0  0  0  0  0  0
    7.5816  -16.0109   25.0880 O   0  0  0  0  0  0  0  0  0  0  0  0
   12.5652  -18.8697   23.8283 N   0  0  0  0  0  0  0  0  0  0  0  0
   12.4438  -19.3543   25.1674 C   0  0  0  0  0  0  0  0  0  0  0  0
   13.2777  -20.1766   25.6037 O   0  0  0  0  0  0  0  0  0  0  0  0
   11.3095  -18.8399   25.9729 C   0  0  0  0  0  0  0  0  0  0  0  0
   10.9360  -17.4248   25.6614 C   0  0  0  0  0  0  0  0  0  0  0  0
    9.7505  -16.9340   26.4497 C   0  0  2  0  0  0  0  0  0  0  0  0
    9.5340  -15.5090   26.1805 N   0  0  0  0  0  0  0  0  0  0  0  0
   10.0376  -17.1090   27.8889 C   0  0  0  0  0  0  0  0  0  0  0  0
   10.3734  -16.1013   28.5578 O   0  0  0  0  0  0  0  0  0  0  0  0
    9.9644  -18.3073   28.5708 O   0  0  0  0  0  0  0  0  0  0  0  0
  2  1  1  6
  2  7  1  0
  3  2  1  0
  4  3  1  0
  5  4  1  0
  6  5  2  0
  7  8  2  0
  9  5  1  0
 10 11  1  0
 10  7  1  0
 11 12  1  1
 12 13  1  0
 14 15  2  0
 14 11  1  0
 16 17  1  0
 17 19  1  0
 18 17  2  0
 19 20  1  0
 21 20  1  6
 21 23  1  0
 21 22  1  0
 22 14  1  0
 23 25  1  0
 24 23  2  0
M  END
$$$$
