ECQ.pdb
     RDKit          3D

 25 24  0  0  1  0  0  0  0  0999 V2000
    7.9233  -12.7890   19.7588 N   0  0  0  0  0  0  0  0  0  0  0  0
    7.1226  -13.5449   20.6365 C   0  0  1  0  0  0  0  0  0  0  0  0
    6.9130  -14.9619   20.2211 C   0  0  0  0  0  0  0  0  0  0  0  0
    7.9803  -15.5244   19.3574 C   0  0  0  0  0  0  0  0  0  0  0  0
    7.7266  -16.8507   18.8306 C   0  0  0  0  0  0  0  0  0  0  0  0
    8.4363  -17.5021   18.0587 O   0  0  0  0  0  0  0  0  0  0  0  0
    7.6414  -13.6023   22.0376 C   0  0  0  0  0  0  0  0  0  0  0  0
    8.8994  -13.6859   22.2501 O   0  0  0  0  0  0  0  0  0  0  0  0
    6.5360  -17.4857   19.2361 O   0  0  0  0  0  0  0  0  0  0  0  0
    6.8487  -13.5708   23.2007 N   0  0  0  0  0  0  0  0  0  0  0  0
    7.3955  -13.6058   24.5281 C   0  0  1  0  0  0  0  0  0  0  0  0
    6.4453  -13.1786   25.6004 C   0  0  0  0  0  0  0  0  0  0  0  0
    7.2046  -12.0870   26.8234 S   0  0  0  0  0  0  0  0  0  0  0  0
    7.8592  -14.9764   24.8440 C   0  0  0  0  0  0  0  0  0  0  0  0
    7.0769  -15.9660   24.7364 O   0  0  0  0  0  0  0  0  0  0  0  0
   11.9476  -18.3851   22.9537 N   0  0  0  0  0  0  0  0  0  0  0  0
   12.0088  -19.0129   24.2362 C   0  0  0  0  0  0  0  0  0  0  0  0
   12.4890  -20.1622   24.3381 O   0  0  0  0  0  0  0  0  0  0  0  0
   11.4856  -18.2438   25.3916 C   0  0  0  0  0  0  0  0  0  0  0  0
   10.9563  -16.8914   25.0313 C   0  0  0  0  0  0  0  0  0  0  0  0
    9.5779  -16.6261   25.5769 C   0  0  2  0  0  0  0  0  0  0  0  0
    9.1854  -15.2455   25.2771 N   0  0  0  0  0  0  0  0  0  0  0  0
    9.6103  -16.8048   27.0436 C   0  0  0  0  0  0  0  0  0  0  0  0
    9.5838  -15.7819   27.7706 O   0  0  0  0  0  0  0  0  0  0  0  0
    9.6661  -18.0227   27.6917 O   0  0  0  0  0  0  0  0  0  0  0  0
  2  1  1  6
  2  7  1  0
  3  2  1  0
  4  3  1  0
  5  4  1  0
  6  5  2  0
  7  8  2  0
  9  5  1  0
 10 11  1  0
 10  7  1  0
 11 12  1  1
 12 13  1  0
 14 15  2  0
 14 11  1  0
 16 17  1  0
 17 19  1  0
 18 17  2  0
 19 20  1  0
 21 20  1  1
 21 23  1  0
 21 22  1  0
 22 14  1  0
 23 25  1  0
 24 23  2  0
M  END
$$$$
