ECQ.pdb
     RDKit          3D

 25 24  0  0  1  0  0  0  0  0999 V2000
   11.5515  -14.7471   18.1458 N   0  0  0  0  0  0  0  0  0  0  0  0
   12.0166  -15.2595   19.3722 C   0  0  1  0  0  0  0  0  0  0  0  0
   13.3955  -14.8281   19.7424 C   0  0  0  0  0  0  0  0  0  0  0  0
   14.2066  -14.2963   18.6196 C   0  0  0  0  0  0  0  0  0  0  0  0
   15.3352  -15.1129   18.2196 C   0  0  0  0  0  0  0  0  0  0  0  0
   15.5043  -15.6853   17.1390 O   0  0  0  0  0  0  0  0  0  0  0  0
   11.1525  -14.9154   20.5429 C   0  0  0  0  0  0  0  0  0  0  0  0
   11.4810  -13.9537   21.3186 O   0  0  0  0  0  0  0  0  0  0  0  0
   16.3693  -15.2845   19.1610 O   0  0  0  0  0  0  0  0  0  0  0  0
    9.9579  -15.5727   20.8934 N   0  0  0  0  0  0  0  0  0  0  0  0
    9.1565  -15.2002   22.0253 C   0  0  1  0  0  0  0  0  0  0  0  0
    7.7082  -15.5494   21.9000 C   0  0  0  0  0  0  0  0  0  0  0  0
    6.7281  -15.0193   23.3222 S   0  0  0  0  0  0  0  0  0  0  0  0
    9.6820  -15.8498   23.2480 C   0  0  0  0  0  0  0  0  0  0  0  0
   10.2216  -16.9938   23.1930 O   0  0  0  0  0  0  0  0  0  0  0  0
    9.7131  -13.6068   29.2256 N   0  0  0  0  0  0  0  0  0  0  0  0
   10.3646  -14.8694   29.3810 C   0  0  0  0  0  0  0  0  0  0  0  0
   10.7459  -15.2313   30.5148 O   0  0  0  0  0  0  0  0  0  0  0  0
   10.5523  -15.6889   28.1590 C   0  0  0  0  0  0  0  0  0  0  0  0
   10.0075  -15.0590   26.9159 C   0  0  0  0  0  0  0  0  0  0  0  0
   10.1564  -15.9263   25.6937 C   0  0  2  0  0  0  0  0  0  0  0  0
    9.6080  -15.2311   24.5250 N   0  0  0  0  0  0  0  0  0  0  0  0
    9.3941  -17.1744   25.9071 C   0  0  0  0  0  0  0  0  0  0  0  0
    8.1701  -17.1816   25.6292 O   0  0  0  0  0  0  0  0  0  0  0  0
    9.9247  -18.3530   26.3927 O   0  0  0  0  0  0  0  0  0  0  0  0
  2  1  1  6
  2  7  1  0
  3  2  1  0
  4  3  1  0
  5  4  1  0
  6  5  2  0
  7  8  2  0
  9  5  1  0
 10 11  1  0
 10  7  1  0
 11 12  1  6
 12 13  1  0
 14 15  2  0
 14 11  1  0
 16 17  1  0
 17 19  1  0
 18 17  2  0
 19 20  1  0
 21 20  1  1
 21 23  1  0
 21 22  1  0
 22 14  1  0
 23 25  1  0
 24 23  2  0
M  END
$$$$
