ECQ.pdb
     RDKit          3D

 25 24  0  0  1  0  0  0  0  0999 V2000
    9.8082  -17.3505   18.4253 N   0  0  0  0  0  0  0  0  0  0  0  0
   10.0791  -17.8339   19.7198 C   0  0  1  0  0  0  0  0  0  0  0  0
   11.3127  -18.6652   19.8267 C   0  0  0  0  0  0  0  0  0  0  0  0
   11.9154  -19.0589   18.5293 C   0  0  0  0  0  0  0  0  0  0  0  0
   13.1447  -19.8221   18.6150 C   0  0  0  0  0  0  0  0  0  0  0  0
   13.2642  -21.0428   18.7545 O   0  0  0  0  0  0  0  0  0  0  0  0
   10.2174  -16.7624   20.7535 C   0  0  0  0  0  0  0  0  0  0  0  0
   11.2954  -16.6669   21.4342 O   0  0  0  0  0  0  0  0  0  0  0  0
   14.3537  -19.1036   18.5312 O   0  0  0  0  0  0  0  0  0  0  0  0
    9.2361  -15.8028   21.0669 N   0  0  0  0  0  0  0  0  0  0  0  0
    9.1543  -15.1469   22.3418 C   0  0  1  0  0  0  0  0  0  0  0  0
    8.0560  -14.1383   22.4496 C   0  0  0  0  0  0  0  0  0  0  0  0
    6.4231  -14.8328   22.1104 S   0  0  0  0  0  0  0  0  0  0  0  0
    8.9620  -16.1522   23.4121 C   0  0  0  0  0  0  0  0  0  0  0  0
    8.6006  -17.3334   23.1343 O   0  0  0  0  0  0  0  0  0  0  0  0
   12.2478  -19.6492   24.0620 N   0  0  0  0  0  0  0  0  0  0  0  0
   11.9691  -19.3311   25.4272 C   0  0  0  0  0  0  0  0  0  0  0  0
   11.5895  -20.2322   26.2055 O   0  0  0  0  0  0  0  0  0  0  0  0
   12.1511  -17.9192   25.8437 C   0  0  0  0  0  0  0  0  0  0  0  0
   11.3184  -16.9457   25.0704 C   0  0  0  0  0  0  0  0  0  0  0  0
    9.9270  -16.7812   25.6225 C   0  0  2  0  0  0  0  0  0  0  0  0
    9.1702  -15.8463   24.7840 N   0  0  0  0  0  0  0  0  0  0  0  0
   10.0256  -16.2243   26.9880 C   0  0  0  0  0  0  0  0  0  0  0  0
   10.5036  -16.9482   27.8952 O   0  0  0  0  0  0  0  0  0  0  0  0
    9.6314  -14.9529   27.3548 O   0  0  0  0  0  0  0  0  0  0  0  0
  2  1  1  6
  2  7  1  0
  3  2  1  0
  4  3  1  0
  5  4  1  0
  6  5  2  0
  7  8  2  0
  9  5  1  0
 10 11  1  0
 10  7  1  0
 11 12  1  6
 12 13  1  0
 14 15  2  0
 14 11  1  0
 16 17  1  0
 17 19  1  0
 18 17  2  0
 19 20  1  0
 21 20  1  6
 21 23  1  0
 21 22  1  0
 22 14  1  0
 23 25  1  0
 24 23  2  0
M  END
$$$$
