ECQ.pdb
     RDKit          3D

 25 24  0  0  1  0  0  0  0  0999 V2000
    7.9093  -13.3226   20.1982 N   0  0  0  0  0  0  0  0  0  0  0  0
    7.1985  -13.8556   21.2907 C   0  0  1  0  0  0  0  0  0  0  0  0
    6.9537  -15.3249   21.2149 C   0  0  0  0  0  0  0  0  0  0  0  0
    8.1718  -16.1671   21.3059 C   0  0  0  0  0  0  0  0  0  0  0  0
    7.9455  -17.5987   21.3080 C   0  0  0  0  0  0  0  0  0  0  0  0
    6.8713  -18.1908   21.1688 O   0  0  0  0  0  0  0  0  0  0  0  0
    7.8497  -13.6176   22.6155 C   0  0  0  0  0  0  0  0  0  0  0  0
    9.1244  -13.6331   22.7127 O   0  0  0  0  0  0  0  0  0  0  0  0
    9.0712  -18.4265   21.4884 O   0  0  0  0  0  0  0  0  0  0  0  0
    7.1702  -13.3653   23.8224 N   0  0  0  0  0  0  0  0  0  0  0  0
    7.8385  -13.0190   25.0454 C   0  0  1  0  0  0  0  0  0  0  0  0
    7.0070  -12.2265   26.0022 C   0  0  0  0  0  0  0  0  0  0  0  0
    5.5888  -13.1482   26.6371 S   0  0  0  0  0  0  0  0  0  0  0  0
    8.2889  -14.2487   25.7369 C   0  0  0  0  0  0  0  0  0  0  0  0
    7.6550  -15.3365   25.6030 O   0  0  0  0  0  0  0  0  0  0  0  0
   11.6689  -17.9828   24.6332 N   0  0  0  0  0  0  0  0  0  0  0  0
   11.8875  -18.3560   25.9954 C   0  0  0  0  0  0  0  0  0  0  0  0
   12.2927  -19.5078   26.2620 O   0  0  0  0  0  0  0  0  0  0  0  0
   11.6125  -17.3300   27.0306 C   0  0  0  0  0  0  0  0  0  0  0  0
   11.1063  -16.0335   26.4811 C   0  0  0  0  0  0  0  0  0  0  0  0
    9.8661  -15.5355   27.1754 C   0  0  2  0  0  0  0  0  0  0  0  0
    9.4376  -14.2692   26.5729 N   0  0  0  0  0  0  0  0  0  0  0  0
   10.1860  -15.3019   28.5992 C   0  0  0  0  0  0  0  0  0  0  0  0
   10.3042  -14.1177   28.9983 O   0  0  0  0  0  0  0  0  0  0  0  0
   10.3667  -16.2933   29.5431 O   0  0  0  0  0  0  0  0  0  0  0  0
  2  1  1  6
  2  7  1  0
  3  2  1  0
  4  3  1  0
  5  4  1  0
  6  5  2  0
  7  8  2  0
  9  5  1  0
 10 11  1  0
 10  7  1  0
 11 12  1  1
 12 13  1  0
 14 15  2  0
 14 11  1  0
 16 17  1  0
 17 19  1  0
 18 17  2  0
 19 20  1  0
 21 20  1  6
 21 23  1  0
 21 22  1  0
 22 14  1  0
 23 25  1  0
 24 23  2  0
M  END
$$$$
