ECQ.pdb
     RDKit          3D

 25 24  0  0  1  0  0  0  0  0999 V2000
    7.3208  -18.6457   17.9695 N   0  0  0  0  0  0  0  0  0  0  0  0
    8.7113  -18.5100   18.1455 C   0  0  1  0  0  0  0  0  0  0  0  0
    9.4680  -18.2022   16.8976 C   0  0  0  0  0  0  0  0  0  0  0  0
    8.6542  -17.6249   15.7995 C   0  0  0  0  0  0  0  0  0  0  0  0
    9.3828  -17.2751   14.5963 C   0  0  0  0  0  0  0  0  0  0  0  0
    9.7332  -16.1497   14.2294 O   0  0  0  0  0  0  0  0  0  0  0  0
    9.1003  -17.4543   19.1303 C   0  0  0  0  0  0  0  0  0  0  0  0
   10.3352  -17.2406   19.3833 O   0  0  0  0  0  0  0  0  0  0  0  0
    9.7414  -18.3295   13.7333 O   0  0  0  0  0  0  0  0  0  0  0  0
    8.2032  -16.6328   19.8392 N   0  0  0  0  0  0  0  0  0  0  0  0
    8.6220  -15.6746   20.8234 C   0  0  1  0  0  0  0  0  0  0  0  0
    7.6148  -14.6099   21.1185 C   0  0  0  0  0  0  0  0  0  0  0  0
    7.3907  -13.4508   19.7510 S   0  0  0  0  0  0  0  0  0  0  0  0
    8.9446  -16.3667   22.0923 C   0  0  0  0  0  0  0  0  0  0  0  0
    8.3023  -17.3975   22.4496 O   0  0  0  0  0  0  0  0  0  0  0  0
   13.1579  -18.8244   21.8112 N   0  0  0  0  0  0  0  0  0  0  0  0
   13.6824  -17.6864   22.4985 C   0  0  0  0  0  0  0  0  0  0  0  0
   14.8390  -17.2891   22.2409 O   0  0  0  0  0  0  0  0  0  0  0  0
   12.8014  -17.0342   23.4978 C   0  0  0  0  0  0  0  0  0  0  0  0
   11.4706  -17.6988   23.6597 C   0  0  0  0  0  0  0  0  0  0  0  0
   10.3810  -16.7535   24.0923 C   0  0  2  0  0  0  0  0  0  0  0  0
    9.9758  -15.9153   22.9595 N   0  0  0  0  0  0  0  0  0  0  0  0
   10.9108  -15.8837   25.1633 C   0  0  0  0  0  0  0  0  0  0  0  0
   11.2289  -16.4100   26.2576 O   0  0  0  0  0  0  0  0  0  0  0  0
   11.0900  -14.5187   25.0586 O   0  0  0  0  0  0  0  0  0  0  0  0
  2  1  1  6
  2  7  1  0
  3  2  1  0
  4  3  1  0
  5  4  1  0
  6  5  2  0
  7  8  2  0
  9  5  1  0
 10 11  1  0
 10  7  1  0
 11 12  1  1
 12 13  1  0
 14 15  2  0
 14 11  1  0
 16 17  1  0
 17 19  1  0
 18 17  2  0
 19 20  1  0
 21 20  1  6
 21 23  1  0
 21 22  1  0
 22 14  1  0
 23 25  1  0
 24 23  2  0
M  END
$$$$
