ECQ.pdb
     RDKit          3D

 25 24  0  0  1  0  0  0  0  0999 V2000
    8.7891  -17.7035   21.7898 N   0  0  0  0  0  0  0  0  0  0  0  0
   10.0656  -17.7048   22.3843 C   0  0  1  0  0  0  0  0  0  0  0  0
   11.1958  -17.5204   21.4288 C   0  0  0  0  0  0  0  0  0  0  0  0
   11.0139  -18.1780   20.1112 C   0  0  0  0  0  0  0  0  0  0  0  0
   12.0586  -17.9305   19.1375 C   0  0  0  0  0  0  0  0  0  0  0  0
   12.1009  -18.3150   17.9652 O   0  0  0  0  0  0  0  0  0  0  0  0
   10.2474  -16.6603   23.4387 C   0  0  0  0  0  0  0  0  0  0  0  0
   11.4093  -16.4366   23.9227 O   0  0  0  0  0  0  0  0  0  0  0  0
   13.1621  -17.1635   19.5606 O   0  0  0  0  0  0  0  0  0  0  0  0
    9.2214  -15.8603   23.9768 N   0  0  0  0  0  0  0  0  0  0  0  0
    9.4066  -14.9988   25.1107 C   0  0  1  0  0  0  0  0  0  0  0  0
    8.3479  -13.9561   25.2753 C   0  0  0  0  0  0  0  0  0  0  0  0
    8.5602  -12.9634   26.7698 S   0  0  0  0  0  0  0  0  0  0  0  0
    9.4543  -15.8056   26.3516 C   0  0  0  0  0  0  0  0  0  0  0  0
    8.4706  -16.5250   26.6949 O   0  0  0  0  0  0  0  0  0  0  0  0
   14.3092  -18.6503   28.6169 N   0  0  0  0  0  0  0  0  0  0  0  0
   13.5266  -18.8946   27.4463 C   0  0  0  0  0  0  0  0  0  0  0  0
   13.9748  -19.6403   26.5491 O   0  0  0  0  0  0  0  0  0  0  0  0
   12.2019  -18.2319   27.3676 C   0  0  0  0  0  0  0  0  0  0  0  0
   11.8821  -17.3717   28.5495 C   0  0  0  0  0  0  0  0  0  0  0  0
   10.5726  -16.6399   28.4171 C   0  0  2  0  0  0  0  0  0  0  0  0
   10.5892  -15.8127   27.2064 N   0  0  0  0  0  0  0  0  0  0  0  0
   10.4043  -15.7605   29.5929 C   0  0  0  0  0  0  0  0  0  0  0  0
   10.4204  -14.5178   29.4166 O   0  0  0  0  0  0  0  0  0  0  0  0
   10.2260  -16.1986   30.8901 O   0  0  0  0  0  0  0  0  0  0  0  0
  2  1  1  6
  2  7  1  0
  3  2  1  0
  4  3  1  0
  5  4  1  0
  6  5  2  0
  7  8  2  0
  9  5  1  0
 10 11  1  0
 10  7  1  0
 11 12  1  1
 12 13  1  0
 14 15  2  0
 14 11  1  0
 16 17  1  0
 17 19  1  0
 18 17  2  0
 19 20  1  0
 21 20  1  1
 21 23  1  0
 21 22  1  0
 22 14  1  0
 23 25  1  0
 24 23  2  0
M  END
$$$$
