ECQ.pdb
     RDKit          3D

 25 24  0  0  1  0  0  0  0  0999 V2000
   -3.5455  -23.7146   21.9073 N   0  0  0  0  0  0  0  0  0  0  0  0
   -2.6543  -23.9171   22.9787 C   0  0  1  0  0  0  0  0  0  0  0  0
   -1.2440  -23.5224   22.6963 C   0  0  0  0  0  0  0  0  0  0  0  0
   -0.8513  -23.5862   21.2669 C   0  0  0  0  0  0  0  0  0  0  0  0
    0.5397  -23.2922   20.9852 C   0  0  0  0  0  0  0  0  0  0  0  0
    0.9946  -22.6409   20.0403 O   0  0  0  0  0  0  0  0  0  0  0  0
   -3.0365  -23.1983   24.2329 C   0  0  0  0  0  0  0  0  0  0  0  0
   -2.3165  -23.3181   25.2825 O   0  0  0  0  0  0  0  0  0  0  0  0
    1.4983  -23.8008   21.8838 O   0  0  0  0  0  0  0  0  0  0  0  0
   -4.1604  -22.3635   24.3818 N   0  0  0  0  0  0  0  0  0  0  0  0
   -4.4906  -21.6987   25.6111 C   0  0  1  0  0  0  0  0  0  0  0  0
   -4.9753  -20.2943   25.4445 C   0  0  0  0  0  0  0  0  0  0  0  0
   -5.2786  -19.8515   23.7194 S   0  0  0  0  0  0  0  0  0  0  0  0
   -5.5353  -22.4633   26.3304 C   0  0  0  0  0  0  0  0  0  0  0  0
   -6.4594  -23.0521   25.6962 O   0  0  0  0  0  0  0  0  0  0  0  0
   -4.9942  -26.6469   30.5499 N   0  0  0  0  0  0  0  0  0  0  0  0
   -6.4010  -26.4354   30.6873 C   0  0  0  0  0  0  0  0  0  0  0  0
   -7.0719  -27.2004   31.4130 O   0  0  0  0  0  0  0  0  0  0  0  0
   -6.9899  -25.2960   29.9423 C   0  0  0  0  0  0  0  0  0  0  0  0
   -5.9885  -24.4860   29.1807 C   0  0  0  0  0  0  0  0  0  0  0  0
   -6.6066  -23.3599   28.3946 C   0  0  2  0  0  0  0  0  0  0  0  0
   -5.5525  -22.5729   27.7469 N   0  0  0  0  0  0  0  0  0  0  0  0
   -7.3484  -22.4865   29.3280 C   0  0  0  0  0  0  0  0  0  0  0  0
   -8.5089  -22.8236   29.6670 O   0  0  0  0  0  0  0  0  0  0  0  0
   -6.8628  -21.3125   29.8688 O   0  0  0  0  0  0  0  0  0  0  0  0
  2  1  1  6
  2  7  1  0
  3  2  1  0
  4  3  1  0
  5  4  1  0
  6  5  2  0
  7  8  2  0
  9  5  1  0
 10 11  1  0
 10  7  1  0
 11 12  1  6
 12 13  1  0
 14 15  2  0
 14 11  1  0
 16 17  1  0
 17 19  1  0
 18 17  2  0
 19 20  1  0
 21 20  1  1
 21 23  1  0
 21 22  1  0
 22 14  1  0
 23 25  1  0
 24 23  2  0
M  END
$$$$
