ECQ.pdb
     RDKit          3D

 25 24  0  0  1  0  0  0  0  0999 V2000
    8.1682  -13.9248   20.3676 N   0  0  0  0  0  0  0  0  0  0  0  0
    7.2569  -14.2445   21.3924 C   0  0  1  0  0  0  0  0  0  0  0  0
    6.6402  -15.5974   21.2751 C   0  0  0  0  0  0  0  0  0  0  0  0
    7.6066  -16.7214   21.2114 C   0  0  0  0  0  0  0  0  0  0  0  0
    7.0282  -18.0348   21.0083 C   0  0  0  0  0  0  0  0  0  0  0  0
    5.8373  -18.3151   20.8431 O   0  0  0  0  0  0  0  0  0  0  0  0
    7.8396  -14.1787   22.7678 C   0  0  0  0  0  0  0  0  0  0  0  0
    9.0771  -14.4426   22.9507 O   0  0  0  0  0  0  0  0  0  0  0  0
    7.9131  -19.1311   20.9950 O   0  0  0  0  0  0  0  0  0  0  0  0
    7.1311  -13.8388   23.9361 N   0  0  0  0  0  0  0  0  0  0  0  0
    7.7306  -13.8097   25.2407 C   0  0  1  0  0  0  0  0  0  0  0  0
    6.8539  -13.2457   26.3123 C   0  0  0  0  0  0  0  0  0  0  0  0
    6.8951  -11.4408   26.3817 S   0  0  0  0  0  0  0  0  0  0  0  0
    8.1248  -15.1795   25.6426 C   0  0  0  0  0  0  0  0  0  0  0  0
    7.3268  -16.1518   25.4987 O   0  0  0  0  0  0  0  0  0  0  0  0
   12.9036  -18.3981   24.2317 N   0  0  0  0  0  0  0  0  0  0  0  0
   12.4043  -19.2570   25.2591 C   0  0  0  0  0  0  0  0  0  0  0  0
   12.9183  -20.3841   25.4248 O   0  0  0  0  0  0  0  0  0  0  0  0
   11.2812  -18.7456   26.0821 C   0  0  0  0  0  0  0  0  0  0  0  0
   10.8576  -17.3535   25.7332 C   0  0  0  0  0  0  0  0  0  0  0  0
    9.7228  -16.8453   26.5829 C   0  0  2  0  0  0  0  0  0  0  0  0
    9.3991  -15.4669   26.2015 N   0  0  0  0  0  0  0  0  0  0  0  0
   10.1511  -16.8604   27.9974 C   0  0  0  0  0  0  0  0  0  0  0  0
   10.3945  -15.7648   28.5595 O   0  0  0  0  0  0  0  0  0  0  0  0
   10.3065  -17.9973   28.7654 O   0  0  0  0  0  0  0  0  0  0  0  0
  2  1  1  6
  2  7  1  0
  3  2  1  0
  4  3  1  0
  5  4  1  0
  6  5  2  0
  7  8  2  0
  9  5  1  0
 10 11  1  0
 10  7  1  0
 11 12  1  1
 12 13  1  0
 14 15  2  0
 14 11  1  0
 16 17  1  0
 17 19  1  0
 18 17  2  0
 19 20  1  0
 21 20  1  6
 21 23  1  0
 21 22  1  0
 22 14  1  0
 23 25  1  0
 24 23  2  0
M  END
$$$$
