ECQ.pdb
     RDKit          3D

 25 24  0  0  1  0  0  0  0  0999 V2000
   10.5607  -15.9030   18.7907 N   0  0  0  0  0  0  0  0  0  0  0  0
    9.7315  -16.5254   19.7435 C   0  0  1  0  0  0  0  0  0  0  0  0
   10.1545  -17.9025   20.1297 C   0  0  0  0  0  0  0  0  0  0  0  0
   11.6202  -18.1330   20.1165 C   0  0  0  0  0  0  0  0  0  0  0  0
   12.0450  -19.4849   20.4210 C   0  0  0  0  0  0  0  0  0  0  0  0
   13.0060  -19.8337   21.1129 O   0  0  0  0  0  0  0  0  0  0  0  0
    9.5977  -15.7649   21.0239 C   0  0  0  0  0  0  0  0  0  0  0  0
   10.4898  -14.9116   21.3563 O   0  0  0  0  0  0  0  0  0  0  0  0
   11.2843  -20.5360   19.8719 O   0  0  0  0  0  0  0  0  0  0  0  0
    8.5393  -15.8985   21.9427 N   0  0  0  0  0  0  0  0  0  0  0  0
    8.4089  -15.0840   23.1182 C   0  0  1  0  0  0  0  0  0  0  0  0
    7.0951  -14.3814   23.2418 C   0  0  0  0  0  0  0  0  0  0  0  0
    6.9289  -13.4607   24.7874 S   0  0  0  0  0  0  0  0  0  0  0  0
    8.6015  -15.9152   24.3287 C   0  0  0  0  0  0  0  0  0  0  0  0
    8.0602  -17.0557   24.4244 O   0  0  0  0  0  0  0  0  0  0  0  0
   10.9590  -14.1190   29.9469 N   0  0  0  0  0  0  0  0  0  0  0  0
   10.6131  -15.4822   30.2010 C   0  0  0  0  0  0  0  0  0  0  0  0
   10.7634  -15.9531   31.3489 O   0  0  0  0  0  0  0  0  0  0  0  0
   10.0863  -16.2705   29.0603 C   0  0  0  0  0  0  0  0  0  0  0  0
    9.9679  -15.4924   27.7877 C   0  0  0  0  0  0  0  0  0  0  0  0
    9.4744  -16.3174   26.6285 C   0  0  2  0  0  0  0  0  0  0  0  0
    9.3916  -15.4810   25.4269 N   0  0  0  0  0  0  0  0  0  0  0  0
    8.1235  -16.8222   26.9519 C   0  0  0  0  0  0  0  0  0  0  0  0
    7.1321  -16.1205   26.6355 O   0  0  0  0  0  0  0  0  0  0  0  0
    7.8564  -18.0217   27.5815 O   0  0  0  0  0  0  0  0  0  0  0  0
  2  1  1  6
  2  7  1  0
  3  2  1  0
  4  3  1  0
  5  4  1  0
  6  5  2  0
  7  8  2  0
  9  5  1  0
 10 11  1  0
 10  7  1  0
 11 12  1  1
 12 13  1  0
 14 15  2  0
 14 11  1  0
 16 17  1  0
 17 19  1  0
 18 17  2  0
 19 20  1  0
 21 20  1  1
 21 23  1  0
 21 22  1  0
 22 14  1  0
 23 25  1  0
 24 23  2  0
M  END
$$$$
