ECQ.pdb
     RDKit          3D

 25 24  0  0  1  0  0  0  0  0999 V2000
    7.8546  -17.4049   15.8523 N   0  0  0  0  0  0  0  0  0  0  0  0
    9.2052  -17.0171   15.7600 C   0  0  1  0  0  0  0  0  0  0  0  0
    9.6021  -16.4602   14.4346 C   0  0  0  0  0  0  0  0  0  0  0  0
    8.4848  -16.2677   13.4776 C   0  0  0  0  0  0  0  0  0  0  0  0
    8.8556  -15.7431   12.1783 C   0  0  0  0  0  0  0  0  0  0  0  0
    8.4609  -14.7010   11.6470 O   0  0  0  0  0  0  0  0  0  0  0  0
    9.6161  -15.9960   16.7720 C   0  0  0  0  0  0  0  0  0  0  0  0
   10.8321  -15.6051   16.8278 O   0  0  0  0  0  0  0  0  0  0  0  0
    9.7723  -16.4971   11.4192 O   0  0  0  0  0  0  0  0  0  0  0  0
    8.7599  -15.3923   17.7125 N   0  0  0  0  0  0  0  0  0  0  0  0
    9.2193  -14.4907   18.7315 C   0  0  1  0  0  0  0  0  0  0  0  0
    8.1297  -13.7613   19.4497 C   0  0  0  0  0  0  0  0  0  0  0  0
    7.1413  -12.7147   18.3581 S   0  0  0  0  0  0  0  0  0  0  0  0
   10.0159  -15.2322   19.7359 C   0  0  0  0  0  0  0  0  0  0  0  0
    9.7934  -16.4577   19.9629 O   0  0  0  0  0  0  0  0  0  0  0  0
   16.7202  -14.9085   21.4370 N   0  0  0  0  0  0  0  0  0  0  0  0
   15.5333  -14.3706   20.8499 C   0  0  0  0  0  0  0  0  0  0  0  0
   15.5457  -13.2100   20.3864 O   0  0  0  0  0  0  0  0  0  0  0  0
   14.3340  -15.2430   20.8281 C   0  0  0  0  0  0  0  0  0  0  0  0
   13.1894  -14.7223   21.6393 C   0  0  0  0  0  0  0  0  0  0  0  0
   11.8915  -15.4351   21.3649 C   0  0  2  0  0  0  0  0  0  0  0  0
   11.0542  -14.6148   20.4840 N   0  0  0  0  0  0  0  0  0  0  0  0
   11.1835  -15.6330   22.6471 C   0  0  0  0  0  0  0  0  0  0  0  0
   10.1429  -14.9654   22.8640 O   0  0  0  0  0  0  0  0  0  0  0  0
   11.5762  -16.5065   23.6416 O   0  0  0  0  0  0  0  0  0  0  0  0
  2  1  1  6
  2  7  1  0
  3  2  1  0
  4  3  1  0
  5  4  1  0
  6  5  2  0
  7  8  2  0
  9  5  1  0
 10 11  1  0
 10  7  1  0
 11 12  1  1
 12 13  1  0
 14 15  2  0
 14 11  1  0
 16 17  1  0
 17 19  1  0
 18 17  2  0
 19 20  1  0
 21 20  1  1
 21 23  1  0
 21 22  1  0
 22 14  1  0
 23 25  1  0
 24 23  2  0
M  END
$$$$
