CPE.pdb
     RDKit          3D

 23 23  0  0  1  0  0  0  0  0999 V2000
   21.4013  -16.1190  -16.4255 N   0  0  0  0  0  0  0  0  0  0  0  0
   22.2407  -15.0621  -16.8480 C   0  0  1  0  0  0  0  0  0  0  0  0
   22.0141  -14.6809  -18.3110 C   0  0  0  0  0  0  0  0  0  0  0  0
   22.4735  -16.0381  -19.4293 S   0  0  0  0  0  0  0  0  0  0  0  0
   22.3192  -13.8912  -15.9819 C   0  0  0  0  0  0  0  0  0  0  0  0
   21.1830  -13.2991  -15.8181 O   0  0  0  0  0  0  0  0  0  0  0  0
   23.4829  -13.3800  -15.3414 N   0  0  0  0  0  0  0  0  0  0  0  0
   24.7245  -14.0799  -15.0747 C   0  0  0  0  0  0  0  0  0  0  0  0
   25.7283  -13.0446  -15.6158 C   0  0  0  0  0  0  0  0  0  0  0  0
   25.1656  -11.7928  -14.9780 C   0  0  0  0  0  0  0  0  0  0  0  0
   23.6759  -12.0506  -14.8057 C   0  0  1  0  0  0  0  0  0  0  0  0
   22.9943  -10.9554  -15.4977 C   0  0  0  0  0  0  0  0  0  0  0  0
   22.6880  -10.9956  -16.6906 O   0  0  0  0  0  0  0  0  0  0  0  0
   22.6534   -9.7695  -14.7885 N   0  0  0  0  0  0  0  0  0  0  0  0
   21.6542   -8.8238  -15.3072 C   0  0  1  0  0  0  0  0  0  0  0  0
   20.3004   -9.4784  -15.3999 C   0  0  0  0  0  0  0  0  0  0  0  0
   19.2234   -8.5014  -15.8278 C   0  0  0  0  0  0  0  0  0  0  0  0
   17.8968   -9.1561  -15.9036 C   0  0  0  0  0  0  0  0  0  0  0  0
   16.9358   -8.6114  -15.2965 O   0  0  0  0  0  0  0  0  0  0  0  0
   21.5219   -7.6724  -14.3815 C   0  0  0  0  0  0  0  0  0  0  0  0
   21.5152   -7.8904  -13.0161 O   0  0  0  0  0  0  0  0  0  0  0  0
   17.6424  -10.3336  -16.6021 O   0  0  0  0  0  0  0  0  0  0  0  0
   21.4168   -6.5094  -14.8148 O   0  0  0  0  0  0  0  0  0  0  0  0
  2  3  1  0
  2  1  1  1
  3  4  1  0
  5  2  1  0
  5  6  2  0
  7  5  1  0
  8  7  1  0
  9 10  1  0
  9  8  1  0
 10 11  1  0
 11  7  1  0
 11 12  1  6
 12 14  1  0
 13 12  2  0
 14 15  1  0
 15 16  1  1
 16 17  1  0
 17 18  1  0
 18 22  1  0
 18 19  2  0
 20 15  1  0
 20 21  1  0
 23 20  2  0
M  END
$$$$
