CPE.pdb
     RDKit          3D

 23 23  0  0  1  0  0  0  0  0999 V2000
   20.2720  -20.9568  -11.5696 N   0  0  0  0  0  0  0  0  0  0  0  0
   21.2673  -21.5691  -12.3661 C   0  0  1  0  0  0  0  0  0  0  0  0
   20.6786  -22.3977  -13.5079 C   0  0  0  0  0  0  0  0  0  0  0  0
   19.6888  -23.7862  -12.8786 S   0  0  0  0  0  0  0  0  0  0  0  0
   22.3707  -20.7261  -12.8124 C   0  0  0  0  0  0  0  0  0  0  0  0
   21.9827  -19.6142  -13.3427 O   0  0  0  0  0  0  0  0  0  0  0  0
   23.7606  -21.0172  -12.7150 N   0  0  0  0  0  0  0  0  0  0  0  0
   24.4188  -21.8718  -11.7461 C   0  0  0  0  0  0  0  0  0  0  0  0
   25.2779  -22.7281  -12.6953 C   0  0  0  0  0  0  0  0  0  0  0  0
   25.8514  -21.6341  -13.5697 C   0  0  0  0  0  0  0  0  0  0  0  0
   24.8226  -20.5131  -13.5574 C   0  0  1  0  0  0  0  0  0  0  0  0
   24.4875  -20.2577  -14.9593 C   0  0  0  0  0  0  0  0  0  0  0  0
   23.9066  -21.0749  -15.6757 O   0  0  0  0  0  0  0  0  0  0  0  0
   24.8349  -19.0141  -15.5579 N   0  0  0  0  0  0  0  0  0  0  0  0
   24.3348  -18.6343  -16.8874 C   0  0  1  0  0  0  0  0  0  0  0  0
   23.4345  -17.4299  -16.7925 C   0  0  0  0  0  0  0  0  0  0  0  0
   22.9240  -16.9921  -18.1510 C   0  0  0  0  0  0  0  0  0  0  0  0
   22.0834  -15.7767  -18.0481 C   0  0  0  0  0  0  0  0  0  0  0  0
   21.6476  -15.2700  -19.1168 O   0  0  0  0  0  0  0  0  0  0  0  0
   25.4708  -18.2643  -17.7664 C   0  0  0  0  0  0  0  0  0  0  0  0
   25.5325  -18.7687  -19.0523 O   0  0  0  0  0  0  0  0  0  0  0  0
   21.7433  -15.1579  -16.8479 O   0  0  0  0  0  0  0  0  0  0  0  0
   26.3722  -17.5044  -17.3646 O   0  0  0  0  0  0  0  0  0  0  0  0
  2  3  1  0
  2  1  1  6
  3  4  1  0
  5  2  1  0
  5  6  2  0
  7  5  1  0
  8  7  1  0
  9 10  1  0
  9  8  1  0
 10 11  1  0
 11  7  1  0
 11 12  1  6
 12 14  1  0
 13 12  2  0
 14 15  1  0
 15 16  1  1
 16 17  1  0
 17 18  1  0
 18 22  1  0
 18 19  2  0
 20 15  1  0
 20 21  1  0
 23 20  2  0
M  END
$$$$
