CPE.pdb
     RDKit          3D

 23 23  0  0  1  0  0  0  0  0999 V2000
   20.3721  -21.2560  -14.3549 N   0  0  0  0  0  0  0  0  0  0  0  0
   19.9033  -20.7146  -13.1355 C   0  0  1  0  0  0  0  0  0  0  0  0
   18.4521  -20.2416  -13.2221 C   0  0  0  0  0  0  0  0  0  0  0  0
   18.2672  -18.5479  -12.5892 S   0  0  0  0  0  0  0  0  0  0  0  0
   20.1565  -21.4886  -11.9256 C   0  0  0  0  0  0  0  0  0  0  0  0
   19.5650  -22.6368  -11.9197 O   0  0  0  0  0  0  0  0  0  0  0  0
   20.9576  -21.0991  -10.8154 N   0  0  0  0  0  0  0  0  0  0  0  0
   21.9417  -20.0354  -10.7656 C   0  0  0  0  0  0  0  0  0  0  0  0
   21.4933  -19.3262   -9.4740 C   0  0  0  0  0  0  0  0  0  0  0  0
   21.3220  -20.5304   -8.5735 C   0  0  0  0  0  0  0  0  0  0  0  0
   20.9720  -21.6894   -9.4951 C   0  0  1  0  0  0  0  0  0  0  0  0
   19.7046  -22.2296   -9.0005 C   0  0  0  0  0  0  0  0  0  0  0  0
   18.6164  -21.6837   -9.1906 O   0  0  0  0  0  0  0  0  0  0  0  0
   19.6909  -23.4442   -8.2588 N   0  0  0  0  0  0  0  0  0  0  0  0
   18.4321  -24.0560   -7.8084 C   0  0  1  0  0  0  0  0  0  0  0  0
   18.2176  -25.3872   -8.4808 C   0  0  0  0  0  0  0  0  0  0  0  0
   16.9171  -26.0381   -8.0534 C   0  0  0  0  0  0  0  0  0  0  0  0
   15.8082  -25.6869   -8.9707 C   0  0  0  0  0  0  0  0  0  0  0  0
   16.0754  -24.9628   -9.9673 O   0  0  0  0  0  0  0  0  0  0  0  0
   18.4880  -24.3068   -6.3476 C   0  0  0  0  0  0  0  0  0  0  0  0
   17.3128  -24.4516   -5.6335 O   0  0  0  0  0  0  0  0  0  0  0  0
   14.4904  -26.1048   -8.8039 O   0  0  0  0  0  0  0  0  0  0  0  0
   19.5787  -24.3897   -5.7519 O   0  0  0  0  0  0  0  0  0  0  0  0
  2  3  1  0
  2  1  1  6
  3  4  1  0
  5  2  1  0
  5  6  2  0
  7  5  1  0
  8  7  1  0
  9 10  1  0
  9  8  1  0
 10 11  1  0
 11  7  1  0
 11 12  1  1
 12 14  1  0
 13 12  2  0
 14 15  1  0
 15 16  1  6
 16 17  1  0
 17 18  1  0
 18 22  1  0
 18 19  2  0
 20 15  1  0
 20 21  1  0
 23 20  2  0
M  END
$$$$
