CPE.pdb
     RDKit          3D

 23 23  0  0  1  0  0  0  0  0999 V2000
   20.4204  -12.4387  -19.1621 N   0  0  0  0  0  0  0  0  0  0  0  0
   21.5656  -11.6638  -18.8653 C   0  0  1  0  0  0  0  0  0  0  0  0
   22.0482  -10.8459  -20.0633 C   0  0  0  0  0  0  0  0  0  0  0  0
   22.9821  -11.8737  -21.2358 S   0  0  0  0  0  0  0  0  0  0  0  0
   21.5322  -10.8740  -17.6396 C   0  0  0  0  0  0  0  0  0  0  0  0
   20.6809   -9.9035  -17.6796 O   0  0  0  0  0  0  0  0  0  0  0  0
   22.3197  -11.0775  -16.4715 N   0  0  0  0  0  0  0  0  0  0  0  0
   23.0581  -12.2687  -16.1000 C   0  0  0  0  0  0  0  0  0  0  0  0
   24.4167  -11.6339  -15.7487 C   0  0  0  0  0  0  0  0  0  0  0  0
   23.9406  -10.4821  -14.8902 C   0  0  0  0  0  0  0  0  0  0  0  0
   22.5454  -10.1411  -15.3927 C   0  0  1  0  0  0  0  0  0  0  0  0
   22.5805   -8.7215  -15.7482 C   0  0  0  0  0  0  0  0  0  0  0  0
   23.1950   -8.2830  -16.7221 O   0  0  0  0  0  0  0  0  0  0  0  0
   21.8815   -7.7718  -14.9514 N   0  0  0  0  0  0  0  0  0  0  0  0
   21.9127   -6.3352  -15.2627 C   0  0  1  0  0  0  0  0  0  0  0  0
   20.5658   -5.8672  -15.7494 C   0  0  0  0  0  0  0  0  0  0  0  0
   19.4612   -6.1857  -14.7614 C   0  0  0  0  0  0  0  0  0  0  0  0
   18.1576   -5.6467  -15.2138 C   0  0  0  0  0  0  0  0  0  0  0  0
   18.1567   -4.5455  -15.8271 O   0  0  0  0  0  0  0  0  0  0  0  0
   22.2296   -5.5608  -14.0379 C   0  0  0  0  0  0  0  0  0  0  0  0
   22.6534   -4.2493  -14.1490 O   0  0  0  0  0  0  0  0  0  0  0  0
   16.9337   -6.2774  -15.0058 O   0  0  0  0  0  0  0  0  0  0  0  0
   22.1196   -6.0735  -12.9082 O   0  0  0  0  0  0  0  0  0  0  0  0
  2  3  1  0
  2  1  1  6
  3  4  1  0
  5  2  1  0
  5  6  2  0
  7  5  1  0
  8  7  1  0
  9 10  1  0
  9  8  1  0
 10 11  1  0
 11  7  1  0
 11 12  1  6
 12 14  1  0
 13 12  2  0
 14 15  1  0
 15 16  1  1
 16 17  1  0
 17 18  1  0
 18 22  1  0
 18 19  2  0
 20 15  1  0
 20 21  1  0
 23 20  2  0
M  END
$$$$
