CPE.pdb
     RDKit          3D

 23 23  0  0  1  0  0  0  0  0999 V2000
   21.2957  -13.4841  -16.3436 N   0  0  0  0  0  0  0  0  0  0  0  0
   22.3124  -12.6228  -16.8172 C   0  0  1  0  0  0  0  0  0  0  0  0
   22.1464  -12.2759  -18.2968 C   0  0  0  0  0  0  0  0  0  0  0  0
   22.0143  -13.7730  -19.3188 S   0  0  0  0  0  0  0  0  0  0  0  0
   22.6152  -11.4472  -16.0088 C   0  0  0  0  0  0  0  0  0  0  0  0
   21.5717  -10.7440  -15.7179 O   0  0  0  0  0  0  0  0  0  0  0  0
   23.8968  -11.0386  -15.5436 N   0  0  0  0  0  0  0  0  0  0  0  0
   25.1071  -11.8341  -15.4748 C   0  0  0  0  0  0  0  0  0  0  0  0
   26.0956  -10.8629  -16.1471 C   0  0  0  0  0  0  0  0  0  0  0  0
   25.7310   -9.5887  -15.4165 C   0  0  0  0  0  0  0  0  0  0  0  0
   24.2682   -9.7401  -15.0261 C   0  0  1  0  0  0  0  0  0  0  0  0
   23.5770   -8.5815  -15.5943 C   0  0  0  0  0  0  0  0  0  0  0  0
   23.2319   -8.5118  -16.7752 O   0  0  0  0  0  0  0  0  0  0  0  0
   23.2725   -7.4614  -14.7708 N   0  0  0  0  0  0  0  0  0  0  0  0
   22.5872   -6.2763  -15.3073 C   0  0  1  0  0  0  0  0  0  0  0  0
   21.7853   -5.5929  -14.2303 C   0  0  0  0  0  0  0  0  0  0  0  0
   21.1254   -4.3232  -14.7305 C   0  0  0  0  0  0  0  0  0  0  0  0
   19.7645   -4.5888  -15.2517 C   0  0  0  0  0  0  0  0  0  0  0  0
   19.1318   -5.5687  -14.7737 O   0  0  0  0  0  0  0  0  0  0  0  0
   23.5860   -5.2960  -15.7989 C   0  0  0  0  0  0  0  0  0  0  0  0
   23.3319   -4.5835  -16.9563 O   0  0  0  0  0  0  0  0  0  0  0  0
   19.1388   -3.8266  -16.2348 O   0  0  0  0  0  0  0  0  0  0  0  0
   24.6522   -5.1032  -15.1846 O   0  0  0  0  0  0  0  0  0  0  0  0
  2  3  1  0
  2  1  1  1
  3  4  1  0
  5  2  1  0
  5  6  2  0
  7  5  1  0
  8  7  1  0
  9 10  1  0
  9  8  1  0
 10 11  1  0
 11  7  1  0
 11 12  1  6
 12 14  1  0
 13 12  2  0
 14 15  1  0
 15 16  1  1
 16 17  1  0
 17 18  1  0
 18 22  1  0
 18 19  2  0
 20 15  1  0
 20 21  1  0
 23 20  2  0
M  END
$$$$
