CPE.pdb
     RDKit          3D

 23 23  0  0  1  0  0  0  0  0999 V2000
   18.8028  -12.6374  -16.8685 N   0  0  0  0  0  0  0  0  0  0  0  0
   19.7578  -11.6527  -17.2126 C   0  0  1  0  0  0  0  0  0  0  0  0
   19.4144  -10.9312  -18.5159 C   0  0  0  0  0  0  0  0  0  0  0  0
   20.6858   -9.7078  -18.9521 S   0  0  0  0  0  0  0  0  0  0  0  0
   20.1614  -10.7250  -16.1620 C   0  0  0  0  0  0  0  0  0  0  0  0
   19.3004   -9.7858  -15.9506 O   0  0  0  0  0  0  0  0  0  0  0  0
   21.3608  -10.7714  -15.3970 N   0  0  0  0  0  0  0  0  0  0  0  0
   22.2520  -11.9011  -15.2186 C   0  0  0  0  0  0  0  0  0  0  0  0
   23.5996  -11.2205  -15.5240 C   0  0  0  0  0  0  0  0  0  0  0  0
   23.4430   -9.9686  -14.6882 C   0  0  0  0  0  0  0  0  0  0  0  0
   21.9466   -9.7015  -14.6199 C   0  0  1  0  0  0  0  0  0  0  0  0
   21.7564   -8.3402  -15.1235 C   0  0  0  0  0  0  0  0  0  0  0  0
   21.9052   -8.0297  -16.3067 O   0  0  0  0  0  0  0  0  0  0  0  0
   21.3810   -7.2979  -14.2302 N   0  0  0  0  0  0  0  0  0  0  0  0
   21.3905   -5.8878  -14.6463 C   0  0  1  0  0  0  0  0  0  0  0  0
   20.0277   -5.2710  -14.4659 C   0  0  0  0  0  0  0  0  0  0  0  0
   19.0152   -5.8305  -15.4454 C   0  0  0  0  0  0  0  0  0  0  0  0
   17.6666   -5.2626  -15.2144 C   0  0  0  0  0  0  0  0  0  0  0  0
   16.8855   -5.8922  -14.4513 O   0  0  0  0  0  0  0  0  0  0  0  0
   22.3352   -5.1188  -13.8000 C   0  0  0  0  0  0  0  0  0  0  0  0
   22.8187   -3.9029  -14.2466 O   0  0  0  0  0  0  0  0  0  0  0  0
   17.2061   -4.0788  -15.7849 O   0  0  0  0  0  0  0  0  0  0  0  0
   22.7008   -5.5512  -12.6906 O   0  0  0  0  0  0  0  0  0  0  0  0
  2  3  1  0
  2  1  1  1
  3  4  1  0
  5  2  1  0
  5  6  2  0
  7  5  1  0
  8  7  1  0
  9 10  1  0
  9  8  1  0
 10 11  1  0
 11  7  1  0
 11 12  1  6
 12 14  1  0
 13 12  2  0
 14 15  1  0
 15 16  1  1
 16 17  1  0
 17 18  1  0
 18 22  1  0
 18 19  2  0
 20 15  1  0
 20 21  1  0
 23 20  2  0
M  END
$$$$
