CPE.pdb
     RDKit          3D

 23 23  0  0  1  0  0  0  0  0999 V2000
   19.4560  -12.8820  -17.1614 N   0  0  0  0  0  0  0  0  0  0  0  0
   20.5555  -12.0418  -17.4532 C   0  0  1  0  0  0  0  0  0  0  0  0
   20.4487  -11.3923  -18.8330 C   0  0  0  0  0  0  0  0  0  0  0  0
   20.3377  -12.6422  -20.1480 S   0  0  0  0  0  0  0  0  0  0  0  0
   20.9496  -11.0847  -16.4256 C   0  0  0  0  0  0  0  0  0  0  0  0
   20.0215  -10.2346  -16.1354 O   0  0  0  0  0  0  0  0  0  0  0  0
   22.2046  -11.0184  -15.7574 N   0  0  0  0  0  0  0  0  0  0  0  0
   23.2066  -12.0612  -15.6535 C   0  0  0  0  0  0  0  0  0  0  0  0
   24.4581  -11.2613  -16.0614 C   0  0  0  0  0  0  0  0  0  0  0  0
   24.2539  -10.0259  -15.2115 C   0  0  0  0  0  0  0  0  0  0  0  0
   22.7493   -9.8966  -15.0250 C   0  0  1  0  0  0  0  0  0  0  0  0
   22.3964   -8.5603  -15.5072 C   0  0  0  0  0  0  0  0  0  0  0  0
   22.4090   -8.2459  -16.6986 O   0  0  0  0  0  0  0  0  0  0  0  0
   22.0150   -7.5485  -14.5819 N   0  0  0  0  0  0  0  0  0  0  0  0
   21.6168   -6.2062  -15.0309 C   0  0  1  0  0  0  0  0  0  0  0  0
   20.1461   -5.9807  -14.7935 C   0  0  0  0  0  0  0  0  0  0  0  0
   19.7098   -4.5886  -15.2050 C   0  0  0  0  0  0  0  0  0  0  0  0
   18.4370   -4.6213  -15.9622 C   0  0  0  0  0  0  0  0  0  0  0  0
   17.8947   -5.7429  -16.1541 O   0  0  0  0  0  0  0  0  0  0  0  0
   22.3492   -5.1769  -14.2537 C   0  0  0  0  0  0  0  0  0  0  0  0
   22.6349   -3.9557  -14.8358 O   0  0  0  0  0  0  0  0  0  0  0  0
   17.8007   -3.4939  -16.4752 O   0  0  0  0  0  0  0  0  0  0  0  0
   22.7117   -5.3947  -13.0821 O   0  0  0  0  0  0  0  0  0  0  0  0
  2  3  1  0
  2  1  1  1
  3  4  1  0
  5  2  1  0
  5  6  2  0
  7  5  1  0
  8  7  1  0
  9 10  1  0
  9  8  1  0
 10 11  1  0
 11  7  1  0
 11 12  1  6
 12 14  1  0
 13 12  2  0
 14 15  1  0
 15 16  1  1
 16 17  1  0
 17 18  1  0
 18 22  1  0
 18 19  2  0
 20 15  1  0
 20 21  1  0
 23 20  2  0
M  END
$$$$
