CPE.pdb
     RDKit          3D

 23 23  0  0  1  0  0  0  0  0999 V2000
   22.4664  -14.6844  -17.3921 N   0  0  0  0  0  0  0  0  0  0  0  0
   23.1966  -13.5059  -17.6713 C   0  0  1  0  0  0  0  0  0  0  0  0
   22.9861  -13.0094  -19.1018 C   0  0  0  0  0  0  0  0  0  0  0  0
   23.4299  -14.2842  -20.3189 S   0  0  0  0  0  0  0  0  0  0  0  0
   23.1077  -12.4245  -16.6967 C   0  0  0  0  0  0  0  0  0  0  0  0
   21.9040  -11.9895  -16.5237 O   0  0  0  0  0  0  0  0  0  0  0  0
   24.1822  -11.8448  -15.9649 N   0  0  0  0  0  0  0  0  0  0  0  0
   25.5123  -12.3876  -15.7689 C   0  0  0  0  0  0  0  0  0  0  0  0
   26.3547  -11.1521  -16.1381 C   0  0  0  0  0  0  0  0  0  0  0  0
   25.6126  -10.0972  -15.3465 C   0  0  0  0  0  0  0  0  0  0  0  0
   24.1764  -10.5898  -15.2460 C   0  0  1  0  0  0  0  0  0  0  0  0
   23.3432   -9.5190  -15.7955 C   0  0  0  0  0  0  0  0  0  0  0  0
   23.1932   -9.3311  -17.0041 O   0  0  0  0  0  0  0  0  0  0  0  0
   22.6575   -8.6314  -14.9194 N   0  0  0  0  0  0  0  0  0  0  0  0
   21.7057   -7.6324  -15.4273 C   0  0  1  0  0  0  0  0  0  0  0  0
   20.2904   -8.1327  -15.2982 C   0  0  0  0  0  0  0  0  0  0  0  0
   19.2837   -7.1417  -15.8478 C   0  0  0  0  0  0  0  0  0  0  0  0
   17.8947   -7.6247  -15.6692 C   0  0  0  0  0  0  0  0  0  0  0  0
   16.9566   -6.8723  -16.0468 O   0  0  0  0  0  0  0  0  0  0  0  0
   21.8056   -6.3882  -14.6260 C   0  0  0  0  0  0  0  0  0  0  0  0
   21.5094   -5.1717  -15.2127 O   0  0  0  0  0  0  0  0  0  0  0  0
   17.5582   -8.8555  -15.1117 O   0  0  0  0  0  0  0  0  0  0  0  0
   22.1524   -6.4211  -13.4301 O   0  0  0  0  0  0  0  0  0  0  0  0
  2  3  1  0
  2  1  1  1
  3  4  1  0
  5  2  1  0
  5  6  2  0
  7  5  1  0
  8  7  1  0
  9 10  1  0
  9  8  1  0
 10 11  1  0
 11  7  1  0
 11 12  1  6
 12 14  1  0
 13 12  2  0
 14 15  1  0
 15 16  1  1
 16 17  1  0
 17 18  1  0
 18 22  1  0
 18 19  2  0
 20 15  1  0
 20 21  1  0
 23 20  2  0
M  END
$$$$
