CPE.pdb
     RDKit          3D

 23 23  0  0  1  0  0  0  0  0999 V2000
   15.6177  -19.3977    1.8347 N   0  0  0  0  0  0  0  0  0  0  0  0
   15.2078  -18.7562    3.0265 C   0  0  1  0  0  0  0  0  0  0  0  0
   13.7698  -19.1006    3.4145 C   0  0  0  0  0  0  0  0  0  0  0  0
   12.5719  -18.1358    2.4461 S   0  0  0  0  0  0  0  0  0  0  0  0
   16.1159  -18.8304    4.1654 C   0  0  0  0  0  0  0  0  0  0  0  0
   16.4933  -20.0344    4.4410 O   0  0  0  0  0  0  0  0  0  0  0  0
   16.5901  -17.7423    4.9511 N   0  0  0  0  0  0  0  0  0  0  0  0
   16.4718  -16.3263    4.6626 C   0  0  0  0  0  0  0  0  0  0  0  0
   15.9341  -15.8286    6.0174 C   0  0  0  0  0  0  0  0  0  0  0  0
   16.8857  -16.5519    6.9456 C   0  0  0  0  0  0  0  0  0  0  0  0
   17.3053  -17.8139    6.2061 C   0  0  1  0  0  0  0  0  0  0  0  0
   16.9721  -18.9304    7.0922 C   0  0  0  0  0  0  0  0  0  0  0  0
   15.8162  -19.2914    7.3202 O   0  0  0  0  0  0  0  0  0  0  0  0
   18.0097  -19.6577    7.7401 N   0  0  0  0  0  0  0  0  0  0  0  0
   17.7144  -20.7828    8.6394 C   0  0  1  0  0  0  0  0  0  0  0  0
   18.4745  -22.0136    8.2184 C   0  0  0  0  0  0  0  0  0  0  0  0
   18.2185  -23.1857    9.1449 C   0  0  0  0  0  0  0  0  0  0  0  0
   19.0481  -24.3571    8.7788 C   0  0  0  0  0  0  0  0  0  0  0  0
   19.8243  -24.2436    7.7922 O   0  0  0  0  0  0  0  0  0  0  0  0
   18.1460  -20.4516   10.0194 C   0  0  0  0  0  0  0  0  0  0  0  0
   17.6760  -21.2024   11.0811 O   0  0  0  0  0  0  0  0  0  0  0  0
   19.0263  -25.5750    9.4537 O   0  0  0  0  0  0  0  0  0  0  0  0
   18.9270  -19.5064   10.2381 O   0  0  0  0  0  0  0  0  0  0  0  0
  2  3  1  0
  2  1  1  6
  3  4  1  0
  5  2  1  0
  5  6  2  0
  7  5  1  0
  8  7  1  0
  9 10  1  0
  9  8  1  0
 10 11  1  0
 11  7  1  0
 11 12  1  1
 12 14  1  0
 13 12  2  0
 14 15  1  0
 15 16  1  6
 16 17  1  0
 17 18  1  0
 18 22  1  0
 18 19  2  0
 20 15  1  0
 20 21  1  0
 23 20  2  0
M  END
$$$$
