CPE.pdb
     RDKit          3D

 23 23  0  0  1  0  0  0  0  0999 V2000
   19.4358  -14.9968  -16.4053 N   0  0  0  0  0  0  0  0  0  0  0  0
   18.7849  -13.8658  -16.9504 C   0  0  1  0  0  0  0  0  0  0  0  0
   17.3395  -13.7318  -16.4708 C   0  0  0  0  0  0  0  0  0  0  0  0
   16.2290  -14.8356  -17.3937 S   0  0  0  0  0  0  0  0  0  0  0  0
   19.5017  -12.5968  -16.8931 C   0  0  0  0  0  0  0  0  0  0  0  0
   19.5354  -12.0815  -15.7093 O   0  0  0  0  0  0  0  0  0  0  0  0
   20.1295  -11.9217  -17.9775 N   0  0  0  0  0  0  0  0  0  0  0  0
   20.4560  -12.4599  -19.2836 C   0  0  0  0  0  0  0  0  0  0  0  0
   19.8714  -11.3494  -20.1765 C   0  0  0  0  0  0  0  0  0  0  0  0
   20.4262  -10.1358  -19.4625 C   0  0  0  0  0  0  0  0  0  0  0  0
   20.5898  -10.5509  -18.0077 C   0  0  1  0  0  0  0  0  0  0  0  0
   19.8245   -9.5808  -17.2229 C   0  0  0  0  0  0  0  0  0  0  0  0
   18.5991   -9.6250  -17.1015 O   0  0  0  0  0  0  0  0  0  0  0  0
   20.4966   -8.5200  -16.5531 N   0  0  0  0  0  0  0  0  0  0  0  0
   19.7767   -7.5881  -15.6727 C   0  0  1  0  0  0  0  0  0  0  0  0
   20.6407   -7.1837  -14.5065 C   0  0  0  0  0  0  0  0  0  0  0  0
   21.6548   -6.1242  -14.8894 C   0  0  0  0  0  0  0  0  0  0  0  0
   22.4431   -5.6795  -13.7167 C   0  0  0  0  0  0  0  0  0  0  0  0
   22.1169   -6.1267  -12.5842 O   0  0  0  0  0  0  0  0  0  0  0  0
   19.4384   -6.3507  -16.4175 C   0  0  0  0  0  0  0  0  0  0  0  0
   18.4718   -5.4964  -15.9200 O   0  0  0  0  0  0  0  0  0  0  0  0
   23.5208   -4.8003  -13.7841 O   0  0  0  0  0  0  0  0  0  0  0  0
   20.0123   -6.0676  -17.4860 O   0  0  0  0  0  0  0  0  0  0  0  0
  2  3  1  0
  2  1  1  1
  3  4  1  0
  5  2  1  0
  5  6  2  0
  7  5  1  0
  8  7  1  0
  9 10  1  0
  9  8  1  0
 10 11  1  0
 11  7  1  0
 11 12  1  1
 12 14  1  0
 13 12  2  0
 14 15  1  0
 15 16  1  1
 16 17  1  0
 17 18  1  0
 18 22  1  0
 18 19  2  0
 20 15  1  0
 20 21  1  0
 23 20  2  0
M  END
$$$$
