DHF.pdb
     RDKit          3D

 30 31  0  0  1  0  0  0  0  0999 V2000
    6.8315  -18.5553   20.7601 N   0  0  0  0  0  0  0  0  0  0  0  0
    8.1562  -18.7740   20.2257 C   0  0  1  0  0  0  0  0  0  0  0  0
    8.1453  -18.9858   18.7314 C   0  0  0  0  0  0  0  0  0  0  0  0
    7.1347  -19.9516   18.2949 C   0  0  0  0  0  0  0  0  0  0  0  0
    6.6981  -20.8950   19.0026 O   0  0  0  0  0  0  0  0  0  0  0  0
    9.0908  -17.6879   20.6216 C   0  0  0  0  0  0  0  0  0  0  0  0
   10.2987  -17.8043   20.2885 O   0  0  0  0  0  0  0  0  0  0  0  0
    6.6176  -19.8252   17.0138 O   0  0  0  0  0  0  0  0  0  0  0  0
    8.7095  -16.5477   21.3398 N   0  0  0  0  0  0  0  0  0  0  0  0
    9.6647  -15.5135   21.6856 C   0  0  1  0  0  0  0  0  0  0  0  0
    9.0831  -14.1264   21.4137 C   0  0  0  0  0  0  0  0  0  0  0  0
    8.6962  -13.9441   20.0138 C   0  0  0  0  0  0  0  0  0  0  0  0
    8.9308  -14.8165   18.9753 C   0  0  0  0  0  0  0  0  0  0  0  0
    8.4161  -14.2801   17.8406 N   0  0  0  0  0  0  0  0  0  0  0  0
    7.8671  -13.0941   18.1520 C   0  0  0  0  0  0  0  0  0  0  0  0
    8.0392  -12.8961   19.4660 N   0  0  0  0  0  0  0  0  0  0  0  0
   10.0147  -15.5467   23.1236 C   0  0  0  0  0  0  0  0  0  0  0  0
   11.1087  -15.0572   23.4802 O   0  0  0  0  0  0  0  0  0  0  0  0
    9.1682  -16.1056   24.1052 N   0  0  0  0  0  0  0  0  0  0  0  0
    9.5868  -16.0693   25.5137 C   0  0  1  0  0  0  0  0  0  0  0  0
    9.6891  -14.6668   26.0115 C   0  0  0  0  0  0  0  0  0  0  0  0
    8.4066  -13.9314   25.9889 C   0  0  0  0  0  0  0  0  0  0  0  0
    7.6475  -13.8079   27.1387 C   0  0  0  0  0  0  0  0  0  0  0  0
    6.4414  -13.1268   27.1740 C   0  0  0  0  0  0  0  0  0  0  0  0
    5.9806  -12.5495   26.0153 C   0  0  0  0  0  0  0  0  0  0  0  0
    6.7194  -12.6596   24.8578 C   0  0  0  0  0  0  0  0  0  0  0  0
    7.9167  -13.3388   24.8347 C   0  0  0  0  0  0  0  0  0  0  0  0
    8.6677  -16.9276   26.2716 C   0  0  0  0  0  0  0  0  0  0  0  0
    8.8054  -17.1958   27.6262 O   0  0  0  0  0  0  0  0  0  0  0  0
    7.6967  -17.4590   25.6833 O   0  0  0  0  0  0  0  0  0  0  0  0
  2  1  1  6
  2  3  1  0
  4  3  1  0
  4  5  2  0
  6  2  1  0
  6  7  2  0
  8  4  1  0
  9  6  1  0
 10  9  1  0
 11 12  1  0
 10 11  1  1
 12 16  1  0
 13 12  2  0
 13 14  1  0
 14 15  1  0
 16 15  2  0
 17 10  1  0
 18 17  2  0
 19 17  1  0
 20 19  1  0
 20 28  1  0
 20 21  1  1
 22 21  1  0
 23 22  2  0
 24 23  1  0
 25 26  1  0
 25 24  2  0
 26 27  2  0
 27 22  1  0
 28 29  1  0
 30 28  2  0
M  END
$$$$
