DHF.pdb
     RDKit          3D

 30 31  0  0  1  0  0  0  0  0999 V2000
    7.1905  -18.3016   18.9385 N   0  0  0  0  0  0  0  0  0  0  0  0
    7.8996  -17.2553   19.6389 C   0  0  1  0  0  0  0  0  0  0  0  0
    7.9530  -15.9697   18.8500 C   0  0  0  0  0  0  0  0  0  0  0  0
    8.8893  -16.0238   17.7252 C   0  0  0  0  0  0  0  0  0  0  0  0
    9.6378  -17.0008   17.4676 O   0  0  0  0  0  0  0  0  0  0  0  0
    7.3497  -17.0420   21.0035 C   0  0  0  0  0  0  0  0  0  0  0  0
    6.4759  -16.1483   21.1497 O   0  0  0  0  0  0  0  0  0  0  0  0
    8.9626  -14.9259   16.8803 O   0  0  0  0  0  0  0  0  0  0  0  0
    7.7439  -17.7727   22.1313 N   0  0  0  0  0  0  0  0  0  0  0  0
    7.0448  -17.6535   23.3957 C   0  0  1  0  0  0  0  0  0  0  0  0
    6.5347  -19.0164   23.8631 C   0  0  0  0  0  0  0  0  0  0  0  0
    5.4027  -19.4952   23.0681 C   0  0  0  0  0  0  0  0  0  0  0  0
    4.7819  -18.8287   22.0361 C   0  0  0  0  0  0  0  0  0  0  0  0
    3.7799  -19.6108   21.5623 N   0  0  0  0  0  0  0  0  0  0  0  0
    3.7652  -20.7480   22.2774 C   0  0  0  0  0  0  0  0  0  0  0  0
    4.7475  -20.6729   23.1856 N   0  0  0  0  0  0  0  0  0  0  0  0
    7.9308  -17.1473   24.4682 C   0  0  0  0  0  0  0  0  0  0  0  0
    9.1617  -17.3401   24.3623 O   0  0  0  0  0  0  0  0  0  0  0  0
    7.4459  -16.4589   25.6011 N   0  0  0  0  0  0  0  0  0  0  0  0
    8.3818  -16.1095   26.6791 C   0  0  1  0  0  0  0  0  0  0  0  0
    7.9113  -14.9144   27.4377 C   0  0  0  0  0  0  0  0  0  0  0  0
    7.8422  -13.6816   26.6244 C   0  0  0  0  0  0  0  0  0  0  0  0
    6.7539  -12.8337   26.7255 C   0  0  0  0  0  0  0  0  0  0  0  0
    6.6404  -11.6648   25.9902 C   0  0  0  0  0  0  0  0  0  0  0  0
    7.6541  -11.3350   25.1230 C   0  0  0  0  0  0  0  0  0  0  0  0
    8.7478  -12.1643   25.0055 C   0  0  0  0  0  0  0  0  0  0  0  0
    8.8497  -13.3233   25.7414 C   0  0  0  0  0  0  0  0  0  0  0  0
    8.5906  -17.3139   27.4927 C   0  0  0  0  0  0  0  0  0  0  0  0
    9.5569  -17.4156   28.4835 O   0  0  0  0  0  0  0  0  0  0  0  0
    7.8672  -18.3193   27.2994 O   0  0  0  0  0  0  0  0  0  0  0  0
  2  1  1  6
  2  3  1  0
  4  3  1  0
  4  5  2  0
  6  2  1  0
  6  7  2  0
  8  4  1  0
  9  6  1  0
 10  9  1  0
 11 12  1  0
 10 11  1  1
 12 16  1  0
 13 12  2  0
 13 14  1  0
 14 15  1  0
 16 15  2  0
 17 10  1  0
 18 17  2  0
 19 17  1  0
 20 19  1  0
 20 28  1  0
 20 21  1  1
 22 21  1  0
 23 22  2  0
 24 23  1  0
 25 26  1  0
 25 24  2  0
 26 27  2  0
 27 22  1  0
 28 29  1  0
 30 28  2  0
M  END
$$$$
