DHF.pdb
     RDKit          3D

 30 31  0  0  1  0  0  0  0  0999 V2000
   10.0762  -19.4052   19.6721 N   0  0  0  0  0  0  0  0  0  0  0  0
   10.2428  -17.9711   19.7339 C   0  0  1  0  0  0  0  0  0  0  0  0
    9.9169  -17.2977   18.4230 C   0  0  0  0  0  0  0  0  0  0  0  0
   10.7860  -17.7262   17.3249 C   0  0  0  0  0  0  0  0  0  0  0  0
   10.6047  -18.7621   16.6353 O   0  0  0  0  0  0  0  0  0  0  0  0
    9.4761  -17.3806   20.8622 C   0  0  0  0  0  0  0  0  0  0  0  0
    9.4157  -16.1257   20.9361 O   0  0  0  0  0  0  0  0  0  0  0  0
   11.8877  -16.9415   17.0167 O   0  0  0  0  0  0  0  0  0  0  0  0
    8.8197  -18.1333   21.8439 N   0  0  0  0  0  0  0  0  0  0  0  0
    8.0668  -17.5006   22.9089 C   0  0  1  0  0  0  0  0  0  0  0  0
    7.0208  -18.4598   23.4766 C   0  0  0  0  0  0  0  0  0  0  0  0
    5.9565  -18.7614   22.5180 C   0  0  0  0  0  0  0  0  0  0  0  0
    5.7890  -18.2017   21.2717 C   0  0  0  0  0  0  0  0  0  0  0  0
    4.6864  -18.7484   20.7012 N   0  0  0  0  0  0  0  0  0  0  0  0
    4.1658  -19.6350   21.5659 C   0  0  0  0  0  0  0  0  0  0  0  0
    4.9369  -19.6389   22.6616 N   0  0  0  0  0  0  0  0  0  0  0  0
    8.9370  -17.1115   24.0415 C   0  0  0  0  0  0  0  0  0  0  0  0
    9.9784  -17.7731   24.2450 O   0  0  0  0  0  0  0  0  0  0  0  0
    8.6415  -16.0291   24.8980 N   0  0  0  0  0  0  0  0  0  0  0  0
    9.6274  -15.6317   25.9129 C   0  0  1  0  0  0  0  0  0  0  0  0
    9.7901  -14.1495   25.9579 C   0  0  0  0  0  0  0  0  0  0  0  0
    8.5139  -13.4136   26.0834 C   0  0  0  0  0  0  0  0  0  0  0  0
    7.7185  -13.1928   24.9734 C   0  0  0  0  0  0  0  0  0  0  0  0
    6.5126  -12.5132   25.0356 C   0  0  0  0  0  0  0  0  0  0  0  0
    6.0899  -12.0384   26.2538 C   0  0  0  0  0  0  0  0  0  0  0  0
    6.8655  -12.2463   27.3732 C   0  0  0  0  0  0  0  0  0  0  0  0
    8.0621  -12.9230   27.2994 C   0  0  0  0  0  0  0  0  0  0  0  0
    9.2275  -16.2474   27.1845 C   0  0  0  0  0  0  0  0  0  0  0  0
    8.0859  -17.0210   27.3399 O   0  0  0  0  0  0  0  0  0  0  0  0
    9.9419  -16.0787   28.2007 O   0  0  0  0  0  0  0  0  0  0  0  0
  2  1  1  6
  2  3  1  0
  4  3  1  0
  4  5  2  0
  6  2  1  0
  6  7  2  0
  8  4  1  0
  9  6  1  0
 10  9  1  0
 11 12  1  0
 10 11  1  1
 12 16  1  0
 13 12  2  0
 13 14  1  0
 14 15  1  0
 16 15  2  0
 17 10  1  0
 18 17  2  0
 19 17  1  0
 20 19  1  0
 20 28  1  0
 20 21  1  1
 22 21  1  0
 23 22  2  0
 24 23  1  0
 25 26  1  0
 25 24  2  0
 26 27  2  0
 27 22  1  0
 28 29  1  0
 30 28  2  0
M  END
$$$$
