DHF.pdb
     RDKit          3D

 30 31  0  0  1  0  0  0  0  0999 V2000
   12.2051   10.1162   20.0317 N   0  0  0  0  0  0  0  0  0  0  0  0
   12.7045    9.3416   21.1446 C   0  0  1  0  0  0  0  0  0  0  0  0
   12.7435   10.1369   22.4267 C   0  0  0  0  0  0  0  0  0  0  0  0
   13.2818    9.3782   23.5578 C   0  0  0  0  0  0  0  0  0  0  0  0
   14.2744    8.6090   23.4921 O   0  0  0  0  0  0  0  0  0  0  0  0
   11.9505    8.0708   21.3072 C   0  0  0  0  0  0  0  0  0  0  0  0
   10.7719    8.1406   21.7429 O   0  0  0  0  0  0  0  0  0  0  0  0
   12.6602    9.5109   24.7910 O   0  0  0  0  0  0  0  0  0  0  0  0
   12.4706    6.8059   21.0061 N   0  0  0  0  0  0  0  0  0  0  0  0
   11.6867    5.5999   21.1866 C   0  0  1  0  0  0  0  0  0  0  0  0
   12.0164    4.5725   20.1040 C   0  0  0  0  0  0  0  0  0  0  0  0
   11.0866    3.4420   20.1007 C   0  0  0  0  0  0  0  0  0  0  0  0
   11.3139    2.1885   20.6221 C   0  0  0  0  0  0  0  0  0  0  0  0
   10.2066    1.4321   20.4174 N   0  0  0  0  0  0  0  0  0  0  0  0
    9.2971    2.1884   19.7804 C   0  0  0  0  0  0  0  0  0  0  0  0
    9.8339    3.4015   19.5916 N   0  0  0  0  0  0  0  0  0  0  0  0
   11.9723    4.9475   22.4844 C   0  0  0  0  0  0  0  0  0  0  0  0
   11.1888    5.1521   23.4372 O   0  0  0  0  0  0  0  0  0  0  0  0
   13.0878    4.1074   22.6903 N   0  0  0  0  0  0  0  0  0  0  0  0
   13.2359    3.4207   23.9814 C   0  0  1  0  0  0  0  0  0  0  0  0
   12.0570    2.5538   24.2713 C   0  0  0  0  0  0  0  0  0  0  0  0
   12.1674    1.8027   25.5400 C   0  0  0  0  0  0  0  0  0  0  0  0
   12.5154    0.4639   25.5355 C   0  0  0  0  0  0  0  0  0  0  0  0
   12.6368   -0.2855   26.6946 C   0  0  0  0  0  0  0  0  0  0  0  0
   12.4006    0.3296   27.9004 C   0  0  0  0  0  0  0  0  0  0  0  0
   12.0525    1.6622   27.9297 C   0  0  0  0  0  0  0  0  0  0  0  0
   11.9350    2.3969   26.7713 C   0  0  0  0  0  0  0  0  0  0  0  0
   14.5270    2.7217   23.9662 C   0  0  0  0  0  0  0  0  0  0  0  0
   15.3493    2.5992   25.0774 O   0  0  0  0  0  0  0  0  0  0  0  0
   14.9301    2.1982   22.9009 O   0  0  0  0  0  0  0  0  0  0  0  0
  2  1  1  6
  2  3  1  0
  4  3  1  0
  4  5  2  0
  6  2  1  0
  6  7  2  0
  8  4  1  0
  9  6  1  0
 10  9  1  0
 11 12  1  0
 10 11  1  6
 12 16  1  0
 13 12  2  0
 13 14  1  0
 14 15  1  0
 16 15  2  0
 17 10  1  0
 18 17  2  0
 19 17  1  0
 20 19  1  0
 20 28  1  0
 20 21  1  6
 22 21  1  0
 23 22  2  0
 24 23  1  0
 25 26  1  0
 25 24  2  0
 26 27  2  0
 27 22  1  0
 28 29  1  0
 30 28  2  0
M  END
$$$$
