DHF.pdb
     RDKit          3D

 30 31  0  0  1  0  0  0  0  0999 V2000
   13.5176  -19.0933   19.2907 N   0  0  0  0  0  0  0  0  0  0  0  0
   12.8066  -17.8355   19.3167 C   0  0  1  0  0  0  0  0  0  0  0  0
   12.2252  -17.4763   17.9710 C   0  0  0  0  0  0  0  0  0  0  0  0
   13.2326  -17.4020   16.9106 C   0  0  0  0  0  0  0  0  0  0  0  0
   13.1235  -17.9510   15.7845 O   0  0  0  0  0  0  0  0  0  0  0  0
   11.7747  -17.8137   20.3864 C   0  0  0  0  0  0  0  0  0  0  0  0
   11.0868  -16.7677   20.5154 O   0  0  0  0  0  0  0  0  0  0  0  0
   14.3904  -16.6784   17.1563 O   0  0  0  0  0  0  0  0  0  0  0  0
   11.5229  -18.8824   21.2558 N   0  0  0  0  0  0  0  0  0  0  0  0
   10.4428  -18.8372   22.2217 C   0  0  1  0  0  0  0  0  0  0  0  0
   10.1315  -20.2367   22.7517 C   0  0  0  0  0  0  0  0  0  0  0  0
    9.2261  -20.9809   21.8748 C   0  0  0  0  0  0  0  0  0  0  0  0
    8.4731  -20.4672   20.8433 C   0  0  0  0  0  0  0  0  0  0  0  0
    7.7705  -21.4814   20.2794 N   0  0  0  0  0  0  0  0  0  0  0  0
    8.0709  -22.6131   20.9382 C   0  0  0  0  0  0  0  0  0  0  0  0
    8.9505  -22.3050   21.9008 N   0  0  0  0  0  0  0  0  0  0  0  0
   10.7925  -18.0112   23.3993 C   0  0  0  0  0  0  0  0  0  0  0  0
   12.0009  -17.7894   23.6317 O   0  0  0  0  0  0  0  0  0  0  0  0
    9.8224  -17.4657   24.2676 N   0  0  0  0  0  0  0  0  0  0  0  0
   10.2618  -16.6336   25.3966 C   0  0  1  0  0  0  0  0  0  0  0  0
    9.1378  -15.8125   25.9330 C   0  0  0  0  0  0  0  0  0  0  0  0
    9.4780  -15.0691   27.1650 C   0  0  0  0  0  0  0  0  0  0  0  0
    9.5672  -13.6887   27.1502 C   0  0  0  0  0  0  0  0  0  0  0  0
    9.8783  -12.9432   28.2758 C   0  0  0  0  0  0  0  0  0  0  0  0
   10.1082  -13.6055   29.4577 C   0  0  0  0  0  0  0  0  0  0  0  0
   10.0252  -14.9800   29.4965 C   0  0  0  0  0  0  0  0  0  0  0  0
    9.7151  -15.7104   28.3715 C   0  0  0  0  0  0  0  0  0  0  0  0
   10.9018  -17.5193   26.3774 C   0  0  0  0  0  0  0  0  0  0  0  0
   12.1226  -17.2475   26.9787 O   0  0  0  0  0  0  0  0  0  0  0  0
   10.3320  -18.5865   26.7057 O   0  0  0  0  0  0  0  0  0  0  0  0
  2  1  1  6
  2  3  1  0
  4  3  1  0
  4  5  2  0
  6  2  1  0
  6  7  2  0
  8  4  1  0
  9  6  1  0
 10  9  1  0
 11 12  1  0
 10 11  1  1
 12 16  1  0
 13 12  2  0
 13 14  1  0
 14 15  1  0
 16 15  2  0
 17 10  1  0
 18 17  2  0
 19 17  1  0
 20 19  1  0
 20 28  1  0
 20 21  1  1
 22 21  1  0
 23 22  2  0
 24 23  1  0
 25 26  1  0
 25 24  2  0
 26 27  2  0
 27 22  1  0
 28 29  1  0
 30 28  2  0
M  END
$$$$
