DHF.pdb
     RDKit          3D

 30 31  0  0  1  0  0  0  0  0999 V2000
    8.8022  -18.4993   20.1358 N   0  0  0  0  0  0  0  0  0  0  0  0
   10.1354  -17.9419   20.1436 C   0  0  1  0  0  0  0  0  0  0  0  0
   10.7454  -17.8920   18.7640 C   0  0  0  0  0  0  0  0  0  0  0  0
   10.3582  -19.0264   17.9226 C   0  0  0  0  0  0  0  0  0  0  0  0
    9.5734  -19.9423   18.2786 O   0  0  0  0  0  0  0  0  0  0  0  0
   10.1677  -16.6129   20.8088 C   0  0  0  0  0  0  0  0  0  0  0  0
   11.2754  -16.0199   20.8791 O   0  0  0  0  0  0  0  0  0  0  0  0
   10.8886  -19.1045   16.6432 O   0  0  0  0  0  0  0  0  0  0  0  0
    9.0443  -15.9837   21.3596 N   0  0  0  0  0  0  0  0  0  0  0  0
    9.1291  -14.6658   21.9575 C   0  0  1  0  0  0  0  0  0  0  0  0
    7.9760  -13.7812   21.4842 C   0  0  0  0  0  0  0  0  0  0  0  0
    7.8677  -13.7325   20.0253 C   0  0  0  0  0  0  0  0  0  0  0  0
    8.2054  -12.6760   19.2101 C   0  0  0  0  0  0  0  0  0  0  0  0
    7.9563  -13.0301   17.9245 N   0  0  0  0  0  0  0  0  0  0  0  0
    7.4715  -14.2831   17.9238 C   0  0  0  0  0  0  0  0  0  0  0  0
    7.4200  -14.7025   19.1953 N   0  0  0  0  0  0  0  0  0  0  0  0
    9.0336  -14.7244   23.4337 C   0  0  0  0  0  0  0  0  0  0  0  0
    8.7090  -13.6859   24.0497 O   0  0  0  0  0  0  0  0  0  0  0  0
    9.2928  -15.8993   24.1719 N   0  0  0  0  0  0  0  0  0  0  0  0
    8.9378  -15.9397   25.5976 C   0  0  1  0  0  0  0  0  0  0  0  0
    7.4763  -15.7175   25.7976 C   0  0  0  0  0  0  0  0  0  0  0  0
    7.1343  -14.3403   26.2125 C   0  0  0  0  0  0  0  0  0  0  0  0
    8.0518  -13.5655   26.8992 C   0  0  0  0  0  0  0  0  0  0  0  0
    7.7847  -12.2687   27.3078 C   0  0  0  0  0  0  0  0  0  0  0  0
    6.5542  -11.7304   27.0175 C   0  0  0  0  0  0  0  0  0  0  0  0
    5.6243  -12.4833   26.3347 C   0  0  0  0  0  0  0  0  0  0  0  0
    5.9009  -13.7709   25.9336 C   0  0  0  0  0  0  0  0  0  0  0  0
    9.4510  -17.2011   26.1467 C   0  0  0  0  0  0  0  0  0  0  0  0
    9.5969  -17.4467   27.5047 O   0  0  0  0  0  0  0  0  0  0  0  0
    9.7824  -18.1225   25.3640 O   0  0  0  0  0  0  0  0  0  0  0  0
  2  1  1  6
  2  3  1  0
  4  3  1  0
  4  5  2  0
  6  2  1  0
  6  7  2  0
  8  4  1  0
  9  6  1  0
 10  9  1  0
 11 12  1  0
 10 11  1  6
 12 16  1  0
 13 12  2  0
 13 14  1  0
 14 15  1  0
 16 15  2  0
 17 10  1  0
 18 17  2  0
 19 17  1  0
 20 19  1  0
 20 28  1  0
 20 21  1  6
 22 21  1  0
 23 22  2  0
 24 23  1  0
 25 26  1  0
 25 24  2  0
 26 27  2  0
 27 22  1  0
 28 29  1  0
 30 28  2  0
M  END
$$$$
