DHF.pdb
     RDKit          3D

 30 31  0  0  1  0  0  0  0  0999 V2000
   11.6087  -17.3598   19.2678 N   0  0  0  0  0  0  0  0  0  0  0  0
   12.2866  -16.2386   19.8772 C   0  0  1  0  0  0  0  0  0  0  0  0
   12.9404  -15.3387   18.8570 C   0  0  0  0  0  0  0  0  0  0  0  0
   14.1880  -15.8878   18.3215 C   0  0  0  0  0  0  0  0  0  0  0  0
   14.6681  -17.0060   18.6382 O   0  0  0  0  0  0  0  0  0  0  0  0
   11.3831  -15.4805   20.7821 C   0  0  0  0  0  0  0  0  0  0  0  0
   11.8704  -14.5096   21.4174 O   0  0  0  0  0  0  0  0  0  0  0  0
   14.8959  -15.1290   17.4009 O   0  0  0  0  0  0  0  0  0  0  0  0
   10.0281  -15.7804   20.9694 N   0  0  0  0  0  0  0  0  0  0  0  0
    9.2009  -15.0179   21.8837 C   0  0  1  0  0  0  0  0  0  0  0  0
    7.7817  -14.8705   21.3356 C   0  0  0  0  0  0  0  0  0  0  0  0
    7.7521  -14.2363   20.0167 C   0  0  0  0  0  0  0  0  0  0  0  0
    7.8564  -12.8902   19.7487 C   0  0  0  0  0  0  0  0  0  0  0  0
    7.7837  -12.7139   18.4056 N   0  0  0  0  0  0  0  0  0  0  0  0
    7.6365  -13.9208   17.8342 C   0  0  0  0  0  0  0  0  0  0  0  0
    7.6180  -14.8368   18.8119 N   0  0  0  0  0  0  0  0  0  0  0  0
    9.0749  -15.6860   23.1987 C   0  0  0  0  0  0  0  0  0  0  0  0
    9.3126  -16.9117   23.2675 O   0  0  0  0  0  0  0  0  0  0  0  0
    8.6992  -14.9998   24.3736 N   0  0  0  0  0  0  0  0  0  0  0  0
    8.6934  -15.7239   25.6527 C   0  0  1  0  0  0  0  0  0  0  0  0
    8.7253  -14.7810   26.8082 C   0  0  0  0  0  0  0  0  0  0  0  0
    7.7345  -13.6877   26.7127 C   0  0  0  0  0  0  0  0  0  0  0  0
    8.1417  -12.3661   26.7456 C   0  0  0  0  0  0  0  0  0  0  0  0
    7.2564  -11.3040   26.6560 C   0  0  0  0  0  0  0  0  0  0  0  0
    5.9157  -11.5772   26.5290 C   0  0  0  0  0  0  0  0  0  0  0  0
    5.4867  -12.8859   26.4941 C   0  0  0  0  0  0  0  0  0  0  0  0
    6.3757  -13.9332   26.5840 C   0  0  0  0  0  0  0  0  0  0  0  0
    7.5479  -16.6423   25.6370 C   0  0  0  0  0  0  0  0  0  0  0  0
    6.6041  -16.6785   24.6204 O   0  0  0  0  0  0  0  0  0  0  0  0
    7.3931  -17.4480   26.5848 O   0  0  0  0  0  0  0  0  0  0  0  0
  2  1  1  6
  2  3  1  0
  4  3  1  0
  4  5  2  0
  6  2  1  0
  6  7  2  0
  8  4  1  0
  9  6  1  0
 10  9  1  0
 11 12  1  0
 10 11  1  6
 12 16  1  0
 13 12  2  0
 13 14  1  0
 14 15  1  0
 16 15  2  0
 17 10  1  0
 18 17  2  0
 19 17  1  0
 20 19  1  0
 20 28  1  0
 20 21  1  1
 22 21  1  0
 23 22  2  0
 24 23  1  0
 25 26  1  0
 25 24  2  0
 26 27  2  0
 27 22  1  0
 28 29  1  0
 30 28  2  0
M  END
$$$$
