DHF.pdb
     RDKit          3D

 30 31  0  0  1  0  0  0  0  0999 V2000
    9.7911  -14.4588   19.3803 N   0  0  0  0  0  0  0  0  0  0  0  0
    8.5273  -13.9607   19.8731 C   0  0  1  0  0  0  0  0  0  0  0  0
    7.4872  -13.8558   18.7845 C   0  0  0  0  0  0  0  0  0  0  0  0
    8.0652  -13.8049   17.4399 C   0  0  0  0  0  0  0  0  0  0  0  0
    8.4661  -14.8093   16.7981 O   0  0  0  0  0  0  0  0  0  0  0  0
    8.0383  -14.7596   21.0274 C   0  0  0  0  0  0  0  0  0  0  0  0
    6.9117  -14.4678   21.5063 O   0  0  0  0  0  0  0  0  0  0  0  0
    8.1826  -12.5676   16.8235 O   0  0  0  0  0  0  0  0  0  0  0  0
    8.7528  -15.8129   21.6116 N   0  0  0  0  0  0  0  0  0  0  0  0
    8.2365  -16.5382   22.7556 C   0  0  1  0  0  0  0  0  0  0  0  0
    8.5401  -18.0312   22.6323 C   0  0  0  0  0  0  0  0  0  0  0  0
    7.7166  -18.6898   21.6171 C   0  0  0  0  0  0  0  0  0  0  0  0
    6.7181  -18.1121   20.8662 C   0  0  0  0  0  0  0  0  0  0  0  0
    6.2001  -19.0572   20.0425 N   0  0  0  0  0  0  0  0  0  0  0  0
    6.8551  -20.2088   20.2656 C   0  0  0  0  0  0  0  0  0  0  0  0
    7.7700  -19.9812   21.2176 N   0  0  0  0  0  0  0  0  0  0  0  0
    8.8600  -16.0868   24.0200 C   0  0  0  0  0  0  0  0  0  0  0  0
   10.0218  -15.6261   23.9781 O   0  0  0  0  0  0  0  0  0  0  0  0
    8.2005  -16.1543   25.2662 N   0  0  0  0  0  0  0  0  0  0  0  0
    8.9315  -15.7722   26.4827 C   0  0  1  0  0  0  0  0  0  0  0  0
    8.0684  -14.9793   27.4057 C   0  0  0  0  0  0  0  0  0  0  0  0
    7.6571  -13.6689   26.8585 C   0  0  0  0  0  0  0  0  0  0  0  0
    8.5645  -12.6285   26.7706 C   0  0  0  0  0  0  0  0  0  0  0  0
    8.2333  -11.3826   26.2629 C   0  0  0  0  0  0  0  0  0  0  0  0
    6.9467  -11.1729   25.8282 C   0  0  0  0  0  0  0  0  0  0  0  0
    6.0255  -12.1943   25.9061 C   0  0  0  0  0  0  0  0  0  0  0  0
    6.3662  -13.4283   26.4125 C   0  0  0  0  0  0  0  0  0  0  0  0
    9.4952  -16.9968   27.0644 C   0  0  0  0  0  0  0  0  0  0  0  0
   10.4106  -17.0030   28.1074 O   0  0  0  0  0  0  0  0  0  0  0  0
    9.1447  -18.1111   26.6096 O   0  0  0  0  0  0  0  0  0  0  0  0
  2  1  1  6
  2  3  1  0
  4  3  1  0
  4  5  2  0
  6  2  1  0
  6  7  2  0
  8  4  1  0
  9  6  1  0
 10  9  1  0
 11 12  1  0
 10 11  1  6
 12 16  1  0
 13 12  2  0
 13 14  1  0
 14 15  1  0
 16 15  2  0
 17 10  1  0
 18 17  2  0
 19 17  1  0
 20 19  1  0
 20 28  1  0
 20 21  1  1
 22 21  1  0
 23 22  2  0
 24 23  1  0
 25 26  1  0
 25 24  2  0
 26 27  2  0
 27 22  1  0
 28 29  1  0
 30 28  2  0
M  END
$$$$
