DHF.pdb
     RDKit          3D

 30 31  0  0  1  0  0  0  0  0999 V2000
   10.0479  -18.1590   15.8479 N   0  0  0  0  0  0  0  0  0  0  0  0
    9.6621  -16.9726   16.5771 C   0  0  1  0  0  0  0  0  0  0  0  0
    8.5053  -16.2509   15.9298 C   0  0  0  0  0  0  0  0  0  0  0  0
    8.7664  -15.8784   14.5378 C   0  0  0  0  0  0  0  0  0  0  0  0
    9.7879  -16.2196   13.8885 O   0  0  0  0  0  0  0  0  0  0  0  0
    9.3923  -17.2745   18.0075 C   0  0  0  0  0  0  0  0  0  0  0  0
    8.2134  -17.1318   18.4239 O   0  0  0  0  0  0  0  0  0  0  0  0
    7.8278  -15.0952   13.8819 O   0  0  0  0  0  0  0  0  0  0  0  0
   10.3670  -17.7064   18.9156 N   0  0  0  0  0  0  0  0  0  0  0  0
   10.0266  -18.0792   20.2746 C   0  0  1  0  0  0  0  0  0  0  0  0
   10.9268  -19.2120   20.7670 C   0  0  0  0  0  0  0  0  0  0  0  0
   10.4970  -20.5235   20.2793 C   0  0  0  0  0  0  0  0  0  0  0  0
    9.3851  -20.7924   19.5138 C   0  0  0  0  0  0  0  0  0  0  0  0
    9.3425  -22.1269   19.2741 N   0  0  0  0  0  0  0  0  0  0  0  0
   10.4035  -22.6921   19.8740 C   0  0  0  0  0  0  0  0  0  0  0  0
   11.0974  -21.7190   20.4796 N   0  0  0  0  0  0  0  0  0  0  0  0
   10.2157  -16.9536   21.2173 C   0  0  0  0  0  0  0  0  0  0  0  0
   11.1932  -16.1930   21.0458 O   0  0  0  0  0  0  0  0  0  0  0  0
    9.3421  -16.7042   22.2976 N   0  0  0  0  0  0  0  0  0  0  0  0
    9.6265  -15.5805   23.2013 C   0  0  1  0  0  0  0  0  0  0  0  0
    8.4448  -14.6797   23.3329 C   0  0  0  0  0  0  0  0  0  0  0  0
    8.0508  -14.0249   22.0672 C   0  0  0  0  0  0  0  0  0  0  0  0
    8.7145  -12.8947   21.6249 C   0  0  0  0  0  0  0  0  0  0  0  0
    8.3889  -12.2446   20.4454 C   0  0  0  0  0  0  0  0  0  0  0  0
    7.3615  -12.7457   19.6830 C   0  0  0  0  0  0  0  0  0  0  0  0
    6.6859  -13.8703   20.1034 C   0  0  0  0  0  0  0  0  0  0  0  0
    7.0183  -14.5080   21.2774 C   0  0  0  0  0  0  0  0  0  0  0  0
   10.1182  -16.1420   24.4658 C   0  0  0  0  0  0  0  0  0  0  0  0
   10.7911  -15.4012   25.4271 O   0  0  0  0  0  0  0  0  0  0  0  0
    9.9313  -17.3567   24.7128 O   0  0  0  0  0  0  0  0  0  0  0  0
  2  1  1  6
  2  3  1  0
  4  3  1  0
  4  5  2  0
  6  2  1  0
  6  7  2  0
  8  4  1  0
  9  6  1  0
 10  9  1  0
 11 12  1  0
 10 11  1  1
 12 16  1  0
 13 12  2  0
 13 14  1  0
 14 15  1  0
 16 15  2  0
 17 10  1  0
 18 17  2  0
 19 17  1  0
 20 19  1  0
 20 28  1  0
 20 21  1  1
 22 21  1  0
 23 22  2  0
 24 23  1  0
 25 26  1  0
 25 24  2  0
 26 27  2  0
 27 22  1  0
 28 29  1  0
 30 28  2  0
M  END
$$$$
