DHF.pdb
     RDKit          3D

 30 31  0  0  1  0  0  0  0  0999 V2000
    9.6062  -18.4960   20.4520 N   0  0  0  0  0  0  0  0  0  0  0  0
   10.8384  -17.7799   20.6907 C   0  0  1  0  0  0  0  0  0  0  0  0
   11.6495  -17.5962   19.4312 C   0  0  0  0  0  0  0  0  0  0  0  0
   12.0908  -18.8621   18.8417 C   0  0  0  0  0  0  0  0  0  0  0  0
   11.7747  -19.9990   19.2762 O   0  0  0  0  0  0  0  0  0  0  0  0
   10.5934  -16.4869   21.3819 C   0  0  0  0  0  0  0  0  0  0  0  0
   11.5944  -15.7927   21.6978 O   0  0  0  0  0  0  0  0  0  0  0  0
   12.9147  -18.8136   17.7266 O   0  0  0  0  0  0  0  0  0  0  0  0
    9.3210  -15.9967   21.7012 N   0  0  0  0  0  0  0  0  0  0  0  0
    9.1357  -14.6711   22.2582 C   0  0  1  0  0  0  0  0  0  0  0  0
    7.8402  -14.0438   21.7439 C   0  0  0  0  0  0  0  0  0  0  0  0
    7.7436  -14.0719   20.2836 C   0  0  0  0  0  0  0  0  0  0  0  0
    8.0836  -13.0578   19.4172 C   0  0  0  0  0  0  0  0  0  0  0  0
    7.8466  -13.4796   18.1499 N   0  0  0  0  0  0  0  0  0  0  0  0
    7.3670  -14.7331   18.2107 C   0  0  0  0  0  0  0  0  0  0  0  0
    7.3069  -15.0858   19.5019 N   0  0  0  0  0  0  0  0  0  0  0  0
    9.0278  -14.7050   23.7342 C   0  0  0  0  0  0  0  0  0  0  0  0
    8.7987  -13.6341   24.3378 O   0  0  0  0  0  0  0  0  0  0  0  0
    9.1723  -15.8911   24.4858 N   0  0  0  0  0  0  0  0  0  0  0  0
    9.0485  -15.8288   25.9490 C   0  0  1  0  0  0  0  0  0  0  0  0
    7.6419  -15.5520   26.3615 C   0  0  0  0  0  0  0  0  0  0  0  0
    7.2987  -14.1140   26.3811 C   0  0  0  0  0  0  0  0  0  0  0  0
    6.1830  -13.6491   25.7083 C   0  0  0  0  0  0  0  0  0  0  0  0
    5.8138  -12.3137   25.6971 C   0  0  0  0  0  0  0  0  0  0  0  0
    6.5910  -11.4130   26.3849 C   0  0  0  0  0  0  0  0  0  0  0  0
    7.7071  -11.8529   27.0622 C   0  0  0  0  0  0  0  0  0  0  0  0
    8.0642  -13.1824   27.0663 C   0  0  0  0  0  0  0  0  0  0  0  0
    9.6196  -17.0663   26.4953 C   0  0  0  0  0  0  0  0  0  0  0  0
    9.7558  -17.3173   27.8533 O   0  0  0  0  0  0  0  0  0  0  0  0
   10.0131  -17.9607   25.7101 O   0  0  0  0  0  0  0  0  0  0  0  0
  2  1  1  6
  2  3  1  0
  4  3  1  0
  4  5  2  0
  6  2  1  0
  6  7  2  0
  8  4  1  0
  9  6  1  0
 10  9  1  0
 11 12  1  0
 10 11  1  6
 12 16  1  0
 13 12  2  0
 13 14  1  0
 14 15  1  0
 16 15  2  0
 17 10  1  0
 18 17  2  0
 19 17  1  0
 20 19  1  0
 20 28  1  0
 20 21  1  6
 22 21  1  0
 23 22  2  0
 24 23  1  0
 25 26  1  0
 25 24  2  0
 26 27  2  0
 27 22  1  0
 28 29  1  0
 30 28  2  0
M  END
$$$$
