YEN.pdb
     RDKit          3D

 30 30  0  0  1  0  0  0  0  0999 V2000
   19.3244   -9.8054  -15.6500 O   0  0  0  0  0  0  0  0  0  0  0  0
   19.3866  -11.1809  -15.8173 C   0  0  0  0  0  0  0  0  0  0  0  0
   19.2652  -11.9970  -14.6977 C   0  0  0  0  0  0  0  0  0  0  0  0
   19.3287  -13.3606  -14.8784 C   0  0  0  0  0  0  0  0  0  0  0  0
   19.5083  -13.8680  -16.1473 C   0  0  0  0  0  0  0  0  0  0  0  0
   19.5727  -15.3287  -16.3214 C   0  0  0  0  0  0  0  0  0  0  0  0
   21.0245  -15.8002  -16.1595 C   0  0  2  0  0  0  0  0  0  0  0  0
   21.7392  -15.3498  -17.3612 N   0  0  0  0  0  0  0  0  0  0  0  0
   20.9521  -17.2906  -16.1306 C   0  0  0  0  0  0  0  0  0  0  0  0
   20.5048  -17.8475  -17.1658 O   0  0  0  0  0  0  0  0  0  0  0  0
   19.6284  -13.0610  -17.2545 C   0  0  0  0  0  0  0  0  0  0  0  0
   19.5655  -11.6991  -17.0780 C   0  0  0  0  0  0  0  0  0  0  0  0
   21.3713  -17.9660  -14.9923 N   0  0  0  0  0  0  0  0  0  0  0  0
   21.3834  -19.4549  -14.9925 C   0  0  1  0  0  0  0  0  0  0  0  0
   22.6231  -19.8881  -14.2737 C   0  0  0  0  0  0  0  0  0  0  0  0
   23.5552  -20.6519  -15.1480 C   0  0  0  0  0  0  0  0  0  0  0  0
   24.5203  -19.8085  -15.8990 C   0  0  0  0  0  0  0  0  0  0  0  0
   24.5524  -18.5766  -15.6549 O   0  0  0  0  0  0  0  0  0  0  0  0
   20.1856  -19.8923  -14.2440 C   0  0  0  0  0  0  0  0  0  0  0  0
   20.0286  -19.4291  -13.0660 O   0  0  0  0  0  0  0  0  0  0  0  0
   25.3806  -20.3116  -16.8504 O   0  0  0  0  0  0  0  0  0  0  0  0
   16.6364  -19.4329  -12.4983 N   0  0  0  0  0  0  0  0  0  0  0  0
   16.1236  -19.6480  -13.8042 C   0  0  0  0  0  0  0  0  0  0  0  0
   15.0474  -19.0659  -14.0846 O   0  0  0  0  0  0  0  0  0  0  0  0
   16.8608  -20.5182  -14.7338 C   0  0  0  0  0  0  0  0  0  0  0  0
   18.0549  -21.1371  -14.0213 C   0  0  2  0  0  0  0  0  0  0  0  0
   19.2377  -20.7736  -14.7836 N   0  0  0  0  0  0  0  0  0  0  0  0
   17.8717  -22.6015  -13.8830 C   0  0  0  0  0  0  0  0  0  0  0  0
   17.2353  -23.2109  -12.8222 O   0  0  0  0  0  0  0  0  0  0  0  0
   18.3368  -23.3160  -14.8089 O   0  0  0  0  0  0  0  0  0  0  0  0
  2  1  1  0
  3  2  2  0
  4  3  1  0
  5  4  2  0
  5 11  1  0
  6  5  1  0
  7  8  1  6
  7  6  1  0
  9  7  1  0
 10  9  2  0
 11 12  2  0
 12  2  1  0
 13  9  1  0
 14 13  1  0
 14 15  1  1
 15 16  1  0
 17 16  1  0
 17 18  2  0
 19 14  1  0
 20 19  2  0
 21 17  1  0
 22 23  1  0
 23 24  2  0
 25 23  1  0
 26 25  1  6
 26 27  1  0
 27 19  1  0
 28 26  1  0
 28 29  1  0
 30 28  2  0
M  END
$$$$
