YEN.pdb
     RDKit          3D

 30 30  0  0  1  0  0  0  0  0999 V2000
   28.7921  -20.1198   -3.5620 O   0  0  0  0  0  0  0  0  0  0  0  0
   28.3484  -20.0392   -4.8736 C   0  0  0  0  0  0  0  0  0  0  0  0
   29.1998  -19.5074   -5.8363 C   0  0  0  0  0  0  0  0  0  0  0  0
   28.7464  -19.4335   -7.1343 C   0  0  0  0  0  0  0  0  0  0  0  0
   27.4788  -19.8831   -7.4356 C   0  0  0  0  0  0  0  0  0  0  0  0
   27.0115  -19.7971   -8.8293 C   0  0  0  0  0  0  0  0  0  0  0  0
   27.4220  -21.0678   -9.5863 C   0  0  2  0  0  0  0  0  0  0  0  0
   28.8841  -21.0144   -9.7164 N   0  0  0  0  0  0  0  0  0  0  0  0
   26.7799  -20.9496  -10.9284 C   0  0  0  0  0  0  0  0  0  0  0  0
   27.1867  -20.0114  -11.6606 O   0  0  0  0  0  0  0  0  0  0  0  0
   26.6367  -20.4089   -6.4838 C   0  0  0  0  0  0  0  0  0  0  0  0
   27.0859  -20.4844   -5.1867 C   0  0  0  0  0  0  0  0  0  0  0  0
   25.7935  -21.8579  -11.2884 N   0  0  0  0  0  0  0  0  0  0  0  0
   25.2042  -21.7890  -12.6540 C   0  0  1  0  0  0  0  0  0  0  0  0
   24.9568  -23.1960  -13.1014 C   0  0  0  0  0  0  0  0  0  0  0  0
   24.3285  -23.2667  -14.4494 C   0  0  0  0  0  0  0  0  0  0  0  0
   24.0260  -24.6453  -14.9125 C   0  0  0  0  0  0  0  0  0  0  0  0
   22.8288  -24.9485  -15.1426 O   0  0  0  0  0  0  0  0  0  0  0  0
   23.9212  -21.0646  -12.5300 C   0  0  0  0  0  0  0  0  0  0  0  0
   23.7936  -20.2619  -11.5470 O   0  0  0  0  0  0  0  0  0  0  0  0
   24.9943  -25.6072  -15.1010 O   0  0  0  0  0  0  0  0  0  0  0  0
   20.6810  -17.8872  -14.5176 N   0  0  0  0  0  0  0  0  0  0  0  0
   22.0853  -17.8460  -14.7202 C   0  0  0  0  0  0  0  0  0  0  0  0
   22.5468  -16.7912  -15.2202 O   0  0  0  0  0  0  0  0  0  0  0  0
   22.9024  -19.0102  -14.3435 C   0  0  0  0  0  0  0  0  0  0  0  0
   22.0083  -20.1047  -13.7786 C   0  0  2  0  0  0  0  0  0  0  0  0
   22.8709  -21.2259  -13.4451 N   0  0  0  0  0  0  0  0  0  0  0  0
   20.9415  -20.4516  -14.7474 C   0  0  0  0  0  0  0  0  0  0  0  0
   20.9543  -21.5702  -15.5538 O   0  0  0  0  0  0  0  0  0  0  0  0
   19.9688  -19.6563  -14.8209 O   0  0  0  0  0  0  0  0  0  0  0  0
  2  1  1  0
  3  2  2  0
  4  3  1  0
  5  4  2  0
  5 11  1  0
  6  5  1  0
  7  8  1  6
  7  6  1  0
  9  7  1  0
 10  9  2  0
 11 12  2  0
 12  2  1  0
 13  9  1  0
 14 13  1  0
 14 15  1  1
 15 16  1  0
 17 16  1  0
 17 18  2  0
 19 14  1  0
 20 19  2  0
 21 17  1  0
 22 23  1  0
 23 24  2  0
 25 23  1  0
 26 25  1  6
 26 27  1  0
 27 19  1  0
 28 26  1  0
 28 29  1  0
 30 28  2  0
M  END
$$$$
