YEN.pdb
     RDKit          3D

 30 30  0  0  1  0  0  0  0  0999 V2000
   24.4913  -11.8128  -21.1281 O   0  0  0  0  0  0  0  0  0  0  0  0
   23.7052  -12.8688  -20.6915 C   0  0  0  0  0  0  0  0  0  0  0  0
   23.3086  -13.8328  -21.6123 C   0  0  0  0  0  0  0  0  0  0  0  0
   22.5286  -14.8756  -21.1651 C   0  0  0  0  0  0  0  0  0  0  0  0
   22.1695  -14.9312  -19.8355 C   0  0  0  0  0  0  0  0  0  0  0  0
   21.3360  -16.0544  -19.3752 C   0  0  0  0  0  0  0  0  0  0  0  0
   22.2369  -17.1682  -18.8239 C   0  0  2  0  0  0  0  0  0  0  0  0
   22.8702  -17.7993  -19.9894 N   0  0  0  0  0  0  0  0  0  0  0  0
   21.3095  -18.1290  -18.1574 C   0  0  0  0  0  0  0  0  0  0  0  0
   20.6595  -18.8938  -18.9153 O   0  0  0  0  0  0  0  0  0  0  0  0
   22.5616  -13.9780  -18.9249 C   0  0  0  0  0  0  0  0  0  0  0  0
   23.3405  -12.9353  -19.3677 C   0  0  0  0  0  0  0  0  0  0  0  0
   21.2159  -18.1280  -16.7722 N   0  0  0  0  0  0  0  0  0  0  0  0
   20.3024  -19.0954  -16.1038 C   0  0  1  0  0  0  0  0  0  0  0  0
   20.8706  -19.3771  -14.7477 C   0  0  0  0  0  0  0  0  0  0  0  0
   20.0566  -20.3576  -13.9777 C   0  0  0  0  0  0  0  0  0  0  0  0
   20.6168  -20.7077  -12.6472 C   0  0  0  0  0  0  0  0  0  0  0  0
   20.0089  -21.5561  -11.9480 O   0  0  0  0  0  0  0  0  0  0  0  0
   18.9909  -18.4250  -15.9735 C   0  0  0  0  0  0  0  0  0  0  0  0
   18.9921  -17.1940  -15.6396 O   0  0  0  0  0  0  0  0  0  0  0  0
   21.7697  -20.1466  -12.1429 O   0  0  0  0  0  0  0  0  0  0  0  0
   14.2011  -16.2764  -17.7578 N   0  0  0  0  0  0  0  0  0  0  0  0
   15.4819  -16.5938  -17.2347 C   0  0  0  0  0  0  0  0  0  0  0  0
   16.1274  -15.6459  -16.7245 O   0  0  0  0  0  0  0  0  0  0  0  0
   15.9708  -17.9791  -17.3165 C   0  0  0  0  0  0  0  0  0  0  0  0
   16.5132  -18.4136  -15.9624 C   0  0  2  0  0  0  0  0  0  0  0  0
   17.7773  -19.0870  -16.2090 N   0  0  0  0  0  0  0  0  0  0  0  0
   15.5230  -19.2620  -15.2574 C   0  0  0  0  0  0  0  0  0  0  0  0
   15.7268  -20.5841  -14.9228 O   0  0  0  0  0  0  0  0  0  0  0  0
   14.4300  -18.7164  -14.9545 O   0  0  0  0  0  0  0  0  0  0  0  0
  2  1  1  0
  3  2  2  0
  4  3  1  0
  5  4  2  0
  5 11  1  0
  6  5  1  0
  7  8  1  6
  7  6  1  0
  9  7  1  0
 10  9  2  0
 11 12  2  0
 12  2  1  0
 13  9  1  0
 14 13  1  0
 14 15  1  1
 15 16  1  0
 17 16  1  0
 17 18  2  0
 19 14  1  0
 20 19  2  0
 21 17  1  0
 22 23  1  0
 23 24  2  0
 25 23  1  0
 26 25  1  6
 26 27  1  0
 27 19  1  0
 28 26  1  0
 28 29  1  0
 30 28  2  0
M  END
$$$$
