YEN.pdb
     RDKit          3D

 30 30  0  0  1  0  0  0  0  0999 V2000
   49.9689  -14.8241   -4.6804 O   0  0  0  0  0  0  0  0  0  0  0  0
   49.3133  -13.9108   -5.4927 C   0  0  0  0  0  0  0  0  0  0  0  0
   49.9857  -13.3919   -6.5940 C   0  0  0  0  0  0  0  0  0  0  0  0
   49.3229  -12.4863   -7.3918 C   0  0  0  0  0  0  0  0  0  0  0  0
   48.0298  -12.1266   -7.0782 C   0  0  0  0  0  0  0  0  0  0  0  0
   47.3365  -11.1577   -7.9434 C   0  0  0  0  0  0  0  0  0  0  0  0
   46.3272  -11.8965   -8.8332 C   0  0  2  0  0  0  0  0  0  0  0  0
   47.1178  -12.7486   -9.7313 N   0  0  0  0  0  0  0  0  0  0  0  0
   45.6353  -10.8280   -9.6123 C   0  0  0  0  0  0  0  0  0  0  0  0
   46.2546  -10.3743  -10.6086 O   0  0  0  0  0  0  0  0  0  0  0  0
   47.3647  -12.6397   -5.9891 C   0  0  0  0  0  0  0  0  0  0  0  0
   48.0233  -13.5442   -5.1903 C   0  0  0  0  0  0  0  0  0  0  0  0
   44.3774  -10.4025   -9.2069 N   0  0  0  0  0  0  0  0  0  0  0  0
   43.6329   -9.4263  -10.0494 C   0  0  1  0  0  0  0  0  0  0  0  0
   42.4473  -10.1435  -10.6160 C   0  0  0  0  0  0  0  0  0  0  0  0
   42.7886  -10.9559  -11.8161 C   0  0  0  0  0  0  0  0  0  0  0  0
   41.6223  -11.6044  -12.4687 C   0  0  0  0  0  0  0  0  0  0  0  0
   41.3847  -12.8095  -12.2053 O   0  0  0  0  0  0  0  0  0  0  0  0
   43.1855   -8.3403   -9.1512 C   0  0  0  0  0  0  0  0  0  0  0  0
   42.3958   -8.6539   -8.1999 O   0  0  0  0  0  0  0  0  0  0  0  0
   40.7897  -10.9487  -13.3491 O   0  0  0  0  0  0  0  0  0  0  0  0
   44.0616   -2.7263   -7.3980 N   0  0  0  0  0  0  0  0  0  0  0  0
   43.7960   -4.0798   -7.0631 C   0  0  0  0  0  0  0  0  0  0  0  0
   43.1652   -4.2777   -5.9961 O   0  0  0  0  0  0  0  0  0  0  0  0
   44.2616   -5.1490   -7.9602 C   0  0  0  0  0  0  0  0  0  0  0  0
   43.0736   -5.9684   -8.4435 C   0  0  2  0  0  0  0  0  0  0  0  0
   43.6017   -7.0104   -9.3081 N   0  0  0  0  0  0  0  0  0  0  0  0
   42.0820   -5.0944   -9.1143 C   0  0  0  0  0  0  0  0  0  0  0  0
   41.0215   -4.4859   -8.4767 O   0  0  0  0  0  0  0  0  0  0  0  0
   42.2397   -4.9103  -10.3493 O   0  0  0  0  0  0  0  0  0  0  0  0
  2  1  1  0
  3  2  2  0
  4  3  1  0
  5  4  2  0
  5 11  1  0
  6  5  1  0
  7  8  1  6
  7  6  1  0
  9  7  1  0
 10  9  2  0
 11 12  2  0
 12  2  1  0
 13  9  1  0
 14 13  1  0
 14 15  1  1
 15 16  1  0
 17 16  1  0
 17 18  2  0
 19 14  1  0
 20 19  2  0
 21 17  1  0
 22 23  1  0
 23 24  2  0
 25 23  1  0
 26 25  1  6
 26 27  1  0
 27 19  1  0
 28 26  1  0
 28 29  1  0
 30 28  2  0
M  END
$$$$
