YEN.pdb
     RDKit          3D

 30 30  0  0  1  0  0  0  0  0999 V2000
   20.0917  -12.7144  -18.6365 O   0  0  0  0  0  0  0  0  0  0  0  0
   19.8360  -11.4708  -18.0781 C   0  0  0  0  0  0  0  0  0  0  0  0
   20.7578  -10.4478  -18.2728 C   0  0  0  0  0  0  0  0  0  0  0  0
   20.4912   -9.2184  -17.7129 C   0  0  0  0  0  0  0  0  0  0  0  0
   19.3335   -9.0420  -16.9860 C   0  0  0  0  0  0  0  0  0  0  0  0
   19.0646   -7.7201  -16.3956 C   0  0  0  0  0  0  0  0  0  0  0  0
   20.2415   -7.3107  -15.4992 C   0  0  2  0  0  0  0  0  0  0  0  0
   20.1473   -8.1422  -14.2919 N   0  0  0  0  0  0  0  0  0  0  0  0
   19.9963   -5.8783  -15.1595 C   0  0  0  0  0  0  0  0  0  0  0  0
   19.3517   -5.6582  -14.1022 O   0  0  0  0  0  0  0  0  0  0  0  0
   18.4218  -10.0535  -16.7933 C   0  0  0  0  0  0  0  0  0  0  0  0
   18.6846  -11.2823  -17.3509 C   0  0  0  0  0  0  0  0  0  0  0  0
   20.4800   -4.8902  -16.0064 N   0  0  0  0  0  0  0  0  0  0  0  0
   20.3512   -3.4617  -15.6064 C   0  0  1  0  0  0  0  0  0  0  0  0
   21.3914   -2.6945  -16.3617 C   0  0  0  0  0  0  0  0  0  0  0  0
   21.3760   -1.2405  -16.0417 C   0  0  0  0  0  0  0  0  0  0  0  0
   22.4240   -0.4494  -16.7363 C   0  0  0  0  0  0  0  0  0  0  0  0
   22.1495    0.0538  -17.8542 O   0  0  0  0  0  0  0  0  0  0  0  0
   19.0005   -3.0226  -16.0177 C   0  0  0  0  0  0  0  0  0  0  0  0
   18.4319   -3.6748  -16.9548 O   0  0  0  0  0  0  0  0  0  0  0  0
   23.6822   -0.2417  -16.2145 O   0  0  0  0  0  0  0  0  0  0  0  0
   14.3957   -1.3028  -16.4705 N   0  0  0  0  0  0  0  0  0  0  0  0
   14.7268   -2.5539  -15.8874 C   0  0  0  0  0  0  0  0  0  0  0  0
   13.7878   -3.3774  -15.7615 O   0  0  0  0  0  0  0  0  0  0  0  0
   16.1149   -2.8112  -15.4731 C   0  0  0  0  0  0  0  0  0  0  0  0
   16.9813   -1.6033  -15.7998 C   0  0  2  0  0  0  0  0  0  0  0  0
   18.3414   -1.9414  -15.4151 N   0  0  0  0  0  0  0  0  0  0  0  0
   16.4607   -0.3947  -15.1177 C   0  0  0  0  0  0  0  0  0  0  0  0
   15.8506    0.6616  -15.7608 O   0  0  0  0  0  0  0  0  0  0  0  0
   16.5963   -0.3528  -13.8671 O   0  0  0  0  0  0  0  0  0  0  0  0
  2  1  1  0
  3  2  2  0
  4  3  1  0
  5  4  2  0
  5 11  1  0
  6  5  1  0
  7  8  1  1
  7  6  1  0
  9  7  1  0
 10  9  2  0
 11 12  2  0
 12  2  1  0
 13  9  1  0
 14 13  1  0
 14 15  1  6
 15 16  1  0
 17 16  1  0
 17 18  2  0
 19 14  1  0
 20 19  2  0
 21 17  1  0
 22 23  1  0
 23 24  2  0
 25 23  1  0
 26 25  1  1
 26 27  1  0
 27 19  1  0
 28 26  1  0
 28 29  1  0
 30 28  2  0
M  END
$$$$
