YEN.pdb
     RDKit          3D

 30 30  0  0  1  0  0  0  0  0999 V2000
   27.8336  -29.6644  -18.0552 O   0  0  0  0  0  0  0  0  0  0  0  0
   27.5862  -28.4004  -17.5405 C   0  0  0  0  0  0  0  0  0  0  0  0
   26.5796  -27.6303  -18.1132 C   0  0  0  0  0  0  0  0  0  0  0  0
   26.3447  -26.3776  -17.5922 C   0  0  0  0  0  0  0  0  0  0  0  0
   27.1049  -25.9312  -16.5327 C   0  0  0  0  0  0  0  0  0  0  0  0
   26.8387  -24.5894  -15.9880 C   0  0  0  0  0  0  0  0  0  0  0  0
   27.4549  -23.5301  -16.9123 C   0  0  2  0  0  0  0  0  0  0  0  0
   28.8904  -23.4992  -16.6023 N   0  0  0  0  0  0  0  0  0  0  0  0
   26.8136  -22.2422  -16.5155 C   0  0  0  0  0  0  0  0  0  0  0  0
   27.3748  -21.6015  -15.5901 O   0  0  0  0  0  0  0  0  0  0  0  0
   28.1004  -26.6927  -15.9662 C   0  0  0  0  0  0  0  0  0  0  0  0
   28.3377  -27.9440  -16.4837 C   0  0  0  0  0  0  0  0  0  0  0  0
   25.6616  -21.8301  -17.1717 N   0  0  0  0  0  0  0  0  0  0  0  0
   25.0665  -20.5072  -16.8360 C   0  0  1  0  0  0  0  0  0  0  0  0
   24.7918  -19.8039  -18.1286 C   0  0  0  0  0  0  0  0  0  0  0  0
   24.0929  -18.5034  -17.9363 C   0  0  0  0  0  0  0  0  0  0  0  0
   23.8174  -17.7641  -19.1950 C   0  0  0  0  0  0  0  0  0  0  0  0
   24.7903  -17.4281  -19.9151 O   0  0  0  0  0  0  0  0  0  0  0  0
   23.7973  -20.7767  -16.1270 C   0  0  0  0  0  0  0  0  0  0  0  0
   23.1576  -21.8318  -16.4504 O   0  0  0  0  0  0  0  0  0  0  0  0
   22.5471  -17.4285  -19.6100 O   0  0  0  0  0  0  0  0  0  0  0  0
   19.9355  -20.9366  -12.9437 N   0  0  0  0  0  0  0  0  0  0  0  0
   21.0754  -20.4873  -12.2271 C   0  0  0  0  0  0  0  0  0  0  0  0
   20.9743  -20.4616  -10.9762 O   0  0  0  0  0  0  0  0  0  0  0  0
   22.2814  -20.0867  -12.9687 C   0  0  0  0  0  0  0  0  0  0  0  0
   22.0407  -20.2413  -14.4636 C   0  0  2  0  0  0  0  0  0  0  0  0
   23.2948  -19.9298  -15.1286 N   0  0  0  0  0  0  0  0  0  0  0  0
   20.9154  -19.3795  -14.8973 C   0  0  0  0  0  0  0  0  0  0  0  0
   19.6049  -19.7978  -14.9930 O   0  0  0  0  0  0  0  0  0  0  0  0
   21.2003  -18.1897  -15.1929 O   0  0  0  0  0  0  0  0  0  0  0  0
  2  1  1  0
  3  2  2  0
  4  3  1  0
  5  4  2  0
  5 11  1  0
  6  5  1  0
  7  8  1  1
  7  6  1  0
  9  7  1  0
 10  9  2  0
 11 12  2  0
 12  2  1  0
 13  9  1  0
 14 13  1  0
 14 15  1  6
 15 16  1  0
 17 16  1  0
 17 18  2  0
 19 14  1  0
 20 19  2  0
 21 17  1  0
 22 23  1  0
 23 24  2  0
 25 23  1  0
 26 25  1  1
 26 27  1  0
 27 19  1  0
 28 26  1  0
 28 29  1  0
 30 28  2  0
M  END
$$$$
