YEN.pdb
     RDKit          3D

 30 30  0  0  1  0  0  0  0  0999 V2000
   16.2149  -23.3728    1.5636 O   0  0  0  0  0  0  0  0  0  0  0  0
   16.5463  -22.1550    2.1387 C   0  0  0  0  0  0  0  0  0  0  0  0
   17.1005  -22.1464    3.4143 C   0  0  0  0  0  0  0  0  0  0  0  0
   17.4248  -20.9305    3.9731 C   0  0  0  0  0  0  0  0  0  0  0  0
   17.1931  -19.7740    3.2599 C   0  0  0  0  0  0  0  0  0  0  0  0
   17.5473  -18.4829    3.8730 C   0  0  0  0  0  0  0  0  0  0  0  0
   16.3918  -18.0048    4.7632 C   0  0  2  0  0  0  0  0  0  0  0  0
   15.3664  -17.4734    3.8555 N   0  0  0  0  0  0  0  0  0  0  0  0
   16.9654  -16.9054    5.5937 C   0  0  0  0  0  0  0  0  0  0  0  0
   17.2033  -15.8230    4.9990 O   0  0  0  0  0  0  0  0  0  0  0  0
   16.6450  -19.7823    1.9984 C   0  0  0  0  0  0  0  0  0  0  0  0
   16.3200  -20.9945    1.4373 C   0  0  0  0  0  0  0  0  0  0  0  0
   17.1999  -17.1296    6.9437 N   0  0  0  0  0  0  0  0  0  0  0  0
   17.6749  -16.0052    7.7964 C   0  0  1  0  0  0  0  0  0  0  0  0
   16.5647  -15.6663    8.7418 C   0  0  0  0  0  0  0  0  0  0  0  0
   16.9066  -14.5328    9.6445 C   0  0  0  0  0  0  0  0  0  0  0  0
   15.7732  -14.0454   10.4719 C   0  0  0  0  0  0  0  0  0  0  0  0
   14.8265  -14.8353   10.7121 O   0  0  0  0  0  0  0  0  0  0  0  0
   18.8457  -16.5043    8.5490 C   0  0  0  0  0  0  0  0  0  0  0  0
   18.8698  -17.7459    8.8402 O   0  0  0  0  0  0  0  0  0  0  0  0
   15.7098  -12.7691   10.9873 O   0  0  0  0  0  0  0  0  0  0  0  0
   22.7939  -18.1191   10.3231 N   0  0  0  0  0  0  0  0  0  0  0  0
   23.1458  -17.2891    9.2267 C   0  0  0  0  0  0  0  0  0  0  0  0
   24.2398  -17.5400    8.6647 O   0  0  0  0  0  0  0  0  0  0  0  0
   22.2341  -16.2087    8.8189 C   0  0  0  0  0  0  0  0  0  0  0  0
   21.0080  -16.2027    9.7206 C   0  0  2  0  0  0  0  0  0  0  0  0
   19.9068  -15.6724    8.9342 N   0  0  0  0  0  0  0  0  0  0  0  0
   21.2775  -15.4257   10.9537 C   0  0  0  0  0  0  0  0  0  0  0  0
   22.1766  -15.7997   11.9301 O   0  0  0  0  0  0  0  0  0  0  0  0
   20.6299  -14.3560   11.0967 O   0  0  0  0  0  0  0  0  0  0  0  0
  2  1  1  0
  3  2  2  0
  4  3  1  0
  5  4  2  0
  5 11  1  0
  6  5  1  0
  7  8  1  6
  7  6  1  0
  9  7  1  0
 10  9  2  0
 11 12  2  0
 12  2  1  0
 13  9  1  0
 14 13  1  0
 14 15  1  1
 15 16  1  0
 17 16  1  0
 17 18  2  0
 19 14  1  0
 20 19  2  0
 21 17  1  0
 22 23  1  0
 23 24  2  0
 25 23  1  0
 26 25  1  6
 26 27  1  0
 27 19  1  0
 28 26  1  0
 28 29  1  0
 30 28  2  0
M  END
$$$$
