YEN.pdb
     RDKit          3D

 30 30  0  0  1  0  0  0  0  0999 V2000
   19.0101  -15.0572  -16.2182 O   0  0  0  0  0  0  0  0  0  0  0  0
   18.6790  -13.7112  -16.2676 C   0  0  0  0  0  0  0  0  0  0  0  0
   18.9021  -12.9258  -15.1418 C   0  0  0  0  0  0  0  0  0  0  0  0
   18.5689  -11.5912  -15.2048 C   0  0  0  0  0  0  0  0  0  0  0  0
   18.0312  -11.0816  -16.3671 C   0  0  0  0  0  0  0  0  0  0  0  0
   17.6820   -9.6520  -16.4164 C   0  0  0  0  0  0  0  0  0  0  0  0
   16.3968   -9.4108  -15.6125 C   0  0  2  0  0  0  0  0  0  0  0  0
   15.3651  -10.2603  -16.2222 N   0  0  0  0  0  0  0  0  0  0  0  0
   16.0682   -7.9700  -15.8210 C   0  0  0  0  0  0  0  0  0  0  0  0
   15.6424   -7.6543  -16.9615 O   0  0  0  0  0  0  0  0  0  0  0  0
   17.8105  -11.8582  -17.4806 C   0  0  0  0  0  0  0  0  0  0  0  0
   18.1420  -13.1911  -17.4213 C   0  0  0  0  0  0  0  0  0  0  0  0
   16.2451   -7.0775  -14.7722 N   0  0  0  0  0  0  0  0  0  0  0  0
   15.9271   -5.6379  -14.9803 C   0  0  1  0  0  0  0  0  0  0  0  0
   14.8109   -5.2909  -14.0450 C   0  0  0  0  0  0  0  0  0  0  0  0
   14.3946   -3.8655  -14.1532 C   0  0  0  0  0  0  0  0  0  0  0  0
   13.3169   -3.4689  -13.2109 C   0  0  0  0  0  0  0  0  0  0  0  0
   12.8689   -2.2971  -13.2753 O   0  0  0  0  0  0  0  0  0  0  0  0
   17.1424   -4.8755  -14.6225 C   0  0  0  0  0  0  0  0  0  0  0  0
   17.9705   -5.4313  -13.8274 O   0  0  0  0  0  0  0  0  0  0  0  0
   12.7859   -4.3235  -12.2695 O   0  0  0  0  0  0  0  0  0  0  0  0
   21.9788   -3.5960  -14.1679 N   0  0  0  0  0  0  0  0  0  0  0  0
   21.0688   -3.1052  -15.1404 C   0  0  0  0  0  0  0  0  0  0  0  0
   21.4345   -2.0938  -15.7875 O   0  0  0  0  0  0  0  0  0  0  0  0
   19.7806   -3.7897  -15.3323 C   0  0  0  0  0  0  0  0  0  0  0  0
   18.6512   -2.9182  -14.8018 C   0  0  2  0  0  0  0  0  0  0  0  0
   17.4064   -3.5940  -15.1272 N   0  0  0  0  0  0  0  0  0  0  0  0
   18.7437   -1.5516  -15.3681 C   0  0  0  0  0  0  0  0  0  0  0  0
   19.3729   -0.4921  -14.7492 O   0  0  0  0  0  0  0  0  0  0  0  0
   18.2039   -1.3707  -16.4906 O   0  0  0  0  0  0  0  0  0  0  0  0
  2  1  1  0
  3  2  2  0
  4  3  1  0
  5  4  2  0
  5 11  1  0
  6  5  1  0
  7  8  1  6
  7  6  1  0
  9  7  1  0
 10  9  2  0
 11 12  2  0
 12  2  1  0
 13  9  1  0
 14 13  1  0
 14 15  1  1
 15 16  1  0
 17 16  1  0
 17 18  2  0
 19 14  1  0
 20 19  2  0
 21 17  1  0
 22 23  1  0
 23 24  2  0
 25 23  1  0
 26 25  1  6
 26 27  1  0
 27 19  1  0
 28 26  1  0
 28 29  1  0
 30 28  2  0
M  END
$$$$
