YEN.pdb
     RDKit          3D

 30 30  0  0  1  0  0  0  0  0999 V2000
   28.4873  -20.0261   -5.5861 O   0  0  0  0  0  0  0  0  0  0  0  0
   28.0763  -20.0705   -6.9100 C   0  0  0  0  0  0  0  0  0  0  0  0
   29.0165  -20.3608   -7.8929 C   0  0  0  0  0  0  0  0  0  0  0  0
   28.5947  -20.4018   -9.2029 C   0  0  0  0  0  0  0  0  0  0  0  0
   27.2703  -20.1570   -9.4960 C   0  0  0  0  0  0  0  0  0  0  0  0
   26.8372  -20.2062  -10.9025 C   0  0  0  0  0  0  0  0  0  0  0  0
   26.1864  -21.5663  -11.1904 C   0  0  2  0  0  0  0  0  0  0  0  0
   27.2752  -22.4655  -11.5951 N   0  0  0  0  0  0  0  0  0  0  0  0
   25.2635  -21.3245  -12.3382 C   0  0  0  0  0  0  0  0  0  0  0  0
   25.7802  -21.3513  -13.4845 O   0  0  0  0  0  0  0  0  0  0  0  0
   26.3404  -19.8699   -8.5241 C   0  0  0  0  0  0  0  0  0  0  0  0
   26.7579  -19.8281   -7.2150 C   0  0  0  0  0  0  0  0  0  0  0  0
   23.9187  -21.0890  -12.0864 N   0  0  0  0  0  0  0  0  0  0  0  0
   22.9455  -21.1533  -13.2115 C   0  0  1  0  0  0  0  0  0  0  0  0
   21.7784  -21.9649  -12.7421 C   0  0  0  0  0  0  0  0  0  0  0  0
   20.7183  -22.0973  -13.7791 C   0  0  0  0  0  0  0  0  0  0  0  0
   19.5825  -22.9703  -13.3859 C   0  0  0  0  0  0  0  0  0  0  0  0
   18.5752  -23.0130  -14.1353 O   0  0  0  0  0  0  0  0  0  0  0  0
   22.5180  -19.7649  -13.4870 C   0  0  0  0  0  0  0  0  0  0  0  0
   22.2134  -19.0354  -12.4859 O   0  0  0  0  0  0  0  0  0  0  0  0
   19.5801  -23.7341  -12.2392 O   0  0  0  0  0  0  0  0  0  0  0  0
   21.1416  -15.4289  -15.7198 N   0  0  0  0  0  0  0  0  0  0  0  0
   21.8791  -16.1332  -16.7070 C   0  0  0  0  0  0  0  0  0  0  0  0
   22.1040  -15.5205  -17.7792 O   0  0  0  0  0  0  0  0  0  0  0  0
   22.3282  -17.5064  -16.4282 C   0  0  0  0  0  0  0  0  0  0  0  0
   21.9451  -17.8940  -15.0072 C   0  0  2  0  0  0  0  0  0  0  0  0
   22.4481  -19.2393  -14.7852 N   0  0  0  0  0  0  0  0  0  0  0  0
   20.4799  -17.7754  -14.8166 C   0  0  0  0  0  0  0  0  0  0  0  0
   19.8648  -16.7621  -14.1122 O   0  0  0  0  0  0  0  0  0  0  0  0
   19.7704  -18.6720  -15.3427 O   0  0  0  0  0  0  0  0  0  0  0  0
  2  1  1  0
  3  2  2  0
  4  3  1  0
  5  4  2  0
  5 11  1  0
  6  5  1  0
  7  8  1  6
  7  6  1  0
  9  7  1  0
 10  9  2  0
 11 12  2  0
 12  2  1  0
 13  9  1  0
 14 13  1  0
 14 15  1  1
 15 16  1  0
 17 16  1  0
 17 18  2  0
 19 14  1  0
 20 19  2  0
 21 17  1  0
 22 23  1  0
 23 24  2  0
 25 23  1  0
 26 25  1  6
 26 27  1  0
 27 19  1  0
 28 26  1  0
 28 29  1  0
 30 28  2  0
M  END
$$$$
