YEN.pdb
     RDKit          3D

 30 30  0  0  1  0  0  0  0  0999 V2000
   24.5476  -16.6359  -21.3207 O   0  0  0  0  0  0  0  0  0  0  0  0
   23.6885  -16.5005  -20.2403 C   0  0  0  0  0  0  0  0  0  0  0  0
   22.3953  -17.0012  -20.3472 C   0  0  0  0  0  0  0  0  0  0  0  0
   21.5532  -16.8600  -19.2670 C   0  0  0  0  0  0  0  0  0  0  0  0
   22.0120  -16.2347  -18.1276 C   0  0  0  0  0  0  0  0  0  0  0  0
   21.0977  -16.0938  -16.9821 C   0  0  0  0  0  0  0  0  0  0  0  0
   20.1477  -14.9133  -17.2274 C   0  0  2  0  0  0  0  0  0  0  0  0
   20.9533  -13.6962  -17.0615 N   0  0  0  0  0  0  0  0  0  0  0  0
   19.1218  -15.0042  -16.1473 C   0  0  0  0  0  0  0  0  0  0  0  0
   19.4665  -14.5822  -15.0137 O   0  0  0  0  0  0  0  0  0  0  0  0
   23.2908  -15.7395  -18.0218 C   0  0  0  0  0  0  0  0  0  0  0  0
   24.1345  -15.8786  -19.0982 C   0  0  0  0  0  0  0  0  0  0  0  0
   17.8738  -15.5358  -16.4431 N   0  0  0  0  0  0  0  0  0  0  0  0
   16.8334  -15.5858  -15.3792 C   0  0  1  0  0  0  0  0  0  0  0  0
   15.7007  -14.7147  -15.8256 C   0  0  0  0  0  0  0  0  0  0  0  0
   14.5873  -14.6714  -14.8381 C   0  0  0  0  0  0  0  0  0  0  0  0
   13.4265  -13.8459  -15.2597 C   0  0  0  0  0  0  0  0  0  0  0  0
   13.5058  -12.5981  -15.1381 O   0  0  0  0  0  0  0  0  0  0  0  0
   16.3843  -16.9915  -15.2861 C   0  0  0  0  0  0  0  0  0  0  0  0
   16.7792  -17.7947  -16.1948 O   0  0  0  0  0  0  0  0  0  0  0  0
   12.2674  -14.3825  -15.7765 O   0  0  0  0  0  0  0  0  0  0  0  0
   18.1385  -21.0696  -13.1427 N   0  0  0  0  0  0  0  0  0  0  0  0
   17.4773  -20.0392  -12.4246 C   0  0  0  0  0  0  0  0  0  0  0  0
   17.1632  -20.2988  -11.2373 O   0  0  0  0  0  0  0  0  0  0  0  0
   17.2029  -18.7571  -13.0922 C   0  0  0  0  0  0  0  0  0  0  0  0
   15.7912  -18.7653  -13.6609 C   0  0  2  0  0  0  0  0  0  0  0  0
   15.5636  -17.4553  -14.2478 N   0  0  0  0  0  0  0  0  0  0  0  0
   14.8111  -19.1147  -12.6052 C   0  0  0  0  0  0  0  0  0  0  0  0
   14.0590  -18.1955  -11.9046 O   0  0  0  0  0  0  0  0  0  0  0  0
   14.6739  -20.3393  -12.3488 O   0  0  0  0  0  0  0  0  0  0  0  0
  2  1  1  0
  3  2  2  0
  4  3  1  0
  5  4  2  0
  5 11  1  0
  6  5  1  0
  7  8  1  1
  7  6  1  0
  9  7  1  0
 10  9  2  0
 11 12  2  0
 12  2  1  0
 13  9  1  0
 14 13  1  0
 14 15  1  6
 15 16  1  0
 17 16  1  0
 17 18  2  0
 19 14  1  0
 20 19  2  0
 21 17  1  0
 22 23  1  0
 23 24  2  0
 25 23  1  0
 26 25  1  1
 26 27  1  0
 27 19  1  0
 28 26  1  0
 28 29  1  0
 30 28  2  0
M  END
$$$$
