YEN.pdb
     RDKit          3D

 30 30  0  0  1  0  0  0  0  0999 V2000
   20.8743  -18.0521  -14.9767 O   0  0  0  0  0  0  0  0  0  0  0  0
   20.7835  -16.7495  -15.4443 C   0  0  0  0  0  0  0  0  0  0  0  0
   20.5259  -15.7289  -14.5352 C   0  0  0  0  0  0  0  0  0  0  0  0
   20.4385  -14.4406  -15.0132 C   0  0  0  0  0  0  0  0  0  0  0  0
   20.6068  -14.2052  -16.3608 C   0  0  0  0  0  0  0  0  0  0  0  0
   20.5109  -12.8210  -16.8536 C   0  0  0  0  0  0  0  0  0  0  0  0
   19.0337  -12.4234  -16.9794 C   0  0  2  0  0  0  0  0  0  0  0  0
   18.4550  -13.3092  -17.9984 N   0  0  0  0  0  0  0  0  0  0  0  0
   19.0471  -11.0136  -17.4688 C   0  0  0  0  0  0  0  0  0  0  0  0
   19.1425  -10.8559  -18.7129 O   0  0  0  0  0  0  0  0  0  0  0  0
   20.8615  -15.2144  -17.2599 C   0  0  0  0  0  0  0  0  0  0  0  0
   20.9495  -16.5020  -16.7864 C   0  0  0  0  0  0  0  0  0  0  0  0
   18.9558   -9.9776  -16.5490 N   0  0  0  0  0  0  0  0  0  0  0  0
   18.9008   -8.5725  -17.0385 C   0  0  1  0  0  0  0  0  0  0  0  0
   17.4759   -8.2826  -17.3944 C   0  0  0  0  0  0  0  0  0  0  0  0
   16.5418   -8.5217  -16.2599 C   0  0  0  0  0  0  0  0  0  0  0  0
   15.1430   -8.0932  -16.5175 C   0  0  0  0  0  0  0  0  0  0  0  0
   14.2856   -8.2827  -15.6192 O   0  0  0  0  0  0  0  0  0  0  0  0
   19.3269   -7.7112  -15.9147 C   0  0  0  0  0  0  0  0  0  0  0  0
   19.3296   -8.2275  -14.7484 O   0  0  0  0  0  0  0  0  0  0  0  0
   14.7406   -7.4993  -17.6938 O   0  0  0  0  0  0  0  0  0  0  0  0
   22.3073   -5.9178  -12.2744 N   0  0  0  0  0  0  0  0  0  0  0  0
   22.3266   -5.4859  -13.6264 C   0  0  0  0  0  0  0  0  0  0  0  0
   22.9551   -4.4260  -13.8652 O   0  0  0  0  0  0  0  0  0  0  0  0
   21.6278   -6.2821  -14.6475 C   0  0  0  0  0  0  0  0  0  0  0  0
   20.2961   -5.6281  -14.9870 C   0  0  2  0  0  0  0  0  0  0  0  0
   19.7257   -6.3787  -16.0931 N   0  0  0  0  0  0  0  0  0  0  0  0
   20.4892   -4.1900  -15.2899 C   0  0  0  0  0  0  0  0  0  0  0  0
   20.3051   -3.1701  -14.3804 O   0  0  0  0  0  0  0  0  0  0  0  0
   20.8454   -3.9058  -16.4631 O   0  0  0  0  0  0  0  0  0  0  0  0
  2  1  1  0
  3  2  2  0
  4  3  1  0
  5  4  2  0
  5 11  1  0
  6  5  1  0
  7  8  1  6
  7  6  1  0
  9  7  1  0
 10  9  2  0
 11 12  2  0
 12  2  1  0
 13  9  1  0
 14 13  1  0
 14 15  1  1
 15 16  1  0
 17 16  1  0
 17 18  2  0
 19 14  1  0
 20 19  2  0
 21 17  1  0
 22 23  1  0
 23 24  2  0
 25 23  1  0
 26 25  1  6
 26 27  1  0
 27 19  1  0
 28 26  1  0
 28 29  1  0
 30 28  2  0
M  END
$$$$
