YEN.pdb
     RDKit          3D

 30 30  0  0  1  0  0  0  0  0999 V2000
   31.8147  -31.4652  -17.8352 O   0  0  0  0  0  0  0  0  0  0  0  0
   30.5807  -31.6155  -17.2202 C   0  0  0  0  0  0  0  0  0  0  0  0
   30.4234  -32.6221  -16.2734 C   0  0  0  0  0  0  0  0  0  0  0  0
   29.1931  -32.7600  -15.6707 C   0  0  0  0  0  0  0  0  0  0  0  0
   28.1684  -31.9069  -16.0200 C   0  0  0  0  0  0  0  0  0  0  0  0
   26.8600  -32.0686  -15.3642 C   0  0  0  0  0  0  0  0  0  0  0  0
   26.0502  -33.1477  -16.0963 C   0  0  2  0  0  0  0  0  0  0  0  0
   25.3178  -32.4568  -17.1660 N   0  0  0  0  0  0  0  0  0  0  0  0
   25.0968  -33.6805  -15.0792 C   0  0  0  0  0  0  0  0  0  0  0  0
   23.9701  -33.1243  -15.0255 O   0  0  0  0  0  0  0  0  0  0  0  0
   28.3238  -30.9114  -16.9562 C   0  0  0  0  0  0  0  0  0  0  0  0
   29.5507  -30.7708  -17.5601 C   0  0  0  0  0  0  0  0  0  0  0  0
   25.4937  -34.7344  -14.2672 N   0  0  0  0  0  0  0  0  0  0  0  0
   24.5270  -35.3023  -13.2875 C   0  0  1  0  0  0  0  0  0  0  0  0
   24.4842  -36.7816  -13.5136 C   0  0  0  0  0  0  0  0  0  0  0  0
   23.6139  -37.4864  -12.5325 C   0  0  0  0  0  0  0  0  0  0  0  0
   24.3495  -38.3353  -11.5604 C   0  0  0  0  0  0  0  0  0  0  0  0
   25.0470  -39.2819  -12.0027 O   0  0  0  0  0  0  0  0  0  0  0  0
   25.0628  -35.0117  -11.9404 C   0  0  0  0  0  0  0  0  0  0  0  0
   26.3292  -35.0480  -11.7926 O   0  0  0  0  0  0  0  0  0  0  0  0
   24.3030  -38.1354  -10.1980 O   0  0  0  0  0  0  0  0  0  0  0  0
   25.5799  -31.3396   -7.6504 N   0  0  0  0  0  0  0  0  0  0  0  0
   25.8386  -32.5890   -8.2725 C   0  0  0  0  0  0  0  0  0  0  0  0
   26.6607  -33.3411   -7.6945 O   0  0  0  0  0  0  0  0  0  0  0  0
   25.1480  -32.9262   -9.5271 C   0  0  0  0  0  0  0  0  0  0  0  0
   24.8175  -34.4118   -9.5489 C   0  0  2  0  0  0  0  0  0  0  0  0
   24.2380  -34.6974  -10.8507 N   0  0  0  0  0  0  0  0  0  0  0  0
   23.9236  -34.7586   -8.4186 C   0  0  0  0  0  0  0  0  0  0  0  0
   23.3907  -33.8424   -7.5365 O   0  0  0  0  0  0  0  0  0  0  0  0
   23.6468  -35.9780   -8.2747 O   0  0  0  0  0  0  0  0  0  0  0  0
  2  1  1  0
  3  2  2  0
  4  3  1  0
  5  4  2  0
  5 11  1  0
  6  5  1  0
  7  8  1  6
  7  6  1  0
  9  7  1  0
 10  9  2  0
 11 12  2  0
 12  2  1  0
 13  9  1  0
 14 13  1  0
 14 15  1  6
 15 16  1  0
 17 16  1  0
 17 18  2  0
 19 14  1  0
 20 19  2  0
 21 17  1  0
 22 23  1  0
 23 24  2  0
 25 23  1  0
 26 25  1  6
 26 27  1  0
 27 19  1  0
 28 26  1  0
 28 29  1  0
 30 28  2  0
M  END
$$$$
