TDC.pdb
     RDKit          3D

 22 21  0  0  1  0  0  0  0  0999 V2000
    8.5828  -12.6017   20.2033 C   0  0  0  0  0  0  0  0  0  0  0  0
    7.8545  -13.6045   19.3378 C   0  0  1  0  0  0  0  0  0  0  0  0
    7.8995  -13.2609   18.0094 O   0  0  0  0  0  0  0  0  0  0  0  0
    8.3629  -15.0093   19.5573 C   0  0  2  0  0  0  0  0  0  0  0  0
    7.5325  -15.9344   18.7839 N   0  0  0  0  0  0  0  0  0  0  0  0
    8.3357  -15.4460   20.9577 C   0  0  0  0  0  0  0  0  0  0  0  0
    7.2408  -15.7052   21.5196 O   0  0  0  0  0  0  0  0  0  0  0  0
    9.5267  -15.5995   21.7492 N   0  0  0  0  0  0  0  0  0  0  0  0
    9.5300  -16.0053   23.1345 C   0  0  1  0  0  0  0  0  0  0  0  0
   10.8868  -16.5714   23.4609 C   0  0  0  0  0  0  0  0  0  0  0  0
   11.0814  -17.8160   22.6890 C   0  0  0  0  0  0  0  0  0  0  0  0
   10.1791  -18.6727   22.5560 O   0  0  0  0  0  0  0  0  0  0  0  0
    9.2277  -14.8306   24.0314 C   0  0  0  0  0  0  0  0  0  0  0  0
    9.8408  -13.7680   23.8074 O   0  0  0  0  0  0  0  0  0  0  0  0
   12.3013  -18.0971   22.0625 O   0  0  0  0  0  0  0  0  0  0  0  0
    8.2988  -14.8798   25.0933 N   0  0  0  0  0  0  0  0  0  0  0  0
    8.0335  -13.7763   25.9823 C   0  0  1  0  0  0  0  0  0  0  0  0
    6.5683  -13.3776   25.8978 C   0  0  0  0  0  0  0  0  0  0  0  0
    6.2102  -12.0731   27.1069 S   0  0  0  0  0  0  0  0  0  0  0  0
    8.3778  -14.1560   27.3693 C   0  0  0  0  0  0  0  0  0  0  0  0
    8.6622  -13.1607   28.2881 O   0  0  0  0  0  0  0  0  0  0  0  0
    8.4299  -15.3393   27.7740 O   0  0  0  0  0  0  0  0  0  0  0  0
  2  1  1  1
  2  4  1  0
  3  2  1  0
  4  6  1  0
  4  5  1  6
  6  7  2  0
  8  9  1  0
  8  6  1  0
  9 13  1  0
 10 11  1  0
  9 10  1  1
 11 15  1  0
 12 11  2  0
 13 14  2  0
 16 13  1  0
 16 17  1  0
 17 20  1  0
 17 18  1  1
 19 18  1  0
 20 22  2  0
 20 21  1  0
M  END
$$$$
