TDC.pdb
     RDKit          3D

 22 21  0  0  1  0  0  0  0  0999 V2000
    7.6386  -12.8692   18.8638 C   0  0  0  0  0  0  0  0  0  0  0  0
    7.8057  -14.0052   19.8469 C   0  0  1  0  0  0  0  0  0  0  0  0
    8.0530  -15.1975   19.2129 O   0  0  0  0  0  0  0  0  0  0  0  0
    8.8664  -13.7034   20.8784 C   0  0  2  0  0  0  0  0  0  0  0  0
   10.1502  -13.5351   20.1951 N   0  0  0  0  0  0  0  0  0  0  0  0
    9.0324  -14.7499   21.8932 C   0  0  0  0  0  0  0  0  0  0  0  0
    8.0682  -15.0742   22.6328 O   0  0  0  0  0  0  0  0  0  0  0  0
   10.2731  -15.4482   22.0966 N   0  0  0  0  0  0  0  0  0  0  0  0
   10.4669  -16.4805   23.0870 C   0  0  1  0  0  0  0  0  0  0  0  0
   11.5583  -17.4007   22.6072 C   0  0  0  0  0  0  0  0  0  0  0  0
   11.8241  -18.4095   23.6534 C   0  0  0  0  0  0  0  0  0  0  0  0
   10.9186  -19.1129   24.1547 O   0  0  0  0  0  0  0  0  0  0  0  0
   10.8445  -15.8753   24.4161 C   0  0  0  0  0  0  0  0  0  0  0  0
   11.7560  -15.0242   24.4182 O   0  0  0  0  0  0  0  0  0  0  0  0
   13.1192  -18.6272   24.1380 O   0  0  0  0  0  0  0  0  0  0  0  0
   10.2236  -16.2232   25.6352 N   0  0  0  0  0  0  0  0  0  0  0  0
   10.4387  -15.5226   26.8768 C   0  0  1  0  0  0  0  0  0  0  0  0
    9.4162  -14.4075   27.0317 C   0  0  0  0  0  0  0  0  0  0  0  0
    9.7185  -13.4992   28.5730 S   0  0  0  0  0  0  0  0  0  0  0  0
   10.3363  -16.4672   28.0098 C   0  0  0  0  0  0  0  0  0  0  0  0
   11.0616  -16.2169   29.1617 O   0  0  0  0  0  0  0  0  0  0  0  0
    9.6241  -17.4965   27.9949 O   0  0  0  0  0  0  0  0  0  0  0  0
  2  1  1  6
  2  4  1  0
  3  2  1  0
  4  6  1  0
  4  5  1  6
  6  7  2  0
  8  9  1  0
  8  6  1  0
  9 13  1  0
 10 11  1  0
  9 10  1  6
 11 15  1  0
 12 11  2  0
 13 14  2  0
 16 13  1  0
 16 17  1  0
 17 20  1  0
 17 18  1  1
 19 18  1  0
 20 22  2  0
 20 21  1  0
M  END
$$$$
