TDC.pdb
     RDKit          3D

 22 21  0  0  1  0  0  0  0  0999 V2000
    7.8563  -13.0237   19.3692 C   0  0  0  0  0  0  0  0  0  0  0  0
    8.4414  -13.7001   20.5879 C   0  0  1  0  0  0  0  0  0  0  0  0
    8.2703  -12.9461   21.7223 O   0  0  0  0  0  0  0  0  0  0  0  0
    7.8959  -15.0962   20.7712 C   0  0  2  0  0  0  0  0  0  0  0  0
    6.4352  -15.0237   20.8376 N   0  0  0  0  0  0  0  0  0  0  0  0
    8.3671  -15.7704   21.9860 C   0  0  0  0  0  0  0  0  0  0  0  0
    7.6128  -15.8729   22.9871 O   0  0  0  0  0  0  0  0  0  0  0  0
    9.6833  -16.3388   22.1009 N   0  0  0  0  0  0  0  0  0  0  0  0
   10.1620  -17.0398   23.2685 C   0  0  1  0  0  0  0  0  0  0  0  0
   11.3951  -17.8148   22.8855 C   0  0  0  0  0  0  0  0  0  0  0  0
   11.7976  -18.6630   24.0263 C   0  0  0  0  0  0  0  0  0  0  0  0
   11.0447  -18.8786   25.0023 O   0  0  0  0  0  0  0  0  0  0  0  0
   10.4829  -16.0671   24.3760 C   0  0  0  0  0  0  0  0  0  0  0  0
   11.3368  -15.1903   24.1368 O   0  0  0  0  0  0  0  0  0  0  0  0
   13.0571  -19.2724   24.0675 O   0  0  0  0  0  0  0  0  0  0  0  0
    9.8709  -16.1046   25.6475 N   0  0  0  0  0  0  0  0  0  0  0  0
   10.1574  -15.1693   26.7066 C   0  0  1  0  0  0  0  0  0  0  0  0
    8.9455  -14.2886   26.9684 C   0  0  0  0  0  0  0  0  0  0  0  0
    9.3169  -13.0994   28.2874 S   0  0  0  0  0  0  0  0  0  0  0  0
   10.5282  -15.9023   27.9361 C   0  0  0  0  0  0  0  0  0  0  0  0
   11.1085  -15.2083   28.9836 O   0  0  0  0  0  0  0  0  0  0  0  0
   10.3485  -17.1309   28.0943 O   0  0  0  0  0  0  0  0  0  0  0  0
  2  1  1  6
  2  4  1  0
  3  2  1  0
  4  6  1  0
  4  5  1  1
  6  7  2  0
  8  9  1  0
  8  6  1  0
  9 13  1  0
 10 11  1  0
  9 10  1  6
 11 15  1  0
 12 11  2  0
 13 14  2  0
 16 13  1  0
 16 17  1  0
 17 20  1  0
 17 18  1  1
 19 18  1  0
 20 22  2  0
 20 21  1  0
M  END
$$$$
