TDC.pdb
     RDKit          3D

 22 21  0  0  1  0  0  0  0  0999 V2000
    7.2429  -12.8115   18.9451 C   0  0  0  0  0  0  0  0  0  0  0  0
    7.4199  -13.9359   19.9398 C   0  0  1  0  0  0  0  0  0  0  0  0
    7.7104  -15.1257   19.3196 O   0  0  0  0  0  0  0  0  0  0  0  0
    8.4521  -13.5995   20.9894 C   0  0  2  0  0  0  0  0  0  0  0  0
    9.7448  -13.4050   20.3302 N   0  0  0  0  0  0  0  0  0  0  0  0
    8.6235  -14.6333   22.0162 C   0  0  0  0  0  0  0  0  0  0  0  0
    7.6643  -14.9456   22.7674 O   0  0  0  0  0  0  0  0  0  0  0  0
    9.8642  -15.3319   22.2191 N   0  0  0  0  0  0  0  0  0  0  0  0
   10.0570  -16.3669   23.2068 C   0  0  1  0  0  0  0  0  0  0  0  0
   11.0021  -17.3939   22.6409 C   0  0  0  0  0  0  0  0  0  0  0  0
   11.2356  -18.4381   23.6596 C   0  0  0  0  0  0  0  0  0  0  0  0
   10.3053  -18.9565   24.3166 O   0  0  0  0  0  0  0  0  0  0  0  0
   10.6220  -15.7863   24.4793 C   0  0  0  0  0  0  0  0  0  0  0  0
   11.2849  -14.7345   24.3825 O   0  0  0  0  0  0  0  0  0  0  0  0
   12.5265  -18.9013   23.9400 O   0  0  0  0  0  0  0  0  0  0  0  0
   10.4371  -16.3699   25.7513 N   0  0  0  0  0  0  0  0  0  0  0  0
   10.5236  -15.6405   26.9918 C   0  0  1  0  0  0  0  0  0  0  0  0
    9.4757  -14.5387   27.0245 C   0  0  0  0  0  0  0  0  0  0  0  0
    9.7351  -13.4797   28.4748 S   0  0  0  0  0  0  0  0  0  0  0  0
   10.3270  -16.5630   28.1306 C   0  0  0  0  0  0  0  0  0  0  0  0
   10.9351  -16.2769   29.3406 O   0  0  0  0  0  0  0  0  0  0  0  0
    9.6345  -17.6040   28.0709 O   0  0  0  0  0  0  0  0  0  0  0  0
  2  1  1  6
  2  4  1  0
  3  2  1  0
  4  6  1  0
  4  5  1  6
  6  7  2  0
  8  9  1  0
  8  6  1  0
  9 13  1  0
 10 11  1  0
  9 10  1  6
 11 15  1  0
 12 11  2  0
 13 14  2  0
 16 13  1  0
 16 17  1  0
 17 20  1  0
 17 18  1  6
 19 18  1  0
 20 22  2  0
 20 21  1  0
M  END
$$$$
