TDC.pdb
     RDKit          3D

 22 21  0  0  1  0  0  0  0  0999 V2000
   11.6447  -16.3366   19.3068 C   0  0  0  0  0  0  0  0  0  0  0  0
   11.4621  -16.4710   20.8013 C   0  0  1  0  0  0  0  0  0  0  0  0
   10.7880  -15.3993   21.3322 O   0  0  0  0  0  0  0  0  0  0  0  0
   10.7950  -17.7745   21.1704 C   0  0  2  0  0  0  0  0  0  0  0  0
    9.4828  -17.8291   20.5235 N   0  0  0  0  0  0  0  0  0  0  0  0
   10.5925  -17.9586   22.6117 C   0  0  0  0  0  0  0  0  0  0  0  0
    9.4714  -17.7207   23.1297 O   0  0  0  0  0  0  0  0  0  0  0  0
   11.6351  -18.4097   23.4937 N   0  0  0  0  0  0  0  0  0  0  0  0
   11.5079  -18.4725   24.9303 C   0  0  1  0  0  0  0  0  0  0  0  0
   12.6787  -19.2454   25.4779 C   0  0  0  0  0  0  0  0  0  0  0  0
   12.4954  -19.4188   26.9337 C   0  0  0  0  0  0  0  0  0  0  0  0
   13.4540  -19.6173   27.7131 O   0  0  0  0  0  0  0  0  0  0  0  0
   11.4795  -17.0847   25.5208 C   0  0  0  0  0  0  0  0  0  0  0  0
   12.3018  -16.2583   25.0780 O   0  0  0  0  0  0  0  0  0  0  0  0
   11.2230  -19.3682   27.5151 O   0  0  0  0  0  0  0  0  0  0  0  0
   10.5802  -16.6872   26.5338 N   0  0  0  0  0  0  0  0  0  0  0  0
   10.5603  -15.3708   27.1213 C   0  0  1  0  0  0  0  0  0  0  0  0
    9.3684  -14.5834   26.5993 C   0  0  0  0  0  0  0  0  0  0  0  0
    9.1388  -13.0790   27.5873 S   0  0  0  0  0  0  0  0  0  0  0  0
   10.4916  -15.4801   28.5943 C   0  0  0  0  0  0  0  0  0  0  0  0
   10.7964  -14.3722   29.3658 O   0  0  0  0  0  0  0  0  0  0  0  0
   10.1703  -16.5275   29.1997 O   0  0  0  0  0  0  0  0  0  0  0  0
  2  1  1  6
  2  4  1  0
  3  2  1  0
  4  6  1  0
  4  5  1  6
  6  7  2  0
  8  9  1  0
  8  6  1  0
  9 13  1  0
 10 11  1  0
  9 10  1  1
 11 15  1  0
 12 11  2  0
 13 14  2  0
 16 13  1  0
 16 17  1  0
 17 20  1  0
 17 18  1  6
 19 18  1  0
 20 22  2  0
 20 21  1  0
M  END
$$$$
