TDC.pdb
     RDKit          3D

 22 21  0  0  1  0  0  0  0  0999 V2000
    6.9013  -13.4316   19.8520 C   0  0  0  0  0  0  0  0  0  0  0  0
    7.7895  -14.0055   20.9322 C   0  0  1  0  0  0  0  0  0  0  0  0
    7.3295  -13.6984   22.1887 O   0  0  0  0  0  0  0  0  0  0  0  0
    7.9818  -15.4944   20.7685 C   0  0  2  0  0  0  0  0  0  0  0  0
    6.6667  -16.1265   20.6490 N   0  0  0  0  0  0  0  0  0  0  0  0
    8.6876  -16.1350   21.8838 C   0  0  0  0  0  0  0  0  0  0  0  0
    8.0852  -16.9458   22.6331 O   0  0  0  0  0  0  0  0  0  0  0  0
   10.0723  -15.8811   22.1782 N   0  0  0  0  0  0  0  0  0  0  0  0
   10.7749  -16.4429   23.3071 C   0  0  1  0  0  0  0  0  0  0  0  0
   12.2539  -16.3613   23.0352 C   0  0  0  0  0  0  0  0  0  0  0  0
   12.6028  -17.3550   21.9990 C   0  0  0  0  0  0  0  0  0  0  0  0
   13.5336  -17.1761   21.1821 O   0  0  0  0  0  0  0  0  0  0  0  0
   10.4366  -15.6901   24.5698 C   0  0  0  0  0  0  0  0  0  0  0  0
   11.0147  -16.0421   25.6173 O   0  0  0  0  0  0  0  0  0  0  0  0
   11.8977  -18.5587   21.8826 O   0  0  0  0  0  0  0  0  0  0  0  0
    9.5118  -14.6246   24.6177 N   0  0  0  0  0  0  0  0  0  0  0  0
    9.1100  -13.9615   25.8331 C   0  0  1  0  0  0  0  0  0  0  0  0
    8.0883  -12.8781   25.5243 C   0  0  0  0  0  0  0  0  0  0  0  0
    7.5443  -12.0829   27.0617 S   0  0  0  0  0  0  0  0  0  0  0  0
    8.5373  -14.9463   26.7758 C   0  0  0  0  0  0  0  0  0  0  0  0
    8.9149  -14.9017   28.1066 O   0  0  0  0  0  0  0  0  0  0  0  0
    7.7192  -15.8333   26.4432 O   0  0  0  0  0  0  0  0  0  0  0  0
  2  1  1  6
  2  4  1  0
  3  2  1  0
  4  6  1  0
  4  5  1  1
  6  7  2  0
  8  9  1  0
  8  6  1  0
  9 13  1  0
 10 11  1  0
  9 10  1  6
 11 15  1  0
 12 11  2  0
 13 14  2  0
 16 13  1  0
 16 17  1  0
 17 20  1  0
 17 18  1  6
 19 18  1  0
 20 22  2  0
 20 21  1  0
M  END
$$$$
