TDC.pdb
     RDKit          3D

 22 21  0  0  1  0  0  0  0  0999 V2000
    8.6056  -12.7783   18.5074 C   0  0  0  0  0  0  0  0  0  0  0  0
    8.5562  -13.2537   19.9414 C   0  0  1  0  0  0  0  0  0  0  0  0
    7.8090  -12.4161   20.7319 O   0  0  0  0  0  0  0  0  0  0  0  0
    8.0710  -14.6801   20.0435 C   0  0  2  0  0  0  0  0  0  0  0  0
    6.7269  -14.7602   19.4688 N   0  0  0  0  0  0  0  0  0  0  0  0
    8.0033  -15.1946   21.4158 C   0  0  0  0  0  0  0  0  0  0  0  0
    6.9142  -15.1817   22.0445 O   0  0  0  0  0  0  0  0  0  0  0  0
    9.1468  -15.7300   22.1044 N   0  0  0  0  0  0  0  0  0  0  0  0
    9.1297  -16.1700   23.4792 C   0  0  1  0  0  0  0  0  0  0  0  0
   10.2501  -17.1568   23.6765 C   0  0  0  0  0  0  0  0  0  0  0  0
   10.0312  -18.3107   22.7801 C   0  0  0  0  0  0  0  0  0  0  0  0
    9.0390  -19.0657   22.8861 O   0  0  0  0  0  0  0  0  0  0  0  0
    9.2997  -14.9975   24.4129 C   0  0  0  0  0  0  0  0  0  0  0  0
   10.2677  -14.2386   24.2069 O   0  0  0  0  0  0  0  0  0  0  0  0
   10.9368  -18.6158   21.7571 O   0  0  0  0  0  0  0  0  0  0  0  0
    8.4280  -14.7260   25.4896 N   0  0  0  0  0  0  0  0  0  0  0  0
    8.6414  -13.6746   26.4526 C   0  0  1  0  0  0  0  0  0  0  0  0
    7.5162  -12.6547   26.3708 C   0  0  0  0  0  0  0  0  0  0  0  0
    5.9144  -13.5037   26.2962 S   0  0  0  0  0  0  0  0  0  0  0  0
    8.7099  -14.2478   27.8139 C   0  0  0  0  0  0  0  0  0  0  0  0
    8.4851  -15.6027   27.9852 O   0  0  0  0  0  0  0  0  0  0  0  0
    8.9625  -13.5761   28.8395 O   0  0  0  0  0  0  0  0  0  0  0  0
  2  1  1  6
  2  4  1  0
  3  2  1  0
  4  6  1  0
  4  5  1  1
  6  7  2  0
  8  9  1  0
  8  6  1  0
  9 13  1  0
 10 11  1  0
  9 10  1  6
 11 15  1  0
 12 11  2  0
 13 14  2  0
 16 13  1  0
 16 17  1  0
 17 20  1  0
 17 18  1  1
 19 18  1  0
 20 22  2  0
 20 21  1  0
M  END
$$$$
