TDC.pdb
     RDKit          3D

 22 21  0  0  1  0  0  0  0  0999 V2000
   11.6631  -21.4499   18.0590 C   0  0  0  0  0  0  0  0  0  0  0  0
   12.2201  -20.0505   17.9317 C   0  0  1  0  0  0  0  0  0  0  0  0
   11.8371  -19.4530   16.7565 O   0  0  0  0  0  0  0  0  0  0  0  0
   11.8634  -19.1937   19.1229 C   0  0  2  0  0  0  0  0  0  0  0  0
   11.3994  -17.8913   18.6414 N   0  0  0  0  0  0  0  0  0  0  0  0
   12.9769  -18.9589   20.0488 C   0  0  0  0  0  0  0  0  0  0  0  0
   13.5364  -19.9264   20.6256 O   0  0  0  0  0  0  0  0  0  0  0  0
   13.4811  -17.6446   20.3436 N   0  0  0  0  0  0  0  0  0  0  0  0
   14.5426  -17.3783   21.2850 C   0  0  1  0  0  0  0  0  0  0  0  0
   15.2809  -16.1460   20.8330 C   0  0  0  0  0  0  0  0  0  0  0  0
   16.4034  -16.5556   19.9641 C   0  0  0  0  0  0  0  0  0  0  0  0
   16.9352  -17.6857   20.0408 O   0  0  0  0  0  0  0  0  0  0  0  0
   13.9825  -17.1697   22.6700 C   0  0  0  0  0  0  0  0  0  0  0  0
   14.7822  -16.8296   23.5645 O   0  0  0  0  0  0  0  0  0  0  0  0
   16.9302  -15.6858   19.0021 O   0  0  0  0  0  0  0  0  0  0  0  0
   12.6187  -17.3391   22.9927 N   0  0  0  0  0  0  0  0  0  0  0  0
   12.0704  -17.1256   24.3089 C   0  0  1  0  0  0  0  0  0  0  0  0
   10.6523  -16.5864   24.2032 C   0  0  0  0  0  0  0  0  0  0  0  0
   10.6113  -15.1679   23.0725 S   0  0  0  0  0  0  0  0  0  0  0  0
   12.0763  -18.3954   25.0665 C   0  0  0  0  0  0  0  0  0  0  0  0
   11.6856  -18.3881   26.3942 O   0  0  0  0  0  0  0  0  0  0  0  0
   12.4174  -19.4958   24.5770 O   0  0  0  0  0  0  0  0  0  0  0  0
  2  1  1  1
  2  4  1  0
  3  2  1  0
  4  6  1  0
  4  5  1  6
  6  7  2  0
  8  9  1  0
  8  6  1  0
  9 13  1  0
 10 11  1  0
  9 10  1  6
 11 15  1  0
 12 11  2  0
 13 14  2  0
 16 13  1  0
 16 17  1  0
 17 20  1  0
 17 18  1  6
 19 18  1  0
 20 22  2  0
 20 21  1  0
M  END
$$$$
