TDC.pdb
     RDKit          3D

 22 21  0  0  1  0  0  0  0  0999 V2000
    8.0272  -12.3900   17.8681 C   0  0  0  0  0  0  0  0  0  0  0  0
    7.9913  -13.5965   18.7781 C   0  0  1  0  0  0  0  0  0  0  0  0
    8.2874  -14.7547   18.1031 O   0  0  0  0  0  0  0  0  0  0  0  0
    8.8873  -13.4195   19.9806 C   0  0  2  0  0  0  0  0  0  0  0  0
   10.2746  -13.3281   19.5220 N   0  0  0  0  0  0  0  0  0  0  0  0
    8.8082  -14.5136   20.9549 C   0  0  0  0  0  0  0  0  0  0  0  0
    7.7050  -14.8208   21.4747 O   0  0  0  0  0  0  0  0  0  0  0  0
    9.9559  -15.2789   21.3619 N   0  0  0  0  0  0  0  0  0  0  0  0
    9.9035  -16.3827   22.2907 C   0  0  1  0  0  0  0  0  0  0  0  0
   11.1422  -17.2190   22.1056 C   0  0  0  0  0  0  0  0  0  0  0  0
   11.0374  -18.4201   22.9596 C   0  0  0  0  0  0  0  0  0  0  0  0
   12.0312  -18.9379   23.5164 O   0  0  0  0  0  0  0  0  0  0  0  0
    9.8247  -15.8778   23.7099 C   0  0  0  0  0  0  0  0  0  0  0  0
   10.8829  -15.4752   24.2328 O   0  0  0  0  0  0  0  0  0  0  0  0
    9.8042  -19.0420   23.1876 O   0  0  0  0  0  0  0  0  0  0  0  0
    8.6286  -15.8414   24.4588 N   0  0  0  0  0  0  0  0  0  0  0  0
    8.5588  -15.4541   25.8457 C   0  0  1  0  0  0  0  0  0  0  0  0
    7.1463  -15.0107   26.1941 C   0  0  0  0  0  0  0  0  0  0  0  0
    6.8811  -13.3009   25.6481 S   0  0  0  0  0  0  0  0  0  0  0  0
    8.9616  -16.5888   26.7041 C   0  0  0  0  0  0  0  0  0  0  0  0
    9.0673  -16.3942   28.0703 O   0  0  0  0  0  0  0  0  0  0  0  0
    9.2178  -17.7339   26.2682 O   0  0  0  0  0  0  0  0  0  0  0  0
  2  1  1  6
  2  4  1  0
  3  2  1  0
  4  6  1  0
  4  5  1  6
  6  7  2  0
  8  9  1  0
  8  6  1  0
  9 13  1  0
 10 11  1  0
  9 10  1  1
 11 15  1  0
 12 11  2  0
 13 14  2  0
 16 13  1  0
 16 17  1  0
 17 20  1  0
 17 18  1  1
 19 18  1  0
 20 22  2  0
 20 21  1  0
M  END
$$$$
