TDC.pdb
     RDKit          3D

 22 21  0  0  1  0  0  0  0  0999 V2000
    8.0211  -12.3688   17.8107 C   0  0  0  0  0  0  0  0  0  0  0  0
    8.5075  -13.4000   18.8032 C   0  0  1  0  0  0  0  0  0  0  0  0
    7.5574  -13.6833   19.7528 O   0  0  0  0  0  0  0  0  0  0  0  0
    8.9873  -14.6568   18.1171 C   0  0  2  0  0  0  0  0  0  0  0  0
    7.8767  -15.2263   17.3519 N   0  0  0  0  0  0  0  0  0  0  0  0
    9.4775  -15.6919   19.0340 C   0  0  0  0  0  0  0  0  0  0  0  0
    8.7612  -16.6896   19.3048 O   0  0  0  0  0  0  0  0  0  0  0  0
   10.7707  -15.6290   19.6603 N   0  0  0  0  0  0  0  0  0  0  0  0
   11.2565  -16.6006   20.6111 C   0  0  1  0  0  0  0  0  0  0  0  0
   12.7130  -16.8570   20.3265 C   0  0  0  0  0  0  0  0  0  0  0  0
   12.8181  -17.7788   19.1767 C   0  0  0  0  0  0  0  0  0  0  0  0
   13.2254  -17.4083   18.0530 O   0  0  0  0  0  0  0  0  0  0  0  0
   11.0841  -16.0940   22.0214 C   0  0  0  0  0  0  0  0  0  0  0  0
   11.6833  -15.0444   22.3289 O   0  0  0  0  0  0  0  0  0  0  0  0
   12.4617  -19.1274   19.2939 O   0  0  0  0  0  0  0  0  0  0  0  0
   10.2892  -16.7431   22.9908 N   0  0  0  0  0  0  0  0  0  0  0  0
   10.1238  -16.2715   24.3431 C   0  0  1  0  0  0  0  0  0  0  0  0
    8.6926  -15.8064   24.5630 C   0  0  0  0  0  0  0  0  0  0  0  0
    8.4149  -14.2302   23.7083 S   0  0  0  0  0  0  0  0  0  0  0  0
   10.4592  -17.3518   25.2954 C   0  0  0  0  0  0  0  0  0  0  0  0
   10.4596  -17.0765   26.6518 O   0  0  0  0  0  0  0  0  0  0  0  0
   10.7480  -18.5194   24.9490 O   0  0  0  0  0  0  0  0  0  0  0  0
  2  1  1  6
  2  4  1  0
  3  2  1  0
  4  6  1  0
  4  5  1  1
  6  7  2  0
  8  9  1  0
  8  6  1  0
  9 13  1  0
 10 11  1  0
  9 10  1  6
 11 15  1  0
 12 11  2  0
 13 14  2  0
 16 13  1  0
 16 17  1  0
 17 20  1  0
 17 18  1  6
 19 18  1  0
 20 22  2  0
 20 21  1  0
M  END
$$$$
