TDC.pdb
     RDKit          3D

 22 21  0  0  1  0  0  0  0  0999 V2000
    8.1200  -19.3426   13.3169 C   0  0  0  0  0  0  0  0  0  0  0  0
    8.8079  -20.0790   14.4435 C   0  0  1  0  0  0  0  0  0  0  0  0
    8.1344  -21.2233   14.7923 O   0  0  0  0  0  0  0  0  0  0  0  0
   10.2541  -20.3715   14.1224 C   0  0  2  0  0  0  0  0  0  0  0  0
   10.3048  -21.4184   13.1002 N   0  0  0  0  0  0  0  0  0  0  0  0
   11.0441  -20.8280   15.2713 C   0  0  0  0  0  0  0  0  0  0  0  0
   11.0475  -22.0431   15.5955 O   0  0  0  0  0  0  0  0  0  0  0  0
   11.8398  -19.9376   16.0729 N   0  0  0  0  0  0  0  0  0  0  0  0
   12.5540  -20.3397   17.2612 C   0  0  1  0  0  0  0  0  0  0  0  0
   13.8417  -19.5617   17.3281 C   0  0  0  0  0  0  0  0  0  0  0  0
   14.7329  -20.0223   16.2435 C   0  0  0  0  0  0  0  0  0  0  0  0
   15.3154  -21.1292   16.2764 O   0  0  0  0  0  0  0  0  0  0  0  0
   11.7236  -20.0770   18.4928 C   0  0  0  0  0  0  0  0  0  0  0  0
   10.8924  -19.1491   18.4344 O   0  0  0  0  0  0  0  0  0  0  0  0
   14.9692  -19.2299   15.1139 O   0  0  0  0  0  0  0  0  0  0  0  0
   11.8433  -20.8209   19.6866 N   0  0  0  0  0  0  0  0  0  0  0  0
   11.1766  -20.4791   20.9183 C   0  0  1  0  0  0  0  0  0  0  0  0
    9.7617  -21.0368   20.9191 C   0  0  0  0  0  0  0  0  0  0  0  0
    9.8038  -22.8337   20.6718 S   0  0  0  0  0  0  0  0  0  0  0  0
   11.9364  -21.0189   22.0662 C   0  0  0  0  0  0  0  0  0  0  0  0
   11.5307  -20.7007   23.3507 O   0  0  0  0  0  0  0  0  0  0  0  0
   12.9401  -21.7577   21.9503 O   0  0  0  0  0  0  0  0  0  0  0  0
  2  1  1  6
  2  4  1  0
  3  2  1  0
  4  6  1  0
  4  5  1  6
  6  7  2  0
  8  9  1  0
  8  6  1  0
  9 13  1  0
 10 11  1  0
  9 10  1  1
 11 15  1  0
 12 11  2  0
 13 14  2  0
 16 13  1  0
 16 17  1  0
 17 20  1  0
 17 18  1  6
 19 18  1  0
 20 22  2  0
 20 21  1  0
M  END
$$$$
