NTI.pdb
     RDKit          3D

 24 23  0  0  1  0  0  0  0  0999 V2000
   28.1941  -22.0382  -16.2691 N   0  0  0  0  0  0  0  0  0  0  0  0
   28.2525  -20.5957  -16.0720 C   0  0  0  0  0  0  0  0  0  0  0  0
   29.0974  -20.0097  -16.7725 O   0  0  0  0  0  0  0  0  0  0  0  0
   27.3813  -19.9366  -15.1283 C   0  0  0  0  0  0  0  0  0  0  0  0
   26.5801  -20.8394  -14.2426 C   0  0  2  0  0  0  0  0  0  0  0  0
   25.3612  -21.2306  -15.0236 N   0  0  0  0  0  0  0  0  0  0  0  0
   26.0442  -20.2135  -13.0264 C   0  0  0  0  0  0  0  0  0  0  0  0
   25.3269  -19.1771  -13.1391 O   0  0  0  0  0  0  0  0  0  0  0  0
   23.5417  -19.9008  -11.9657 C   0  0  0  0  0  0  0  0  0  0  0  0
   24.1346  -20.5665  -10.7334 C   0  0  1  0  0  0  0  0  0  0  0  0
   23.9499  -21.9285  -10.7181 O   0  0  0  0  0  0  0  0  0  0  0  0
   25.5853  -20.1611  -10.5569 C   0  0  2  0  0  0  0  0  0  0  0  0
   26.2825  -20.7096  -11.7398 N   0  0  0  0  0  0  0  0  0  0  0  0
   26.2027  -20.7396   -9.3688 C   0  0  0  0  0  0  0  0  0  0  0  0
   26.6833  -21.9040   -9.3848 O   0  0  0  0  0  0  0  0  0  0  0  0
   29.7551  -19.4441   -4.6808 C   0  0  0  0  0  0  0  0  0  0  0  0
   28.6778  -20.3964   -5.1628 C   0  0  0  0  0  0  0  0  0  0  0  0
   28.0139  -19.7660   -6.3608 C   0  0  2  0  0  0  0  0  0  0  0  0
   27.3329  -18.4985   -5.8973 C   0  0  0  0  0  0  0  0  0  0  0  0
   26.9511  -20.6517   -6.9618 C   0  0  2  0  0  0  0  0  0  0  0  0
   26.3206  -20.0687   -8.1129 N   0  0  0  0  0  0  0  0  0  0  0  0
   25.9230  -20.8823   -5.9247 C   0  0  0  0  0  0  0  0  0  0  0  0
   24.6022  -20.4706   -6.0365 O   0  0  0  0  0  0  0  0  0  0  0  0
   26.2498  -21.4849   -4.8754 O   0  0  0  0  0  0  0  0  0  0  0  0
  1  2  1  0
  2  3  2  0
  4  2  1  0
  5  4  1  0
  5  7  1  0
  5  6  1  6
  7  8  2  0
 10  9  1  6
 10 11  1  0
 12 10  1  0
 13  7  1  0
 12 13  1  6
 14 12  1  0
 14 15  2  0
 16 17  1  0
 17 18  1  0
 18 19  1  1
 18 20  1  0
 20 21  1  6
 21 14  1  0
 22 23  1  0
 22 20  1  0
 24 22  2  0
M  END
$$$$
