NTI.pdb
     RDKit          3D

 24 23  0  0  1  0  0  0  0  0999 V2000
   12.8220  -11.3608  -14.3877 N   0  0  0  0  0  0  0  0  0  0  0  0
   14.0905  -12.0757  -14.4416 C   0  0  0  0  0  0  0  0  0  0  0  0
   14.0279  -13.2708  -14.1013 O   0  0  0  0  0  0  0  0  0  0  0  0
   15.3021  -11.4130  -14.8621 C   0  0  0  0  0  0  0  0  0  0  0  0
   15.1557  -10.4498  -15.9989 C   0  0  2  0  0  0  0  0  0  0  0  0
   14.9358  -11.2754  -17.2313 N   0  0  0  0  0  0  0  0  0  0  0  0
   16.3511   -9.6533  -16.3062 C   0  0  0  0  0  0  0  0  0  0  0  0
   17.1826  -10.1013  -17.1484 O   0  0  0  0  0  0  0  0  0  0  0  0
   16.5556   -6.4537  -17.8721 C   0  0  0  0  0  0  0  0  0  0  0  0
   17.2917   -6.2923  -16.5509 C   0  0  1  0  0  0  0  0  0  0  0  0
   16.5488   -5.6344  -15.5997 O   0  0  0  0  0  0  0  0  0  0  0  0
   17.8216   -7.6299  -16.0713 C   0  0  2  0  0  0  0  0  0  0  0  0
   16.6188   -8.4129  -15.7163 N   0  0  0  0  0  0  0  0  0  0  0  0
   18.6519   -7.5238  -14.8768 C   0  0  0  0  0  0  0  0  0  0  0  0
   18.2469   -7.9469  -13.7614 O   0  0  0  0  0  0  0  0  0  0  0  0
   23.1322   -9.7431  -12.3815 C   0  0  0  0  0  0  0  0  0  0  0  0
   22.4784   -8.3749  -12.4033 C   0  0  0  0  0  0  0  0  0  0  0  0
   21.5828   -8.3161  -13.6147 C   0  0  2  0  0  0  0  0  0  0  0  0
   22.4592   -8.4187  -14.8421 C   0  0  0  0  0  0  0  0  0  0  0  0
   20.8288   -7.0131  -13.7100 C   0  0  2  0  0  0  0  0  0  0  0  0
   19.9602   -6.9502  -14.8519 N   0  0  0  0  0  0  0  0  0  0  0  0
   21.8261   -5.9267  -13.8133 C   0  0  0  0  0  0  0  0  0  0  0  0
   22.5136   -5.3991  -12.7290 O   0  0  0  0  0  0  0  0  0  0  0  0
   22.0760   -5.4430  -14.9422 O   0  0  0  0  0  0  0  0  0  0  0  0
  1  2  1  0
  2  3  2  0
  4  2  1  0
  5  4  1  0
  5  7  1  0
  5  6  1  6
  7  8  2  0
 10  9  1  6
 10 11  1  0
 12 10  1  0
 13  7  1  0
 12 13  1  1
 14 12  1  0
 14 15  2  0
 16 17  1  0
 17 18  1  0
 18 19  1  6
 18 20  1  0
 20 21  1  6
 21 14  1  0
 22 23  1  0
 22 20  1  0
 24 22  2  0
M  END
$$$$
