NTI.pdb
     RDKit          3D

 24 23  0  0  1  0  0  0  0  0999 V2000
   19.1841  -13.1405  -20.4896 N   0  0  0  0  0  0  0  0  0  0  0  0
   18.5799  -11.9317  -19.9448 C   0  0  0  0  0  0  0  0  0  0  0  0
   17.5225  -11.5839  -20.5005 O   0  0  0  0  0  0  0  0  0  0  0  0
   19.1918  -11.2228  -18.8461 C   0  0  0  0  0  0  0  0  0  0  0  0
   20.3958  -11.8752  -18.2411 C   0  0  2  0  0  0  0  0  0  0  0  0
   19.8969  -13.0643  -17.4757 N   0  0  0  0  0  0  0  0  0  0  0  0
   21.1083  -11.0730  -17.2378 C   0  0  0  0  0  0  0  0  0  0  0  0
   20.6132  -10.9666  -16.0781 O   0  0  0  0  0  0  0  0  0  0  0  0
   25.3182   -8.8825  -15.8647 C   0  0  0  0  0  0  0  0  0  0  0  0
   24.4883   -9.7798  -16.7699 C   0  0  1  0  0  0  0  0  0  0  0  0
   24.9126  -11.0872  -16.7646 O   0  0  0  0  0  0  0  0  0  0  0  0
   23.0120   -9.6325  -16.4548 C   0  0  2  0  0  0  0  0  0  0  0  0
   22.3181  -10.4189  -17.4969 N   0  0  0  0  0  0  0  0  0  0  0  0
   22.5395   -8.2558  -16.5479 C   0  0  0  0  0  0  0  0  0  0  0  0
   22.4897   -7.6569  -17.6552 O   0  0  0  0  0  0  0  0  0  0  0  0
   19.2168   -4.2414  -17.0340 C   0  0  0  0  0  0  0  0  0  0  0  0
   19.7411   -4.5180  -15.6381 C   0  0  0  0  0  0  0  0  0  0  0  0
   20.1755   -5.9610  -15.5912 C   0  0  2  0  0  0  0  0  0  0  0  0
   19.6250   -6.5677  -14.3208 C   0  0  0  0  0  0  0  0  0  0  0  0
   21.6759   -6.1089  -15.5448 C   0  0  2  0  0  0  0  0  0  0  0  0
   22.1014   -7.4760  -15.4338 N   0  0  0  0  0  0  0  0  0  0  0  0
   22.1617   -5.3643  -14.3636 C   0  0  0  0  0  0  0  0  0  0  0  0
   22.5471   -5.9645  -13.1728 O   0  0  0  0  0  0  0  0  0  0  0  0
   22.2350   -4.1147  -14.4268 O   0  0  0  0  0  0  0  0  0  0  0  0
  1  2  1  0
  2  3  2  0
  4  2  1  0
  5  4  1  0
  5  7  1  0
  5  6  1  1
  7  8  2  0
 10  9  1  1
 10 11  1  0
 12 10  1  0
 13  7  1  0
 12 13  1  6
 14 12  1  0
 14 15  2  0
 16 17  1  0
 17 18  1  0
 18 19  1  1
 18 20  1  0
 20 21  1  1
 21 14  1  0
 22 23  1  0
 22 20  1  0
 24 22  2  0
M  END
$$$$
