NTI.pdb
     RDKit          3D

 24 23  0  0  1  0  0  0  0  0999 V2000
   17.1150  -13.1450  -18.2443 N   0  0  0  0  0  0  0  0  0  0  0  0
   16.8663  -12.1100  -17.2494 C   0  0  0  0  0  0  0  0  0  0  0  0
   15.6968  -12.0658  -16.8272 O   0  0  0  0  0  0  0  0  0  0  0  0
   17.9211  -11.2255  -16.8145 C   0  0  0  0  0  0  0  0  0  0  0  0
   19.2344  -11.3857  -17.5151 C   0  0  2  0  0  0  0  0  0  0  0  0
   19.7668  -12.7309  -17.1204 N   0  0  0  0  0  0  0  0  0  0  0  0
   20.2857  -10.4461  -17.1031 C   0  0  0  0  0  0  0  0  0  0  0  0
   20.9480  -10.6937  -16.0537 O   0  0  0  0  0  0  0  0  0  0  0  0
   22.7124   -8.8095  -19.6764 C   0  0  0  0  0  0  0  0  0  0  0  0
   22.1898   -7.7595  -18.7081 C   0  0  1  0  0  0  0  0  0  0  0  0
   21.2431   -6.9359  -19.2692 O   0  0  0  0  0  0  0  0  0  0  0  0
   21.7234   -8.4102  -17.4199 C   0  0  2  0  0  0  0  0  0  0  0  0
   20.5997   -9.2848  -17.8181 N   0  0  0  0  0  0  0  0  0  0  0  0
   21.2172   -7.4525  -16.4433 C   0  0  0  0  0  0  0  0  0  0  0  0
   20.0115   -7.0875  -16.4522 O   0  0  0  0  0  0  0  0  0  0  0  0
   20.2284   -7.9965  -11.5242 C   0  0  0  0  0  0  0  0  0  0  0  0
   20.2539   -7.4997  -12.9568 C   0  0  0  0  0  0  0  0  0  0  0  0
   21.3716   -6.4943  -13.0715 C   0  0  2  0  0  0  0  0  0  0  0  0
   21.0611   -5.3500  -12.1338 C   0  0  0  0  0  0  0  0  0  0  0  0
   21.4859   -5.9171  -14.4604 C   0  0  2  0  0  0  0  0  0  0  0  0
   22.0086   -6.8537  -15.4155 N   0  0  0  0  0  0  0  0  0  0  0  0
   22.3981   -4.7559  -14.3878 C   0  0  0  0  0  0  0  0  0  0  0  0
   21.9892   -3.4665  -14.0767 O   0  0  0  0  0  0  0  0  0  0  0  0
   23.6173   -4.9317  -14.6189 O   0  0  0  0  0  0  0  0  0  0  0  0
  1  2  1  0
  2  3  2  0
  4  2  1  0
  5  4  1  0
  5  7  1  0
  5  6  1  1
  7  8  2  0
 10  9  1  6
 10 11  1  0
 12 10  1  0
 13  7  1  0
 12 13  1  6
 14 12  1  0
 14 15  2  0
 16 17  1  0
 17 18  1  0
 18 19  1  1
 18 20  1  0
 20 21  1  6
 21 14  1  0
 22 23  1  0
 22 20  1  0
 24 22  2  0
M  END
$$$$
