NTI.pdb
     RDKit          3D

 24 23  0  0  1  0  0  0  0  0999 V2000
   28.3668  -27.5444  -17.1329 N   0  0  0  0  0  0  0  0  0  0  0  0
   27.5812  -26.3177  -17.1615 C   0  0  0  0  0  0  0  0  0  0  0  0
   26.6583  -26.3114  -17.9960 O   0  0  0  0  0  0  0  0  0  0  0  0
   27.8823  -25.2189  -16.2749 C   0  0  0  0  0  0  0  0  0  0  0  0
   28.5054  -24.0180  -16.9158 C   0  0  2  0  0  0  0  0  0  0  0  0
   29.9791  -24.1120  -16.6547 N   0  0  0  0  0  0  0  0  0  0  0  0
   28.1180  -22.7244  -16.3376 C   0  0  0  0  0  0  0  0  0  0  0  0
   28.7459  -21.6848  -16.6930 O   0  0  0  0  0  0  0  0  0  0  0  0
   24.8880  -19.6411  -16.0821 C   0  0  0  0  0  0  0  0  0  0  0  0
   25.8516  -20.7828  -16.3671 C   0  0  1  0  0  0  0  0  0  0  0  0
   26.7534  -20.4882  -17.3618 O   0  0  0  0  0  0  0  0  0  0  0  0
   26.5125  -21.2525  -15.0854 C   0  0  2  0  0  0  0  0  0  0  0  0
   27.0795  -22.5786  -15.4110 N   0  0  0  0  0  0  0  0  0  0  0  0
   25.5713  -21.4291  -13.9852 C   0  0  0  0  0  0  0  0  0  0  0  0
   24.6090  -22.2374  -14.0737 O   0  0  0  0  0  0  0  0  0  0  0  0
   27.0013  -19.7168   -8.8670 C   0  0  0  0  0  0  0  0  0  0  0  0
   26.5165  -20.7283   -9.8876 C   0  0  0  0  0  0  0  0  0  0  0  0
   25.1656  -20.2713  -10.3772 C   0  0  2  0  0  0  0  0  0  0  0  0
   24.1478  -20.6198   -9.3153 C   0  0  0  0  0  0  0  0  0  0  0  0
   24.7467  -20.9710  -11.6461 C   0  0  2  0  0  0  0  0  0  0  0  0
   25.6429  -20.7290  -12.7419 N   0  0  0  0  0  0  0  0  0  0  0  0
   23.4054  -20.4680  -12.0115 C   0  0  0  0  0  0  0  0  0  0  0  0
   22.2193  -21.1045  -11.6726 O   0  0  0  0  0  0  0  0  0  0  0  0
   23.3188  -19.4034  -12.6672 O   0  0  0  0  0  0  0  0  0  0  0  0
  1  2  1  0
  2  3  2  0
  4  2  1  0
  5  4  1  0
  5  7  1  0
  5  6  1  1
  7  8  2  0
 10  9  1  1
 10 11  1  0
 12 10  1  0
 13  7  1  0
 12 13  1  6
 14 12  1  0
 14 15  2  0
 16 17  1  0
 17 18  1  0
 18 19  1  1
 18 20  1  0
 20 21  1  6
 21 14  1  0
 22 23  1  0
 22 20  1  0
 24 22  2  0
M  END
$$$$
