NTI.pdb
     RDKit          3D

 24 23  0  0  1  0  0  0  0  0999 V2000
   15.9264  -13.4756  -14.4070 N   0  0  0  0  0  0  0  0  0  0  0  0
   17.2932  -13.1821  -14.8178 C   0  0  0  0  0  0  0  0  0  0  0  0
   18.0822  -14.1389  -14.7182 O   0  0  0  0  0  0  0  0  0  0  0  0
   17.6621  -11.8712  -15.2971 C   0  0  0  0  0  0  0  0  0  0  0  0
   16.5984  -10.8218  -15.2047 C   0  0  2  0  0  0  0  0  0  0  0  0
   15.6263  -11.1017  -16.3118 N   0  0  0  0  0  0  0  0  0  0  0  0
   17.0480   -9.4465  -15.4581 C   0  0  0  0  0  0  0  0  0  0  0  0
   17.3136   -9.1007  -16.6460 O   0  0  0  0  0  0  0  0  0  0  0  0
   15.2101   -6.4081  -15.1566 C   0  0  0  0  0  0  0  0  0  0  0  0
   16.4198   -6.2516  -14.2480 C   0  0  1  0  0  0  0  0  0  0  0  0
   16.1286   -6.4752  -12.9234 O   0  0  0  0  0  0  0  0  0  0  0  0
   17.5758   -7.0935  -14.7530 C   0  0  2  0  0  0  0  0  0  0  0  0
   17.1946   -8.4891  -14.4480 N   0  0  0  0  0  0  0  0  0  0  0  0
   18.8320   -6.8153  -14.0661 C   0  0  0  0  0  0  0  0  0  0  0  0
   19.0691   -7.2890  -12.9231 O   0  0  0  0  0  0  0  0  0  0  0  0
   24.5192   -7.5299  -14.9470 C   0  0  0  0  0  0  0  0  0  0  0  0
   23.6068   -6.5801  -14.1953 C   0  0  0  0  0  0  0  0  0  0  0  0
   22.2312   -6.6923  -14.8023 C   0  0  2  0  0  0  0  0  0  0  0  0
   22.2862   -6.0854  -16.1856 C   0  0  0  0  0  0  0  0  0  0  0  0
   21.1927   -5.9287  -14.0189 C   0  0  2  0  0  0  0  0  0  0  0  0
   19.8820   -6.0070  -14.6005 N   0  0  0  0  0  0  0  0  0  0  0  0
   21.6118   -4.5113  -13.9851 C   0  0  0  0  0  0  0  0  0  0  0  0
   22.6535   -4.0287  -13.2049 O   0  0  0  0  0  0  0  0  0  0  0  0
   20.9981   -3.6840  -14.6991 O   0  0  0  0  0  0  0  0  0  0  0  0
  1  2  1  0
  2  3  2  0
  4  2  1  0
  5  4  1  0
  5  7  1  0
  5  6  1  6
  7  8  2  0
 10  9  1  6
 10 11  1  0
 12 10  1  0
 13  7  1  0
 12 13  1  1
 14 12  1  0
 14 15  2  0
 16 17  1  0
 17 18  1  0
 18 19  1  6
 18 20  1  0
 20 21  1  6
 21 14  1  0
 22 23  1  0
 22 20  1  0
 24 22  2  0
M  END
$$$$
