NTI.pdb
     RDKit          3D

 24 23  0  0  1  0  0  0  0  0999 V2000
   27.0023  -23.5056  -20.0011 N   0  0  0  0  0  0  0  0  0  0  0  0
   26.6286  -24.1708  -18.7598 C   0  0  0  0  0  0  0  0  0  0  0  0
   25.8503  -25.1313  -18.8993 O   0  0  0  0  0  0  0  0  0  0  0  0
   27.1431  -23.7198  -17.4885 C   0  0  0  0  0  0  0  0  0  0  0  0
   28.0753  -22.5496  -17.5423 C   0  0  2  0  0  0  0  0  0  0  0  0
   29.4430  -23.1060  -17.8047 N   0  0  0  0  0  0  0  0  0  0  0  0
   28.2234  -21.8052  -16.2846 C   0  0  0  0  0  0  0  0  0  0  0  0
   29.2601  -21.1006  -16.1113 O   0  0  0  0  0  0  0  0  0  0  0  0
   28.1100  -19.1439  -15.8606 C   0  0  0  0  0  0  0  0  0  0  0  0
   26.9557  -19.4971  -14.9353 C   0  0  1  0  0  0  0  0  0  0  0  0
   25.7370  -19.4906  -15.5710 O   0  0  0  0  0  0  0  0  0  0  0  0
   27.2386  -20.7961  -14.2053 C   0  0  2  0  0  0  0  0  0  0  0  0
   27.2687  -21.8300  -15.2618 N   0  0  0  0  0  0  0  0  0  0  0  0
   26.1932  -21.1606  -13.2557 C   0  0  0  0  0  0  0  0  0  0  0  0
   25.2606  -21.9426  -13.5810 O   0  0  0  0  0  0  0  0  0  0  0  0
   26.8419  -20.3465   -7.7245 C   0  0  0  0  0  0  0  0  0  0  0  0
   26.5164  -21.1412   -8.9743 C   0  0  0  0  0  0  0  0  0  0  0  0
   25.2953  -20.5209   -9.6047 C   0  0  2  0  0  0  0  0  0  0  0  0
   24.0952  -20.9203   -8.7769 C   0  0  0  0  0  0  0  0  0  0  0  0
   25.0569  -21.0185  -11.0086 C   0  0  2  0  0  0  0  0  0  0  0  0
   26.1238  -20.6851  -11.9102 N   0  0  0  0  0  0  0  0  0  0  0  0
   23.8101  -20.3929  -11.4983 C   0  0  0  0  0  0  0  0  0  0  0  0
   22.5700  -21.0161  -11.4790 O   0  0  0  0  0  0  0  0  0  0  0  0
   23.8611  -19.2297  -11.9621 O   0  0  0  0  0  0  0  0  0  0  0  0
  1  2  1  0
  2  3  2  0
  4  2  1  0
  5  4  1  0
  5  7  1  0
  5  6  1  1
  7  8  2  0
 10  9  1  6
 10 11  1  0
 12 10  1  0
 13  7  1  0
 12 13  1  6
 14 12  1  0
 14 15  2  0
 16 17  1  0
 17 18  1  0
 18 19  1  1
 18 20  1  0
 20 21  1  6
 21 14  1  0
 22 23  1  0
 22 20  1  0
 24 22  2  0
M  END
$$$$
