NTI.pdb
     RDKit          3D

 24 23  0  0  1  0  0  0  0  0999 V2000
   25.0686  -20.8146   -7.4773 N   0  0  0  0  0  0  0  0  0  0  0  0
   26.3758  -20.3309   -7.9019 C   0  0  0  0  0  0  0  0  0  0  0  0
   27.1270  -19.9818   -6.9736 O   0  0  0  0  0  0  0  0  0  0  0  0
   26.7323  -20.2768   -9.2998 C   0  0  0  0  0  0  0  0  0  0  0  0
   25.6689  -20.7117  -10.2596 C   0  0  2  0  0  0  0  0  0  0  0  0
   25.4854  -22.1857  -10.0531 N   0  0  0  0  0  0  0  0  0  0  0  0
   26.0157  -20.5867  -11.6815 C   0  0  0  0  0  0  0  0  0  0  0  0
   26.8151  -21.4253  -12.1904 O   0  0  0  0  0  0  0  0  0  0  0  0
   25.6724  -22.1391  -13.8944 C   0  0  0  0  0  0  0  0  0  0  0  0
   24.9253  -20.9128  -14.3957 C   0  0  1  0  0  0  0  0  0  0  0  0
   23.5958  -20.9146  -14.0466 O   0  0  0  0  0  0  0  0  0  0  0  0
   25.6471  -19.6449  -13.9813 C   0  0  2  0  0  0  0  0  0  0  0  0
   25.5008  -19.5844  -12.5113 N   0  0  0  0  0  0  0  0  0  0  0  0
   25.0500  -18.4362  -14.5379 C   0  0  0  0  0  0  0  0  0  0  0  0
   24.1011  -17.8488  -13.9534 O   0  0  0  0  0  0  0  0  0  0  0  0
   28.3312  -14.9585  -16.8689 C   0  0  0  0  0  0  0  0  0  0  0  0
   27.1942  -15.4487  -15.9933 C   0  0  0  0  0  0  0  0  0  0  0  0
   26.0082  -15.7075  -16.8876 C   0  0  2  0  0  0  0  0  0  0  0  0
   25.3714  -14.3743  -17.2070 C   0  0  0  0  0  0  0  0  0  0  0  0
   24.9571  -16.5571  -16.2177 C   0  0  2  0  0  0  0  0  0  0  0  0
   25.4658  -17.8188  -15.7575 N   0  0  0  0  0  0  0  0  0  0  0  0
   23.8893  -16.8100  -17.2084 C   0  0  0  0  0  0  0  0  0  0  0  0
   22.7279  -16.0562  -17.3066 O   0  0  0  0  0  0  0  0  0  0  0  0
   24.0276  -17.7594  -18.0148 O   0  0  0  0  0  0  0  0  0  0  0  0
  1  2  1  0
  2  3  2  0
  4  2  1  0
  5  4  1  0
  5  7  1  0
  5  6  1  1
  7  8  2  0
 10  9  1  1
 10 11  1  0
 12 10  1  0
 13  7  1  0
 12 13  1  1
 14 12  1  0
 14 15  2  0
 16 17  1  0
 17 18  1  0
 18 19  1  1
 18 20  1  0
 20 21  1  6
 21 14  1  0
 22 23  1  0
 22 20  1  0
 24 22  2  0
M  END
$$$$
