VWM.pdb
     RDKit          3D

 30 31  0  0  1  0  0  0  0  0999 V2000
   10.8102  -19.6580   18.3316 C   0  0  0  0  0  0  0  0  0  0  0  0
   10.8665  -18.9333   19.6724 C   0  0  1  0  0  0  0  0  0  0  0  0
   12.2438  -18.4165   19.9007 C   0  0  0  0  0  0  0  0  0  0  0  0
    9.7943  -17.8996   19.6614 C   0  0  2  0  0  0  0  0  0  0  0  0
    9.9935  -16.9644   18.5702 N   0  0  0  0  0  0  0  0  0  0  0  0
    9.6599  -17.1405   20.9244 C   0  0  0  0  0  0  0  0  0  0  0  0
   10.2053  -16.0113   21.0576 O   0  0  0  0  0  0  0  0  0  0  0  0
    8.9274  -17.6184   22.0426 N   0  0  0  0  0  0  0  0  0  0  0  0
    8.7907  -16.9179   23.2933 C   0  0  1  0  0  0  0  0  0  0  0  0
    7.5324  -17.3558   23.9978 C   0  0  0  0  0  0  0  0  0  0  0  0
    6.7697  -16.1851   24.4998 C   0  0  0  0  0  0  0  0  0  0  0  0
    5.3985  -16.0602   24.6663 C   0  0  0  0  0  0  0  0  0  0  0  0
    5.1132  -14.8351   25.1475 N   0  0  0  0  0  0  0  0  0  0  0  0
    6.2557  -14.1370   25.3076 C   0  0  0  0  0  0  0  0  0  0  0  0
    6.4454  -12.8509   25.7702 C   0  0  0  0  0  0  0  0  0  0  0  0
    7.7419  -12.3895   25.8287 C   0  0  0  0  0  0  0  0  0  0  0  0
    8.7934  -13.2062   25.4324 C   0  0  0  0  0  0  0  0  0  0  0  0
    8.5693  -14.4973   24.9710 C   0  0  0  0  0  0  0  0  0  0  0  0
    7.2867  -14.9610   24.9105 C   0  0  0  0  0  0  0  0  0  0  0  0
    9.9861  -17.0180   24.1423 C   0  0  0  0  0  0  0  0  0  0  0  0
   10.8703  -17.9035   23.9157 O   0  0  0  0  0  0  0  0  0  0  0  0
    9.9523  -13.9276   30.1026 C   0  0  0  0  0  0  0  0  0  0  0  0
   11.6795  -14.0548   29.6911 S   0  0  0  0  0  0  0  0  0  0  0  0
   11.9990  -15.1939   28.3732 C   0  0  0  0  0  0  0  0  0  0  0  0
   11.0540  -15.1933   27.2265 C   0  0  0  0  0  0  0  0  0  0  0  0
   11.3103  -16.2233   26.1613 C   0  0  2  0  0  0  0  0  0  0  0  0
   10.1891  -16.1389   25.2305 N   0  0  0  0  0  0  0  0  0  0  0  0
   11.2211  -17.6055   26.7368 C   0  0  0  0  0  0  0  0  0  0  0  0
   10.1226  -18.1346   26.9796 O   0  0  0  0  0  0  0  0  0  0  0  0
   12.3518  -18.3516   27.0225 O   0  0  0  0  0  0  0  0  0  0  0  0
  2  1  1  6
  2  3  1  0
  4  2  1  0
  4  5  1  6
  6  7  2  0
  6  4  1  0
  8  6  1  0
  9  8  1  0
 10 11  1  0
  9 10  1  1
 11 12  2  0
 11 19  1  0
 12 13  1  0
 13 14  1  0
 14 15  2  0
 16 15  1  0
 17 16  2  0
 18 19  2  0
 18 17  1  0
 19 14  1  0
 20 21  2  0
 20  9  1  0
 23 22  1  0
 24 25  1  0
 24 23  1  0
 26 25  1  1
 26 27  1  0
 27 20  1  0
 28 26  1  0
 29 28  2  0
 30 28  1  0
M  END
$$$$
