VWM.pdb
     RDKit          3D

 30 31  0  0  1  0  0  0  0  0999 V2000
    6.0802  -17.6214   18.9584 C   0  0  0  0  0  0  0  0  0  0  0  0
    7.2645  -17.3889   19.8908 C   0  0  1  0  0  0  0  0  0  0  0  0
    8.5332  -17.4980   19.1196 C   0  0  0  0  0  0  0  0  0  0  0  0
    7.0437  -16.0808   20.5679 C   0  0  2  0  0  0  0  0  0  0  0  0
    6.9277  -15.0115   19.5942 N   0  0  0  0  0  0  0  0  0  0  0  0
    8.0830  -15.7178   21.5566 C   0  0  0  0  0  0  0  0  0  0  0  0
    9.0700  -15.0079   21.2215 O   0  0  0  0  0  0  0  0  0  0  0  0
    8.0414  -16.1324   22.9137 N   0  0  0  0  0  0  0  0  0  0  0  0
    9.1376  -16.0167   23.8402 C   0  0  1  0  0  0  0  0  0  0  0  0
    8.6462  -16.2114   25.2516 C   0  0  0  0  0  0  0  0  0  0  0  0
    7.5396  -15.2718   25.5632 C   0  0  0  0  0  0  0  0  0  0  0  0
    6.1736  -15.5061   25.5127 C   0  0  0  0  0  0  0  0  0  0  0  0
    5.5118  -14.3898   25.8729 N   0  0  0  0  0  0  0  0  0  0  0  0
    6.3975  -13.4151   26.1631 C   0  0  0  0  0  0  0  0  0  0  0  0
    6.1761  -12.1165   26.5732 C   0  0  0  0  0  0  0  0  0  0  0  0
    7.2852  -11.3319   26.8003 C   0  0  0  0  0  0  0  0  0  0  0  0
    8.5598  -11.8527   26.6160 C   0  0  0  0  0  0  0  0  0  0  0  0
    8.7495  -13.1653   26.2021 C   0  0  0  0  0  0  0  0  0  0  0  0
    7.6545  -13.9484   25.9753 C   0  0  0  0  0  0  0  0  0  0  0  0
   10.2702  -16.8906   23.5033 C   0  0  0  0  0  0  0  0  0  0  0  0
   10.1436  -17.8107   22.6347 O   0  0  0  0  0  0  0  0  0  0  0  0
   12.8271  -14.8265   19.0990 C   0  0  0  0  0  0  0  0  0  0  0  0
   14.1740  -14.6317   20.2464 S   0  0  0  0  0  0  0  0  0  0  0  0
   14.1168  -15.7848   21.5893 C   0  0  0  0  0  0  0  0  0  0  0  0
   12.8633  -15.8440   22.3852 C   0  0  0  0  0  0  0  0  0  0  0  0
   12.8117  -16.8993   23.4551 C   0  0  2  0  0  0  0  0  0  0  0  0
   11.5278  -16.7368   24.1303 N   0  0  0  0  0  0  0  0  0  0  0  0
   13.8350  -16.6205   24.5158 C   0  0  0  0  0  0  0  0  0  0  0  0
   15.0523  -16.6890   24.2729 O   0  0  0  0  0  0  0  0  0  0  0  0
   13.4729  -16.2759   25.8068 O   0  0  0  0  0  0  0  0  0  0  0  0
  2  1  1  6
  2  3  1  0
  4  2  1  0
  4  5  1  6
  6  7  2  0
  6  4  1  0
  8  6  1  0
  9  8  1  0
 10 11  1  0
  9 10  1  1
 11 12  2  0
 11 19  1  0
 12 13  1  0
 13 14  1  0
 14 15  2  0
 16 15  1  0
 17 16  2  0
 18 19  2  0
 18 17  1  0
 19 14  1  0
 20 21  2  0
 20  9  1  0
 23 22  1  0
 24 25  1  0
 24 23  1  0
 26 25  1  6
 26 27  1  0
 27 20  1  0
 28 26  1  0
 29 28  2  0
 30 28  1  0
M  END
$$$$
