VWM.pdb
     RDKit          3D

 30 31  0  0  1  0  0  0  0  0999 V2000
   11.4541  -19.3217   17.9270 C   0  0  0  0  0  0  0  0  0  0  0  0
   11.3003  -18.5707   19.2455 C   0  0  1  0  0  0  0  0  0  0  0  0
   12.6374  -18.1195   19.7195 C   0  0  0  0  0  0  0  0  0  0  0  0
   10.3062  -17.4844   19.0219 C   0  0  2  0  0  0  0  0  0  0  0  0
   10.7611  -16.5773   17.9850 N   0  0  0  0  0  0  0  0  0  0  0  0
    9.9708  -16.7003   20.2312 C   0  0  0  0  0  0  0  0  0  0  0  0
   10.5106  -15.5802   20.4420 O   0  0  0  0  0  0  0  0  0  0  0  0
    9.0433  -17.1431   21.2104 N   0  0  0  0  0  0  0  0  0  0  0  0
    8.7450  -16.4430   22.4329 C   0  0  1  0  0  0  0  0  0  0  0  0
    7.2643  -16.4909   22.7095 C   0  0  0  0  0  0  0  0  0  0  0  0
    6.9417  -15.8191   23.9936 C   0  0  0  0  0  0  0  0  0  0  0  0
    6.5152  -16.3949   25.1811 C   0  0  0  0  0  0  0  0  0  0  0  0
    6.3342  -15.4344   26.1076 N   0  0  0  0  0  0  0  0  0  0  0  0
    6.6278  -14.2318   25.5727 C   0  0  0  0  0  0  0  0  0  0  0  0
    6.5867  -12.9779   26.1470 C   0  0  0  0  0  0  0  0  0  0  0  0
    6.9454  -11.9113   25.3527 C   0  0  0  0  0  0  0  0  0  0  0  0
    7.3278  -12.1193   24.0334 C   0  0  0  0  0  0  0  0  0  0  0  0
    7.3589  -13.3951   23.4843 C   0  0  0  0  0  0  0  0  0  0  0  0
    7.0046  -14.4567   24.2661 C   0  0  0  0  0  0  0  0  0  0  0  0
    9.5545  -16.9016   23.5706 C   0  0  0  0  0  0  0  0  0  0  0  0
    9.8217  -18.1358   23.7208 O   0  0  0  0  0  0  0  0  0  0  0  0
   10.2564  -13.2735   29.8035 C   0  0  0  0  0  0  0  0  0  0  0  0
    9.8451  -13.2721   28.0716 S   0  0  0  0  0  0  0  0  0  0  0  0
    9.9684  -14.8735   27.3256 C   0  0  0  0  0  0  0  0  0  0  0  0
   11.1434  -15.1314   26.4533 C   0  0  0  0  0  0  0  0  0  0  0  0
   11.0429  -16.3295   25.5502 C   0  0  2  0  0  0  0  0  0  0  0  0
   10.0581  -15.9910   24.5274 N   0  0  0  0  0  0  0  0  0  0  0  0
   10.4416  -17.4906   26.2850 C   0  0  0  0  0  0  0  0  0  0  0  0
    9.2533  -17.8155   26.1178 O   0  0  0  0  0  0  0  0  0  0  0  0
   11.1781  -18.2496   27.1784 O   0  0  0  0  0  0  0  0  0  0  0  0
  2  1  1  6
  2  3  1  0
  4  2  1  0
  4  5  1  6
  6  7  2  0
  6  4  1  0
  8  6  1  0
  9  8  1  0
 10 11  1  0
  9 10  1  1
 11 12  2  0
 11 19  1  0
 12 13  1  0
 13 14  1  0
 14 15  2  0
 16 15  1  0
 17 16  2  0
 18 19  2  0
 18 17  1  0
 19 14  1  0
 20 21  2  0
 20  9  1  0
 23 22  1  0
 24 25  1  0
 24 23  1  0
 26 25  1  1
 26 27  1  0
 27 20  1  0
 28 26  1  0
 29 28  2  0
 30 28  1  0
M  END
$$$$
