VWM.pdb
     RDKit          3D

 30 31  0  0  1  0  0  0  0  0999 V2000
   12.0269  -19.0356   21.0878 C   0  0  0  0  0  0  0  0  0  0  0  0
   12.0012  -18.2360   19.7894 C   0  0  1  0  0  0  0  0  0  0  0  0
   12.5519  -19.0663   18.6833 C   0  0  0  0  0  0  0  0  0  0  0  0
   10.6038  -17.7603   19.5909 C   0  0  2  0  0  0  0  0  0  0  0  0
   10.4333  -17.2084   18.2601 N   0  0  0  0  0  0  0  0  0  0  0  0
   10.1471  -16.7639   20.5850 C   0  0  0  0  0  0  0  0  0  0  0  0
   10.6436  -15.6049   20.6092 O   0  0  0  0  0  0  0  0  0  0  0  0
    9.1458  -17.0369   21.5535 N   0  0  0  0  0  0  0  0  0  0  0  0
    8.6963  -16.1036   22.5536 C   0  0  1  0  0  0  0  0  0  0  0  0
    7.3611  -16.5356   23.1031 C   0  0  0  0  0  0  0  0  0  0  0  0
    6.9507  -15.6741   24.2406 C   0  0  0  0  0  0  0  0  0  0  0  0
    6.4861  -16.0622   25.4884 C   0  0  0  0  0  0  0  0  0  0  0  0
    6.2247  -14.9696   26.2312 N   0  0  0  0  0  0  0  0  0  0  0  0
    6.5016  -13.8613   25.5147 C   0  0  0  0  0  0  0  0  0  0  0  0
    6.3870  -12.5322   25.8674 C   0  0  0  0  0  0  0  0  0  0  0  0
    6.7468  -11.5982   24.9212 C   0  0  0  0  0  0  0  0  0  0  0  0
    7.2020  -12.0060   23.6737 C   0  0  0  0  0  0  0  0  0  0  0  0
    7.3062  -13.3528   23.3491 C   0  0  0  0  0  0  0  0  0  0  0  0
    6.9513  -14.2839   24.2822 C   0  0  0  0  0  0  0  0  0  0  0  0
    9.6953  -15.8604   23.6038 C   0  0  0  0  0  0  0  0  0  0  0  0
   10.3916  -14.7963   23.6027 O   0  0  0  0  0  0  0  0  0  0  0  0
   11.4239  -13.6235   29.7526 C   0  0  0  0  0  0  0  0  0  0  0  0
    9.9734  -14.3208   28.9919 S   0  0  0  0  0  0  0  0  0  0  0  0
   10.3300  -15.7175   27.9631 C   0  0  0  0  0  0  0  0  0  0  0  0
   10.5148  -15.4656   26.5104 C   0  0  0  0  0  0  0  0  0  0  0  0
   10.9245  -16.6525   25.6830 C   0  0  2  0  0  0  0  0  0  0  0  0
    9.9121  -16.7957   24.6413 N   0  0  0  0  0  0  0  0  0  0  0  0
   10.8200  -17.9136   26.4882 C   0  0  0  0  0  0  0  0  0  0  0  0
   11.5943  -18.1425   27.4335 O   0  0  0  0  0  0  0  0  0  0  0  0
    9.8617  -18.8753   26.2173 O   0  0  0  0  0  0  0  0  0  0  0  0
  2  1  1  1
  2  3  1  0
  4  2  1  0
  4  5  1  6
  6  7  2  0
  6  4  1  0
  8  6  1  0
  9  8  1  0
 10 11  1  0
  9 10  1  1
 11 12  2  0
 11 19  1  0
 12 13  1  0
 13 14  1  0
 14 15  2  0
 16 15  1  0
 17 16  2  0
 18 19  2  0
 18 17  1  0
 19 14  1  0
 20 21  2  0
 20  9  1  0
 23 22  1  0
 24 25  1  0
 24 23  1  0
 26 25  1  1
 26 27  1  0
 27 20  1  0
 28 26  1  0
 29 28  2  0
 30 28  1  0
M  END
$$$$
