VWM.pdb
     RDKit          3D

 30 31  0  0  1  0  0  0  0  0999 V2000
    8.3674  -14.1053   18.0156 C   0  0  0  0  0  0  0  0  0  0  0  0
    8.5387  -13.8528   19.5099 C   0  0  1  0  0  0  0  0  0  0  0  0
    7.2174  -13.5277   20.1138 C   0  0  0  0  0  0  0  0  0  0  0  0
    9.2230  -15.0447   20.0838 C   0  0  2  0  0  0  0  0  0  0  0  0
    8.4764  -16.2545   19.7946 N   0  0  0  0  0  0  0  0  0  0  0  0
    9.4682  -14.9697   21.5412 C   0  0  0  0  0  0  0  0  0  0  0  0
   10.2245  -14.0823   22.0216 O   0  0  0  0  0  0  0  0  0  0  0  0
    8.8845  -15.8673   22.4733 N   0  0  0  0  0  0  0  0  0  0  0  0
    8.9092  -15.6955   23.9028 C   0  0  1  0  0  0  0  0  0  0  0  0
    7.6509  -16.2560   24.5141 C   0  0  0  0  0  0  0  0  0  0  0  0
    6.6794  -15.1746   24.8158 C   0  0  0  0  0  0  0  0  0  0  0  0
    5.3030  -15.1839   24.6455 C   0  0  0  0  0  0  0  0  0  0  0  0
    4.7923  -14.0026   25.0426 N   0  0  0  0  0  0  0  0  0  0  0  0
    5.7891  -13.2034   25.4740 C   0  0  0  0  0  0  0  0  0  0  0  0
    5.7357  -11.9161   25.9680 C   0  0  0  0  0  0  0  0  0  0  0  0
    6.9286  -11.3356   26.3383 C   0  0  0  0  0  0  0  0  0  0  0  0
    8.1190  -12.0398   26.2087 C   0  0  0  0  0  0  0  0  0  0  0  0
    8.1394  -13.3354   25.7076 C   0  0  0  0  0  0  0  0  0  0  0  0
    6.9606  -13.9169   25.3387 C   0  0  0  0  0  0  0  0  0  0  0  0
   10.1316  -16.2237   24.5246 C   0  0  0  0  0  0  0  0  0  0  0  0
   10.8789  -17.0386   23.8963 O   0  0  0  0  0  0  0  0  0  0  0  0
   10.8502  -15.9427   31.2921 C   0  0  0  0  0  0  0  0  0  0  0  0
   12.4771  -15.7959   30.5846 S   0  0  0  0  0  0  0  0  0  0  0  0
   12.5673  -16.3870   28.9177 C   0  0  0  0  0  0  0  0  0  0  0  0
   11.5971  -15.8268   27.9415 C   0  0  0  0  0  0  0  0  0  0  0  0
   11.6524  -16.4026   26.5535 C   0  0  2  0  0  0  0  0  0  0  0  0
   10.5126  -15.8450   25.8322 N   0  0  0  0  0  0  0  0  0  0  0  0
   11.3927  -17.8794   26.5882 C   0  0  0  0  0  0  0  0  0  0  0  0
   12.2996  -18.7002   26.3660 O   0  0  0  0  0  0  0  0  0  0  0  0
   10.1381  -18.3936   26.8678 O   0  0  0  0  0  0  0  0  0  0  0  0
  2  1  1  6
  2  3  1  0
  4  2  1  0
  4  5  1  1
  6  7  2  0
  6  4  1  0
  8  6  1  0
  9  8  1  0
 10 11  1  0
  9 10  1  1
 11 12  2  0
 11 19  1  0
 12 13  1  0
 13 14  1  0
 14 15  2  0
 16 15  1  0
 17 16  2  0
 18 19  2  0
 18 17  1  0
 19 14  1  0
 20 21  2  0
 20  9  1  0
 23 22  1  0
 24 25  1  0
 24 23  1  0
 26 25  1  1
 26 27  1  0
 27 20  1  0
 28 26  1  0
 29 28  2  0
 30 28  1  0
M  END
$$$$
