VWM.pdb
     RDKit          3D

 30 31  0  0  1  0  0  0  0  0999 V2000
    9.8727  -18.6011   20.4083 C   0  0  0  0  0  0  0  0  0  0  0  0
    9.0794  -17.3986   19.9077 C   0  0  1  0  0  0  0  0  0  0  0  0
    8.4841  -17.7135   18.5801 C   0  0  0  0  0  0  0  0  0  0  0  0
    8.1019  -17.0397   20.9727 C   0  0  2  0  0  0  0  0  0  0  0  0
    7.1882  -16.0136   20.5066 N   0  0  0  0  0  0  0  0  0  0  0  0
    8.7144  -16.5944   22.2439 C   0  0  0  0  0  0  0  0  0  0  0  0
    9.3526  -15.5083   22.3050 O   0  0  0  0  0  0  0  0  0  0  0  0
    8.6280  -17.3389   23.4495 N   0  0  0  0  0  0  0  0  0  0  0  0
    9.2723  -16.9762   24.6851 C   0  0  1  0  0  0  0  0  0  0  0  0
    8.2623  -16.9321   25.8029 C   0  0  0  0  0  0  0  0  0  0  0  0
    7.3498  -15.7710   25.6489 C   0  0  0  0  0  0  0  0  0  0  0  0
    6.0528  -15.7568   25.1579 C   0  0  0  0  0  0  0  0  0  0  0  0
    5.5746  -14.4980   25.1862 N   0  0  0  0  0  0  0  0  0  0  0  0
    6.5159  -13.6698   25.6827 C   0  0  0  0  0  0  0  0  0  0  0  0
    6.4688  -12.3069   25.8926 C   0  0  0  0  0  0  0  0  0  0  0  0
    7.5943  -11.7135   26.4201 C   0  0  0  0  0  0  0  0  0  0  0  0
    8.7143  -12.4794   26.7181 C   0  0  0  0  0  0  0  0  0  0  0  0
    8.7303  -13.8506   26.4950 C   0  0  0  0  0  0  0  0  0  0  0  0
    7.6180  -14.4452   25.9724 C   0  0  0  0  0  0  0  0  0  0  0  0
   10.4343  -17.8200   24.9972 C   0  0  0  0  0  0  0  0  0  0  0  0
   10.3527  -19.0872   24.9289 O   0  0  0  0  0  0  0  0  0  0  0  0
   13.9591  -14.8788   22.5405 C   0  0  0  0  0  0  0  0  0  0  0  0
   15.2347  -15.9410   23.1834 S   0  0  0  0  0  0  0  0  0  0  0  0
   14.5980  -17.3682   24.0163 C   0  0  0  0  0  0  0  0  0  0  0  0
   14.0417  -17.1709   25.3801 C   0  0  0  0  0  0  0  0  0  0  0  0
   12.8572  -18.0253   25.7382 C   0  0  2  0  0  0  0  0  0  0  0  0
   11.6713  -17.2532   25.3807 N   0  0  0  0  0  0  0  0  0  0  0  0
   12.7642  -18.1951   27.2255 C   0  0  0  0  0  0  0  0  0  0  0  0
   13.6468  -18.7943   27.8638 O   0  0  0  0  0  0  0  0  0  0  0  0
   11.6971  -17.6949   27.9519 O   0  0  0  0  0  0  0  0  0  0  0  0
  2  1  1  1
  2  3  1  0
  4  2  1  0
  4  5  1  6
  6  7  2  0
  6  4  1  0
  8  6  1  0
  9  8  1  0
 10 11  1  0
  9 10  1  1
 11 12  2  0
 11 19  1  0
 12 13  1  0
 13 14  1  0
 14 15  2  0
 16 15  1  0
 17 16  2  0
 18 19  2  0
 18 17  1  0
 19 14  1  0
 20 21  2  0
 20  9  1  0
 23 22  1  0
 24 25  1  0
 24 23  1  0
 26 25  1  1
 26 27  1  0
 27 20  1  0
 28 26  1  0
 29 28  2  0
 30 28  1  0
M  END
$$$$
