VWM.pdb
     RDKit          3D

 30 31  0  0  1  0  0  0  0  0999 V2000
   12.3745  -19.1170   21.0054 C   0  0  0  0  0  0  0  0  0  0  0  0
   12.6628  -17.9748   20.0369 C   0  0  1  0  0  0  0  0  0  0  0  0
   13.2275  -18.5244   18.7739 C   0  0  0  0  0  0  0  0  0  0  0  0
   11.4018  -17.1972   19.8829 C   0  0  2  0  0  0  0  0  0  0  0  0
   11.5500  -16.1748   18.8643 N   0  0  0  0  0  0  0  0  0  0  0  0
   10.9138  -16.5652   21.1287 C   0  0  0  0  0  0  0  0  0  0  0  0
   11.5232  -15.5833   21.6335 O   0  0  0  0  0  0  0  0  0  0  0  0
    9.7573  -17.0088   21.8222 N   0  0  0  0  0  0  0  0  0  0  0  0
    9.2644  -16.4331   23.0466 C   0  0  1  0  0  0  0  0  0  0  0  0
    7.7579  -16.3922   23.0305 C   0  0  0  0  0  0  0  0  0  0  0  0
    7.2298  -15.7758   24.2737 C   0  0  0  0  0  0  0  0  0  0  0  0
    6.6023  -16.3988   25.3422 C   0  0  0  0  0  0  0  0  0  0  0  0
    6.2774  -15.4798   26.2715 N   0  0  0  0  0  0  0  0  0  0  0  0
    6.6702  -14.2591   25.8542 C   0  0  0  0  0  0  0  0  0  0  0  0
    6.5460  -13.0331   26.4750 C   0  0  0  0  0  0  0  0  0  0  0  0
    7.0454  -11.9373   25.8065 C   0  0  0  0  0  0  0  0  0  0  0  0
    7.6434  -12.0900   24.5619 C   0  0  0  0  0  0  0  0  0  0  0  0
    7.7533  -13.3388   23.9632 C   0  0  0  0  0  0  0  0  0  0  0  0
    7.2604  -14.4292   24.6203 C   0  0  0  0  0  0  0  0  0  0  0  0
    9.8061  -17.0845   24.2475 C   0  0  0  0  0  0  0  0  0  0  0  0
   10.1138  -18.3183   24.2331 O   0  0  0  0  0  0  0  0  0  0  0  0
    9.3422  -12.4853   27.8628 C   0  0  0  0  0  0  0  0  0  0  0  0
    9.9125  -13.6757   29.0571 S   0  0  0  0  0  0  0  0  0  0  0  0
   10.7952  -15.0262   28.3270 C   0  0  0  0  0  0  0  0  0  0  0  0
    9.9938  -16.1666   27.8120 C   0  0  0  0  0  0  0  0  0  0  0  0
   10.5922  -16.9249   26.6595 C   0  0  2  0  0  0  0  0  0  0  0  0
   10.0008  -16.3646   25.4484 N   0  0  0  0  0  0  0  0  0  0  0  0
   10.1349  -18.3532   26.6783 C   0  0  0  0  0  0  0  0  0  0  0  0
   10.5403  -19.1501   27.5421 O   0  0  0  0  0  0  0  0  0  0  0  0
    9.2452  -18.8472   25.7396 O   0  0  0  0  0  0  0  0  0  0  0  0
  2  1  1  1
  2  3  1  0
  4  2  1  0
  4  5  1  6
  6  7  2  0
  6  4  1  0
  8  6  1  0
  9  8  1  0
 10 11  1  0
  9 10  1  6
 11 12  2  0
 11 19  1  0
 12 13  1  0
 13 14  1  0
 14 15  2  0
 16 15  1  0
 17 16  2  0
 18 19  2  0
 18 17  1  0
 19 14  1  0
 20 21  2  0
 20  9  1  0
 23 22  1  0
 24 25  1  0
 24 23  1  0
 26 25  1  1
 26 27  1  0
 27 20  1  0
 28 26  1  0
 29 28  2  0
 30 28  1  0
M  END
$$$$
