VWM.pdb
     RDKit          3D

 30 31  0  0  1  0  0  0  0  0999 V2000
   11.3067  -19.4291   18.3042 C   0  0  0  0  0  0  0  0  0  0  0  0
   11.2814  -18.6241   19.5992 C   0  0  1  0  0  0  0  0  0  0  0  0
   12.5475  -17.8519   19.7294 C   0  0  0  0  0  0  0  0  0  0  0  0
   10.0371  -17.8055   19.5865 C   0  0  2  0  0  0  0  0  0  0  0  0
   10.0375  -16.8877   18.4629 N   0  0  0  0  0  0  0  0  0  0  0  0
    9.7921  -17.0411   20.8296 C   0  0  0  0  0  0  0  0  0  0  0  0
   10.2059  -15.8557   20.9481 O   0  0  0  0  0  0  0  0  0  0  0  0
    9.0931  -17.5751   21.9437 N   0  0  0  0  0  0  0  0  0  0  0  0
    8.8841  -16.8828   23.1890 C   0  0  1  0  0  0  0  0  0  0  0  0
    7.6645  -17.4279   23.8868 C   0  0  0  0  0  0  0  0  0  0  0  0
    6.9093  -16.3425   24.5620 C   0  0  0  0  0  0  0  0  0  0  0  0
    5.7249  -16.4364   25.2776 C   0  0  0  0  0  0  0  0  0  0  0  0
    5.3739  -15.2171   25.7290 N   0  0  0  0  0  0  0  0  0  0  0  0
    6.2907  -14.3100   25.3353 C   0  0  0  0  0  0  0  0  0  0  0  0
    6.3409  -12.9505   25.5654 C   0  0  0  0  0  0  0  0  0  0  0  0
    7.4102  -12.2629   25.0352 C   0  0  0  0  0  0  0  0  0  0  0  0
    8.3813  -12.9357   24.3044 C   0  0  0  0  0  0  0  0  0  0  0  0
    8.3022  -14.3061   24.0903 C   0  0  0  0  0  0  0  0  0  0  0  0
    7.2450  -14.9938   24.6130 C   0  0  0  0  0  0  0  0  0  0  0  0
   10.0769  -16.8709   24.0476 C   0  0  0  0  0  0  0  0  0  0  0  0
   10.9290  -17.8130   23.9872 O   0  0  0  0  0  0  0  0  0  0  0  0
    9.2201  -13.5955   29.5454 C   0  0  0  0  0  0  0  0  0  0  0  0
   10.9119  -14.1007   29.7722 S   0  0  0  0  0  0  0  0  0  0  0  0
   11.5457  -15.0416   28.4123 C   0  0  0  0  0  0  0  0  0  0  0  0
   10.7783  -15.0048   27.1404 C   0  0  0  0  0  0  0  0  0  0  0  0
   11.3140  -15.8567   26.0231 C   0  0  2  0  0  0  0  0  0  0  0  0
   10.3127  -15.8187   24.9617 N   0  0  0  0  0  0  0  0  0  0  0  0
   11.3679  -17.2961   26.4412 C   0  0  0  0  0  0  0  0  0  0  0  0
   12.4517  -17.8909   26.5714 O   0  0  0  0  0  0  0  0  0  0  0  0
   10.2193  -18.0245   26.7001 O   0  0  0  0  0  0  0  0  0  0  0  0
  2  1  1  6
  2  3  1  0
  4  2  1  0
  4  5  1  6
  6  7  2  0
  6  4  1  0
  8  6  1  0
  9  8  1  0
 10 11  1  0
  9 10  1  1
 11 12  2  0
 11 19  1  0
 12 13  1  0
 13 14  1  0
 14 15  2  0
 16 15  1  0
 17 16  2  0
 18 19  2  0
 18 17  1  0
 19 14  1  0
 20 21  2  0
 20  9  1  0
 23 22  1  0
 24 25  1  0
 24 23  1  0
 26 25  1  1
 26 27  1  0
 27 20  1  0
 28 26  1  0
 29 28  2  0
 30 28  1  0
M  END
$$$$
