VWM.pdb
     RDKit          3D

 30 31  0  0  1  0  0  0  0  0999 V2000
    8.5217  -12.3241   19.4790 C   0  0  0  0  0  0  0  0  0  0  0  0
    7.8717  -13.6681   19.1677 C   0  0  1  0  0  0  0  0  0  0  0  0
    7.5354  -13.7340   17.7189 C   0  0  0  0  0  0  0  0  0  0  0  0
    8.7969  -14.7295   19.6535 C   0  0  2  0  0  0  0  0  0  0  0  0
    8.3298  -16.0423   19.2497 N   0  0  0  0  0  0  0  0  0  0  0  0
    9.0183  -14.7288   21.1165 C   0  0  0  0  0  0  0  0  0  0  0  0
    9.6321  -13.7785   21.6739 O   0  0  0  0  0  0  0  0  0  0  0  0
    8.5672  -15.7695   21.9700 N   0  0  0  0  0  0  0  0  0  0  0  0
    8.7076  -15.7734   23.4032 C   0  0  1  0  0  0  0  0  0  0  0  0
    7.5918  -16.5684   24.0312 C   0  0  0  0  0  0  0  0  0  0  0  0
    6.7010  -15.6920   24.8329 C   0  0  0  0  0  0  0  0  0  0  0  0
    5.5057  -16.0204   25.4549 C   0  0  0  0  0  0  0  0  0  0  0  0
    5.0113  -14.9355   26.0813 N   0  0  0  0  0  0  0  0  0  0  0  0
    5.8430  -13.8903   25.8955 C   0  0  0  0  0  0  0  0  0  0  0  0
    5.7414  -12.5914   26.3499 C   0  0  0  0  0  0  0  0  0  0  0  0
    6.7528  -11.7236   26.0022 C   0  0  0  0  0  0  0  0  0  0  0  0
    7.8172  -12.1651   25.2262 C   0  0  0  0  0  0  0  0  0  0  0  0
    7.8905  -13.4802   24.7841 C   0  0  0  0  0  0  0  0  0  0  0  0
    6.8913  -14.3456   25.1252 C   0  0  0  0  0  0  0  0  0  0  0  0
   10.0394  -16.2058   23.8494 C   0  0  0  0  0  0  0  0  0  0  0  0
   10.8969  -16.6326   23.0129 O   0  0  0  0  0  0  0  0  0  0  0  0
    9.9300  -13.3500   29.7949 C   0  0  0  0  0  0  0  0  0  0  0  0
   10.8488  -14.8253   29.4102 S   0  0  0  0  0  0  0  0  0  0  0  0
   11.1695  -15.0140   27.6788 C   0  0  0  0  0  0  0  0  0  0  0  0
   11.6650  -16.3365   27.2167 C   0  0  0  0  0  0  0  0  0  0  0  0
   11.7208  -16.5351   25.7272 C   0  0  2  0  0  0  0  0  0  0  0  0
   10.4067  -16.1610   25.2138 N   0  0  0  0  0  0  0  0  0  0  0  0
   11.8552  -17.9921   25.3976 C   0  0  0  0  0  0  0  0  0  0  0  0
   12.9670  -18.5477   25.3668 O   0  0  0  0  0  0  0  0  0  0  0  0
   10.7534  -18.7810   25.1140 O   0  0  0  0  0  0  0  0  0  0  0  0
  2  1  1  6
  2  3  1  0
  4  2  1  0
  4  5  1  1
  6  7  2  0
  6  4  1  0
  8  6  1  0
  9  8  1  0
 10 11  1  0
  9 10  1  1
 11 12  2  0
 11 19  1  0
 12 13  1  0
 13 14  1  0
 14 15  2  0
 16 15  1  0
 17 16  2  0
 18 19  2  0
 18 17  1  0
 19 14  1  0
 20 21  2  0
 20  9  1  0
 23 22  1  0
 24 25  1  0
 24 23  1  0
 26 25  1  1
 26 27  1  0
 27 20  1  0
 28 26  1  0
 29 28  2  0
 30 28  1  0
M  END
$$$$
