VWM.pdb
     RDKit          3D

 30 31  0  0  1  0  0  0  0  0999 V2000
   12.0232  -18.5791   18.0904 C   0  0  0  0  0  0  0  0  0  0  0  0
   11.6793  -17.5327   19.1452 C   0  0  1  0  0  0  0  0  0  0  0  0
   10.5285  -16.7132   18.6758 C   0  0  0  0  0  0  0  0  0  0  0  0
   11.4624  -18.2547   20.4297 C   0  0  2  0  0  0  0  0  0  0  0  0
   10.4604  -19.2921   20.2730 N   0  0  0  0  0  0  0  0  0  0  0  0
   11.0799  -17.3866   21.5653 C   0  0  0  0  0  0  0  0  0  0  0  0
   11.8566  -16.4803   21.9725 O   0  0  0  0  0  0  0  0  0  0  0  0
    9.8457  -17.5110   22.2556 N   0  0  0  0  0  0  0  0  0  0  0  0
    9.4738  -16.7422   23.4150 C   0  0  1  0  0  0  0  0  0  0  0  0
    8.0166  -16.3647   23.3410 C   0  0  0  0  0  0  0  0  0  0  0  0
    7.8366  -14.9024   23.5247 C   0  0  0  0  0  0  0  0  0  0  0  0
    8.2742  -13.8731   22.7046 C   0  0  0  0  0  0  0  0  0  0  0  0
    7.9034  -12.6900   23.2306 N   0  0  0  0  0  0  0  0  0  0  0  0
    7.2298  -12.8994   24.3798 C   0  0  0  0  0  0  0  0  0  0  0  0
    6.6671  -11.9886   25.2502 C   0  0  0  0  0  0  0  0  0  0  0  0
    6.0300  -12.4934   26.3622 C   0  0  0  0  0  0  0  0  0  0  0  0
    5.9722  -13.8654   26.5724 C   0  0  0  0  0  0  0  0  0  0  0  0
    6.5490  -14.7570   25.6766 C   0  0  0  0  0  0  0  0  0  0  0  0
    7.1820  -14.2634   24.5723 C   0  0  0  0  0  0  0  0  0  0  0  0
    9.8307  -17.3998   24.6800 C   0  0  0  0  0  0  0  0  0  0  0  0
    9.6257  -18.6440   24.8446 O   0  0  0  0  0  0  0  0  0  0  0  0
    9.2826  -12.8368   27.6407 C   0  0  0  0  0  0  0  0  0  0  0  0
   10.8607  -13.4361   28.2058 S   0  0  0  0  0  0  0  0  0  0  0  0
   11.4614  -14.8102   27.2638 C   0  0  0  0  0  0  0  0  0  0  0  0
   11.3336  -16.1610   27.8697 C   0  0  0  0  0  0  0  0  0  0  0  0
   11.0333  -17.2846   26.9165 C   0  0  2  0  0  0  0  0  0  0  0  0
   10.4093  -16.6745   25.7465 N   0  0  0  0  0  0  0  0  0  0  0  0
    9.9756  -18.1842   27.4837 C   0  0  0  0  0  0  0  0  0  0  0  0
    8.8086  -18.1590   27.0559 O   0  0  0  0  0  0  0  0  0  0  0  0
   10.2489  -19.0792   28.5039 O   0  0  0  0  0  0  0  0  0  0  0  0
  2  1  1  6
  2  3  1  0
  4  2  1  0
  4  5  1  6
  6  7  2  0
  6  4  1  0
  8  6  1  0
  9  8  1  0
 10 11  1  0
  9 10  1  1
 11 12  2  0
 11 19  1  0
 12 13  1  0
 13 14  1  0
 14 15  2  0
 16 15  1  0
 17 16  2  0
 18 19  2  0
 18 17  1  0
 19 14  1  0
 20 21  2  0
 20  9  1  0
 23 22  1  0
 24 25  1  0
 24 23  1  0
 26 25  1  1
 26 27  1  0
 27 20  1  0
 28 26  1  0
 29 28  2  0
 30 28  1  0
M  END
$$$$
