VWM.pdb
     RDKit          3D

 30 31  0  0  1  0  0  0  0  0999 V2000
   10.5904  -20.7431   21.3181 C   0  0  0  0  0  0  0  0  0  0  0  0
   11.0727  -20.2436   19.9602 C   0  0  1  0  0  0  0  0  0  0  0  0
   11.1291  -21.3825   19.0030 C   0  0  0  0  0  0  0  0  0  0  0  0
   10.1794  -19.1212   19.5594 C   0  0  2  0  0  0  0  0  0  0  0  0
   10.5042  -18.6582   18.2233 N   0  0  0  0  0  0  0  0  0  0  0  0
   10.1927  -17.9656   20.4835 C   0  0  0  0  0  0  0  0  0  0  0  0
   11.1438  -17.1378   20.4648 O   0  0  0  0  0  0  0  0  0  0  0  0
    9.1633  -17.7162   21.4287 N   0  0  0  0  0  0  0  0  0  0  0  0
    9.1171  -16.5778   22.3092 C   0  0  1  0  0  0  0  0  0  0  0  0
    7.7314  -15.9853   22.3182 C   0  0  0  0  0  0  0  0  0  0  0  0
    7.7302  -14.6463   22.9595 C   0  0  0  0  0  0  0  0  0  0  0  0
    8.3911  -13.4974   22.5512 C   0  0  0  0  0  0  0  0  0  0  0  0
    8.1263  -12.4958   23.4117 N   0  0  0  0  0  0  0  0  0  0  0  0
    7.3064  -12.9429   24.3845 C   0  0  0  0  0  0  0  0  0  0  0  0
    6.7775  -12.2729   25.4685 C   0  0  0  0  0  0  0  0  0  0  0  0
    5.9580  -12.9905   26.3115 C   0  0  0  0  0  0  0  0  0  0  0  0
    5.6931  -14.3301   26.0562 C   0  0  0  0  0  0  0  0  0  0  0  0
    6.2413  -14.9765   24.9554 C   0  0  0  0  0  0  0  0  0  0  0  0
    7.0544  -14.2711   24.1158 C   0  0  0  0  0  0  0  0  0  0  0  0
    9.6217  -16.8727   23.6576 C   0  0  0  0  0  0  0  0  0  0  0  0
    9.0418  -17.7325   24.3936 O   0  0  0  0  0  0  0  0  0  0  0  0
   10.7359  -12.4466   28.0859 C   0  0  0  0  0  0  0  0  0  0  0  0
   10.4296  -14.0347   28.8295 S   0  0  0  0  0  0  0  0  0  0  0  0
   10.9670  -15.3896   27.8237 C   0  0  0  0  0  0  0  0  0  0  0  0
   10.7188  -15.2948   26.3616 C   0  0  0  0  0  0  0  0  0  0  0  0
   11.2838  -16.4085   25.5241 C   0  0  2  0  0  0  0  0  0  0  0  0
   10.7603  -16.2141   24.1755 N   0  0  0  0  0  0  0  0  0  0  0  0
   10.7228  -17.7291   25.9611 C   0  0  0  0  0  0  0  0  0  0  0  0
   11.2749  -18.4043   26.8471 O   0  0  0  0  0  0  0  0  0  0  0  0
    9.5706  -18.2540   25.4011 O   0  0  0  0  0  0  0  0  0  0  0  0
  2  1  1  1
  2  3  1  0
  4  2  1  0
  4  5  1  6
  6  7  2  0
  6  4  1  0
  8  6  1  0
  9  8  1  0
 10 11  1  0
  9 10  1  1
 11 12  2  0
 11 19  1  0
 12 13  1  0
 13 14  1  0
 14 15  2  0
 16 15  1  0
 17 16  2  0
 18 19  2  0
 18 17  1  0
 19 14  1  0
 20 21  2  0
 20  9  1  0
 23 22  1  0
 24 25  1  0
 24 23  1  0
 26 25  1  1
 26 27  1  0
 27 20  1  0
 28 26  1  0
 29 28  2  0
 30 28  1  0
M  END
$$$$
