VWM.pdb
     RDKit          3D

 30 31  0  0  1  0  0  0  0  0999 V2000
    9.2273  -12.5950   19.5098 C   0  0  0  0  0  0  0  0  0  0  0  0
    8.0928  -13.5007   19.0424 C   0  0  1  0  0  0  0  0  0  0  0  0
    7.9763  -13.4268   17.5601 C   0  0  0  0  0  0  0  0  0  0  0  0
    8.3576  -14.8598   19.5912 C   0  0  2  0  0  0  0  0  0  0  0  0
    7.5155  -15.8482   18.9442 N   0  0  0  0  0  0  0  0  0  0  0  0
    8.1904  -14.9735   21.0571 C   0  0  0  0  0  0  0  0  0  0  0  0
    7.4641  -14.1574   21.6870 O   0  0  0  0  0  0  0  0  0  0  0  0
    8.8189  -15.9820   21.8337 N   0  0  0  0  0  0  0  0  0  0  0  0
    9.1379  -15.8599   23.2326 C   0  0  1  0  0  0  0  0  0  0  0  0
    8.1445  -16.6343   24.0602 C   0  0  0  0  0  0  0  0  0  0  0  0
    7.2606  -15.7181   24.8242 C   0  0  0  0  0  0  0  0  0  0  0  0
    6.0789  -16.0173   25.4857 C   0  0  0  0  0  0  0  0  0  0  0  0
    5.5867  -14.9005   26.0552 N   0  0  0  0  0  0  0  0  0  0  0  0
    6.4065  -13.8624   25.7929 C   0  0  0  0  0  0  0  0  0  0  0  0
    6.3022  -12.5395   26.1711 C   0  0  0  0  0  0  0  0  0  0  0  0
    7.3005  -11.6868   25.7545 C   0  0  0  0  0  0  0  0  0  0  0  0
    8.3548  -12.1662   24.9874 C   0  0  0  0  0  0  0  0  0  0  0  0
    8.4311  -13.5047   24.6230 C   0  0  0  0  0  0  0  0  0  0  0  0
    7.4450  -14.3554   25.0325 C   0  0  0  0  0  0  0  0  0  0  0  0
   10.5323  -16.2099   23.5373 C   0  0  0  0  0  0  0  0  0  0  0  0
   11.0747  -17.2319   23.0095 O   0  0  0  0  0  0  0  0  0  0  0  0
   10.3165  -13.3887   29.2981 C   0  0  0  0  0  0  0  0  0  0  0  0
   10.6526  -15.1228   29.5189 S   0  0  0  0  0  0  0  0  0  0  0  0
   11.4913  -15.8505   28.1394 C   0  0  0  0  0  0  0  0  0  0  0  0
   11.1422  -15.3472   26.7855 C   0  0  0  0  0  0  0  0  0  0  0  0
   11.9278  -15.9300   25.6434 C   0  0  2  0  0  0  0  0  0  0  0  0
   11.3095  -15.4265   24.4209 N   0  0  0  0  0  0  0  0  0  0  0  0
   11.7362  -17.4162   25.5802 C   0  0  0  0  0  0  0  0  0  0  0  0
   10.6105  -17.9159   25.4107 O   0  0  0  0  0  0  0  0  0  0  0  0
   12.7983  -18.2952   25.7069 O   0  0  0  0  0  0  0  0  0  0  0  0
  2  1  1  6
  2  3  1  0
  4  2  1  0
  4  5  1  6
  6  7  2  0
  6  4  1  0
  8  6  1  0
  9  8  1  0
 10 11  1  0
  9 10  1  1
 11 12  2  0
 11 19  1  0
 12 13  1  0
 13 14  1  0
 14 15  2  0
 16 15  1  0
 17 16  2  0
 18 19  2  0
 18 17  1  0
 19 14  1  0
 20 21  2  0
 20  9  1  0
 23 22  1  0
 24 25  1  0
 24 23  1  0
 26 25  1  1
 26 27  1  0
 27 20  1  0
 28 26  1  0
 29 28  2  0
 30 28  1  0
M  END
$$$$
