VWM.pdb
     RDKit          3D

 30 31  0  0  1  0  0  0  0  0999 V2000
    8.3489  -12.7173   19.1774 C   0  0  0  0  0  0  0  0  0  0  0  0
    7.7245  -13.9497   18.5315 C   0  0  1  0  0  0  0  0  0  0  0  0
    7.8105  -13.8319   17.0499 C   0  0  0  0  0  0  0  0  0  0  0  0
    8.3989  -15.1433   19.1136 C   0  0  2  0  0  0  0  0  0  0  0  0
    7.9434  -16.3582   18.4645 N   0  0  0  0  0  0  0  0  0  0  0  0
    8.2325  -15.2903   20.5766 C   0  0  0  0  0  0  0  0  0  0  0  0
    7.3308  -16.0341   21.0500 O   0  0  0  0  0  0  0  0  0  0  0  0
    9.0544  -14.6224   21.5219 N   0  0  0  0  0  0  0  0  0  0  0  0
    8.9116  -14.7269   22.9510 C   0  0  1  0  0  0  0  0  0  0  0  0
    7.7881  -15.6719   23.2919 C   0  0  0  0  0  0  0  0  0  0  0  0
    6.9971  -15.1642   24.4412 C   0  0  0  0  0  0  0  0  0  0  0  0
    6.1613  -15.8747   25.2898 C   0  0  0  0  0  0  0  0  0  0  0  0
    5.6328  -15.0392   26.2044 N   0  0  0  0  0  0  0  0  0  0  0  0
    6.0919  -13.7894   25.9910 C   0  0  0  0  0  0  0  0  0  0  0  0
    5.8222  -12.6224   26.6760 C   0  0  0  0  0  0  0  0  0  0  0  0
    6.4410  -11.4753   26.2304 C   0  0  0  0  0  0  0  0  0  0  0  0
    7.2951  -11.5216   25.1358 C   0  0  0  0  0  0  0  0  0  0  0  0
    7.5463  -12.7132   24.4671 C   0  0  0  0  0  0  0  0  0  0  0  0
    6.9363  -13.8539   24.9035 C   0  0  0  0  0  0  0  0  0  0  0  0
   10.1696  -15.0647   23.6316 C   0  0  0  0  0  0  0  0  0  0  0  0
   11.1431  -14.2467   23.6387 O   0  0  0  0  0  0  0  0  0  0  0  0
   10.3451  -13.4944   28.7808 C   0  0  0  0  0  0  0  0  0  0  0  0
   11.3755  -14.9052   29.1221 S   0  0  0  0  0  0  0  0  0  0  0  0
   11.3856  -16.0939   27.8094 C   0  0  0  0  0  0  0  0  0  0  0  0
   11.0594  -15.6058   26.4443 C   0  0  0  0  0  0  0  0  0  0  0  0
   11.3446  -16.5603   25.3180 C   0  0  2  0  0  0  0  0  0  0  0  0
   10.3357  -16.3017   24.2954 N   0  0  0  0  0  0  0  0  0  0  0  0
   11.0903  -17.9735   25.7517 C   0  0  0  0  0  0  0  0  0  0  0  0
   10.0016  -18.5313   25.5301 O   0  0  0  0  0  0  0  0  0  0  0  0
   12.0511  -18.7175   26.4150 O   0  0  0  0  0  0  0  0  0  0  0  0
  2  1  1  1
  2  3  1  0
  4  2  1  0
  4  5  1  6
  6  7  2  0
  6  4  1  0
  8  6  1  0
  9  8  1  0
 10 11  1  0
  9 10  1  6
 11 12  2  0
 11 19  1  0
 12 13  1  0
 13 14  1  0
 14 15  2  0
 16 15  1  0
 17 16  2  0
 18 19  2  0
 18 17  1  0
 19 14  1  0
 20 21  2  0
 20  9  1  0
 23 22  1  0
 24 25  1  0
 24 23  1  0
 26 25  1  1
 26 27  1  0
 27 20  1  0
 28 26  1  0
 29 28  2  0
 30 28  1  0
M  END
$$$$
