VWM.pdb
     RDKit          3D

 30 31  0  0  1  0  0  0  0  0999 V2000
    9.8052  -15.3948   16.5495 C   0  0  0  0  0  0  0  0  0  0  0  0
    9.9615  -15.2891   18.0629 C   0  0  1  0  0  0  0  0  0  0  0  0
   11.3094  -14.7466   18.3868 C   0  0  0  0  0  0  0  0  0  0  0  0
    8.8150  -14.4852   18.5704 C   0  0  2  0  0  0  0  0  0  0  0  0
    8.8291  -13.1521   17.9983 N   0  0  0  0  0  0  0  0  0  0  0  0
    8.7479  -14.3733   20.0444 C   0  0  0  0  0  0  0  0  0  0  0  0
    9.2740  -13.3940   20.6399 O   0  0  0  0  0  0  0  0  0  0  0  0
    8.1043  -15.3346   20.8670 N   0  0  0  0  0  0  0  0  0  0  0  0
    8.0811  -15.2981   22.3063 C   0  0  1  0  0  0  0  0  0  0  0  0
    6.7199  -15.6999   22.8132 C   0  0  0  0  0  0  0  0  0  0  0  0
    6.5954  -15.4349   24.2687 C   0  0  0  0  0  0  0  0  0  0  0  0
    6.2853  -16.3301   25.2817 C   0  0  0  0  0  0  0  0  0  0  0  0
    6.2737  -15.6855   26.4641 N   0  0  0  0  0  0  0  0  0  0  0  0
    6.5676  -14.3838   26.2702 C   0  0  0  0  0  0  0  0  0  0  0  0
    6.6683  -13.3569   27.1863 C   0  0  0  0  0  0  0  0  0  0  0  0
    6.9872  -12.1090   26.6983 C   0  0  0  0  0  0  0  0  0  0  0  0
    7.1930  -11.9220   25.3372 C   0  0  0  0  0  0  0  0  0  0  0  0
    7.0842  -12.9770   24.4399 C   0  0  0  0  0  0  0  0  0  0  0  0
    6.7685  -14.2166   24.9169 C   0  0  0  0  0  0  0  0  0  0  0  0
    9.1706  -16.0712   22.9189 C   0  0  0  0  0  0  0  0  0  0  0  0
    9.5606  -17.1652   22.4010 O   0  0  0  0  0  0  0  0  0  0  0  0
   10.6016  -12.8515   28.1997 C   0  0  0  0  0  0  0  0  0  0  0  0
   10.8371  -14.5932   28.4822 S   0  0  0  0  0  0  0  0  0  0  0  0
   10.4801  -15.5839   27.0584 C   0  0  0  0  0  0  0  0  0  0  0  0
   11.3680  -15.4265   25.8773 C   0  0  0  0  0  0  0  0  0  0  0  0
   11.0068  -16.2442   24.6682 C   0  0  2  0  0  0  0  0  0  0  0  0
    9.8151  -15.6258   24.0956 N   0  0  0  0  0  0  0  0  0  0  0  0
   10.5614  -17.6166   25.0778 C   0  0  0  0  0  0  0  0  0  0  0  0
   10.6165  -17.9867   26.2634 O   0  0  0  0  0  0  0  0  0  0  0  0
   10.0711  -18.5292   24.1595 O   0  0  0  0  0  0  0  0  0  0  0  0
  2  1  1  6
  2  3  1  0
  4  2  1  0
  4  5  1  6
  6  7  2  0
  6  4  1  0
  8  6  1  0
  9  8  1  0
 10 11  1  0
  9 10  1  1
 11 12  2  0
 11 19  1  0
 12 13  1  0
 13 14  1  0
 14 15  2  0
 16 15  1  0
 17 16  2  0
 18 19  2  0
 18 17  1  0
 19 14  1  0
 20 21  2  0
 20  9  1  0
 23 22  1  0
 24 25  1  0
 24 23  1  0
 26 25  1  1
 26 27  1  0
 27 20  1  0
 28 26  1  0
 29 28  2  0
 30 28  1  0
M  END
$$$$
