LFE.pdb
     RDKit          3D

 29 29  0  0  1  0  0  0  0  0999 V2000
    6.8478  -18.4244   18.4551 C   0  0  0  0  0  0  0  0  0  0  0  0
    8.1823  -18.9409   18.9513 C   0  0  2  0  0  0  0  0  0  0  0  0
    8.0575  -20.3989   19.2468 C   0  0  0  0  0  0  0  0  0  0  0  0
    8.5578  -18.1111   20.1571 C   0  0  0  0  0  0  0  0  0  0  0  0
    8.5725  -16.6254   19.8364 C   0  0  2  0  0  0  0  0  0  0  0  0
    9.5680  -16.3141   18.8486 N   0  0  0  0  0  0  0  0  0  0  0  0
    8.8252  -15.9104   21.1034 C   0  0  0  0  0  0  0  0  0  0  0  0
    9.9952  -15.8478   21.5348 O   0  0  0  0  0  0  0  0  0  0  0  0
    7.7880  -15.3013   21.8328 N   0  0  0  0  0  0  0  0  0  0  0  0
    8.0505  -14.6999   23.0949 C   0  0  1  0  0  0  0  0  0  0  0  0
    6.8063  -13.9344   23.5172 C   0  0  0  0  0  0  0  0  0  0  0  0
    6.9488  -13.3627   24.8671 C   0  0  0  0  0  0  0  0  0  0  0  0
    7.8002  -12.3075   25.1225 C   0  0  0  0  0  0  0  0  0  0  0  0
    7.9214  -11.7805   26.4056 C   0  0  0  0  0  0  0  0  0  0  0  0
    7.1955  -12.3032   27.4355 C   0  0  0  0  0  0  0  0  0  0  0  0
    6.3398  -13.3556   27.2060 C   0  0  0  0  0  0  0  0  0  0  0  0
    6.2299  -13.8672   25.9308 C   0  0  0  0  0  0  0  0  0  0  0  0
    8.3128  -15.7045   24.1743 C   0  0  0  0  0  0  0  0  0  0  0  0
    7.5069  -16.6426   24.3985 O   0  0  0  0  0  0  0  0  0  0  0  0
    9.4781  -15.5856   24.9385 N   0  0  0  0  0  0  0  0  0  0  0  0
   10.1239  -16.7596   25.5717 C   0  0  1  0  0  0  0  0  0  0  0  0
   11.4721  -16.9841   24.9630 C   0  0  0  0  0  0  0  0  0  0  0  0
   12.2298  -18.0673   25.6369 C   0  0  0  0  0  0  0  0  0  0  0  0
   13.5412  -18.3352   24.9699 C   0  0  0  0  0  0  0  0  0  0  0  0
   13.9199  -19.4641   24.6053 O   0  0  0  0  0  0  0  0  0  0  0  0
   10.2438  -16.5180   27.0180 C   0  0  0  0  0  0  0  0  0  0  0  0
   10.6243  -17.5942   27.8334 O   0  0  0  0  0  0  0  0  0  0  0  0
   14.3680  -17.2482   24.7547 O   0  0  0  0  0  0  0  0  0  0  0  0
   10.0380  -15.4444   27.5848 O   0  0  0  0  0  0  0  0  0  0  0  0
  2  4  1  0
  2  1  1  1
  3  2  1  0
  5  6  1  6
  5  4  1  0
  7  8  2  0
  7  5  1  0
  9  7  1  0
 10  9  1  0
 10 11  1  1
 12 17  2  0
 12 11  1  0
 13 12  1  0
 14 15  1  0
 14 13  2  0
 15 16  2  0
 16 17  1  0
 18 10  1  0
 18 20  1  0
 19 18  2  0
 21 20  1  0
 21 26  1  0
 21 22  1  6
 23 22  1  0
 24 23  1  0
 24 25  2  0
 26 29  2  0
 26 27  1  0
 28 24  1  0
M  END
$$$$
