LFE.pdb
     RDKit          3D

 29 29  0  0  1  0  0  0  0  0999 V2000
    7.9686  -14.0847   18.4317 C   0  0  0  0  0  0  0  0  0  0  0  0
    7.7615  -13.2046   19.6468 C   0  0  2  0  0  0  0  0  0  0  0  0
    7.8736  -11.7745   19.2333 C   0  0  0  0  0  0  0  0  0  0  0  0
    8.7903  -13.6179   20.6735 C   0  0  0  0  0  0  0  0  0  0  0  0
    8.5460  -15.0304   21.1791 C   0  0  2  0  0  0  0  0  0  0  0  0
    7.1571  -15.3853   21.0870 N   0  0  0  0  0  0  0  0  0  0  0  0
    9.0261  -15.0810   22.5745 C   0  0  0  0  0  0  0  0  0  0  0  0
   10.1236  -14.5541   22.8518 O   0  0  0  0  0  0  0  0  0  0  0  0
    8.2834  -15.7040   23.5940 N   0  0  0  0  0  0  0  0  0  0  0  0
    8.7426  -15.6773   24.9401 C   0  0  1  0  0  0  0  0  0  0  0  0
    7.5342  -15.4887   25.8438 C   0  0  0  0  0  0  0  0  0  0  0  0
    7.2402  -14.0636   26.0719 C   0  0  0  0  0  0  0  0  0  0  0  0
    8.1870  -13.1996   26.5825 C   0  0  0  0  0  0  0  0  0  0  0  0
    7.8902  -11.8553   26.7912 C   0  0  0  0  0  0  0  0  0  0  0  0
    6.6509  -11.3698   26.4921 C   0  0  0  0  0  0  0  0  0  0  0  0
    5.6899  -12.2116   25.9819 C   0  0  0  0  0  0  0  0  0  0  0  0
    5.9977  -13.5400   25.7804 C   0  0  0  0  0  0  0  0  0  0  0  0
    9.3858  -16.9628   25.3605 C   0  0  0  0  0  0  0  0  0  0  0  0
    8.7244  -18.0296   25.4248 O   0  0  0  0  0  0  0  0  0  0  0  0
   10.7464  -16.9626   25.6846 N   0  0  0  0  0  0  0  0  0  0  0  0
   11.4499  -18.1934   26.1162 C   0  0  1  0  0  0  0  0  0  0  0  0
   12.8996  -18.0985   25.7585 C   0  0  0  0  0  0  0  0  0  0  0  0
   13.1149  -17.6455   24.3621 C   0  0  0  0  0  0  0  0  0  0  0  0
   14.5634  -17.6377   23.9903 C   0  0  0  0  0  0  0  0  0  0  0  0
   15.4235  -16.9342   24.5527 O   0  0  0  0  0  0  0  0  0  0  0  0
   11.2858  -18.3540   27.5694 C   0  0  0  0  0  0  0  0  0  0  0  0
   11.7949  -19.5191   28.1621 O   0  0  0  0  0  0  0  0  0  0  0  0
   14.9490  -18.4702   22.9561 O   0  0  0  0  0  0  0  0  0  0  0  0
   10.7358  -17.5494   28.3218 O   0  0  0  0  0  0  0  0  0  0  0  0
  2  4  1  0
  2  1  1  6
  3  2  1  0
  5  6  1  1
  5  4  1  0
  7  8  2  0
  7  5  1  0
  9  7  1  0
 10  9  1  0
 10 11  1  1
 12 17  2  0
 12 11  1  0
 13 12  1  0
 14 15  1  0
 14 13  2  0
 15 16  2  0
 16 17  1  0
 18 10  1  0
 18 20  1  0
 19 18  2  0
 21 20  1  0
 21 26  1  0
 21 22  1  1
 23 22  1  0
 24 23  1  0
 24 25  2  0
 26 29  2  0
 26 27  1  0
 28 24  1  0
M  END
$$$$
