LFE.pdb
     RDKit          3D

 29 29  0  0  1  0  0  0  0  0999 V2000
    8.4460  -12.5226   18.4225 C   0  0  0  0  0  0  0  0  0  0  0  0
    7.8938  -13.5642   19.3733 C   0  0  2  0  0  0  0  0  0  0  0  0
    6.6933  -13.0035   20.0612 C   0  0  0  0  0  0  0  0  0  0  0  0
    9.0115  -13.9373   20.3194 C   0  0  0  0  0  0  0  0  0  0  0  0
    8.7705  -15.2892   20.9710 C   0  0  2  0  0  0  0  0  0  0  0  0
    7.4030  -15.7037   20.8239 N   0  0  0  0  0  0  0  0  0  0  0  0
    9.1465  -15.1588   22.3930 C   0  0  0  0  0  0  0  0  0  0  0  0
   10.2376  -14.6234   22.6792 O   0  0  0  0  0  0  0  0  0  0  0  0
    8.3121  -15.6193   23.4277 N   0  0  0  0  0  0  0  0  0  0  0  0
    8.7222  -15.5142   24.7858 C   0  0  1  0  0  0  0  0  0  0  0  0
    7.4737  -15.5165   25.6539 C   0  0  0  0  0  0  0  0  0  0  0  0
    7.0217  -14.1493   25.9636 C   0  0  0  0  0  0  0  0  0  0  0  0
    5.6939  -13.7856   25.8729 C   0  0  0  0  0  0  0  0  0  0  0  0
    5.2856  -12.4879   26.1699 C   0  0  0  0  0  0  0  0  0  0  0  0
    6.1985  -11.5512   26.5574 C   0  0  0  0  0  0  0  0  0  0  0  0
    7.5283  -11.8896   26.6554 C   0  0  0  0  0  0  0  0  0  0  0  0
    7.9181  -13.1779   26.3583 C   0  0  0  0  0  0  0  0  0  0  0  0
    9.5492  -16.6792   25.2352 C   0  0  0  0  0  0  0  0  0  0  0  0
    9.0613  -17.8356   25.3003 O   0  0  0  0  0  0  0  0  0  0  0  0
   10.8859  -16.4631   25.5855 N   0  0  0  0  0  0  0  0  0  0  0  0
   11.7601  -17.5622   26.0585 C   0  0  1  0  0  0  0  0  0  0  0  0
   13.1875  -17.2442   25.7423 C   0  0  0  0  0  0  0  0  0  0  0  0
   13.3990  -16.9334   24.3069 C   0  0  0  0  0  0  0  0  0  0  0  0
   14.8182  -16.5632   24.0148 C   0  0  0  0  0  0  0  0  0  0  0  0
   15.2101  -16.1119   22.9223 O   0  0  0  0  0  0  0  0  0  0  0  0
   11.5771  -17.7293   27.5087 C   0  0  0  0  0  0  0  0  0  0  0  0
   12.1864  -18.8330   28.1238 O   0  0  0  0  0  0  0  0  0  0  0  0
   15.7344  -16.7412   25.0348 O   0  0  0  0  0  0  0  0  0  0  0  0
   10.9301  -16.9796   28.2405 O   0  0  0  0  0  0  0  0  0  0  0  0
  2  4  1  0
  2  1  1  6
  3  2  1  0
  5  6  1  1
  5  4  1  0
  7  8  2  0
  7  5  1  0
  9  7  1  0
 10  9  1  0
 10 11  1  1
 12 17  2  0
 12 11  1  0
 13 12  1  0
 14 15  1  0
 14 13  2  0
 15 16  2  0
 16 17  1  0
 18 10  1  0
 18 20  1  0
 19 18  2  0
 21 20  1  0
 21 26  1  0
 21 22  1  1
 23 22  1  0
 24 23  1  0
 24 25  2  0
 26 29  2  0
 26 27  1  0
 28 24  1  0
M  END
$$$$
