LFE.pdb
     RDKit          3D

 29 29  0  0  1  0  0  0  0  0999 V2000
    7.3517  -14.5002   17.5970 C   0  0  0  0  0  0  0  0  0  0  0  0
    6.9994  -13.9695   18.9712 C   0  0  2  0  0  0  0  0  0  0  0  0
    6.4694  -12.5808   18.8324 C   0  0  0  0  0  0  0  0  0  0  0  0
    8.2509  -14.0558   19.8136 C   0  0  0  0  0  0  0  0  0  0  0  0
    8.3401  -15.3791   20.5562 C   0  0  2  0  0  0  0  0  0  0  0  0
    7.0373  -15.9415   20.7798 N   0  0  0  0  0  0  0  0  0  0  0  0
    9.0417  -15.1163   21.8286 C   0  0  0  0  0  0  0  0  0  0  0  0
   10.1350  -14.5140   21.7986 O   0  0  0  0  0  0  0  0  0  0  0  0
    8.5134  -15.5245   23.0668 N   0  0  0  0  0  0  0  0  0  0  0  0
    9.2161  -15.2568   24.2744 C   0  0  1  0  0  0  0  0  0  0  0  0
    8.1966  -15.1614   25.3986 C   0  0  0  0  0  0  0  0  0  0  0  0
    8.8156  -14.7231   26.6612 C   0  0  0  0  0  0  0  0  0  0  0  0
    8.9078  -13.3888   26.9997 C   0  0  0  0  0  0  0  0  0  0  0  0
    9.4966  -12.9938   28.1981 C   0  0  0  0  0  0  0  0  0  0  0  0
    9.9940  -13.9264   29.0605 C   0  0  0  0  0  0  0  0  0  0  0  0
    9.9139  -15.2630   28.7454 C   0  0  0  0  0  0  0  0  0  0  0  0
    9.3284  -15.6396   27.5556 C   0  0  0  0  0  0  0  0  0  0  0  0
   10.1594  -16.3564   24.6540 C   0  0  0  0  0  0  0  0  0  0  0  0
    9.7837  -17.5556   24.6770 O   0  0  0  0  0  0  0  0  0  0  0  0
   11.4781  -16.0299   24.9864 N   0  0  0  0  0  0  0  0  0  0  0  0
   12.5419  -17.0579   25.0753 C   0  0  1  0  0  0  0  0  0  0  0  0
   13.8138  -16.5197   24.4997 C   0  0  0  0  0  0  0  0  0  0  0  0
   14.9441  -17.4733   24.6211 C   0  0  0  0  0  0  0  0  0  0  0  0
   16.2058  -16.9280   24.0319 C   0  0  0  0  0  0  0  0  0  0  0  0
   17.3478  -17.2769   24.3852 O   0  0  0  0  0  0  0  0  0  0  0  0
   12.7304  -17.4311   26.4858 C   0  0  0  0  0  0  0  0  0  0  0  0
   13.1691  -18.7335   26.7666 O   0  0  0  0  0  0  0  0  0  0  0  0
   16.0723  -15.9793   23.0350 O   0  0  0  0  0  0  0  0  0  0  0  0
   12.5359  -16.6955   27.4539 O   0  0  0  0  0  0  0  0  0  0  0  0
  2  4  1  0
  2  1  1  6
  3  2  1  0
  5  6  1  1
  5  4  1  0
  7  8  2  0
  7  5  1  0
  9  7  1  0
 10  9  1  0
 10 11  1  1
 12 17  2  0
 12 11  1  0
 13 12  1  0
 14 15  1  0
 14 13  2  0
 15 16  2  0
 16 17  1  0
 18 10  1  0
 18 20  1  0
 19 18  2  0
 21 20  1  0
 21 26  1  0
 21 22  1  1
 23 22  1  0
 24 23  1  0
 24 25  2  0
 26 29  2  0
 26 27  1  0
 28 24  1  0
M  END
$$$$
