LFE.pdb
     RDKit          3D

 29 29  0  0  1  0  0  0  0  0999 V2000
    9.2478  -18.1969   18.9202 C   0  0  0  0  0  0  0  0  0  0  0  0
    8.4357  -17.1284   19.6222 C   0  0  2  0  0  0  0  0  0  0  0  0
    7.0481  -17.6363   19.8345 C   0  0  0  0  0  0  0  0  0  0  0  0
    8.4987  -15.8875   18.7621 C   0  0  0  0  0  0  0  0  0  0  0  0
    7.6394  -14.7673   19.3251 C   0  0  2  0  0  0  0  0  0  0  0  0
    7.7344  -13.5811   18.5204 N   0  0  0  0  0  0  0  0  0  0  0  0
    8.0973  -14.5217   20.7073 C   0  0  0  0  0  0  0  0  0  0  0  0
    9.2627  -14.1125   20.8902 O   0  0  0  0  0  0  0  0  0  0  0  0
    7.2596  -14.7356   21.8169 N   0  0  0  0  0  0  0  0  0  0  0  0
    7.7030  -14.4099   23.1288 C   0  0  1  0  0  0  0  0  0  0  0  0
    6.4751  -14.1522   23.9881 C   0  0  0  0  0  0  0  0  0  0  0  0
    6.8409  -13.7082   25.3439 C   0  0  0  0  0  0  0  0  0  0  0  0
    6.9899  -14.6012   26.3850 C   0  0  0  0  0  0  0  0  0  0  0  0
    7.3363  -14.1622   27.6602 C   0  0  0  0  0  0  0  0  0  0  0  0
    7.5347  -12.8341   27.9003 C   0  0  0  0  0  0  0  0  0  0  0  0
    7.3920  -11.9241   26.8785 C   0  0  0  0  0  0  0  0  0  0  0  0
    7.0488  -12.3729   25.6212 C   0  0  0  0  0  0  0  0  0  0  0  0
    8.4484  -15.5307   23.7855 C   0  0  0  0  0  0  0  0  0  0  0  0
    7.9917  -16.7016   23.7871 O   0  0  0  0  0  0  0  0  0  0  0  0
    9.6725  -15.2563   24.4039 N   0  0  0  0  0  0  0  0  0  0  0  0
   10.5962  -16.3349   24.8276 C   0  0  1  0  0  0  0  0  0  0  0  0
   11.9865  -16.0159   24.3761 C   0  0  0  0  0  0  0  0  0  0  0  0
   12.9806  -17.0159   24.8380 C   0  0  0  0  0  0  0  0  0  0  0  0
   14.3524  -16.7271   24.3170 C   0  0  0  0  0  0  0  0  0  0  0  0
   14.7259  -15.6073   23.9203 O   0  0  0  0  0  0  0  0  0  0  0  0
   10.5450  -16.4612   26.2925 C   0  0  0  0  0  0  0  0  0  0  0  0
   11.1672  -17.5743   26.8770 O   0  0  0  0  0  0  0  0  0  0  0  0
   15.2443  -17.7830   24.2828 O   0  0  0  0  0  0  0  0  0  0  0  0
    9.9992  -15.6695   27.0615 O   0  0  0  0  0  0  0  0  0  0  0  0
  2  4  1  0
  2  1  1  6
  3  2  1  0
  5  6  1  6
  5  4  1  0
  7  8  2  0
  7  5  1  0
  9  7  1  0
 10  9  1  0
 10 11  1  1
 12 17  2  0
 12 11  1  0
 13 12  1  0
 14 15  1  0
 14 13  2  0
 15 16  2  0
 16 17  1  0
 18 10  1  0
 18 20  1  0
 19 18  2  0
 21 20  1  0
 21 26  1  0
 21 22  1  1
 23 22  1  0
 24 23  1  0
 24 25  2  0
 26 29  2  0
 26 27  1  0
 28 24  1  0
M  END
$$$$
