LFE.pdb
     RDKit          3D

 29 29  0  0  1  0  0  0  0  0999 V2000
    9.3329  -19.2216   18.1820 C   0  0  0  0  0  0  0  0  0  0  0  0
    9.0859  -17.8312   17.6346 C   0  0  2  0  0  0  0  0  0  0  0  0
   10.0245  -17.5837   16.5004 C   0  0  0  0  0  0  0  0  0  0  0  0
    9.2604  -16.8653   18.7836 C   0  0  0  0  0  0  0  0  0  0  0  0
    8.2438  -17.1117   19.8863 C   0  0  2  0  0  0  0  0  0  0  0  0
    6.9015  -16.9200   19.4117 N   0  0  0  0  0  0  0  0  0  0  0  0
    8.5657  -16.1837   20.9888 C   0  0  0  0  0  0  0  0  0  0  0  0
    9.6466  -15.5597   20.9525 O   0  0  0  0  0  0  0  0  0  0  0  0
    7.6913  -15.9853   22.0727 N   0  0  0  0  0  0  0  0  0  0  0  0
    8.0916  -15.1978   23.1877 C   0  0  1  0  0  0  0  0  0  0  0  0
    6.8359  -14.6729   23.8658 C   0  0  0  0  0  0  0  0  0  0  0  0
    7.1553  -13.8537   25.0474 C   0  0  0  0  0  0  0  0  0  0  0  0
    7.3080  -14.4132   26.2992 C   0  0  0  0  0  0  0  0  0  0  0  0
    7.6100  -13.6221   27.4046 C   0  0  0  0  0  0  0  0  0  0  0  0
    7.7603  -12.2735   27.2649 C   0  0  0  0  0  0  0  0  0  0  0  0
    7.6129  -11.6920   26.0269 C   0  0  0  0  0  0  0  0  0  0  0  0
    7.3139  -12.4874   24.9416 C   0  0  0  0  0  0  0  0  0  0  0  0
    8.8296  -15.9891   24.2232 C   0  0  0  0  0  0  0  0  0  0  0  0
    8.3959  -17.0984   24.6242 O   0  0  0  0  0  0  0  0  0  0  0  0
   10.0205  -15.4735   24.7449 N   0  0  0  0  0  0  0  0  0  0  0  0
   11.1518  -16.3495   25.1306 C   0  0  1  0  0  0  0  0  0  0  0  0
   12.4038  -15.8842   24.4565 C   0  0  0  0  0  0  0  0  0  0  0  0
   13.6049  -16.6320   24.9034 C   0  0  0  0  0  0  0  0  0  0  0  0
   14.8354  -16.2136   24.1636 C   0  0  0  0  0  0  0  0  0  0  0  0
   15.7531  -16.9912   23.8412 O   0  0  0  0  0  0  0  0  0  0  0  0
   11.3084  -16.3133   26.5930 C   0  0  0  0  0  0  0  0  0  0  0  0
   10.4654  -15.4614   27.3220 O   0  0  0  0  0  0  0  0  0  0  0  0
   14.9395  -14.8767   23.8270 O   0  0  0  0  0  0  0  0  0  0  0  0
   12.1218  -16.9703   27.2432 O   0  0  0  0  0  0  0  0  0  0  0  0
  2  4  1  0
  2  1  1  1
  3  2  1  0
  5  6  1  6
  5  4  1  0
  7  8  2  0
  7  5  1  0
  9  7  1  0
 10  9  1  0
 10 11  1  1
 12 17  2  0
 12 11  1  0
 13 12  1  0
 14 15  1  0
 14 13  2  0
 15 16  2  0
 16 17  1  0
 18 10  1  0
 18 20  1  0
 19 18  2  0
 21 20  1  0
 21 26  1  0
 21 22  1  6
 23 22  1  0
 24 23  1  0
 24 25  2  0
 26 29  2  0
 26 27  1  0
 28 24  1  0
M  END
$$$$
