LFE.pdb
     RDKit          3D

 29 29  0  0  1  0  0  0  0  0999 V2000
    7.8954  -14.3475   18.2276 C   0  0  0  0  0  0  0  0  0  0  0  0
    7.2724  -13.5366   19.3449 C   0  0  2  0  0  0  0  0  0  0  0  0
    7.1113  -12.1250   18.8866 C   0  0  0  0  0  0  0  0  0  0  0  0
    8.1716  -13.6802   20.5509 C   0  0  0  0  0  0  0  0  0  0  0  0
    8.2451  -15.1206   21.0306 C   0  0  2  0  0  0  0  0  0  0  0  0
    6.9441  -15.7291   21.0584 N   0  0  0  0  0  0  0  0  0  0  0  0
    8.8617  -15.1004   22.3722 C   0  0  0  0  0  0  0  0  0  0  0  0
    9.9986  -14.6011   22.5033 O   0  0  0  0  0  0  0  0  0  0  0  0
    8.2054  -15.6260   23.4999 N   0  0  0  0  0  0  0  0  0  0  0  0
    8.8183  -15.5701   24.7824 C   0  0  1  0  0  0  0  0  0  0  0  0
    7.7170  -15.4421   25.8231 C   0  0  0  0  0  0  0  0  0  0  0  0
    7.3383  -14.0365   26.0471 C   0  0  0  0  0  0  0  0  0  0  0  0
    6.1008  -13.5503   25.6783 C   0  0  0  0  0  0  0  0  0  0  0  0
    5.7610  -12.2181   25.8983 C   0  0  0  0  0  0  0  0  0  0  0  0
    6.6523  -11.3686   26.4856 C   0  0  0  0  0  0  0  0  0  0  0  0
    7.8924  -11.8297   26.8622 C   0  0  0  0  0  0  0  0  0  0  0  0
    8.2153  -13.1509   26.6383 C   0  0  0  0  0  0  0  0  0  0  0  0
    9.5737  -16.8184   25.1206 C   0  0  0  0  0  0  0  0  0  0  0  0
    8.9903  -17.9286   25.2029 O   0  0  0  0  0  0  0  0  0  0  0  0
   10.9514  -16.7336   25.3464 N   0  0  0  0  0  0  0  0  0  0  0  0
   11.7826  -17.9372   25.5842 C   0  0  1  0  0  0  0  0  0  0  0  0
   13.2213  -17.6163   25.3278 C   0  0  0  0  0  0  0  0  0  0  0  0
   13.4226  -16.8659   24.0637 C   0  0  0  0  0  0  0  0  0  0  0  0
   14.8585  -16.5108   23.8431 C   0  0  0  0  0  0  0  0  0  0  0  0
   15.5821  -15.9692   24.6998 O   0  0  0  0  0  0  0  0  0  0  0  0
   11.5925  -18.3836   26.9730 C   0  0  0  0  0  0  0  0  0  0  0  0
   12.1944  -19.5893   27.3626 O   0  0  0  0  0  0  0  0  0  0  0  0
   15.3948  -16.8113   22.6047 O   0  0  0  0  0  0  0  0  0  0  0  0
   10.9453  -17.7883   27.8350 O   0  0  0  0  0  0  0  0  0  0  0  0
  2  4  1  0
  2  1  1  6
  3  2  1  0
  5  6  1  1
  5  4  1  0
  7  8  2  0
  7  5  1  0
  9  7  1  0
 10  9  1  0
 10 11  1  1
 12 17  2  0
 12 11  1  0
 13 12  1  0
 14 15  1  0
 14 13  2  0
 15 16  2  0
 16 17  1  0
 18 10  1  0
 18 20  1  0
 19 18  2  0
 21 20  1  0
 21 26  1  0
 21 22  1  1
 23 22  1  0
 24 23  1  0
 24 25  2  0
 26 29  2  0
 26 27  1  0
 28 24  1  0
M  END
$$$$
