LFE.pdb
     RDKit          3D

 29 29  0  0  1  0  0  0  0  0999 V2000
    9.1293  -14.9935   17.0918 C   0  0  0  0  0  0  0  0  0  0  0  0
    8.2502  -14.0421   17.8768 C   0  0  2  0  0  0  0  0  0  0  0  0
    8.0327  -12.8059   17.0687 C   0  0  0  0  0  0  0  0  0  0  0  0
    8.9417  -13.7864   19.1958 C   0  0  0  0  0  0  0  0  0  0  0  0
    9.0542  -15.0534   20.0280 C   0  0  2  0  0  0  0  0  0  0  0  0
    7.8966  -15.8887   19.8669 N   0  0  0  0  0  0  0  0  0  0  0  0
    9.2285  -14.6354   21.4335 C   0  0  0  0  0  0  0  0  0  0  0  0
   10.2516  -13.9917   21.7464 O   0  0  0  0  0  0  0  0  0  0  0  0
    8.2772  -14.9418   22.4235 N   0  0  0  0  0  0  0  0  0  0  0  0
    8.4054  -14.4093   23.7364 C   0  0  1  0  0  0  0  0  0  0  0  0
    7.0232  -13.9844   24.2068 C   0  0  0  0  0  0  0  0  0  0  0  0
    7.0842  -13.2324   25.4718 C   0  0  0  0  0  0  0  0  0  0  0  0
    7.9077  -12.1362   25.6259 C   0  0  0  0  0  0  0  0  0  0  0  0
    7.9517  -11.4380   26.8298 C   0  0  0  0  0  0  0  0  0  0  0  0
    7.1761  -11.8302   27.8813 C   0  0  0  0  0  0  0  0  0  0  0  0
    6.3468  -12.9201   27.7522 C   0  0  0  0  0  0  0  0  0  0  0  0
    6.3135  -13.6018   26.5546 C   0  0  0  0  0  0  0  0  0  0  0  0
    8.8954  -15.4190   24.7281 C   0  0  0  0  0  0  0  0  0  0  0  0
    8.8298  -15.2005   25.9640 O   0  0  0  0  0  0  0  0  0  0  0  0
    9.4328  -16.6215   24.2577 N   0  0  0  0  0  0  0  0  0  0  0  0
    9.9037  -17.6832   25.1782 C   0  0  1  0  0  0  0  0  0  0  0  0
   10.1111  -18.9553   24.4183 C   0  0  0  0  0  0  0  0  0  0  0  0
   10.5776  -20.0673   25.2828 C   0  0  0  0  0  0  0  0  0  0  0  0
   10.8359  -21.3163   24.5019 C   0  0  0  0  0  0  0  0  0  0  0  0
   10.7168  -21.4023   23.2653 O   0  0  0  0  0  0  0  0  0  0  0  0
   11.1595  -17.2477   25.8090 C   0  0  0  0  0  0  0  0  0  0  0  0
   12.0188  -16.4283   25.0621 O   0  0  0  0  0  0  0  0  0  0  0  0
   11.2300  -22.4319   25.2173 O   0  0  0  0  0  0  0  0  0  0  0  0
   11.5293  -17.5404   26.9463 O   0  0  0  0  0  0  0  0  0  0  0  0
  2  4  1  0
  2  1  1  6
  3  2  1  0
  5  6  1  1
  5  4  1  0
  7  8  2  0
  7  5  1  0
  9  7  1  0
 10  9  1  0
 10 11  1  1
 12 17  2  0
 12 11  1  0
 13 12  1  0
 14 15  1  0
 14 13  2  0
 15 16  2  0
 16 17  1  0
 18 10  1  0
 18 20  1  0
 19 18  2  0
 21 20  1  0
 21 26  1  0
 21 22  1  6
 23 22  1  0
 24 23  1  0
 24 25  2  0
 26 29  2  0
 26 27  1  0
 28 24  1  0
M  END
$$$$
