LFE.pdb
     RDKit          3D

 29 29  0  0  1  0  0  0  0  0999 V2000
    8.3960  -16.5551   16.3613 C   0  0  0  0  0  0  0  0  0  0  0  0
    8.4124  -17.3307   17.6621 C   0  0  2  0  0  0  0  0  0  0  0  0
    7.0962  -18.0138   17.8349 C   0  0  0  0  0  0  0  0  0  0  0  0
    8.7287  -16.3441   18.7621 C   0  0  0  0  0  0  0  0  0  0  0  0
    8.8984  -17.0337   20.1060 C   0  0  2  0  0  0  0  0  0  0  0  0
    7.8160  -17.9412   20.3678 N   0  0  0  0  0  0  0  0  0  0  0  0
    8.9758  -15.9737   21.1311 C   0  0  0  0  0  0  0  0  0  0  0  0
    9.8051  -15.0524   20.9812 O   0  0  0  0  0  0  0  0  0  0  0  0
    8.1442  -15.9747   22.2657 N   0  0  0  0  0  0  0  0  0  0  0  0
    8.2253  -14.9233   23.2204 C   0  0  1  0  0  0  0  0  0  0  0  0
    6.9779  -14.9809   24.0882 C   0  0  0  0  0  0  0  0  0  0  0  0
    6.9900  -13.9412   25.1313 C   0  0  0  0  0  0  0  0  0  0  0  0
    7.4656  -14.1928   26.4018 C   0  0  0  0  0  0  0  0  0  0  0  0
    7.4689  -13.1968   27.3748 C   0  0  0  0  0  0  0  0  0  0  0  0
    6.9990  -11.9495   27.0842 C   0  0  0  0  0  0  0  0  0  0  0  0
    6.5196  -11.6741   25.8245 C   0  0  0  0  0  0  0  0  0  0  0  0
    6.5224  -12.6697   24.8713 C   0  0  0  0  0  0  0  0  0  0  0  0
    9.3911  -15.0700   24.1491 C   0  0  0  0  0  0  0  0  0  0  0  0
    9.5634  -14.2738   25.1062 O   0  0  0  0  0  0  0  0  0  0  0  0
   10.2961  -16.1149   23.9367 N   0  0  0  0  0  0  0  0  0  0  0  0
   11.4399  -16.3589   24.8469 C   0  0  1  0  0  0  0  0  0  0  0  0
   10.9349  -16.7717   26.1934 C   0  0  0  0  0  0  0  0  0  0  0  0
   10.8238  -18.2445   26.3349 C   0  0  0  0  0  0  0  0  0  0  0  0
   10.4867  -18.6513   27.7340 C   0  0  0  0  0  0  0  0  0  0  0  0
   10.3336  -17.8501   28.6750 O   0  0  0  0  0  0  0  0  0  0  0  0
   12.2942  -17.4092   24.2713 C   0  0  0  0  0  0  0  0  0  0  0  0
   11.8186  -18.0978   23.1454 O   0  0  0  0  0  0  0  0  0  0  0  0
   10.3407  -20.0049   27.9746 O   0  0  0  0  0  0  0  0  0  0  0  0
   13.4019  -17.7431   24.6928 O   0  0  0  0  0  0  0  0  0  0  0  0
  2  4  1  0
  2  1  1  6
  3  2  1  0
  5  6  1  1
  5  4  1  0
  7  8  2  0
  7  5  1  0
  9  7  1  0
 10  9  1  0
 10 11  1  1
 12 17  2  0
 12 11  1  0
 13 12  1  0
 14 15  1  0
 14 13  2  0
 15 16  2  0
 16 17  1  0
 18 10  1  0
 18 20  1  0
 19 18  2  0
 21 20  1  0
 21 26  1  0
 21 22  1  1
 23 22  1  0
 24 23  1  0
 24 25  2  0
 26 29  2  0
 26 27  1  0
 28 24  1  0
M  END
$$$$
