LFE.pdb
     RDKit          3D

 29 29  0  0  1  0  0  0  0  0999 V2000
    7.3918  -12.5972   19.4246 C   0  0  0  0  0  0  0  0  0  0  0  0
    8.6125  -13.4909   19.3526 C   0  0  2  0  0  0  0  0  0  0  0  0
    9.3417  -13.2126   18.0800 C   0  0  0  0  0  0  0  0  0  0  0  0
    8.1251  -14.9165   19.4690 C   0  0  0  0  0  0  0  0  0  0  0  0
    9.0842  -15.7758   20.2765 C   0  0  2  0  0  0  0  0  0  0  0  0
    8.6005  -17.1227   20.4012 N   0  0  0  0  0  0  0  0  0  0  0  0
    9.2379  -15.1317   21.5964 C   0  0  0  0  0  0  0  0  0  0  0  0
   10.1218  -14.2618   21.7411 O   0  0  0  0  0  0  0  0  0  0  0  0
    8.4189  -15.4707   22.6887 N   0  0  0  0  0  0  0  0  0  0  0  0
    8.5208  -14.7575   23.9154 C   0  0  1  0  0  0  0  0  0  0  0  0
    7.1140  -14.3967   24.3660 C   0  0  0  0  0  0  0  0  0  0  0  0
    7.1273  -13.5390   25.5633 C   0  0  0  0  0  0  0  0  0  0  0  0
    6.4066  -13.8606   26.6949 C   0  0  0  0  0  0  0  0  0  0  0  0
    6.4318  -13.0369   27.8173 C   0  0  0  0  0  0  0  0  0  0  0  0
    7.1743  -11.8926   27.8144 C   0  0  0  0  0  0  0  0  0  0  0  0
    7.9015  -11.5503   26.6980 C   0  0  0  0  0  0  0  0  0  0  0  0
    7.8672  -12.3751   25.5941 C   0  0  0  0  0  0  0  0  0  0  0  0
    9.1181  -15.5778   25.0169 C   0  0  0  0  0  0  0  0  0  0  0  0
    9.2740  -15.1022   26.1698 O   0  0  0  0  0  0  0  0  0  0  0  0
    9.5047  -16.8941   24.7449 N   0  0  0  0  0  0  0  0  0  0  0  0
   10.1010  -17.7668   25.7837 C   0  0  1  0  0  0  0  0  0  0  0  0
   11.4302  -18.2714   25.3176 C   0  0  0  0  0  0  0  0  0  0  0  0
   11.4683  -18.5125   23.8540 C   0  0  0  0  0  0  0  0  0  0  0  0
   12.7774  -19.0849   23.4123 C   0  0  0  0  0  0  0  0  0  0  0  0
   13.6776  -19.4489   24.1920 O   0  0  0  0  0  0  0  0  0  0  0  0
   10.2484  -16.9971   27.0288 C   0  0  0  0  0  0  0  0  0  0  0  0
   10.7501  -17.6637   28.1565 O   0  0  0  0  0  0  0  0  0  0  0  0
   12.9791  -19.2084   22.0501 O   0  0  0  0  0  0  0  0  0  0  0  0
    9.9680  -15.8068   27.1730 O   0  0  0  0  0  0  0  0  0  0  0  0
  2  4  1  0
  2  1  1  6
  3  2  1  0
  5  6  1  1
  5  4  1  0
  7  8  2  0
  7  5  1  0
  9  7  1  0
 10  9  1  0
 10 11  1  1
 12 17  2  0
 12 11  1  0
 13 12  1  0
 14 15  1  0
 14 13  2  0
 15 16  2  0
 16 17  1  0
 18 10  1  0
 18 20  1  0
 19 18  2  0
 21 20  1  0
 21 26  1  0
 21 22  1  6
 23 22  1  0
 24 23  1  0
 24 25  2  0
 26 29  2  0
 26 27  1  0
 28 24  1  0
M  END
$$$$
