LFE.pdb
     RDKit          3D

 29 29  0  0  1  0  0  0  0  0999 V2000
    7.4707  -14.7658   17.0911 C   0  0  0  0  0  0  0  0  0  0  0  0
    7.4991  -13.8218   18.2752 C   0  0  2  0  0  0  0  0  0  0  0  0
    7.4245  -12.4169   17.7760 C   0  0  0  0  0  0  0  0  0  0  0  0
    8.7620  -14.1205   19.0494 C   0  0  0  0  0  0  0  0  0  0  0  0
    8.6355  -15.3983   19.8627 C   0  0  2  0  0  0  0  0  0  0  0  0
    7.3382  -15.9938   19.7016 N   0  0  0  0  0  0  0  0  0  0  0  0
    8.8969  -15.0435   21.2720 C   0  0  0  0  0  0  0  0  0  0  0  0
   10.0119  -14.5708   21.5756 O   0  0  0  0  0  0  0  0  0  0  0  0
    7.9278  -15.2232   22.2758 N   0  0  0  0  0  0  0  0  0  0  0  0
    8.2044  -14.8505   23.6204 C   0  0  1  0  0  0  0  0  0  0  0  0
    6.8936  -14.4382   24.2717 C   0  0  0  0  0  0  0  0  0  0  0  0
    7.1093  -13.8294   25.5953 C   0  0  0  0  0  0  0  0  0  0  0  0
    7.4449  -12.4986   25.7365 C   0  0  0  0  0  0  0  0  0  0  0  0
    7.6448  -11.9409   26.9965 C   0  0  0  0  0  0  0  0  0  0  0  0
    7.5110  -12.7071   28.1172 C   0  0  0  0  0  0  0  0  0  0  0  0
    7.1771  -14.0367   28.0024 C   0  0  0  0  0  0  0  0  0  0  0  0
    6.9821  -14.5754   26.7487 C   0  0  0  0  0  0  0  0  0  0  0  0
    8.7428  -15.9835   24.4387 C   0  0  0  0  0  0  0  0  0  0  0  0
    8.0892  -17.0469   24.5853 O   0  0  0  0  0  0  0  0  0  0  0  0
    9.9954  -15.8429   25.0448 N   0  0  0  0  0  0  0  0  0  0  0  0
   10.7770  -17.0128   25.5103 C   0  0  1  0  0  0  0  0  0  0  0  0
   12.2317  -16.7874   25.2426 C   0  0  0  0  0  0  0  0  0  0  0  0
   13.0796  -17.9111   25.7117 C   0  0  0  0  0  0  0  0  0  0  0  0
   14.5230  -17.7027   25.3807 C   0  0  0  0  0  0  0  0  0  0  0  0
   15.3663  -17.2641   26.1852 O   0  0  0  0  0  0  0  0  0  0  0  0
   10.5403  -17.2049   26.9495 C   0  0  0  0  0  0  0  0  0  0  0  0
   10.2405  -16.0728   27.7217 O   0  0  0  0  0  0  0  0  0  0  0  0
   14.9237  -18.0234   24.0969 O   0  0  0  0  0  0  0  0  0  0  0  0
   10.5820  -18.2817   27.5453 O   0  0  0  0  0  0  0  0  0  0  0  0
  2  4  1  0
  2  1  1  6
  3  2  1  0
  5  6  1  1
  5  4  1  0
  7  8  2  0
  7  5  1  0
  9  7  1  0
 10  9  1  0
 10 11  1  1
 12 17  2  0
 12 11  1  0
 13 12  1  0
 14 15  1  0
 14 13  2  0
 15 16  2  0
 16 17  1  0
 18 10  1  0
 18 20  1  0
 19 18  2  0
 21 20  1  0
 21 26  1  0
 21 22  1  1
 23 22  1  0
 24 23  1  0
 24 25  2  0
 26 29  2  0
 26 27  1  0
 28 24  1  0
M  END
$$$$
