LFE.pdb
     RDKit          3D

 29 29  0  0  1  0  0  0  0  0999 V2000
    8.8289  -14.7313   17.1594 C   0  0  0  0  0  0  0  0  0  0  0  0
    7.8199  -13.7190   17.6605 C   0  0  2  0  0  0  0  0  0  0  0  0
    8.0578  -12.4165   16.9710 C   0  0  0  0  0  0  0  0  0  0  0  0
    7.9758  -13.6439   19.1617 C   0  0  0  0  0  0  0  0  0  0  0  0
    8.1698  -15.0199   19.7776 C   0  0  2  0  0  0  0  0  0  0  0  0
    6.9816  -15.8183   19.6573 N   0  0  0  0  0  0  0  0  0  0  0  0
    8.5425  -14.8140   21.1915 C   0  0  0  0  0  0  0  0  0  0  0  0
    9.7217  -14.5064   21.4632 O   0  0  0  0  0  0  0  0  0  0  0  0
    7.6090  -14.9546   22.2344 N   0  0  0  0  0  0  0  0  0  0  0  0
    7.9820  -14.6766   23.5787 C   0  0  1  0  0  0  0  0  0  0  0  0
    6.8108  -13.9826   24.2561 C   0  0  0  0  0  0  0  0  0  0  0  0
    7.1499  -13.5468   25.6216 C   0  0  0  0  0  0  0  0  0  0  0  0
    7.7460  -12.3271   25.8675 C   0  0  0  0  0  0  0  0  0  0  0  0
    8.0591  -11.9325   27.1656 C   0  0  0  0  0  0  0  0  0  0  0  0
    7.7794  -12.7516   28.2200 C   0  0  0  0  0  0  0  0  0  0  0  0
    7.1853  -13.9728   28.0004 C   0  0  0  0  0  0  0  0  0  0  0  0
    6.8809  -14.3503   26.7101 C   0  0  0  0  0  0  0  0  0  0  0  0
    8.2543  -15.9159   24.3745 C   0  0  0  0  0  0  0  0  0  0  0  0
    7.5263  -16.9340   24.2607 O   0  0  0  0  0  0  0  0  0  0  0  0
    9.3402  -15.9272   25.2558 N   0  0  0  0  0  0  0  0  0  0  0  0
   10.1265  -17.1562   25.5155 C   0  0  1  0  0  0  0  0  0  0  0  0
   11.2972  -17.2130   24.5856 C   0  0  0  0  0  0  0  0  0  0  0  0
   12.1579  -18.3982   24.8226 C   0  0  0  0  0  0  0  0  0  0  0  0
   13.0986  -18.6463   23.6867 C   0  0  0  0  0  0  0  0  0  0  0  0
   13.9436  -17.8226   23.2889 O   0  0  0  0  0  0  0  0  0  0  0  0
   10.5787  -17.1484   26.9155 C   0  0  0  0  0  0  0  0  0  0  0  0
   11.0363  -18.3558   27.4637 O   0  0  0  0  0  0  0  0  0  0  0  0
   13.0067  -19.8721   23.0539 O   0  0  0  0  0  0  0  0  0  0  0  0
   10.5923  -16.1668   27.6588 O   0  0  0  0  0  0  0  0  0  0  0  0
  2  4  1  0
  2  1  1  6
  3  2  1  0
  5  6  1  1
  5  4  1  0
  7  8  2  0
  7  5  1  0
  9  7  1  0
 10  9  1  0
 10 11  1  1
 12 17  2  0
 12 11  1  0
 13 12  1  0
 14 15  1  0
 14 13  2  0
 15 16  2  0
 16 17  1  0
 18 10  1  0
 18 20  1  0
 19 18  2  0
 21 20  1  0
 21 26  1  0
 21 22  1  6
 23 22  1  0
 24 23  1  0
 24 25  2  0
 26 29  2  0
 26 27  1  0
 28 24  1  0
M  END
$$$$
