LFE.pdb
     RDKit          3D

 29 29  0  0  1  0  0  0  0  0999 V2000
    6.6320  -14.1985   18.6542 C   0  0  0  0  0  0  0  0  0  0  0  0
    7.7337  -13.4541   19.3795 C   0  0  2  0  0  0  0  0  0  0  0  0
    7.9861  -12.1602   18.6789 C   0  0  0  0  0  0  0  0  0  0  0  0
    8.9376  -14.3668   19.4126 C   0  0  0  0  0  0  0  0  0  0  0  0
    8.6810  -15.6077   20.2521 C   0  0  2  0  0  0  0  0  0  0  0  0
    7.3294  -16.0702   20.1012 N   0  0  0  0  0  0  0  0  0  0  0  0
    8.9781  -15.2523   21.6541 C   0  0  0  0  0  0  0  0  0  0  0  0
   10.0401  -14.6469   21.9084 O   0  0  0  0  0  0  0  0  0  0  0  0
    8.1006  -15.5761   22.7049 N   0  0  0  0  0  0  0  0  0  0  0  0
    8.3994  -15.1865   24.0401 C   0  0  1  0  0  0  0  0  0  0  0  0
    7.1168  -14.6759   24.6775 C   0  0  0  0  0  0  0  0  0  0  0  0
    7.3758  -14.0020   25.9613 C   0  0  0  0  0  0  0  0  0  0  0  0
    7.7310  -12.6703   26.0236 C   0  0  0  0  0  0  0  0  0  0  0  0
    7.9719  -12.0505   27.2470 C   0  0  0  0  0  0  0  0  0  0  0  0
    7.8595  -12.7557   28.4094 C   0  0  0  0  0  0  0  0  0  0  0  0
    7.5066  -14.0848   28.3733 C   0  0  0  0  0  0  0  0  0  0  0  0
    7.2712  -14.6853   27.1551 C   0  0  0  0  0  0  0  0  0  0  0  0
    8.8650  -16.3294   24.8887 C   0  0  0  0  0  0  0  0  0  0  0  0
    8.1476  -17.3474   25.0578 O   0  0  0  0  0  0  0  0  0  0  0  0
   10.1214  -16.2500   25.4978 N   0  0  0  0  0  0  0  0  0  0  0  0
   10.6691  -17.3596   26.3134 C   0  0  1  0  0  0  0  0  0  0  0  0
   12.1265  -17.5300   26.0209 C   0  0  0  0  0  0  0  0  0  0  0  0
   12.4201  -17.5378   24.5665 C   0  0  0  0  0  0  0  0  0  0  0  0
   13.8761  -17.7352   24.2877 C   0  0  0  0  0  0  0  0  0  0  0  0
   14.6388  -18.4062   25.0079 O   0  0  0  0  0  0  0  0  0  0  0  0
   10.4601  -17.0554   27.7376 C   0  0  0  0  0  0  0  0  0  0  0  0
   10.7766  -18.0507   28.6740 O   0  0  0  0  0  0  0  0  0  0  0  0
   14.3850  -17.1264   23.1556 O   0  0  0  0  0  0  0  0  0  0  0  0
   10.0275  -15.9942   28.1878 O   0  0  0  0  0  0  0  0  0  0  0  0
  2  4  1  0
  2  1  1  6
  3  2  1  0
  5  6  1  1
  5  4  1  0
  7  8  2  0
  7  5  1  0
  9  7  1  0
 10  9  1  0
 10 11  1  1
 12 17  2  0
 12 11  1  0
 13 12  1  0
 14 15  1  0
 14 13  2  0
 15 16  2  0
 16 17  1  0
 18 10  1  0
 18 20  1  0
 19 18  2  0
 21 20  1  0
 21 26  1  0
 21 22  1  1
 23 22  1  0
 24 23  1  0
 24 25  2  0
 26 29  2  0
 26 27  1  0
 28 24  1  0
M  END
$$$$
