LFE.pdb
     RDKit          3D

 29 29  0  0  1  0  0  0  0  0999 V2000
    8.2407  -12.8001   17.5813 C   0  0  0  0  0  0  0  0  0  0  0  0
    7.8465  -13.7288   18.7110 C   0  0  2  0  0  0  0  0  0  0  0  0
    7.1230  -12.9426   19.7537 C   0  0  0  0  0  0  0  0  0  0  0  0
    9.1154  -14.3757   19.2158 C   0  0  0  0  0  0  0  0  0  0  0  0
    8.8261  -15.6366   20.0138 C   0  0  2  0  0  0  0  0  0  0  0  0
    7.4988  -16.1231   19.7589 N   0  0  0  0  0  0  0  0  0  0  0  0
    9.0150  -15.3009   21.4393 C   0  0  0  0  0  0  0  0  0  0  0  0
   10.1676  -15.0531   21.8505 O   0  0  0  0  0  0  0  0  0  0  0  0
    7.9363  -15.2533   22.3410 N   0  0  0  0  0  0  0  0  0  0  0  0
    8.1464  -14.8818   23.6980 C   0  0  1  0  0  0  0  0  0  0  0  0
    6.8818  -14.2021   24.1990 C   0  0  0  0  0  0  0  0  0  0  0  0
    7.0699  -13.6174   25.5378 C   0  0  0  0  0  0  0  0  0  0  0  0
    7.7606  -12.4378   25.7244 C   0  0  0  0  0  0  0  0  0  0  0  0
    7.9281  -11.9006   26.9980 C   0  0  0  0  0  0  0  0  0  0  0  0
    7.4084  -12.5370   28.0869 C   0  0  0  0  0  0  0  0  0  0  0  0
    6.7156  -13.7146   27.9266 C   0  0  0  0  0  0  0  0  0  0  0  0
    6.5576  -14.2348   26.6600 C   0  0  0  0  0  0  0  0  0  0  0  0
    8.3744  -16.0597   24.5945 C   0  0  0  0  0  0  0  0  0  0  0  0
    7.6277  -17.0693   24.5431 O   0  0  0  0  0  0  0  0  0  0  0  0
    9.4398  -16.0228   25.4998 N   0  0  0  0  0  0  0  0  0  0  0  0
    9.8974  -17.2333   26.2220 C   0  0  1  0  0  0  0  0  0  0  0  0
   11.0937  -17.8104   25.5334 C   0  0  0  0  0  0  0  0  0  0  0  0
   11.6874  -18.9485   26.2778 C   0  0  0  0  0  0  0  0  0  0  0  0
   12.8761  -19.5217   25.5743 C   0  0  0  0  0  0  0  0  0  0  0  0
   13.3402  -19.0715   24.5100 O   0  0  0  0  0  0  0  0  0  0  0  0
   10.2258  -16.8679   27.6088 C   0  0  0  0  0  0  0  0  0  0  0  0
   10.4972  -17.9050   28.5135 O   0  0  0  0  0  0  0  0  0  0  0  0
   13.4812  -20.6186   26.1593 O   0  0  0  0  0  0  0  0  0  0  0  0
   10.2847  -15.7211   28.0530 O   0  0  0  0  0  0  0  0  0  0  0  0
  2  4  1  0
  2  1  1  6
  3  2  1  0
  5  6  1  1
  5  4  1  0
  7  8  2  0
  7  5  1  0
  9  7  1  0
 10  9  1  0
 10 11  1  1
 12 17  2  0
 12 11  1  0
 13 12  1  0
 14 15  1  0
 14 13  2  0
 15 16  2  0
 16 17  1  0
 18 10  1  0
 18 20  1  0
 19 18  2  0
 21 20  1  0
 21 26  1  0
 21 22  1  6
 23 22  1  0
 24 23  1  0
 24 25  2  0
 26 29  2  0
 26 27  1  0
 28 24  1  0
M  END
$$$$
