LFE.pdb
     RDKit          3D

 29 29  0  0  1  0  0  0  0  0999 V2000
    7.4634  -14.1309   18.2974 C   0  0  0  0  0  0  0  0  0  0  0  0
    7.4551  -13.1883   19.4828 C   0  0  2  0  0  0  0  0  0  0  0  0
    7.5312  -11.7831   18.9843 C   0  0  0  0  0  0  0  0  0  0  0  0
    8.6169  -13.5782   20.3669 C   0  0  0  0  0  0  0  0  0  0  0  0
    8.4481  -14.9781   20.9345 C   0  0  2  0  0  0  0  0  0  0  0  0
    7.0630  -15.2886   21.1557 N   0  0  0  0  0  0  0  0  0  0  0  0
    9.2224  -15.0335   22.1906 C   0  0  0  0  0  0  0  0  0  0  0  0
   10.4463  -14.7897   22.1531 O   0  0  0  0  0  0  0  0  0  0  0  0
    8.6203  -15.3520   23.4214 N   0  0  0  0  0  0  0  0  0  0  0  0
    9.3968  -15.4037   24.6122 C   0  0  1  0  0  0  0  0  0  0  0  0
    8.5038  -14.9926   25.7723 C   0  0  0  0  0  0  0  0  0  0  0  0
    9.2677  -14.8413   27.0224 C   0  0  0  0  0  0  0  0  0  0  0  0
    9.5545  -15.9202   27.8332 C   0  0  0  0  0  0  0  0  0  0  0  0
   10.2782  -15.7573   29.0116 C   0  0  0  0  0  0  0  0  0  0  0  0
   10.7170  -14.5205   29.3840 C   0  0  0  0  0  0  0  0  0  0  0  0
   10.4437  -13.4292   28.5923 C   0  0  0  0  0  0  0  0  0  0  0  0
    9.7263  -13.6053   27.4286 C   0  0  0  0  0  0  0  0  0  0  0  0
    9.8872  -16.7833   24.9271 C   0  0  0  0  0  0  0  0  0  0  0  0
    9.0907  -17.7515   25.0155 O   0  0  0  0  0  0  0  0  0  0  0  0
   11.2572  -16.9843   25.1239 N   0  0  0  0  0  0  0  0  0  0  0  0
   11.8779  -18.3250   25.0069 C   0  0  1  0  0  0  0  0  0  0  0  0
   12.7230  -18.3846   23.7737 C   0  0  0  0  0  0  0  0  0  0  0  0
   13.4358  -19.6781   23.6318 C   0  0  0  0  0  0  0  0  0  0  0  0
   14.1543  -19.7838   22.3244 C   0  0  0  0  0  0  0  0  0  0  0  0
   15.1232  -19.0711   22.0020 O   0  0  0  0  0  0  0  0  0  0  0  0
   12.6929  -18.5815   26.2046 C   0  0  0  0  0  0  0  0  0  0  0  0
   12.7795  -17.5663   27.1687 O   0  0  0  0  0  0  0  0  0  0  0  0
   13.6978  -20.7383   21.4344 O   0  0  0  0  0  0  0  0  0  0  0  0
   13.3135  -19.6184   26.4405 O   0  0  0  0  0  0  0  0  0  0  0  0
  2  4  1  0
  2  1  1  6
  3  2  1  0
  5  6  1  1
  5  4  1  0
  7  8  2  0
  7  5  1  0
  9  7  1  0
 10  9  1  0
 10 11  1  1
 12 17  2  0
 12 11  1  0
 13 12  1  0
 14 15  1  0
 14 13  2  0
 15 16  2  0
 16 17  1  0
 18 10  1  0
 18 20  1  0
 19 18  2  0
 21 20  1  0
 21 26  1  0
 21 22  1  6
 23 22  1  0
 24 23  1  0
 24 25  2  0
 26 29  2  0
 26 27  1  0
 28 24  1  0
M  END
$$$$
