IRP.pdb
     RDKit          3D

 27 27  0  0  1  0  0  0  0  0999 V2000
    6.4483  -10.9378   27.2379 C   0  0  0  0  0  0  0  0  0  0  0  0
    5.9782  -12.3746   27.1496 C   0  0  0  0  0  0  0  0  0  0  0  0
    7.0379  -13.2536   26.4955 C   0  0  2  0  0  0  0  0  0  0  0  0
    7.7321  -12.3832   25.4641 C   0  0  0  0  0  0  0  0  0  0  0  0
    6.2935  -14.3974   25.8365 C   0  0  2  0  0  0  0  0  0  0  0  0
    5.6788  -15.1542   26.8833 N   0  0  0  0  0  0  0  0  0  0  0  0
    7.2011  -15.2434   25.0224 C   0  0  0  0  0  0  0  0  0  0  0  0
    7.9039  -16.1457   25.5798 O   0  0  0  0  0  0  0  0  0  0  0  0
    8.6305  -14.3406   16.3830 N   0  0  0  0  0  0  0  0  0  0  0  0
    8.2102  -13.8242   17.6396 C   0  0  0  0  0  0  0  0  0  0  0  0
    8.1840  -12.5560   17.8666 N   0  0  0  0  0  0  0  0  0  0  0  0
    7.8037  -14.6780   18.6933 N   0  0  0  0  0  0  0  0  0  0  0  0
    8.4360  -16.0057   18.8604 C   0  0  0  0  0  0  0  0  0  0  0  0
    8.6247  -16.2705   20.3504 C   0  0  0  0  0  0  0  0  0  0  0  0
    7.8677  -15.3745   21.2454 C   0  0  0  0  0  0  0  0  0  0  0  0
    8.0993  -15.7462   22.7129 C   0  0  2  0  0  0  0  0  0  0  0  0
    7.2781  -15.0382   23.6256 N   0  0  0  0  0  0  0  0  0  0  0  0
    9.5271  -15.9127   22.9917 C   0  0  0  0  0  0  0  0  0  0  0  0
   10.2481  -14.9085   22.5619 O   0  0  0  0  0  0  0  0  0  0  0  0
    7.9735  -12.2109   18.8217 N   0  0  0  0  0  0  0  0  0  0  0  0
   10.2317  -16.9294   23.6209 C   0  0  0  0  0  0  0  0  0  0  0  0
    9.6584  -17.9369   24.5412 C   0  0  0  0  0  0  0  0  0  0  0  0
   10.2271  -19.2261   23.9220 C   0  0  0  0  0  0  0  0  0  0  0  0
   11.4111  -18.7767   23.0596 C   0  0  2  0  0  0  0  0  0  0  0  0
   11.6035  -17.3577   23.6246 C   0  0  0  0  0  0  0  0  0  0  0  0
   12.6403  -16.6266   22.9864 O   0  0  0  0  0  0  0  0  0  0  0  0
   12.5536  -15.9090   21.9910 O   0  0  0  0  0  0  0  0  0  0  0  0
  1  2  1  0
  3  2  1  0
  3  4  1  6
  5  6  1  1
  5  3  1  0
  7  5  1  0
  8  7  2  0
  9 10  1  0
 10 12  1  0
 11 10  2  0
 12 13  1  0
 13 14  1  0
 15 14  1  0
 16 15  1  6
 16 17  1  0
 17  7  1  0
 18 16  1  0
 19 18  2  0
 20 18  1  0
 21 20  1  0
 22 23  1  0
 22 21  1  0
 23 24  1  0
 24 20  1  0
 25 27  1  0
 24 25  1  6
 26 25  2  0
M  END
$$$$
