IRP.pdb
     RDKit          3D

 27 27  0  0  1  0  0  0  0  0999 V2000
    8.1604  -11.7881   18.8714 C   0  0  0  0  0  0  0  0  0  0  0  0
    8.2520  -13.2818   19.1037 C   0  0  0  0  0  0  0  0  0  0  0  0
    7.6860  -13.6549   20.4690 C   0  0  2  0  0  0  0  0  0  0  0  0
    8.5650  -12.9635   21.4950 C   0  0  0  0  0  0  0  0  0  0  0  0
    7.7975  -15.1623   20.5777 C   0  0  2  0  0  0  0  0  0  0  0  0
    6.9649  -15.7177   19.5555 N   0  0  0  0  0  0  0  0  0  0  0  0
    7.3940  -15.6448   21.9217 C   0  0  0  0  0  0  0  0  0  0  0  0
    6.1642  -15.8267   22.1922 O   0  0  0  0  0  0  0  0  0  0  0  0
    5.3052  -20.9686   27.1129 N   0  0  0  0  0  0  0  0  0  0  0  0
    6.5181  -20.8574   27.8470 C   0  0  0  0  0  0  0  0  0  0  0  0
    6.6654  -21.4394   28.9873 N   0  0  0  0  0  0  0  0  0  0  0  0
    7.6134  -20.1046   27.3592 N   0  0  0  0  0  0  0  0  0  0  0  0
    7.7461  -19.8391   25.9092 C   0  0  0  0  0  0  0  0  0  0  0  0
    7.7773  -18.3299   25.6919 C   0  0  0  0  0  0  0  0  0  0  0  0
    7.9976  -17.9036   24.2967 C   0  0  0  0  0  0  0  0  0  0  0  0
    8.1715  -16.3845   24.2112 C   0  0  2  0  0  0  0  0  0  0  0  0
    8.3857  -15.8997   22.8968 N   0  0  0  0  0  0  0  0  0  0  0  0
    8.9943  -15.8888   25.3164 C   0  0  0  0  0  0  0  0  0  0  0  0
    9.9266  -16.7351   25.6736 O   0  0  0  0  0  0  0  0  0  0  0  0
    7.5462  -21.3087   29.5190 N   0  0  0  0  0  0  0  0  0  0  0  0
    8.9573  -14.7012   26.0335 C   0  0  0  0  0  0  0  0  0  0  0  0
    8.4585  -13.4021   25.5289 C   0  0  0  0  0  0  0  0  0  0  0  0
    7.5093  -13.0111   26.6756 C   0  0  0  0  0  0  0  0  0  0  0  0
    7.9453  -13.8603   27.8740 C   0  0  2  0  0  0  0  0  0  0  0  0
    9.3267  -14.3122   27.3667 C   0  0  0  0  0  0  0  0  0  0  0  0
   10.0058  -15.1805   28.2620 O   0  0  0  0  0  0  0  0  0  0  0  0
    9.8751  -16.3984   28.3751 O   0  0  0  0  0  0  0  0  0  0  0  0
  1  2  1  0
  3  2  1  0
  3  4  1  1
  5  6  1  6
  5  3  1  0
  7  5  1  0
  8  7  2  0
  9 10  1  0
 10 12  1  0
 11 10  2  0
 12 13  1  0
 13 14  1  0
 15 14  1  0
 16 15  1  6
 16 17  1  0
 17  7  1  0
 18 16  1  0
 19 18  2  0
 20 18  1  0
 21 20  1  0
 22 23  1  0
 22 21  1  0
 23 24  1  0
 24 20  1  0
 25 27  1  0
 24 25  1  1
 26 25  2  0
M  END
$$$$
