IRP.pdb
     RDKit          3D

 27 27  0  0  1  0  0  0  0  0999 V2000
    6.6115  -11.0071   27.5504 C   0  0  0  0  0  0  0  0  0  0  0  0
    5.9948  -12.2380   26.9196 C   0  0  0  0  0  0  0  0  0  0  0  0
    7.0510  -13.0635   26.1939 C   0  0  2  0  0  0  0  0  0  0  0  0
    7.6369  -12.1573   25.1267 C   0  0  0  0  0  0  0  0  0  0  0  0
    6.3208  -14.2387   25.5755 C   0  0  2  0  0  0  0  0  0  0  0  0
    5.7554  -14.9926   26.6518 N   0  0  0  0  0  0  0  0  0  0  0  0
    7.2290  -15.0744   24.7517 C   0  0  0  0  0  0  0  0  0  0  0  0
    8.0732  -15.8435   25.3126 O   0  0  0  0  0  0  0  0  0  0  0  0
    8.0510  -13.0592   18.2873 N   0  0  0  0  0  0  0  0  0  0  0  0
    8.2950  -14.0794   17.3269 C   0  0  0  0  0  0  0  0  0  0  0  0
    7.9872  -13.9174   16.0862 N   0  0  0  0  0  0  0  0  0  0  0  0
    8.8847  -15.3141   17.6908 N   0  0  0  0  0  0  0  0  0  0  0  0
    8.4383  -16.0197   18.9128 C   0  0  0  0  0  0  0  0  0  0  0  0
    9.0536  -15.3292   20.1254 C   0  0  0  0  0  0  0  0  0  0  0  0
    8.0838  -14.7366   21.0663 C   0  0  0  0  0  0  0  0  0  0  0  0
    8.1279  -15.4534   22.4189 C   0  0  2  0  0  0  0  0  0  0  0  0
    7.1484  -15.0086   23.3416 N   0  0  0  0  0  0  0  0  0  0  0  0
    9.5095  -15.6549   22.8599 C   0  0  0  0  0  0  0  0  0  0  0  0
   10.2290  -14.5641   22.7873 O   0  0  0  0  0  0  0  0  0  0  0  0
    8.1984  -14.6693   15.4037 N   0  0  0  0  0  0  0  0  0  0  0  0
   10.1723  -16.7788   23.3326 C   0  0  0  0  0  0  0  0  0  0  0  0
    9.5408  -17.9339   24.0092 C   0  0  0  0  0  0  0  0  0  0  0  0
   10.1509  -19.0912   23.1985 C   0  0  0  0  0  0  0  0  0  0  0  0
   11.3886  -18.5020   22.5141 C   0  0  2  0  0  0  0  0  0  0  0  0
   11.5414  -17.2155   23.3455 C   0  0  0  0  0  0  0  0  0  0  0  0
   12.6172  -16.3897   22.9241 O   0  0  0  0  0  0  0  0  0  0  0  0
   13.5817  -16.0118   23.5875 O   0  0  0  0  0  0  0  0  0  0  0  0
  1  2  1  0
  3  2  1  0
  3  4  1  6
  5  6  1  1
  5  3  1  0
  7  5  1  0
  8  7  2  0
  9 10  1  0
 10 12  1  0
 11 10  2  0
 12 13  1  0
 13 14  1  0
 15 14  1  0
 16 15  1  6
 16 17  1  0
 17  7  1  0
 18 16  1  0
 19 18  2  0
 20 18  1  0
 21 20  1  0
 22 23  1  0
 22 21  1  0
 23 24  1  0
 24 20  1  0
 25 27  1  0
 24 25  1  6
 26 25  2  0
M  END
$$$$
