IRP.pdb
     RDKit          3D

 27 27  0  0  1  0  0  0  0  0999 V2000
    6.6957  -11.5935   28.1334 C   0  0  0  0  0  0  0  0  0  0  0  0
    6.1521  -12.9256   27.6610 C   0  0  0  0  0  0  0  0  0  0  0  0
    7.0816  -13.5571   26.6309 C   0  0  2  0  0  0  0  0  0  0  0  0
    7.1935  -12.5586   25.4935 C   0  0  0  0  0  0  0  0  0  0  0  0
    6.4054  -14.8345   26.1751 C   0  0  2  0  0  0  0  0  0  0  0  0
    6.3279  -15.6958   27.3147 N   0  0  0  0  0  0  0  0  0  0  0  0
    7.1470  -15.4787   25.0629 C   0  0  0  0  0  0  0  0  0  0  0  0
    8.1127  -16.2686   25.3125 O   0  0  0  0  0  0  0  0  0  0  0  0
   10.1824  -14.3374   16.1466 N   0  0  0  0  0  0  0  0  0  0  0  0
    9.3653  -13.8749   17.2146 C   0  0  0  0  0  0  0  0  0  0  0  0
    9.5208  -12.6973   17.7143 N   0  0  0  0  0  0  0  0  0  0  0  0
    8.3484  -14.6855   17.7745 N   0  0  0  0  0  0  0  0  0  0  0  0
    7.5222  -14.1759   18.8918 C   0  0  0  0  0  0  0  0  0  0  0  0
    7.9054  -14.9276   20.1622 C   0  0  0  0  0  0  0  0  0  0  0  0
    7.1167  -14.5760   21.3585 C   0  0  0  0  0  0  0  0  0  0  0  0
    7.5734  -15.3908   22.5721 C   0  0  2  0  0  0  0  0  0  0  0  0
    6.7723  -15.2075   23.7268 N   0  0  0  0  0  0  0  0  0  0  0  0
    9.0331  -15.3857   22.6868 C   0  0  0  0  0  0  0  0  0  0  0  0
    9.5423  -14.1816   22.6245 O   0  0  0  0  0  0  0  0  0  0  0  0
    8.9034  -12.3826   18.4858 N   0  0  0  0  0  0  0  0  0  0  0  0
    9.9494  -16.4155   22.8482 C   0  0  0  0  0  0  0  0  0  0  0  0
    9.6585  -17.7495   23.4197 C   0  0  0  0  0  0  0  0  0  0  0  0
   10.2791  -18.6506   22.3372 C   0  0  0  0  0  0  0  0  0  0  0  0
   11.2469  -17.7504   21.5624 C   0  0  2  0  0  0  0  0  0  0  0  0
   11.3472  -16.5809   22.5584 C   0  0  0  0  0  0  0  0  0  0  0  0
   12.1710  -15.5165   22.1055 O   0  0  0  0  0  0  0  0  0  0  0  0
   13.1447  -15.0233   22.6731 O   0  0  0  0  0  0  0  0  0  0  0  0
  1  2  1  0
  3  2  1  0
  3  4  1  6
  5  6  1  1
  5  3  1  0
  7  5  1  0
  8  7  2  0
  9 10  1  0
 10 12  1  0
 11 10  2  0
 12 13  1  0
 13 14  1  0
 15 14  1  0
 16 15  1  6
 16 17  1  0
 17  7  1  0
 18 16  1  0
 19 18  2  0
 20 18  1  0
 21 20  1  0
 22 23  1  0
 22 21  1  0
 23 24  1  0
 24 20  1  0
 25 27  1  0
 24 25  1  6
 26 25  2  0
M  END
$$$$
