IRP.pdb
     RDKit          3D

 27 27  0  0  1  0  0  0  0  0999 V2000
    8.8943  -11.7228   19.7632 C   0  0  0  0  0  0  0  0  0  0  0  0
    7.7103  -12.6636   19.6828 C   0  0  0  0  0  0  0  0  0  0  0  0
    8.1634  -14.0793   19.3449 C   0  0  2  0  0  0  0  0  0  0  0  0
    6.9076  -14.9313   19.3211 C   0  0  0  0  0  0  0  0  0  0  0  0
    9.0944  -14.5054   20.4622 C   0  0  2  0  0  0  0  0  0  0  0  0
    9.5827  -15.8073   20.1256 N   0  0  0  0  0  0  0  0  0  0  0  0
    8.4046  -14.5124   21.7759 C   0  0  0  0  0  0  0  0  0  0  0  0
    8.0647  -13.4158   22.3244 O   0  0  0  0  0  0  0  0  0  0  0  0
    6.9629  -21.6233   26.8852 N   0  0  0  0  0  0  0  0  0  0  0  0
    7.5340  -20.3661   27.2253 C   0  0  0  0  0  0  0  0  0  0  0  0
    8.7291  -20.2807   27.6996 N   0  0  0  0  0  0  0  0  0  0  0  0
    6.8168  -19.1568   27.0586 N   0  0  0  0  0  0  0  0  0  0  0  0
    6.1390  -18.8653   25.7756 C   0  0  0  0  0  0  0  0  0  0  0  0
    6.5139  -17.4535   25.3372 C   0  0  0  0  0  0  0  0  0  0  0  0
    7.1051  -17.3538   23.9891 C   0  0  0  0  0  0  0  0  0  0  0  0
    7.5676  -15.9227   23.7005 C   0  0  2  0  0  0  0  0  0  0  0  0
    8.1293  -15.7450   22.4115 N   0  0  0  0  0  0  0  0  0  0  0  0
    8.2253  -15.3390   24.8713 C   0  0  0  0  0  0  0  0  0  0  0  0
    9.0663  -16.1625   25.4435 O   0  0  0  0  0  0  0  0  0  0  0  0
    9.1195  -19.3504   27.9399 N   0  0  0  0  0  0  0  0  0  0  0  0
    8.1137  -14.0894   25.4647 C   0  0  0  0  0  0  0  0  0  0  0  0
    7.6086  -12.8628   24.8080 C   0  0  0  0  0  0  0  0  0  0  0  0
    6.5842  -12.3946   25.8570 C   0  0  0  0  0  0  0  0  0  0  0  0
    6.9741  -13.1086   27.1553 C   0  0  2  0  0  0  0  0  0  0  0  0
    8.3946  -13.5609   26.7712 C   0  0  0  0  0  0  0  0  0  0  0  0
    9.0451  -14.3151   27.7835 O   0  0  0  0  0  0  0  0  0  0  0  0
   10.0396  -14.0006   28.4357 O   0  0  0  0  0  0  0  0  0  0  0  0
  1  2  1  0
  3  2  1  0
  3  4  1  1
  5  6  1  6
  5  3  1  0
  7  5  1  0
  8  7  2  0
  9 10  1  0
 10 12  1  0
 11 10  2  0
 12 13  1  0
 13 14  1  0
 15 14  1  0
 16 15  1  1
 16 17  1  0
 17  7  1  0
 18 16  1  0
 19 18  2  0
 20 18  1  0
 21 20  1  0
 22 23  1  0
 22 21  1  0
 23 24  1  0
 24 20  1  0
 25 27  1  0
 24 25  1  1
 26 25  2  0
M  END
$$$$
