IRP.pdb
     RDKit          3D

 27 27  0  0  1  0  0  0  0  0999 V2000
    7.3295  -12.3319   19.5182 C   0  0  0  0  0  0  0  0  0  0  0  0
    7.4430  -13.8096   19.8292 C   0  0  0  0  0  0  0  0  0  0  0  0
    8.8638  -14.1688   20.2487 C   0  0  2  0  0  0  0  0  0  0  0  0
    9.7431  -13.8961   19.0422 C   0  0  0  0  0  0  0  0  0  0  0  0
    8.8452  -15.6448   20.5917 C   0  0  2  0  0  0  0  0  0  0  0  0
    8.3131  -16.3313   19.4550 N   0  0  0  0  0  0  0  0  0  0  0  0
    8.0393  -15.9132   21.8085 C   0  0  0  0  0  0  0  0  0  0  0  0
    7.0073  -16.6543   21.7401 O   0  0  0  0  0  0  0  0  0  0  0  0
    7.5150  -19.8303   21.2184 N   0  0  0  0  0  0  0  0  0  0  0  0
    6.1752  -19.9718   21.6739 C   0  0  0  0  0  0  0  0  0  0  0  0
    5.2112  -20.2096   20.8525 N   0  0  0  0  0  0  0  0  0  0  0  0
    5.8427  -19.8577   23.0454 N   0  0  0  0  0  0  0  0  0  0  0  0
    5.8476  -18.5322   23.7038 C   0  0  0  0  0  0  0  0  0  0  0  0
    7.1857  -17.8557   23.4250 C   0  0  0  0  0  0  0  0  0  0  0  0
    7.7924  -17.1697   24.5818 C   0  0  0  0  0  0  0  0  0  0  0  0
    7.9146  -15.6655   24.3217 C   0  0  2  0  0  0  0  0  0  0  0  0
    8.4271  -15.3395   23.0412 N   0  0  0  0  0  0  0  0  0  0  0  0
    8.4142  -14.9679   25.5083 C   0  0  0  0  0  0  0  0  0  0  0  0
    9.3556  -15.6328   26.1284 O   0  0  0  0  0  0  0  0  0  0  0  0
    4.2366  -20.2502   21.2047 N   0  0  0  0  0  0  0  0  0  0  0  0
    8.0694  -13.7490   26.0752 C   0  0  0  0  0  0  0  0  0  0  0  0
    7.3367  -12.6566   25.3966 C   0  0  0  0  0  0  0  0  0  0  0  0
    6.2470  -12.3677   26.4444 C   0  0  0  0  0  0  0  0  0  0  0  0
    6.7722  -12.9641   27.7544 C   0  0  2  0  0  0  0  0  0  0  0  0
    8.2509  -13.1465   27.3672 C   0  0  0  0  0  0  0  0  0  0  0  0
    9.0381  -13.7393   28.3898 O   0  0  0  0  0  0  0  0  0  0  0  0
    9.8091  -13.1790   29.1675 O   0  0  0  0  0  0  0  0  0  0  0  0
  1  2  1  0
  3  2  1  0
  3  4  1  6
  5  6  1  6
  5  3  1  0
  7  5  1  0
  8  7  2  0
  9 10  1  0
 10 12  1  0
 11 10  2  0
 12 13  1  0
 13 14  1  0
 15 14  1  0
 16 15  1  1
 16 17  1  0
 17  7  1  0
 18 16  1  0
 19 18  2  0
 20 18  1  0
 21 20  1  0
 22 23  1  0
 22 21  1  0
 23 24  1  0
 24 20  1  0
 25 27  1  0
 24 25  1  1
 26 25  2  0
M  END
$$$$
