IRP.pdb
     RDKit          3D

 27 27  0  0  1  0  0  0  0  0999 V2000
    7.7590  -11.0205   26.6414 C   0  0  0  0  0  0  0  0  0  0  0  0
    7.7471  -12.5155   26.4001 C   0  0  0  0  0  0  0  0  0  0  0  0
    6.3207  -13.0532   26.3933 C   0  0  2  0  0  0  0  0  0  0  0  0
    5.8081  -12.9112   27.8147 C   0  0  0  0  0  0  0  0  0  0  0  0
    6.4178  -14.5102   25.9881 C   0  0  2  0  0  0  0  0  0  0  0  0
    7.4290  -15.1052   26.8066 N   0  0  0  0  0  0  0  0  0  0  0  0
    6.7372  -14.6565   24.5464 C   0  0  0  0  0  0  0  0  0  0  0  0
    5.9436  -14.1933   23.6663 O   0  0  0  0  0  0  0  0  0  0  0  0
    8.1756  -12.6481   16.8253 N   0  0  0  0  0  0  0  0  0  0  0  0
    8.2684  -14.0466   17.0665 C   0  0  0  0  0  0  0  0  0  0  0  0
    8.3348  -14.8900   16.0945 N   0  0  0  0  0  0  0  0  0  0  0  0
    8.2914  -14.5720   18.3810 N   0  0  0  0  0  0  0  0  0  0  0  0
    8.2710  -13.6602   19.5466 C   0  0  0  0  0  0  0  0  0  0  0  0
    9.0055  -14.3316   20.7023 C   0  0  0  0  0  0  0  0  0  0  0  0
    8.3889  -14.1420   22.0292 C   0  0  0  0  0  0  0  0  0  0  0  0
    8.4328  -15.4394   22.8418 C   0  0  2  0  0  0  0  0  0  0  0  0
    7.9281  -15.3137   24.1601 N   0  0  0  0  0  0  0  0  0  0  0  0
    9.6825  -16.1643   22.6034 C   0  0  0  0  0  0  0  0  0  0  0  0
   10.7171  -15.3698   22.4971 O   0  0  0  0  0  0  0  0  0  0  0  0
    8.4446  -15.9006   16.2999 N   0  0  0  0  0  0  0  0  0  0  0  0
    9.9528  -17.5195   22.4752 C   0  0  0  0  0  0  0  0  0  0  0  0
    8.9813  -18.6176   22.6785 C   0  0  0  0  0  0  0  0  0  0  0  0
    9.2096  -19.4254   21.3884 C   0  0  0  0  0  0  0  0  0  0  0  0
   10.5794  -18.9807   20.8656 C   0  0  2  0  0  0  0  0  0  0  0  0
   11.1157  -18.2915   22.1333 C   0  0  0  0  0  0  0  0  0  0  0  0
   12.4020  -17.7135   21.9662 O   0  0  0  0  0  0  0  0  0  0  0  0
   13.4830  -18.1566   22.3514 O   0  0  0  0  0  0  0  0  0  0  0  0
  1  2  1  0
  3  2  1  0
  3  4  1  1
  5  6  1  1
  5  3  1  0
  7  5  1  0
  8  7  2  0
  9 10  1  0
 10 12  1  0
 11 10  2  0
 12 13  1  0
 13 14  1  0
 15 14  1  0
 16 15  1  1
 16 17  1  0
 17  7  1  0
 18 16  1  0
 19 18  2  0
 20 18  1  0
 21 20  1  0
 22 23  1  0
 22 21  1  0
 23 24  1  0
 24 20  1  0
 25 27  1  0
 24 25  1  6
 26 25  2  0
M  END
$$$$
