IRP.pdb
     RDKit          3D

 27 27  0  0  1  0  0  0  0  0999 V2000
    8.2786  -12.2500   18.6363 C   0  0  0  0  0  0  0  0  0  0  0  0
    8.1142  -13.6540   19.1793 C   0  0  0  0  0  0  0  0  0  0  0  0
    7.6726  -13.6240   20.6380 C   0  0  2  0  0  0  0  0  0  0  0  0
    8.7759  -12.9125   21.3996 C   0  0  0  0  0  0  0  0  0  0  0  0
    7.5491  -15.0700   21.0744 C   0  0  2  0  0  0  0  0  0  0  0  0
    6.6208  -15.6972   20.1847 N   0  0  0  0  0  0  0  0  0  0  0  0
    7.1006  -15.1790   22.4847 C   0  0  0  0  0  0  0  0  0  0  0  0
    6.3832  -14.2626   22.9991 O   0  0  0  0  0  0  0  0  0  0  0  0
    6.8302  -21.9059   28.3276 N   0  0  0  0  0  0  0  0  0  0  0  0
    7.7254  -21.4239   27.3333 C   0  0  0  0  0  0  0  0  0  0  0  0
    8.5737  -22.2070   26.7608 N   0  0  0  0  0  0  0  0  0  0  0  0
    7.7244  -20.0666   26.9302 N   0  0  0  0  0  0  0  0  0  0  0  0
    6.5547  -19.2067   27.2175 C   0  0  0  0  0  0  0  0  0  0  0  0
    6.7986  -17.8325   26.6027 C   0  0  0  0  0  0  0  0  0  0  0  0
    7.0874  -17.8372   25.1559 C   0  0  0  0  0  0  0  0  0  0  0  0
    7.4190  -16.4264   24.6609 C   0  0  2  0  0  0  0  0  0  0  0  0
    7.4765  -16.3069   23.2499 N   0  0  0  0  0  0  0  0  0  0  0  0
    8.4578  -15.8116   25.4896 C   0  0  0  0  0  0  0  0  0  0  0  0
    9.4646  -16.6155   25.7198 O   0  0  0  0  0  0  0  0  0  0  0  0
    9.2083  -21.8299   26.0324 N   0  0  0  0  0  0  0  0  0  0  0  0
    8.5569  -14.5500   26.0594 C   0  0  0  0  0  0  0  0  0  0  0  0
    8.0008  -13.3002   25.4939 C   0  0  0  0  0  0  0  0  0  0  0  0
    7.2594  -12.7504   26.7255 C   0  0  0  0  0  0  0  0  0  0  0  0
    7.8746  -13.4729   27.9284 C   0  0  2  0  0  0  0  0  0  0  0  0
    9.1467  -14.0254   27.2603 C   0  0  0  0  0  0  0  0  0  0  0  0
    9.9514  -14.8093   28.1290 O   0  0  0  0  0  0  0  0  0  0  0  0
    9.9371  -16.0311   28.2715 O   0  0  0  0  0  0  0  0  0  0  0  0
  1  2  1  0
  3  2  1  0
  3  4  1  1
  5  6  1  6
  5  3  1  0
  7  5  1  0
  8  7  2  0
  9 10  1  0
 10 12  1  0
 11 10  2  0
 12 13  1  0
 13 14  1  0
 15 14  1  0
 16 15  1  6
 16 17  1  0
 17  7  1  0
 18 16  1  0
 19 18  2  0
 20 18  1  0
 21 20  1  0
 22 23  1  0
 22 21  1  0
 23 24  1  0
 24 20  1  0
 25 27  1  0
 24 25  1  1
 26 25  2  0
M  END
$$$$
