IRP.pdb
     RDKit          3D

 27 27  0  0  1  0  0  0  0  0999 V2000
    8.0653  -12.2104   18.4079 C   0  0  0  0  0  0  0  0  0  0  0  0
    8.2215  -13.6312   18.9079 C   0  0  0  0  0  0  0  0  0  0  0  0
    7.4859  -13.8262   20.2286 C   0  0  2  0  0  0  0  0  0  0  0  0
    8.1720  -12.9189   21.2333 C   0  0  0  0  0  0  0  0  0  0  0  0
    7.6585  -15.2854   20.5997 C   0  0  2  0  0  0  0  0  0  0  0  0
    6.9403  -16.0515   19.6282 N   0  0  0  0  0  0  0  0  0  0  0  0
    7.1683  -15.5620   21.9727 C   0  0  0  0  0  0  0  0  0  0  0  0
    5.9191  -15.5746   22.2142 O   0  0  0  0  0  0  0  0  0  0  0  0
    7.0149  -22.0747   26.9269 N   0  0  0  0  0  0  0  0  0  0  0  0
    6.3271  -21.3686   25.9018 C   0  0  0  0  0  0  0  0  0  0  0  0
    5.7200  -21.9923   24.9516 N   0  0  0  0  0  0  0  0  0  0  0  0
    6.2795  -19.9537   25.8802 N   0  0  0  0  0  0  0  0  0  0  0  0
    7.2841  -19.1645   26.6274 C   0  0  0  0  0  0  0  0  0  0  0  0
    7.2534  -17.7283   26.1153 C   0  0  0  0  0  0  0  0  0  0  0  0
    7.7634  -17.5428   24.7433 C   0  0  0  0  0  0  0  0  0  0  0  0
    7.7991  -16.0578   24.3706 C   0  0  2  0  0  0  0  0  0  0  0  0
    8.0991  -15.8105   23.0076 N   0  0  0  0  0  0  0  0  0  0  0  0
    8.4537  -15.2709   25.4176 C   0  0  0  0  0  0  0  0  0  0  0  0
    9.5009  -15.8714   25.9232 O   0  0  0  0  0  0  0  0  0  0  0  0
    5.2510  -21.4511   24.2015 N   0  0  0  0  0  0  0  0  0  0  0  0
    8.1618  -14.0244   25.9532 C   0  0  0  0  0  0  0  0  0  0  0  0
    7.3187  -12.9867   25.3182 C   0  0  0  0  0  0  0  0  0  0  0  0
    6.3757  -12.6493   26.4868 C   0  0  0  0  0  0  0  0  0  0  0  0
    7.0879  -13.1558   27.7452 C   0  0  2  0  0  0  0  0  0  0  0  0
    8.5039  -13.3405   27.1701 C   0  0  0  0  0  0  0  0  0  0  0  0
    9.4364  -13.8576   28.1080 O   0  0  0  0  0  0  0  0  0  0  0  0
   10.1842  -13.2263   28.8534 O   0  0  0  0  0  0  0  0  0  0  0  0
  1  2  1  0
  3  2  1  0
  3  4  1  1
  5  6  1  6
  5  3  1  0
  7  5  1  0
  8  7  2  0
  9 10  1  0
 10 12  1  0
 11 10  2  0
 12 13  1  0
 13 14  1  0
 15 14  1  0
 16 15  1  1
 16 17  1  0
 17  7  1  0
 18 16  1  0
 19 18  2  0
 20 18  1  0
 21 20  1  0
 22 23  1  0
 22 21  1  0
 23 24  1  0
 24 20  1  0
 25 27  1  0
 24 25  1  1
 26 25  2  0
M  END
$$$$
