IRP.pdb
     RDKit          3D

 27 27  0  0  1  0  0  0  0  0999 V2000
    7.6891  -11.8313   18.5884 C   0  0  0  0  0  0  0  0  0  0  0  0
    8.1816  -13.2173   18.9485 C   0  0  0  0  0  0  0  0  0  0  0  0
    7.6227  -13.6592   20.2961 C   0  0  2  0  0  0  0  0  0  0  0  0
    8.1759  -12.6880   21.3227 C   0  0  0  0  0  0  0  0  0  0  0  0
    8.1432  -15.0628   20.5323 C   0  0  2  0  0  0  0  0  0  0  0  0
    7.5210  -15.9083   19.5605 N   0  0  0  0  0  0  0  0  0  0  0  0
    7.8565  -15.5271   21.9122 C   0  0  0  0  0  0  0  0  0  0  0  0
    6.6728  -15.8574   22.2417 O   0  0  0  0  0  0  0  0  0  0  0  0
   11.9328  -19.9180   21.6663 N   0  0  0  0  0  0  0  0  0  0  0  0
   10.6599  -20.5247   21.4817 C   0  0  0  0  0  0  0  0  0  0  0  0
   10.3832  -21.1864   20.4112 N   0  0  0  0  0  0  0  0  0  0  0  0
    9.6436  -20.4282   22.4629 N   0  0  0  0  0  0  0  0  0  0  0  0
    9.8577  -19.6092   23.6769 C   0  0  0  0  0  0  0  0  0  0  0  0
    9.2541  -18.2281   23.4447 C   0  0  0  0  0  0  0  0  0  0  0  0
    9.3411  -17.3066   24.5936 C   0  0  0  0  0  0  0  0  0  0  0  0
    8.7874  -15.9260   24.2291 C   0  0  2  0  0  0  0  0  0  0  0  0
    8.9075  -15.5988   22.8553 N   0  0  0  0  0  0  0  0  0  0  0  0
    9.1365  -14.9358   25.2496 C   0  0  0  0  0  0  0  0  0  0  0  0
   10.3693  -15.0564   25.6723 O   0  0  0  0  0  0  0  0  0  0  0  0
    9.4609  -21.6521   20.3210 N   0  0  0  0  0  0  0  0  0  0  0  0
    8.4014  -13.9129   25.8321 C   0  0  0  0  0  0  0  0  0  0  0  0
    7.4617  -13.0134   25.1257 C   0  0  0  0  0  0  0  0  0  0  0  0
    6.2325  -13.1279   26.0448 C   0  0  0  0  0  0  0  0  0  0  0  0
    6.7673  -13.6635   27.3768 C   0  0  2  0  0  0  0  0  0  0  0  0
    8.2684  -13.3950   27.1660 C   0  0  0  0  0  0  0  0  0  0  0  0
    9.0818  -13.8303   28.2457 O   0  0  0  0  0  0  0  0  0  0  0  0
    9.6350  -13.1381   29.0990 O   0  0  0  0  0  0  0  0  0  0  0  0
  1  2  1  0
  3  2  1  0
  3  4  1  1
  5  6  1  6
  5  3  1  0
  7  5  1  0
  8  7  2  0
  9 10  1  0
 10 12  1  0
 11 10  2  0
 12 13  1  0
 13 14  1  0
 15 14  1  0
 16 15  1  1
 16 17  1  0
 17  7  1  0
 18 16  1  0
 19 18  2  0
 20 18  1  0
 21 20  1  0
 22 23  1  0
 22 21  1  0
 23 24  1  0
 24 20  1  0
 25 27  1  0
 24 25  1  1
 26 25  2  0
M  END
$$$$
