IRP.pdb
     RDKit          3D

 27 27  0  0  1  0  0  0  0  0999 V2000
    8.6810  -12.1986   27.2916 C   0  0  0  0  0  0  0  0  0  0  0  0
    8.0509  -13.5439   26.9974 C   0  0  0  0  0  0  0  0  0  0  0  0
    6.7626  -13.3775   26.1997 C   0  0  2  0  0  0  0  0  0  0  0  0
    5.7699  -12.7097   27.1335 C   0  0  0  0  0  0  0  0  0  0  0  0
    6.3104  -14.7749   25.8266 C   0  0  2  0  0  0  0  0  0  0  0  0
    6.4617  -15.5887   26.9934 N   0  0  0  0  0  0  0  0  0  0  0  0
    7.0921  -15.3166   24.6875 C   0  0  0  0  0  0  0  0  0  0  0  0
    7.8868  -16.2941   24.8660 O   0  0  0  0  0  0  0  0  0  0  0  0
    8.3608  -13.9369   15.1100 N   0  0  0  0  0  0  0  0  0  0  0  0
    8.7278  -13.8849   16.4830 C   0  0  0  0  0  0  0  0  0  0  0  0
    9.6680  -13.1059   16.8950 N   0  0  0  0  0  0  0  0  0  0  0  0
    8.0785  -14.6845   17.4545 N   0  0  0  0  0  0  0  0  0  0  0  0
    7.4391  -14.0530   18.6304 C   0  0  0  0  0  0  0  0  0  0  0  0
    8.1881  -14.4905   19.8848 C   0  0  0  0  0  0  0  0  0  0  0  0
    7.6361  -13.9776   21.1533 C   0  0  0  0  0  0  0  0  0  0  0  0
    7.7104  -15.0428   22.2510 C   0  0  2  0  0  0  0  0  0  0  0  0
    6.9467  -14.7382   23.4055 N   0  0  0  0  0  0  0  0  0  0  0  0
    9.0747  -15.5557   22.3914 C   0  0  0  0  0  0  0  0  0  0  0  0
    9.9198  -14.6434   22.7994 O   0  0  0  0  0  0  0  0  0  0  0  0
    9.8919  -13.0641   17.9068 N   0  0  0  0  0  0  0  0  0  0  0  0
    9.6136  -16.8157   22.1722 C   0  0  0  0  0  0  0  0  0  0  0  0
    8.8603  -18.0898   22.1719 C   0  0  0  0  0  0  0  0  0  0  0  0
    9.3537  -18.6974   20.8467 C   0  0  0  0  0  0  0  0  0  0  0  0
   10.6513  -17.9534   20.5147 C   0  0  2  0  0  0  0  0  0  0  0  0
   10.9300  -17.3179   21.8888 C   0  0  0  0  0  0  0  0  0  0  0  0
   12.0888  -16.4974   21.9121 O   0  0  0  0  0  0  0  0  0  0  0  0
   12.3676  -15.5657   21.1588 O   0  0  0  0  0  0  0  0  0  0  0  0
  1  2  1  0
  3  2  1  0
  3  4  1  1
  5  6  1  1
  5  3  1  0
  7  5  1  0
  8  7  2  0
  9 10  1  0
 10 12  1  0
 11 10  2  0
 12 13  1  0
 13 14  1  0
 15 14  1  0
 16 15  1  6
 16 17  1  0
 17  7  1  0
 18 16  1  0
 19 18  2  0
 20 18  1  0
 21 20  1  0
 22 23  1  0
 22 21  1  0
 23 24  1  0
 24 20  1  0
 25 27  1  0
 24 25  1  6
 26 25  2  0
M  END
$$$$
