IRP.pdb
     RDKit          3D

 27 27  0  0  1  0  0  0  0  0999 V2000
    6.5179  -11.4413   27.8842 C   0  0  0  0  0  0  0  0  0  0  0  0
    5.9000  -12.6662   27.2431 C   0  0  0  0  0  0  0  0  0  0  0  0
    6.9398  -13.4447   26.4454 C   0  0  2  0  0  0  0  0  0  0  0  0
    7.5003  -12.4753   25.4210 C   0  0  0  0  0  0  0  0  0  0  0  0
    6.1965  -14.5825   25.7749 C   0  0  2  0  0  0  0  0  0  0  0  0
    5.9527  -15.5717   26.7792 N   0  0  0  0  0  0  0  0  0  0  0  0
    6.9688  -15.1465   24.6402 C   0  0  0  0  0  0  0  0  0  0  0  0
    7.6086  -16.2369   24.7827 O   0  0  0  0  0  0  0  0  0  0  0  0
   11.5237  -13.7679   19.0697 N   0  0  0  0  0  0  0  0  0  0  0  0
   10.8020  -14.0991   17.8899 C   0  0  0  0  0  0  0  0  0  0  0  0
   11.3786  -14.6778   16.8934 N   0  0  0  0  0  0  0  0  0  0  0  0
    9.4226  -13.8079   17.7586 N   0  0  0  0  0  0  0  0  0  0  0  0
    8.6828  -13.1909   18.8822 C   0  0  0  0  0  0  0  0  0  0  0  0
    8.4464  -14.2533   19.9506 C   0  0  0  0  0  0  0  0  0  0  0  0
    7.6486  -13.8081   21.1091 C   0  0  0  0  0  0  0  0  0  0  0  0
    7.7212  -14.8304   22.2469 C   0  0  2  0  0  0  0  0  0  0  0  0
    6.9874  -14.4631   23.4025 N   0  0  0  0  0  0  0  0  0  0  0  0
    9.0764  -15.3682   22.3819 C   0  0  0  0  0  0  0  0  0  0  0  0
    9.9676  -14.4414   22.6261 O   0  0  0  0  0  0  0  0  0  0  0  0
   10.8359  -14.8758   16.0321 N   0  0  0  0  0  0  0  0  0  0  0  0
    9.5674  -16.6636   22.2985 C   0  0  0  0  0  0  0  0  0  0  0  0
    8.7522  -17.8990   22.3070 C   0  0  0  0  0  0  0  0  0  0  0  0
    9.3364  -18.6190   21.0785 C   0  0  0  0  0  0  0  0  0  0  0  0
   10.6965  -17.9598   20.8276 C   0  0  2  0  0  0  0  0  0  0  0  0
   10.8767  -17.2437   22.1784 C   0  0  0  0  0  0  0  0  0  0  0  0
   12.0693  -16.4772   22.2617 O   0  0  0  0  0  0  0  0  0  0  0  0
   12.2669  -15.3420   21.8312 O   0  0  0  0  0  0  0  0  0  0  0  0
  1  2  1  0
  3  2  1  0
  3  4  1  6
  5  6  1  1
  5  3  1  0
  7  5  1  0
  8  7  2  0
  9 10  1  0
 10 12  1  0
 11 10  2  0
 12 13  1  0
 13 14  1  0
 15 14  1  0
 16 15  1  6
 16 17  1  0
 17  7  1  0
 18 16  1  0
 19 18  2  0
 20 18  1  0
 21 20  1  0
 22 23  1  0
 22 21  1  0
 23 24  1  0
 24 20  1  0
 25 27  1  0
 24 25  1  6
 26 25  2  0
M  END
$$$$
