IRP.pdb
     RDKit          3D

 27 27  0  0  1  0  0  0  0  0999 V2000
    8.4708  -12.0065   18.5155 C   0  0  0  0  0  0  0  0  0  0  0  0
    8.2579  -13.4561   18.8983 C   0  0  0  0  0  0  0  0  0  0  0  0
    7.6420  -13.5660   20.2883 C   0  0  2  0  0  0  0  0  0  0  0  0
    8.6320  -12.9228   21.2420 C   0  0  0  0  0  0  0  0  0  0  0  0
    7.4915  -15.0474   20.5705 C   0  0  2  0  0  0  0  0  0  0  0  0
    6.5777  -15.5669   19.6001 N   0  0  0  0  0  0  0  0  0  0  0  0
    7.0081  -15.2945   21.9515 C   0  0  0  0  0  0  0  0  0  0  0  0
    5.8374  -14.9314   22.2928 O   0  0  0  0  0  0  0  0  0  0  0  0
    7.0990  -21.8703   27.5757 N   0  0  0  0  0  0  0  0  0  0  0  0
    7.5948  -20.7030   28.2191 C   0  0  0  0  0  0  0  0  0  0  0  0
    8.0096  -20.7365   29.4386 N   0  0  0  0  0  0  0  0  0  0  0  0
    7.6540  -19.4565   27.5502 N   0  0  0  0  0  0  0  0  0  0  0  0
    6.6187  -19.0966   26.5557 C   0  0  0  0  0  0  0  0  0  0  0  0
    6.8925  -17.6808   26.0592 C   0  0  0  0  0  0  0  0  0  0  0  0
    7.2826  -17.5805   24.6399 C   0  0  0  0  0  0  0  0  0  0  0  0
    7.6017  -16.1309   24.2627 C   0  0  2  0  0  0  0  0  0  0  0  0
    7.8578  -15.9351   22.8826 N   0  0  0  0  0  0  0  0  0  0  0  0
    8.4716  -15.5091   25.2630 C   0  0  0  0  0  0  0  0  0  0  0  0
    9.4888  -16.2648   25.5903 O   0  0  0  0  0  0  0  0  0  0  0  0
    8.4604  -19.8977   29.8495 N   0  0  0  0  0  0  0  0  0  0  0  0
    8.4051  -14.2824   25.9087 C   0  0  0  0  0  0  0  0  0  0  0  0
    7.8161  -13.0437   25.3523 C   0  0  0  0  0  0  0  0  0  0  0  0
    6.9012  -12.6296   26.5186 C   0  0  0  0  0  0  0  0  0  0  0  0
    7.4358  -13.3797   27.7429 C   0  0  2  0  0  0  0  0  0  0  0  0
    8.8143  -13.7931   27.1965 C   0  0  0  0  0  0  0  0  0  0  0  0
    9.5786  -14.5691   28.1078 O   0  0  0  0  0  0  0  0  0  0  0  0
    9.3329  -15.6999   28.5251 O   0  0  0  0  0  0  0  0  0  0  0  0
  1  2  1  0
  3  2  1  0
  3  4  1  1
  5  6  1  6
  5  3  1  0
  7  5  1  0
  8  7  2  0
  9 10  1  0
 10 12  1  0
 11 10  2  0
 12 13  1  0
 13 14  1  0
 15 14  1  0
 16 15  1  6
 16 17  1  0
 17  7  1  0
 18 16  1  0
 19 18  2  0
 20 18  1  0
 21 20  1  0
 22 23  1  0
 22 21  1  0
 23 24  1  0
 24 20  1  0
 25 27  1  0
 24 25  1  1
 26 25  2  0
M  END
$$$$
