IRP.pdb
     RDKit          3D

 27 27  0  0  1  0  0  0  0  0999 V2000
    8.1491  -12.5250   18.3375 C   0  0  0  0  0  0  0  0  0  0  0  0
    8.3870  -13.8726   18.9861 C   0  0  0  0  0  0  0  0  0  0  0  0
    7.7198  -13.9419   20.3549 C   0  0  2  0  0  0  0  0  0  0  0  0
    8.4368  -12.9277   21.2270 C   0  0  0  0  0  0  0  0  0  0  0  0
    7.9373  -15.3532   20.8626 C   0  0  2  0  0  0  0  0  0  0  0  0
    7.3177  -16.2356   19.9224 N   0  0  0  0  0  0  0  0  0  0  0  0
    7.3762  -15.5370   22.2240 C   0  0  0  0  0  0  0  0  0  0  0  0
    6.1817  -15.1784   22.4760 O   0  0  0  0  0  0  0  0  0  0  0  0
    7.2935  -21.5236   23.9137 N   0  0  0  0  0  0  0  0  0  0  0  0
    6.4342  -20.9569   22.9324 C   0  0  0  0  0  0  0  0  0  0  0  0
    6.4068  -21.4090   21.7260 N   0  0  0  0  0  0  0  0  0  0  0  0
    5.5740  -19.8742   23.2367 N   0  0  0  0  0  0  0  0  0  0  0  0
    5.8958  -18.9610   24.3559 C   0  0  0  0  0  0  0  0  0  0  0  0
    7.3449  -18.5076   24.2127 C   0  0  0  0  0  0  0  0  0  0  0  0
    7.7988  -17.5353   25.2253 C   0  0  0  0  0  0  0  0  0  0  0  0
    7.8998  -16.1298   24.6256 C   0  0  2  0  0  0  0  0  0  0  0  0
    8.1785  -16.1123   23.2361 N   0  0  0  0  0  0  0  0  0  0  0  0
    8.6183  -15.2266   25.5267 C   0  0  0  0  0  0  0  0  0  0  0  0
    9.8007  -15.6779   25.8601 O   0  0  0  0  0  0  0  0  0  0  0  0
    5.8097  -20.9427   21.0178 N   0  0  0  0  0  0  0  0  0  0  0  0
    8.2692  -14.0004   26.0749 C   0  0  0  0  0  0  0  0  0  0  0  0
    7.4344  -12.9676   25.4212 C   0  0  0  0  0  0  0  0  0  0  0  0
    6.4253  -12.6804   26.5473 C   0  0  0  0  0  0  0  0  0  0  0  0
    7.0849  -13.2003   27.8287 C   0  0  2  0  0  0  0  0  0  0  0  0
    8.5323  -13.3382   27.3229 C   0  0  0  0  0  0  0  0  0  0  0  0
    9.4283  -13.8557   28.2955 O   0  0  0  0  0  0  0  0  0  0  0  0
   10.1746  -13.2257   29.0434 O   0  0  0  0  0  0  0  0  0  0  0  0
  1  2  1  0
  3  2  1  0
  3  4  1  1
  5  6  1  6
  5  3  1  0
  7  5  1  0
  8  7  2  0
  9 10  1  0
 10 12  1  0
 11 10  2  0
 12 13  1  0
 13 14  1  0
 15 14  1  0
 16 15  1  1
 16 17  1  0
 17  7  1  0
 18 16  1  0
 19 18  2  0
 20 18  1  0
 21 20  1  0
 22 23  1  0
 22 21  1  0
 23 24  1  0
 24 20  1  0
 25 27  1  0
 24 25  1  1
 26 25  2  0
M  END
$$$$
