IRP.pdb
     RDKit          3D

 27 27  0  0  1  0  0  0  0  0999 V2000
    7.9181  -12.1561   19.5009 C   0  0  0  0  0  0  0  0  0  0  0  0
    7.4827  -13.5704   19.8225 C   0  0  0  0  0  0  0  0  0  0  0  0
    8.6842  -14.4444   20.1635 C   0  0  2  0  0  0  0  0  0  0  0  0
    9.4883  -14.5767   18.8832 C   0  0  0  0  0  0  0  0  0  0  0  0
    8.1251  -15.7833   20.6011 C   0  0  2  0  0  0  0  0  0  0  0  0
    7.2386  -16.2237   19.5682 N   0  0  0  0  0  0  0  0  0  0  0  0
    7.4245  -15.6833   21.9053 C   0  0  0  0  0  0  0  0  0  0  0  0
    6.1553  -15.6032   21.9438 O   0  0  0  0  0  0  0  0  0  0  0  0
    6.3890  -21.6420   22.3458 N   0  0  0  0  0  0  0  0  0  0  0  0
    5.2507  -20.7994   22.4755 C   0  0  0  0  0  0  0  0  0  0  0  0
    4.2126  -20.9579   21.7287 N   0  0  0  0  0  0  0  0  0  0  0  0
    5.2083  -19.7524   23.4277 N   0  0  0  0  0  0  0  0  0  0  0  0
    6.4402  -19.3439   24.1389 C   0  0  0  0  0  0  0  0  0  0  0  0
    6.7468  -17.8922   23.7863 C   0  0  0  0  0  0  0  0  0  0  0  0
    7.2102  -17.0597   24.9128 C   0  0  0  0  0  0  0  0  0  0  0  0
    7.6636  -15.6815   24.4225 C   0  0  2  0  0  0  0  0  0  0  0  0
    8.1778  -15.6776   23.1019 N   0  0  0  0  0  0  0  0  0  0  0  0
    8.3645  -14.9534   25.4821 C   0  0  0  0  0  0  0  0  0  0  0  0
    9.4308  -15.5810   25.9086 O   0  0  0  0  0  0  0  0  0  0  0  0
    3.4100  -20.3080   21.8228 N   0  0  0  0  0  0  0  0  0  0  0  0
    8.0989  -13.7382   26.0975 C   0  0  0  0  0  0  0  0  0  0  0  0
    7.3144  -12.6270   25.5138 C   0  0  0  0  0  0  0  0  0  0  0  0
    6.3456  -12.3387   26.6745 C   0  0  0  0  0  0  0  0  0  0  0  0
    6.9976  -12.9600   27.9141 C   0  0  2  0  0  0  0  0  0  0  0  0
    8.4244  -13.1561   27.3705 C   0  0  0  0  0  0  0  0  0  0  0  0
    9.3066  -13.7732   28.2965 O   0  0  0  0  0  0  0  0  0  0  0  0
   10.2279  -13.2509   28.9223 O   0  0  0  0  0  0  0  0  0  0  0  0
  1  2  1  0
  3  2  1  0
  3  4  1  6
  5  6  1  6
  5  3  1  0
  7  5  1  0
  8  7  2  0
  9 10  1  0
 10 12  1  0
 11 10  2  0
 12 13  1  0
 13 14  1  0
 15 14  1  0
 16 15  1  1
 16 17  1  0
 17  7  1  0
 18 16  1  0
 19 18  2  0
 20 18  1  0
 21 20  1  0
 22 23  1  0
 22 21  1  0
 23 24  1  0
 24 20  1  0
 25 27  1  0
 24 25  1  1
 26 25  2  0
M  END
$$$$
