IRP.pdb
     RDKit          3D

 27 27  0  0  1  0  0  0  0  0999 V2000
    8.1979  -12.3173   27.4837 C   0  0  0  0  0  0  0  0  0  0  0  0
    7.6744  -13.6356   26.9532 C   0  0  0  0  0  0  0  0  0  0  0  0
    6.4636  -13.4167   26.0534 C   0  0  2  0  0  0  0  0  0  0  0  0
    5.3985  -12.7772   26.9252 C   0  0  0  0  0  0  0  0  0  0  0  0
    6.0327  -14.7900   25.5793 C   0  0  2  0  0  0  0  0  0  0  0  0
    6.1207  -15.6677   26.7056 N   0  0  0  0  0  0  0  0  0  0  0  0
    6.8753  -15.2698   24.4560 C   0  0  0  0  0  0  0  0  0  0  0  0
    7.3846  -16.4352   24.4923 O   0  0  0  0  0  0  0  0  0  0  0  0
    7.4495  -14.7402   16.6236 N   0  0  0  0  0  0  0  0  0  0  0  0
    8.8428  -14.4595   16.6718 C   0  0  0  0  0  0  0  0  0  0  0  0
    9.6578  -14.9685   15.8132 N   0  0  0  0  0  0  0  0  0  0  0  0
    9.3942  -13.6113   17.6625 N   0  0  0  0  0  0  0  0  0  0  0  0
    8.5382  -13.0803   18.7467 C   0  0  0  0  0  0  0  0  0  0  0  0
    8.4714  -14.1153   19.8648 C   0  0  0  0  0  0  0  0  0  0  0  0
    7.7333  -13.6882   21.0688 C   0  0  0  0  0  0  0  0  0  0  0  0
    7.8120  -14.7553   22.1644 C   0  0  2  0  0  0  0  0  0  0  0  0
    7.1069  -14.4226   23.3479 N   0  0  0  0  0  0  0  0  0  0  0  0
    9.1609  -15.3182   22.2509 C   0  0  0  0  0  0  0  0  0  0  0  0
   10.0624  -14.4267   22.5756 O   0  0  0  0  0  0  0  0  0  0  0  0
   10.6735  -14.7749   15.8938 N   0  0  0  0  0  0  0  0  0  0  0  0
    9.6372  -16.6067   22.0535 C   0  0  0  0  0  0  0  0  0  0  0  0
    8.8156  -17.8377   22.0294 C   0  0  0  0  0  0  0  0  0  0  0  0
    9.3210  -18.4767   20.7236 C   0  0  0  0  0  0  0  0  0  0  0  0
   10.6683  -17.8063   20.4360 C   0  0  2  0  0  0  0  0  0  0  0  0
   10.9331  -17.1815   21.8177 C   0  0  0  0  0  0  0  0  0  0  0  0
   12.1338  -16.4257   21.8801 O   0  0  0  0  0  0  0  0  0  0  0  0
   13.1658  -16.6998   22.4908 O   0  0  0  0  0  0  0  0  0  0  0  0
  1  2  1  0
  3  2  1  0
  3  4  1  1
  5  6  1  1
  5  3  1  0
  7  5  1  0
  8  7  2  0
  9 10  1  0
 10 12  1  0
 11 10  2  0
 12 13  1  0
 13 14  1  0
 15 14  1  0
 16 15  1  6
 16 17  1  0
 17  7  1  0
 18 16  1  0
 19 18  2  0
 20 18  1  0
 21 20  1  0
 22 23  1  0
 22 21  1  0
 23 24  1  0
 24 20  1  0
 25 27  1  0
 24 25  1  6
 26 25  2  0
M  END
$$$$
