GVD.pdb
     RDKit          3D

 20 19  0  0  1  0  0  0  0  0999 V2000
   18.2221  -13.0601  -16.6051 N   0  0  0  0  0  0  0  0  0  0  0  0
   18.5906  -11.7893  -17.1594 C   0  0  0  0  0  0  0  0  0  0  0  0
   19.4985  -11.0916  -16.2258 C   0  0  0  0  0  0  0  0  0  0  0  0
   19.1864  -11.0496  -15.0133 O   0  0  0  0  0  0  0  0  0  0  0  0
   23.7474   -9.3415  -14.6432 C   0  0  0  0  0  0  0  0  0  0  0  0
   22.9336  -10.2357  -15.5698 C   0  0  1  0  0  0  0  0  0  0  0  0
   23.0518  -11.6866  -15.2038 C   0  0  0  0  0  0  0  0  0  0  0  0
   21.5050   -9.7650  -15.6720 C   0  0  2  0  0  0  0  0  0  0  0  0
   20.7076  -10.4610  -16.6062 N   0  0  0  0  0  0  0  0  0  0  0  0
   21.4887   -8.3144  -15.9567 C   0  0  0  0  0  0  0  0  0  0  0  0
   21.8626   -7.9082  -17.0747 O   0  0  0  0  0  0  0  0  0  0  0  0
   21.0561   -7.3881  -14.9806 N   0  0  0  0  0  0  0  0  0  0  0  0
   21.0826   -5.9588  -15.1558 C   0  0  1  0  0  0  0  0  0  0  0  0
   19.7187   -5.3146  -15.0976 C   0  0  0  0  0  0  0  0  0  0  0  0
   19.7351   -3.8599  -15.3204 C   0  0  0  0  0  0  0  0  0  0  0  0
   20.2001   -3.4036  -16.3872 O   0  0  0  0  0  0  0  0  0  0  0  0
   21.9892   -5.2836  -14.2123 C   0  0  0  0  0  0  0  0  0  0  0  0
   22.5628   -4.0842  -14.6026 O   0  0  0  0  0  0  0  0  0  0  0  0
   19.2443   -2.9887  -14.3685 O   0  0  0  0  0  0  0  0  0  0  0  0
   22.2307   -5.7880  -13.0861 O   0  0  0  0  0  0  0  0  0  0  0  0
  2  1  1  0
  3  2  1  0
  4  3  2  0
  6  8  1  0
  6  5  1  1
  7  6  1  0
  8  9  1  6
  9  3  1  0
 10  8  1  0
 10 12  1  0
 11 10  2  0
 13 17  1  0
 13 12  1  0
 13 14  1  1
 15 14  1  0
 15 19  1  0
 16 15  2  0
 17 18  1  0
 20 17  2  0
M  END
$$$$
