GVD.pdb
     RDKit          3D

 20 19  0  0  1  0  0  0  0  0999 V2000
   19.6861  -14.0293  -17.0646 N   0  0  0  0  0  0  0  0  0  0  0  0
   19.3104  -12.7327  -17.5500 C   0  0  0  0  0  0  0  0  0  0  0  0
   19.5806  -11.7214  -16.5075 C   0  0  0  0  0  0  0  0  0  0  0  0
   18.8321  -11.6883  -15.5035 O   0  0  0  0  0  0  0  0  0  0  0  0
   22.3097  -11.3343  -14.1159 C   0  0  0  0  0  0  0  0  0  0  0  0
   22.1827   -9.9861  -14.8135 C   0  0  1  0  0  0  0  0  0  0  0  0
   23.3545   -9.6984  -15.7065 C   0  0  0  0  0  0  0  0  0  0  0  0
   20.8557   -9.8546  -15.5168 C   0  0  2  0  0  0  0  0  0  0  0  0
   20.6345  -10.7777  -16.5618 N   0  0  0  0  0  0  0  0  0  0  0  0
   20.6998   -8.4691  -16.0085 C   0  0  0  0  0  0  0  0  0  0  0  0
   21.1959   -8.1528  -17.1079 O   0  0  0  0  0  0  0  0  0  0  0  0
   19.9982   -7.5045  -15.2501 N   0  0  0  0  0  0  0  0  0  0  0  0
   19.7566   -6.1535  -15.6868 C   0  0  1  0  0  0  0  0  0  0  0  0
   18.3083   -5.7371  -15.5999 C   0  0  0  0  0  0  0  0  0  0  0  0
   18.0558   -4.3569  -16.0439 C   0  0  0  0  0  0  0  0  0  0  0  0
   18.2721   -4.0415  -17.2340 O   0  0  0  0  0  0  0  0  0  0  0  0
   20.5976   -5.1674  -14.9878 C   0  0  0  0  0  0  0  0  0  0  0  0
   21.2026   -5.5493  -13.8012 O   0  0  0  0  0  0  0  0  0  0  0  0
   17.5829   -3.4022  -15.1657 O   0  0  0  0  0  0  0  0  0  0  0  0
   20.7569   -4.0135  -15.4612 O   0  0  0  0  0  0  0  0  0  0  0  0
  2  1  1  0
  3  2  1  0
  4  3  2  0
  6  8  1  0
  6  5  1  6
  7  6  1  0
  8  9  1  6
  9  3  1  0
 10  8  1  0
 10 12  1  0
 11 10  2  0
 13 17  1  0
 13 12  1  0
 13 14  1  1
 15 14  1  0
 15 19  1  0
 16 15  2  0
 17 18  1  0
 20 17  2  0
M  END
$$$$
