GVD.pdb
     RDKit          3D

 20 19  0  0  1  0  0  0  0  0999 V2000
   23.6923  -15.1664  -18.4938 N   0  0  0  0  0  0  0  0  0  0  0  0
   24.0763  -13.8417  -18.8884 C   0  0  0  0  0  0  0  0  0  0  0  0
   23.9736  -12.9347  -17.7268 C   0  0  0  0  0  0  0  0  0  0  0  0
   23.0023  -13.0743  -16.9479 O   0  0  0  0  0  0  0  0  0  0  0  0
   26.8607  -11.6555  -15.1739 C   0  0  0  0  0  0  0  0  0  0  0  0
   25.9929  -10.5218  -15.7052 C   0  0  1  0  0  0  0  0  0  0  0  0
   26.7562   -9.6030  -16.6142 C   0  0  0  0  0  0  0  0  0  0  0  0
   24.7225  -11.0466  -16.3244 C   0  0  2  0  0  0  0  0  0  0  0  0
   24.9025  -11.9091  -17.4275 N   0  0  0  0  0  0  0  0  0  0  0  0
   23.8538   -9.9087  -16.6936 C   0  0  0  0  0  0  0  0  0  0  0  0
   23.8847   -9.4716  -17.8609 O   0  0  0  0  0  0  0  0  0  0  0  0
   22.9934   -9.3142  -15.7427 N   0  0  0  0  0  0  0  0  0  0  0  0
   22.0717   -8.2488  -16.0423 C   0  0  1  0  0  0  0  0  0  0  0  0
   20.8083   -8.7132  -16.7257 C   0  0  0  0  0  0  0  0  0  0  0  0
   19.8915   -7.6217  -17.0918 C   0  0  0  0  0  0  0  0  0  0  0  0
   18.9264   -7.3492  -16.3456 O   0  0  0  0  0  0  0  0  0  0  0  0
   21.7266   -7.4417  -14.8602 C   0  0  0  0  0  0  0  0  0  0  0  0
   21.1905   -6.1805  -15.0643 O   0  0  0  0  0  0  0  0  0  0  0  0
   20.0799   -6.8920  -18.2486 O   0  0  0  0  0  0  0  0  0  0  0  0
   21.9161   -7.8920  -13.7015 O   0  0  0  0  0  0  0  0  0  0  0  0
  2  1  1  0
  3  2  1  0
  4  3  2  0
  6  8  1  0
  6  5  1  6
  7  6  1  0
  8  9  1  6
  9  3  1  0
 10  8  1  0
 10 12  1  0
 11 10  2  0
 13 17  1  0
 13 12  1  0
 13 14  1  1
 15 14  1  0
 15 19  1  0
 16 15  2  0
 17 18  1  0
 20 17  2  0
M  END
$$$$
