GVD.pdb
     RDKit          3D

 20 19  0  0  1  0  0  0  0  0999 V2000
   24.8135   -8.1764  -21.0391 N   0  0  0  0  0  0  0  0  0  0  0  0
   24.9209   -8.6285  -19.6819 C   0  0  0  0  0  0  0  0  0  0  0  0
   23.5960   -8.5508  -19.0328 C   0  0  0  0  0  0  0  0  0  0  0  0
   22.7181   -7.8283  -19.5587 O   0  0  0  0  0  0  0  0  0  0  0  0
   19.9313  -10.1384  -16.2442 C   0  0  0  0  0  0  0  0  0  0  0  0
   21.2327  -10.3857  -16.9963 C   0  0  1  0  0  0  0  0  0  0  0  0
   21.0233  -11.2080  -18.2345 C   0  0  0  0  0  0  0  0  0  0  0  0
   21.9686   -9.0964  -17.2590 C   0  0  2  0  0  0  0  0  0  0  0  0
   23.2436   -9.2407  -17.8478 N   0  0  0  0  0  0  0  0  0  0  0  0
   22.0635   -8.3243  -16.0018 C   0  0  0  0  0  0  0  0  0  0  0  0
   22.7495   -8.7719  -15.0617 O   0  0  0  0  0  0  0  0  0  0  0  0
   21.3888   -7.0910  -15.8550 N   0  0  0  0  0  0  0  0  0  0  0  0
   21.3905   -6.3086  -14.6458 C   0  0  1  0  0  0  0  0  0  0  0  0
   22.0185   -4.9452  -14.8057 C   0  0  0  0  0  0  0  0  0  0  0  0
   22.0125   -4.1368  -13.5759 C   0  0  0  0  0  0  0  0  0  0  0  0
   21.3192   -3.0980  -13.5229 O   0  0  0  0  0  0  0  0  0  0  0  0
   20.0500   -6.1691  -14.0529 C   0  0  0  0  0  0  0  0  0  0  0  0
   18.9499   -6.3514  -14.8753 O   0  0  0  0  0  0  0  0  0  0  0  0
   22.7617   -4.5075  -12.4770 O   0  0  0  0  0  0  0  0  0  0  0  0
   19.9162   -5.8924  -12.8336 O   0  0  0  0  0  0  0  0  0  0  0  0
  2  1  1  0
  3  2  1  0
  4  3  2  0
  6  8  1  0
  6  5  1  6
  7  6  1  0
  8  9  1  1
  9  3  1  0
 10  8  1  0
 10 12  1  0
 11 10  2  0
 13 17  1  0
 13 12  1  0
 13 14  1  6
 15 14  1  0
 15 19  1  0
 16 15  2  0
 17 18  1  0
 20 17  2  0
M  END
$$$$
