GVD.pdb
     RDKit          3D

 20 19  0  0  1  0  0  0  0  0999 V2000
   18.7556  -14.1505  -17.1712 N   0  0  0  0  0  0  0  0  0  0  0  0
   19.6309  -13.1558  -17.7211 C   0  0  0  0  0  0  0  0  0  0  0  0
   19.9019  -12.1227  -16.7004 C   0  0  0  0  0  0  0  0  0  0  0  0
   19.1115  -12.0205  -15.7338 O   0  0  0  0  0  0  0  0  0  0  0  0
   22.7332   -9.0154  -14.1977 C   0  0  0  0  0  0  0  0  0  0  0  0
   22.5972  -10.1637  -15.1893 C   0  0  1  0  0  0  0  0  0  0  0  0
   23.0953  -11.4618  -14.6237 C   0  0  0  0  0  0  0  0  0  0  0  0
   21.1948  -10.2548  -15.7350 C   0  0  2  0  0  0  0  0  0  0  0  0
   21.0010  -11.2311  -16.7362 N   0  0  0  0  0  0  0  0  0  0  0  0
   20.7735   -8.9238  -16.2216 C   0  0  0  0  0  0  0  0  0  0  0  0
   21.2767   -8.4699  -17.2682 O   0  0  0  0  0  0  0  0  0  0  0  0
   19.8118   -8.1646  -15.5170 N   0  0  0  0  0  0  0  0  0  0  0  0
   19.3798   -6.8470  -15.9064 C   0  0  1  0  0  0  0  0  0  0  0  0
   17.9219   -6.5773  -15.6225 C   0  0  0  0  0  0  0  0  0  0  0  0
   17.4873   -5.2154  -15.9719 C   0  0  0  0  0  0  0  0  0  0  0  0
   17.3949   -4.8858  -17.1741 O   0  0  0  0  0  0  0  0  0  0  0  0
   20.2042   -5.7778  -15.3187 C   0  0  0  0  0  0  0  0  0  0  0  0
   20.4961   -4.6729  -16.1021 O   0  0  0  0  0  0  0  0  0  0  0  0
   17.1790   -4.2934  -14.9915 O   0  0  0  0  0  0  0  0  0  0  0  0
   20.6272   -5.8728  -14.1384 O   0  0  0  0  0  0  0  0  0  0  0  0
  2  1  1  0
  3  2  1  0
  4  3  2  0
  6  8  1  0
  6  5  1  1
  7  6  1  0
  8  9  1  6
  9  3  1  0
 10  8  1  0
 10 12  1  0
 11 10  2  0
 13 17  1  0
 13 12  1  0
 13 14  1  1
 15 14  1  0
 15 19  1  0
 16 15  2  0
 17 18  1  0
 20 17  2  0
M  END
$$$$
