GVD.pdb
     RDKit          3D

 20 19  0  0  1  0  0  0  0  0999 V2000
   17.7687  -12.6847  -16.3466 N   0  0  0  0  0  0  0  0  0  0  0  0
   18.6223  -11.7416  -17.0097 C   0  0  0  0  0  0  0  0  0  0  0  0
   19.4285  -11.0186  -16.0047 C   0  0  0  0  0  0  0  0  0  0  0  0
   18.9367  -10.8377  -14.8668 O   0  0  0  0  0  0  0  0  0  0  0  0
   23.6551  -10.2699  -16.3291 C   0  0  0  0  0  0  0  0  0  0  0  0
   22.8669  -10.3007  -15.0259 C   0  0  1  0  0  0  0  0  0  0  0  0
   23.5748   -9.5746  -13.9191 C   0  0  0  0  0  0  0  0  0  0  0  0
   21.4490   -9.8310  -15.2304 C   0  0  2  0  0  0  0  0  0  0  0  0
   20.7294  -10.5107  -16.2370 N   0  0  0  0  0  0  0  0  0  0  0  0
   21.4500   -8.3753  -15.4883 C   0  0  0  0  0  0  0  0  0  0  0  0
   21.6490   -7.9615  -16.6476 O   0  0  0  0  0  0  0  0  0  0  0  0
   21.2291   -7.4525  -14.4407 N   0  0  0  0  0  0  0  0  0  0  0  0
   21.2245   -6.0225  -14.6116 C   0  0  1  0  0  0  0  0  0  0  0  0
   19.8436   -5.4130  -14.5913 C   0  0  0  0  0  0  0  0  0  0  0  0
   19.8267   -3.9634  -14.8449 C   0  0  0  0  0  0  0  0  0  0  0  0
   20.8665   -3.3932  -15.2401 O   0  0  0  0  0  0  0  0  0  0  0  0
   22.0862   -5.3276  -13.6408 C   0  0  0  0  0  0  0  0  0  0  0  0
   22.4858   -6.0202  -12.5093 O   0  0  0  0  0  0  0  0  0  0  0  0
   18.6787   -3.2208  -14.6530 O   0  0  0  0  0  0  0  0  0  0  0  0
   22.4448   -4.1391  -13.8406 O   0  0  0  0  0  0  0  0  0  0  0  0
  2  1  1  0
  3  2  1  0
  4  3  2  0
  6  8  1  0
  6  5  1  6
  7  6  1  0
  8  9  1  6
  9  3  1  0
 10  8  1  0
 10 12  1  0
 11 10  2  0
 13 17  1  0
 13 12  1  0
 13 14  1  1
 15 14  1  0
 15 19  1  0
 16 15  2  0
 17 18  1  0
 20 17  2  0
M  END
$$$$
