GVD.pdb
     RDKit          3D

 20 19  0  0  1  0  0  0  0  0999 V2000
   27.5356  -14.4287  -17.5562 N   0  0  0  0  0  0  0  0  0  0  0  0
   27.2734  -13.4136  -16.5771 C   0  0  0  0  0  0  0  0  0  0  0  0
   25.8182  -13.1705  -16.5002 C   0  0  0  0  0  0  0  0  0  0  0  0
   25.1040  -13.5289  -17.4649 O   0  0  0  0  0  0  0  0  0  0  0  0
   21.5293  -12.7774  -14.3719 C   0  0  0  0  0  0  0  0  0  0  0  0
   22.9963  -13.1853  -14.4170 C   0  0  1  0  0  0  0  0  0  0  0  0
   23.1671  -14.6595  -14.6426 C   0  0  0  0  0  0  0  0  0  0  0  0
   23.7708  -12.3424  -15.3981 C   0  0  2  0  0  0  0  0  0  0  0  0
   25.1663  -12.5556  -15.4042 N   0  0  0  0  0  0  0  0  0  0  0  0
   23.4663  -10.9151  -15.1614 C   0  0  0  0  0  0  0  0  0  0  0  0
   23.9245  -10.3541  -14.1464 O   0  0  0  0  0  0  0  0  0  0  0  0
   22.6659  -10.1838  -16.0681 N   0  0  0  0  0  0  0  0  0  0  0  0
   22.2648   -8.8149  -15.8688 C   0  0  1  0  0  0  0  0  0  0  0  0
   21.6170   -8.1895  -17.0804 C   0  0  0  0  0  0  0  0  0  0  0  0
   21.3451   -6.7503  -16.9363 C   0  0  0  0  0  0  0  0  0  0  0  0
   21.7278   -6.1491  -15.9094 O   0  0  0  0  0  0  0  0  0  0  0  0
   21.3926   -8.6395  -14.6956 C   0  0  0  0  0  0  0  0  0  0  0  0
   21.7715   -7.7189  -13.7319 O   0  0  0  0  0  0  0  0  0  0  0  0
   20.6727   -6.0514  -17.9190 O   0  0  0  0  0  0  0  0  0  0  0  0
   20.3354   -9.3102  -14.5793 O   0  0  0  0  0  0  0  0  0  0  0  0
  2  1  1  0
  3  2  1  0
  4  3  2  0
  6  8  1  0
  6  5  1  6
  7  6  1  0
  8  9  1  1
  9  3  1  0
 10  8  1  0
 10 12  1  0
 11 10  2  0
 13 17  1  0
 13 12  1  0
 13 14  1  6
 15 14  1  0
 15 19  1  0
 16 15  2  0
 17 18  1  0
 20 17  2  0
M  END
$$$$
