GVD.pdb
     RDKit          3D

 20 19  0  0  1  0  0  0  0  0999 V2000
   12.8679  -12.0571  -10.7141 N   0  0  0  0  0  0  0  0  0  0  0  0
   14.1632  -11.6947  -10.2154 C   0  0  0  0  0  0  0  0  0  0  0  0
   14.3396  -10.2320  -10.3259 C   0  0  0  0  0  0  0  0  0  0  0  0
   13.6090   -9.6041  -11.1267 O   0  0  0  0  0  0  0  0  0  0  0  0
   15.8595   -5.8277   -8.7696 C   0  0  0  0  0  0  0  0  0  0  0  0
   15.5818   -7.2973   -8.4802 C   0  0  1  0  0  0  0  0  0  0  0  0
   14.4407   -7.4796   -7.5222 C   0  0  0  0  0  0  0  0  0  0  0  0
   15.4175   -8.0864   -9.7542 C   0  0  2  0  0  0  0  0  0  0  0  0
   15.2840   -9.4816   -9.5848 N   0  0  0  0  0  0  0  0  0  0  0  0
   16.5409   -7.7807  -10.6654 C   0  0  0  0  0  0  0  0  0  0  0  0
   17.6968   -8.1194  -10.3431 O   0  0  0  0  0  0  0  0  0  0  0  0
   16.3200   -7.1125  -11.8911 N   0  0  0  0  0  0  0  0  0  0  0  0
   17.3695   -6.7049  -12.7893 C   0  0  1  0  0  0  0  0  0  0  0  0
   17.6947   -7.7303  -13.8483 C   0  0  0  0  0  0  0  0  0  0  0  0
   18.7614   -7.3157  -14.7736 C   0  0  0  0  0  0  0  0  0  0  0  0
   19.8944   -7.0367  -14.3250 O   0  0  0  0  0  0  0  0  0  0  0  0
   17.1045   -5.4037  -13.4255 C   0  0  0  0  0  0  0  0  0  0  0  0
   18.1886   -4.6154  -13.7762 O   0  0  0  0  0  0  0  0  0  0  0  0
   18.5312   -7.2295  -16.1322 O   0  0  0  0  0  0  0  0  0  0  0  0
   15.9246   -5.0262  -13.6410 O   0  0  0  0  0  0  0  0  0  0  0  0
  2  1  1  0
  3  2  1  0
  4  3  2  0
  6  8  1  0
  6  5  1  6
  7  6  1  0
  8  9  1  1
  9  3  1  0
 10  8  1  0
 10 12  1  0
 11 10  2  0
 13 17  1  0
 13 12  1  0
 13 14  1  6
 15 14  1  0
 15 19  1  0
 16 15  2  0
 17 18  1  0
 20 17  2  0
M  END
$$$$
