GVD.pdb
     RDKit          3D

 20 19  0  0  1  0  0  0  0  0999 V2000
   23.6271  -20.3159   -8.6813 N   0  0  0  0  0  0  0  0  0  0  0  0
   24.1406  -21.2692   -9.6223 C   0  0  0  0  0  0  0  0  0  0  0  0
   24.7075  -20.5547  -10.7845 C   0  0  0  0  0  0  0  0  0  0  0  0
   24.3453  -19.3732  -10.9903 O   0  0  0  0  0  0  0  0  0  0  0  0
   28.0876  -19.8255  -14.2810 C   0  0  0  0  0  0  0  0  0  0  0  0
   27.6238  -20.6276  -13.0719 C   0  0  1  0  0  0  0  0  0  0  0  0
   28.5240  -20.4354  -11.8861 C   0  0  0  0  0  0  0  0  0  0  0  0
   26.1721  -20.3642  -12.7622 C   0  0  2  0  0  0  0  0  0  0  0  0
   25.6396  -21.1143  -11.6913 N   0  0  0  0  0  0  0  0  0  0  0  0
   25.3679  -20.5667  -13.9862 C   0  0  0  0  0  0  0  0  0  0  0  0
   25.2778  -21.7106  -14.4741 O   0  0  0  0  0  0  0  0  0  0  0  0
   24.7039  -19.4836  -14.6056 N   0  0  0  0  0  0  0  0  0  0  0  0
   23.6317  -19.6306  -15.5560 C   0  0  1  0  0  0  0  0  0  0  0  0
   22.3751  -18.8869  -15.1734 C   0  0  0  0  0  0  0  0  0  0  0  0
   21.2559  -19.0844  -16.1085 C   0  0  0  0  0  0  0  0  0  0  0  0
   21.3934  -19.8561  -17.0822 O   0  0  0  0  0  0  0  0  0  0  0  0
   24.0269  -19.2621  -16.9257 C   0  0  0  0  0  0  0  0  0  0  0  0
   25.2540  -18.6449  -17.1077 O   0  0  0  0  0  0  0  0  0  0  0  0
   20.0538  -18.4299  -15.9279 O   0  0  0  0  0  0  0  0  0  0  0  0
   23.2664  -19.5045  -17.8972 O   0  0  0  0  0  0  0  0  0  0  0  0
  2  1  1  0
  3  2  1  0
  4  3  2  0
  6  8  1  0
  6  5  1  6
  7  6  1  0
  8  9  1  1
  9  3  1  0
 10  8  1  0
 10 12  1  0
 11 10  2  0
 13 17  1  0
 13 12  1  0
 13 14  1  1
 15 14  1  0
 15 19  1  0
 16 15  2  0
 17 18  1  0
 20 17  2  0
M  END
$$$$
