GVD.pdb
     RDKit          3D

 20 19  0  0  1  0  0  0  0  0999 V2000
   22.9662  -17.3603  -16.2817 N   0  0  0  0  0  0  0  0  0  0  0  0
   23.2675  -16.2143  -17.0903 C   0  0  0  0  0  0  0  0  0  0  0  0
   23.6439  -15.0834  -16.2174 C   0  0  0  0  0  0  0  0  0  0  0  0
   23.1961  -15.0609  -15.0476 O   0  0  0  0  0  0  0  0  0  0  0  0
   26.4320  -11.3474  -14.7529 C   0  0  0  0  0  0  0  0  0  0  0  0
   26.2280  -12.5554  -15.6582 C   0  0  1  0  0  0  0  0  0  0  0  0
   27.1217  -13.7014  -15.2826 C   0  0  0  0  0  0  0  0  0  0  0  0
   24.7728  -12.9411  -15.7396 C   0  0  2  0  0  0  0  0  0  0  0  0
   24.4823  -14.0129  -16.6114 N   0  0  0  0  0  0  0  0  0  0  0  0
   23.9723  -11.7509  -16.0980 C   0  0  0  0  0  0  0  0  0  0  0  0
   24.0346  -11.3013  -17.2594 O   0  0  0  0  0  0  0  0  0  0  0  0
   23.1417  -11.1208  -15.1437 N   0  0  0  0  0  0  0  0  0  0  0  0
   22.2803  -10.0038  -15.4349 C   0  0  1  0  0  0  0  0  0  0  0  0
   20.8927  -10.1401  -14.8563 C   0  0  0  0  0  0  0  0  0  0  0  0
   20.0245   -8.9785  -15.1065 C   0  0  0  0  0  0  0  0  0  0  0  0
   19.7694   -8.6398  -16.2824 O   0  0  0  0  0  0  0  0  0  0  0  0
   22.8608   -8.7129  -15.0291 C   0  0  0  0  0  0  0  0  0  0  0  0
   23.9017   -8.7235  -14.1147 O   0  0  0  0  0  0  0  0  0  0  0  0
   19.4856   -8.2547  -14.0615 O   0  0  0  0  0  0  0  0  0  0  0  0
   22.4184   -7.6359  -15.5039 O   0  0  0  0  0  0  0  0  0  0  0  0
  2  1  1  0
  3  2  1  0
  4  3  2  0
  6  8  1  0
  6  5  1  1
  7  6  1  0
  8  9  1  6
  9  3  1  0
 10  8  1  0
 10 12  1  0
 11 10  2  0
 13 17  1  0
 13 12  1  0
 13 14  1  1
 15 14  1  0
 15 19  1  0
 16 15  2  0
 17 18  1  0
 20 17  2  0
M  END
$$$$
