GVD.pdb
     RDKit          3D

 20 19  0  0  1  0  0  0  0  0999 V2000
   27.7023  -11.6753  -16.3772 N   0  0  0  0  0  0  0  0  0  0  0  0
   26.7145  -11.7056  -15.3373 C   0  0  0  0  0  0  0  0  0  0  0  0
   25.4663  -11.0862  -15.8283 C   0  0  0  0  0  0  0  0  0  0  0  0
   25.4560  -10.6071  -16.9858 O   0  0  0  0  0  0  0  0  0  0  0  0
   20.6551  -10.6520  -16.1432 C   0  0  0  0  0  0  0  0  0  0  0  0
   21.9350  -11.3875  -15.7670 C   0  0  1  0  0  0  0  0  0  0  0  0
   22.2232  -12.5324  -16.6940 C   0  0  0  0  0  0  0  0  0  0  0  0
   23.0944  -10.4344  -15.6246 C   0  0  2  0  0  0  0  0  0  0  0  0
   24.2695  -10.9939  -15.0777 N   0  0  0  0  0  0  0  0  0  0  0  0
   22.6656   -9.2592  -14.8368 C   0  0  0  0  0  0  0  0  0  0  0  0
   22.4441   -9.3908  -13.6168 O   0  0  0  0  0  0  0  0  0  0  0  0
   22.5049   -7.9950  -15.4482 N   0  0  0  0  0  0  0  0  0  0  0  0
   22.0903   -6.8064  -14.7485 C   0  0  1  0  0  0  0  0  0  0  0  0
   22.5830   -5.5270  -15.3802 C   0  0  0  0  0  0  0  0  0  0  0  0
   22.2096   -4.3120  -14.6383 C   0  0  0  0  0  0  0  0  0  0  0  0
   22.4356   -4.2439  -13.4108 O   0  0  0  0  0  0  0  0  0  0  0  0
   20.6321   -6.7342  -14.5577 C   0  0  0  0  0  0  0  0  0  0  0  0
   20.1522   -6.4685  -13.2854 O   0  0  0  0  0  0  0  0  0  0  0  0
   21.6124   -3.2436  -15.2771 O   0  0  0  0  0  0  0  0  0  0  0  0
   19.8513   -6.9099  -15.5276 O   0  0  0  0  0  0  0  0  0  0  0  0
  2  1  1  0
  3  2  1  0
  4  3  2  0
  6  8  1  0
  6  5  1  6
  7  6  1  0
  8  9  1  1
  9  3  1  0
 10  8  1  0
 10 12  1  0
 11 10  2  0
 13 17  1  0
 13 12  1  0
 13 14  1  6
 15 14  1  0
 15 19  1  0
 16 15  2  0
 17 18  1  0
 20 17  2  0
M  END
$$$$
