GVD.pdb
     RDKit          3D

 20 19  0  0  1  0  0  0  0  0999 V2000
   21.2475  -15.6397  -17.2113 N   0  0  0  0  0  0  0  0  0  0  0  0
   21.3237  -14.3291  -17.7896 C   0  0  0  0  0  0  0  0  0  0  0  0
   21.9462  -13.4017  -16.8226 C   0  0  0  0  0  0  0  0  0  0  0  0
   21.4611  -13.3316  -15.6697 O   0  0  0  0  0  0  0  0  0  0  0  0
   25.4634  -10.4867  -15.0532 C   0  0  0  0  0  0  0  0  0  0  0  0
   25.0419  -11.5659  -16.0422 C   0  0  1  0  0  0  0  0  0  0  0  0
   25.6664  -12.8947  -15.7300 C   0  0  0  0  0  0  0  0  0  0  0  0
   23.5417  -11.6332  -16.1751 C   0  0  2  0  0  0  0  0  0  0  0  0
   23.0621  -12.5785  -17.1076 N   0  0  0  0  0  0  0  0  0  0  0  0
   23.0191  -10.2862  -16.4883 C   0  0  0  0  0  0  0  0  0  0  0  0
   23.0141   -9.8942  -17.6720 O   0  0  0  0  0  0  0  0  0  0  0  0
   22.5278   -9.4426  -15.4661 N   0  0  0  0  0  0  0  0  0  0  0  0
   21.9185   -8.1590  -15.7016 C   0  0  1  0  0  0  0  0  0  0  0  0
   20.6522   -8.2290  -16.5202 C   0  0  0  0  0  0  0  0  0  0  0  0
   20.0573   -6.9153  -16.8138 C   0  0  0  0  0  0  0  0  0  0  0  0
   20.6815   -6.1000  -17.5268 O   0  0  0  0  0  0  0  0  0  0  0  0
   21.6639   -7.4103  -14.4595 C   0  0  0  0  0  0  0  0  0  0  0  0
   21.3866   -6.0564  -14.5583 O   0  0  0  0  0  0  0  0  0  0  0  0
   18.8184   -6.5674  -16.3136 O   0  0  0  0  0  0  0  0  0  0  0  0
   21.6990   -7.9910  -13.3448 O   0  0  0  0  0  0  0  0  0  0  0  0
  2  1  1  0
  3  2  1  0
  4  3  2  0
  6  8  1  0
  6  5  1  1
  7  6  1  0
  8  9  1  6
  9  3  1  0
 10  8  1  0
 10 12  1  0
 11 10  2  0
 13 17  1  0
 13 12  1  0
 13 14  1  1
 15 14  1  0
 15 19  1  0
 16 15  2  0
 17 18  1  0
 20 17  2  0
M  END
$$$$
