WYV.pdb
     RDKit          3D

 34 36  0  0  1  0  0  0  0  0999 V2000
    5.7901  -17.8844   23.9122 N   0  0  0  0  0  0  0  0  0  0  0  0
    6.4986  -16.6179   24.0066 C   0  0  1  0  0  0  0  0  0  0  0  0
    6.6689  -16.2585   25.4799 C   0  0  0  0  0  0  0  0  0  0  0  0
    5.9140  -15.0710   25.8787 C   0  0  0  0  0  0  0  0  0  0  0  0
    4.5991  -14.9843   26.2970 C   0  0  0  0  0  0  0  0  0  0  0  0
    4.3267  -13.7017   26.5561 N   0  0  0  0  0  0  0  0  0  0  0  0
    5.3951  -12.9254   26.3318 C   0  0  0  0  0  0  0  0  0  0  0  0
    5.5822  -11.5584   26.4618 C   0  0  0  0  0  0  0  0  0  0  0  0
    6.8275  -11.0325   26.1502 C   0  0  0  0  0  0  0  0  0  0  0  0
    7.8312  -11.8551   25.7277 C   0  0  0  0  0  0  0  0  0  0  0  0
    7.6355  -13.2217   25.6003 C   0  0  0  0  0  0  0  0  0  0  0  0
    6.4028  -13.7664   25.9055 C   0  0  0  0  0  0  0  0  0  0  0  0
    7.9053  -16.8303   23.5103 C   0  0  0  0  0  0  0  0  0  0  0  0
    8.3704  -17.9959   23.3914 O   0  0  0  0  0  0  0  0  0  0  0  0
    7.4754  -14.1934   17.4650 O   0  0  0  0  0  0  0  0  0  0  0  0
    8.2679  -14.3486   18.6106 C   0  0  0  0  0  0  0  0  0  0  0  0
    8.2212  -13.4025   19.6069 C   0  0  0  0  0  0  0  0  0  0  0  0
    8.9909  -13.5174   20.7612 C   0  0  0  0  0  0  0  0  0  0  0  0
    9.8165  -14.6081   20.9016 C   0  0  0  0  0  0  0  0  0  0  0  0
   10.6550  -14.7535   22.1116 C   0  0  0  0  0  0  0  0  0  0  0  0
   10.1644  -15.7611   23.0955 C   0  0  2  0  0  0  0  0  0  0  0  0
    8.7370  -15.7380   23.1657 N   0  0  0  0  0  0  0  0  0  0  0  0
   10.8952  -15.8307   24.3557 C   0  0  0  0  0  0  0  0  0  0  0  0
   12.1393  -15.9959   24.3273 O   0  0  0  0  0  0  0  0  0  0  0  0
    9.8864  -15.5921   19.9010 C   0  0  0  0  0  0  0  0  0  0  0  0
    9.1080  -15.4359   18.7783 C   0  0  0  0  0  0  0  0  0  0  0  0
   11.2241  -15.3987   29.2482 C   0  0  0  0  0  0  0  0  0  0  0  0
   10.3373  -15.4467   28.0333 C   0  0  1  0  0  0  0  0  0  0  0  0
    9.7506  -14.0732   27.8485 C   0  0  0  0  0  0  0  0  0  0  0  0
   11.0847  -15.8405   26.8101 C   0  0  2  0  0  0  0  0  0  0  0  0
   10.2682  -15.7258   25.6191 N   0  0  0  0  0  0  0  0  0  0  0  0
   11.7290  -17.1904   26.8990 C   0  0  0  0  0  0  0  0  0  0  0  0
   13.0950  -17.3129   27.1671 O   0  0  0  0  0  0  0  0  0  0  0  0
   11.1097  -18.2644   26.7445 O   0  0  0  0  0  0  0  0  0  0  0  0
  2  1  1  1
  3  4  1  0
  3  2  1  0
  4  5  2  0
  6  5  1  0
  7  6  1  0
  8  7  2  0
  9  8  1  0
 10  9  2  0
 10 11  1  0
 11 12  2  0
 12  7  1  0
 12  4  1  0
 13 14  2  0
 13  2  1  0
 15 16  1  0
 16 17  2  0
 17 18  1  0
 19 20  1  0
 19 18  2  0
 21 20  1  1
 21 22  1  0
 22 13  1  0
 23 21  1  0
 24 23  2  0
 25 19  1  0
 26 25  2  0
 26 16  1  0
 28 27  1  1
 28 30  1  0
 28 29  1  0
 30 31  1  6
 31 23  1  0
 32 33  1  0
 32 30  1  0
 34 32  2  0
M  END
$$$$
