WYV.pdb
     RDKit          3D

 34 36  0  0  1  0  0  0  0  0999 V2000
 5308.2446 6529.7617 -913.4020 N   0  0  0  0  0  0  0  0  0  0  0  0
 5306.8765 6529.6040 -912.9409 C   0  0  1  0  0  0  0  0  0  0  0  0
 5305.9341 6530.1904 -913.9905 C   0  0  0  0  0  0  0  0  0  0  0  0
 5306.6367 6530.8223 -915.1096 C   0  0  0  0  0  0  0  0  0  0  0  0
 5307.9702 6531.1567 -915.2149 C   0  0  0  0  0  0  0  0  0  0  0  0
 5308.1675 6531.7188 -916.4111 N   0  0  0  0  0  0  0  0  0  0  0  0
 5307.0244 6531.7827 -917.1114 C   0  0  0  0  0  0  0  0  0  0  0  0
 5306.7490 6532.2700 -918.3780 C   0  0  0  0  0  0  0  0  0  0  0  0
 5305.4429 6532.1934 -918.8398 C   0  0  0  0  0  0  0  0  0  0  0  0
 5304.4707 6531.6465 -918.0566 C   0  0  0  0  0  0  0  0  0  0  0  0
 5304.7554 6531.1543 -916.7929 C   0  0  0  0  0  0  0  0  0  0  0  0
 5306.0488 6531.2227 -916.3093 C   0  0  0  0  0  0  0  0  0  0  0  0
 5306.5513 6528.1304 -912.9306 C   0  0  0  0  0  0  0  0  0  0  0  0
 5305.3525 6527.7412 -912.8784 O   0  0  0  0  0  0  0  0  0  0  0  0
 5309.8550 6522.6743 -907.2892 O   0  0  0  0  0  0  0  0  0  0  0  0
 5309.6665 6523.3950 -908.4761 C   0  0  0  0  0  0  0  0  0  0  0  0
 5309.6597 6522.7339 -909.6815 C   0  0  0  0  0  0  0  0  0  0  0  0
 5309.4761 6523.4097 -910.8843 C   0  0  0  0  0  0  0  0  0  0  0  0
 5309.2930 6524.7749 -910.8581 C   0  0  0  0  0  0  0  0  0  0  0  0
 5309.1064 6525.5249 -912.1186 C   0  0  0  0  0  0  0  0  0  0  0  0
 5308.5298 6526.8901 -911.9565 C   0  0  2  0  0  0  0  0  0  0  0  0
 5307.5718 6527.1519 -912.9812 N   0  0  0  0  0  0  0  0  0  0  0  0
 5309.4814 6527.9473 -911.6404 C   0  0  0  0  0  0  0  0  0  0  0  0
 5310.3813 6528.2197 -912.4720 O   0  0  0  0  0  0  0  0  0  0  0  0
 5309.2939 6525.4746 -909.6407 C   0  0  0  0  0  0  0  0  0  0  0  0
 5309.4810 6524.7656 -908.4781 C   0  0  0  0  0  0  0  0  0  0  0  0
 5312.5918 6529.3271 -909.9772 C   0  0  0  0  0  0  0  0  0  0  0  0
 5311.5537 6529.7769 -910.9673 C   0  0  1  0  0  0  0  0  0  0  0  0
 5311.5020 6528.7500 -912.0677 C   0  0  0  0  0  0  0  0  0  0  0  0
 5310.2065 6529.9126 -910.3464 C   0  0  2  0  0  0  0  0  0  0  0  0
 5309.4478 6528.6826 -910.4343 N   0  0  0  0  0  0  0  0  0  0  0  0
 5309.4170 6531.0762 -910.8568 C   0  0  0  0  0  0  0  0  0  0  0  0
 5310.0630 6532.2163 -911.3411 O   0  0  0  0  0  0  0  0  0  0  0  0
 5308.1694 6531.1113 -910.8813 O   0  0  0  0  0  0  0  0  0  0  0  0
  2  1  1  6
  3  4  1  0
  3  2  1  0
  4  5  2  0
  6  5  1  0
  7  6  1  0
  8  7  2  0
  9  8  1  0
 10  9  2  0
 10 11  1  0
 11 12  2  0
 12  7  1  0
 12  4  1  0
 13 14  2  0
 13  2  1  0
 15 16  1  0
 16 17  2  0
 17 18  1  0
 19 20  1  0
 19 18  2  0
 21 20  1  6
 21 22  1  0
 22 13  1  0
 23 21  1  0
 24 23  2  0
 25 19  1  0
 26 25  2  0
 26 16  1  0
 28 27  1  1
 28 30  1  0
 28 29  1  0
 30 31  1  6
 31 23  1  0
 32 33  1  0
 32 30  1  0
 34 32  2  0
M  END
$$$$
