WYV.pdb
     RDKit          3D

 34 36  0  0  1  0  0  0  0  0999 V2000
    8.1807  -17.7310   20.3508 N   0  0  0  0  0  0  0  0  0  0  0  0
    8.4607  -16.6542   21.2872 C   0  0  1  0  0  0  0  0  0  0  0  0
    7.1410  -16.0151   21.7102 C   0  0  0  0  0  0  0  0  0  0  0  0
    7.2970  -14.6650   22.2510 C   0  0  0  0  0  0  0  0  0  0  0  0
    7.6987  -13.5147   21.5977 C   0  0  0  0  0  0  0  0  0  0  0  0
    7.7021  -12.5119   22.4814 N   0  0  0  0  0  0  0  0  0  0  0  0
    7.3222  -12.9347   23.6944 C   0  0  0  0  0  0  0  0  0  0  0  0
    7.1767  -12.2639   24.8983 C   0  0  0  0  0  0  0  0  0  0  0  0
    6.7566  -12.9850   26.0063 C   0  0  0  0  0  0  0  0  0  0  0  0
    6.4977  -14.3204   25.8955 C   0  0  0  0  0  0  0  0  0  0  0  0
    6.6459  -14.9839   24.6873 C   0  0  0  0  0  0  0  0  0  0  0  0
    7.0633  -14.2846   23.5709 C   0  0  0  0  0  0  0  0  0  0  0  0
    9.0016  -17.2644   22.5542 C   0  0  0  0  0  0  0  0  0  0  0  0
    8.2929  -18.0541   23.2347 O   0  0  0  0  0  0  0  0  0  0  0  0
   10.5399  -23.1899   21.3950 O   0  0  0  0  0  0  0  0  0  0  0  0
   10.9000  -22.0027   22.0470 C   0  0  0  0  0  0  0  0  0  0  0  0
   11.2536  -20.8981   21.3089 C   0  0  0  0  0  0  0  0  0  0  0  0
   11.6176  -19.6991   21.9154 C   0  0  0  0  0  0  0  0  0  0  0  0
   11.6209  -19.6250   23.2885 C   0  0  0  0  0  0  0  0  0  0  0  0
   12.0133  -18.3684   23.9632 C   0  0  0  0  0  0  0  0  0  0  0  0
   10.8890  -17.4274   24.2365 C   0  0  2  0  0  0  0  0  0  0  0  0
   10.3088  -16.9722   23.0121 N   0  0  0  0  0  0  0  0  0  0  0  0
   11.1286  -16.4312   25.2743 C   0  0  0  0  0  0  0  0  0  0  0  0
   12.0184  -15.5649   25.0899 O   0  0  0  0  0  0  0  0  0  0  0  0
   11.2646  -20.7366   24.0707 C   0  0  0  0  0  0  0  0  0  0  0  0
   10.9126  -21.8998   23.4273 C   0  0  0  0  0  0  0  0  0  0  0  0
    8.6813  -14.5497   27.6482 C   0  0  0  0  0  0  0  0  0  0  0  0
   10.1665  -14.3347   27.7611 C   0  0  1  0  0  0  0  0  0  0  0  0
   10.4377  -13.7683   29.1288 C   0  0  0  0  0  0  0  0  0  0  0  0
   10.9300  -15.5977   27.5820 C   0  0  2  0  0  0  0  0  0  0  0  0
   10.4074  -16.3934   26.4902 N   0  0  0  0  0  0  0  0  0  0  0  0
   11.0612  -16.4118   28.8331 C   0  0  0  0  0  0  0  0  0  0  0  0
   11.7683  -15.9201   29.9336 O   0  0  0  0  0  0  0  0  0  0  0  0
   10.5638  -17.5492   28.9741 O   0  0  0  0  0  0  0  0  0  0  0  0
  2  1  1  6
  3  4  1  0
  3  2  1  0
  4  5  2  0
  6  5  1  0
  7  6  1  0
  8  7  2  0
  9  8  1  0
 10  9  2  0
 10 11  1  0
 11 12  2  0
 12  7  1  0
 12  4  1  0
 13 14  2  0
 13  2  1  0
 15 16  1  0
 16 17  2  0
 17 18  1  0
 19 20  1  0
 19 18  2  0
 21 20  1  6
 21 22  1  0
 22 13  1  0
 23 21  1  0
 24 23  2  0
 25 19  1  0
 26 25  2  0
 26 16  1  0
 28 27  1  1
 28 30  1  0
 28 29  1  0
 30 31  1  6
 31 23  1  0
 32 33  1  0
 32 30  1  0
 34 32  2  0
M  END
$$$$
