WYV.pdb
     RDKit          3D

 34 36  0  0  1  0  0  0  0  0999 V2000
    6.6489  -17.9381   24.7675 N   0  0  0  0  0  0  0  0  0  0  0  0
    7.6388  -16.9333   24.4134 C   0  0  1  0  0  0  0  0  0  0  0  0
    7.7082  -15.8964   25.5310 C   0  0  0  0  0  0  0  0  0  0  0  0
    6.8672  -14.7245   25.2884 C   0  0  0  0  0  0  0  0  0  0  0  0
    5.7966  -14.2619   26.0309 C   0  0  0  0  0  0  0  0  0  0  0  0
    5.3221  -13.1615   25.4389 N   0  0  0  0  0  0  0  0  0  0  0  0
    6.0228  -12.8647   24.3365 C   0  0  0  0  0  0  0  0  0  0  0  0
    5.9000  -11.8339   23.4185 C   0  0  0  0  0  0  0  0  0  0  0  0
    6.7929  -11.7880   22.3579 C   0  0  0  0  0  0  0  0  0  0  0  0
    7.7613  -12.7419   22.2372 C   0  0  0  0  0  0  0  0  0  0  0  0
    7.8772  -13.7700   23.1600 C   0  0  0  0  0  0  0  0  0  0  0  0
    6.9981  -13.8346   24.2242 C   0  0  0  0  0  0  0  0  0  0  0  0
    8.9959  -17.5876   24.4280 C   0  0  0  0  0  0  0  0  0  0  0  0
    9.2100  -18.5956   25.1540 O   0  0  0  0  0  0  0  0  0  0  0  0
   17.7991  -17.8563   23.3630 O   0  0  0  0  0  0  0  0  0  0  0  0
   16.4287  -17.5957   23.2266 C   0  0  0  0  0  0  0  0  0  0  0  0
   16.0042  -16.3344   22.8815 C   0  0  0  0  0  0  0  0  0  0  0  0
   14.6533  -16.0320   22.7350 C   0  0  0  0  0  0  0  0  0  0  0  0
   13.7254  -17.0256   22.9418 C   0  0  0  0  0  0  0  0  0  0  0  0
   12.2818  -16.7334   22.8043 C   0  0  0  0  0  0  0  0  0  0  0  0
   11.4473  -17.1386   23.9720 C   0  0  2  0  0  0  0  0  0  0  0  0
   10.0592  -17.0947   23.6342 N   0  0  0  0  0  0  0  0  0  0  0  0
   11.8400  -16.5809   25.2611 C   0  0  0  0  0  0  0  0  0  0  0  0
   12.9350  -15.9736   25.3513 O   0  0  0  0  0  0  0  0  0  0  0  0
   14.1277  -18.3246   23.2954 C   0  0  0  0  0  0  0  0  0  0  0  0
   15.4729  -18.5762   23.4290 C   0  0  0  0  0  0  0  0  0  0  0  0
   11.0615  -13.8880   27.0979 C   0  0  0  0  0  0  0  0  0  0  0  0
   10.9654  -14.9706   28.1387 C   0  0  1  0  0  0  0  0  0  0  0  0
    9.5043  -15.2014   28.4160 C   0  0  0  0  0  0  0  0  0  0  0  0
   11.5955  -16.2390   27.6866 C   0  0  2  0  0  0  0  0  0  0  0  0
   11.0462  -16.6945   26.4260 N   0  0  0  0  0  0  0  0  0  0  0  0
   11.5734  -17.3292   28.7143 C   0  0  0  0  0  0  0  0  0  0  0  0
   12.2140  -17.1628   29.9451 O   0  0  0  0  0  0  0  0  0  0  0  0
   10.9996  -18.4263   28.5472 O   0  0  0  0  0  0  0  0  0  0  0  0
  2  1  1  1
  3  4  1  0
  3  2  1  0
  4  5  2  0
  6  5  1  0
  7  6  1  0
  8  7  2  0
  9  8  1  0
 10  9  2  0
 10 11  1  0
 11 12  2  0
 12  7  1  0
 12  4  1  0
 13 14  2  0
 13  2  1  0
 15 16  1  0
 16 17  2  0
 17 18  1  0
 19 20  1  0
 19 18  2  0
 21 20  1  6
 21 22  1  0
 22 13  1  0
 23 21  1  0
 24 23  2  0
 25 19  1  0
 26 25  2  0
 26 16  1  0
 28 27  1  6
 28 30  1  0
 28 29  1  0
 30 31  1  6
 31 23  1  0
 32 33  1  0
 32 30  1  0
 34 32  2  0
M  END
$$$$
