WYV.pdb
     RDKit          3D

 34 36  0  0  1  0  0  0  0  0999 V2000
    6.7404  -19.8517   25.5776 N   0  0  0  0  0  0  0  0  0  0  0  0
    6.5770  -18.4106   25.4711 C   0  0  1  0  0  0  0  0  0  0  0  0
    7.3924  -17.7406   26.5735 C   0  0  0  0  0  0  0  0  0  0  0  0
    7.0727  -16.3246   26.7529 C   0  0  0  0  0  0  0  0  0  0  0  0
    5.9161  -15.6505   26.4076 C   0  0  0  0  0  0  0  0  0  0  0  0
    6.0615  -14.3674   26.7527 N   0  0  0  0  0  0  0  0  0  0  0  0
    7.2589  -14.1497   27.3124 C   0  0  0  0  0  0  0  0  0  0  0  0
    7.8425  -12.9986   27.8172 C   0  0  0  0  0  0  0  0  0  0  0  0
    9.1220  -13.0873   28.3458 C   0  0  0  0  0  0  0  0  0  0  0  0
    9.7745  -14.2858   28.3602 C   0  0  0  0  0  0  0  0  0  0  0  0
    9.1835  -15.4327   27.8530 C   0  0  0  0  0  0  0  0  0  0  0  0
    7.9096  -15.3667   27.3217 C   0  0  0  0  0  0  0  0  0  0  0  0
    7.2353  -17.9579   24.1937 C   0  0  0  0  0  0  0  0  0  0  0  0
    8.2689  -18.5403   23.7679 O   0  0  0  0  0  0  0  0  0  0  0  0
    8.2052  -13.1650   16.7435 O   0  0  0  0  0  0  0  0  0  0  0  0
    7.7742  -13.6652   17.9798 C   0  0  0  0  0  0  0  0  0  0  0  0
    7.3654  -14.9739   18.0822 C   0  0  0  0  0  0  0  0  0  0  0  0
    6.9303  -15.5117   19.2902 C   0  0  0  0  0  0  0  0  0  0  0  0
    6.9120  -14.7076   20.4056 C   0  0  0  0  0  0  0  0  0  0  0  0
    6.4449  -15.2464   21.7016 C   0  0  0  0  0  0  0  0  0  0  0  0
    7.3545  -16.2492   22.3268 C   0  0  2  0  0  0  0  0  0  0  0  0
    6.7168  -16.8765   23.4417 N   0  0  0  0  0  0  0  0  0  0  0  0
    8.7421  -15.8338   22.4965 C   0  0  0  0  0  0  0  0  0  0  0  0
    9.4216  -15.5574   21.4777 O   0  0  0  0  0  0  0  0  0  0  0  0
    7.3236  -13.3660   20.3331 C   0  0  0  0  0  0  0  0  0  0  0  0
    7.7450  -12.8787   19.1184 C   0  0  0  0  0  0  0  0  0  0  0  0
   12.3041  -13.7542   25.0609 C   0  0  0  0  0  0  0  0  0  0  0  0
   10.8855  -14.2417   24.9413 C   0  0  1  0  0  0  0  0  0  0  0  0
   10.0132  -13.0384   24.7044 C   0  0  0  0  0  0  0  0  0  0  0  0
   10.7184  -15.2087   23.8244 C   0  0  2  0  0  0  0  0  0  0  0  0
    9.3684  -15.7301   23.7602 N   0  0  0  0  0  0  0  0  0  0  0  0
   11.7287  -16.3152   23.8215 C   0  0  0  0  0  0  0  0  0  0  0  0
   13.0796  -16.0473   23.5845 O   0  0  0  0  0  0  0  0  0  0  0  0
   11.4425  -17.5143   24.0239 O   0  0  0  0  0  0  0  0  0  0  0  0
  2  1  1  1
  3  4  1  0
  3  2  1  0
  4  5  2  0
  6  5  1  0
  7  6  1  0
  8  7  2  0
  9  8  1  0
 10  9  2  0
 10 11  1  0
 11 12  2  0
 12  7  1  0
 12  4  1  0
 13 14  2  0
 13  2  1  0
 15 16  1  0
 16 17  2  0
 17 18  1  0
 19 20  1  0
 19 18  2  0
 21 20  1  1
 21 22  1  0
 22 13  1  0
 23 21  1  0
 24 23  2  0
 25 19  1  0
 26 25  2  0
 26 16  1  0
 28 27  1  6
 28 30  1  0
 28 29  1  0
 30 31  1  1
 31 23  1  0
 32 33  1  0
 32 30  1  0
 34 32  2  0
M  END
$$$$
