WYV.pdb
     RDKit          3D

 34 36  0  0  1  0  0  0  0  0999 V2000
    5.8536  -17.7177   24.1059 N   0  0  0  0  0  0  0  0  0  0  0  0
    6.5848  -16.4608   24.1255 C   0  0  1  0  0  0  0  0  0  0  0  0
    6.7176  -15.9919   25.5717 C   0  0  0  0  0  0  0  0  0  0  0  0
    5.9678  -14.7688   25.8564 C   0  0  0  0  0  0  0  0  0  0  0  0
    4.6368  -14.6340   26.2052 C   0  0  0  0  0  0  0  0  0  0  0  0
    4.3772  -13.3329   26.3675 N   0  0  0  0  0  0  0  0  0  0  0  0
    5.4694  -12.5901   26.1446 C   0  0  0  0  0  0  0  0  0  0  0  0
    5.6763  -11.2208   26.1947 C   0  0  0  0  0  0  0  0  0  0  0  0
    6.9445  -10.7364   25.9093 C   0  0  0  0  0  0  0  0  0  0  0  0
    7.9508  -11.6008   25.5892 C   0  0  0  0  0  0  0  0  0  0  0  0
    7.7353  -12.9695   25.5412 C   0  0  0  0  0  0  0  0  0  0  0  0
    6.4796  -13.4733   25.8220 C   0  0  0  0  0  0  0  0  0  0  0  0
    8.0012  -16.7365   23.6921 C   0  0  0  0  0  0  0  0  0  0  0  0
    8.4656  -17.9075   23.7375 O   0  0  0  0  0  0  0  0  0  0  0  0
    7.3622  -13.9686   17.6022 O   0  0  0  0  0  0  0  0  0  0  0  0
    8.1909  -14.1430   18.7190 C   0  0  0  0  0  0  0  0  0  0  0  0
    8.9989  -15.2520   18.8036 C   0  0  0  0  0  0  0  0  0  0  0  0
    9.8375  -15.4644   19.8943 C   0  0  0  0  0  0  0  0  0  0  0  0
    9.8530  -14.5365   20.9091 C   0  0  0  0  0  0  0  0  0  0  0  0
   10.7252  -14.7389   22.0867 C   0  0  0  0  0  0  0  0  0  0  0  0
   10.2576  -15.7871   23.0389 C   0  0  2  0  0  0  0  0  0  0  0  0
    8.8432  -15.6988   23.2250 N   0  0  0  0  0  0  0  0  0  0  0  0
   11.0782  -15.9798   24.2291 C   0  0  0  0  0  0  0  0  0  0  0  0
   12.2969  -16.2466   24.0891 O   0  0  0  0  0  0  0  0  0  0  0  0
    9.0388  -13.3928   20.8519 C   0  0  0  0  0  0  0  0  0  0  0  0
    8.2265  -13.2257   19.7550 C   0  0  0  0  0  0  0  0  0  0  0  0
   10.9205  -13.7253   27.3639 C   0  0  0  0  0  0  0  0  0  0  0  0
   11.1179  -15.1533   27.7957 C   0  0  1  0  0  0  0  0  0  0  0  0
    9.8260  -15.6219   28.4091 C   0  0  0  0  0  0  0  0  0  0  0  0
   11.4809  -16.0373   26.6569 C   0  0  2  0  0  0  0  0  0  0  0  0
   10.5661  -15.8858   25.5440 N   0  0  0  0  0  0  0  0  0  0  0  0
   11.6442  -17.4784   27.0335 C   0  0  0  0  0  0  0  0  0  0  0  0
   12.5555  -17.8587   28.0223 O   0  0  0  0  0  0  0  0  0  0  0  0
   10.9982  -18.4089   26.5065 O   0  0  0  0  0  0  0  0  0  0  0  0
  2  1  1  1
  3  4  1  0
  3  2  1  0
  4  5  2  0
  6  5  1  0
  7  6  1  0
  8  7  2  0
  9  8  1  0
 10  9  2  0
 10 11  1  0
 11 12  2  0
 12  7  1  0
 12  4  1  0
 13 14  2  0
 13  2  1  0
 15 16  1  0
 16 17  2  0
 17 18  1  0
 19 20  1  0
 19 18  2  0
 21 20  1  1
 21 22  1  0
 22 13  1  0
 23 21  1  0
 24 23  2  0
 25 19  1  0
 26 25  2  0
 26 16  1  0
 28 27  1  6
 28 30  1  0
 28 29  1  0
 30 31  1  6
 31 23  1  0
 32 33  1  0
 32 30  1  0
 34 32  2  0
M  END
$$$$
