WYV.pdb
     RDKit          3D

 34 36  0  0  1  0  0  0  0  0999 V2000
    6.6956  -17.2908   25.4106 N   0  0  0  0  0  0  0  0  0  0  0  0
    7.2246  -16.6244   24.2312 C   0  0  1  0  0  0  0  0  0  0  0  0
    7.7614  -15.2554   24.6393 C   0  0  0  0  0  0  0  0  0  0  0  0
    6.7696  -14.4220   25.3184 C   0  0  0  0  0  0  0  0  0  0  0  0
    5.4921  -14.7592   25.7254 C   0  0  0  0  0  0  0  0  0  0  0  0
    4.9403  -13.6865   26.3011 N   0  0  0  0  0  0  0  0  0  0  0  0
    5.7859  -12.6477   26.2994 C   0  0  0  0  0  0  0  0  0  0  0  0
    5.6546  -11.3541   26.7787 C   0  0  0  0  0  0  0  0  0  0  0  0
    6.7264  -10.4860   26.6310 C   0  0  0  0  0  0  0  0  0  0  0  0
    7.8734  -10.9119   26.0265 C   0  0  0  0  0  0  0  0  0  0  0  0
    7.9966  -12.2078   25.5496 C   0  0  0  0  0  0  0  0  0  0  0  0
    6.9410  -13.0890   25.6864 C   0  0  0  0  0  0  0  0  0  0  0  0
    8.4445  -17.3811   23.7736 C   0  0  0  0  0  0  0  0  0  0  0  0
    8.9869  -18.2328   24.5282 O   0  0  0  0  0  0  0  0  0  0  0  0
   14.7932  -20.1180   18.1661 O   0  0  0  0  0  0  0  0  0  0  0  0
   13.6858  -19.4762   18.7373 C   0  0  0  0  0  0  0  0  0  0  0  0
   13.5230  -19.4802   20.1024 C   0  0  0  0  0  0  0  0  0  0  0  0
   12.4385  -18.8550   20.7115 C   0  0  0  0  0  0  0  0  0  0  0  0
   11.5105  -18.2186   19.9209 C   0  0  0  0  0  0  0  0  0  0  0  0
   10.3412  -17.5542   20.5371 C   0  0  0  0  0  0  0  0  0  0  0  0
   10.2397  -17.7118   22.0166 C   0  0  2  0  0  0  0  0  0  0  0  0
    9.0109  -17.1605   22.4952 N   0  0  0  0  0  0  0  0  0  0  0  0
   11.4484  -17.4105   22.7749 C   0  0  0  0  0  0  0  0  0  0  0  0
   12.0774  -16.3545   22.5195 O   0  0  0  0  0  0  0  0  0  0  0  0
   11.6490  -18.1970   18.5228 C   0  0  0  0  0  0  0  0  0  0  0  0
   12.7363  -18.8284   17.9661 C   0  0  0  0  0  0  0  0  0  0  0  0
   13.5254  -17.6115   27.1397 C   0  0  0  0  0  0  0  0  0  0  0  0
   12.4287  -17.8648   26.1409 C   0  0  1  0  0  0  0  0  0  0  0  0
   11.3288  -16.8755   26.4178 C   0  0  0  0  0  0  0  0  0  0  0  0
   12.9008  -17.7092   24.7399 C   0  0  2  0  0  0  0  0  0  0  0  0
   11.9555  -18.2564   23.7884 N   0  0  0  0  0  0  0  0  0  0  0  0
   14.2814  -18.2403   24.5006 C   0  0  0  0  0  0  0  0  0  0  0  0
   15.4020  -17.5562   24.9791 O   0  0  0  0  0  0  0  0  0  0  0  0
   14.5180  -19.2968   23.8772 O   0  0  0  0  0  0  0  0  0  0  0  0
  2  1  1  1
  3  4  1  0
  3  2  1  0
  4  5  2  0
  6  5  1  0
  7  6  1  0
  8  7  2  0
  9  8  1  0
 10  9  2  0
 10 11  1  0
 11 12  2  0
 12  7  1  0
 12  4  1  0
 13 14  2  0
 13  2  1  0
 15 16  1  0
 16 17  2  0
 17 18  1  0
 19 20  1  0
 19 18  2  0
 21 20  1  6
 21 22  1  0
 22 13  1  0
 23 21  1  0
 24 23  2  0
 25 19  1  0
 26 25  2  0
 26 16  1  0
 28 27  1  1
 28 30  1  0
 28 29  1  0
 30 31  1  6
 31 23  1  0
 32 33  1  0
 32 30  1  0
 34 32  2  0
M  END
$$$$
