WYV.pdb
     RDKit          3D

 34 36  0  0  1  0  0  0  0  0999 V2000
    5.8117  -16.8607   24.1418 N   0  0  0  0  0  0  0  0  0  0  0  0
    7.0597  -16.1272   24.0025 C   0  0  1  0  0  0  0  0  0  0  0  0
    7.4129  -15.4979   25.3472 C   0  0  0  0  0  0  0  0  0  0  0  0
    6.4047  -14.5542   25.8290 C   0  0  0  0  0  0  0  0  0  0  0  0
    5.2511  -14.8146   26.5452 C   0  0  0  0  0  0  0  0  0  0  0  0
    4.6270  -13.6539   26.7683 N   0  0  0  0  0  0  0  0  0  0  0  0
    5.3063  -12.6292   26.2365 C   0  0  0  0  0  0  0  0  0  0  0  0
    5.0507  -11.2673   26.2176 C   0  0  0  0  0  0  0  0  0  0  0  0
    5.9583  -10.4367   25.5767 C   0  0  0  0  0  0  0  0  0  0  0  0
    7.0692  -10.9644   24.9853 C   0  0  0  0  0  0  0  0  0  0  0  0
    7.3174  -12.3281   25.0088 C   0  0  0  0  0  0  0  0  0  0  0  0
    6.4263  -13.1736   25.6417 C   0  0  0  0  0  0  0  0  0  0  0  0
    8.1631  -17.1232   23.7564 C   0  0  0  0  0  0  0  0  0  0  0  0
    8.1468  -18.2470   24.3273 O   0  0  0  0  0  0  0  0  0  0  0  0
    7.3865  -13.7029   17.7089 O   0  0  0  0  0  0  0  0  0  0  0  0
    7.9589  -13.8963   18.9735 C   0  0  0  0  0  0  0  0  0  0  0  0
    7.1777  -13.7924   20.1000 C   0  0  0  0  0  0  0  0  0  0  0  0
    7.7049  -13.9771   21.3752 C   0  0  0  0  0  0  0  0  0  0  0  0
    9.0421  -14.2713   21.5034 C   0  0  0  0  0  0  0  0  0  0  0  0
    9.6347  -14.4626   22.8453 C   0  0  0  0  0  0  0  0  0  0  0  0
   10.2236  -15.8120   23.0826 C   0  0  2  0  0  0  0  0  0  0  0  0
    9.2392  -16.8292   22.8850 N   0  0  0  0  0  0  0  0  0  0  0  0
   11.0872  -15.9348   24.2514 C   0  0  0  0  0  0  0  0  0  0  0  0
   12.1471  -15.2635   24.2959 O   0  0  0  0  0  0  0  0  0  0  0  0
    9.8666  -14.3841   20.3712 C   0  0  0  0  0  0  0  0  0  0  0  0
    9.3016  -14.1929   19.1323 C   0  0  0  0  0  0  0  0  0  0  0  0
   11.9103  -15.9927   28.8466 C   0  0  0  0  0  0  0  0  0  0  0  0
   11.1805  -15.8177   27.5423 C   0  0  1  0  0  0  0  0  0  0  0  0
   11.3990  -14.3991   27.0897 C   0  0  0  0  0  0  0  0  0  0  0  0
   11.6678  -16.7568   26.4979 C   0  0  2  0  0  0  0  0  0  0  0  0
   10.7919  -16.7821   25.3445 N   0  0  0  0  0  0  0  0  0  0  0  0
   11.9400  -18.1408   27.0036 C   0  0  0  0  0  0  0  0  0  0  0  0
   12.8036  -18.3494   28.0824 O   0  0  0  0  0  0  0  0  0  0  0  0
   11.4306  -19.1701   26.5118 O   0  0  0  0  0  0  0  0  0  0  0  0
  2  1  1  1
  3  4  1  0
  3  2  1  0
  4  5  2  0
  6  5  1  0
  7  6  1  0
  8  7  2  0
  9  8  1  0
 10  9  2  0
 10 11  1  0
 11 12  2  0
 12  7  1  0
 12  4  1  0
 13 14  2  0
 13  2  1  0
 15 16  1  0
 16 17  2  0
 17 18  1  0
 19 20  1  0
 19 18  2  0
 21 20  1  1
 21 22  1  0
 22 13  1  0
 23 21  1  0
 24 23  2  0
 25 19  1  0
 26 25  2  0
 26 16  1  0
 28 27  1  1
 28 30  1  0
 28 29  1  0
 30 31  1  6
 31 23  1  0
 32 33  1  0
 32 30  1  0
 34 32  2  0
M  END
$$$$
