WYV.pdb
     RDKit          3D

 34 36  0  0  1  0  0  0  0  0999 V2000
    5.8457  -17.8336   23.9285 N   0  0  0  0  0  0  0  0  0  0  0  0
    6.5566  -16.5651   23.9428 C   0  0  1  0  0  0  0  0  0  0  0  0
    6.9704  -16.2495   25.3774 C   0  0  0  0  0  0  0  0  0  0  0  0
    6.4180  -14.9909   25.8773 C   0  0  0  0  0  0  0  0  0  0  0  0
    5.0920  -14.6290   26.0261 C   0  0  0  0  0  0  0  0  0  0  0  0
    5.0506  -13.3853   26.5139 N   0  0  0  0  0  0  0  0  0  0  0  0
    6.2841  -12.8969   26.6991 C   0  0  0  0  0  0  0  0  0  0  0  0
    6.7267  -11.6741   27.1778 C   0  0  0  0  0  0  0  0  0  0  0  0
    8.0942  -11.4553   27.2582 C   0  0  0  0  0  0  0  0  0  0  0  0
    8.9669  -12.4305   26.8713 C   0  0  0  0  0  0  0  0  0  0  0  0
    8.5157  -13.6512   26.3934 C   0  0  0  0  0  0  0  0  0  0  0  0
    7.1575  -13.8900   26.3051 C   0  0  0  0  0  0  0  0  0  0  0  0
    7.8608  -16.7511   23.2116 C   0  0  0  0  0  0  0  0  0  0  0  0
    8.3628  -17.9005   23.0855 O   0  0  0  0  0  0  0  0  0  0  0  0
    6.6716  -14.1707   16.7984 O   0  0  0  0  0  0  0  0  0  0  0  0
    7.5215  -14.2370   17.9109 C   0  0  0  0  0  0  0  0  0  0  0  0
    8.5484  -15.1509   17.9326 C   0  0  0  0  0  0  0  0  0  0  0  0
    9.4160  -15.2504   19.0167 C   0  0  0  0  0  0  0  0  0  0  0  0
    9.2355  -14.4094   20.0896 C   0  0  0  0  0  0  0  0  0  0  0  0
   10.1341  -14.4977   21.2614 C   0  0  0  0  0  0  0  0  0  0  0  0
    9.8915  -15.6714   22.1489 C   0  0  2  0  0  0  0  0  0  0  0  0
    8.5530  -15.6515   22.6498 N   0  0  0  0  0  0  0  0  0  0  0  0
   10.9555  -15.9864   23.0954 C   0  0  0  0  0  0  0  0  0  0  0  0
   10.6906  -16.0033   24.3224 O   0  0  0  0  0  0  0  0  0  0  0  0
    8.1953  -13.4648   20.0974 C   0  0  0  0  0  0  0  0  0  0  0  0
    7.3630  -13.4034   19.0045 C   0  0  0  0  0  0  0  0  0  0  0  0
   11.3347  -17.5720   25.0690 C   0  0  0  0  0  0  0  0  0  0  0  0
   12.6907  -17.8674   24.4871 C   0  0  1  0  0  0  0  0  0  0  0  0
   12.5462  -19.0702   23.5941 C   0  0  0  0  0  0  0  0  0  0  0  0
   13.2245  -16.7229   23.7027 C   0  0  2  0  0  0  0  0  0  0  0  0
   12.2827  -16.2713   22.6989 N   0  0  0  0  0  0  0  0  0  0  0  0
   14.5762  -16.9721   23.1061 C   0  0  0  0  0  0  0  0  0  0  0  0
   14.7550  -16.9756   21.7202 O   0  0  0  0  0  0  0  0  0  0  0  0
   15.6031  -17.1870   23.7845 O   0  0  0  0  0  0  0  0  0  0  0  0
  2  1  1  1
  3  4  1  0
  3  2  1  0
  4  5  2  0
  6  5  1  0
  7  6  1  0
  8  7  2  0
  9  8  1  0
 10  9  2  0
 10 11  1  0
 11 12  2  0
 12  7  1  0
 12  4  1  0
 13 14  2  0
 13  2  1  0
 15 16  1  0
 16 17  2  0
 17 18  1  0
 19 20  1  0
 19 18  2  0
 21 20  1  1
 21 22  1  0
 22 13  1  0
 23 21  1  0
 24 23  2  0
 25 19  1  0
 26 25  2  0
 26 16  1  0
 28 27  1  6
 28 30  1  0
 28 29  1  0
 30 31  1  6
 31 23  1  0
 32 33  1  0
 32 30  1  0
 34 32  2  0
M  END
$$$$
