WYV.pdb
     RDKit          3D

 34 36  0  0  1  0  0  0  0  0999 V2000
    7.6539  -17.2808   22.8577 N   0  0  0  0  0  0  0  0  0  0  0  0
    8.5311  -16.2149   22.4005 C   0  0  1  0  0  0  0  0  0  0  0  0
    7.8228  -14.8774   22.5962 C   0  0  0  0  0  0  0  0  0  0  0  0
    7.1679  -14.7524   23.8980 C   0  0  0  0  0  0  0  0  0  0  0  0
    6.6499  -15.7500   24.7029 C   0  0  0  0  0  0  0  0  0  0  0  0
    6.1425  -15.1801   25.8003 N   0  0  0  0  0  0  0  0  0  0  0  0
    6.2957  -13.8497   25.7695 C   0  0  0  0  0  0  0  0  0  0  0  0
    5.9341  -12.8613   26.6710 C   0  0  0  0  0  0  0  0  0  0  0  0
    6.2336  -11.5436   26.3572 C   0  0  0  0  0  0  0  0  0  0  0  0
    6.8683  -11.2465   25.1862 C   0  0  0  0  0  0  0  0  0  0  0  0
    7.2264  -12.2415   24.2897 C   0  0  0  0  0  0  0  0  0  0  0  0
    6.9377  -13.5607   24.5826 C   0  0  0  0  0  0  0  0  0  0  0  0
    9.7135  -16.1497   23.3321 C   0  0  0  0  0  0  0  0  0  0  0  0
    9.9069  -15.1293   24.0465 O   0  0  0  0  0  0  0  0  0  0  0  0
   13.6710  -19.2766   18.1013 O   0  0  0  0  0  0  0  0  0  0  0  0
   13.4771  -18.5890   19.3072 C   0  0  0  0  0  0  0  0  0  0  0  0
   12.6228  -17.5128   19.3501 C   0  0  0  0  0  0  0  0  0  0  0  0
   12.4007  -16.8018   20.5262 C   0  0  0  0  0  0  0  0  0  0  0  0
   13.0556  -17.1923   21.6706 C   0  0  0  0  0  0  0  0  0  0  0  0
   12.8491  -16.4507   22.9338 C   0  0  0  0  0  0  0  0  0  0  0  0
   11.9707  -17.1359   23.9252 C   0  0  2  0  0  0  0  0  0  0  0  0
   10.6319  -17.2222   23.4319 N   0  0  0  0  0  0  0  0  0  0  0  0
   12.1464  -16.7365   25.3168 C   0  0  0  0  0  0  0  0  0  0  0  0
   13.3095  -16.6531   25.7819 O   0  0  0  0  0  0  0  0  0  0  0  0
   13.9350  -18.2881   21.6589 C   0  0  0  0  0  0  0  0  0  0  0  0
   14.1233  -18.9596   20.4738 C   0  0  0  0  0  0  0  0  0  0  0  0
    9.3420  -14.5947   27.6834 C   0  0  0  0  0  0  0  0  0  0  0  0
   10.8360  -14.6823   27.8416 C   0  0  1  0  0  0  0  0  0  0  0  0
   11.1609  -14.3201   29.2657 C   0  0  0  0  0  0  0  0  0  0  0  0
   11.3516  -16.0439   27.5413 C   0  0  2  0  0  0  0  0  0  0  0  0
   11.0644  -16.4407   26.1781 N   0  0  0  0  0  0  0  0  0  0  0  0
   10.9079  -17.0912   28.5168 C   0  0  0  0  0  0  0  0  0  0  0  0
   11.3537  -17.0677   29.8410 O   0  0  0  0  0  0  0  0  0  0  0  0
   10.1342  -18.0272   28.2231 O   0  0  0  0  0  0  0  0  0  0  0  0
  2  1  1  1
  3  4  1  0
  3  2  1  0
  4  5  2  0
  6  5  1  0
  7  6  1  0
  8  7  2  0
  9  8  1  0
 10  9  2  0
 10 11  1  0
 11 12  2  0
 12  7  1  0
 12  4  1  0
 13 14  2  0
 13  2  1  0
 15 16  1  0
 16 17  2  0
 17 18  1  0
 19 20  1  0
 19 18  2  0
 21 20  1  6
 21 22  1  0
 22 13  1  0
 23 21  1  0
 24 23  2  0
 25 19  1  0
 26 25  2  0
 26 16  1  0
 28 27  1  1
 28 30  1  0
 28 29  1  0
 30 31  1  6
 31 23  1  0
 32 33  1  0
 32 30  1  0
 34 32  2  0
M  END
$$$$
