WYV.pdb
     RDKit          3D

 34 36  0  0  1  0  0  0  0  0999 V2000
    6.0118  -18.2550   24.0999 N   0  0  0  0  0  0  0  0  0  0  0  0
    6.5241  -16.8968   24.1872 C   0  0  1  0  0  0  0  0  0  0  0  0
    6.5447  -16.4724   25.6529 C   0  0  0  0  0  0  0  0  0  0  0  0
    5.9848  -15.1404   25.8794 C   0  0  0  0  0  0  0  0  0  0  0  0
    4.6567  -14.7599   25.9320 C   0  0  0  0  0  0  0  0  0  0  0  0
    4.6078  -13.4434   26.1574 N   0  0  0  0  0  0  0  0  0  0  0  0
    5.8383  -12.9238   26.2585 C   0  0  0  0  0  0  0  0  0  0  0  0
    6.2737  -11.6281   26.4864 C   0  0  0  0  0  0  0  0  0  0  0  0
    7.6398  -11.3934   26.5414 C   0  0  0  0  0  0  0  0  0  0  0  0
    8.5182  -12.4241   26.3730 C   0  0  0  0  0  0  0  0  0  0  0  0
    8.0743  -13.7175   26.1452 C   0  0  0  0  0  0  0  0  0  0  0  0
    6.7177  -13.9735   26.0867 C   0  0  0  0  0  0  0  0  0  0  0  0
    7.9761  -16.9174   23.7853 C   0  0  0  0  0  0  0  0  0  0  0  0
    8.6303  -17.9945   23.8136 O   0  0  0  0  0  0  0  0  0  0  0  0
    7.3005  -14.3755   17.4559 O   0  0  0  0  0  0  0  0  0  0  0  0
    8.0535  -14.4112   18.6375 C   0  0  0  0  0  0  0  0  0  0  0  0
    8.0003  -13.3531   19.5137 C   0  0  0  0  0  0  0  0  0  0  0  0
    8.7313  -13.3472   20.6984 C   0  0  0  0  0  0  0  0  0  0  0  0
    9.5243  -14.4312   20.9935 C   0  0  0  0  0  0  0  0  0  0  0  0
   10.3215  -14.4504   22.2394 C   0  0  0  0  0  0  0  0  0  0  0  0
   10.0458  -15.6060   23.1409 C   0  0  2  0  0  0  0  0  0  0  0  0
    8.6409  -15.7397   23.3674 N   0  0  0  0  0  0  0  0  0  0  0  0
   10.9253  -15.7376   24.2968 C   0  0  0  0  0  0  0  0  0  0  0  0
   12.1643  -15.8161   24.1107 O   0  0  0  0  0  0  0  0  0  0  0  0
    9.5998  -15.5279   20.1183 C   0  0  0  0  0  0  0  0  0  0  0  0
    8.8603  -15.4888   18.9597 C   0  0  0  0  0  0  0  0  0  0  0  0
   11.0512  -13.5528   27.2547 C   0  0  0  0  0  0  0  0  0  0  0  0
   11.1934  -14.9531   27.7873 C   0  0  1  0  0  0  0  0  0  0  0  0
    9.9279  -15.2834   28.5318 C   0  0  0  0  0  0  0  0  0  0  0  0
   11.4089  -15.9456   26.7015 C   0  0  2  0  0  0  0  0  0  0  0  0
   10.4497  -15.7867   25.6278 N   0  0  0  0  0  0  0  0  0  0  0  0
   11.4616  -17.3655   27.1771 C   0  0  0  0  0  0  0  0  0  0  0  0
   10.6574  -18.3454   26.5889 O   0  0  0  0  0  0  0  0  0  0  0  0
   12.2037  -17.7585   28.1020 O   0  0  0  0  0  0  0  0  0  0  0  0
  2  1  1  1
  3  4  1  0
  3  2  1  0
  4  5  2  0
  6  5  1  0
  7  6  1  0
  8  7  2  0
  9  8  1  0
 10  9  2  0
 10 11  1  0
 11 12  2  0
 12  7  1  0
 12  4  1  0
 13 14  2  0
 13  2  1  0
 15 16  1  0
 16 17  2  0
 17 18  1  0
 19 20  1  0
 19 18  2  0
 21 20  1  1
 21 22  1  0
 22 13  1  0
 23 21  1  0
 24 23  2  0
 25 19  1  0
 26 25  2  0
 26 16  1  0
 28 27  1  6
 28 30  1  0
 28 29  1  0
 30 31  1  6
 31 23  1  0
 32 33  1  0
 32 30  1  0
 34 32  2  0
M  END
$$$$
