WYV.pdb
     RDKit          3D

 34 36  0  0  1  0  0  0  0  0999 V2000
    7.0722  -19.1402   26.1024 N   0  0  0  0  0  0  0  0  0  0  0  0
    6.9451  -17.8681   25.4092 C   0  0  1  0  0  0  0  0  0  0  0  0
    7.7524  -16.8149   26.1626 C   0  0  0  0  0  0  0  0  0  0  0  0
    6.9890  -15.6041   26.4637 C   0  0  0  0  0  0  0  0  0  0  0  0
    5.6207  -15.4573   26.5965 C   0  0  0  0  0  0  0  0  0  0  0  0
    5.3628  -14.1747   26.8701 N   0  0  0  0  0  0  0  0  0  0  0  0
    6.4916  -13.4557   26.9273 C   0  0  0  0  0  0  0  0  0  0  0  0
    6.7138  -12.1111   27.1784 C   0  0  0  0  0  0  0  0  0  0  0  0
    8.0216  -11.6483   27.1726 C   0  0  0  0  0  0  0  0  0  0  0  0
    9.0508  -12.5094   26.9240 C   0  0  0  0  0  0  0  0  0  0  0  0
    8.8197  -13.8532   26.6737 C   0  0  0  0  0  0  0  0  0  0  0  0
    7.5247  -14.3352   26.6747 C   0  0  0  0  0  0  0  0  0  0  0  0
    7.6411  -17.9888   24.0783 C   0  0  0  0  0  0  0  0  0  0  0  0
    8.7555  -18.5714   23.9920 O   0  0  0  0  0  0  0  0  0  0  0  0
    8.7543  -12.6188   17.0182 O   0  0  0  0  0  0  0  0  0  0  0  0
    8.2993  -13.3178   18.1446 C   0  0  0  0  0  0  0  0  0  0  0  0
    7.9440  -14.6410   18.0300 C   0  0  0  0  0  0  0  0  0  0  0  0
    7.4876  -15.3729   19.1227 C   0  0  0  0  0  0  0  0  0  0  0  0
    7.3927  -14.7499   20.3449 C   0  0  0  0  0  0  0  0  0  0  0  0
    6.9010  -15.4975   21.5229 C   0  0  0  0  0  0  0  0  0  0  0  0
    7.7458  -16.6590   21.9243 C   0  0  2  0  0  0  0  0  0  0  0  0
    7.0689  -17.4573   22.8977 N   0  0  0  0  0  0  0  0  0  0  0  0
    9.1563  -16.3714   22.1587 C   0  0  0  0  0  0  0  0  0  0  0  0
    9.8743  -16.0254   21.1888 O   0  0  0  0  0  0  0  0  0  0  0  0
    7.7483  -13.3988   20.4942 C   0  0  0  0  0  0  0  0  0  0  0  0
    8.1934  -12.7161   19.3867 C   0  0  0  0  0  0  0  0  0  0  0  0
   10.5478  -13.9536   24.1817 C   0  0  0  0  0  0  0  0  0  0  0  0
   11.5218  -15.0831   24.3815 C   0  0  1  0  0  0  0  0  0  0  0  0
   11.4708  -15.4712   25.8347 C   0  0  0  0  0  0  0  0  0  0  0  0
   11.1930  -16.2615   23.5368 C   0  0  2  0  0  0  0  0  0  0  0  0
    9.7630  -16.4679   23.4325 N   0  0  0  0  0  0  0  0  0  0  0  0
   11.8947  -17.5198   23.9486 C   0  0  0  0  0  0  0  0  0  0  0  0
   13.2827  -17.5429   24.1097 O   0  0  0  0  0  0  0  0  0  0  0  0
   11.3067  -18.5998   24.1689 O   0  0  0  0  0  0  0  0  0  0  0  0
  2  1  1  1
  3  4  1  0
  3  2  1  0
  4  5  2  0
  6  5  1  0
  7  6  1  0
  8  7  2  0
  9  8  1  0
 10  9  2  0
 10 11  1  0
 11 12  2  0
 12  7  1  0
 12  4  1  0
 13 14  2  0
 13  2  1  0
 15 16  1  0
 16 17  2  0
 17 18  1  0
 19 20  1  0
 19 18  2  0
 21 20  1  1
 21 22  1  0
 22 13  1  0
 23 21  1  0
 24 23  2  0
 25 19  1  0
 26 25  2  0
 26 16  1  0
 28 27  1  1
 28 30  1  0
 28 29  1  0
 30 31  1  1
 31 23  1  0
 32 33  1  0
 32 30  1  0
 34 32  2  0
M  END
$$$$
