WYV.pdb
     RDKit          3D

 34 36  0  0  1  0  0  0  0  0999 V2000
    5.7689  -17.9619   23.7919 N   0  0  0  0  0  0  0  0  0  0  0  0
    6.4246  -16.6916   24.0587 C   0  0  1  0  0  0  0  0  0  0  0  0
    6.4617  -16.4648   25.5674 C   0  0  0  0  0  0  0  0  0  0  0  0
    5.8992  -15.1776   25.9749 C   0  0  0  0  0  0  0  0  0  0  0  0
    4.5851  -14.8640   26.2684 C   0  0  0  0  0  0  0  0  0  0  0  0
    4.5268  -13.5683   26.5909 N   0  0  0  0  0  0  0  0  0  0  0  0
    5.7378  -12.9990   26.5278 C   0  0  0  0  0  0  0  0  0  0  0  0
    6.1579  -11.7014   26.7729 C   0  0  0  0  0  0  0  0  0  0  0  0
    7.5051  -11.4068   26.6223 C   0  0  0  0  0  0  0  0  0  0  0  0
    8.3802  -12.3824   26.2417 C   0  0  0  0  0  0  0  0  0  0  0  0
    7.9516  -13.6781   25.9983 C   0  0  0  0  0  0  0  0  0  0  0  0
    6.6139  -13.9932   26.1424 C   0  0  0  0  0  0  0  0  0  0  0  0
    7.8735  -16.8211   23.6662 C   0  0  0  0  0  0  0  0  0  0  0  0
    8.4606  -17.9333   23.7525 O   0  0  0  0  0  0  0  0  0  0  0  0
    7.4073  -14.4166   17.3449 O   0  0  0  0  0  0  0  0  0  0  0  0
    8.1512  -14.4326   18.5327 C   0  0  0  0  0  0  0  0  0  0  0  0
    8.8633  -15.5569   18.8777 C   0  0  0  0  0  0  0  0  0  0  0  0
    9.6156  -15.6158   20.0475 C   0  0  0  0  0  0  0  0  0  0  0  0
    9.6428  -14.5172   20.8741 C   0  0  0  0  0  0  0  0  0  0  0  0
   10.4242  -14.5522   22.1297 C   0  0  0  0  0  0  0  0  0  0  0  0
   10.0330  -15.6327   23.0802 C   0  0  2  0  0  0  0  0  0  0  0  0
    8.6101  -15.7089   23.1929 N   0  0  0  0  0  0  0  0  0  0  0  0
   10.8067  -15.7081   24.3142 C   0  0  0  0  0  0  0  0  0  0  0  0
   12.0485  -15.8782   24.2422 O   0  0  0  0  0  0  0  0  0  0  0  0
    8.9257  -13.3533   20.5492 C   0  0  0  0  0  0  0  0  0  0  0  0
    8.1964  -13.3417   19.3835 C   0  0  0  0  0  0  0  0  0  0  0  0
   10.2569  -13.3508   27.3502 C   0  0  0  0  0  0  0  0  0  0  0  0
   10.5770  -14.7363   27.8426 C   0  0  1  0  0  0  0  0  0  0  0  0
    9.3080  -15.3207   28.4022 C   0  0  0  0  0  0  0  0  0  0  0  0
   11.0943  -15.6103   26.7570 C   0  0  2  0  0  0  0  0  0  0  0  0
   10.2245  -15.6036   25.5987 N   0  0  0  0  0  0  0  0  0  0  0  0
   11.4021  -17.0092   27.1970 C   0  0  0  0  0  0  0  0  0  0  0  0
   12.2753  -17.2465   28.2619 O   0  0  0  0  0  0  0  0  0  0  0  0
   10.9154  -18.0267   26.6596 O   0  0  0  0  0  0  0  0  0  0  0  0
  2  1  1  1
  3  4  1  0
  3  2  1  0
  4  5  2  0
  6  5  1  0
  7  6  1  0
  8  7  2  0
  9  8  1  0
 10  9  2  0
 10 11  1  0
 11 12  2  0
 12  7  1  0
 12  4  1  0
 13 14  2  0
 13  2  1  0
 15 16  1  0
 16 17  2  0
 17 18  1  0
 19 20  1  0
 19 18  2  0
 21 20  1  1
 21 22  1  0
 22 13  1  0
 23 21  1  0
 24 23  2  0
 25 19  1  0
 26 25  2  0
 26 16  1  0
 28 27  1  6
 28 30  1  0
 28 29  1  0
 30 31  1  6
 31 23  1  0
 32 33  1  0
 32 30  1  0
 34 32  2  0
M  END
$$$$
