WYV.pdb
     RDKit          3D

 34 36  0  0  1  0  0  0  0  0999 V2000
    5.6340  -19.0748   21.1695 N   0  0  0  0  0  0  0  0  0  0  0  0
    6.4155  -17.9133   21.5632 C   0  0  1  0  0  0  0  0  0  0  0  0
    5.6575  -16.6514   21.1608 C   0  0  0  0  0  0  0  0  0  0  0  0
    6.3779  -15.8257   20.1920 C   0  0  0  0  0  0  0  0  0  0  0  0
    6.6390  -16.0877   18.8598 C   0  0  0  0  0  0  0  0  0  0  0  0
    7.3300  -15.0588   18.3593 N   0  0  0  0  0  0  0  0  0  0  0  0
    7.5441  -14.1208   19.2912 C   0  0  0  0  0  0  0  0  0  0  0  0
    8.2004  -12.9015   19.2351 C   0  0  0  0  0  0  0  0  0  0  0  0
    8.2582  -12.1320   20.3878 C   0  0  0  0  0  0  0  0  0  0  0  0
    7.6780  -12.5799   21.5390 C   0  0  0  0  0  0  0  0  0  0  0  0
    7.0233  -13.8010   21.5867 C   0  0  0  0  0  0  0  0  0  0  0  0
    6.9540  -14.5834   20.4498 C   0  0  0  0  0  0  0  0  0  0  0  0
    6.4514  -17.8617   23.0686 C   0  0  0  0  0  0  0  0  0  0  0  0
    5.3952  -17.6553   23.7250 O   0  0  0  0  0  0  0  0  0  0  0  0
    4.8589  -23.5195   25.5843 O   0  0  0  0  0  0  0  0  0  0  0  0
    5.7372  -22.4281   25.6292 C   0  0  0  0  0  0  0  0  0  0  0  0
    5.6778  -21.5464   26.6823 C   0  0  0  0  0  0  0  0  0  0  0  0
    6.5311  -20.4497   26.7669 C   0  0  0  0  0  0  0  0  0  0  0  0
    7.4548  -20.2499   25.7679 C   0  0  0  0  0  0  0  0  0  0  0  0
    8.3685  -19.0878   25.8234 C   0  0  0  0  0  0  0  0  0  0  0  0
    7.8413  -17.8464   25.1868 C   0  0  2  0  0  0  0  0  0  0  0  0
    7.6602  -18.0425   23.7826 N   0  0  0  0  0  0  0  0  0  0  0  0
    8.4620  -16.5975   25.6134 C   0  0  0  0  0  0  0  0  0  0  0  0
    9.5932  -16.2964   25.1601 O   0  0  0  0  0  0  0  0  0  0  0  0
    7.5401  -21.1332   24.6785 C   0  0  0  0  0  0  0  0  0  0  0  0
    6.6763  -22.2023   24.6377 C   0  0  0  0  0  0  0  0  0  0  0  0
    8.2478  -12.0529   27.3832 C   0  0  0  0  0  0  0  0  0  0  0  0
    7.5573  -13.3473   27.0481 C   0  0  1  0  0  0  0  0  0  0  0  0
    6.7507  -13.1181   25.7984 C   0  0  0  0  0  0  0  0  0  0  0  0
    8.5231  -14.4552   26.8243 C   0  0  2  0  0  0  0  0  0  0  0  0
    7.8519  -15.7030   26.5231 N   0  0  0  0  0  0  0  0  0  0  0  0
    9.5185  -14.6273   27.9310 C   0  0  0  0  0  0  0  0  0  0  0  0
   10.4760  -13.6426   28.1891 O   0  0  0  0  0  0  0  0  0  0  0  0
    9.5599  -15.6301   28.6749 O   0  0  0  0  0  0  0  0  0  0  0  0
  2  1  1  1
  3  4  1  0
  3  2  1  0
  4  5  2  0
  6  5  1  0
  7  6  1  0
  8  7  2  0
  9  8  1  0
 10  9  2  0
 10 11  1  0
 11 12  2  0
 12  7  1  0
 12  4  1  0
 13 14  2  0
 13  2  1  0
 15 16  1  0
 16 17  2  0
 17 18  1  0
 19 20  1  0
 19 18  2  0
 21 20  1  6
 21 22  1  0
 22 13  1  0
 23 21  1  0
 24 23  2  0
 25 19  1  0
 26 25  2  0
 26 16  1  0
 28 27  1  6
 28 30  1  0
 28 29  1  0
 30 31  1  1
 31 23  1  0
 32 33  1  0
 32 30  1  0
 34 32  2  0
M  END
$$$$
