WYV.pdb
     RDKit          3D

 34 36  0  0  1  0  0  0  0  0999 V2000
    5.8980  -18.1696   23.5719 N   0  0  0  0  0  0  0  0  0  0  0  0
    6.4534  -16.8578   23.8640 C   0  0  1  0  0  0  0  0  0  0  0  0
    6.4803  -16.6612   25.3771 C   0  0  0  0  0  0  0  0  0  0  0  0
    6.0043  -15.3444   25.7999 C   0  0  0  0  0  0  0  0  0  0  0  0
    4.7909  -15.0076   26.3706 C   0  0  0  0  0  0  0  0  0  0  0  0
    4.7843  -13.6893   26.5907 N   0  0  0  0  0  0  0  0  0  0  0  0
    5.9340  -13.1270   26.1952 C   0  0  0  0  0  0  0  0  0  0  0  0
    6.3738  -11.8132   26.2266 C   0  0  0  0  0  0  0  0  0  0  0  0
    7.6407  -11.5319   25.7366 C   0  0  0  0  0  0  0  0  0  0  0  0
    8.4205  -12.5357   25.2401 C   0  0  0  0  0  0  0  0  0  0  0  0
    7.9729  -13.8475   25.2123 C   0  0  0  0  0  0  0  0  0  0  0  0
    6.7140  -14.1498   25.6954 C   0  0  0  0  0  0  0  0  0  0  0  0
    7.9060  -16.8647   23.4637 C   0  0  0  0  0  0  0  0  0  0  0  0
    8.5240  -17.9545   23.3251 O   0  0  0  0  0  0  0  0  0  0  0  0
    7.4646  -14.1091   17.3902 O   0  0  0  0  0  0  0  0  0  0  0  0
    8.1946  -14.1904   18.5839 C   0  0  0  0  0  0  0  0  0  0  0  0
    7.8887  -13.3525   19.6300 C   0  0  0  0  0  0  0  0  0  0  0  0
    8.5876  -13.3995   20.8331 C   0  0  0  0  0  0  0  0  0  0  0  0
    9.6085  -14.3103   20.9715 C   0  0  0  0  0  0  0  0  0  0  0  0
   10.3772  -14.3777   22.2336 C   0  0  0  0  0  0  0  0  0  0  0  0
   10.0301  -15.5280   23.1170 C   0  0  2  0  0  0  0  0  0  0  0  0
    8.6116  -15.6594   23.2331 N   0  0  0  0  0  0  0  0  0  0  0  0
   10.8159  -15.6538   24.3392 C   0  0  0  0  0  0  0  0  0  0  0  0
   12.0625  -15.5204   24.2754 O   0  0  0  0  0  0  0  0  0  0  0  0
    9.9451  -15.1802   19.9206 C   0  0  0  0  0  0  0  0  0  0  0  0
    9.2272  -15.0970   18.7508 C   0  0  0  0  0  0  0  0  0  0  0  0
   10.2168  -13.7565   27.4201 C   0  0  0  0  0  0  0  0  0  0  0  0
   10.5910  -15.1406   27.8769 C   0  0  1  0  0  0  0  0  0  0  0  0
    9.3546  -15.7747   28.4549 C   0  0  0  0  0  0  0  0  0  0  0  0
   11.1080  -15.9772   26.7619 C   0  0  2  0  0  0  0  0  0  0  0  0
   10.2412  -15.9256   25.6025 N   0  0  0  0  0  0  0  0  0  0  0  0
   11.4094  -17.3921   27.1522 C   0  0  0  0  0  0  0  0  0  0  0  0
   10.8426  -18.4613   26.4534 O   0  0  0  0  0  0  0  0  0  0  0  0
   12.1633  -17.7034   28.0985 O   0  0  0  0  0  0  0  0  0  0  0  0
  2  1  1  1
  3  4  1  0
  3  2  1  0
  4  5  2  0
  6  5  1  0
  7  6  1  0
  8  7  2  0
  9  8  1  0
 10  9  2  0
 10 11  1  0
 11 12  2  0
 12  7  1  0
 12  4  1  0
 13 14  2  0
 13  2  1  0
 15 16  1  0
 16 17  2  0
 17 18  1  0
 19 20  1  0
 19 18  2  0
 21 20  1  1
 21 22  1  0
 22 13  1  0
 23 21  1  0
 24 23  2  0
 25 19  1  0
 26 25  2  0
 26 16  1  0
 28 27  1  6
 28 30  1  0
 28 29  1  0
 30 31  1  6
 31 23  1  0
 32 33  1  0
 32 30  1  0
 34 32  2  0
M  END
$$$$
