DLH.pdb
     RDKit          3D

 27 27  0  0  1  0  0  0  0  0999 V2000
   12.8969  -16.1485   16.6260 N   0  0  0  0  0  0  0  0  0  0  0  0
   11.8753  -16.7730   17.4233 C   0  0  1  0  0  0  0  0  0  0  0  0
   12.3212  -18.1905   17.7304 C   0  0  0  0  0  0  0  0  0  0  0  0
   12.5099  -18.9620   16.4713 C   0  0  0  0  0  0  0  0  0  0  0  0
   11.5655  -19.1522   15.6482 O   0  0  0  0  0  0  0  0  0  0  0  0
   11.6268  -16.0061   18.6878 C   0  0  0  0  0  0  0  0  0  0  0  0
   12.5783  -15.6133   19.4014 O   0  0  0  0  0  0  0  0  0  0  0  0
   13.7471  -19.5240   16.1255 O   0  0  0  0  0  0  0  0  0  0  0  0
    9.1024  -12.5608   18.7375 C   0  0  0  0  0  0  0  0  0  0  0  0
    8.4313  -13.0817   19.9726 C   0  0  1  0  0  0  0  0  0  0  0  0
    6.9447  -12.7296   19.8131 C   0  0  0  0  0  0  0  0  0  0  0  0
    8.5019  -14.5425   20.1938 C   0  0  0  0  0  0  0  0  0  0  0  0
    9.8234  -15.1864   20.2960 C   0  0  2  0  0  0  0  0  0  0  0  0
   10.3139  -15.7218   19.0838 N   0  0  0  0  0  0  0  0  0  0  0  0
    9.9896  -15.9915   21.5198 C   0  0  0  0  0  0  0  0  0  0  0  0
    9.5734  -17.1854   21.4968 O   0  0  0  0  0  0  0  0  0  0  0  0
   10.5663  -15.5579   22.7307 N   0  0  0  0  0  0  0  0  0  0  0  0
   10.7770  -16.4696   23.8807 C   0  0  1  0  0  0  0  0  0  0  0  0
   12.0363  -16.1137   24.5892 C   0  0  0  0  0  0  0  0  0  0  0  0
   13.2147  -16.5058   23.7822 C   0  0  0  0  0  0  0  0  0  0  0  0
   13.1294  -17.3399   22.6560 C   0  0  0  0  0  0  0  0  0  0  0  0
   14.3704  -17.4855   22.1720 N   0  0  0  0  0  0  0  0  0  0  0  0
   15.2529  -16.7850   22.9327 C   0  0  0  0  0  0  0  0  0  0  0  0
   14.5135  -16.2106   23.8893 N   0  0  0  0  0  0  0  0  0  0  0  0
    9.5440  -16.3956   24.6891 C   0  0  0  0  0  0  0  0  0  0  0  0
    8.5710  -15.6377   24.4893 O   0  0  0  0  0  0  0  0  0  0  0  0
    9.4309  -17.2537   25.8011 O   0  0  0  0  0  0  0  0  0  0  0  0
  2  1  1  1
  3  4  1  0
  3  2  1  0
  4  5  2  0
  6  2  1  0
  6  7  2  0
  8  4  1  0
 10  9  1  6
 10 12  1  0
 11 10  1  0
 13 12  1  6
 13 14  1  0
 14  6  1  0
 15 13  1  0
 16 15  2  0
 17 15  1  0
 18 25  1  0
 18 17  1  0
 19 20  1  0
 18 19  1  1
 20 24  1  0
 20 21  2  0
 21 22  1  0
 23 22  1  0
 24 23  2  0
 25 27  1  0
 26 25  2  0
M  END
$$$$
