DLH.pdb
     RDKit          3D

 27 27  0  0  1  0  0  0  0  0999 V2000
    9.8222  -18.3664   17.6830 N   0  0  0  0  0  0  0  0  0  0  0  0
    8.8023  -18.2002   18.6838 C   0  0  1  0  0  0  0  0  0  0  0  0
    8.5295  -19.5573   19.3053 C   0  0  0  0  0  0  0  0  0  0  0  0
    7.8639  -20.4563   18.3230 C   0  0  0  0  0  0  0  0  0  0  0  0
    6.6400  -20.7706   18.4169 O   0  0  0  0  0  0  0  0  0  0  0  0
    9.2213  -17.2094   19.7287 C   0  0  0  0  0  0  0  0  0  0  0  0
   10.3433  -17.2887   20.2795 O   0  0  0  0  0  0  0  0  0  0  0  0
    8.5569  -21.0079   17.2360 O   0  0  0  0  0  0  0  0  0  0  0  0
    6.7605  -12.1712   19.3246 C   0  0  0  0  0  0  0  0  0  0  0  0
    7.7412  -13.2827   19.5487 C   0  0  1  0  0  0  0  0  0  0  0  0
    9.1291  -12.6293   19.4690 C   0  0  0  0  0  0  0  0  0  0  0  0
    7.6686  -13.9709   20.8559 C   0  0  0  0  0  0  0  0  0  0  0  0
    8.4963  -15.1694   21.0791 C   0  0  2  0  0  0  0  0  0  0  0  0
    8.3499  -16.1778   20.0999 N   0  0  0  0  0  0  0  0  0  0  0  0
    8.5542  -15.5867   22.4919 C   0  0  0  0  0  0  0  0  0  0  0  0
    7.4728  -15.9423   23.0425 O   0  0  0  0  0  0  0  0  0  0  0  0
    9.7060  -15.6232   23.3035 N   0  0  0  0  0  0  0  0  0  0  0  0
    9.9610  -16.7176   24.2707 C   0  0  1  0  0  0  0  0  0  0  0  0
    9.8457  -18.0361   23.5904 C   0  0  0  0  0  0  0  0  0  0  0  0
   10.2744  -19.1268   24.4961 C   0  0  0  0  0  0  0  0  0  0  0  0
   10.6242  -18.9150   25.8392 C   0  0  0  0  0  0  0  0  0  0  0  0
   10.9572  -20.1049   26.3576 N   0  0  0  0  0  0  0  0  0  0  0  0
   10.8392  -21.0749   25.4125 C   0  0  0  0  0  0  0  0  0  0  0  0
   10.4250  -20.4412   24.3086 N   0  0  0  0  0  0  0  0  0  0  0  0
   11.2728  -16.4236   24.8805 C   0  0  0  0  0  0  0  0  0  0  0  0
   11.6508  -16.7589   26.0232 O   0  0  0  0  0  0  0  0  0  0  0  0
   12.2067  -15.6937   24.1184 O   0  0  0  0  0  0  0  0  0  0  0  0
  2  1  1  6
  3  4  1  0
  3  2  1  0
  4  5  2  0
  6  2  1  0
  6  7  2  0
  8  4  1  0
 10  9  1  1
 10 12  1  0
 11 10  1  0
 13 12  1  1
 13 14  1  0
 14  6  1  0
 15 13  1  0
 16 15  2  0
 17 15  1  0
 18 25  1  0
 18 17  1  0
 19 20  1  0
 18 19  1  6
 20 24  1  0
 20 21  2  0
 21 22  1  0
 23 22  1  0
 24 23  2  0
 25 27  1  0
 26 25  2  0
M  END
$$$$
