DLH.pdb
     RDKit          3D

 27 27  0  0  1  0  0  0  0  0999 V2000
   10.5951  -17.4902   16.5926 N   0  0  0  0  0  0  0  0  0  0  0  0
   11.7904  -16.8270   17.0406 C   0  0  1  0  0  0  0  0  0  0  0  0
   12.2951  -15.9537   15.9071 C   0  0  0  0  0  0  0  0  0  0  0  0
   12.6418  -16.7860   14.7224 C   0  0  0  0  0  0  0  0  0  0  0  0
   11.8099  -17.5773   14.1866 O   0  0  0  0  0  0  0  0  0  0  0  0
   11.5304  -16.0082   18.2698 C   0  0  0  0  0  0  0  0  0  0  0  0
   12.4760  -15.5604   18.9583 O   0  0  0  0  0  0  0  0  0  0  0  0
   13.9131  -16.7412   14.1324 O   0  0  0  0  0  0  0  0  0  0  0  0
    8.7937  -12.2232   19.2939 C   0  0  0  0  0  0  0  0  0  0  0  0
    8.0956  -13.2505   20.1332 C   0  0  1  0  0  0  0  0  0  0  0  0
    6.5943  -12.9977   19.9292 C   0  0  0  0  0  0  0  0  0  0  0  0
    8.3412  -14.6659   19.7807 C   0  0  0  0  0  0  0  0  0  0  0  0
    9.7135  -15.1956   19.8665 C   0  0  2  0  0  0  0  0  0  0  0  0
   10.2132  -15.7367   18.6605 N   0  0  0  0  0  0  0  0  0  0  0  0
    9.9791  -15.9356   21.1136 C   0  0  0  0  0  0  0  0  0  0  0  0
    9.0862  -16.7313   21.5242 O   0  0  0  0  0  0  0  0  0  0  0  0
   11.1390  -15.8395   21.9088 N   0  0  0  0  0  0  0  0  0  0  0  0
   11.6785  -16.9930   22.6679 C   0  0  1  0  0  0  0  0  0  0  0  0
   12.5385  -17.8269   21.7850 C   0  0  0  0  0  0  0  0  0  0  0  0
   13.0694  -18.9928   22.5282 C   0  0  0  0  0  0  0  0  0  0  0  0
   13.2101  -20.2672   21.9560 C   0  0  0  0  0  0  0  0  0  0  0  0
   13.7146  -21.0748   22.8988 N   0  0  0  0  0  0  0  0  0  0  0  0
   13.9060  -20.3820   24.0528 C   0  0  0  0  0  0  0  0  0  0  0  0
   13.5052  -19.1335   23.7835 N   0  0  0  0  0  0  0  0  0  0  0  0
   12.3430  -16.4225   23.8563 C   0  0  0  0  0  0  0  0  0  0  0  0
   12.7282  -15.2421   23.9949 O   0  0  0  0  0  0  0  0  0  0  0  0
   12.5774  -17.2739   24.9543 O   0  0  0  0  0  0  0  0  0  0  0  0
  2  1  1  6
  3  4  1  0
  3  2  1  0
  4  5  2  0
  6  2  1  0
  6  7  2  0
  8  4  1  0
 10  9  1  6
 10 12  1  0
 11 10  1  0
 13 12  1  6
 13 14  1  0
 14  6  1  0
 15 13  1  0
 16 15  2  0
 17 15  1  0
 18 25  1  0
 18 17  1  0
 19 20  1  0
 18 19  1  6
 20 24  1  0
 20 21  2  0
 21 22  1  0
 23 22  1  0
 24 23  2  0
 25 27  1  0
 26 25  2  0
M  END
$$$$
