DLH.pdb
     RDKit          3D

 27 27  0  0  1  0  0  0  0  0999 V2000
    9.9935  -17.9197   18.8561 N   0  0  0  0  0  0  0  0  0  0  0  0
   11.2344  -17.2941   19.2275 C   0  0  1  0  0  0  0  0  0  0  0  0
   11.8227  -16.6466   17.9876 C   0  0  0  0  0  0  0  0  0  0  0  0
   12.2549  -17.6851   17.0124 C   0  0  0  0  0  0  0  0  0  0  0  0
   12.1710  -18.9240   17.2641 O   0  0  0  0  0  0  0  0  0  0  0  0
   11.0292  -16.2797   20.3127 C   0  0  0  0  0  0  0  0  0  0  0  0
   12.0041  -15.7663   20.9083 O   0  0  0  0  0  0  0  0  0  0  0  0
   12.7816  -17.3487   15.7572 O   0  0  0  0  0  0  0  0  0  0  0  0
    6.4267  -13.2666   19.8019 C   0  0  0  0  0  0  0  0  0  0  0  0
    7.7886  -13.8321   20.0712 C   0  0  1  0  0  0  0  0  0  0  0  0
    8.7684  -12.6708   19.8461 C   0  0  0  0  0  0  0  0  0  0  0  0
    8.0330  -14.3366   21.4400 C   0  0  0  0  0  0  0  0  0  0  0  0
    9.2845  -15.0619   21.7211 C   0  0  2  0  0  0  0  0  0  0  0  0
    9.7309  -15.8963   20.6717 N   0  0  0  0  0  0  0  0  0  0  0  0
    9.3610  -15.5870   23.0966 C   0  0  0  0  0  0  0  0  0  0  0  0
    8.9977  -14.8231   24.0364 O   0  0  0  0  0  0  0  0  0  0  0  0
    9.8104  -16.8681   23.4757 N   0  0  0  0  0  0  0  0  0  0  0  0
    9.8546  -17.3069   24.8912 C   0  0  1  0  0  0  0  0  0  0  0  0
    8.9682  -18.4860   25.0871 C   0  0  0  0  0  0  0  0  0  0  0  0
    7.5839  -18.1709   24.6648 C   0  0  0  0  0  0  0  0  0  0  0  0
    6.7560  -17.2745   25.3591 C   0  0  0  0  0  0  0  0  0  0  0  0
    5.5854  -17.2263   24.7087 N   0  0  0  0  0  0  0  0  0  0  0  0
    5.6185  -18.0497   23.6274 C   0  0  0  0  0  0  0  0  0  0  0  0
    6.8401  -18.5967   23.6396 N   0  0  0  0  0  0  0  0  0  0  0  0
   11.2811  -17.5181   25.2069 C   0  0  0  0  0  0  0  0  0  0  0  0
   12.2410  -17.3968   24.4164 O   0  0  0  0  0  0  0  0  0  0  0  0
   11.6176  -17.8951   26.5223 O   0  0  0  0  0  0  0  0  0  0  0  0
  2  1  1  6
  3  4  1  0
  3  2  1  0
  4  5  2  0
  6  2  1  0
  6  7  2  0
  8  4  1  0
 10  9  1  1
 10 12  1  0
 11 10  1  0
 13 12  1  6
 13 14  1  0
 14  6  1  0
 15 13  1  0
 16 15  2  0
 17 15  1  0
 18 25  1  0
 18 17  1  0
 19 20  1  0
 18 19  1  6
 20 24  1  0
 20 21  2  0
 21 22  1  0
 23 22  1  0
 24 23  2  0
 25 27  1  0
 26 25  2  0
M  END
$$$$
