DLH.pdb
     RDKit          3D

 27 27  0  0  1  0  0  0  0  0999 V2000
    8.7587  -16.2519   21.0374 N   0  0  0  0  0  0  0  0  0  0  0  0
    9.9719  -16.5674   21.7431 C   0  0  1  0  0  0  0  0  0  0  0  0
   11.1422  -16.1176   20.8883 C   0  0  0  0  0  0  0  0  0  0  0  0
   11.2670  -16.9789   19.6805 C   0  0  0  0  0  0  0  0  0  0  0  0
   10.2567  -17.4702   19.0944 O   0  0  0  0  0  0  0  0  0  0  0  0
   10.0076  -15.9046   23.0878 C   0  0  0  0  0  0  0  0  0  0  0  0
   11.0184  -15.9902   23.8223 O   0  0  0  0  0  0  0  0  0  0  0  0
   12.5138  -17.2964   19.1230 O   0  0  0  0  0  0  0  0  0  0  0  0
    7.9847  -11.7555   26.4243 C   0  0  0  0  0  0  0  0  0  0  0  0
    7.1601  -12.9562   26.0701 C   0  0  1  0  0  0  0  0  0  0  0  0
    5.7231  -12.4368   25.9123 C   0  0  0  0  0  0  0  0  0  0  0  0
    7.5061  -13.6429   24.8065 C   0  0  0  0  0  0  0  0  0  0  0  0
    8.6514  -14.5699   24.7878 C   0  0  2  0  0  0  0  0  0  0  0  0
    8.8974  -15.1780   23.5362 N   0  0  0  0  0  0  0  0  0  0  0  0
    8.7401  -15.4158   25.9920 C   0  0  0  0  0  0  0  0  0  0  0  0
    7.8832  -16.3359   26.1261 O   0  0  0  0  0  0  0  0  0  0  0  0
    9.6910  -15.2968   27.0256 N   0  0  0  0  0  0  0  0  0  0  0  0
   10.3800  -16.4728   27.6093 C   0  0  1  0  0  0  0  0  0  0  0  0
   11.6287  -16.7595   26.8523 C   0  0  0  0  0  0  0  0  0  0  0  0
   11.5820  -18.1206   26.2700 C   0  0  0  0  0  0  0  0  0  0  0  0
   10.4942  -18.9913   26.4427 C   0  0  0  0  0  0  0  0  0  0  0  0
   10.7821  -20.1247   25.7886 N   0  0  0  0  0  0  0  0  0  0  0  0
   12.0046  -20.0270   25.2020 C   0  0  0  0  0  0  0  0  0  0  0  0
   12.4488  -18.8043   25.5172 N   0  0  0  0  0  0  0  0  0  0  0  0
   10.5553  -16.1706   29.0436 C   0  0  0  0  0  0  0  0  0  0  0  0
   10.8582  -16.9853   29.9410 O   0  0  0  0  0  0  0  0  0  0  0  0
   10.3668  -14.8396   29.4660 O   0  0  0  0  0  0  0  0  0  0  0  0
  2  1  1  6
  3  4  1  0
  3  2  1  0
  4  5  2  0
  6  2  1  0
  6  7  2  0
  8  4  1  0
 10  9  1  6
 10 12  1  0
 11 10  1  0
 13 12  1  6
 13 14  1  0
 14  6  1  0
 15 13  1  0
 16 15  2  0
 17 15  1  0
 18 25  1  0
 18 17  1  0
 19 20  1  0
 18 19  1  6
 20 24  1  0
 20 21  2  0
 21 22  1  0
 23 22  1  0
 24 23  2  0
 25 27  1  0
 26 25  2  0
M  END
$$$$
