DLH.pdb
     RDKit          3D

 27 27  0  0  1  0  0  0  0  0999 V2000
   10.1776  -16.9798   17.2941 N   0  0  0  0  0  0  0  0  0  0  0  0
   11.4595  -16.7022   17.8847 C   0  0  1  0  0  0  0  0  0  0  0  0
   12.2890  -15.9400   16.8681 C   0  0  0  0  0  0  0  0  0  0  0  0
   12.4553  -16.7416   15.6247 C   0  0  0  0  0  0  0  0  0  0  0  0
   11.5660  -16.7811   14.7230 O   0  0  0  0  0  0  0  0  0  0  0  0
   11.3155  -15.9155   19.1533 C   0  0  0  0  0  0  0  0  0  0  0  0
   12.3171  -15.6134   19.8420 O   0  0  0  0  0  0  0  0  0  0  0  0
   13.6087  -17.5010   15.3819 O   0  0  0  0  0  0  0  0  0  0  0  0
    6.9738  -12.5321   19.1714 C   0  0  0  0  0  0  0  0  0  0  0  0
    8.2778  -13.2533   19.3349 C   0  0  1  0  0  0  0  0  0  0  0  0
    9.3614  -12.1675   19.2556 C   0  0  0  0  0  0  0  0  0  0  0  0
    8.4804  -13.9648   20.6158 C   0  0  0  0  0  0  0  0  0  0  0  0
    9.6512  -14.8469   20.7654 C   0  0  2  0  0  0  0  0  0  0  0  0
   10.0453  -15.5098   19.5812 N   0  0  0  0  0  0  0  0  0  0  0  0
    9.6427  -15.6245   22.0179 C   0  0  0  0  0  0  0  0  0  0  0  0
    8.7829  -16.5449   22.1302 O   0  0  0  0  0  0  0  0  0  0  0  0
   10.5019  -15.4391   23.1198 N   0  0  0  0  0  0  0  0  0  0  0  0
   10.7517  -16.5050   24.1195 C   0  0  1  0  0  0  0  0  0  0  0  0
   10.9982  -17.8013   23.4315 C   0  0  0  0  0  0  0  0  0  0  0  0
    9.8429  -18.7110   23.6085 C   0  0  0  0  0  0  0  0  0  0  0  0
    8.6991  -18.3632   24.3447 C   0  0  0  0  0  0  0  0  0  0  0  0
    7.8616  -19.4082   24.2988 N   0  0  0  0  0  0  0  0  0  0  0  0
    8.4108  -20.4144   23.5680 C   0  0  0  0  0  0  0  0  0  0  0  0
    9.6023  -19.9507   23.1717 N   0  0  0  0  0  0  0  0  0  0  0  0
   11.8517  -16.0128   24.9721 C   0  0  0  0  0  0  0  0  0  0  0  0
   12.8286  -15.3285   24.6001 O   0  0  0  0  0  0  0  0  0  0  0  0
   11.8189  -16.3346   26.3436 O   0  0  0  0  0  0  0  0  0  0  0  0
  2  1  1  6
  3  4  1  0
  3  2  1  0
  4  5  2  0
  6  2  1  0
  6  7  2  0
  8  4  1  0
 10  9  1  1
 10 12  1  0
 11 10  1  0
 13 12  1  6
 13 14  1  0
 14  6  1  0
 15 13  1  0
 16 15  2  0
 17 15  1  0
 18 25  1  0
 18 17  1  0
 19 20  1  0
 18 19  1  6
 20 24  1  0
 20 21  2  0
 21 22  1  0
 23 22  1  0
 24 23  2  0
 25 27  1  0
 26 25  2  0
M  END
$$$$
