DLH.pdb
     RDKit          3D

 27 27  0  0  1  0  0  0  0  0999 V2000
    9.1940  -16.1920   19.9676 N   0  0  0  0  0  0  0  0  0  0  0  0
    8.2477  -16.3410   21.0408 C   0  0  1  0  0  0  0  0  0  0  0  0
    8.0117  -17.8245   21.2553 C   0  0  0  0  0  0  0  0  0  0  0  0
    7.4971  -18.4561   20.0092 C   0  0  0  0  0  0  0  0  0  0  0  0
    6.4125  -18.0908   19.4655 O   0  0  0  0  0  0  0  0  0  0  0  0
    8.7444  -15.6925   22.2985 C   0  0  0  0  0  0  0  0  0  0  0  0
    9.9654  -15.6760   22.5767 O   0  0  0  0  0  0  0  0  0  0  0  0
    8.1859  -19.4945   19.3663 O   0  0  0  0  0  0  0  0  0  0  0  0
    8.2132  -11.8283   26.3103 C   0  0  0  0  0  0  0  0  0  0  0  0
    7.1432  -12.8688   26.1702 C   0  0  1  0  0  0  0  0  0  0  0  0
    5.8179  -12.1320   26.4158 C   0  0  0  0  0  0  0  0  0  0  0  0
    7.0291  -13.5217   24.8479 C   0  0  0  0  0  0  0  0  0  0  0  0
    8.0464  -14.5104   24.4493 C   0  0  2  0  0  0  0  0  0  0  0  0
    7.8351  -15.0952   23.1803 N   0  0  0  0  0  0  0  0  0  0  0  0
    8.4681  -15.3940   25.5515 C   0  0  0  0  0  0  0  0  0  0  0  0
    7.6031  -16.1780   26.0375 O   0  0  0  0  0  0  0  0  0  0  0  0
    9.7519  -15.4492   26.1307 N   0  0  0  0  0  0  0  0  0  0  0  0
   10.2763  -16.6730   26.7829 C   0  0  1  0  0  0  0  0  0  0  0  0
   11.6056  -17.0242   26.2138 C   0  0  0  0  0  0  0  0  0  0  0  0
   12.2092  -18.1514   26.9614 C   0  0  0  0  0  0  0  0  0  0  0  0
   12.4975  -18.0937   28.3343 C   0  0  0  0  0  0  0  0  0  0  0  0
   13.0298  -19.2736   28.6805 N   0  0  0  0  0  0  0  0  0  0  0  0
   13.0990  -20.0903   27.5959 C   0  0  0  0  0  0  0  0  0  0  0  0
   12.5937  -19.3743   26.5842 N   0  0  0  0  0  0  0  0  0  0  0  0
   10.2517  -16.4025   28.2340 C   0  0  0  0  0  0  0  0  0  0  0  0
   10.2298  -15.2780   28.7781 O   0  0  0  0  0  0  0  0  0  0  0  0
   10.2537  -17.5051   29.1114 O   0  0  0  0  0  0  0  0  0  0  0  0
  2  1  1  6
  3  4  1  0
  3  2  1  0
  4  5  2  0
  6  2  1  0
  6  7  2  0
  8  4  1  0
 10  9  1  6
 10 12  1  0
 11 10  1  0
 13 12  1  1
 13 14  1  0
 14  6  1  0
 15 13  1  0
 16 15  2  0
 17 15  1  0
 18 25  1  0
 18 17  1  0
 19 20  1  0
 18 19  1  6
 20 24  1  0
 20 21  2  0
 21 22  1  0
 23 22  1  0
 24 23  2  0
 25 27  1  0
 26 25  2  0
M  END
$$$$
