DLH.pdb
     RDKit          3D

 27 27  0  0  1  0  0  0  0  0999 V2000
    7.9021  -17.4584   22.1202 N   0  0  0  0  0  0  0  0  0  0  0  0
    8.9011  -16.4713   21.8089 C   0  0  1  0  0  0  0  0  0  0  0  0
    8.2909  -15.4758   20.8399 C   0  0  0  0  0  0  0  0  0  0  0  0
    8.5667  -15.8806   19.4341 C   0  0  0  0  0  0  0  0  0  0  0  0
    9.2474  -16.9107   19.1494 O   0  0  0  0  0  0  0  0  0  0  0  0
    9.3881  -15.7802   23.0476 C   0  0  0  0  0  0  0  0  0  0  0  0
   10.5698  -15.3752   23.1378 O   0  0  0  0  0  0  0  0  0  0  0  0
    8.0879  -15.1413   18.3430 O   0  0  0  0  0  0  0  0  0  0  0  0
    5.7634  -12.9137   26.1110 C   0  0  0  0  0  0  0  0  0  0  0  0
    7.0072  -13.4402   25.4607 C   0  0  1  0  0  0  0  0  0  0  0  0
    7.9832  -12.2549   25.4188 C   0  0  0  0  0  0  0  0  0  0  0  0
    7.7026  -14.5401   26.1640 C   0  0  0  0  0  0  0  0  0  0  0  0
    8.7880  -15.2571   25.4718 C   0  0  2  0  0  0  0  0  0  0  0  0
    8.5144  -15.5819   24.1240 N   0  0  0  0  0  0  0  0  0  0  0  0
    9.4387  -16.2828   26.3073 C   0  0  0  0  0  0  0  0  0  0  0  0
    9.6625  -15.9963   27.5184 O   0  0  0  0  0  0  0  0  0  0  0  0
    9.8482  -17.5640   25.8860 N   0  0  0  0  0  0  0  0  0  0  0  0
   10.5077  -18.5269   26.8002 C   0  0  1  0  0  0  0  0  0  0  0  0
   10.0384  -19.9089   26.5098 C   0  0  0  0  0  0  0  0  0  0  0  0
    8.6050  -20.0534   26.8535 C   0  0  0  0  0  0  0  0  0  0  0  0
    8.0530  -19.5792   28.0542 C   0  0  0  0  0  0  0  0  0  0  0  0
    6.7460  -19.8742   28.0369 N   0  0  0  0  0  0  0  0  0  0  0  0
    6.4282  -20.5168   26.8817 C   0  0  0  0  0  0  0  0  0  0  0  0
    7.5768  -20.6021   26.1997 N   0  0  0  0  0  0  0  0  0  0  0  0
   11.9588  -18.2988   26.6529 C   0  0  0  0  0  0  0  0  0  0  0  0
   12.5230  -17.6974   25.7143 O   0  0  0  0  0  0  0  0  0  0  0  0
   12.8114  -18.8002   27.6565 O   0  0  0  0  0  0  0  0  0  0  0  0
  2  1  1  1
  3  4  1  0
  3  2  1  0
  4  5  2  0
  6  2  1  0
  6  7  2  0
  8  4  1  0
 10  9  1  1
 10 12  1  0
 11 10  1  0
 13 12  1  1
 13 14  1  0
 14  6  1  0
 15 13  1  0
 16 15  2  0
 17 15  1  0
 18 25  1  0
 18 17  1  0
 19 20  1  0
 18 19  1  6
 20 24  1  0
 20 21  2  0
 21 22  1  0
 23 22  1  0
 24 23  2  0
 25 27  1  0
 26 25  2  0
M  END
$$$$
