DLH.pdb
     RDKit          3D

 27 27  0  0  1  0  0  0  0  0999 V2000
   11.3286  -17.2206   18.1222 N   0  0  0  0  0  0  0  0  0  0  0  0
   11.0623  -17.8574   19.3843 C   0  0  1  0  0  0  0  0  0  0  0  0
   12.2441  -18.7486   19.7185 C   0  0  0  0  0  0  0  0  0  0  0  0
   12.3221  -19.8899   18.7658 C   0  0  0  0  0  0  0  0  0  0  0  0
   11.8826  -19.8108   17.5801 O   0  0  0  0  0  0  0  0  0  0  0  0
   10.8343  -16.8454   20.4673 C   0  0  0  0  0  0  0  0  0  0  0  0
   11.7838  -16.4253   21.1677 O   0  0  0  0  0  0  0  0  0  0  0  0
   12.8873  -21.1206   19.1294 O   0  0  0  0  0  0  0  0  0  0  0  0
    6.2407  -13.5125   19.8428 C   0  0  0  0  0  0  0  0  0  0  0  0
    7.5958  -14.1026   20.0930 C   0  0  1  0  0  0  0  0  0  0  0  0
    8.5635  -12.9103   20.1303 C   0  0  0  0  0  0  0  0  0  0  0  0
    7.7705  -14.8333   21.3672 C   0  0  0  0  0  0  0  0  0  0  0  0
    9.0803  -15.4364   21.6709 C   0  0  2  0  0  0  0  0  0  0  0  0
    9.5428  -16.3588   20.7054 N   0  0  0  0  0  0  0  0  0  0  0  0
    9.2478  -15.7879   23.0928 C   0  0  0  0  0  0  0  0  0  0  0  0
    9.0724  -16.9961   23.4222 O   0  0  0  0  0  0  0  0  0  0  0  0
    9.5809  -14.9013   24.1367 N   0  0  0  0  0  0  0  0  0  0  0  0
    9.7071  -15.3459   25.5455 C   0  0  1  0  0  0  0  0  0  0  0  0
   10.1529  -14.2119   26.3998 C   0  0  0  0  0  0  0  0  0  0  0  0
   10.3086  -14.6509   27.8057 C   0  0  0  0  0  0  0  0  0  0  0  0
   10.0905  -15.9731   28.2245 C   0  0  0  0  0  0  0  0  0  0  0  0
   10.3191  -16.0169   29.5442 N   0  0  0  0  0  0  0  0  0  0  0  0
   10.6742  -14.7852   29.9971 C   0  0  0  0  0  0  0  0  0  0  0  0
   10.6556  -13.9949   28.9170 N   0  0  0  0  0  0  0  0  0  0  0  0
    8.4047  -15.9428   25.9015 C   0  0  0  0  0  0  0  0  0  0  0  0
    7.2835  -15.5743   25.4914 O   0  0  0  0  0  0  0  0  0  0  0  0
    8.4002  -17.0363   26.7903 O   0  0  0  0  0  0  0  0  0  0  0  0
  2  1  1  6
  3  4  1  0
  3  2  1  0
  4  5  2  0
  6  2  1  0
  6  7  2  0
  8  4  1  0
 10  9  1  1
 10 12  1  0
 11 10  1  0
 13 12  1  6
 13 14  1  0
 14  6  1  0
 15 13  1  0
 16 15  2  0
 17 15  1  0
 18 25  1  0
 18 17  1  0
 19 20  1  0
 18 19  1  1
 20 24  1  0
 20 21  2  0
 21 22  1  0
 23 22  1  0
 24 23  2  0
 25 27  1  0
 26 25  2  0
M  END
$$$$
