DLH.pdb
     RDKit          3D

 27 27  0  0  1  0  0  0  0  0999 V2000
   11.0107  -17.5532   19.3434 N   0  0  0  0  0  0  0  0  0  0  0  0
   11.8349  -17.3880   20.5108 C   0  0  1  0  0  0  0  0  0  0  0  0
   13.1084  -16.6788   20.0893 C   0  0  0  0  0  0  0  0  0  0  0  0
   14.2071  -17.6612   19.8790 C   0  0  0  0  0  0  0  0  0  0  0  0
   14.3039  -18.7225   20.5644 O   0  0  0  0  0  0  0  0  0  0  0  0
   11.1200  -16.6122   21.5766 C   0  0  0  0  0  0  0  0  0  0  0  0
   11.7383  -16.1523   22.5640 O   0  0  0  0  0  0  0  0  0  0  0  0
   15.1997  -17.4655   18.9083 O   0  0  0  0  0  0  0  0  0  0  0  0
    6.2515  -14.2142   19.9939 C   0  0  0  0  0  0  0  0  0  0  0  0
    7.5763  -14.5042   20.6325 C   0  0  1  0  0  0  0  0  0  0  0  0
    8.1132  -13.1441   21.1028 C   0  0  0  0  0  0  0  0  0  0  0  0
    7.5559  -15.3876   21.8187 C   0  0  0  0  0  0  0  0  0  0  0  0
    8.8347  -15.8317   22.4007 C   0  0  2  0  0  0  0  0  0  0  0  0
    9.7402  -16.3954   21.4737 N   0  0  0  0  0  0  0  0  0  0  0  0
    8.6838  -16.4990   23.7066 C   0  0  0  0  0  0  0  0  0  0  0  0
    8.8612  -17.7503   23.7491 O   0  0  0  0  0  0  0  0  0  0  0  0
    8.3506  -15.8769   24.9267 N   0  0  0  0  0  0  0  0  0  0  0  0
    8.0834  -16.6488   26.1640 C   0  0  1  0  0  0  0  0  0  0  0  0
    7.9364  -15.7235   27.3202 C   0  0  0  0  0  0  0  0  0  0  0  0
    9.2235  -15.0525   27.6151 C   0  0  0  0  0  0  0  0  0  0  0  0
   10.4146  -15.3449   26.9318 C   0  0  0  0  0  0  0  0  0  0  0  0
   11.3728  -14.5623   27.4466 N   0  0  0  0  0  0  0  0  0  0  0  0
   10.8565  -13.7786   28.4302 C   0  0  0  0  0  0  0  0  0  0  0  0
    9.5604  -14.1066   28.4967 N   0  0  0  0  0  0  0  0  0  0  0  0
    6.9115  -17.4967   25.8690 C   0  0  0  0  0  0  0  0  0  0  0  0
    6.5915  -18.5503   26.4594 O   0  0  0  0  0  0  0  0  0  0  0  0
    6.0558  -17.0997   24.8223 O   0  0  0  0  0  0  0  0  0  0  0  0
  2  1  1  6
  3  4  1  0
  3  2  1  0
  4  5  2  0
  6  2  1  0
  6  7  2  0
  8  4  1  0
 10  9  1  1
 10 12  1  0
 11 10  1  0
 13 12  1  6
 13 14  1  0
 14  6  1  0
 15 13  1  0
 16 15  2  0
 17 15  1  0
 18 25  1  0
 18 17  1  0
 19 20  1  0
 18 19  1  1
 20 24  1  0
 20 21  2  0
 21 22  1  0
 23 22  1  0
 24 23  2  0
 25 27  1  0
 26 25  2  0
M  END
$$$$
