DLH.pdb
     RDKit          3D

 27 27  0  0  1  0  0  0  0  0999 V2000
    7.9396  -17.0178   20.9564 N   0  0  0  0  0  0  0  0  0  0  0  0
    9.3665  -16.9195   21.1099 C   0  0  1  0  0  0  0  0  0  0  0  0
    9.9464  -16.4255   19.7976 C   0  0  0  0  0  0  0  0  0  0  0  0
    9.8688  -17.4901   18.7598 C   0  0  0  0  0  0  0  0  0  0  0  0
    9.0137  -17.4606   17.8253 O   0  0  0  0  0  0  0  0  0  0  0  0
    9.7307  -15.9971   22.2349 C   0  0  0  0  0  0  0  0  0  0  0  0
   10.9284  -15.7392   22.4953 O   0  0  0  0  0  0  0  0  0  0  0  0
   10.7398  -18.5889   18.7596 O   0  0  0  0  0  0  0  0  0  0  0  0
    8.0674  -11.7420   25.6000 C   0  0  0  0  0  0  0  0  0  0  0  0
    7.5491  -13.1337   25.8040 C   0  0  1  0  0  0  0  0  0  0  0  0
    6.0836  -12.9684   26.2333 C   0  0  0  0  0  0  0  0  0  0  0  0
    7.5485  -14.0165   24.6171 C   0  0  0  0  0  0  0  0  0  0  0  0
    8.8118  -14.6468   24.1952 C   0  0  2  0  0  0  0  0  0  0  0  0
    8.7221  -15.4123   23.0108 N   0  0  0  0  0  0  0  0  0  0  0  0
    9.5917  -15.2035   25.3158 C   0  0  0  0  0  0  0  0  0  0  0  0
    9.8105  -14.4509   26.3081 O   0  0  0  0  0  0  0  0  0  0  0  0
   10.1309  -16.5036   25.3910 N   0  0  0  0  0  0  0  0  0  0  0  0
   10.8794  -16.9848   26.5769 C   0  0  1  0  0  0  0  0  0  0  0  0
    9.9798  -17.0355   27.7612 C   0  0  0  0  0  0  0  0  0  0  0  0
   10.2273  -15.8779   28.6513 C   0  0  0  0  0  0  0  0  0  0  0  0
   11.1035  -14.8313   28.3220 C   0  0  0  0  0  0  0  0  0  0  0  0
   11.0872  -13.9613   29.3410 N   0  0  0  0  0  0  0  0  0  0  0  0
   10.2421  -14.3969   30.3127 C   0  0  0  0  0  0  0  0  0  0  0  0
    9.7464  -15.5529   29.8549 N   0  0  0  0  0  0  0  0  0  0  0  0
   11.4883  -18.2695   26.1794 C   0  0  0  0  0  0  0  0  0  0  0  0
   11.3743  -18.8318   25.0695 O   0  0  0  0  0  0  0  0  0  0  0  0
   12.2794  -18.9471   27.1284 O   0  0  0  0  0  0  0  0  0  0  0  0
  2  1  1  6
  3  4  1  0
  3  2  1  0
  4  5  2  0
  6  2  1  0
  6  7  2  0
  8  4  1  0
 10  9  1  6
 10 12  1  0
 11 10  1  0
 13 12  1  1
 13 14  1  0
 14  6  1  0
 15 13  1  0
 16 15  2  0
 17 15  1  0
 18 25  1  0
 18 17  1  0
 19 20  1  0
 18 19  1  1
 20 24  1  0
 20 21  2  0
 21 22  1  0
 23 22  1  0
 24 23  2  0
 25 27  1  0
 26 25  2  0
M  END
$$$$
