DLH.pdb
     RDKit          3D

 27 27  0  0  1  0  0  0  0  0999 V2000
    9.4690  -16.9879   16.3241 N   0  0  0  0  0  0  0  0  0  0  0  0
   10.8402  -16.8613   16.7404 C   0  0  1  0  0  0  0  0  0  0  0  0
   11.5628  -16.0021   15.7195 C   0  0  0  0  0  0  0  0  0  0  0  0
   11.5323  -16.6487   14.3789 C   0  0  0  0  0  0  0  0  0  0  0  0
   11.4177  -17.9025   14.2366 O   0  0  0  0  0  0  0  0  0  0  0  0
   10.9398  -16.2595   18.1103 C   0  0  0  0  0  0  0  0  0  0  0  0
   12.0515  -16.0950   18.6631 O   0  0  0  0  0  0  0  0  0  0  0  0
   11.6302  -15.9037   13.1951 O   0  0  0  0  0  0  0  0  0  0  0  0
    6.5031  -13.0261   19.4872 C   0  0  0  0  0  0  0  0  0  0  0  0
    7.8672  -13.6087   19.2704 C   0  0  1  0  0  0  0  0  0  0  0  0
    8.8394  -12.4223   19.3525 C   0  0  0  0  0  0  0  0  0  0  0  0
    8.3238  -14.6035   20.2653 C   0  0  0  0  0  0  0  0  0  0  0  0
    9.6180  -15.2773   20.0594 C   0  0  2  0  0  0  0  0  0  0  0  0
    9.7765  -15.8741   18.7883 N   0  0  0  0  0  0  0  0  0  0  0  0
   10.0772  -16.0363   21.2369 C   0  0  0  0  0  0  0  0  0  0  0  0
    9.4357  -17.0810   21.5472 O   0  0  0  0  0  0  0  0  0  0  0  0
   11.1681  -15.7077   22.0667 N   0  0  0  0  0  0  0  0  0  0  0  0
   11.4715  -16.4538   23.3114 C   0  0  1  0  0  0  0  0  0  0  0  0
   12.9354  -16.4275   23.5775 C   0  0  0  0  0  0  0  0  0  0  0  0
   13.6450  -17.3574   22.6691 C   0  0  0  0  0  0  0  0  0  0  0  0
   12.9803  -18.2186   21.7815 C   0  0  0  0  0  0  0  0  0  0  0  0
   13.9174  -18.9103   21.1190 N   0  0  0  0  0  0  0  0  0  0  0  0
   15.1558  -18.5365   21.5372 C   0  0  0  0  0  0  0  0  0  0  0  0
   14.9439  -17.5996   22.4694 N   0  0  0  0  0  0  0  0  0  0  0  0
   10.6189  -15.8592   24.3597 C   0  0  0  0  0  0  0  0  0  0  0  0
    9.8303  -14.9005   24.2183 O   0  0  0  0  0  0  0  0  0  0  0  0
   10.6844  -16.4096   25.6552 O   0  0  0  0  0  0  0  0  0  0  0  0
  2  1  1  6
  3  4  1  0
  3  2  1  0
  4  5  2  0
  6  2  1  0
  6  7  2  0
  8  4  1  0
 10  9  1  1
 10 12  1  0
 11 10  1  0
 13 12  1  1
 13 14  1  0
 14  6  1  0
 15 13  1  0
 16 15  2  0
 17 15  1  0
 18 25  1  0
 18 17  1  0
 19 20  1  0
 18 19  1  1
 20 24  1  0
 20 21  2  0
 21 22  1  0
 23 22  1  0
 24 23  2  0
 25 27  1  0
 26 25  2  0
M  END
$$$$
