DLH.pdb
     RDKit          3D

 27 27  0  0  1  0  0  0  0  0999 V2000
   11.2746  -15.6075   15.5728 N   0  0  0  0  0  0  0  0  0  0  0  0
   11.4146  -16.5096   16.6845 C   0  0  1  0  0  0  0  0  0  0  0  0
   12.6752  -17.3266   16.4696 C   0  0  0  0  0  0  0  0  0  0  0  0
   12.3344  -18.7523   16.2100 C   0  0  0  0  0  0  0  0  0  0  0  0
   11.3716  -19.0902   15.4588 O   0  0  0  0  0  0  0  0  0  0  0  0
   11.4764  -15.7654   17.9850 C   0  0  0  0  0  0  0  0  0  0  0  0
   12.5116  -15.1486   18.3264 O   0  0  0  0  0  0  0  0  0  0  0  0
   13.0618  -19.8041   16.7851 O   0  0  0  0  0  0  0  0  0  0  0  0
    6.7704  -13.4162   19.7240 C   0  0  0  0  0  0  0  0  0  0  0  0
    8.1941  -13.7874   19.4369 C   0  0  1  0  0  0  0  0  0  0  0  0
    8.9777  -12.4665   19.4657 C   0  0  0  0  0  0  0  0  0  0  0  0
    8.8473  -14.6917   20.4082 C   0  0  0  0  0  0  0  0  0  0  0  0
   10.2042  -15.1890   20.1204 C   0  0  2  0  0  0  0  0  0  0  0  0
   10.3643  -15.7563   18.8361 N   0  0  0  0  0  0  0  0  0  0  0  0
   10.8277  -15.8842   21.2612 C   0  0  0  0  0  0  0  0  0  0  0  0
   10.5707  -17.1134   21.4097 O   0  0  0  0  0  0  0  0  0  0  0  0
   11.6863  -15.3087   22.2195 N   0  0  0  0  0  0  0  0  0  0  0  0
   12.2853  -16.0968   23.3233 C   0  0  1  0  0  0  0  0  0  0  0  0
   13.5207  -15.4284   23.8147 C   0  0  0  0  0  0  0  0  0  0  0  0
   14.6270  -15.6051   22.8460 C   0  0  0  0  0  0  0  0  0  0  0  0
   14.5148  -16.3932   21.6895 C   0  0  0  0  0  0  0  0  0  0  0  0
   15.6897  -16.3309   21.0482 N   0  0  0  0  0  0  0  0  0  0  0  0
   16.5553  -15.5401   21.7362 C   0  0  0  0  0  0  0  0  0  0  0  0
   15.8733  -15.1243   22.8103 N   0  0  0  0  0  0  0  0  0  0  0  0
   11.2134  -16.2768   24.3223 C   0  0  0  0  0  0  0  0  0  0  0  0
   10.0430  -15.8477   24.2391 O   0  0  0  0  0  0  0  0  0  0  0  0
   11.5168  -16.9993   25.4934 O   0  0  0  0  0  0  0  0  0  0  0  0
  2  1  1  6
  3  4  1  0
  3  2  1  0
  4  5  2  0
  6  2  1  0
  6  7  2  0
  8  4  1  0
 10  9  1  1
 10 12  1  0
 11 10  1  0
 13 12  1  1
 13 14  1  0
 14  6  1  0
 15 13  1  0
 16 15  2  0
 17 15  1  0
 18 25  1  0
 18 17  1  0
 19 20  1  0
 18 19  1  1
 20 24  1  0
 20 21  2  0
 21 22  1  0
 23 22  1  0
 24 23  2  0
 25 27  1  0
 26 25  2  0
M  END
$$$$
