KLG.pdb
     RDKit          3D

 22 21  0  0  1  0  0  0  0  0999 V2000
   18.0001   -8.0796  -18.7032 N   0  0  0  0  0  0  0  0  0  0  0  0
   18.6148   -8.0309  -17.4203 C   0  0  1  0  0  0  0  0  0  0  0  0
   19.1698   -9.3332  -17.0083 C   0  0  0  0  0  0  0  0  0  0  0  0
   18.0961  -10.3710  -16.8706 C   0  0  0  0  0  0  0  0  0  0  0  0
   18.5519  -11.7224  -16.4111 C   0  0  0  0  0  0  0  0  0  0  0  0
   17.4741  -12.7827  -16.5032 C   0  0  0  0  0  0  0  0  0  0  0  0
   18.0350  -14.0515  -16.1435 N   0  0  0  0  0  0  0  0  0  0  0  0
   19.6353   -6.9204  -17.3650 C   0  0  0  0  0  0  0  0  0  0  0  0
   20.3783   -6.7237  -18.3503 O   0  0  0  0  0  0  0  0  0  0  0  0
   20.2000   -2.9711  -18.7538 C   0  0  0  0  0  0  0  0  0  0  0  0
   19.3264   -3.3059  -17.6185 C   0  0  2  0  0  0  0  0  0  0  0  0
   18.4446   -2.0643  -17.3136 C   0  0  0  0  0  0  0  0  0  0  0  0
   19.8539   -3.7589  -16.3434 C   0  0  0  0  0  0  0  0  0  0  0  0
   20.6985   -4.9494  -16.1821 C   0  0  2  0  0  0  0  0  0  0  0  0
   19.7557   -6.1055  -16.2117 N   0  0  0  0  0  0  0  0  0  0  0  0
   21.3551   -5.0198  -14.8791 C   0  0  0  0  0  0  0  0  0  0  0  0
   22.1934   -4.1697  -14.5027 O   0  0  0  0  0  0  0  0  0  0  0  0
   21.0476   -6.0867  -13.9876 N   0  0  0  0  0  0  0  0  0  0  0  0
   21.6659   -6.1413  -12.6603 C   0  0  0  0  0  0  0  0  0  0  0  0
   21.2143   -7.2755  -11.8531 C   0  0  0  0  0  0  0  0  0  0  0  0
   20.3143   -8.1612  -12.4620 O   0  0  0  0  0  0  0  0  0  0  0  0
   21.5391   -7.5441  -10.6845 O   0  0  0  0  0  0  0  0  0  0  0  0
  2  8  1  0
  2  1  1  6
  3  2  1  0
  4  3  1  0
  5  4  1  0
  6  5  1  0
  7  6  1  0
  8  9  2  0
 11 12  1  1
 11 10  1  0
 13 11  1  0
 14 13  1  1
 15 14  1  0
 15  8  1  0
 16 14  1  0
 17 16  2  0
 18 16  1  0
 19 18  1  0
 20 19  1  0
 20 21  1  0
 22 20  2  0
M  END
$$$$
