KLG.pdb
     RDKit          3D

 22 21  0  0  1  0  0  0  0  0999 V2000
   28.1662  -20.5906  -15.0138 N   0  0  0  0  0  0  0  0  0  0  0  0
   27.7825  -19.6787  -13.9906 C   0  0  1  0  0  0  0  0  0  0  0  0
   27.0115  -18.5350  -14.5111 C   0  0  0  0  0  0  0  0  0  0  0  0
   27.0310  -18.4937  -16.0101 C   0  0  0  0  0  0  0  0  0  0  0  0
   25.8475  -19.1073  -16.6939 C   0  0  0  0  0  0  0  0  0  0  0  0
   25.8687  -18.9370  -18.1988 C   0  0  0  0  0  0  0  0  0  0  0  0
   25.7783  -17.5416  -18.5125 N   0  0  0  0  0  0  0  0  0  0  0  0
   27.0666  -20.4039  -12.8774 C   0  0  0  0  0  0  0  0  0  0  0  0
   26.5383  -21.5121  -13.1107 O   0  0  0  0  0  0  0  0  0  0  0  0
   26.6509  -19.6083   -6.7307 C   0  0  0  0  0  0  0  0  0  0  0  0
   26.5698  -20.4951   -7.9016 C   0  0  2  0  0  0  0  0  0  0  0  0
   27.4386  -21.7491   -7.6105 C   0  0  0  0  0  0  0  0  0  0  0  0
   26.9265  -20.0485   -9.2368 C   0  0  0  0  0  0  0  0  0  0  0  0
   26.3102  -20.5649  -10.4657 C   0  0  2  0  0  0  0  0  0  0  0  0
   26.9901  -19.8407  -11.5791 N   0  0  0  0  0  0  0  0  0  0  0  0
   24.8954  -20.2235  -10.5900 C   0  0  0  0  0  0  0  0  0  0  0  0
   24.3774  -19.2693   -9.9670 O   0  0  0  0  0  0  0  0  0  0  0  0
   24.0538  -20.9914  -11.4444 N   0  0  0  0  0  0  0  0  0  0  0  0
   22.6243  -20.6851  -11.5423 C   0  0  0  0  0  0  0  0  0  0  0  0
   21.9272  -21.4744  -12.5587 C   0  0  0  0  0  0  0  0  0  0  0  0
   20.5503  -21.2487  -12.6944 O   0  0  0  0  0  0  0  0  0  0  0  0
   22.4189  -22.3255  -13.3183 O   0  0  0  0  0  0  0  0  0  0  0  0
  2  8  1  0
  2  1  1  6
  3  2  1  0
  4  3  1  0
  5  4  1  0
  6  5  1  0
  7  6  1  0
  8  9  2  0
 11 12  1  1
 11 10  1  0
 13 11  1  0
 14 13  1  1
 15 14  1  0
 15  8  1  0
 16 14  1  0
 17 16  2  0
 18 16  1  0
 19 18  1  0
 20 19  1  0
 20 21  1  0
 22 20  2  0
M  END
$$$$
