KLG.pdb
     RDKit          3D

 22 21  0  0  1  0  0  0  0  0999 V2000
   21.5528  -18.7886  -14.3207 N   0  0  0  0  0  0  0  0  0  0  0  0
   22.3784  -19.7857  -14.9123 C   0  0  1  0  0  0  0  0  0  0  0  0
   22.3818  -19.7176  -16.3851 C   0  0  0  0  0  0  0  0  0  0  0  0
   21.5804  -20.8314  -16.9901 C   0  0  0  0  0  0  0  0  0  0  0  0
   20.4541  -21.3535  -16.1510 C   0  0  0  0  0  0  0  0  0  0  0  0
   19.6348  -22.4224  -16.8441 C   0  0  0  0  0  0  0  0  0  0  0  0
   18.6143  -22.8825  -15.9493 N   0  0  0  0  0  0  0  0  0  0  0  0
   23.7679  -19.7382  -14.3251 C   0  0  0  0  0  0  0  0  0  0  0  0
   24.4563  -18.7050  -14.4672 O   0  0  0  0  0  0  0  0  0  0  0  0
   25.7408  -19.0980  -10.3262 C   0  0  0  0  0  0  0  0  0  0  0  0
   25.1066  -20.3757  -10.6860 C   0  0  2  0  0  0  0  0  0  0  0  0
   25.0197  -21.2430   -9.4006 C   0  0  0  0  0  0  0  0  0  0  0  0
   25.6376  -21.2369  -11.7280 C   0  0  0  0  0  0  0  0  0  0  0  0
   25.7081  -20.8603  -13.1457 C   0  0  2  0  0  0  0  0  0  0  0  0
   24.2931  -20.8491  -13.6189 N   0  0  0  0  0  0  0  0  0  0  0  0
   26.3847  -21.8546  -13.9747 C   0  0  0  0  0  0  0  0  0  0  0  0
   26.4168  -23.0695  -13.6747 O   0  0  0  0  0  0  0  0  0  0  0  0
   27.0406  -21.4506  -15.1723 N   0  0  0  0  0  0  0  0  0  0  0  0
   27.7494  -22.4349  -15.9942 C   0  0  0  0  0  0  0  0  0  0  0  0
   28.2950  -21.8762  -17.2320 C   0  0  0  0  0  0  0  0  0  0  0  0
   27.9298  -20.5584  -17.5410 O   0  0  0  0  0  0  0  0  0  0  0  0
   29.0481  -22.4392  -18.0438 O   0  0  0  0  0  0  0  0  0  0  0  0
  2  8  1  0
  2  1  1  1
  3  2  1  0
  4  3  1  0
  5  4  1  0
  6  5  1  0
  7  6  1  0
  8  9  2  0
 11 12  1  1
 11 10  1  0
 13 11  1  0
 14 13  1  1
 15 14  1  0
 15  8  1  0
 16 14  1  0
 17 16  2  0
 18 16  1  0
 19 18  1  0
 20 19  1  0
 20 21  1  0
 22 20  2  0
M  END
$$$$
