KLG.pdb
     RDKit          3D

 22 21  0  0  1  0  0  0  0  0999 V2000
   28.5410  -20.9090  -13.4256 N   0  0  0  0  0  0  0  0  0  0  0  0
   27.6683  -20.0348  -12.7184 C   0  0  1  0  0  0  0  0  0  0  0  0
   26.6345  -19.4422  -13.5866 C   0  0  0  0  0  0  0  0  0  0  0  0
   27.2090  -18.9842  -14.8939 C   0  0  0  0  0  0  0  0  0  0  0  0
   27.0503  -19.9327  -16.0429 C   0  0  0  0  0  0  0  0  0  0  0  0
   27.4394  -19.3299  -17.3769 C   0  0  0  0  0  0  0  0  0  0  0  0
   27.3963  -20.3511  -18.3814 N   0  0  0  0  0  0  0  0  0  0  0  0
   27.0856  -20.7310  -11.5128 C   0  0  0  0  0  0  0  0  0  0  0  0
   26.8828  -21.9633  -11.5576 O   0  0  0  0  0  0  0  0  0  0  0  0
   28.6670  -20.9185   -6.9708 C   0  0  0  0  0  0  0  0  0  0  0  0
   27.9378  -19.7435   -7.4725 C   0  0  2  0  0  0  0  0  0  0  0  0
   27.8927  -18.6888   -6.3333 C   0  0  0  0  0  0  0  0  0  0  0  0
   26.5878  -19.8374   -7.9996 C   0  0  0  0  0  0  0  0  0  0  0  0
   26.2092  -20.6857   -9.1370 C   0  0  2  0  0  0  0  0  0  0  0  0
   26.7694  -20.0021  -10.3392 N   0  0  0  0  0  0  0  0  0  0  0  0
   24.7668  -20.7414   -9.3614 C   0  0  0  0  0  0  0  0  0  0  0  0
   23.9738  -21.2174   -8.5179 O   0  0  0  0  0  0  0  0  0  0  0  0
   24.2194  -20.2433  -10.5780 N   0  0  0  0  0  0  0  0  0  0  0  0
   22.7687  -20.2274  -10.7830 C   0  0  0  0  0  0  0  0  0  0  0  0
   22.3254  -21.0904  -11.8789 C   0  0  0  0  0  0  0  0  0  0  0  0
   20.9602  -21.0528  -12.1953 O   0  0  0  0  0  0  0  0  0  0  0  0
   23.0241  -21.8559  -12.5636 O   0  0  0  0  0  0  0  0  0  0  0  0
  2  8  1  0
  2  1  1  6
  3  2  1  0
  4  3  1  0
  5  4  1  0
  6  5  1  0
  7  6  1  0
  8  9  2  0
 11 12  1  1
 11 10  1  0
 13 11  1  0
 14 13  1  1
 15 14  1  0
 15  8  1  0
 16 14  1  0
 17 16  2  0
 18 16  1  0
 19 18  1  0
 20 19  1  0
 20 21  1  0
 22 20  2  0
M  END
$$$$
