KLG.pdb
     RDKit          3D

 22 21  0  0  1  0  0  0  0  0999 V2000
   26.3182  -18.2879  -13.0455 N   0  0  0  0  0  0  0  0  0  0  0  0
   26.8886  -19.5823  -13.2033 C   0  0  1  0  0  0  0  0  0  0  0  0
   28.2817  -19.5328  -13.6832 C   0  0  0  0  0  0  0  0  0  0  0  0
   28.3994  -18.7431  -14.9527 C   0  0  0  0  0  0  0  0  0  0  0  0
   28.5931  -19.5456  -16.2031 C   0  0  0  0  0  0  0  0  0  0  0  0
   28.7122  -18.6943  -17.4503 C   0  0  0  0  0  0  0  0  0  0  0  0
   28.8310  -19.5522  -18.5920 N   0  0  0  0  0  0  0  0  0  0  0  0
   26.7395  -20.3840  -11.9333 C   0  0  0  0  0  0  0  0  0  0  0  0
   27.0975  -21.5812  -11.9211 O   0  0  0  0  0  0  0  0  0  0  0  0
   28.6438  -20.8341   -7.9248 C   0  0  0  0  0  0  0  0  0  0  0  0
   27.7238  -19.7023   -8.1167 C   0  0  2  0  0  0  0  0  0  0  0  0
   27.7870  -18.8159   -6.8429 C   0  0  0  0  0  0  0  0  0  0  0  0
   26.3154  -19.8920   -8.4162 C   0  0  0  0  0  0  0  0  0  0  0  0
   25.8180  -20.6263   -9.5867 C   0  0  2  0  0  0  0  0  0  0  0  0
   26.2004  -19.7926  -10.7636 N   0  0  0  0  0  0  0  0  0  0  0  0
   24.3609  -20.7176   -9.6352 C   0  0  0  0  0  0  0  0  0  0  0  0
   23.6952  -21.3056   -8.7531 O   0  0  0  0  0  0  0  0  0  0  0  0
   23.6496  -20.1250  -10.7171 N   0  0  0  0  0  0  0  0  0  0  0  0
   22.1853  -20.1667  -10.7490 C   0  0  0  0  0  0  0  0  0  0  0  0
   21.6508  -21.2311  -11.5995 C   0  0  0  0  0  0  0  0  0  0  0  0
   20.2591  -21.2644  -11.7644 O   0  0  0  0  0  0  0  0  0  0  0  0
   22.2928  -22.1124  -12.1947 O   0  0  0  0  0  0  0  0  0  0  0  0
  2  8  1  0
  2  1  1  1
  3  2  1  0
  4  3  1  0
  5  4  1  0
  6  5  1  0
  7  6  1  0
  8  9  2  0
 11 12  1  1
 11 10  1  0
 13 11  1  0
 14 13  1  1
 15 14  1  0
 15  8  1  0
 16 14  1  0
 17 16  2  0
 18 16  1  0
 19 18  1  0
 20 19  1  0
 20 21  1  0
 22 20  2  0
M  END
$$$$
