KLG.pdb
     RDKit          3D

 22 21  0  0  1  0  0  0  0  0999 V2000
   22.1612  -14.8830  -19.6934 N   0  0  0  0  0  0  0  0  0  0  0  0
   22.2908  -13.4940  -19.9755 C   0  0  1  0  0  0  0  0  0  0  0  0
   21.2335  -12.9976  -20.8751 C   0  0  0  0  0  0  0  0  0  0  0  0
   21.5566  -13.2777  -22.3125 C   0  0  0  0  0  0  0  0  0  0  0  0
   22.5456  -12.3503  -22.9502 C   0  0  0  0  0  0  0  0  0  0  0  0
   22.7730  -12.6341  -24.4206 C   0  0  0  0  0  0  0  0  0  0  0  0
   23.7222  -11.6928  -24.9369 N   0  0  0  0  0  0  0  0  0  0  0  0
   22.3840  -12.7008  -18.6949 C   0  0  0  0  0  0  0  0  0  0  0  0
   21.6937  -13.0448  -17.7116 O   0  0  0  0  0  0  0  0  0  0  0  0
   26.7007  -10.3121  -15.4079 C   0  0  0  0  0  0  0  0  0  0  0  0
   25.2879  -10.1701  -15.7922 C   0  0  2  0  0  0  0  0  0  0  0  0
   24.4231  -10.4055  -14.5238 C   0  0  0  0  0  0  0  0  0  0  0  0
   24.6901  -10.9649  -16.8507 C   0  0  0  0  0  0  0  0  0  0  0  0
   23.3214  -10.7725  -17.3468 C   0  0  2  0  0  0  0  0  0  0  0  0
   23.2425  -11.5771  -18.6009 N   0  0  0  0  0  0  0  0  0  0  0  0
   23.0415   -9.3973  -17.7520 C   0  0  0  0  0  0  0  0  0  0  0  0
   23.6870   -8.8187  -18.6551 O   0  0  0  0  0  0  0  0  0  0  0  0
   22.0017   -8.6670  -17.1092 N   0  0  0  0  0  0  0  0  0  0  0  0
   21.7203   -7.2833  -17.5007 C   0  0  0  0  0  0  0  0  0  0  0  0
   22.3100   -6.2914  -16.6005 C   0  0  0  0  0  0  0  0  0  0  0  0
   22.1938   -4.9478  -16.9834 O   0  0  0  0  0  0  0  0  0  0  0  0
   22.9045   -6.5053  -15.5309 O   0  0  0  0  0  0  0  0  0  0  0  0
  2  8  1  0
  2  1  1  1
  3  2  1  0
  4  3  1  0
  5  4  1  0
  6  5  1  0
  7  6  1  0
  8  9  2  0
 11 12  1  1
 11 10  1  0
 13 11  1  0
 14 13  1  6
 15 14  1  0
 15  8  1  0
 16 14  1  0
 17 16  2  0
 18 16  1  0
 19 18  1  0
 20 19  1  0
 20 21  1  0
 22 20  2  0
M  END
$$$$
