KLG.pdb
     RDKit          3D

 22 21  0  0  1  0  0  0  0  0999 V2000
   28.1250  -20.7603  -13.8778 N   0  0  0  0  0  0  0  0  0  0  0  0
   27.3603  -19.8526  -13.0923 C   0  0  1  0  0  0  0  0  0  0  0  0
   26.3753  -19.1019  -13.8923 C   0  0  0  0  0  0  0  0  0  0  0  0
   27.0446  -18.2135  -14.8982 C   0  0  0  0  0  0  0  0  0  0  0  0
   27.1397  -18.7614  -16.2895 C   0  0  0  0  0  0  0  0  0  0  0  0
   27.8563  -17.8362  -17.2512 C   0  0  0  0  0  0  0  0  0  0  0  0
   27.8666  -18.4333  -18.5539 N   0  0  0  0  0  0  0  0  0  0  0  0
   26.7336  -20.5665  -11.9195 C   0  0  0  0  0  0  0  0  0  0  0  0
   26.4617  -21.7821  -12.0186 O   0  0  0  0  0  0  0  0  0  0  0  0
   28.6217  -20.9060   -7.6609 C   0  0  0  0  0  0  0  0  0  0  0  0
   27.8121  -19.7141   -7.9575 C   0  0  2  0  0  0  0  0  0  0  0  0
   27.8450  -18.7927   -6.7076 C   0  0  0  0  0  0  0  0  0  0  0  0
   26.4210  -19.8052   -8.3647 C   0  0  0  0  0  0  0  0  0  0  0  0
   25.9524  -20.5952   -9.5105 C   0  0  2  0  0  0  0  0  0  0  0  0
   26.4537  -19.8726  -10.7159 N   0  0  0  0  0  0  0  0  0  0  0  0
   24.4980  -20.6099   -9.6462 C   0  0  0  0  0  0  0  0  0  0  0  0
   23.7499  -21.1492   -8.7997 O   0  0  0  0  0  0  0  0  0  0  0  0
   23.8856  -19.9957  -10.7756 N   0  0  0  0  0  0  0  0  0  0  0  0
   22.4269  -19.9920  -10.9136 C   0  0  0  0  0  0  0  0  0  0  0  0
   21.9180  -21.0780  -11.7524 C   0  0  0  0  0  0  0  0  0  0  0  0
   20.5404  -21.0782  -12.0127 O   0  0  0  0  0  0  0  0  0  0  0  0
   22.5705  -22.0039  -12.2623 O   0  0  0  0  0  0  0  0  0  0  0  0
  2  8  1  0
  2  1  1  6
  3  2  1  0
  4  3  1  0
  5  4  1  0
  6  5  1  0
  7  6  1  0
  8  9  2  0
 11 12  1  1
 11 10  1  0
 13 11  1  0
 14 13  1  1
 15 14  1  0
 15  8  1  0
 16 14  1  0
 17 16  2  0
 18 16  1  0
 19 18  1  0
 20 19  1  0
 20 21  1  0
 22 20  2  0
M  END
$$$$
