KLG.pdb
     RDKit          3D

 22 21  0  0  1  0  0  0  0  0999 V2000
   33.3997  -25.7796  -15.2243 N   0  0  0  0  0  0  0  0  0  0  0  0
   33.1371  -24.4363  -15.6146 C   0  0  1  0  0  0  0  0  0  0  0  0
   33.4727  -24.1810  -17.0274 C   0  0  0  0  0  0  0  0  0  0  0  0
   33.9833  -25.4177  -17.7046 C   0  0  0  0  0  0  0  0  0  0  0  0
   34.4232  -25.2469  -19.1267 C   0  0  0  0  0  0  0  0  0  0  0  0
   34.9643  -26.5196  -19.7446 C   0  0  0  0  0  0  0  0  0  0  0  0
   35.3520  -26.2536  -21.0984 N   0  0  0  0  0  0  0  0  0  0  0  0
   31.7162  -24.0558  -15.2768 C   0  0  0  0  0  0  0  0  0  0  0  0
   30.8259  -24.9322  -15.3049 O   0  0  0  0  0  0  0  0  0  0  0  0
   29.8644  -22.8243  -11.1403 C   0  0  0  0  0  0  0  0  0  0  0  0
   30.6910  -21.9412  -11.9775 C   0  0  2  0  0  0  0  0  0  0  0  0
   31.0168  -20.6680  -11.1497 C   0  0  0  0  0  0  0  0  0  0  0  0
   30.2540  -21.4815  -13.2840 C   0  0  0  0  0  0  0  0  0  0  0  0
   30.0263  -22.3695  -14.4313 C   0  0  2  0  0  0  0  0  0  0  0  0
   31.3876  -22.7213  -14.9307 N   0  0  0  0  0  0  0  0  0  0  0  0
   29.3630  -21.7073  -15.5518 C   0  0  0  0  0  0  0  0  0  0  0  0
   29.9929  -21.0548  -16.4146 O   0  0  0  0  0  0  0  0  0  0  0  0
   27.9480  -21.7916  -15.6877 N   0  0  0  0  0  0  0  0  0  0  0  0
   27.2713  -21.1162  -16.7980 C   0  0  0  0  0  0  0  0  0  0  0  0
   25.8249  -21.3385  -16.8208 C   0  0  0  0  0  0  0  0  0  0  0  0
   25.0979  -20.6442  -17.7979 O   0  0  0  0  0  0  0  0  0  0  0  0
   25.1649  -22.0755  -16.0696 O   0  0  0  0  0  0  0  0  0  0  0  0
  2  8  1  0
  2  1  1  6
  3  2  1  0
  4  3  1  0
  5  4  1  0
  6  5  1  0
  7  6  1  0
  8  9  2  0
 11 12  1  1
 11 10  1  0
 13 11  1  0
 14 13  1  1
 15 14  1  0
 15  8  1  0
 16 14  1  0
 17 16  2  0
 18 16  1  0
 19 18  1  0
 20 19  1  0
 20 21  1  0
 22 20  2  0
M  END
$$$$
