KLG.pdb
     RDKit          3D

 22 21  0  0  1  0  0  0  0  0999 V2000
   19.2888  -10.5228  -18.1935 N   0  0  0  0  0  0  0  0  0  0  0  0
   18.4753  -10.4788  -17.0264 C   0  0  1  0  0  0  0  0  0  0  0  0
   17.8961  -11.7922  -16.6898 C   0  0  0  0  0  0  0  0  0  0  0  0
   17.0014  -12.2963  -17.7826 C   0  0  0  0  0  0  0  0  0  0  0  0
   16.3756  -13.6368  -17.5454 C   0  0  0  0  0  0  0  0  0  0  0  0
   15.4677  -14.0834  -18.6727 C   0  0  0  0  0  0  0  0  0  0  0  0
   14.8323  -15.3131  -18.3017 N   0  0  0  0  0  0  0  0  0  0  0  0
   19.2351   -9.8664  -15.8751 C   0  0  0  0  0  0  0  0  0  0  0  0
   18.7164   -9.8544  -14.7383 O   0  0  0  0  0  0  0  0  0  0  0  0
   22.7588  -11.3218  -13.5809 C   0  0  0  0  0  0  0  0  0  0  0  0
   22.9964  -10.6346  -14.8598 C   0  0  2  0  0  0  0  0  0  0  0  0
   24.5070  -10.7643  -15.1967 C   0  0  0  0  0  0  0  0  0  0  0  0
   22.6474   -9.2399  -15.0655 C   0  0  0  0  0  0  0  0  0  0  0  0
   21.2841   -8.7089  -14.9390 C   0  0  2  0  0  0  0  0  0  0  0  0
   20.5230   -9.3092  -16.0734 N   0  0  0  0  0  0  0  0  0  0  0  0
   21.2054   -7.2646  -15.1424 C   0  0  0  0  0  0  0  0  0  0  0  0
   21.5081   -6.7219  -16.2291 O   0  0  0  0  0  0  0  0  0  0  0  0
   20.7725   -6.4219  -14.0792 N   0  0  0  0  0  0  0  0  0  0  0  0
   20.7703   -4.9661  -14.2450 C   0  0  0  0  0  0  0  0  0  0  0  0
   21.9676   -4.3166  -13.7095 C   0  0  0  0  0  0  0  0  0  0  0  0
   22.0440   -2.9241  -13.8521 O   0  0  0  0  0  0  0  0  0  0  0  0
   22.9282   -4.8612  -13.1405 O   0  0  0  0  0  0  0  0  0  0  0  0
  2  8  1  0
  2  1  1  6
  3  2  1  0
  4  3  1  0
  5  4  1  0
  6  5  1  0
  7  6  1  0
  8  9  2  0
 11 12  1  1
 11 10  1  0
 13 11  1  0
 14 13  1  6
 15 14  1  0
 15  8  1  0
 16 14  1  0
 17 16  2  0
 18 16  1  0
 19 18  1  0
 20 19  1  0
 20 21  1  0
 22 20  2  0
M  END
$$$$
