KLG.pdb
     RDKit          3D

 22 21  0  0  1  0  0  0  0  0999 V2000
   18.5696  -10.0603  -18.0391 N   0  0  0  0  0  0  0  0  0  0  0  0
   17.9164  -10.2870  -16.7951 C   0  0  1  0  0  0  0  0  0  0  0  0
   17.6327  -11.7138  -16.5560 C   0  0  0  0  0  0  0  0  0  0  0  0
   17.1667  -12.4000  -17.8054 C   0  0  0  0  0  0  0  0  0  0  0  0
   15.6824  -12.5345  -17.9595 C   0  0  0  0  0  0  0  0  0  0  0  0
   15.2756  -13.3272  -19.1844 C   0  0  0  0  0  0  0  0  0  0  0  0
   16.2855  -14.3044  -19.4653 N   0  0  0  0  0  0  0  0  0  0  0  0
   18.6922   -9.6517  -15.6671 C   0  0  0  0  0  0  0  0  0  0  0  0
   18.2909   -9.7957  -14.4925 O   0  0  0  0  0  0  0  0  0  0  0  0
   22.4238  -10.6537  -13.3064 C   0  0  0  0  0  0  0  0  0  0  0  0
   22.5063  -10.1477  -14.6853 C   0  0  2  0  0  0  0  0  0  0  0  0
   23.9892  -10.2381  -15.1380 C   0  0  0  0  0  0  0  0  0  0  0  0
   22.0448   -8.8202  -15.0514 C   0  0  0  0  0  0  0  0  0  0  0  0
   20.6797   -8.3330  -14.8155 C   0  0  2  0  0  0  0  0  0  0  0  0
   19.8639   -8.8986  -15.9294 N   0  0  0  0  0  0  0  0  0  0  0  0
   20.5537   -6.8832  -14.9420 C   0  0  0  0  0  0  0  0  0  0  0  0
   21.2190   -6.0874  -14.2412 O   0  0  0  0  0  0  0  0  0  0  0  0
   19.6455   -6.3311  -15.8898 N   0  0  0  0  0  0  0  0  0  0  0  0
   19.4924   -4.8785  -16.0064 C   0  0  0  0  0  0  0  0  0  0  0  0
   18.4291   -4.3347  -15.1603 C   0  0  0  0  0  0  0  0  0  0  0  0
   18.2349   -2.9472  -15.2095 O   0  0  0  0  0  0  0  0  0  0  0  0
   17.6758   -4.9653  -14.4002 O   0  0  0  0  0  0  0  0  0  0  0  0
  2  8  1  0
  2  1  1  6
  3  2  1  0
  4  3  1  0
  5  4  1  0
  6  5  1  0
  7  6  1  0
  8  9  2  0
 11 12  1  1
 11 10  1  0
 13 11  1  0
 14 13  1  6
 15 14  1  0
 15  8  1  0
 16 14  1  0
 17 16  2  0
 18 16  1  0
 19 18  1  0
 20 19  1  0
 20 21  1  0
 22 20  2  0
M  END
$$$$
