KLG.pdb
     RDKit          3D

 22 21  0  0  1  0  0  0  0  0999 V2000
   26.2238  -19.0490  -14.2326 N   0  0  0  0  0  0  0  0  0  0  0  0
   27.2556  -20.0290  -14.2044 C   0  0  1  0  0  0  0  0  0  0  0  0
   28.5243  -19.5322  -14.7678 C   0  0  0  0  0  0  0  0  0  0  0  0
   28.3670  -19.1211  -16.2014 C   0  0  0  0  0  0  0  0  0  0  0  0
   27.7135  -17.7923  -16.4298 C   0  0  0  0  0  0  0  0  0  0  0  0
   27.6500  -17.3979  -17.8909 C   0  0  0  0  0  0  0  0  0  0  0  0
   27.0305  -16.1103  -18.0008 N   0  0  0  0  0  0  0  0  0  0  0  0
   27.4172  -20.5866  -12.8113 C   0  0  0  0  0  0  0  0  0  0  0  0
   28.2294  -21.5159  -12.6156 O   0  0  0  0  0  0  0  0  0  0  0  0
   26.9531  -19.0552   -6.9519 C   0  0  0  0  0  0  0  0  0  0  0  0
   27.0709  -20.0786   -8.0021 C   0  0  2  0  0  0  0  0  0  0  0  0
   28.4898  -20.7021   -7.9026 C   0  0  0  0  0  0  0  0  0  0  0  0
   26.8521  -19.7760   -9.4056 C   0  0  0  0  0  0  0  0  0  0  0  0
   26.5789  -20.7919  -10.4302 C   0  0  2  0  0  0  0  0  0  0  0  0
   26.6598  -20.0671  -11.7319 N   0  0  0  0  0  0  0  0  0  0  0  0
   25.2199  -21.3241  -10.3683 C   0  0  0  0  0  0  0  0  0  0  0  0
   24.8526  -22.1263   -9.4803 O   0  0  0  0  0  0  0  0  0  0  0  0
   24.2603  -20.9317  -11.3445 N   0  0  0  0  0  0  0  0  0  0  0  0
   22.9065  -21.4915  -11.3157 C   0  0  0  0  0  0  0  0  0  0  0  0
   22.1018  -21.0135  -10.1906 C   0  0  0  0  0  0  0  0  0  0  0  0
   20.8276  -21.5793  -10.0442 O   0  0  0  0  0  0  0  0  0  0  0  0
   22.4208  -20.1596   -9.3466 O   0  0  0  0  0  0  0  0  0  0  0  0
  2  8  1  0
  2  1  1  1
  3  2  1  0
  4  3  1  0
  5  4  1  0
  6  5  1  0
  7  6  1  0
  8  9  2  0
 11 12  1  6
 11 10  1  0
 13 11  1  0
 14 13  1  1
 15 14  1  0
 15  8  1  0
 16 14  1  0
 17 16  2  0
 18 16  1  0
 19 18  1  0
 20 19  1  0
 20 21  1  0
 22 20  2  0
M  END
$$$$
