KLG.pdb
     RDKit          3D

 22 21  0  0  1  0  0  0  0  0999 V2000
   22.4257  -21.6576  -15.0563 N   0  0  0  0  0  0  0  0  0  0  0  0
   22.4368  -20.2707  -14.7365 C   0  0  1  0  0  0  0  0  0  0  0  0
   21.2181  -19.8435  -14.0253 C   0  0  0  0  0  0  0  0  0  0  0  0
   19.9812  -20.1618  -14.8113 C   0  0  0  0  0  0  0  0  0  0  0  0
   19.6260  -21.6143  -14.9064 C   0  0  0  0  0  0  0  0  0  0  0  0
   18.3641  -21.8726  -15.7036 C   0  0  0  0  0  0  0  0  0  0  0  0
   17.3175  -22.2659  -14.8072 N   0  0  0  0  0  0  0  0  0  0  0  0
   23.7000  -19.9097  -13.9936 C   0  0  0  0  0  0  0  0  0  0  0  0
   23.8866  -18.7239  -13.6460 O   0  0  0  0  0  0  0  0  0  0  0  0
   25.0218  -19.4112   -9.9886 C   0  0  0  0  0  0  0  0  0  0  0  0
   24.9005  -20.7436  -10.6001 C   0  0  2  0  0  0  0  0  0  0  0  0
   24.9815  -21.7987   -9.4632 C   0  0  0  0  0  0  0  0  0  0  0  0
   25.7972  -21.1987  -11.6481 C   0  0  0  0  0  0  0  0  0  0  0  0
   25.9216  -20.5495  -12.9594 C   0  0  2  0  0  0  0  0  0  0  0  0
   24.6684  -20.8989  -13.6901 N   0  0  0  0  0  0  0  0  0  0  0  0
   27.0069  -21.0926  -13.7724 C   0  0  0  0  0  0  0  0  0  0  0  0
   28.2100  -20.9881  -13.4429 O   0  0  0  0  0  0  0  0  0  0  0  0
   26.7099  -21.7687  -14.9900 N   0  0  0  0  0  0  0  0  0  0  0  0
   27.7929  -22.2880  -15.8293 C   0  0  0  0  0  0  0  0  0  0  0  0
   27.9430  -21.5715  -17.0966 C   0  0  0  0  0  0  0  0  0  0  0  0
   28.8948  -22.0751  -17.9943 O   0  0  0  0  0  0  0  0  0  0  0  0
   27.3202  -20.5633  -17.4693 O   0  0  0  0  0  0  0  0  0  0  0  0
  2  8  1  0
  2  1  1  1
  3  2  1  0
  4  3  1  0
  5  4  1  0
  6  5  1  0
  7  6  1  0
  8  9  2  0
 11 12  1  1
 11 10  1  0
 13 11  1  0
 14 13  1  1
 15 14  1  0
 15  8  1  0
 16 14  1  0
 17 16  2  0
 18 16  1  0
 19 18  1  0
 20 19  1  0
 20 21  1  0
 22 20  2  0
M  END
$$$$
