VYR.pdb
     RDKit          3D

 31 31  0  0  1  0  0  0  0  0999 V2000
   43.3431   -7.2634  -10.9680 C   0  0  0  0  0  0  0  0  0  0  0  0
   42.5999   -6.9584   -9.6827 C   0  0  1  0  0  0  0  0  0  0  0  0
   41.4001   -6.0917   -9.9596 C   0  0  0  0  0  0  0  0  0  0  0  0
   42.2058   -8.2609   -8.9753 C   0  0  2  0  0  0  0  0  0  0  0  0
   41.4078   -8.0037   -7.8179 N   0  0  0  0  0  0  0  0  0  0  0  0
   43.4458   -9.0180   -8.6642 C   0  0  0  0  0  0  0  0  0  0  0  0
   44.1897   -9.4047   -9.6012 O   0  0  0  0  0  0  0  0  0  0  0  0
   50.4196  -11.9063   -3.8514 O   0  0  0  0  0  0  0  0  0  0  0  0
   49.2450  -11.3060   -4.3224 C   0  0  0  0  0  0  0  0  0  0  0  0
   49.2713  -10.4268   -5.3842 C   0  0  0  0  0  0  0  0  0  0  0  0
   48.1044   -9.8296   -5.8532 C   0  0  0  0  0  0  0  0  0  0  0  0
   46.8779  -10.0883   -5.2813 C   0  0  0  0  0  0  0  0  0  0  0  0
   45.6275   -9.4846   -5.7436 C   0  0  0  0  0  0  0  0  0  0  0  0
   45.1008  -10.0370   -7.0339 C   0  0  2  0  0  0  0  0  0  0  0  0
   43.8541   -9.3407   -7.3429 N   0  0  0  0  0  0  0  0  0  0  0  0
   44.9098  -11.4872   -7.0705 C   0  0  0  0  0  0  0  0  0  0  0  0
   43.9540  -11.9954   -6.4099 O   0  0  0  0  0  0  0  0  0  0  0  0
   46.8635  -10.9750   -4.2129 C   0  0  0  0  0  0  0  0  0  0  0  0
   48.0201  -11.5684   -3.7463 C   0  0  0  0  0  0  0  0  0  0  0  0
   44.6774  -18.2711   -8.4922 N   0  0  0  0  0  0  0  0  0  0  0  0
   43.6617  -18.4290   -9.4667 C   0  0  0  0  0  0  0  0  0  0  0  0
   43.0408  -19.5718   -9.6219 N   0  0  0  0  0  0  0  0  0  0  0  0
   43.2573  -17.3715  -10.3264 N   0  0  0  0  0  0  0  0  0  0  0  0
   43.9928  -16.1250  -10.4093 C   0  0  0  0  0  0  0  0  0  0  0  0
   44.3939  -15.6373   -9.0410 C   0  0  0  0  0  0  0  0  0  0  0  0
   45.1621  -14.3658   -9.0594 C   0  0  0  0  0  0  0  0  0  0  0  0
   45.5601  -13.8442   -7.6986 C   0  0  2  0  0  0  0  0  0  0  0  0
   45.7158  -12.4008   -7.7970 N   0  0  0  0  0  0  0  0  0  0  0  0
   46.7489  -14.5046   -7.1602 C   0  0  0  0  0  0  0  0  0  0  0  0
   46.6796  -15.6227   -6.3475 O   0  0  0  0  0  0  0  0  0  0  0  0
   47.9371  -14.0962   -7.4017 O   0  0  0  0  0  0  0  0  0  0  0  0
  2  1  1  6
  3  2  1  0
  4  2  1  0
  4  5  1  1
  6  4  1  0
  7  6  2  0
  8  9  1  0
  9 10  2  0
 10 11  1  0
 12 11  2  0
 12 13  1  0
 14 13  1  1
 14 15  1  0
 15  6  1  0
 16 14  1  0
 16 28  1  0
 17 16  2  0
 18 12  1  0
 19  9  1  0
 19 18  2  0
 20 21  1  0
 21 23  1  0
 21 22  2  0
 23 24  1  0
 24 25  1  0
 25 26  1  0
 27 26  1  6
 27 28  1  0
 29 27  1  0
 30 29  1  0
 31 29  2  0
M  END
$$$$
