VYR.pdb
     RDKit          3D

 31 31  0  0  1  0  0  0  0  0999 V2000
   15.4386   -8.7560  -17.7991 C   0  0  0  0  0  0  0  0  0  0  0  0
   15.7959   -8.5927  -16.3351 C   0  0  1  0  0  0  0  0  0  0  0  0
   14.8897   -9.4319  -15.4738 C   0  0  0  0  0  0  0  0  0  0  0  0
   17.2727   -8.9385  -16.1072 C   0  0  2  0  0  0  0  0  0  0  0  0
   17.5284  -10.3217  -16.3599 N   0  0  0  0  0  0  0  0  0  0  0  0
   17.6423   -8.5262  -14.7284 C   0  0  0  0  0  0  0  0  0  0  0  0
   17.5414   -9.3510  -13.7848 O   0  0  0  0  0  0  0  0  0  0  0  0
   23.5401  -10.6912  -13.6504 O   0  0  0  0  0  0  0  0  0  0  0  0
   22.6361   -9.6326  -13.4959 C   0  0  0  0  0  0  0  0  0  0  0  0
   22.3258   -8.8016  -14.5516 C   0  0  0  0  0  0  0  0  0  0  0  0
   21.4273   -7.7492  -14.3992 C   0  0  0  0  0  0  0  0  0  0  0  0
   20.8111   -7.4916  -13.1941 C   0  0  0  0  0  0  0  0  0  0  0  0
   19.8597   -6.3984  -12.9906 C   0  0  0  0  0  0  0  0  0  0  0  0
   18.4168   -6.8026  -13.0359 C   0  0  2  0  0  0  0  0  0  0  0  0
   18.1139   -7.2275  -14.4006 N   0  0  0  0  0  0  0  0  0  0  0  0
   17.4617   -5.7916  -12.5815 C   0  0  0  0  0  0  0  0  0  0  0  0
   17.1505   -4.8465  -13.3677 O   0  0  0  0  0  0  0  0  0  0  0  0
   21.1311   -8.3345  -12.1382 C   0  0  0  0  0  0  0  0  0  0  0  0
   22.0222   -9.3792  -12.2875 C   0  0  0  0  0  0  0  0  0  0  0  0
   11.4088   -5.6505   -5.8378 N   0  0  0  0  0  0  0  0  0  0  0  0
   11.4056   -4.3809   -6.4659 C   0  0  0  0  0  0  0  0  0  0  0  0
   10.5888   -3.4333   -6.0783 N   0  0  0  0  0  0  0  0  0  0  0  0
   12.2771   -4.0591   -7.5420 N   0  0  0  0  0  0  0  0  0  0  0  0
   13.2784   -4.9899   -8.0242 C   0  0  0  0  0  0  0  0  0  0  0  0
   14.0174   -4.4281   -9.2112 C   0  0  0  0  0  0  0  0  0  0  0  0
   15.0479   -5.3445   -9.7642 C   0  0  0  0  0  0  0  0  0  0  0  0
   15.8154   -4.7987  -10.9454 C   0  0  2  0  0  0  0  0  0  0  0  0
   16.8343   -5.7716  -11.3094 N   0  0  0  0  0  0  0  0  0  0  0  0
   16.3688   -3.4672  -10.6999 C   0  0  0  0  0  0  0  0  0  0  0  0
   17.6992   -3.2577  -10.3811 O   0  0  0  0  0  0  0  0  0  0  0  0
   15.6633   -2.4018  -10.7620 O   0  0  0  0  0  0  0  0  0  0  0  0
  2  1  1  6
  3  2  1  0
  4  2  1  0
  4  5  1  1
  6  4  1  0
  7  6  2  0
  8  9  1  0
  9 10  2  0
 10 11  1  0
 12 11  2  0
 12 13  1  0
 14 13  1  6
 14 15  1  0
 15  6  1  0
 16 14  1  0
 16 28  1  0
 17 16  2  0
 18 12  1  0
 19  9  1  0
 19 18  2  0
 20 21  1  0
 21 23  1  0
 21 22  2  0
 23 24  1  0
 24 25  1  0
 25 26  1  0
 27 26  1  1
 27 28  1  0
 29 27  1  0
 30 29  1  0
 31 29  2  0
M  END
$$$$
