VYR.pdb
     RDKit          3D

 31 31  0  0  1  0  0  0  0  0999 V2000
   26.1336  -15.8036  -20.1634 C   0  0  0  0  0  0  0  0  0  0  0  0
   25.9899  -16.9309  -19.1604 C   0  0  1  0  0  0  0  0  0  0  0  0
   25.2496  -18.0906  -19.7723 C   0  0  0  0  0  0  0  0  0  0  0  0
   27.3676  -17.3530  -18.6350 C   0  0  2  0  0  0  0  0  0  0  0  0
   28.2100  -17.8130  -19.6939 N   0  0  0  0  0  0  0  0  0  0  0  0
   27.1705  -18.3715  -17.5712 C   0  0  0  0  0  0  0  0  0  0  0  0
   27.1624  -19.5920  -17.8728 O   0  0  0  0  0  0  0  0  0  0  0  0
   25.8540  -21.5184   -9.2496 O   0  0  0  0  0  0  0  0  0  0  0  0
   26.2049  -20.7805  -10.3871 C   0  0  0  0  0  0  0  0  0  0  0  0
   27.2386  -21.1831  -11.2060 C   0  0  0  0  0  0  0  0  0  0  0  0
   27.5882  -20.4503  -12.3369 C   0  0  0  0  0  0  0  0  0  0  0  0
   26.9213  -19.2968  -12.6873 C   0  0  0  0  0  0  0  0  0  0  0  0
   27.2542  -18.4979  -13.8674 C   0  0  0  0  0  0  0  0  0  0  0  0
   26.7358  -19.0435  -15.1640 C   0  0  2  0  0  0  0  0  0  0  0  0
   26.9862  -18.0456  -16.2013 N   0  0  0  0  0  0  0  0  0  0  0  0
   25.3306  -19.4512  -15.1624 C   0  0  0  0  0  0  0  0  0  0  0  0
   24.4359  -18.5645  -15.3093 O   0  0  0  0  0  0  0  0  0  0  0  0
   25.8824  -18.9009  -11.8556 C   0  0  0  0  0  0  0  0  0  0  0  0
   25.5341  -19.6265  -10.7332 C   0  0  0  0  0  0  0  0  0  0  0  0
   18.7788  -20.4901  -12.8939 N   0  0  0  0  0  0  0  0  0  0  0  0
   18.9346  -21.4205  -11.8372 C   0  0  0  0  0  0  0  0  0  0  0  0
   17.9348  -22.1643  -11.4339 N   0  0  0  0  0  0  0  0  0  0  0  0
   20.1693  -21.6035  -11.1568 N   0  0  0  0  0  0  0  0  0  0  0  0
   21.3841  -20.9327  -11.5760 C   0  0  0  0  0  0  0  0  0  0  0  0
   21.7669  -21.3262  -12.9795 C   0  0  0  0  0  0  0  0  0  0  0  0
   23.0492  -20.7332  -13.4395 C   0  0  0  0  0  0  0  0  0  0  0  0
   23.4574  -21.1133  -14.8434 C   0  0  2  0  0  0  0  0  0  0  0  0
   24.8647  -20.7822  -15.0088 N   0  0  0  0  0  0  0  0  0  0  0  0
   22.6102  -20.5040  -15.8683 C   0  0  0  0  0  0  0  0  0  0  0  0
   22.8826  -19.2664  -16.4246 O   0  0  0  0  0  0  0  0  0  0  0  0
   21.5576  -21.0710  -16.3235 O   0  0  0  0  0  0  0  0  0  0  0  0
  2  1  1  6
  3  2  1  0
  4  2  1  0
  4  5  1  6
  6  4  1  0
  7  6  2  0
  8  9  1  0
  9 10  2  0
 10 11  1  0
 12 11  2  0
 12 13  1  0
 14 13  1  1
 14 15  1  0
 15  6  1  0
 16 14  1  0
 16 28  1  0
 17 16  2  0
 18 12  1  0
 19  9  1  0
 19 18  2  0
 20 21  1  0
 21 23  1  0
 21 22  2  0
 23 24  1  0
 24 25  1  0
 25 26  1  0
 27 26  1  1
 27 28  1  0
 29 27  1  0
 30 29  1  0
 31 29  2  0
M  END
$$$$
