VYR.pdb
     RDKit          3D

 31 31  0  0  1  0  0  0  0  0999 V2000
   28.4706  -19.9360  -20.0687 C   0  0  0  0  0  0  0  0  0  0  0  0
   27.6590  -20.5779  -18.9612 C   0  0  1  0  0  0  0  0  0  0  0  0
   26.7816  -21.6694  -19.5145 C   0  0  0  0  0  0  0  0  0  0  0  0
   28.5869  -21.1025  -17.8585 C   0  0  2  0  0  0  0  0  0  0  0  0
   29.4358  -22.1445  -18.3444 N   0  0  0  0  0  0  0  0  0  0  0  0
   27.7505  -21.5299  -16.7072 C   0  0  0  0  0  0  0  0  0  0  0  0
   27.5080  -22.7514  -16.5345 O   0  0  0  0  0  0  0  0  0  0  0  0
   23.9119  -21.0864   -8.6372 O   0  0  0  0  0  0  0  0  0  0  0  0
   24.6314  -20.8701   -9.8192 C   0  0  0  0  0  0  0  0  0  0  0  0
   24.1814  -19.9834  -10.7744 C   0  0  0  0  0  0  0  0  0  0  0  0
   24.8958  -19.7677  -11.9497 C   0  0  0  0  0  0  0  0  0  0  0  0
   26.0777  -20.4262  -12.2102 C   0  0  0  0  0  0  0  0  0  0  0  0
   26.8609  -20.2280  -13.4305 C   0  0  0  0  0  0  0  0  0  0  0  0
   26.4162  -21.0478  -14.6042 C   0  0  2  0  0  0  0  0  0  0  0  0
   27.1936  -20.6236  -15.7663 N   0  0  0  0  0  0  0  0  0  0  0  0
   24.9828  -21.0109  -14.8953 C   0  0  0  0  0  0  0  0  0  0  0  0
   24.4770  -19.9384  -15.3449 O   0  0  0  0  0  0  0  0  0  0  0  0
   26.5212  -21.3166  -11.2416 C   0  0  0  0  0  0  0  0  0  0  0  0
   25.8138  -21.5319  -10.0750 C   0  0  0  0  0  0  0  0  0  0  0  0
   17.3410  -22.5823  -12.2574 N   0  0  0  0  0  0  0  0  0  0  0  0
   18.0157  -23.8069  -12.0305 C   0  0  0  0  0  0  0  0  0  0  0  0
   17.3789  -24.9509  -12.0698 N   0  0  0  0  0  0  0  0  0  0  0  0
   19.4078  -23.8712  -11.7497 N   0  0  0  0  0  0  0  0  0  0  0  0
   20.2422  -22.6860  -11.7263 C   0  0  0  0  0  0  0  0  0  0  0  0
   20.6869  -22.3056  -13.1151 C   0  0  0  0  0  0  0  0  0  0  0  0
   22.1557  -22.3959  -13.3198 C   0  0  0  0  0  0  0  0  0  0  0  0
   22.6392  -21.9218  -14.6702 C   0  0  2  0  0  0  0  0  0  0  0  0
   24.0834  -22.0933  -14.7175 N   0  0  0  0  0  0  0  0  0  0  0  0
   22.2232  -20.5535  -14.9767 C   0  0  0  0  0  0  0  0  0  0  0  0
   22.7122  -19.4530  -14.2947 O   0  0  0  0  0  0  0  0  0  0  0  0
   21.3782  -20.2762  -15.8963 O   0  0  0  0  0  0  0  0  0  0  0  0
  2  1  1  6
  3  2  1  0
  4  2  1  0
  4  5  1  6
  6  4  1  0
  7  6  2  0
  8  9  1  0
  9 10  2  0
 10 11  1  0
 12 11  2  0
 12 13  1  0
 14 13  1  1
 14 15  1  0
 15  6  1  0
 16 14  1  0
 16 28  1  0
 17 16  2  0
 18 12  1  0
 19  9  1  0
 19 18  2  0
 20 21  1  0
 21 23  1  0
 21 22  2  0
 23 24  1  0
 24 25  1  0
 25 26  1  0
 27 26  1  1
 27 28  1  0
 29 27  1  0
 30 29  1  0
 31 29  2  0
M  END
$$$$
