VYR.pdb
     RDKit          3D

 31 31  0  0  1  0  0  0  0  0999 V2000
   25.3853  -19.5814  -22.5664 C   0  0  0  0  0  0  0  0  0  0  0  0
   24.4468  -19.7829  -21.3933 C   0  0  1  0  0  0  0  0  0  0  0  0
   23.9321  -21.1978  -21.3662 C   0  0  0  0  0  0  0  0  0  0  0  0
   25.1490  -19.4111  -20.0815 C   0  0  2  0  0  0  0  0  0  0  0  0
   26.3368  -20.1825  -19.8901 N   0  0  0  0  0  0  0  0  0  0  0  0
   24.1755  -19.5657  -18.9697 C   0  0  0  0  0  0  0  0  0  0  0  0
   24.2553  -20.5626  -18.2076 O   0  0  0  0  0  0  0  0  0  0  0  0
   17.8034  -17.2934  -13.0901 O   0  0  0  0  0  0  0  0  0  0  0  0
   18.7753  -17.3218  -14.0983 C   0  0  0  0  0  0  0  0  0  0  0  0
   18.4248  -17.2214  -15.4281 C   0  0  0  0  0  0  0  0  0  0  0  0
   19.3900  -17.2495  -16.4309 C   0  0  0  0  0  0  0  0  0  0  0  0
   20.7310  -17.3780  -16.1422 C   0  0  0  0  0  0  0  0  0  0  0  0
   21.7780  -17.4099  -17.1642 C   0  0  0  0  0  0  0  0  0  0  0  0
   22.1836  -18.7833  -17.6075 C   0  0  2  0  0  0  0  0  0  0  0  0
   23.1349  -18.6359  -18.7066 N   0  0  0  0  0  0  0  0  0  0  0  0
   21.0875  -19.6764  -17.9841 C   0  0  0  0  0  0  0  0  0  0  0  0
   20.5469  -19.5354  -19.1226 O   0  0  0  0  0  0  0  0  0  0  0  0
   21.0723  -17.4783  -14.8001 C   0  0  0  0  0  0  0  0  0  0  0  0
   20.1162  -17.4506  -13.8038 C   0  0  0  0  0  0  0  0  0  0  0  0
   21.2535  -27.8664  -18.6303 N   0  0  0  0  0  0  0  0  0  0  0  0
   21.6118  -26.6188  -19.1973 C   0  0  0  0  0  0  0  0  0  0  0  0
   22.6591  -26.5017  -19.9752 N   0  0  0  0  0  0  0  0  0  0  0  0
   20.8675  -25.4308  -18.9614 N   0  0  0  0  0  0  0  0  0  0  0  0
   19.6544  -25.4293  -18.1677 C   0  0  0  0  0  0  0  0  0  0  0  0
   19.0659  -24.0451  -18.0750 C   0  0  0  0  0  0  0  0  0  0  0  0
   20.0368  -23.0093  -17.6368 C   0  0  0  0  0  0  0  0  0  0  0  0
   19.4945  -21.5994  -17.6138 C   0  0  2  0  0  0  0  0  0  0  0  0
   20.5610  -20.7135  -17.1721 N   0  0  0  0  0  0  0  0  0  0  0  0
   18.2816  -21.4681  -16.8071 C   0  0  0  0  0  0  0  0  0  0  0  0
   17.0873  -22.0788  -17.1480 O   0  0  0  0  0  0  0  0  0  0  0  0
   18.2377  -20.7799  -15.7296 O   0  0  0  0  0  0  0  0  0  0  0  0
  2  1  1  6
  3  2  1  0
  4  2  1  0
  4  5  1  1
  6  4  1  0
  7  6  2  0
  8  9  1  0
  9 10  2  0
 10 11  1  0
 12 11  2  0
 12 13  1  0
 14 13  1  6
 14 15  1  0
 15  6  1  0
 16 14  1  0
 16 28  1  0
 17 16  2  0
 18 12  1  0
 19  9  1  0
 19 18  2  0
 20 21  1  0
 21 23  1  0
 21 22  2  0
 23 24  1  0
 24 25  1  0
 25 26  1  0
 27 26  1  1
 27 28  1  0
 29 27  1  0
 30 29  1  0
 31 29  2  0
M  END
$$$$
