VYR.pdb
     RDKit          3D

 31 31  0  0  1  0  0  0  0  0999 V2000
   14.2431   -8.1857   -8.8214 C   0  0  0  0  0  0  0  0  0  0  0  0
   13.5276   -6.9533   -8.3050 C   0  0  1  0  0  0  0  0  0  0  0  0
   12.5970   -7.3165   -7.1783 C   0  0  0  0  0  0  0  0  0  0  0  0
   14.5452   -5.8885   -7.8774 C   0  0  2  0  0  0  0  0  0  0  0  0
   13.8948   -4.7075   -7.4034 N   0  0  0  0  0  0  0  0  0  0  0  0
   15.4558   -5.6255   -9.0216 C   0  0  0  0  0  0  0  0  0  0  0  0
   15.0496   -4.9407   -9.9948 O   0  0  0  0  0  0  0  0  0  0  0  0
   20.2167   -0.1697  -12.0226 O   0  0  0  0  0  0  0  0  0  0  0  0
   19.8946   -1.3977  -11.4309 C   0  0  0  0  0  0  0  0  0  0  0  0
   19.2308   -1.4539  -10.2237 C   0  0  0  0  0  0  0  0  0  0  0  0
   18.9101   -2.6739   -9.6348 C   0  0  0  0  0  0  0  0  0  0  0  0
   19.2393   -3.8732  -10.2276 C   0  0  0  0  0  0  0  0  0  0  0  0
   18.9199   -5.1770   -9.6448 C   0  0  0  0  0  0  0  0  0  0  0  0
   17.6918   -5.8320  -10.2018 C   0  0  2  0  0  0  0  0  0  0  0  0
   16.7889   -6.1105   -9.0875 N   0  0  0  0  0  0  0  0  0  0  0  0
   17.9232   -7.0375  -10.9981 C   0  0  0  0  0  0  0  0  0  0  0  0
   18.2199   -8.1169  -10.4021 O   0  0  0  0  0  0  0  0  0  0  0  0
   19.9076   -3.8045  -11.4428 C   0  0  0  0  0  0  0  0  0  0  0  0
   20.2266   -2.5951  -12.0286 C   0  0  0  0  0  0  0  0  0  0  0  0
   13.1055  -12.3404  -15.5269 N   0  0  0  0  0  0  0  0  0  0  0  0
   14.4230  -12.8547  -15.6040 C   0  0  0  0  0  0  0  0  0  0  0  0
   14.6562  -14.0601  -16.0602 N   0  0  0  0  0  0  0  0  0  0  0  0
   15.5604  -12.1052  -15.1969 N   0  0  0  0  0  0  0  0  0  0  0  0
   15.4380  -10.8101  -14.5572 C   0  0  0  0  0  0  0  0  0  0  0  0
   16.7907  -10.2463  -14.2059 C   0  0  0  0  0  0  0  0  0  0  0  0
   16.7303   -8.9461  -13.4896 C   0  0  0  0  0  0  0  0  0  0  0  0
   18.0740   -8.3429  -13.1535 C   0  0  2  0  0  0  0  0  0  0  0  0
   17.8429   -7.1122  -12.4123 N   0  0  0  0  0  0  0  0  0  0  0  0
   18.9194   -8.1425  -14.3302 C   0  0  0  0  0  0  0  0  0  0  0  0
   19.7020   -9.1490  -14.8686 O   0  0  0  0  0  0  0  0  0  0  0  0
   18.9960   -7.0235  -14.9455 O   0  0  0  0  0  0  0  0  0  0  0  0
  2  1  1  1
  3  2  1  0
  4  2  1  0
  4  5  1  6
  6  4  1  0
  7  6  2  0
  8  9  1  0
  9 10  2  0
 10 11  1  0
 12 11  2  0
 12 13  1  0
 14 13  1  1
 14 15  1  0
 15  6  1  0
 16 14  1  0
 16 28  1  0
 17 16  2  0
 18 12  1  0
 19  9  1  0
 19 18  2  0
 20 21  1  0
 21 23  1  0
 21 22  2  0
 23 24  1  0
 24 25  1  0
 25 26  1  0
 27 26  1  6
 27 28  1  0
 29 27  1  0
 30 29  1  0
 31 29  2  0
M  END
$$$$
