VYR.pdb
     RDKit          3D

 31 31  0  0  1  0  0  0  0  0999 V2000
   25.9666  -23.2991  -17.5029 C   0  0  0  0  0  0  0  0  0  0  0  0
   25.5641  -24.5674  -16.7770 C   0  0  1  0  0  0  0  0  0  0  0  0
   26.4023  -25.7294  -17.2404 C   0  0  0  0  0  0  0  0  0  0  0  0
   25.6655  -24.3660  -15.2600 C   0  0  2  0  0  0  0  0  0  0  0  0
   25.1826  -25.5084  -14.5499 N   0  0  0  0  0  0  0  0  0  0  0  0
   24.9422  -23.1178  -14.9044 C   0  0  0  0  0  0  0  0  0  0  0  0
   23.6951  -23.1454  -14.7468 O   0  0  0  0  0  0  0  0  0  0  0  0
   24.6063  -21.1286   -7.9078 O   0  0  0  0  0  0  0  0  0  0  0  0
   24.8938  -20.8318   -9.2461 C   0  0  0  0  0  0  0  0  0  0  0  0
   26.1449  -21.0689   -9.7750 C   0  0  0  0  0  0  0  0  0  0  0  0
   26.4317  -20.7742  -11.1051 C   0  0  0  0  0  0  0  0  0  0  0  0
   25.4844  -20.2357  -11.9482 C   0  0  0  0  0  0  0  0  0  0  0  0
   25.7424  -19.9130  -13.3521 C   0  0  0  0  0  0  0  0  0  0  0  0
   24.8807  -20.6464  -14.3355 C   0  0  2  0  0  0  0  0  0  0  0  0
   25.5861  -21.8646  -14.7270 N   0  0  0  0  0  0  0  0  0  0  0  0
   24.4717  -19.8806  -15.5132 C   0  0  0  0  0  0  0  0  0  0  0  0
   25.3328  -19.6307  -16.4100 O   0  0  0  0  0  0  0  0  0  0  0  0
   24.2283  -20.0011  -11.4049 C   0  0  0  0  0  0  0  0  0  0  0  0
   23.9419  -20.2928  -10.0856 C   0  0  0  0  0  0  0  0  0  0  0  0
   16.3865  -17.8051  -18.5815 N   0  0  0  0  0  0  0  0  0  0  0  0
   17.2290  -18.9403  -18.4927 C   0  0  0  0  0  0  0  0  0  0  0  0
   16.7444  -20.1543  -18.5767 N   0  0  0  0  0  0  0  0  0  0  0  0
   18.6348  -18.8355  -18.3093 N   0  0  0  0  0  0  0  0  0  0  0  0
   19.2949  -17.5550  -18.1475 C   0  0  0  0  0  0  0  0  0  0  0  0
   20.7938  -17.7114  -18.1461 C   0  0  0  0  0  0  0  0  0  0  0  0
   21.3176  -18.4552  -16.9714 C   0  0  0  0  0  0  0  0  0  0  0  0
   22.8208  -18.5995  -16.9295 C   0  0  2  0  0  0  0  0  0  0  0  0
   23.1660  -19.3798  -15.7509 N   0  0  0  0  0  0  0  0  0  0  0  0
   23.5185  -17.3150  -16.9801 C   0  0  0  0  0  0  0  0  0  0  0  0
   24.0295  -16.7875  -18.1531 O   0  0  0  0  0  0  0  0  0  0  0  0
   23.7064  -16.5878  -15.9445 O   0  0  0  0  0  0  0  0  0  0  0  0
  2  1  1  6
  3  2  1  0
  4  2  1  0
  4  5  1  1
  6  4  1  0
  7  6  2  0
  8  9  1  0
  9 10  2  0
 10 11  1  0
 12 11  2  0
 12 13  1  0
 14 13  1  1
 14 15  1  0
 15  6  1  0
 16 14  1  0
 16 28  1  0
 17 16  2  0
 18 12  1  0
 19  9  1  0
 19 18  2  0
 20 21  1  0
 21 23  1  0
 21 22  2  0
 23 24  1  0
 24 25  1  0
 25 26  1  0
 27 26  1  1
 27 28  1  0
 29 27  1  0
 30 29  1  0
 31 29  2  0
M  END
$$$$
