VYR.pdb
     RDKit          3D

 31 31  0  0  1  0  0  0  0  0999 V2000
   15.1714  -17.1601    2.6939 C   0  0  0  0  0  0  0  0  0  0  0  0
   13.7807  -17.7585    2.6213 C   0  0  1  0  0  0  0  0  0  0  0  0
   12.9466  -17.0328    1.5990 C   0  0  0  0  0  0  0  0  0  0  0  0
   13.8637  -19.2602    2.3209 C   0  0  2  0  0  0  0  0  0  0  0  0
   12.5633  -19.8476    2.2406 N   0  0  0  0  0  0  0  0  0  0  0  0
   14.7213  -19.8971    3.3536 C   0  0  0  0  0  0  0  0  0  0  0  0
   14.2226  -20.2243    4.4605 O   0  0  0  0  0  0  0  0  0  0  0  0
   21.2561  -24.5984    7.1201 O   0  0  0  0  0  0  0  0  0  0  0  0
   20.3574  -23.9504    6.2632 C   0  0  0  0  0  0  0  0  0  0  0  0
   20.7679  -22.9117    5.4546 C   0  0  0  0  0  0  0  0  0  0  0  0
   19.8754  -22.2670    4.6025 C   0  0  0  0  0  0  0  0  0  0  0  0
   18.5498  -22.6351    4.5289 C   0  0  0  0  0  0  0  0  0  0  0  0
   17.5791  -21.9864    3.6466 C   0  0  0  0  0  0  0  0  0  0  0  0
   16.9592  -20.7391    4.2011 C   0  0  2  0  0  0  0  0  0  0  0  0
   16.1028  -20.1664    3.1651 N   0  0  0  0  0  0  0  0  0  0  0  0
   17.8973  -19.7394    4.7123 C   0  0  0  0  0  0  0  0  0  0  0  0
   18.3282  -18.8448    3.9235 O   0  0  0  0  0  0  0  0  0  0  0  0
   18.1477  -23.6819    5.3476 C   0  0  0  0  0  0  0  0  0  0  0  0
   19.0316  -24.3228    6.1936 C   0  0  0  0  0  0  0  0  0  0  0  0
   17.8392  -12.0195    6.1302 N   0  0  0  0  0  0  0  0  0  0  0  0
   19.2017  -12.3873    6.2517 C   0  0  0  0  0  0  0  0  0  0  0  0
   20.1579  -11.4994    6.1375 N   0  0  0  0  0  0  0  0  0  0  0  0
   19.6122  -13.7251    6.5020 N   0  0  0  0  0  0  0  0  0  0  0  0
   18.6602  -14.8128    6.6119 C   0  0  0  0  0  0  0  0  0  0  0  0
   19.3606  -16.1302    6.8239 C   0  0  0  0  0  0  0  0  0  0  0  0
   18.5982  -17.3020    6.3209 C   0  0  0  0  0  0  0  0  0  0  0  0
   19.2842  -18.6347    6.5093 C   0  0  2  0  0  0  0  0  0  0  0  0
   18.3808  -19.6764    6.0444 N   0  0  0  0  0  0  0  0  0  0  0  0
   19.7384  -18.8532    7.8823 C   0  0  0  0  0  0  0  0  0  0  0  0
   20.7649  -18.1230    8.4553 O   0  0  0  0  0  0  0  0  0  0  0  0
   19.2197  -19.7344    8.6513 O   0  0  0  0  0  0  0  0  0  0  0  0
  2  1  1  6
  3  2  1  0
  4  2  1  0
  4  5  1  1
  6  4  1  0
  7  6  2  0
  8  9  1  0
  9 10  2  0
 10 11  1  0
 12 11  2  0
 12 13  1  0
 14 13  1  6
 14 15  1  0
 15  6  1  0
 16 14  1  0
 16 28  1  0
 17 16  2  0
 18 12  1  0
 19  9  1  0
 19 18  2  0
 20 21  1  0
 21 23  1  0
 21 22  2  0
 23 24  1  0
 24 25  1  0
 25 26  1  0
 27 26  1  1
 27 28  1  0
 29 27  1  0
 30 29  1  0
 31 29  2  0
M  END
$$$$
