VYR.pdb
     RDKit          3D

 31 31  0  0  1  0  0  0  0  0999 V2000
   21.2575  -21.7094  -15.2232 C   0  0  0  0  0  0  0  0  0  0  0  0
   20.1396  -20.8339  -14.6928 C   0  0  1  0  0  0  0  0  0  0  0  0
   18.8020  -21.3477  -15.1555 C   0  0  0  0  0  0  0  0  0  0  0  0
   20.2138  -20.7462  -13.1634 C   0  0  2  0  0  0  0  0  0  0  0  0
   19.1722  -19.9205  -12.6382 N   0  0  0  0  0  0  0  0  0  0  0  0
   21.5707  -20.2719  -12.7873 C   0  0  0  0  0  0  0  0  0  0  0  0
   21.8539  -19.0514  -12.8920 O   0  0  0  0  0  0  0  0  0  0  0  0
   29.5820  -20.1986   -8.8161 O   0  0  0  0  0  0  0  0  0  0  0  0
   28.3004  -20.5055   -9.2904 C   0  0  0  0  0  0  0  0  0  0  0  0
   28.1228  -21.3447  -10.3700 C   0  0  0  0  0  0  0  0  0  0  0  0
   26.8494  -21.6504  -10.8422 C   0  0  0  0  0  0  0  0  0  0  0  0
   25.7156  -21.1317  -10.2559 C   0  0  0  0  0  0  0  0  0  0  0  0
   24.3592  -21.4281  -10.7184 C   0  0  0  0  0  0  0  0  0  0  0  0
   23.9272  -20.6641  -11.9338 C   0  0  2  0  0  0  0  0  0  0  0  0
   22.5935  -21.1311  -12.3050 N   0  0  0  0  0  0  0  0  0  0  0  0
   24.8376  -20.7268  -13.0775 C   0  0  0  0  0  0  0  0  0  0  0  0
   24.9189  -21.8072  -13.7365 O   0  0  0  0  0  0  0  0  0  0  0  0
   25.9063  -20.2880   -9.1698 C   0  0  0  0  0  0  0  0  0  0  0  0
   27.1689  -19.9835   -8.6999 C   0  0  0  0  0  0  0  0  0  0  0  0
   24.7423  -16.8122  -18.5959 N   0  0  0  0  0  0  0  0  0  0  0  0
   26.0808  -16.4571  -18.8936 C   0  0  0  0  0  0  0  0  0  0  0  0
   26.3583  -15.4091  -19.6287 N   0  0  0  0  0  0  0  0  0  0  0  0
   27.1928  -17.2054  -18.4198 N   0  0  0  0  0  0  0  0  0  0  0  0
   27.0282  -18.3953  -17.6083 C   0  0  0  0  0  0  0  0  0  0  0  0
   27.7816  -18.2766  -16.3085 C   0  0  0  0  0  0  0  0  0  0  0  0
   26.9152  -18.3572  -15.1043 C   0  0  0  0  0  0  0  0  0  0  0  0
   26.4905  -19.7550  -14.7196 C   0  0  2  0  0  0  0  0  0  0  0  0
   25.6583  -19.6618  -13.5296 N   0  0  0  0  0  0  0  0  0  0  0  0
   27.6207  -20.6673  -14.5476 C   0  0  0  0  0  0  0  0  0  0  0  0
   28.2096  -21.3359  -15.6067 O   0  0  0  0  0  0  0  0  0  0  0  0
   28.1454  -20.9125  -13.4069 O   0  0  0  0  0  0  0  0  0  0  0  0
  2  1  1  1
  3  2  1  0
  4  2  1  0
  4  5  1  6
  6  4  1  0
  7  6  2  0
  8  9  1  0
  9 10  2  0
 10 11  1  0
 12 11  2  0
 12 13  1  0
 14 13  1  1
 14 15  1  0
 15  6  1  0
 16 14  1  0
 16 28  1  0
 17 16  2  0
 18 12  1  0
 19  9  1  0
 19 18  2  0
 20 21  1  0
 21 23  1  0
 21 22  2  0
 23 24  1  0
 24 25  1  0
 25 26  1  0
 27 26  1  1
 27 28  1  0
 29 27  1  0
 30 29  1  0
 31 29  2  0
M  END
$$$$
