VYR.pdb
     RDKit          3D

 31 31  0  0  1  0  0  0  0  0999 V2000
   22.2306  -19.0935  -19.2671 C   0  0  0  0  0  0  0  0  0  0  0  0
   23.4819  -19.5924  -19.9619 C   0  0  1  0  0  0  0  0  0  0  0  0
   23.6930  -18.8587  -21.2598 C   0  0  0  0  0  0  0  0  0  0  0  0
   24.6946  -19.4584  -19.0326 C   0  0  2  0  0  0  0  0  0  0  0  0
   25.8940  -19.8941  -19.6761 N   0  0  0  0  0  0  0  0  0  0  0  0
   24.4086  -20.2044  -17.7799 C   0  0  0  0  0  0  0  0  0  0  0  0
   24.6326  -21.4405  -17.7274 O   0  0  0  0  0  0  0  0  0  0  0  0
   24.2891  -21.5335   -9.0043 O   0  0  0  0  0  0  0  0  0  0  0  0
   24.3750  -21.0492  -10.3158 C   0  0  0  0  0  0  0  0  0  0  0  0
   25.3432  -21.5096  -11.1827 C   0  0  0  0  0  0  0  0  0  0  0  0
   25.4294  -21.0289  -12.4865 C   0  0  0  0  0  0  0  0  0  0  0  0
   24.5565  -20.0773  -12.9668 C   0  0  0  0  0  0  0  0  0  0  0  0
   24.6100  -19.5465  -14.3295 C   0  0  0  0  0  0  0  0  0  0  0  0
   23.7684  -20.2848  -15.3265 C   0  0  2  0  0  0  0  0  0  0  0  0
   23.8852  -19.5947  -16.6089 N   0  0  0  0  0  0  0  0  0  0  0  0
   22.3638  -20.4654  -14.9587 C   0  0  0  0  0  0  0  0  0  0  0  0
   21.6139  -19.4452  -14.8872 O   0  0  0  0  0  0  0  0  0  0  0  0
   23.5858  -19.6210  -12.0852 C   0  0  0  0  0  0  0  0  0  0  0  0
   23.4988  -20.0966  -10.7914 C   0  0  0  0  0  0  0  0  0  0  0  0
   18.0133  -24.3514   -8.2944 N   0  0  0  0  0  0  0  0  0  0  0  0
   18.2460  -25.1326   -9.4528 C   0  0  0  0  0  0  0  0  0  0  0  0
   17.7589  -26.3432   -9.5649 N   0  0  0  0  0  0  0  0  0  0  0  0
   19.0124  -24.6585  -10.5523 N   0  0  0  0  0  0  0  0  0  0  0  0
   19.5742  -23.3224  -10.5777 C   0  0  0  0  0  0  0  0  0  0  0  0
   19.3654  -22.6693  -11.9196 C   0  0  0  0  0  0  0  0  0  0  0  0
   20.6158  -22.4969  -12.7033 C   0  0  0  0  0  0  0  0  0  0  0  0
   20.4389  -21.8160  -14.0403 C   0  0  2  0  0  0  0  0  0  0  0  0
   21.7471  -21.7094  -14.6684 N   0  0  0  0  0  0  0  0  0  0  0  0
   19.7556  -20.5269  -13.9377 C   0  0  0  0  0  0  0  0  0  0  0  0
   20.4118  -19.3583  -13.5923 O   0  0  0  0  0  0  0  0  0  0  0  0
   18.5034  -20.3873  -14.1596 O   0  0  0  0  0  0  0  0  0  0  0  0
  2  1  1  1
  3  2  1  0
  4  2  1  0
  4  5  1  6
  6  4  1  0
  7  6  2  0
  8  9  1  0
  9 10  2  0
 10 11  1  0
 12 11  2  0
 12 13  1  0
 14 13  1  1
 14 15  1  0
 15  6  1  0
 16 14  1  0
 16 28  1  0
 17 16  2  0
 18 12  1  0
 19  9  1  0
 19 18  2  0
 20 21  1  0
 21 23  1  0
 21 22  2  0
 23 24  1  0
 24 25  1  0
 25 26  1  0
 27 26  1  1
 27 28  1  0
 29 27  1  0
 30 29  1  0
 31 29  2  0
M  END
$$$$
