VYR.pdb
     RDKit          3D

 31 31  0  0  1  0  0  0  0  0999 V2000
   20.8082  -28.0774  -14.5310 C   0  0  0  0  0  0  0  0  0  0  0  0
   20.7690  -27.1785  -13.3112 C   0  0  1  0  0  0  0  0  0  0  0  0
   21.3069  -25.8122  -13.6450 C   0  0  0  0  0  0  0  0  0  0  0  0
   19.3429  -27.1040  -12.7520 C   0  0  2  0  0  0  0  0  0  0  0  0
   18.4366  -26.5517  -13.7092 N   0  0  0  0  0  0  0  0  0  0  0  0
   19.3783  -26.3351  -11.4810 C   0  0  0  0  0  0  0  0  0  0  0  0
   20.1574  -26.6911  -10.5606 O   0  0  0  0  0  0  0  0  0  0  0  0
   22.4609  -20.3586  -13.3025 O   0  0  0  0  0  0  0  0  0  0  0  0
   21.4534  -21.0007  -12.5715 C   0  0  0  0  0  0  0  0  0  0  0  0
   21.3998  -20.9048  -11.1970 C   0  0  0  0  0  0  0  0  0  0  0  0
   20.3987  -21.5426  -10.4695 C   0  0  0  0  0  0  0  0  0  0  0  0
   19.4221  -22.2940  -11.0859 C   0  0  0  0  0  0  0  0  0  0  0  0
   18.3515  -22.9788  -10.3604 C   0  0  0  0  0  0  0  0  0  0  0  0
   18.6433  -24.4061  -10.0067 C   0  0  2  0  0  0  0  0  0  0  0  0
   18.5679  -25.1954  -11.2338 N   0  0  0  0  0  0  0  0  0  0  0  0
   17.7974  -24.9851   -8.9626 C   0  0  0  0  0  0  0  0  0  0  0  0
   16.6537  -25.4321   -9.2795 O   0  0  0  0  0  0  0  0  0  0  0  0
   19.4861  -22.3837  -12.4700 C   0  0  0  0  0  0  0  0  0  0  0  0
   20.4784  -21.7516  -13.1934 C   0  0  0  0  0  0  0  0  0  0  0  0
   19.7119  -27.4262   -0.7057 N   0  0  0  0  0  0  0  0  0  0  0  0
   19.7410  -28.0102   -1.9959 C   0  0  0  0  0  0  0  0  0  0  0  0
   20.5136  -29.0341   -2.2610 N   0  0  0  0  0  0  0  0  0  0  0  0
   18.9442  -27.5287   -3.0702 N   0  0  0  0  0  0  0  0  0  0  0  0
   17.9676  -26.4727   -2.8890 C   0  0  0  0  0  0  0  0  0  0  0  0
   17.1703  -26.2464   -4.1476 C   0  0  0  0  0  0  0  0  0  0  0  0
   17.9916  -25.8129   -5.3074 C   0  0  0  0  0  0  0  0  0  0  0  0
   17.2099  -25.5284   -6.5684 C   0  0  2  0  0  0  0  0  0  0  0  0
   18.1486  -25.0965   -7.5928 N   0  0  0  0  0  0  0  0  0  0  0  0
   16.1217  -24.5731   -6.3614 C   0  0  0  0  0  0  0  0  0  0  0  0
   16.2757  -23.2113   -6.5544 O   0  0  0  0  0  0  0  0  0  0  0  0
   14.9508  -24.9276   -5.9875 O   0  0  0  0  0  0  0  0  0  0  0  0
  2  1  1  6
  3  2  1  0
  4  2  1  0
  4  5  1  6
  6  4  1  0
  7  6  2  0
  8  9  1  0
  9 10  2  0
 10 11  1  0
 12 11  2  0
 12 13  1  0
 14 13  1  6
 14 15  1  0
 15  6  1  0
 16 14  1  0
 16 28  1  0
 17 16  2  0
 18 12  1  0
 19  9  1  0
 19 18  2  0
 20 21  1  0
 21 23  1  0
 21 22  2  0
 23 24  1  0
 24 25  1  0
 25 26  1  0
 27 26  1  1
 27 28  1  0
 29 27  1  0
 30 29  1  0
 31 29  2  0
M  END
$$$$
