VYR.pdb
     RDKit          3D

 31 31  0  0  1  0  0  0  0  0999 V2000
   23.7420  -10.5053  -21.2558 C   0  0  0  0  0  0  0  0  0  0  0  0
   23.6939  -12.0203  -21.2579 C   0  0  1  0  0  0  0  0  0  0  0  0
   24.5854  -12.5752  -22.3371 C   0  0  0  0  0  0  0  0  0  0  0  0
   24.0725  -12.5655  -19.8753 C   0  0  2  0  0  0  0  0  0  0  0  0
   24.0763  -13.9946  -19.8626 N   0  0  0  0  0  0  0  0  0  0  0  0
   23.1443  -11.9824  -18.8723 C   0  0  0  0  0  0  0  0  0  0  0  0
   22.0032  -12.4863  -18.7143 O   0  0  0  0  0  0  0  0  0  0  0  0
   20.2302   -8.0692  -11.4690 O   0  0  0  0  0  0  0  0  0  0  0  0
   20.9718   -8.6255  -12.5189 C   0  0  0  0  0  0  0  0  0  0  0  0
   20.9554   -9.9828  -12.7610 C   0  0  0  0  0  0  0  0  0  0  0  0
   21.6921  -10.5368  -13.8043 C   0  0  0  0  0  0  0  0  0  0  0  0
   22.4661   -9.7589  -14.6374 C   0  0  0  0  0  0  0  0  0  0  0  0
   23.2537  -10.2992  -15.7462 C   0  0  0  0  0  0  0  0  0  0  0  0
   22.5592  -10.2906  -17.0748 C   0  0  2  0  0  0  0  0  0  0  0  0
   23.4724  -10.8643  -18.0605 N   0  0  0  0  0  0  0  0  0  0  0  0
   22.0626   -8.9887  -17.5210 C   0  0  0  0  0  0  0  0  0  0  0  0
   22.8914   -8.1357  -17.9612 O   0  0  0  0  0  0  0  0  0  0  0  0
   22.4751   -8.3937  -14.3843 C   0  0  0  0  0  0  0  0  0  0  0  0
   21.7449   -7.8423  -13.3497 C   0  0  0  0  0  0  0  0  0  0  0  0
   14.2708   -6.8686  -20.8856 N   0  0  0  0  0  0  0  0  0  0  0  0
   14.6108   -6.9572  -19.5134 C   0  0  0  0  0  0  0  0  0  0  0  0
   13.7100   -7.2457  -18.6074 N   0  0  0  0  0  0  0  0  0  0  0  0
   15.9335   -6.7419  -19.0390 N   0  0  0  0  0  0  0  0  0  0  0  0
   17.0288   -6.4259  -19.9346 C   0  0  0  0  0  0  0  0  0  0  0  0
   18.3098   -6.2058  -19.1719 C   0  0  0  0  0  0  0  0  0  0  0  0
   18.9113   -7.4550  -18.6378 C   0  0  0  0  0  0  0  0  0  0  0  0
   20.2624   -7.2808  -17.9847 C   0  0  2  0  0  0  0  0  0  0  0  0
   20.7035   -8.5827  -17.5075 N   0  0  0  0  0  0  0  0  0  0  0  0
   20.2603   -6.2651  -16.9323 C   0  0  0  0  0  0  0  0  0  0  0  0
   20.6193   -4.9485  -17.1632 O   0  0  0  0  0  0  0  0  0  0  0  0
   19.9268   -6.5206  -15.7239 O   0  0  0  0  0  0  0  0  0  0  0  0
  2  1  1  1
  3  2  1  0
  4  2  1  0
  4  5  1  6
  6  4  1  0
  7  6  2  0
  8  9  1  0
  9 10  2  0
 10 11  1  0
 12 11  2  0
 12 13  1  0
 14 13  1  1
 14 15  1  0
 15  6  1  0
 16 14  1  0
 16 28  1  0
 17 16  2  0
 18 12  1  0
 19  9  1  0
 19 18  2  0
 20 21  1  0
 21 23  1  0
 21 22  2  0
 23 24  1  0
 24 25  1  0
 25 26  1  0
 27 26  1  1
 27 28  1  0
 29 27  1  0
 30 29  1  0
 31 29  2  0
M  END
$$$$
