VYR.pdb
     RDKit          3D

 31 31  0  0  1  0  0  0  0  0999 V2000
   27.8220  -19.4720  -19.3830 C   0  0  0  0  0  0  0  0  0  0  0  0
   27.0996  -20.0023  -18.1605 C   0  0  1  0  0  0  0  0  0  0  0  0
   25.8484  -20.7365  -18.5639 C   0  0  0  0  0  0  0  0  0  0  0  0
   28.0364  -20.8923  -17.3345 C   0  0  2  0  0  0  0  0  0  0  0  0
   28.4601  -22.0355  -18.0804 N   0  0  0  0  0  0  0  0  0  0  0  0
   27.3447  -21.2529  -16.0699 C   0  0  0  0  0  0  0  0  0  0  0  0
   26.6290  -22.2857  -16.0255 O   0  0  0  0  0  0  0  0  0  0  0  0
   24.8145  -20.6422   -7.4714 O   0  0  0  0  0  0  0  0  0  0  0  0
   25.4489  -20.5123   -8.7133 C   0  0  0  0  0  0  0  0  0  0  0  0
   25.1254  -19.4848   -9.5740 C   0  0  0  0  0  0  0  0  0  0  0  0
   25.7554  -19.3547  -10.8086 C   0  0  0  0  0  0  0  0  0  0  0  0
   26.7247  -20.2413  -11.2242 C   0  0  0  0  0  0  0  0  0  0  0  0
   27.4130  -20.1406  -12.5117 C   0  0  0  0  0  0  0  0  0  0  0  0
   26.7053  -20.7995  -13.6573 C   0  0  2  0  0  0  0  0  0  0  0  0
   27.4431  -20.4860  -14.8788 N   0  0  0  0  0  0  0  0  0  0  0  0
   25.2889  -20.4631  -13.8040 C   0  0  0  0  0  0  0  0  0  0  0  0
   24.9655  -19.4865  -14.5455 O   0  0  0  0  0  0  0  0  0  0  0  0
   27.0423  -21.2719  -10.3496 C   0  0  0  0  0  0  0  0  0  0  0  0
   26.4184  -21.4025   -9.1243 C   0  0  0  0  0  0  0  0  0  0  0  0
   18.0270  -19.8149  -15.7841 N   0  0  0  0  0  0  0  0  0  0  0  0
   18.7831  -19.3814  -16.9007 C   0  0  0  0  0  0  0  0  0  0  0  0
   18.3569  -18.4158  -17.6762 N   0  0  0  0  0  0  0  0  0  0  0  0
   20.0354  -19.9590  -17.2456 N   0  0  0  0  0  0  0  0  0  0  0  0
   20.6088  -21.0565  -16.4918 C   0  0  0  0  0  0  0  0  0  0  0  0
   21.0552  -20.6042  -15.1254 C   0  0  0  0  0  0  0  0  0  0  0  0
   22.3667  -21.1636  -14.7078 C   0  0  0  0  0  0  0  0  0  0  0  0
   22.8256  -20.7467  -13.3301 C   0  0  2  0  0  0  0  0  0  0  0  0
   24.2160  -21.1477  -13.1776 N   0  0  0  0  0  0  0  0  0  0  0  0
   21.9690  -21.2635  -12.2631 C   0  0  0  0  0  0  0  0  0  0  0  0
   20.6496  -20.8750  -12.1094 O   0  0  0  0  0  0  0  0  0  0  0  0
   22.3777  -22.1110  -11.3963 O   0  0  0  0  0  0  0  0  0  0  0  0
  2  1  1  6
  3  2  1  0
  4  2  1  0
  4  5  1  6
  6  4  1  0
  7  6  2  0
  8  9  1  0
  9 10  2  0
 10 11  1  0
 12 11  2  0
 12 13  1  0
 14 13  1  1
 14 15  1  0
 15  6  1  0
 16 14  1  0
 16 28  1  0
 17 16  2  0
 18 12  1  0
 19  9  1  0
 19 18  2  0
 20 21  1  0
 21 23  1  0
 21 22  2  0
 23 24  1  0
 24 25  1  0
 25 26  1  0
 27 26  1  6
 27 28  1  0
 29 27  1  0
 30 29  1  0
 31 29  2  0
M  END
$$$$
