VYR.pdb
     RDKit          3D

 31 31  0  0  1  0  0  0  0  0999 V2000
   28.9579  -19.8884   -9.0971 C   0  0  0  0  0  0  0  0  0  0  0  0
   29.4231  -20.9179  -10.1076 C   0  0  1  0  0  0  0  0  0  0  0  0
   30.2231  -21.9987   -9.4300 C   0  0  0  0  0  0  0  0  0  0  0  0
   28.2231  -21.4951  -10.8686 C   0  0  2  0  0  0  0  0  0  0  0  0
   28.6232  -22.5436  -11.7535 N   0  0  0  0  0  0  0  0  0  0  0  0
   27.5335  -20.3809  -11.5692 C   0  0  0  0  0  0  0  0  0  0  0  0
   26.8580  -19.5531  -10.9064 O   0  0  0  0  0  0  0  0  0  0  0  0
   25.9731  -14.3676  -17.9950 O   0  0  0  0  0  0  0  0  0  0  0  0
   26.4626  -15.3294  -17.1023 C   0  0  0  0  0  0  0  0  0  0  0  0
   26.4007  -15.1324  -15.7390 C   0  0  0  0  0  0  0  0  0  0  0  0
   26.8869  -16.0879  -14.8509 C   0  0  0  0  0  0  0  0  0  0  0  0
   27.4486  -17.2665  -15.2909 C   0  0  0  0  0  0  0  0  0  0  0  0
   27.9696  -18.2978  -14.3928 C   0  0  0  0  0  0  0  0  0  0  0  0
   26.9230  -19.0838  -13.6620 C   0  0  2  0  0  0  0  0  0  0  0  0
   27.5905  -20.1869  -12.9748 N   0  0  0  0  0  0  0  0  0  0  0  0
   25.8141  -19.5753  -14.4804 C   0  0  0  0  0  0  0  0  0  0  0  0
   26.0035  -20.5841  -15.2253 O   0  0  0  0  0  0  0  0  0  0  0  0
   27.5058  -17.4541  -16.6654 C   0  0  0  0  0  0  0  0  0  0  0  0
   27.0239  -16.5074  -17.5481 C   0  0  0  0  0  0  0  0  0  0  0  0
   19.4942  -22.8080  -11.4141 N   0  0  0  0  0  0  0  0  0  0  0  0
   20.0441  -21.5205  -11.1990 C   0  0  0  0  0  0  0  0  0  0  0  0
   20.1933  -21.0388   -9.9902 N   0  0  0  0  0  0  0  0  0  0  0  0
   20.4633  -20.6810  -12.2669 N   0  0  0  0  0  0  0  0  0  0  0  0
   20.3028  -21.0662  -13.6552 C   0  0  0  0  0  0  0  0  0  0  0  0
   21.6179  -21.0174  -14.3894 C   0  0  0  0  0  0  0  0  0  0  0  0
   22.1991  -19.6536  -14.4878 C   0  0  0  0  0  0  0  0  0  0  0  0
   23.4413  -19.5524  -15.3417 C   0  0  2  0  0  0  0  0  0  0  0  0
   24.5122  -19.0133  -14.5173 N   0  0  0  0  0  0  0  0  0  0  0  0
   23.2298  -18.7818  -16.5668 C   0  0  0  0  0  0  0  0  0  0  0  0
   23.0261  -19.3779  -17.7991 O   0  0  0  0  0  0  0  0  0  0  0  0
   23.2179  -17.5027  -16.5869 O   0  0  0  0  0  0  0  0  0  0  0  0
  2  1  1  1
  3  2  1  0
  4  2  1  0
  4  5  1  6
  6  4  1  0
  7  6  2  0
  8  9  1  0
  9 10  2  0
 10 11  1  0
 12 11  2  0
 12 13  1  0
 14 13  1  6
 14 15  1  0
 15  6  1  0
 16 14  1  0
 16 28  1  0
 17 16  2  0
 18 12  1  0
 19  9  1  0
 19 18  2  0
 20 21  1  0
 21 23  1  0
 21 22  2  0
 23 24  1  0
 24 25  1  0
 25 26  1  0
 27 26  1  1
 27 28  1  0
 29 27  1  0
 30 29  1  0
 31 29  2  0
M  END
$$$$
