VYR.pdb
     RDKit          3D

 31 31  0  0  1  0  0  0  0  0999 V2000
   25.8177  -20.7807  -18.2262 C   0  0  0  0  0  0  0  0  0  0  0  0
   26.9368  -21.7933  -18.3664 C   0  0  1  0  0  0  0  0  0  0  0  0
   27.7301  -21.5330  -19.6195 C   0  0  0  0  0  0  0  0  0  0  0  0
   27.8282  -21.7759  -17.1186 C   0  0  2  0  0  0  0  0  0  0  0  0
   28.8610  -22.7601  -17.2029 N   0  0  0  0  0  0  0  0  0  0  0  0
   26.9630  -21.9488  -15.9231 C   0  0  0  0  0  0  0  0  0  0  0  0
   26.4242  -23.0630  -15.7016 O   0  0  0  0  0  0  0  0  0  0  0  0
   23.9226  -20.6397   -7.6357 O   0  0  0  0  0  0  0  0  0  0  0  0
   24.5430  -20.5345   -8.8871 C   0  0  0  0  0  0  0  0  0  0  0  0
   23.9518  -19.8357   -9.9183 C   0  0  0  0  0  0  0  0  0  0  0  0
   24.5675  -19.7305  -11.1624 C   0  0  0  0  0  0  0  0  0  0  0  0
   25.7881  -20.3161  -11.4184 C   0  0  0  0  0  0  0  0  0  0  0  0
   26.4711  -20.2288  -12.7097 C   0  0  0  0  0  0  0  0  0  0  0  0
   25.8920  -21.0943  -13.7881 C   0  0  2  0  0  0  0  0  0  0  0  0
   26.6995  -20.9097  -14.9917 N   0  0  0  0  0  0  0  0  0  0  0  0
   24.4732  -20.8828  -14.0759 C   0  0  0  0  0  0  0  0  0  0  0  0
   24.1371  -19.9083  -14.8146 O   0  0  0  0  0  0  0  0  0  0  0  0
   26.3741  -21.0172  -10.3729 C   0  0  0  0  0  0  0  0  0  0  0  0
   25.7647  -21.1227   -9.1379 C   0  0  0  0  0  0  0  0  0  0  0  0
   17.5180  -26.2463  -12.9185 N   0  0  0  0  0  0  0  0  0  0  0  0
   17.9716  -25.2822  -11.9852 C   0  0  0  0  0  0  0  0  0  0  0  0
   17.7836  -25.4410  -10.6987 N   0  0  0  0  0  0  0  0  0  0  0  0
   18.6505  -24.0973  -12.3802 N   0  0  0  0  0  0  0  0  0  0  0  0
   19.0105  -23.8424  -13.7611 C   0  0  0  0  0  0  0  0  0  0  0  0
   19.7604  -22.5424  -13.8972 C   0  0  0  0  0  0  0  0  0  0  0  0
   21.2143  -22.6567  -13.6132 C   0  0  0  0  0  0  0  0  0  0  0  0
   22.0110  -21.3974  -13.8614 C   0  0  2  0  0  0  0  0  0  0  0  0
   23.4110  -21.6895  -13.5929 N   0  0  0  0  0  0  0  0  0  0  0  0
   21.5176  -20.2509  -13.0989 C   0  0  0  0  0  0  0  0  0  0  0  0
   20.7618  -19.2422  -13.6705 O   0  0  0  0  0  0  0  0  0  0  0  0
   21.7492  -20.0984  -11.8500 O   0  0  0  0  0  0  0  0  0  0  0  0
  2  1  1  1
  3  2  1  0
  4  2  1  0
  4  5  1  6
  6  4  1  0
  7  6  2  0
  8  9  1  0
  9 10  2  0
 10 11  1  0
 12 11  2  0
 12 13  1  0
 14 13  1  1
 14 15  1  0
 15  6  1  0
 16 14  1  0
 16 28  1  0
 17 16  2  0
 18 12  1  0
 19  9  1  0
 19 18  2  0
 20 21  1  0
 21 23  1  0
 21 22  2  0
 23 24  1  0
 24 25  1  0
 25 26  1  0
 27 26  1  1
 27 28  1  0
 29 27  1  0
 30 29  1  0
 31 29  2  0
M  END
$$$$
