VYR.pdb
     RDKit          3D

 31 31  0  0  1  0  0  0  0  0999 V2000
   29.4091  -31.5108  -16.7681 C   0  0  0  0  0  0  0  0  0  0  0  0
   28.2187  -31.9455  -15.9366 C   0  0  1  0  0  0  0  0  0  0  0  0
   26.9909  -32.0735  -16.7989 C   0  0  0  0  0  0  0  0  0  0  0  0
   28.5334  -33.2548  -15.2025 C   0  0  2  0  0  0  0  0  0  0  0  0
   28.7202  -34.3343  -16.1203 N   0  0  0  0  0  0  0  0  0  0  0  0
   27.4482  -33.5135  -14.2212 C   0  0  0  0  0  0  0  0  0  0  0  0
   26.5095  -34.2935  -14.5236 O   0  0  0  0  0  0  0  0  0  0  0  0
   23.2867  -33.8596   -6.3024 O   0  0  0  0  0  0  0  0  0  0  0  0
   24.1861  -33.6525   -7.3559 C   0  0  0  0  0  0  0  0  0  0  0  0
   24.5201  -32.3794   -7.7669 C   0  0  0  0  0  0  0  0  0  0  0  0
   25.4140  -32.1724   -8.8139 C   0  0  0  0  0  0  0  0  0  0  0  0
   26.0022  -33.2236   -9.4828 C   0  0  0  0  0  0  0  0  0  0  0  0
   26.9478  -33.0512  -10.5863 C   0  0  0  0  0  0  0  0  0  0  0  0
   26.3532  -33.2011  -11.9543 C   0  0  2  0  0  0  0  0  0  0  0  0
   27.4027  -32.9210  -12.9314 N   0  0  0  0  0  0  0  0  0  0  0  0
   25.1647  -32.3902  -12.2202 C   0  0  0  0  0  0  0  0  0  0  0  0
   25.3152  -31.1849  -12.5846 O   0  0  0  0  0  0  0  0  0  0  0  0
   25.6586  -34.5009   -9.0604 C   0  0  0  0  0  0  0  0  0  0  0  0
   24.7719  -34.7082   -8.0219 C   0  0  0  0  0  0  0  0  0  0  0  0
   22.9759  -31.2846  -19.1447 N   0  0  0  0  0  0  0  0  0  0  0  0
   22.0089  -32.1518  -18.5797 C   0  0  0  0  0  0  0  0  0  0  0  0
   21.0708  -32.6946  -19.3150 N   0  0  0  0  0  0  0  0  0  0  0  0
   21.9955  -32.4835  -17.1974 N   0  0  0  0  0  0  0  0  0  0  0  0
   23.0086  -31.9980  -16.2811 C   0  0  0  0  0  0  0  0  0  0  0  0
   22.7832  -32.5291  -14.8889 C   0  0  0  0  0  0  0  0  0  0  0  0
   22.8493  -31.4870  -13.8320 C   0  0  0  0  0  0  0  0  0  0  0  0
   22.6786  -32.0008  -12.4217 C   0  0  2  0  0  0  0  0  0  0  0  0
   23.8243  -32.8404  -12.1060 N   0  0  0  0  0  0  0  0  0  0  0  0
   21.4030  -32.6860  -12.2150 C   0  0  0  0  0  0  0  0  0  0  0  0
   20.1830  -32.0947  -12.4933 O   0  0  0  0  0  0  0  0  0  0  0  0
   21.3237  -33.8800  -11.7624 O   0  0  0  0  0  0  0  0  0  0  0  0
  2  1  1  6
  3  2  1  0
  4  2  1  0
  4  5  1  6
  6  4  1  0
  7  6  2  0
  8  9  1  0
  9 10  2  0
 10 11  1  0
 12 11  2  0
 12 13  1  0
 14 13  1  1
 14 15  1  0
 15  6  1  0
 16 14  1  0
 16 28  1  0
 17 16  2  0
 18 12  1  0
 19  9  1  0
 19 18  2  0
 20 21  1  0
 21 23  1  0
 21 22  2  0
 23 24  1  0
 24 25  1  0
 25 26  1  0
 27 26  1  6
 27 28  1  0
 29 27  1  0
 30 29  1  0
 31 29  2  0
M  END
$$$$
