VYR.pdb
     RDKit          3D

 31 31  0  0  1  0  0  0  0  0999 V2000
   27.2371  -18.7210  -15.5484 C   0  0  0  0  0  0  0  0  0  0  0  0
   27.4358  -17.9845  -16.8582 C   0  0  1  0  0  0  0  0  0  0  0  0
   28.6884  -18.4591  -17.5459 C   0  0  0  0  0  0  0  0  0  0  0  0
   26.2014  -18.1503  -17.7532 C   0  0  2  0  0  0  0  0  0  0  0  0
   26.3470  -17.4306  -18.9793 N   0  0  0  0  0  0  0  0  0  0  0  0
   25.0031  -17.7346  -16.9793 C   0  0  0  0  0  0  0  0  0  0  0  0
   24.7297  -16.5127  -16.8654 O   0  0  0  0  0  0  0  0  0  0  0  0
   16.8736  -16.0536  -14.7766 O   0  0  0  0  0  0  0  0  0  0  0  0
   18.1430  -16.4186  -15.2427 C   0  0  0  0  0  0  0  0  0  0  0  0
   19.2375  -15.6054  -15.0379 C   0  0  0  0  0  0  0  0  0  0  0  0
   20.4997  -15.9672  -15.5007 C   0  0  0  0  0  0  0  0  0  0  0  0
   20.7113  -17.1469  -16.1801 C   0  0  0  0  0  0  0  0  0  0  0  0
   22.0205  -17.5666  -16.6816 C   0  0  0  0  0  0  0  0  0  0  0  0
   22.8915  -18.2520  -15.6721 C   0  0  2  0  0  0  0  0  0  0  0  0
   24.1253  -18.6527  -16.3443 N   0  0  0  0  0  0  0  0  0  0  0  0
   22.2836  -19.3882  -14.9791 C   0  0  0  0  0  0  0  0  0  0  0  0
   22.0735  -20.4585  -15.6262 O   0  0  0  0  0  0  0  0  0  0  0  0
   19.6022  -17.9578  -16.3806 C   0  0  0  0  0  0  0  0  0  0  0  0
   18.3492  -17.6005  -15.9222 C   0  0  0  0  0  0  0  0  0  0  0  0
   18.1866  -22.5940   -9.7027 N   0  0  0  0  0  0  0  0  0  0  0  0
   19.1162  -23.0223   -8.7235 C   0  0  0  0  0  0  0  0  0  0  0  0
   18.9225  -24.1212   -8.0375 N   0  0  0  0  0  0  0  0  0  0  0  0
   20.3023  -22.2967   -8.4275 N   0  0  0  0  0  0  0  0  0  0  0  0
   20.6929  -21.1224   -9.1824 C   0  0  0  0  0  0  0  0  0  0  0  0
   20.6987  -21.4039  -10.6629 C   0  0  0  0  0  0  0  0  0  0  0  0
   21.2365  -20.2877  -11.4829 C   0  0  0  0  0  0  0  0  0  0  0  0
   21.3504  -20.5823  -12.9602 C   0  0  2  0  0  0  0  0  0  0  0  0
   21.8989  -19.4037  -13.6139 N   0  0  0  0  0  0  0  0  0  0  0  0
   20.0870  -21.0199  -13.5534 C   0  0  0  0  0  0  0  0  0  0  0  0
   19.0444  -20.1492  -13.8184 O   0  0  0  0  0  0  0  0  0  0  0  0
   19.8555  -22.2378  -13.8694 O   0  0  0  0  0  0  0  0  0  0  0  0
  2  1  1  1
  3  2  1  0
  4  2  1  0
  4  5  1  6
  6  4  1  0
  7  6  2  0
  8  9  1  0
  9 10  2  0
 10 11  1  0
 12 11  2  0
 12 13  1  0
 14 13  1  6
 14 15  1  0
 15  6  1  0
 16 14  1  0
 16 28  1  0
 17 16  2  0
 18 12  1  0
 19  9  1  0
 19 18  2  0
 20 21  1  0
 21 23  1  0
 21 22  2  0
 23 24  1  0
 24 25  1  0
 25 26  1  0
 27 26  1  1
 27 28  1  0
 29 27  1  0
 30 29  1  0
 31 29  2  0
M  END
$$$$
