GEE.pdb
     RDKit          3D

 23 22  0  0  1  0  0  0  0  0999 V2000
   15.3561   -9.9493  -16.4639 N   0  0  0  0  0  0  0  0  0  0  0  0
   16.7551   -9.6778  -16.7237 C   0  0  0  0  0  0  0  0  0  0  0  0
   17.2313   -8.6746  -15.7467 C   0  0  0  0  0  0  0  0  0  0  0  0
   16.7688   -8.6797  -14.5805 O   0  0  0  0  0  0  0  0  0  0  0  0
   18.1965   -7.6906  -16.0564 N   0  0  0  0  0  0  0  0  0  0  0  0
   18.6781   -6.6993  -15.1367 C   0  0  1  0  0  0  0  0  0  0  0  0
   20.1723   -6.6014  -15.0660 C   0  0  0  0  0  0  0  0  0  0  0  0
   20.5903   -5.5571  -14.0436 C   0  0  0  0  0  0  0  0  0  0  0  0
   22.0702   -5.5126  -13.8994 C   0  0  0  0  0  0  0  0  0  0  0  0
   22.7360   -6.5158  -13.5269 O   0  0  0  0  0  0  0  0  0  0  0  0
   18.0747   -5.4013  -15.5242 C   0  0  0  0  0  0  0  0  0  0  0  0
   18.1478   -5.0536  -16.7250 O   0  0  0  0  0  0  0  0  0  0  0  0
   22.7267   -4.3200  -14.1880 O   0  0  0  0  0  0  0  0  0  0  0  0
   17.4250   -4.5397  -14.6170 N   0  0  0  0  0  0  0  0  0  0  0  0
   16.8401   -3.2503  -15.0627 C   0  0  1  0  0  0  0  0  0  0  0  0
   15.6268   -2.9395  -14.2623 C   0  0  0  0  0  0  0  0  0  0  0  0
   14.9453   -1.7045  -14.7256 C   0  0  0  0  0  0  0  0  0  0  0  0
   13.7578   -1.3205  -13.9389 C   0  0  0  0  0  0  0  0  0  0  0  0
   13.3810   -1.9610  -12.9509 O   0  0  0  0  0  0  0  0  0  0  0  0
   17.8488   -2.1844  -14.9317 C   0  0  0  0  0  0  0  0  0  0  0  0
   17.8500   -1.2181  -15.7698 O   0  0  0  0  0  0  0  0  0  0  0  0
   13.0307   -0.1970  -14.3175 O   0  0  0  0  0  0  0  0  0  0  0  0
   18.8209   -2.1229  -13.9628 O   0  0  0  0  0  0  0  0  0  0  0  0
  2  1  1  0
  3  5  1  0
  3  2  1  0
  4  3  2  0
  6  7  1  6
  6  5  1  0
  8  7  1  0
  9  8  1  0
 10  9  2  0
 11 14  1  0
 11  6  1  0
 12 11  2  0
 13  9  1  0
 15 14  1  0
 15 16  1  1
 16 17  1  0
 17 18  1  0
 18 22  1  0
 19 18  2  0
 20 15  1  0
 21 20  2  0
 23 20  1  0
M  END
$$$$
