GEE.pdb
     RDKit          3D

 23 22  0  0  1  0  0  0  0  0999 V2000
   13.7840  -12.1912  -12.3372 N   0  0  0  0  0  0  0  0  0  0  0  0
   14.3879  -11.2236  -13.2303 C   0  0  0  0  0  0  0  0  0  0  0  0
   15.3145  -10.3745  -12.4504 C   0  0  0  0  0  0  0  0  0  0  0  0
   15.1498  -10.2553  -11.2123 O   0  0  0  0  0  0  0  0  0  0  0  0
   16.3966   -9.6753  -13.0300 N   0  0  0  0  0  0  0  0  0  0  0  0
   17.2773   -8.7943  -12.3168 C   0  0  1  0  0  0  0  0  0  0  0  0
   18.5759   -8.5258  -13.0159 C   0  0  0  0  0  0  0  0  0  0  0  0
   19.4802   -7.6653  -12.1485 C   0  0  0  0  0  0  0  0  0  0  0  0
   20.7390   -7.3232  -12.8635 C   0  0  0  0  0  0  0  0  0  0  0  0
   21.6470   -6.6340  -12.3259 O   0  0  0  0  0  0  0  0  0  0  0  0
   16.5370   -7.5351  -12.0612 C   0  0  0  0  0  0  0  0  0  0  0  0
   15.9007   -7.0235  -13.0106 O   0  0  0  0  0  0  0  0  0  0  0  0
   20.9058   -7.7851  -14.1655 O   0  0  0  0  0  0  0  0  0  0  0  0
   16.5105   -6.8842  -10.8109 N   0  0  0  0  0  0  0  0  0  0  0  0
   15.7116   -5.6509  -10.6008 C   0  0  1  0  0  0  0  0  0  0  0  0
   15.1474   -5.6396   -9.2257 C   0  0  0  0  0  0  0  0  0  0  0  0
   14.2757   -4.4626   -8.9822 C   0  0  0  0  0  0  0  0  0  0  0  0
   13.7109   -4.3814   -7.6218 C   0  0  0  0  0  0  0  0  0  0  0  0
   13.9560   -5.2234   -6.7504 O   0  0  0  0  0  0  0  0  0  0  0  0
   16.5629   -4.4711  -10.8340 C   0  0  0  0  0  0  0  0  0  0  0  0
   16.0139   -3.3454  -11.0938 O   0  0  0  0  0  0  0  0  0  0  0  0
   12.8705   -3.3207   -7.3012 O   0  0  0  0  0  0  0  0  0  0  0  0
   17.9362   -4.4603  -10.7965 O   0  0  0  0  0  0  0  0  0  0  0  0
  2  1  1  0
  3  5  1  0
  3  2  1  0
  4  3  2  0
  6  7  1  6
  6  5  1  0
  8  7  1  0
  9  8  1  0
 10  9  2  0
 11 14  1  0
 11  6  1  0
 12 11  2  0
 13  9  1  0
 15 14  1  0
 15 16  1  1
 16 17  1  0
 17 18  1  0
 18 22  1  0
 19 18  2  0
 20 15  1  0
 21 20  2  0
 23 20  1  0
M  END
$$$$
