GEE.pdb
     RDKit          3D

 23 22  0  0  1  0  0  0  0  0999 V2000
   17.7680  -12.3430  -15.6287 N   0  0  0  0  0  0  0  0  0  0  0  0
   18.5598  -11.3223  -16.2844 C   0  0  0  0  0  0  0  0  0  0  0  0
   18.6250  -10.1361  -15.4032 C   0  0  0  0  0  0  0  0  0  0  0  0
   17.8109  -10.0250  -14.4550 O   0  0  0  0  0  0  0  0  0  0  0  0
   19.5699   -9.0993  -15.5703 N   0  0  0  0  0  0  0  0  0  0  0  0
   19.6330   -7.9126  -14.7653 C   0  0  1  0  0  0  0  0  0  0  0  0
   20.9783   -7.2514  -14.7501 C   0  0  0  0  0  0  0  0  0  0  0  0
   20.9684   -6.0438  -13.8269 C   0  0  0  0  0  0  0  0  0  0  0  0
   22.2949   -5.3706  -13.8132 C   0  0  0  0  0  0  0  0  0  0  0  0
   22.4750   -4.2601  -13.2451 O   0  0  0  0  0  0  0  0  0  0  0  0
   18.5863   -6.9843  -15.2569 C   0  0  0  0  0  0  0  0  0  0  0  0
   18.5150   -6.7779  -16.4900 O   0  0  0  0  0  0  0  0  0  0  0  0
   23.3608   -5.9978  -14.4510 O   0  0  0  0  0  0  0  0  0  0  0  0
   17.6694   -6.3233  -14.4143 N   0  0  0  0  0  0  0  0  0  0  0  0
   16.6414   -5.4045  -14.9640 C   0  0  1  0  0  0  0  0  0  0  0  0
   15.3251   -5.6778  -14.3301 C   0  0  0  0  0  0  0  0  0  0  0  0
   14.2610   -4.7664  -14.8216 C   0  0  0  0  0  0  0  0  0  0  0  0
   13.3829   -5.3421  -15.8578 C   0  0  0  0  0  0  0  0  0  0  0  0
   13.4678   -6.5213  -16.2192 O   0  0  0  0  0  0  0  0  0  0  0  0
   17.0598   -4.0102  -14.7366 C   0  0  0  0  0  0  0  0  0  0  0  0
   17.7244   -3.7208  -13.6826 O   0  0  0  0  0  0  0  0  0  0  0  0
   12.4215   -4.5334  -16.4545 O   0  0  0  0  0  0  0  0  0  0  0  0
   16.7993   -2.9538  -15.5754 O   0  0  0  0  0  0  0  0  0  0  0  0
  2  1  1  0
  3  5  1  0
  3  2  1  0
  4  3  2  0
  6  7  1  6
  6  5  1  0
  8  7  1  0
  9  8  1  0
 10  9  2  0
 11 14  1  0
 11  6  1  0
 12 11  2  0
 13  9  1  0
 15 14  1  0
 15 16  1  1
 16 17  1  0
 17 18  1  0
 18 22  1  0
 19 18  2  0
 20 15  1  0
 21 20  2  0
 23 20  1  0
M  END
$$$$
