GEE.pdb
     RDKit          3D

 23 22  0  0  1  0  0  0  0  0999 V2000
   26.5058  -11.4090  -16.4469 N   0  0  0  0  0  0  0  0  0  0  0  0
   25.3803  -11.5503  -15.5459 C   0  0  0  0  0  0  0  0  0  0  0  0
   24.3125  -10.6208  -15.9741 C   0  0  0  0  0  0  0  0  0  0  0  0
   24.4230  -10.0135  -17.0665 O   0  0  0  0  0  0  0  0  0  0  0  0
   23.1511  -10.3716  -15.2093 N   0  0  0  0  0  0  0  0  0  0  0  0
   22.0703   -9.5196  -15.6172 C   0  0  1  0  0  0  0  0  0  0  0  0
   20.7201   -9.9745  -15.1511 C   0  0  0  0  0  0  0  0  0  0  0  0
   20.1739  -11.0535  -16.0722 C   0  0  0  0  0  0  0  0  0  0  0  0
   18.7971  -11.4506  -15.6728 C   0  0  0  0  0  0  0  0  0  0  0  0
   17.7880  -11.1542  -16.3671 O   0  0  0  0  0  0  0  0  0  0  0  0
   22.3720   -8.1523  -15.1290 C   0  0  0  0  0  0  0  0  0  0  0  0
   22.8239   -8.0285  -13.9677 O   0  0  0  0  0  0  0  0  0  0  0  0
   18.6331  -12.1713  -14.4937 O   0  0  0  0  0  0  0  0  0  0  0  0
   22.1786   -6.9871  -15.8988 N   0  0  0  0  0  0  0  0  0  0  0  0
   22.4796   -5.6415  -15.3494 C   0  0  1  0  0  0  0  0  0  0  0  0
   22.3078   -4.6113  -16.4070 C   0  0  0  0  0  0  0  0  0  0  0  0
   22.6248   -3.2445  -15.9213 C   0  0  0  0  0  0  0  0  0  0  0  0
   22.4393   -2.1743  -16.9195 C   0  0  0  0  0  0  0  0  0  0  0  0
   22.1487   -2.4093  -18.0979 O   0  0  0  0  0  0  0  0  0  0  0  0
   21.5971   -5.3737  -14.2004 C   0  0  0  0  0  0  0  0  0  0  0  0
   22.0626   -4.7474  -13.1869 O   0  0  0  0  0  0  0  0  0  0  0  0
   22.5960   -0.8493  -16.5268 O   0  0  0  0  0  0  0  0  0  0  0  0
   20.2766   -5.7415  -14.1080 O   0  0  0  0  0  0  0  0  0  0  0  0
  2  1  1  0
  3  5  1  0
  3  2  1  0
  4  3  2  0
  6  7  1  1
  6  5  1  0
  8  7  1  0
  9  8  1  0
 10  9  2  0
 11 14  1  0
 11  6  1  0
 12 11  2  0
 13  9  1  0
 15 14  1  0
 15 16  1  6
 16 17  1  0
 17 18  1  0
 18 22  1  0
 19 18  2  0
 20 15  1  0
 21 20  2  0
 23 20  1  0
M  END
$$$$
