GEE.pdb
     RDKit          3D

 23 22  0  0  1  0  0  0  0  0999 V2000
   14.4401   -9.8682  -13.8637 N   0  0  0  0  0  0  0  0  0  0  0  0
   15.0937   -8.6627  -14.3308 C   0  0  0  0  0  0  0  0  0  0  0  0
   16.5571   -8.8746  -14.2960 C   0  0  0  0  0  0  0  0  0  0  0  0
   17.1457   -8.9420  -13.1901 O   0  0  0  0  0  0  0  0  0  0  0  0
   17.3473   -9.0084  -15.4594 N   0  0  0  0  0  0  0  0  0  0  0  0
   18.7574   -9.2764  -15.4640 C   0  0  1  0  0  0  0  0  0  0  0  0
   19.1748  -10.3537  -16.4193 C   0  0  0  0  0  0  0  0  0  0  0  0
   18.7819  -11.7215  -15.8847 C   0  0  0  0  0  0  0  0  0  0  0  0
   19.0559  -12.7859  -16.8871 C   0  0  0  0  0  0  0  0  0  0  0  0
   20.0436  -13.5620  -16.7850 O   0  0  0  0  0  0  0  0  0  0  0  0
   19.4526   -8.0004  -15.7600 C   0  0  0  0  0  0  0  0  0  0  0  0
   18.9309   -7.2259  -16.5943 O   0  0  0  0  0  0  0  0  0  0  0  0
   18.1865  -12.9174  -17.9657 O   0  0  0  0  0  0  0  0  0  0  0  0
   20.6654   -7.6125  -15.1548 N   0  0  0  0  0  0  0  0  0  0  0  0
   21.3723   -6.3748  -15.5691 C   0  0  1  0  0  0  0  0  0  0  0  0
   20.9640   -5.2414  -14.6984 C   0  0  0  0  0  0  0  0  0  0  0  0
   21.6608   -3.9786  -15.0509 C   0  0  0  0  0  0  0  0  0  0  0  0
   21.2747   -2.8105  -14.2367 C   0  0  0  0  0  0  0  0  0  0  0  0
   21.8713   -1.7297  -14.3023 O   0  0  0  0  0  0  0  0  0  0  0  0
   22.8273   -6.5969  -15.5023 C   0  0  0  0  0  0  0  0  0  0  0  0
   23.6170   -5.7195  -15.9949 O   0  0  0  0  0  0  0  0  0  0  0  0
   20.2005   -2.9228  -13.3604 O   0  0  0  0  0  0  0  0  0  0  0  0
   23.4408   -7.6908  -14.9416 O   0  0  0  0  0  0  0  0  0  0  0  0
  2  1  1  0
  3  5  1  0
  3  2  1  0
  4  3  2  0
  6  7  1  6
  6  5  1  0
  8  7  1  0
  9  8  1  0
 10  9  2  0
 11 14  1  0
 11  6  1  0
 12 11  2  0
 13  9  1  0
 15 14  1  0
 15 16  1  1
 16 17  1  0
 17 18  1  0
 18 22  1  0
 19 18  2  0
 20 15  1  0
 21 20  2  0
 23 20  1  0
M  END
$$$$
