GEE.pdb
     RDKit          3D

 23 22  0  0  1  0  0  0  0  0999 V2000
   18.3266  -11.0322  -16.9841 N   0  0  0  0  0  0  0  0  0  0  0  0
   18.0611  -10.5276  -15.6524 C   0  0  0  0  0  0  0  0  0  0  0  0
   19.2782   -9.8530  -15.1512 C   0  0  0  0  0  0  0  0  0  0  0  0
   19.2826   -9.3644  -13.9955 O   0  0  0  0  0  0  0  0  0  0  0  0
   20.4607   -9.7239  -15.9133 N   0  0  0  0  0  0  0  0  0  0  0  0
   21.6753   -9.1209  -15.4428 C   0  0  1  0  0  0  0  0  0  0  0  0
   22.9237   -9.7694  -15.9606 C   0  0  0  0  0  0  0  0  0  0  0  0
   24.1544   -9.1264  -15.3421 C   0  0  0  0  0  0  0  0  0  0  0  0
   25.3960   -9.8207  -15.7771 C   0  0  0  0  0  0  0  0  0  0  0  0
   25.9626  -10.6887  -15.0602 O   0  0  0  0  0  0  0  0  0  0  0  0
   21.6291   -7.6838  -15.8055 C   0  0  0  0  0  0  0  0  0  0  0  0
   21.6449   -7.3829  -17.0210 O   0  0  0  0  0  0  0  0  0  0  0  0
   25.9375   -9.4918  -17.0160 O   0  0  0  0  0  0  0  0  0  0  0  0
   21.5684   -6.6404  -14.8593 N   0  0  0  0  0  0  0  0  0  0  0  0
   21.3749   -5.2298  -15.2787 C   0  0  1  0  0  0  0  0  0  0  0  0
   19.9753   -4.8076  -15.0096 C   0  0  0  0  0  0  0  0  0  0  0  0
   19.7399   -3.3817  -15.3498 C   0  0  0  0  0  0  0  0  0  0  0  0
   18.3701   -2.9007  -15.0878 C   0  0  0  0  0  0  0  0  0  0  0  0
   18.0667   -1.7033  -15.1369 O   0  0  0  0  0  0  0  0  0  0  0  0
   22.3344   -4.3707  -14.5630 C   0  0  0  0  0  0  0  0  0  0  0  0
   22.8133   -4.7650  -13.4444 O   0  0  0  0  0  0  0  0  0  0  0  0
   17.3784   -3.8237  -14.7731 O   0  0  0  0  0  0  0  0  0  0  0  0
   22.7828   -3.1462  -14.9951 O   0  0  0  0  0  0  0  0  0  0  0  0
  2  1  1  0
  3  5  1  0
  3  2  1  0
  4  3  2  0
  6  7  1  6
  6  5  1  0
  8  7  1  0
  9  8  1  0
 10  9  2  0
 11 14  1  0
 11  6  1  0
 12 11  2  0
 13  9  1  0
 15 14  1  0
 15 16  1  1
 16 17  1  0
 17 18  1  0
 18 22  1  0
 19 18  2  0
 20 15  1  0
 21 20  2  0
 23 20  1  0
M  END
$$$$
