GEE.pdb
     RDKit          3D

 23 22  0  0  1  0  0  0  0  0999 V2000
   25.1494  -11.6696  -16.6291 N   0  0  0  0  0  0  0  0  0  0  0  0
   24.0103  -11.7189  -15.7355 C   0  0  0  0  0  0  0  0  0  0  0  0
   23.2045  -10.4938  -15.9288 C   0  0  0  0  0  0  0  0  0  0  0  0
   23.5166   -9.6855  -16.8362 O   0  0  0  0  0  0  0  0  0  0  0  0
   22.0805  -10.1739  -15.1350 N   0  0  0  0  0  0  0  0  0  0  0  0
   21.1574   -9.1108  -15.4148 C   0  0  1  0  0  0  0  0  0  0  0  0
   19.7936   -9.3106  -14.8254 C   0  0  0  0  0  0  0  0  0  0  0  0
   19.0707  -10.4483  -15.5281 C   0  0  0  0  0  0  0  0  0  0  0  0
   17.6903  -10.6125  -14.9986 C   0  0  0  0  0  0  0  0  0  0  0  0
   16.7081   -9.9939  -15.4895 O   0  0  0  0  0  0  0  0  0  0  0  0
   21.7698   -7.8500  -14.9310 C   0  0  0  0  0  0  0  0  0  0  0  0
   22.4335   -7.8875  -13.8698 O   0  0  0  0  0  0  0  0  0  0  0  0
   17.4920  -11.4789  -13.9279 O   0  0  0  0  0  0  0  0  0  0  0  0
   21.6460   -6.6145  -15.5987 N   0  0  0  0  0  0  0  0  0  0  0  0
   22.2936   -5.3863  -15.0738 C   0  0  1  0  0  0  0  0  0  0  0  0
   22.3499   -4.3484  -16.1363 C   0  0  0  0  0  0  0  0  0  0  0  0
   23.6974   -4.2407  -16.7504 C   0  0  0  0  0  0  0  0  0  0  0  0
   23.8050   -3.2489  -17.8370 C   0  0  0  0  0  0  0  0  0  0  0  0
   23.9824   -2.0446  -17.6210 O   0  0  0  0  0  0  0  0  0  0  0  0
   21.5463   -4.9029  -13.8997 C   0  0  0  0  0  0  0  0  0  0  0  0
   20.2756   -5.0456  -13.8651 O   0  0  0  0  0  0  0  0  0  0  0  0
   23.7040   -3.6780  -19.1562 O   0  0  0  0  0  0  0  0  0  0  0  0
   22.0994   -4.2946  -12.7991 O   0  0  0  0  0  0  0  0  0  0  0  0
  2  1  1  0
  3  5  1  0
  3  2  1  0
  4  3  2  0
  6  7  1  1
  6  5  1  0
  8  7  1  0
  9  8  1  0
 10  9  2  0
 11 14  1  0
 11  6  1  0
 12 11  2  0
 13  9  1  0
 15 14  1  0
 15 16  1  6
 16 17  1  0
 17 18  1  0
 18 22  1  0
 19 18  2  0
 20 15  1  0
 21 20  2  0
 23 20  1  0
M  END
$$$$
