GEE.pdb
     RDKit          3D

 23 22  0  0  1  0  0  0  0  0999 V2000
   18.3504  -10.5092  -19.2638 N   0  0  0  0  0  0  0  0  0  0  0  0
   18.2310   -9.0856  -19.0230 C   0  0  0  0  0  0  0  0  0  0  0  0
   18.9603   -8.7538  -17.7798 C   0  0  0  0  0  0  0  0  0  0  0  0
   18.3157   -8.4410  -16.7499 O   0  0  0  0  0  0  0  0  0  0  0  0
   20.3696   -8.7687  -17.6822 N   0  0  0  0  0  0  0  0  0  0  0  0
   21.1120   -8.4079  -16.5079 C   0  0  1  0  0  0  0  0  0  0  0  0
   22.4018   -9.1540  -16.3435 C   0  0  0  0  0  0  0  0  0  0  0  0
   22.1380  -10.5823  -15.8951 C   0  0  0  0  0  0  0  0  0  0  0  0
   23.4105  -11.3360  -15.7351 C   0  0  0  0  0  0  0  0  0  0  0  0
   23.5873  -12.4681  -16.2600 O   0  0  0  0  0  0  0  0  0  0  0  0
   21.3435   -6.9441  -16.5591 C   0  0  0  0  0  0  0  0  0  0  0  0
   21.5011   -6.4123  -17.6818 O   0  0  0  0  0  0  0  0  0  0  0  0
   24.4284  -10.7614  -14.9801 O   0  0  0  0  0  0  0  0  0  0  0  0
   21.3956   -6.1206  -15.4160 N   0  0  0  0  0  0  0  0  0  0  0  0
   21.4588   -4.6423  -15.5332 C   0  0  1  0  0  0  0  0  0  0  0  0
   20.2999   -4.1454  -16.3202 C   0  0  0  0  0  0  0  0  0  0  0  0
   20.3247   -2.6710  -16.4932 C   0  0  0  0  0  0  0  0  0  0  0  0
   19.1715   -2.1141  -17.2254 C   0  0  0  0  0  0  0  0  0  0  0  0
   19.0823   -2.1613  -18.4576 O   0  0  0  0  0  0  0  0  0  0  0  0
   21.4798   -4.0453  -14.1864 C   0  0  0  0  0  0  0  0  0  0  0  0
   21.1134   -4.7505  -13.1840 O   0  0  0  0  0  0  0  0  0  0  0  0
   18.1427   -1.5121  -16.5088 O   0  0  0  0  0  0  0  0  0  0  0  0
   21.8698   -2.7617  -13.8905 O   0  0  0  0  0  0  0  0  0  0  0  0
  2  1  1  0
  3  5  1  0
  3  2  1  0
  4  3  2  0
  6  7  1  6
  6  5  1  0
  8  7  1  0
  9  8  1  0
 10  9  2  0
 11 14  1  0
 11  6  1  0
 12 11  2  0
 13  9  1  0
 15 14  1  0
 15 16  1  6
 16 17  1  0
 17 18  1  0
 18 22  1  0
 19 18  2  0
 20 15  1  0
 21 20  2  0
 23 20  1  0
M  END
$$$$
