GEE.pdb
     RDKit          3D

 23 22  0  0  1  0  0  0  0  0999 V2000
   19.6845  -27.3964   -1.3416 N   0  0  0  0  0  0  0  0  0  0  0  0
   21.0848  -27.4576   -1.7077 C   0  0  0  0  0  0  0  0  0  0  0  0
   21.5865  -28.8212   -1.4309 C   0  0  0  0  0  0  0  0  0  0  0  0
   20.8669  -29.6268   -0.7928 O   0  0  0  0  0  0  0  0  0  0  0  0
   22.8550  -29.2791   -1.8518 N   0  0  0  0  0  0  0  0  0  0  0  0
   23.3643  -30.6015   -1.6235 C   0  0  1  0  0  0  0  0  0  0  0  0
   24.4978  -30.9873   -2.5256 C   0  0  0  0  0  0  0  0  0  0  0  0
   24.9379  -32.4155   -2.2475 C   0  0  0  0  0  0  0  0  0  0  0  0
   25.9457  -32.8678   -3.2438 C   0  0  0  0  0  0  0  0  0  0  0  0
   25.9724  -34.0507   -3.6779 O   0  0  0  0  0  0  0  0  0  0  0  0
   23.7629  -30.6857   -0.1977 C   0  0  0  0  0  0  0  0  0  0  0  0
   24.3775  -29.7147    0.2998 O   0  0  0  0  0  0  0  0  0  0  0  0
   26.8819  -31.9459   -3.7020 O   0  0  0  0  0  0  0  0  0  0  0  0
   23.4883  -31.7963    0.6263 N   0  0  0  0  0  0  0  0  0  0  0  0
   23.8516  -31.7967    2.0655 C   0  0  1  0  0  0  0  0  0  0  0  0
   22.7321  -32.3503    2.8715 C   0  0  0  0  0  0  0  0  0  0  0  0
   23.0665  -32.4418    4.3152 C   0  0  0  0  0  0  0  0  0  0  0  0
   22.0283  -33.0723    5.1523 C   0  0  0  0  0  0  0  0  0  0  0  0
   22.1923  -33.2950    6.3573 O   0  0  0  0  0  0  0  0  0  0  0  0
   25.0829  -32.5824    2.2589 C   0  0  0  0  0  0  0  0  0  0  0  0
   25.3937  -33.4790    1.4011 O   0  0  0  0  0  0  0  0  0  0  0  0
   20.8174  -33.4324    4.5704 O   0  0  0  0  0  0  0  0  0  0  0  0
   25.9619  -32.4405    3.3051 O   0  0  0  0  0  0  0  0  0  0  0  0
  2  1  1  0
  3  5  1  0
  3  2  1  0
  4  3  2  0
  6  7  1  6
  6  5  1  0
  8  7  1  0
  9  8  1  0
 10  9  2  0
 11 14  1  0
 11  6  1  0
 12 11  2  0
 13  9  1  0
 15 14  1  0
 15 16  1  1
 16 17  1  0
 17 18  1  0
 18 22  1  0
 19 18  2  0
 20 15  1  0
 21 20  2  0
 23 20  1  0
M  END
$$$$
