GEE.pdb
     RDKit          3D

 23 22  0  0  1  0  0  0  0  0999 V2000
   15.1319   -5.7316   -6.8805 N   0  0  0  0  0  0  0  0  0  0  0  0
   14.3536   -6.5614   -7.7773 C   0  0  0  0  0  0  0  0  0  0  0  0
   15.2815   -7.3627   -8.6047 C   0  0  0  0  0  0  0  0  0  0  0  0
   16.5194   -7.2334   -8.4464 O   0  0  0  0  0  0  0  0  0  0  0  0
   14.8464   -8.2842   -9.5831 N   0  0  0  0  0  0  0  0  0  0  0  0
   15.7156   -9.1052  -10.3773 C   0  0  1  0  0  0  0  0  0  0  0  0
   15.0318  -10.2646  -11.0372 C   0  0  0  0  0  0  0  0  0  0  0  0
   16.0267  -11.0790  -11.8482 C   0  0  0  0  0  0  0  0  0  0  0  0
   15.3576  -12.2255  -12.5196 C   0  0  0  0  0  0  0  0  0  0  0  0
   14.5239  -12.0612  -13.4503 O   0  0  0  0  0  0  0  0  0  0  0  0
   16.3658   -8.2267  -11.3795 C   0  0  0  0  0  0  0  0  0  0  0  0
   15.6529   -7.3897  -11.9789 O   0  0  0  0  0  0  0  0  0  0  0  0
   15.6715  -13.5136  -12.0968 O   0  0  0  0  0  0  0  0  0  0  0  0
   17.7392   -8.2820  -11.6935 N   0  0  0  0  0  0  0  0  0  0  0  0
   18.3518   -7.3208  -12.6442 C   0  0  1  0  0  0  0  0  0  0  0  0
   19.8161   -7.2329  -12.4043 C   0  0  0  0  0  0  0  0  0  0  0  0
   20.4739   -6.2339  -13.2840 C   0  0  0  0  0  0  0  0  0  0  0  0
   21.9347   -6.1232  -13.1108 C   0  0  0  0  0  0  0  0  0  0  0  0
   22.5453   -5.0630  -13.2880 O   0  0  0  0  0  0  0  0  0  0  0  0
   18.0657   -7.7486  -14.0247 C   0  0  0  0  0  0  0  0  0  0  0  0
   17.6935   -8.9530  -14.2417 O   0  0  0  0  0  0  0  0  0  0  0  0
   22.6579   -7.2500  -12.7344 O   0  0  0  0  0  0  0  0  0  0  0  0
   18.1607   -6.9530  -15.1407 O   0  0  0  0  0  0  0  0  0  0  0  0
  2  1  1  0
  3  5  1  0
  3  2  1  0
  4  3  2  0
  6  7  1  6
  6  5  1  0
  8  7  1  0
  9  8  1  0
 10  9  2  0
 11 14  1  0
 11  6  1  0
 12 11  2  0
 13  9  1  0
 15 14  1  0
 15 16  1  6
 16 17  1  0
 17 18  1  0
 18 22  1  0
 19 18  2  0
 20 15  1  0
 21 20  2  0
 23 20  1  0
M  END
$$$$
