GEE.pdb
     RDKit          3D

 23 22  0  0  1  0  0  0  0  0999 V2000
   18.5988  -12.0729  -15.9725 N   0  0  0  0  0  0  0  0  0  0  0  0
   18.8243  -10.7650  -16.5531 C   0  0  0  0  0  0  0  0  0  0  0  0
   19.9048  -10.0931  -15.7989 C   0  0  0  0  0  0  0  0  0  0  0  0
   19.6938   -9.7153  -14.6212 O   0  0  0  0  0  0  0  0  0  0  0  0
   21.1871   -9.8467  -16.3382 N   0  0  0  0  0  0  0  0  0  0  0  0
   22.2683   -9.2262  -15.6266 C   0  0  1  0  0  0  0  0  0  0  0  0
   23.6302   -9.6585  -16.0801 C   0  0  0  0  0  0  0  0  0  0  0  0
   23.9250  -11.0731  -15.6082 C   0  0  0  0  0  0  0  0  0  0  0  0
   25.2681  -11.5201  -16.0655 C   0  0  0  0  0  0  0  0  0  0  0  0
   25.4123  -12.3974  -16.9588 O   0  0  0  0  0  0  0  0  0  0  0  0
   22.1025   -7.7583  -15.7556 C   0  0  0  0  0  0  0  0  0  0  0  0
   21.8139   -7.2955  -16.8828 O   0  0  0  0  0  0  0  0  0  0  0  0
   26.3911  -10.9434  -15.4802 O   0  0  0  0  0  0  0  0  0  0  0  0
   22.2514   -6.8576  -14.6813 N   0  0  0  0  0  0  0  0  0  0  0  0
   21.9374   -5.4150  -14.8356 C   0  0  1  0  0  0  0  0  0  0  0  0
   20.5304   -5.2470  -15.2843 C   0  0  0  0  0  0  0  0  0  0  0  0
   20.1090   -3.8234  -15.3015 C   0  0  0  0  0  0  0  0  0  0  0  0
   18.7255   -3.5929  -15.7588 C   0  0  0  0  0  0  0  0  0  0  0  0
   17.9633   -4.5185  -16.0598 O   0  0  0  0  0  0  0  0  0  0  0  0
   22.1716   -4.7239  -13.5556 C   0  0  0  0  0  0  0  0  0  0  0  0
   22.2699   -5.4123  -12.4820 O   0  0  0  0  0  0  0  0  0  0  0  0
   18.2548   -2.2878  -15.8572 O   0  0  0  0  0  0  0  0  0  0  0  0
   22.3014   -3.3655  -13.3964 O   0  0  0  0  0  0  0  0  0  0  0  0
  2  1  1  0
  3  5  1  0
  3  2  1  0
  4  3  2  0
  6  7  1  6
  6  5  1  0
  8  7  1  0
  9  8  1  0
 10  9  2  0
 11 14  1  0
 11  6  1  0
 12 11  2  0
 13  9  1  0
 15 14  1  0
 15 16  1  1
 16 17  1  0
 17 18  1  0
 18 22  1  0
 19 18  2  0
 20 15  1  0
 21 20  2  0
 23 20  1  0
M  END
$$$$
