GEE.pdb
     RDKit          3D

 23 22  0  0  1  0  0  0  0  0999 V2000
   17.9209  -12.5757  -16.1830 N   0  0  0  0  0  0  0  0  0  0  0  0
   17.5833  -11.7186  -15.0650 C   0  0  0  0  0  0  0  0  0  0  0  0
   17.8796  -10.3180  -15.4368 C   0  0  0  0  0  0  0  0  0  0  0  0
   18.3059  -10.0613  -16.5886 O   0  0  0  0  0  0  0  0  0  0  0  0
   17.7070   -9.2298  -14.5527 N   0  0  0  0  0  0  0  0  0  0  0  0
   17.7509   -7.8478  -14.9381 C   0  0  1  0  0  0  0  0  0  0  0  0
   16.6643   -7.0078  -14.3373 C   0  0  0  0  0  0  0  0  0  0  0  0
   16.7955   -5.5627  -14.7905 C   0  0  0  0  0  0  0  0  0  0  0  0
   15.7374   -4.7132  -14.1809 C   0  0  0  0  0  0  0  0  0  0  0  0
   15.9842   -3.5667  -13.7191 O   0  0  0  0  0  0  0  0  0  0  0  0
   19.0914   -7.3267  -14.5771 C   0  0  0  0  0  0  0  0  0  0  0  0
   19.5470   -7.6085  -13.4452 O   0  0  0  0  0  0  0  0  0  0  0  0
   14.4397   -5.2123  -14.1253 O   0  0  0  0  0  0  0  0  0  0  0  0
   19.8790   -6.5335  -15.4362 N   0  0  0  0  0  0  0  0  0  0  0  0
   21.2598   -6.1338  -15.0662 C   0  0  1  0  0  0  0  0  0  0  0  0
   22.0393   -5.8088  -16.2894 C   0  0  0  0  0  0  0  0  0  0  0  0
   23.4369   -5.4141  -15.9806 C   0  0  0  0  0  0  0  0  0  0  0  0
   24.2284   -4.9765  -17.1460 C   0  0  0  0  0  0  0  0  0  0  0  0
   24.9179   -5.7581  -17.8109 O   0  0  0  0  0  0  0  0  0  0  0  0
   21.2063   -4.9811  -14.1501 C   0  0  0  0  0  0  0  0  0  0  0  0
   20.2612   -4.1279  -14.2731 O   0  0  0  0  0  0  0  0  0  0  0  0
   24.2025   -3.6360  -17.5159 O   0  0  0  0  0  0  0  0  0  0  0  0
   22.1017   -4.7246  -13.1401 O   0  0  0  0  0  0  0  0  0  0  0  0
  2  1  1  0
  3  5  1  0
  3  2  1  0
  4  3  2  0
  6  7  1  1
  6  5  1  0
  8  7  1  0
  9  8  1  0
 10  9  2  0
 11 14  1  0
 11  6  1  0
 12 11  2  0
 13  9  1  0
 15 14  1  0
 15 16  1  6
 16 17  1  0
 17 18  1  0
 18 22  1  0
 19 18  2  0
 20 15  1  0
 21 20  2  0
 23 20  1  0
M  END
$$$$
