GEE.pdb
     RDKit          3D

 23 22  0  0  1  0  0  0  0  0999 V2000
   24.9885  -15.2277  -16.9353 N   0  0  0  0  0  0  0  0  0  0  0  0
   25.7202  -15.7455  -15.7973 C   0  0  0  0  0  0  0  0  0  0  0  0
   25.4257  -17.1887  -15.6629 C   0  0  0  0  0  0  0  0  0  0  0  0
   24.6465  -17.7389  -16.4779 O   0  0  0  0  0  0  0  0  0  0  0  0
   25.9819  -18.0006  -14.6494 N   0  0  0  0  0  0  0  0  0  0  0  0
   25.6763  -19.3895  -14.4543 C   0  0  1  0  0  0  0  0  0  0  0  0
   26.7235  -20.1482  -13.6961 C   0  0  0  0  0  0  0  0  0  0  0  0
   27.9868  -20.2905  -14.5296 C   0  0  0  0  0  0  0  0  0  0  0  0
   27.8143  -21.3192  -15.5902 C   0  0  0  0  0  0  0  0  0  0  0  0
   28.0159  -21.0642  -16.8079 O   0  0  0  0  0  0  0  0  0  0  0  0
   24.3619  -19.4651  -13.7719 C   0  0  0  0  0  0  0  0  0  0  0  0
   24.2357  -18.8808  -12.6716 O   0  0  0  0  0  0  0  0  0  0  0  0
   27.4178  -22.5983  -15.2119 O   0  0  0  0  0  0  0  0  0  0  0  0
   23.2494  -20.1568  -14.2930 N   0  0  0  0  0  0  0  0  0  0  0  0
   21.9494  -20.1767  -13.5768 C   0  0  1  0  0  0  0  0  0  0  0  0
   20.9612  -19.3298  -14.2947 C   0  0  0  0  0  0  0  0  0  0  0  0
   19.6495  -19.2805  -13.6009 C   0  0  0  0  0  0  0  0  0  0  0  0
   18.6258  -18.4556  -14.2702 C   0  0  0  0  0  0  0  0  0  0  0  0
   18.2933  -18.6367  -15.4471 O   0  0  0  0  0  0  0  0  0  0  0  0
   21.4739  -21.5668  -13.4649 C   0  0  0  0  0  0  0  0  0  0  0  0
   21.9535  -22.4567  -14.2486 O   0  0  0  0  0  0  0  0  0  0  0  0
   18.0079  -17.4345  -13.5562 O   0  0  0  0  0  0  0  0  0  0  0  0
   20.5348  -22.0173  -12.5690 O   0  0  0  0  0  0  0  0  0  0  0  0
  2  1  1  0
  3  5  1  0
  3  2  1  0
  4  3  2  0
  6  7  1  1
  6  5  1  0
  8  7  1  0
  9  8  1  0
 10  9  2  0
 11 14  1  0
 11  6  1  0
 12 11  2  0
 13  9  1  0
 15 14  1  0
 15 16  1  6
 16 17  1  0
 17 18  1  0
 18 22  1  0
 19 18  2  0
 20 15  1  0
 21 20  2  0
 23 20  1  0
M  END
$$$$
