GEE.pdb
     RDKit          3D

 23 22  0  0  1  0  0  0  0  0999 V2000
   20.8167  -14.7067  -18.0401 N   0  0  0  0  0  0  0  0  0  0  0  0
   21.1273  -13.4776  -18.7411 C   0  0  0  0  0  0  0  0  0  0  0  0
   21.6039  -12.4804  -17.7583 C   0  0  0  0  0  0  0  0  0  0  0  0
   21.2381  -12.5686  -16.5614 O   0  0  0  0  0  0  0  0  0  0  0  0
   22.4648  -11.4122  -18.0954 N   0  0  0  0  0  0  0  0  0  0  0  0
   22.8649  -10.3686  -17.1946 C   0  0  1  0  0  0  0  0  0  0  0  0
   24.1018   -9.6342  -17.6162 C   0  0  0  0  0  0  0  0  0  0  0  0
   24.5080   -8.6224  -16.5569 C   0  0  0  0  0  0  0  0  0  0  0  0
   25.7397   -7.8920  -16.9599 C   0  0  0  0  0  0  0  0  0  0  0  0
   25.7408   -6.6497  -17.1722 O   0  0  0  0  0  0  0  0  0  0  0  0
   21.7165   -9.4420  -17.0478 C   0  0  0  0  0  0  0  0  0  0  0  0
   21.1749   -9.0066  -18.0896 O   0  0  0  0  0  0  0  0  0  0  0  0
   26.9199   -8.6152  -17.1031 O   0  0  0  0  0  0  0  0  0  0  0  0
   21.2023   -9.0257  -15.8029 N   0  0  0  0  0  0  0  0  0  0  0  0
   19.9854   -8.1803  -15.7152 C   0  0  1  0  0  0  0  0  0  0  0  0
   18.8345   -8.9945  -15.2440 C   0  0  0  0  0  0  0  0  0  0  0  0
   17.5869   -8.1974  -15.1315 C   0  0  0  0  0  0  0  0  0  0  0  0
   16.4154   -8.9474  -14.6401 C   0  0  0  0  0  0  0  0  0  0  0  0
   16.3348   -9.3662  -13.4798 O   0  0  0  0  0  0  0  0  0  0  0  0
   20.2406   -7.0482  -14.8074 C   0  0  0  0  0  0  0  0  0  0  0  0
   21.1822   -7.1373  -13.9462 O   0  0  0  0  0  0  0  0  0  0  0  0
   15.3588   -9.1961  -15.5097 O   0  0  0  0  0  0  0  0  0  0  0  0
   19.5441   -5.8642  -14.7960 O   0  0  0  0  0  0  0  0  0  0  0  0
  2  1  1  0
  3  5  1  0
  3  2  1  0
  4  3  2  0
  6  7  1  6
  6  5  1  0
  8  7  1  0
  9  8  1  0
 10  9  2  0
 11 14  1  0
 11  6  1  0
 12 11  2  0
 13  9  1  0
 15 14  1  0
 15 16  1  1
 16 17  1  0
 17 18  1  0
 18 22  1  0
 19 18  2  0
 20 15  1  0
 21 20  2  0
 23 20  1  0
M  END
$$$$
