GEE.pdb
     RDKit          3D

 23 22  0  0  1  0  0  0  0  0999 V2000
   16.0431  -11.8799  -15.1076 N   0  0  0  0  0  0  0  0  0  0  0  0
   16.3493  -10.6190  -15.7516 C   0  0  0  0  0  0  0  0  0  0  0  0
   17.6653  -10.1484  -15.2675 C   0  0  0  0  0  0  0  0  0  0  0  0
   17.7653   -9.6769  -14.1091 O   0  0  0  0  0  0  0  0  0  0  0  0
   18.8408  -10.1997  -16.0495 N   0  0  0  0  0  0  0  0  0  0  0  0
   20.1148   -9.6755  -15.6464 C   0  0  1  0  0  0  0  0  0  0  0  0
   21.2881  -10.3471  -16.2942 C   0  0  0  0  0  0  0  0  0  0  0  0
   22.5911   -9.8083  -15.7263 C   0  0  0  0  0  0  0  0  0  0  0  0
   23.7625  -10.5067  -16.3205 C   0  0  0  0  0  0  0  0  0  0  0  0
   24.2272  -11.5698  -15.8283 O   0  0  0  0  0  0  0  0  0  0  0  0
   20.1079   -8.2201  -15.9300 C   0  0  0  0  0  0  0  0  0  0  0  0
   19.6964   -7.8408  -17.0503 O   0  0  0  0  0  0  0  0  0  0  0  0
   24.3534   -9.9581  -17.4547 O   0  0  0  0  0  0  0  0  0  0  0  0
   20.5380   -7.2424  -15.0097 N   0  0  0  0  0  0  0  0  0  0  0  0
   20.4802   -5.7961  -15.3384 C   0  0  1  0  0  0  0  0  0  0  0  0
   19.1143   -5.2706  -15.0785 C   0  0  0  0  0  0  0  0  0  0  0  0
   19.0139   -3.8102  -15.3272 C   0  0  0  0  0  0  0  0  0  0  0  0
   17.6973   -3.2193  -15.0212 C   0  0  0  0  0  0  0  0  0  0  0  0
   17.4497   -2.0215  -15.2010 O   0  0  0  0  0  0  0  0  0  0  0  0
   21.4867   -5.0729  -14.5417 C   0  0  0  0  0  0  0  0  0  0  0  0
   22.0502   -5.6663  -13.5585 O   0  0  0  0  0  0  0  0  0  0  0  0
   16.6926   -4.0346  -14.5110 O   0  0  0  0  0  0  0  0  0  0  0  0
   21.8955   -3.7796  -14.7598 O   0  0  0  0  0  0  0  0  0  0  0  0
  2  1  1  0
  3  5  1  0
  3  2  1  0
  4  3  2  0
  6  7  1  6
  6  5  1  0
  8  7  1  0
  9  8  1  0
 10  9  2  0
 11 14  1  0
 11  6  1  0
 12 11  2  0
 13  9  1  0
 15 14  1  0
 15 16  1  1
 16 17  1  0
 17 18  1  0
 18 22  1  0
 19 18  2  0
 20 15  1  0
 21 20  2  0
 23 20  1  0
M  END
$$$$
