SVM.pdb
     RDKit          3D

 22 21  0  0  1  0  0  0  0  0999 V2000
   22.0160  -13.6673  -15.6044 O   0  0  0  0  0  0  0  0  0  0  0  0
   22.0025  -12.3838  -16.1958 C   0  0  0  0  0  0  0  0  0  0  0  0
   20.5564  -12.0413  -16.4840 C   0  0  2  0  0  0  0  0  0  0  0  0
   20.0759  -12.8933  -17.5621 N   0  0  0  0  0  0  0  0  0  0  0  0
   20.4055  -10.6354  -16.9250 C   0  0  0  0  0  0  0  0  0  0  0  0
   20.5073  -10.2970  -18.1256 O   0  0  0  0  0  0  0  0  0  0  0  0
   17.6367   -8.2152  -17.0059 C   0  0  0  0  0  0  0  0  0  0  0  0
   18.6763   -7.6624  -16.1031 C   0  0  2  0  0  0  0  0  0  0  0  0
   18.8261   -6.1673  -16.1753 C   0  0  0  0  0  0  0  0  0  0  0  0
   20.0692   -8.2522  -16.3585 C   0  0  2  0  0  0  0  0  0  0  0  0
   20.1368   -9.6270  -15.9714 N   0  0  0  0  0  0  0  0  0  0  0  0
   21.1104   -7.4132  -15.6988 C   0  0  0  0  0  0  0  0  0  0  0  0
   21.2399   -7.4101  -14.4484 O   0  0  0  0  0  0  0  0  0  0  0  0
   27.6580   -2.8656  -16.6999 C   0  0  0  0  0  0  0  0  0  0  0  0
   26.3197   -3.8450  -17.2962 S   0  0  0  0  0  0  0  0  0  0  0  0
   25.1103   -4.4494  -16.1339 C   0  0  0  0  0  0  0  0  0  0  0  0
   24.0502   -5.2980  -16.7539 C   0  0  0  0  0  0  0  0  0  0  0  0
   23.0610   -5.7995  -15.7921 C   0  0  2  0  0  0  0  0  0  0  0  0
   21.9975   -6.5854  -16.4311 N   0  0  0  0  0  0  0  0  0  0  0  0
   22.4228   -4.7688  -14.9930 C   0  0  0  0  0  0  0  0  0  0  0  0
   22.7434   -4.5157  -13.6912 O   0  0  0  0  0  0  0  0  0  0  0  0
   21.5122   -4.0487  -15.5127 O   0  0  0  0  0  0  0  0  0  0  0  0
  2  1  1  0
  2  3  1  0
  3  4  1  6
  5 11  1  0
  5  3  1  0
  6  5  2  0
  8  7  1  6
  8 10  1  0
  9  8  1  0
 10 11  1  1
 10 12  1  0
 12 19  1  0
 12 13  2  0
 14 15  1  0
 16 17  1  0
 16 15  1  0
 18 20  1  0
 18 17  1  6
 19 18  1  0
 20 21  1  0
 22 20  2  0
M  END
$$$$
