SVM.pdb
     RDKit          3D

 22 21  0  0  1  0  0  0  0  0999 V2000
   19.8087  -10.9224  -17.5945 O   0  0  0  0  0  0  0  0  0  0  0  0
   20.3019  -10.5601  -18.8685 C   0  0  0  0  0  0  0  0  0  0  0  0
   21.8129  -10.6077  -18.7912 C   0  0  2  0  0  0  0  0  0  0  0  0
   22.2223  -11.9441  -18.3843 N   0  0  0  0  0  0  0  0  0  0  0  0
   22.3387   -9.6545  -17.7867 C   0  0  0  0  0  0  0  0  0  0  0  0
   22.8163  -10.0318  -16.6932 O   0  0  0  0  0  0  0  0  0  0  0  0
   24.7255   -6.6367  -18.6032 C   0  0  0  0  0  0  0  0  0  0  0  0
   23.5657   -6.1776  -17.7998 C   0  0  2  0  0  0  0  0  0  0  0  0
   23.9131   -5.1847  -16.7244 C   0  0  0  0  0  0  0  0  0  0  0  0
   22.8219   -7.3267  -17.1075 C   0  0  2  0  0  0  0  0  0  0  0  0
   22.3087   -8.2668  -18.0548 N   0  0  0  0  0  0  0  0  0  0  0  0
   21.7688   -6.7842  -16.2018 C   0  0  0  0  0  0  0  0  0  0  0  0
   20.6679   -6.3848  -16.6586 O   0  0  0  0  0  0  0  0  0  0  0  0
   17.3710   -8.0220   -9.9783 C   0  0  0  0  0  0  0  0  0  0  0  0
   18.6250   -8.3497  -11.1724 S   0  0  0  0  0  0  0  0  0  0  0  0
   19.3157   -6.9871  -12.0918 C   0  0  0  0  0  0  0  0  0  0  0  0
   20.3652   -7.3926  -13.0728 C   0  0  0  0  0  0  0  0  0  0  0  0
   20.8696   -6.2807  -13.8878 C   0  0  2  0  0  0  0  0  0  0  0  0
   21.9464   -6.6892  -14.7990 N   0  0  0  0  0  0  0  0  0  0  0  0
   21.3518   -5.1446  -13.1228 C   0  0  0  0  0  0  0  0  0  0  0  0
   20.5311   -4.2274  -12.5342 O   0  0  0  0  0  0  0  0  0  0  0  0
   22.6040   -4.9737  -12.9789 O   0  0  0  0  0  0  0  0  0  0  0  0
  2  1  1  0
  2  3  1  0
  3  4  1  1
  5 11  1  0
  5  3  1  0
  6  5  2  0
  8  7  1  1
  8 10  1  0
  9  8  1  0
 10 11  1  6
 10 12  1  0
 12 19  1  0
 12 13  2  0
 14 15  1  0
 16 17  1  0
 16 15  1  0
 18 20  1  0
 18 17  1  1
 19 18  1  0
 20 21  1  0
 22 20  2  0
M  END
$$$$
