SVM.pdb
     RDKit          3D

 22 21  0  0  1  0  0  0  0  0999 V2000
   18.6080  -27.0228   -8.0589 O   0  0  0  0  0  0  0  0  0  0  0  0
   18.1681  -25.8115   -8.6392 C   0  0  0  0  0  0  0  0  0  0  0  0
   18.7607  -24.6845   -7.8205 C   0  0  2  0  0  0  0  0  0  0  0  0
   18.1061  -24.6513   -6.5207 N   0  0  0  0  0  0  0  0  0  0  0  0
   18.5422  -23.3685   -8.4641 C   0  0  0  0  0  0  0  0  0  0  0  0
   17.5720  -22.6341   -8.1712 O   0  0  0  0  0  0  0  0  0  0  0  0
   21.3470  -20.7844   -8.6677 C   0  0  0  0  0  0  0  0  0  0  0  0
   20.7137  -20.8842  -10.0057 C   0  0  2  0  0  0  0  0  0  0  0  0
   20.4986  -19.5609  -10.6879 C   0  0  0  0  0  0  0  0  0  0  0  0
   19.3491  -21.5843   -9.9738 C   0  0  2  0  0  0  0  0  0  0  0  0
   19.4504  -22.9091   -9.4452 N   0  0  0  0  0  0  0  0  0  0  0  0
   18.7217  -21.5470  -11.3260 C   0  0  0  0  0  0  0  0  0  0  0  0
   18.5096  -20.4538  -11.9091 O   0  0  0  0  0  0  0  0  0  0  0  0
   13.5662  -25.7396  -11.1165 C   0  0  0  0  0  0  0  0  0  0  0  0
   13.3526  -24.1573  -11.8624 S   0  0  0  0  0  0  0  0  0  0  0  0
   14.7016  -23.4549  -12.7930 C   0  0  0  0  0  0  0  0  0  0  0  0
   15.9587  -23.2945  -12.0041 C   0  0  0  0  0  0  0  0  0  0  0  0
   17.0943  -22.8115  -12.7991 C   0  0  2  0  0  0  0  0  0  0  0  0
   18.3350  -22.7216  -12.0183 N   0  0  0  0  0  0  0  0  0  0  0  0
   16.8810  -21.5216  -13.4308 C   0  0  0  0  0  0  0  0  0  0  0  0
   16.6999  -20.3613  -12.7364 O   0  0  0  0  0  0  0  0  0  0  0  0
   16.8577  -21.4431  -14.7001 O   0  0  0  0  0  0  0  0  0  0  0  0
  2  1  1  0
  2  3  1  0
  3  4  1  1
  5 11  1  0
  5  3  1  0
  6  5  2  0
  8  7  1  1
  8 10  1  0
  9  8  1  0
 10 11  1  6
 10 12  1  0
 12 19  1  0
 12 13  2  0
 14 15  1  0
 16 17  1  0
 16 15  1  0
 18 20  1  0
 18 17  1  1
 19 18  1  0
 20 21  1  0
 22 20  2  0
M  END
$$$$
