SVM.pdb
     RDKit          3D

 22 21  0  0  1  0  0  0  0  0999 V2000
   20.4644  -14.5706  -17.5208 O   0  0  0  0  0  0  0  0  0  0  0  0
   20.7282  -13.1825  -17.4852 C   0  0  0  0  0  0  0  0  0  0  0  0
   19.6889  -12.5092  -18.3559 C   0  0  2  0  0  0  0  0  0  0  0  0
   19.9140  -12.8940  -19.7417 N   0  0  0  0  0  0  0  0  0  0  0  0
   19.7868  -11.0332  -18.2809 C   0  0  0  0  0  0  0  0  0  0  0  0
   20.4986  -10.3698  -19.0679 O   0  0  0  0  0  0  0  0  0  0  0  0
   16.8796   -8.4223  -17.7693 C   0  0  0  0  0  0  0  0  0  0  0  0
   17.9370   -8.2211  -16.7481 C   0  0  2  0  0  0  0  0  0  0  0  0
   18.2829   -6.7797  -16.4923 C   0  0  0  0  0  0  0  0  0  0  0  0
   19.2523   -8.9289  -17.0977 C   0  0  2  0  0  0  0  0  0  0  0  0
   19.0583  -10.3321  -17.2929 N   0  0  0  0  0  0  0  0  0  0  0  0
   20.2875   -8.6254  -16.0683 C   0  0  0  0  0  0  0  0  0  0  0  0
   20.6208   -9.4861  -15.2149 O   0  0  0  0  0  0  0  0  0  0  0  0
   26.4303  -10.6978  -14.4607 C   0  0  0  0  0  0  0  0  0  0  0  0
   25.4459   -9.7253  -15.5520 S   0  0  0  0  0  0  0  0  0  0  0  0
   24.1126   -8.7545  -14.8746 C   0  0  0  0  0  0  0  0  0  0  0  0
   23.2852   -8.0636  -15.9074 C   0  0  0  0  0  0  0  0  0  0  0  0
   22.2468   -7.1929  -15.3430 C   0  0  2  0  0  0  0  0  0  0  0  0
   20.9427   -7.3709  -15.9945 N   0  0  0  0  0  0  0  0  0  0  0  0
   22.5641   -5.7765  -15.3799 C   0  0  0  0  0  0  0  0  0  0  0  0
   23.5119   -5.1940  -14.5902 O   0  0  0  0  0  0  0  0  0  0  0  0
   21.9379   -5.0161  -16.1847 O   0  0  0  0  0  0  0  0  0  0  0  0
  2  1  1  0
  2  3  1  0
  3  4  1  6
  5 11  1  0
  5  3  1  0
  6  5  2  0
  8  7  1  6
  8 10  1  0
  9  8  1  0
 10 11  1  1
 10 12  1  0
 12 19  1  0
 12 13  2  0
 14 15  1  0
 16 17  1  0
 16 15  1  0
 18 20  1  0
 18 17  1  6
 19 18  1  0
 20 21  1  0
 22 20  2  0
M  END
$$$$
