SVM.pdb
     RDKit          3D

 22 21  0  0  1  0  0  0  0  0999 V2000
   20.4695  -18.2675  -11.8479 O   0  0  0  0  0  0  0  0  0  0  0  0
   21.1794  -18.9762  -10.8523 C   0  0  0  0  0  0  0  0  0  0  0  0
   21.7895  -20.1904  -11.5194 C   0  0  2  0  0  0  0  0  0  0  0  0
   20.8065  -21.2641  -11.5341 N   0  0  0  0  0  0  0  0  0  0  0  0
   22.9756  -20.6813  -10.7805 C   0  0  0  0  0  0  0  0  0  0  0  0
   22.8811  -21.4679   -9.8116 O   0  0  0  0  0  0  0  0  0  0  0  0
   26.0152  -22.1123  -12.6666 C   0  0  0  0  0  0  0  0  0  0  0  0
   26.4977  -21.1631  -11.6334 C   0  0  2  0  0  0  0  0  0  0  0  0
   27.7142  -21.6322  -10.8831 C   0  0  0  0  0  0  0  0  0  0  0  0
   25.4351  -20.8336  -10.5773 C   0  0  2  0  0  0  0  0  0  0  0  0
   24.2674  -20.2578  -11.1684 N   0  0  0  0  0  0  0  0  0  0  0  0
   26.0236  -19.9783   -9.5069 C   0  0  0  0  0  0  0  0  0  0  0  0
   26.2264  -18.7526   -9.6987 O   0  0  0  0  0  0  0  0  0  0  0  0
   26.2074  -19.9812   -2.4386 C   0  0  0  0  0  0  0  0  0  0  0  0
   27.7683  -20.1026   -3.2478 S   0  0  0  0  0  0  0  0  0  0  0  0
   27.9210  -19.5000   -4.9189 C   0  0  0  0  0  0  0  0  0  0  0  0
   27.0831  -20.2427   -5.9062 C   0  0  0  0  0  0  0  0  0  0  0  0
   27.2052  -19.7375   -7.2791 C   0  0  2  0  0  0  0  0  0  0  0  0
   26.3822  -20.4899   -8.2348 N   0  0  0  0  0  0  0  0  0  0  0  0
   28.5629  -19.7159   -7.7935 C   0  0  0  0  0  0  0  0  0  0  0  0
   29.4254  -18.6758   -7.6050 O   0  0  0  0  0  0  0  0  0  0  0  0
   28.9952  -20.7096   -8.4595 O   0  0  0  0  0  0  0  0  0  0  0  0
  2  1  1  0
  2  3  1  0
  3  4  1  1
  5 11  1  0
  5  3  1  0
  6  5  2  0
  8  7  1  6
  8 10  1  0
  9  8  1  0
 10 11  1  6
 10 12  1  0
 12 19  1  0
 12 13  2  0
 14 15  1  0
 16 17  1  0
 16 15  1  0
 18 20  1  0
 18 17  1  1
 19 18  1  0
 20 21  1  0
 22 20  2  0
M  END
$$$$
