SVM.pdb
     RDKit          3D

 22 21  0  0  1  0  0  0  0  0999 V2000
   17.6329  -11.3850  -19.4190 O   0  0  0  0  0  0  0  0  0  0  0  0
   18.2338  -10.9270  -18.2246 C   0  0  0  0  0  0  0  0  0  0  0  0
   19.1800  -12.0124  -17.7574 C   0  0  2  0  0  0  0  0  0  0  0  0
   18.4005  -13.1629  -17.3240 N   0  0  0  0  0  0  0  0  0  0  0  0
   19.9962  -11.5664  -16.6047 C   0  0  0  0  0  0  0  0  0  0  0  0
   20.0631  -12.2209  -15.5401 O   0  0  0  0  0  0  0  0  0  0  0  0
   22.0914  -12.4016  -15.0872 C   0  0  0  0  0  0  0  0  0  0  0  0
   22.6957  -11.0867  -15.4146 C   0  0  2  0  0  0  0  0  0  0  0  0
   23.6302  -10.5567  -14.3617 C   0  0  0  0  0  0  0  0  0  0  0  0
   21.6515   -9.9904  -15.6614 C   0  0  2  0  0  0  0  0  0  0  0  0
   20.7322  -10.3625  -16.6914 N   0  0  0  0  0  0  0  0  0  0  0  0
   22.3279   -8.6892  -15.9317 C   0  0  0  0  0  0  0  0  0  0  0  0
   22.9136   -8.4811  -17.0243 O   0  0  0  0  0  0  0  0  0  0  0  0
   19.7156   -2.3756  -18.3634 C   0  0  0  0  0  0  0  0  0  0  0  0
   19.8598   -4.0317  -17.7782 S   0  0  0  0  0  0  0  0  0  0  0  0
   21.2174   -4.4487  -16.7001 C   0  0  0  0  0  0  0  0  0  0  0  0
   21.2435   -5.8843  -16.2918 C   0  0  0  0  0  0  0  0  0  0  0  0
   22.3457   -6.2167  -15.3809 C   0  0  2  0  0  0  0  0  0  0  0  0
   22.3489   -7.6319  -14.9883 N   0  0  0  0  0  0  0  0  0  0  0  0
   22.3796   -5.4254  -14.1639 C   0  0  0  0  0  0  0  0  0  0  0  0
   22.9335   -4.1809  -14.0875 O   0  0  0  0  0  0  0  0  0  0  0  0
   21.8712   -5.8964  -13.0973 O   0  0  0  0  0  0  0  0  0  0  0  0
  2  1  1  0
  2  3  1  0
  3  4  1  1
  5 11  1  0
  5  3  1  0
  6  5  2  0
  8  7  1  1
  8 10  1  0
  9  8  1  0
 10 11  1  6
 10 12  1  0
 12 19  1  0
 12 13  2  0
 14 15  1  0
 16 17  1  0
 16 15  1  0
 18 20  1  0
 18 17  1  1
 19 18  1  0
 20 21  1  0
 22 20  2  0
M  END
$$$$
