SVM.pdb
     RDKit          3D

 22 21  0  0  1  0  0  0  0  0999 V2000
   21.3966  -18.8739  -13.3660 O   0  0  0  0  0  0  0  0  0  0  0  0
   22.1384  -19.4652  -12.3184 C   0  0  0  0  0  0  0  0  0  0  0  0
   22.8435  -20.6727  -12.8984 C   0  0  2  0  0  0  0  0  0  0  0  0
   21.8763  -21.7475  -13.0672 N   0  0  0  0  0  0  0  0  0  0  0  0
   23.9088  -21.1685  -11.9966 C   0  0  0  0  0  0  0  0  0  0  0  0
   23.6863  -22.0131  -11.1004 O   0  0  0  0  0  0  0  0  0  0  0  0
   27.6099  -21.9449  -13.2449 C   0  0  0  0  0  0  0  0  0  0  0  0
   27.6292  -21.1575  -11.9876 C   0  0  2  0  0  0  0  0  0  0  0  0
   28.6372  -21.6318  -10.9768 C   0  0  0  0  0  0  0  0  0  0  0  0
   26.2725  -21.1350  -11.2719 C   0  0  2  0  0  0  0  0  0  0  0  0
   25.2288  -20.6825  -12.1381 N   0  0  0  0  0  0  0  0  0  0  0  0
   26.3685  -20.3376  -10.0155 C   0  0  0  0  0  0  0  0  0  0  0  0
   26.2621  -19.0852  -10.0363 O   0  0  0  0  0  0  0  0  0  0  0  0
   24.7643  -21.5640   -3.2790 C   0  0  0  0  0  0  0  0  0  0  0  0
   26.4317  -21.0705   -3.5654 S   0  0  0  0  0  0  0  0  0  0  0  0
   26.8175  -20.1604   -5.0493 C   0  0  0  0  0  0  0  0  0  0  0  0
   26.6227  -20.9442   -6.3047 C   0  0  0  0  0  0  0  0  0  0  0  0
   26.8039  -20.1517   -7.5270 C   0  0  2  0  0  0  0  0  0  0  0  0
   26.5819  -20.9359   -8.7487 N   0  0  0  0  0  0  0  0  0  0  0  0
   28.1046  -19.5172   -7.6451 C   0  0  0  0  0  0  0  0  0  0  0  0
   28.3874  -18.2768   -7.1525 O   0  0  0  0  0  0  0  0  0  0  0  0
   29.0487  -20.1316   -8.2359 O   0  0  0  0  0  0  0  0  0  0  0  0
  2  1  1  0
  2  3  1  0
  3  4  1  1
  5 11  1  0
  5  3  1  0
  6  5  2  0
  8  7  1  6
  8 10  1  0
  9  8  1  0
 10 11  1  6
 10 12  1  0
 12 19  1  0
 12 13  2  0
 14 15  1  0
 16 17  1  0
 16 15  1  0
 18 20  1  0
 18 17  1  1
 19 18  1  0
 20 21  1  0
 22 20  2  0
M  END
$$$$
