SVM.pdb
     RDKit          3D

 22 21  0  0  1  0  0  0  0  0999 V2000
   17.3885  -15.3274  -14.2941 O   0  0  0  0  0  0  0  0  0  0  0  0
   18.2744  -14.4475  -14.9562 C   0  0  0  0  0  0  0  0  0  0  0  0
   17.4891  -13.7723  -16.0603 C   0  0  2  0  0  0  0  0  0  0  0  0
   17.2577  -14.7328  -17.1295 N   0  0  0  0  0  0  0  0  0  0  0  0
   18.2330  -12.6301  -16.6398 C   0  0  0  0  0  0  0  0  0  0  0  0
   18.9743  -12.7538  -17.6405 O   0  0  0  0  0  0  0  0  0  0  0  0
   16.8749   -9.3704  -18.0120 C   0  0  0  0  0  0  0  0  0  0  0  0
   17.8219   -9.0687  -16.9103 C   0  0  2  0  0  0  0  0  0  0  0  0
   18.6686   -7.8469  -17.1403 C   0  0  0  0  0  0  0  0  0  0  0  0
   18.7911  -10.2214  -16.6188 C   0  0  2  0  0  0  0  0  0  0  0  0
   18.1139  -11.3480  -16.0561 N   0  0  0  0  0  0  0  0  0  0  0  0
   19.9191   -9.7409  -15.7701 C   0  0  0  0  0  0  0  0  0  0  0  0
   19.7237   -9.3758  -14.5832 O   0  0  0  0  0  0  0  0  0  0  0  0
   26.7336  -11.5764  -15.1263 C   0  0  0  0  0  0  0  0  0  0  0  0
   26.3820   -9.8871  -15.4848 S   0  0  0  0  0  0  0  0  0  0  0  0
   24.8016   -9.2158  -15.0043 C   0  0  0  0  0  0  0  0  0  0  0  0
   23.6630   -9.6970  -15.8412 C   0  0  0  0  0  0  0  0  0  0  0  0
   22.3609   -9.1599  -15.4275 C   0  0  2  0  0  0  0  0  0  0  0  0
   21.2524   -9.6693  -16.2452 N   0  0  0  0  0  0  0  0  0  0  0  0
   22.2787   -7.7103  -15.4341 C   0  0  0  0  0  0  0  0  0  0  0  0
   22.1308   -6.9673  -16.5688 O   0  0  0  0  0  0  0  0  0  0  0  0
   22.3455   -7.0751  -14.3341 O   0  0  0  0  0  0  0  0  0  0  0  0
  2  1  1  0
  2  3  1  0
  3  4  1  6
  5 11  1  0
  5  3  1  0
  6  5  2  0
  8  7  1  6
  8 10  1  0
  9  8  1  0
 10 11  1  1
 10 12  1  0
 12 19  1  0
 12 13  2  0
 14 15  1  0
 16 17  1  0
 16 15  1  0
 18 20  1  0
 18 17  1  6
 19 18  1  0
 20 21  1  0
 22 20  2  0
M  END
$$$$
