SVM.pdb
     RDKit          3D

 22 21  0  0  1  0  0  0  0  0999 V2000
   28.8070  -22.5148  -15.2185 O   0  0  0  0  0  0  0  0  0  0  0  0
   28.0466  -22.3280  -16.3951 C   0  0  0  0  0  0  0  0  0  0  0  0
   27.0670  -21.2073  -16.1190 C   0  0  2  0  0  0  0  0  0  0  0  0
   27.8115  -20.0026  -15.7822 N   0  0  0  0  0  0  0  0  0  0  0  0
   26.1856  -21.5228  -14.9712 C   0  0  0  0  0  0  0  0  0  0  0  0
   25.3968  -22.4945  -14.9816 O   0  0  0  0  0  0  0  0  0  0  0  0
   27.0820  -21.3610  -11.0369 C   0  0  0  0  0  0  0  0  0  0  0  0
   25.9004  -20.5365  -11.3911 C   0  0  2  0  0  0  0  0  0  0  0  0
   24.7802  -20.5992  -10.3892 C   0  0  0  0  0  0  0  0  0  0  0  0
   25.2918  -20.9109  -12.7486 C   0  0  2  0  0  0  0  0  0  0  0  0
   26.2225  -20.7099  -13.8153 N   0  0  0  0  0  0  0  0  0  0  0  0
   24.0086  -20.1797  -12.9545 C   0  0  0  0  0  0  0  0  0  0  0  0
   24.0021  -18.9563  -13.2435 O   0  0  0  0  0  0  0  0  0  0  0  0
   18.8766  -18.3872  -17.8478 C   0  0  0  0  0  0  0  0  0  0  0  0
   20.2680  -19.1545  -17.0855 S   0  0  0  0  0  0  0  0  0  0  0  0
   20.2790  -19.3515  -15.3134 C   0  0  0  0  0  0  0  0  0  0  0  0
   21.5374  -19.9534  -14.7819 C   0  0  0  0  0  0  0  0  0  0  0  0
   21.5044  -20.2041  -13.3359 C   0  0  2  0  0  0  0  0  0  0  0  0
   22.7454  -20.8114  -12.8377 N   0  0  0  0  0  0  0  0  0  0  0  0
   20.4015  -21.0395  -12.8954 C   0  0  0  0  0  0  0  0  0  0  0  0
   19.2313  -20.5450  -12.3979 O   0  0  0  0  0  0  0  0  0  0  0  0
   20.5079  -22.3050  -12.9675 O   0  0  0  0  0  0  0  0  0  0  0  0
  2  1  1  0
  2  3  1  0
  3  4  1  1
  5 11  1  0
  5  3  1  0
  6  5  2  0
  8  7  1  1
  8 10  1  0
  9  8  1  0
 10 11  1  6
 10 12  1  0
 12 19  1  0
 12 13  2  0
 14 15  1  0
 16 17  1  0
 16 15  1  0
 18 20  1  0
 18 17  1  6
 19 18  1  0
 20 21  1  0
 22 20  2  0
M  END
$$$$
