SVM.pdb
     RDKit          3D

 22 21  0  0  1  0  0  0  0  0999 V2000
   16.7747  -14.8374  -14.3430 O   0  0  0  0  0  0  0  0  0  0  0  0
   17.6905  -14.1002  -15.1275 C   0  0  0  0  0  0  0  0  0  0  0  0
   16.8915  -13.4037  -16.2082 C   0  0  2  0  0  0  0  0  0  0  0  0
   16.6135  -14.3539  -17.2754 N   0  0  0  0  0  0  0  0  0  0  0  0
   17.6435  -12.2738  -16.8011 C   0  0  0  0  0  0  0  0  0  0  0  0
   18.3669  -12.4104  -17.8132 O   0  0  0  0  0  0  0  0  0  0  0  0
   16.4448   -8.7901  -17.9689 C   0  0  0  0  0  0  0  0  0  0  0  0
   17.4756   -8.6396  -16.9123 C   0  0  2  0  0  0  0  0  0  0  0  0
   18.4352   -7.5042  -17.1423 C   0  0  0  0  0  0  0  0  0  0  0  0
   18.3296   -9.8997  -16.7225 C   0  0  2  0  0  0  0  0  0  0  0  0
   17.5536  -10.9894  -16.2176 N   0  0  0  0  0  0  0  0  0  0  0  0
   19.5163   -9.5919  -15.8736 C   0  0  0  0  0  0  0  0  0  0  0  0
   19.3827   -9.3066  -14.6567 O   0  0  0  0  0  0  0  0  0  0  0  0
   27.3869  -10.5675  -14.9334 C   0  0  0  0  0  0  0  0  0  0  0  0
   25.9178  -10.5599  -15.9068 S   0  0  0  0  0  0  0  0  0  0  0  0
   24.4393   -9.8296  -15.2286 C   0  0  0  0  0  0  0  0  0  0  0  0
   23.2220  -10.0464  -16.0649 C   0  0  0  0  0  0  0  0  0  0  0  0
   22.0187   -9.3963  -15.5315 C   0  0  2  0  0  0  0  0  0  0  0  0
   20.8391   -9.6029  -16.3818 N   0  0  0  0  0  0  0  0  0  0  0  0
   22.1542   -7.9675  -15.3117 C   0  0  0  0  0  0  0  0  0  0  0  0
   22.4134   -7.4121  -14.0928 O   0  0  0  0  0  0  0  0  0  0  0  0
   22.0290   -7.1690  -16.2939 O   0  0  0  0  0  0  0  0  0  0  0  0
  2  1  1  0
  2  3  1  0
  3  4  1  6
  5 11  1  0
  5  3  1  0
  6  5  2  0
  8  7  1  6
  8 10  1  0
  9  8  1  0
 10 11  1  1
 10 12  1  0
 12 19  1  0
 12 13  2  0
 14 15  1  0
 16 17  1  0
 16 15  1  0
 18 20  1  0
 18 17  1  6
 19 18  1  0
 20 21  1  0
 22 20  2  0
M  END
$$$$
