PRY.pdb
     RDKit          3D

 31 32  0  0  1  0  0  0  0  0999 V2000
   19.1483  -21.2691  -16.3189 N   0  0  0  0  0  0  0  0  0  0  0  0
   19.5562  -21.0965  -17.6774 C   0  0  0  0  0  0  0  0  0  0  0  0
   18.5184  -20.1602  -18.2457 C   0  0  0  0  0  0  0  0  0  0  0  0
   17.2466  -20.7409  -17.6172 C   0  0  0  0  0  0  0  0  0  0  0  0
   17.7203  -21.2915  -16.2732 C   0  0  1  0  0  0  0  0  0  0  0  0
   17.1831  -22.6733  -16.0766 C   0  0  0  0  0  0  0  0  0  0  0  0
   15.9365  -22.8364  -15.8620 O   0  0  0  0  0  0  0  0  0  0  0  0
   22.1997  -28.1426  -16.0492 N   0  0  0  0  0  0  0  0  0  0  0  0
   21.3959  -28.8321  -15.1039 C   0  0  0  0  0  0  0  0  0  0  0  0
   21.8667  -29.2970  -13.9848 N   0  0  0  0  0  0  0  0  0  0  0  0
   19.9913  -29.0667  -15.3188 N   0  0  0  0  0  0  0  0  0  0  0  0
   19.2976  -28.5326  -16.4518 C   0  0  0  0  0  0  0  0  0  0  0  0
   18.1744  -27.5752  -16.0604 C   0  0  0  0  0  0  0  0  0  0  0  0
   18.5627  -26.1585  -16.2461 C   0  0  0  0  0  0  0  0  0  0  0  0
   17.4495  -25.1844  -15.8695 C   0  0  2  0  0  0  0  0  0  0  0  0
   17.9891  -23.8190  -16.1165 N   0  0  0  0  0  0  0  0  0  0  0  0
   17.0848  -25.2799  -14.4566 C   0  0  0  0  0  0  0  0  0  0  0  0
   17.8170  -24.6929  -13.6087 O   0  0  0  0  0  0  0  0  0  0  0  0
   21.2074  -29.8636  -13.4051 O   0  0  0  0  0  0  0  0  0  0  0  0
   12.8447  -23.5819   -7.1285 C   0  0  0  0  0  0  0  0  0  0  0  0
   13.4740  -23.7749   -8.3449 C   0  0  0  0  0  0  0  0  0  0  0  0
   12.7159  -24.0885   -9.4518 C   0  0  0  0  0  0  0  0  0  0  0  0
   13.3357  -24.2821  -10.6674 C   0  0  0  0  0  0  0  0  0  0  0  0
   14.6923  -24.1843  -10.8699 C   0  0  0  0  0  0  0  0  0  0  0  0
   15.2542  -24.4090  -12.1966 C   0  0  1  0  0  0  0  0  0  0  0  0
   15.5212  -25.8296  -12.5502 N   0  0  0  0  0  0  0  0  0  0  0  0
   15.9665  -25.9752  -13.9209 C   0  0  0  0  0  0  0  0  0  0  0  0
   14.3718  -26.7118  -12.3339 O   0  0  0  0  0  0  0  0  0  0  0  0
   13.4884  -26.9189  -13.2218 C   0  0  0  0  0  0  0  0  0  0  0  0
   15.4406  -23.8669   -9.7396 C   0  0  0  0  0  0  0  0  0  0  0  0
   14.8366  -23.6693   -8.5134 O   0  0  0  0  0  0  0  0  0  0  0  0
  1  2  1  0
  3  2  1  0
  4  3  1  0
  5  4  1  0
  5  1  1  0
  6  7  2  0
  5  6  1  6
  9 11  1  0
  9  8  1  0
 10  9  2  0
 12 13  1  0
 12 11  1  0
 15 14  1  1
 14 13  1  0
 15 16  1  0
 16  6  1  0
 17 26  1  0
 17 15  1  0
 18 17  2  0
 20 19  1  0
 21 20  2  0
 22 21  1  0
 23 22  2  0
 23 29  1  0
 24 23  1  0
 25 24  1  1
 25 26  1  0
 27 31  1  0
 27 25  1  0
 28 27  2  0
 29 30  2  0
 30 20  1  0
M  END
$$$$
