PRY.pdb
     RDKit          3D

 31 32  0  0  1  0  0  0  0  0999 V2000
   26.7272  -17.9241  -19.8975 N   0  0  0  0  0  0  0  0  0  0  0  0
   25.5742  -17.0815  -19.9447 C   0  0  0  0  0  0  0  0  0  0  0  0
   25.8957  -15.9809  -18.9638 C   0  0  0  0  0  0  0  0  0  0  0  0
   26.5315  -16.7954  -17.8315 C   0  0  0  0  0  0  0  0  0  0  0  0
   27.2086  -17.9596  -18.5526 C   0  0  1  0  0  0  0  0  0  0  0  0
   26.8702  -19.2440  -17.8652 C   0  0  0  0  0  0  0  0  0  0  0  0
   25.8005  -19.8617  -18.1826 O   0  0  0  0  0  0  0  0  0  0  0  0
   32.1761  -25.5609  -15.3738 N   0  0  0  0  0  0  0  0  0  0  0  0
   32.0975  -24.9779  -16.6657 C   0  0  0  0  0  0  0  0  0  0  0  0
   32.7237  -25.4630  -17.6966 N   0  0  0  0  0  0  0  0  0  0  0  0
   31.3121  -23.7997  -16.9282 N   0  0  0  0  0  0  0  0  0  0  0  0
   30.2837  -23.3590  -16.0348 C   0  0  0  0  0  0  0  0  0  0  0  0
   29.6135  -22.0667  -16.4956 C   0  0  0  0  0  0  0  0  0  0  0  0
   28.6051  -21.5872  -15.5234 C   0  0  0  0  0  0  0  0  0  0  0  0
   27.3257  -21.0912  -16.1920 C   0  0  2  0  0  0  0  0  0  0  0  0
   27.6792  -19.8160  -16.8741 N   0  0  0  0  0  0  0  0  0  0  0  0
   26.2676  -20.8096  -15.2226 C   0  0  0  0  0  0  0  0  0  0  0  0
   26.4165  -19.8243  -14.4438 O   0  0  0  0  0  0  0  0  0  0  0  0
   32.6020  -24.9470  -18.5971 O   0  0  0  0  0  0  0  0  0  0  0  0
   18.5695  -19.9555  -10.9409 C   0  0  0  0  0  0  0  0  0  0  0  0
   19.6432  -20.0501  -11.8075 C   0  0  0  0  0  0  0  0  0  0  0  0
   19.7710  -21.1699  -12.6000 C   0  0  0  0  0  0  0  0  0  0  0  0
   20.8380  -21.2714  -13.4662 C   0  0  0  0  0  0  0  0  0  0  0  0
   21.8156  -20.3146  -13.6070 C   0  0  0  0  0  0  0  0  0  0  0  0
   22.9080  -20.5152  -14.5519 C   0  0  1  0  0  0  0  0  0  0  0  0
   24.0884  -21.2515  -14.0239 N   0  0  0  0  0  0  0  0  0  0  0  0
   25.0587  -21.5398  -15.0602 C   0  0  0  0  0  0  0  0  0  0  0  0
   23.7413  -22.5024  -13.3449 O   0  0  0  0  0  0  0  0  0  0  0  0
   23.6257  -23.6077  -13.9585 C   0  0  0  0  0  0  0  0  0  0  0  0
   21.6687  -19.1912  -12.7978 C   0  0  0  0  0  0  0  0  0  0  0  0
   20.6059  -19.0723  -11.9241 O   0  0  0  0  0  0  0  0  0  0  0  0
  1  2  1  0
  3  2  1  0
  4  3  1  0
  5  4  1  0
  5  1  1  0
  6  7  2  0
  5  6  1  1
  9 11  1  0
  9  8  1  0
 10  9  2  0
 12 13  1  0
 12 11  1  0
 15 14  1  1
 14 13  1  0
 15 16  1  0
 16  6  1  0
 17 26  1  0
 17 15  1  0
 18 17  2  0
 20 19  1  0
 21 20  2  0
 22 21  1  0
 23 22  2  0
 23 29  1  0
 24 23  1  0
 25 24  1  1
 25 26  1  0
 27 31  1  0
 27 25  1  0
 28 27  2  0
 29 30  2  0
 30 20  1  0
M  END
$$$$
