PRY.pdb
     RDKit          3D

 31 32  0  0  1  0  0  0  0  0999 V2000
   25.3968  -19.3189  -19.1822 N   0  0  0  0  0  0  0  0  0  0  0  0
   24.7750  -20.0872  -20.2141 C   0  0  0  0  0  0  0  0  0  0  0  0
   23.5728  -19.2608  -20.5995 C   0  0  0  0  0  0  0  0  0  0  0  0
   23.0898  -18.8113  -19.2158 C   0  0  0  0  0  0  0  0  0  0  0  0
   24.3746  -18.7031  -18.3963 C   0  0  1  0  0  0  0  0  0  0  0  0
   24.1900  -19.3826  -17.0769 C   0  0  0  0  0  0  0  0  0  0  0  0
   23.3579  -18.9046  -16.2368 O   0  0  0  0  0  0  0  0  0  0  0  0
   24.9576  -27.1063  -16.1724 N   0  0  0  0  0  0  0  0  0  0  0  0
   24.9534  -26.2411  -17.2977 C   0  0  0  0  0  0  0  0  0  0  0  0
   24.2729  -26.4920  -18.3767 N   0  0  0  0  0  0  0  0  0  0  0  0
   25.7076  -25.0145  -17.3241 N   0  0  0  0  0  0  0  0  0  0  0  0
   26.4500  -24.5560  -16.1889 C   0  0  0  0  0  0  0  0  0  0  0  0
   26.2903  -23.0573  -15.9436 C   0  0  0  0  0  0  0  0  0  0  0  0
   24.8909  -22.6929  -15.6256 C   0  0  0  0  0  0  0  0  0  0  0  0
   24.7077  -21.1967  -15.3856 C   0  0  2  0  0  0  0  0  0  0  0  0
   24.8937  -20.5367  -16.7071 N   0  0  0  0  0  0  0  0  0  0  0  0
   25.7068  -20.6573  -14.4640 C   0  0  0  0  0  0  0  0  0  0  0  0
   26.8018  -20.2442  -14.9434 O   0  0  0  0  0  0  0  0  0  0  0  0
   24.3455  -25.7869  -19.1443 O   0  0  0  0  0  0  0  0  0  0  0  0
   21.9969  -21.4217   -7.9212 C   0  0  0  0  0  0  0  0  0  0  0  0
   22.9892  -20.8368   -8.6867 C   0  0  0  0  0  0  0  0  0  0  0  0
   22.6862  -20.3935   -9.9555 C   0  0  0  0  0  0  0  0  0  0  0  0
   23.6695  -19.8093  -10.7243 C   0  0  0  0  0  0  0  0  0  0  0  0
   24.9692  -19.6282  -10.3134 C   0  0  0  0  0  0  0  0  0  0  0  0
   25.9391  -18.9995  -11.2027 C   0  0  1  0  0  0  0  0  0  0  0  0
   26.5629  -19.8973  -12.2122 N   0  0  0  0  0  0  0  0  0  0  0  0
   25.5748  -20.5411  -13.0532 C   0  0  0  0  0  0  0  0  0  0  0  0
   27.4232  -20.9279  -11.6257 O   0  0  0  0  0  0  0  0  0  0  0  0
   27.1597  -22.1673  -11.7019 C   0  0  0  0  0  0  0  0  0  0  0  0
   25.2553  -20.0827   -9.0290 C   0  0  0  0  0  0  0  0  0  0  0  0
   24.2826  -20.6704   -8.2443 O   0  0  0  0  0  0  0  0  0  0  0  0
  1  2  1  0
  3  2  1  0
  4  3  1  0
  5  4  1  0
  5  1  1  0
  6  7  2  0
  5  6  1  1
  9 11  1  0
  9  8  1  0
 10  9  2  0
 12 13  1  0
 12 11  1  0
 15 14  1  6
 14 13  1  0
 15 16  1  0
 16  6  1  0
 17 26  1  0
 17 15  1  0
 18 17  2  0
 20 19  1  0
 21 20  2  0
 22 21  1  0
 23 22  2  0
 23 29  1  0
 24 23  1  0
 25 24  1  6
 25 26  1  0
 27 31  1  0
 27 25  1  0
 28 27  2  0
 29 30  2  0
 30 20  1  0
M  END
$$$$
