PRY.pdb
     RDKit          3D

 31 32  0  0  1  0  0  0  0  0999 V2000
   15.6517  -26.5506   -4.3125 N   0  0  0  0  0  0  0  0  0  0  0  0
   15.2293  -26.6027   -5.6765 C   0  0  0  0  0  0  0  0  0  0  0  0
   16.4681  -26.2211   -6.4488 C   0  0  0  0  0  0  0  0  0  0  0  0
   16.9976  -25.0771   -5.5767 C   0  0  0  0  0  0  0  0  0  0  0  0
   16.5692  -25.4655   -4.1626 C   0  0  1  0  0  0  0  0  0  0  0  0
   15.9456  -24.2882   -3.4832 C   0  0  0  0  0  0  0  0  0  0  0  0
   16.6131  -23.2081   -3.3628 O   0  0  0  0  0  0  0  0  0  0  0  0
   11.0937  -20.2026   -5.0294 N   0  0  0  0  0  0  0  0  0  0  0  0
   10.7079  -19.5698   -3.8186 C   0  0  0  0  0  0  0  0  0  0  0  0
   10.5735  -18.2814   -3.7089 N   0  0  0  0  0  0  0  0  0  0  0  0
   10.4355  -20.3157   -2.6173 N   0  0  0  0  0  0  0  0  0  0  0  0
   10.5386  -21.7431   -2.5707 C   0  0  0  0  0  0  0  0  0  0  0  0
   11.7515  -22.2230   -1.7770 C   0  0  0  0  0  0  0  0  0  0  0  0
   12.5232  -23.2519   -2.5107 C   0  0  0  0  0  0  0  0  0  0  0  0
   14.0300  -23.1222   -2.3042 C   0  0  2  0  0  0  0  0  0  0  0  0
   14.6446  -24.3075   -2.9627 N   0  0  0  0  0  0  0  0  0  0  0  0
   14.3991  -23.1464   -0.8894 C   0  0  0  0  0  0  0  0  0  0  0  0
   14.4461  -24.2657   -0.3024 O   0  0  0  0  0  0  0  0  0  0  0  0
   10.3029  -17.9228   -2.7655 O   0  0  0  0  0  0  0  0  0  0  0  0
   14.4905  -16.1149    3.3391 C   0  0  0  0  0  0  0  0  0  0  0  0
   14.9824  -17.3331    2.9069 C   0  0  0  0  0  0  0  0  0  0  0  0
   14.6377  -17.7911    1.6540 C   0  0  0  0  0  0  0  0  0  0  0  0
   15.1241  -19.0040    1.2160 C   0  0  0  0  0  0  0  0  0  0  0  0
   15.9513  -19.8188    1.9527 C   0  0  0  0  0  0  0  0  0  0  0  0
   16.4126  -21.0874    1.4011 C   0  0  1  0  0  0  0  0  0  0  0  0
   15.3637  -22.1255    1.2102 N   0  0  0  0  0  0  0  0  0  0  0  0
   14.7223  -22.0201   -0.0843 C   0  0  0  0  0  0  0  0  0  0  0  0
   14.3304  -22.1103    2.2486 O   0  0  0  0  0  0  0  0  0  0  0  0
   13.1046  -21.8997    1.9945 C   0  0  0  0  0  0  0  0  0  0  0  0
   16.2878  -19.3386    3.2154 C   0  0  0  0  0  0  0  0  0  0  0  0
   15.8100  -18.1255    3.6708 O   0  0  0  0  0  0  0  0  0  0  0  0
  1  2  1  0
  3  2  1  0
  4  3  1  0
  5  4  1  0
  5  1  1  0
  6  7  2  0
  5  6  1  6
  9 11  1  0
  9  8  1  0
 10  9  2  0
 12 13  1  0
 12 11  1  0
 15 14  1  1
 14 13  1  0
 15 16  1  0
 16  6  1  0
 17 26  1  0
 17 15  1  0
 18 17  2  0
 20 19  1  0
 21 20  2  0
 22 21  1  0
 23 22  2  0
 23 29  1  0
 24 23  1  0
 25 24  1  6
 25 26  1  0
 27 31  1  0
 27 25  1  0
 28 27  2  0
 29 30  2  0
 30 20  1  0
M  END
$$$$
