PRY.pdb
     RDKit          3D

 31 32  0  0  1  0  0  0  0  0999 V2000
   32.2153  -22.1537  -12.7520 N   0  0  0  0  0  0  0  0  0  0  0  0
   33.2751  -21.5321  -12.0225 C   0  0  0  0  0  0  0  0  0  0  0  0
   33.3341  -22.3202  -10.7371 C   0  0  0  0  0  0  0  0  0  0  0  0
   31.8386  -22.4845  -10.4434 C   0  0  0  0  0  0  0  0  0  0  0  0
   31.1974  -22.5449  -11.8287 C   0  0  1  0  0  0  0  0  0  0  0  0
   30.0119  -21.6343  -11.8757 C   0  0  0  0  0  0  0  0  0  0  0  0
   29.9439  -20.7406  -12.7831 O   0  0  0  0  0  0  0  0  0  0  0  0
   22.7153  -19.4245  -13.4045 N   0  0  0  0  0  0  0  0  0  0  0  0
   23.5229  -19.4047  -14.5717 C   0  0  0  0  0  0  0  0  0  0  0  0
   23.3059  -18.5942  -15.5648 N   0  0  0  0  0  0  0  0  0  0  0  0
   24.6486  -20.2871  -14.7396 N   0  0  0  0  0  0  0  0  0  0  0  0
   24.9783  -21.2889  -13.7713 C   0  0  0  0  0  0  0  0  0  0  0  0
   25.7015  -20.7190  -12.5532 C   0  0  0  0  0  0  0  0  0  0  0  0
   27.0557  -21.2954  -12.3917 C   0  0  0  0  0  0  0  0  0  0  0  0
   27.7268  -20.8762  -11.0865 C   0  0  2  0  0  0  0  0  0  0  0  0
   28.9529  -21.7112  -10.9611 N   0  0  0  0  0  0  0  0  0  0  0  0
   26.8811  -21.1335   -9.9215 C   0  0  0  0  0  0  0  0  0  0  0  0
   26.5697  -22.3313   -9.6611 O   0  0  0  0  0  0  0  0  0  0  0  0
   23.9813  -18.6457  -16.3604 O   0  0  0  0  0  0  0  0  0  0  0  0
   30.2692  -19.5794   -3.5300 C   0  0  0  0  0  0  0  0  0  0  0  0
   29.1297  -19.5924   -4.3137 C   0  0  0  0  0  0  0  0  0  0  0  0
   28.8478  -18.5029   -5.1084 C   0  0  0  0  0  0  0  0  0  0  0  0
   27.7143  -18.5085   -5.8924 C   0  0  0  0  0  0  0  0  0  0  0  0
   26.8144  -19.5469   -5.9461 C   0  0  0  0  0  0  0  0  0  0  0  0
   25.6413  -19.4574   -6.8078 C   0  0  2  0  0  0  0  0  0  0  0  0
   25.5469  -20.4895   -7.8754 N   0  0  0  0  0  0  0  0  0  0  0  0
   26.3618  -20.1587   -9.0265 C   0  0  0  0  0  0  0  0  0  0  0  0
   24.1760  -20.7396   -8.3273 O   0  0  0  0  0  0  0  0  0  0  0  0
   23.2924  -21.2646   -7.5823 C   0  0  0  0  0  0  0  0  0  0  0  0
   27.1168  -20.6380   -5.1360 C   0  0  0  0  0  0  0  0  0  0  0  0
   28.2482  -20.6500   -4.3441 O   0  0  0  0  0  0  0  0  0  0  0  0
  1  2  1  0
  3  2  1  0
  4  3  1  0
  5  4  1  0
  5  1  1  0
  6  7  2  0
  5  6  1  1
  9 11  1  0
  9  8  1  0
 10  9  2  0
 12 13  1  0
 12 11  1  0
 15 14  1  6
 14 13  1  0
 15 16  1  0
 16  6  1  0
 17 26  1  0
 17 15  1  0
 18 17  2  0
 20 19  1  0
 21 20  2  0
 22 21  1  0
 23 22  2  0
 23 29  1  0
 24 23  1  0
 25 24  1  1
 25 26  1  0
 27 31  1  0
 27 25  1  0
 28 27  2  0
 29 30  2  0
 30 20  1  0
M  END
$$$$
