PRY.pdb
     RDKit          3D

 31 32  0  0  1  0  0  0  0  0999 V2000
   18.0527  -11.0551  -16.1217 N   0  0  0  0  0  0  0  0  0  0  0  0
   17.6912  -11.9744  -17.1541 C   0  0  0  0  0  0  0  0  0  0  0  0
   18.5734  -13.1702  -16.8924 C   0  0  0  0  0  0  0  0  0  0  0  0
   19.8942  -12.4714  -16.5505 C   0  0  0  0  0  0  0  0  0  0  0  0
   19.4575  -11.1671  -15.8857 C   0  0  1  0  0  0  0  0  0  0  0  0
   20.2216  -10.0223  -16.4707 C   0  0  0  0  0  0  0  0  0  0  0  0
   21.4872   -9.9720  -16.3211 O   0  0  0  0  0  0  0  0  0  0  0  0
   18.4830   -5.0865  -23.6989 N   0  0  0  0  0  0  0  0  0  0  0  0
   19.7624   -4.6913  -23.2274 C   0  0  0  0  0  0  0  0  0  0  0  0
   20.5209   -3.8522  -23.8683 N   0  0  0  0  0  0  0  0  0  0  0  0
   20.3146   -5.1950  -21.9965 N   0  0  0  0  0  0  0  0  0  0  0  0
   19.6227   -6.1562  -21.1919 C   0  0  0  0  0  0  0  0  0  0  0  0
   20.3877   -6.5263  -19.9233 C   0  0  0  0  0  0  0  0  0  0  0  0
   19.6585   -7.5227  -19.1062 C   0  0  0  0  0  0  0  0  0  0  0  0
   20.3913   -7.8823  -17.8164 C   0  0  2  0  0  0  0  0  0  0  0  0
   19.6119   -8.9837  -17.1872 N   0  0  0  0  0  0  0  0  0  0  0  0
   20.4375   -6.7637  -16.8756 C   0  0  0  0  0  0  0  0  0  0  0  0
   19.3448   -6.3234  -16.4154 O   0  0  0  0  0  0  0  0  0  0  0  0
   21.4426   -3.6320  -23.4282 O   0  0  0  0  0  0  0  0  0  0  0  0
   18.7498   -8.9358  -11.1265 C   0  0  0  0  0  0  0  0  0  0  0  0
   19.5339   -8.0524  -11.8458 C   0  0  0  0  0  0  0  0  0  0  0  0
   20.7001   -8.5051  -12.4233 C   0  0  0  0  0  0  0  0  0  0  0  0
   21.4867   -7.6308  -13.1419 C   0  0  0  0  0  0  0  0  0  0  0  0
   21.1913   -6.3017  -13.3343 C   0  0  0  0  0  0  0  0  0  0  0  0
   22.0898   -5.4554  -14.1108 C   0  0  2  0  0  0  0  0  0  0  0  0
   21.5801   -5.0263  -15.4413 N   0  0  0  0  0  0  0  0  0  0  0  0
   21.6073   -6.1044  -16.4085 C   0  0  0  0  0  0  0  0  0  0  0  0
   22.2974   -3.8772  -15.9993 O   0  0  0  0  0  0  0  0  0  0  0  0
   22.8650   -3.9071  -17.1344 C   0  0  0  0  0  0  0  0  0  0  0  0
   20.0094   -5.8638  -12.7431 C   0  0  0  0  0  0  0  0  0  0  0  0
   19.2087   -6.7256  -12.0196 O   0  0  0  0  0  0  0  0  0  0  0  0
  1  2  1  0
  3  2  1  0
  4  3  1  0
  5  4  1  0
  5  1  1  0
  6  7  2  0
  5  6  1  6
  9 11  1  0
  9  8  1  0
 10  9  2  0
 12 13  1  0
 12 11  1  0
 15 14  1  6
 14 13  1  0
 15 16  1  0
 16  6  1  0
 17 26  1  0
 17 15  1  0
 18 17  2  0
 20 19  1  0
 21 20  2  0
 22 21  1  0
 23 22  2  0
 23 29  1  0
 24 23  1  0
 25 24  1  1
 25 26  1  0
 27 31  1  0
 27 25  1  0
 28 27  2  0
 29 30  2  0
 30 20  1  0
M  END
$$$$
