PRY.pdb
     RDKit          3D

 31 32  0  0  1  0  0  0  0  0999 V2000
   28.4689  -17.8221  -20.9748 N   0  0  0  0  0  0  0  0  0  0  0  0
   28.7651  -17.3961  -22.3061 C   0  0  0  0  0  0  0  0  0  0  0  0
   29.7764  -16.2932  -22.1115 C   0  0  0  0  0  0  0  0  0  0  0  0
   29.1656  -15.5657  -20.9084 C   0  0  0  0  0  0  0  0  0  0  0  0
   28.4746  -16.6770  -20.1200 C   0  0  1  0  0  0  0  0  0  0  0  0
   27.0928  -16.2451  -19.7451 C   0  0  0  0  0  0  0  0  0  0  0  0
   26.9361  -15.2140  -19.0109 O   0  0  0  0  0  0  0  0  0  0  0  0
   21.0403  -13.4361  -24.2129 N   0  0  0  0  0  0  0  0  0  0  0  0
   22.3737  -12.9794  -24.3818 C   0  0  0  0  0  0  0  0  0  0  0  0
   22.6619  -11.8244  -24.9046 N   0  0  0  0  0  0  0  0  0  0  0  0
   23.5103  -13.7685  -23.9825 N   0  0  0  0  0  0  0  0  0  0  0  0
   23.3635  -15.0249  -23.3117 C   0  0  0  0  0  0  0  0  0  0  0  0
   24.0122  -15.0369  -21.9295 C   0  0  0  0  0  0  0  0  0  0  0  0
   23.8697  -16.3503  -21.2609 C   0  0  0  0  0  0  0  0  0  0  0  0
   24.5692  -16.4045  -19.9053 C   0  0  2  0  0  0  0  0  0  0  0  0
   25.9404  -16.9235  -20.1642 N   0  0  0  0  0  0  0  0  0  0  0  0
   23.9058  -17.3182  -18.9760 C   0  0  0  0  0  0  0  0  0  0  0  0
   24.0061  -18.5614  -19.1853 O   0  0  0  0  0  0  0  0  0  0  0  0
   23.6704  -11.5513  -24.8964 O   0  0  0  0  0  0  0  0  0  0  0  0
   19.1458  -20.1658  -11.9255 C   0  0  0  0  0  0  0  0  0  0  0  0
   19.9645  -19.4835  -12.8070 C   0  0  0  0  0  0  0  0  0  0  0  0
   21.2147  -19.9878  -13.0912 C   0  0  0  0  0  0  0  0  0  0  0  0
   22.0362  -19.3138  -13.9688 C   0  0  0  0  0  0  0  0  0  0  0  0
   21.6971  -18.1417  -14.6029 C   0  0  0  0  0  0  0  0  0  0  0  0
   22.6380  -17.5021  -15.5151 C   0  0  1  0  0  0  0  0  0  0  0  0
   22.5325  -17.9137  -16.9411 N   0  0  0  0  0  0  0  0  0  0  0  0
   23.1448  -16.9503  -17.8329 C   0  0  0  0  0  0  0  0  0  0  0  0
   21.1553  -18.1510  -17.3808 O   0  0  0  0  0  0  0  0  0  0  0  0
   20.5717  -19.2692  -17.2376 C   0  0  0  0  0  0  0  0  0  0  0  0
   20.4302  -17.6485  -14.3027 C   0  0  0  0  0  0  0  0  0  0  0  0
   19.5935  -18.3105  -13.4258 O   0  0  0  0  0  0  0  0  0  0  0  0
  1  2  1  0
  3  2  1  0
  4  3  1  0
  5  4  1  0
  5  1  1  0
  6  7  2  0
  5  6  1  6
  9 11  1  0
  9  8  1  0
 10  9  2  0
 12 13  1  0
 12 11  1  0
 15 14  1  6
 14 13  1  0
 15 16  1  0
 16  6  1  0
 17 26  1  0
 17 15  1  0
 18 17  2  0
 20 19  1  0
 21 20  2  0
 22 21  1  0
 23 22  2  0
 23 29  1  0
 24 23  1  0
 25 24  1  1
 25 26  1  0
 27 31  1  0
 27 25  1  0
 28 27  2  0
 29 30  2  0
 30 20  1  0
M  END
$$$$
