PRY.pdb
     RDKit          3D

 31 32  0  0  1  0  0  0  0  0999 V2000
   28.4471  -23.7121  -17.6092 N   0  0  0  0  0  0  0  0  0  0  0  0
   28.4222  -23.9590  -19.0164 C   0  0  0  0  0  0  0  0  0  0  0  0
   29.7461  -23.4179  -19.4974 C   0  0  0  0  0  0  0  0  0  0  0  0
   29.8311  -22.1244  -18.6792 C   0  0  0  0  0  0  0  0  0  0  0  0
   29.1049  -22.4646  -17.3789 C   0  0  1  0  0  0  0  0  0  0  0  0
   28.1416  -21.3725  -17.0385 C   0  0  0  0  0  0  0  0  0  0  0  0
   28.5847  -20.2066  -16.7722 O   0  0  0  0  0  0  0  0  0  0  0  0
   26.3454  -17.0550  -21.1076 N   0  0  0  0  0  0  0  0  0  0  0  0
   25.2123  -17.7240  -21.6400 C   0  0  0  0  0  0  0  0  0  0  0  0
   24.9186  -17.7134  -22.9065 N   0  0  0  0  0  0  0  0  0  0  0  0
   24.3012  -18.4680  -20.8091 N   0  0  0  0  0  0  0  0  0  0  0  0
   24.4161  -18.4832  -19.3820 C   0  0  0  0  0  0  0  0  0  0  0  0
   25.3893  -19.5465  -18.8781 C   0  0  0  0  0  0  0  0  0  0  0  0
   24.8275  -20.3230  -17.7496 C   0  0  0  0  0  0  0  0  0  0  0  0
   25.8108  -20.4846  -16.5934 C   0  0  2  0  0  0  0  0  0  0  0  0
   26.7540  -21.5638  -16.9959 N   0  0  0  0  0  0  0  0  0  0  0  0
   25.1484  -20.8982  -15.3570 C   0  0  0  0  0  0  0  0  0  0  0  0
   24.4244  -21.9349  -15.3840 O   0  0  0  0  0  0  0  0  0  0  0  0
   24.0414  -18.2097  -23.1824 O   0  0  0  0  0  0  0  0  0  0  0  0
   21.9911  -20.9711   -6.9524 C   0  0  0  0  0  0  0  0  0  0  0  0
   22.6701  -20.7123   -8.1291 C   0  0  0  0  0  0  0  0  0  0  0  0
   24.0228  -20.9654   -8.1944 C   0  0  0  0  0  0  0  0  0  0  0  0
   24.7064  -20.7104   -9.3637 C   0  0  0  0  0  0  0  0  0  0  0  0
   24.1280  -20.2078  -10.5055 C   0  0  0  0  0  0  0  0  0  0  0  0
   24.9379  -19.9701  -11.6947 C   0  0  1  0  0  0  0  0  0  0  0  0
   24.4882  -20.6681  -12.9295 N   0  0  0  0  0  0  0  0  0  0  0  0
   25.2359  -20.2466  -14.0964 C   0  0  0  0  0  0  0  0  0  0  0  0
   23.0584  -20.5064  -13.2047 O   0  0  0  0  0  0  0  0  0  0  0  0
   22.1927  -21.3733  -12.8720 C   0  0  0  0  0  0  0  0  0  0  0  0
   22.7610  -19.9588  -10.4194 C   0  0  0  0  0  0  0  0  0  0  0  0
   22.0598  -20.2083   -9.2560 O   0  0  0  0  0  0  0  0  0  0  0  0
  1  2  1  0
  3  2  1  0
  4  3  1  0
  5  4  1  0
  5  1  1  0
  6  7  2  0
  5  6  1  6
  9 11  1  0
  9  8  1  0
 10  9  2  0
 12 13  1  0
 12 11  1  0
 15 14  1  6
 14 13  1  0
 15 16  1  0
 16  6  1  0
 17 26  1  0
 17 15  1  0
 18 17  2  0
 20 19  1  0
 21 20  2  0
 22 21  1  0
 23 22  2  0
 23 29  1  0
 24 23  1  0
 25 24  1  1
 25 26  1  0
 27 31  1  0
 27 25  1  0
 28 27  2  0
 29 30  2  0
 30 20  1  0
M  END
$$$$
