PRY.pdb
     RDKit          3D

 31 32  0  0  1  0  0  0  0  0999 V2000
   19.5949  -20.8985  -13.9240 N   0  0  0  0  0  0  0  0  0  0  0  0
   18.6041  -21.0003  -12.8994 C   0  0  0  0  0  0  0  0  0  0  0  0
   18.5722  -19.6181  -12.2950 C   0  0  0  0  0  0  0  0  0  0  0  0
   20.0709  -19.2994  -12.2515 C   0  0  0  0  0  0  0  0  0  0  0  0
   20.6381  -20.0380  -13.4626 C   0  0  1  0  0  0  0  0  0  0  0  0
   21.8619  -20.7985  -13.0620 C   0  0  0  0  0  0  0  0  0  0  0  0
   21.7442  -21.8301  -12.3212 O   0  0  0  0  0  0  0  0  0  0  0  0
   29.5677  -22.1043  -17.3236 N   0  0  0  0  0  0  0  0  0  0  0  0
   29.7513  -22.6388  -16.0214 C   0  0  0  0  0  0  0  0  0  0  0  0
   30.8189  -23.2938  -15.6728 N   0  0  0  0  0  0  0  0  0  0  0  0
   28.7609  -22.4919  -14.9862 N   0  0  0  0  0  0  0  0  0  0  0  0
   27.5185  -21.8181  -15.2151 C   0  0  0  0  0  0  0  0  0  0  0  0
   26.5714  -21.9015  -14.0204 C   0  0  0  0  0  0  0  0  0  0  0  0
   25.3002  -21.1842  -14.2686 C   0  0  0  0  0  0  0  0  0  0  0  0
   24.3628  -21.2046  -13.0642 C   0  0  2  0  0  0  0  0  0  0  0  0
   23.1538  -20.4331  -13.4636 N   0  0  0  0  0  0  0  0  0  0  0  0
   24.9507  -20.5539  -11.8939 C   0  0  0  0  0  0  0  0  0  0  0  0
   25.0309  -19.2917  -11.8884 O   0  0  0  0  0  0  0  0  0  0  0  0
   30.8391  -23.6586  -14.6939 O   0  0  0  0  0  0  0  0  0  0  0  0
   29.4865  -19.0390   -4.3449 C   0  0  0  0  0  0  0  0  0  0  0  0
   28.8333  -19.6362   -5.4076 C   0  0  0  0  0  0  0  0  0  0  0  0
   27.4558  -19.6632   -5.4207 C   0  0  0  0  0  0  0  0  0  0  0  0
   26.7976  -20.2564   -6.4763 C   0  0  0  0  0  0  0  0  0  0  0  0
   27.4255  -20.8417   -7.5506 C   0  0  0  0  0  0  0  0  0  0  0  0
   26.6394  -21.4460   -8.6199 C   0  0  2  0  0  0  0  0  0  0  0  0
   26.2514  -20.5324   -9.7286 N   0  0  0  0  0  0  0  0  0  0  0  0
   25.4505  -21.2030  -10.7320 C   0  0  0  0  0  0  0  0  0  0  0  0
   27.3940  -19.8958  -10.3886 O   0  0  0  0  0  0  0  0  0  0  0  0
   28.1678  -20.5215  -11.1768 C   0  0  0  0  0  0  0  0  0  0  0  0
   28.8168  -20.8043   -7.5187 C   0  0  0  0  0  0  0  0  0  0  0  0
   29.4932  -20.2141   -6.4692 O   0  0  0  0  0  0  0  0  0  0  0  0
  1  2  1  0
  3  2  1  0
  4  3  1  0
  5  4  1  0
  5  1  1  0
  6  7  2  0
  5  6  1  1
  9 11  1  0
  9  8  1  0
 10  9  2  0
 12 13  1  0
 12 11  1  0
 15 14  1  6
 14 13  1  0
 15 16  1  0
 16  6  1  0
 17 26  1  0
 17 15  1  0
 18 17  2  0
 20 19  1  0
 21 20  2  0
 22 21  1  0
 23 22  2  0
 23 29  1  0
 24 23  1  0
 25 24  1  1
 25 26  1  0
 27 31  1  0
 27 25  1  0
 28 27  2  0
 29 30  2  0
 30 20  1  0
M  END
$$$$
