PRY.pdb
     RDKit          3D

 31 32  0  0  1  0  0  0  0  0999 V2000
   24.2300  -17.9287  -17.3776 N   0  0  0  0  0  0  0  0  0  0  0  0
   23.9092  -18.2037  -18.7425 C   0  0  0  0  0  0  0  0  0  0  0  0
   22.4289  -18.4942  -18.7099 C   0  0  0  0  0  0  0  0  0  0  0  0
   22.3411  -19.3462  -17.4386 C   0  0  0  0  0  0  0  0  0  0  0  0
   23.4475  -18.7873  -16.5456 C   0  0  1  0  0  0  0  0  0  0  0  0
   24.2535  -19.9117  -15.9777 C   0  0  0  0  0  0  0  0  0  0  0  0
   23.7268  -20.6849  -15.1108 O   0  0  0  0  0  0  0  0  0  0  0  0
   31.2077  -25.0470  -16.0200 N   0  0  0  0  0  0  0  0  0  0  0  0
   30.2694  -25.0996  -17.0839 C   0  0  0  0  0  0  0  0  0  0  0  0
   29.8480  -26.2174  -17.5969 N   0  0  0  0  0  0  0  0  0  0  0  0
   29.7130  -23.9097  -17.6743 N   0  0  0  0  0  0  0  0  0  0  0  0
   29.7575  -22.6416  -17.0110 C   0  0  0  0  0  0  0  0  0  0  0  0
   28.5727  -22.4227  -16.0730 C   0  0  0  0  0  0  0  0  0  0  0  0
   27.5813  -21.4813  -16.6413 C   0  0  0  0  0  0  0  0  0  0  0  0
   26.4042  -21.2229  -15.7046 C   0  0  2  0  0  0  0  0  0  0  0  0
   25.5794  -20.1667  -16.3530 N   0  0  0  0  0  0  0  0  0  0  0  0
   26.8347  -20.7252  -14.3987 C   0  0  0  0  0  0  0  0  0  0  0  0
   27.4243  -19.6073  -14.3491 O   0  0  0  0  0  0  0  0  0  0  0  0
   29.2050  -26.1372  -18.4166 O   0  0  0  0  0  0  0  0  0  0  0  0
   20.9661  -20.3814  -10.1285 C   0  0  0  0  0  0  0  0  0  0  0  0
   22.2862  -20.1977  -10.4975 C   0  0  0  0  0  0  0  0  0  0  0  0
   23.2600  -20.1768   -9.5230 C   0  0  0  0  0  0  0  0  0  0  0  0
   24.5778  -19.9944   -9.8829 C   0  0  0  0  0  0  0  0  0  0  0  0
   25.0117  -19.8263  -11.1769 C   0  0  0  0  0  0  0  0  0  0  0  0
   26.4305  -19.6384  -11.4565 C   0  0  1  0  0  0  0  0  0  0  0  0
   27.1659  -20.8543  -11.8977 N   0  0  0  0  0  0  0  0  0  0  0  0
   26.6541  -21.3768  -13.1481 C   0  0  0  0  0  0  0  0  0  0  0  0
   27.1652  -21.9308  -10.9040 O   0  0  0  0  0  0  0  0  0  0  0  0
   27.5874  -21.7704   -9.7176 C   0  0  0  0  0  0  0  0  0  0  0  0
   24.0129  -19.8505  -12.1465 C   0  0  0  0  0  0  0  0  0  0  0  0
   22.6873  -20.0322  -11.8044 O   0  0  0  0  0  0  0  0  0  0  0  0
  1  2  1  0
  3  2  1  0
  4  3  1  0
  5  4  1  0
  5  1  1  0
  6  7  2  0
  5  6  1  6
  9 11  1  0
  9  8  1  0
 10  9  2  0
 12 13  1  0
 12 11  1  0
 15 14  1  6
 14 13  1  0
 15 16  1  0
 16  6  1  0
 17 26  1  0
 17 15  1  0
 18 17  2  0
 20 19  1  0
 21 20  2  0
 22 21  1  0
 23 22  2  0
 23 29  1  0
 24 23  1  0
 25 24  1  6
 25 26  1  0
 27 31  1  0
 27 25  1  0
 28 27  2  0
 29 30  2  0
 30 20  1  0
M  END
$$$$
