PRY.pdb
     RDKit          3D

 31 32  0  0  1  0  0  0  0  0999 V2000
   27.5280  -19.1748  -17.5198 N   0  0  0  0  0  0  0  0  0  0  0  0
   28.9508  -19.2749  -17.4348 C   0  0  0  0  0  0  0  0  0  0  0  0
   29.2998  -20.3017  -18.4840 C   0  0  0  0  0  0  0  0  0  0  0  0
   28.1793  -21.3227  -18.2568 C   0  0  0  0  0  0  0  0  0  0  0  0
   26.9972  -20.4728  -17.7938 C   0  0  1  0  0  0  0  0  0  0  0  0
   26.3720  -21.0940  -16.5856 C   0  0  0  0  0  0  0  0  0  0  0  0
   25.6222  -22.1165  -16.7236 O   0  0  0  0  0  0  0  0  0  0  0  0
   25.4668  -19.0395   -9.1589 N   0  0  0  0  0  0  0  0  0  0  0  0
   25.6723  -20.3074   -8.5545 C   0  0  0  0  0  0  0  0  0  0  0  0
   25.1695  -20.6267   -7.3989 N   0  0  0  0  0  0  0  0  0  0  0  0
   26.4575  -21.3378   -9.1834 N   0  0  0  0  0  0  0  0  0  0  0  0
   27.0940  -21.1396  -10.4506 C   0  0  0  0  0  0  0  0  0  0  0  0
   26.1382  -21.3204  -11.6275 C   0  0  0  0  0  0  0  0  0  0  0  0
   26.7939  -21.0353  -12.9240 C   0  0  0  0  0  0  0  0  0  0  0  0
   25.8390  -21.1497  -14.1092 C   0  0  2  0  0  0  0  0  0  0  0  0
   26.5690  -20.6054  -15.2870 N   0  0  0  0  0  0  0  0  0  0  0  0
   24.6251  -20.3562  -13.9209 C   0  0  0  0  0  0  0  0  0  0  0  0
   24.7256  -19.0956  -13.9387 O   0  0  0  0  0  0  0  0  0  0  0  0
   25.4028  -21.5798   -7.0399 O   0  0  0  0  0  0  0  0  0  0  0  0
   17.6269  -16.5415  -17.0963 C   0  0  0  0  0  0  0  0  0  0  0  0
   18.7085  -17.2685  -16.6335 C   0  0  0  0  0  0  0  0  0  0  0  0
   19.8743  -17.2806  -17.3676 C   0  0  0  0  0  0  0  0  0  0  0  0
   20.9566  -18.0025  -16.9128 C   0  0  0  0  0  0  0  0  0  0  0  0
   20.9659  -18.7346  -15.7488 C   0  0  0  0  0  0  0  0  0  0  0  0
   22.1625  -19.4679  -15.3528 C   0  0  1  0  0  0  0  0  0  0  0  0
   22.1134  -20.1007  -14.0069 N   0  0  0  0  0  0  0  0  0  0  0  0
   23.3118  -20.8617  -13.7188 C   0  0  0  0  0  0  0  0  0  0  0  0
   20.9486  -20.9672  -13.8105 O   0  0  0  0  0  0  0  0  0  0  0  0
   20.0186  -20.6924  -12.9914 C   0  0  0  0  0  0  0  0  0  0  0  0
   19.7790  -18.7098  -15.0216 C   0  0  0  0  0  0  0  0  0  0  0  0
   18.6845  -17.9918  -15.4618 O   0  0  0  0  0  0  0  0  0  0  0  0
  1  2  1  0
  3  2  1  0
  4  3  1  0
  5  4  1  0
  5  1  1  0
  6  7  2  0
  5  6  1  1
  9 11  1  0
  9  8  1  0
 10  9  2  0
 12 13  1  0
 12 11  1  0
 15 14  1  1
 14 13  1  0
 15 16  1  0
 16  6  1  0
 17 26  1  0
 17 15  1  0
 18 17  2  0
 20 19  1  0
 21 20  2  0
 22 21  1  0
 23 22  2  0
 23 29  1  0
 24 23  1  0
 25 24  1  1
 25 26  1  0
 27 31  1  0
 27 25  1  0
 28 27  2  0
 29 30  2  0
 30 20  1  0
M  END
$$$$
