PRY.pdb
     RDKit          3D

 31 32  0  0  1  0  0  0  0  0999 V2000
   14.8976  -19.7328    4.0508 N   0  0  0  0  0  0  0  0  0  0  0  0
   14.2370  -19.1987    2.9019 C   0  0  0  0  0  0  0  0  0  0  0  0
   14.6397  -20.1363    1.7903 C   0  0  0  0  0  0  0  0  0  0  0  0
   16.1215  -20.3426    2.1243 C   0  0  0  0  0  0  0  0  0  0  0  0
   16.1720  -20.2380    3.6476 C   0  0  1  0  0  0  0  0  0  0  0  0
   17.2922  -19.3345    4.0543 C   0  0  0  0  0  0  0  0  0  0  0  0
   18.4933  -19.6612    3.7762 O   0  0  0  0  0  0  0  0  0  0  0  0
   19.9195  -13.2231    7.8518 N   0  0  0  0  0  0  0  0  0  0  0  0
   19.9413  -12.3047    6.7697 C   0  0  0  0  0  0  0  0  0  0  0  0
   20.8280  -11.3595    6.6657 N   0  0  0  0  0  0  0  0  0  0  0  0
   18.9763  -12.3554    5.7019 N   0  0  0  0  0  0  0  0  0  0  0  0
   18.0019  -13.4004    5.6091 C   0  0  0  0  0  0  0  0  0  0  0  0
   18.6303  -14.7820    5.4418 C   0  0  0  0  0  0  0  0  0  0  0  0
   17.6077  -15.8471    5.3311 C   0  0  0  0  0  0  0  0  0  0  0  0
   18.2146  -17.2327    5.1272 C   0  0  2  0  0  0  0  0  0  0  0  0
   17.0904  -18.1268    4.7360 N   0  0  0  0  0  0  0  0  0  0  0  0
   18.8104  -17.7621    6.3533 C   0  0  0  0  0  0  0  0  0  0  0  0
   18.0374  -18.1161    7.2897 O   0  0  0  0  0  0  0  0  0  0  0  0
   20.7704  -10.7629    5.8099 O   0  0  0  0  0  0  0  0  0  0  0  0
   18.6670  -24.2723    5.5922 C   0  0  0  0  0  0  0  0  0  0  0  0
   19.3790  -23.1621    6.0084 C   0  0  0  0  0  0  0  0  0  0  0  0
   19.4705  -22.8882    7.3555 C   0  0  0  0  0  0  0  0  0  0  0  0
   20.1785  -21.7839    7.7781 C   0  0  0  0  0  0  0  0  0  0  0  0
   20.8207  -20.9064    6.9363 C   0  0  0  0  0  0  0  0  0  0  0  0
   21.5443  -19.7636    7.4810 C   0  0  2  0  0  0  0  0  0  0  0  0
   20.7150  -18.5706    7.8024 N   0  0  0  0  0  0  0  0  0  0  0  0
   20.1985  -17.9292    6.6107 C   0  0  0  0  0  0  0  0  0  0  0  0
   21.4189  -17.5688    8.6069 O   0  0  0  0  0  0  0  0  0  0  0  0
   21.9003  -17.8236    9.7535 C   0  0  0  0  0  0  0  0  0  0  0  0
   20.7165  -21.2003    5.5795 C   0  0  0  0  0  0  0  0  0  0  0  0
   20.0113  -22.3026    5.1378 O   0  0  0  0  0  0  0  0  0  0  0  0
  1  2  1  0
  3  2  1  0
  4  3  1  0
  5  4  1  0
  5  1  1  0
  6  7  2  0
  5  6  1  6
  9 11  1  0
  9  8  1  0
 10  9  2  0
 12 13  1  0
 12 11  1  0
 15 14  1  1
 14 13  1  0
 15 16  1  0
 16  6  1  0
 17 26  1  0
 17 15  1  0
 18 17  2  0
 20 19  1  0
 21 20  2  0
 22 21  1  0
 23 22  2  0
 23 29  1  0
 24 23  1  0
 25 24  1  1
 25 26  1  0
 27 31  1  0
 27 25  1  0
 28 27  2  0
 29 30  2  0
 30 20  1  0
M  END
$$$$
