PRY.pdb
     RDKit          3D

 31 32  0  0  1  0  0  0  0  0999 V2000
   25.2936  -14.2087  -17.3506 N   0  0  0  0  0  0  0  0  0  0  0  0
   24.6958  -13.3832  -16.3492 C   0  0  0  0  0  0  0  0  0  0  0  0
   25.8453  -13.0453  -15.4320 C   0  0  0  0  0  0  0  0  0  0  0  0
   26.5523  -14.4035  -15.3610 C   0  0  0  0  0  0  0  0  0  0  0  0
   26.2876  -15.0267  -16.7305 C   0  0  1  0  0  0  0  0  0  0  0  0
   25.8305  -16.4406  -16.5613 C   0  0  0  0  0  0  0  0  0  0  0  0
   25.4042  -17.0869  -17.5749 O   0  0  0  0  0  0  0  0  0  0  0  0
   26.5456  -20.2088  -10.6023 N   0  0  0  0  0  0  0  0  0  0  0  0
   26.4165  -21.4240  -11.3246 C   0  0  0  0  0  0  0  0  0  0  0  0
   25.5040  -22.3100  -11.0552 N   0  0  0  0  0  0  0  0  0  0  0  0
   27.2931  -21.7639  -12.4155 N   0  0  0  0  0  0  0  0  0  0  0  0
   27.9932  -20.7652  -13.1655 C   0  0  0  0  0  0  0  0  0  0  0  0
   27.1946  -20.2569  -14.3635 C   0  0  0  0  0  0  0  0  0  0  0  0
   26.3863  -19.0632  -14.0258 C   0  0  0  0  0  0  0  0  0  0  0  0
   25.5524  -18.5599  -15.2010 C   0  0  2  0  0  0  0  0  0  0  0  0
   25.8458  -17.1059  -15.3280 N   0  0  0  0  0  0  0  0  0  0  0  0
   24.1171  -18.7149  -14.9680 C   0  0  0  0  0  0  0  0  0  0  0  0
   23.5658  -17.9662  -14.1105 O   0  0  0  0  0  0  0  0  0  0  0  0
   25.4819  -23.1538  -11.6711 O   0  0  0  0  0  0  0  0  0  0  0  0
   15.4708  -20.6140  -16.0029 C   0  0  0  0  0  0  0  0  0  0  0  0
   16.8353  -20.4685  -16.1753 C   0  0  0  0  0  0  0  0  0  0  0  0
   17.6853  -21.4089  -15.6355 C   0  0  0  0  0  0  0  0  0  0  0  0
   19.0462  -21.2710  -15.8031 C   0  0  0  0  0  0  0  0  0  0  0  0
   19.6419  -20.2375  -16.4872 C   0  0  0  0  0  0  0  0  0  0  0  0
   21.0939  -20.1786  -16.6089 C   0  0  2  0  0  0  0  0  0  0  0  0
   21.8192  -19.6637  -15.4160 N   0  0  0  0  0  0  0  0  0  0  0  0
   23.2530  -19.6365  -15.6201 C   0  0  0  0  0  0  0  0  0  0  0  0
   21.5339  -20.4130  -14.1898 O   0  0  0  0  0  0  0  0  0  0  0  0
   20.5890  -20.1041  -13.4004 C   0  0  0  0  0  0  0  0  0  0  0  0
   18.7665  -19.2979  -17.0249 C   0  0  0  0  0  0  0  0  0  0  0  0
   17.3999  -19.4201  -16.8670 O   0  0  0  0  0  0  0  0  0  0  0  0
  1  2  1  0
  3  2  1  0
  4  3  1  0
  5  4  1  0
  5  1  1  0
  6  7  2  0
  5  6  1  1
  9 11  1  0
  9  8  1  0
 10  9  2  0
 12 13  1  0
 12 11  1  0
 15 14  1  1
 14 13  1  0
 15 16  1  0
 16  6  1  0
 17 26  1  0
 17 15  1  0
 18 17  2  0
 20 19  1  0
 21 20  2  0
 22 21  1  0
 23 22  2  0
 23 29  1  0
 24 23  1  0
 25 24  1  6
 25 26  1  0
 27 31  1  0
 27 25  1  0
 28 27  2  0
 29 30  2  0
 30 20  1  0
M  END
$$$$
