NEF.pdb
     RDKit          3D

 29 29  0  0  1  0  0  0  0  0999 V2000
   20.5088  -14.5560  -16.9540 N   0  0  0  0  0  0  0  0  0  0  0  0
   19.7279  -13.3814  -16.7682 C   0  0  0  0  0  0  0  0  0  0  0  0
   18.5825  -13.4934  -16.2266 O   0  0  0  0  0  0  0  0  0  0  0  0
   20.2212  -12.0410  -17.1908 C   0  0  0  0  0  0  0  0  0  0  0  0
   19.0531  -11.2796  -17.7732 C   0  0  2  0  0  0  0  0  0  0  0  0
   19.0106  -11.5845  -19.1863 N   0  0  0  0  0  0  0  0  0  0  0  0
   19.1474   -9.8252  -17.5144 C   0  0  0  0  0  0  0  0  0  0  0  0
   19.9370   -9.1534  -18.2225 O   0  0  0  0  0  0  0  0  0  0  0  0
   18.4004   -9.1450  -16.5158 N   0  0  0  0  0  0  0  0  0  0  0  0
   18.4339   -7.7139  -16.3045 C   0  0  1  0  0  0  0  0  0  0  0  0
   17.1834   -7.1906  -15.6574 C   0  0  0  0  0  0  0  0  0  0  0  0
   16.0373   -7.0640  -16.6100 C   0  0  0  0  0  0  0  0  0  0  0  0
   14.8129   -6.6150  -15.8986 C   0  0  0  0  0  0  0  0  0  0  0  0
   14.1744   -5.5890  -16.2452 O   0  0  0  0  0  0  0  0  0  0  0  0
   19.5740   -7.4131  -15.3856 C   0  0  0  0  0  0  0  0  0  0  0  0
   20.1384   -8.3446  -14.7664 O   0  0  0  0  0  0  0  0  0  0  0  0
   14.3387   -7.3362  -14.8121 O   0  0  0  0  0  0  0  0  0  0  0  0
   20.0534   -6.0920  -15.1807 N   0  0  0  0  0  0  0  0  0  0  0  0
   21.2626   -5.7847  -14.4183 C   0  0  1  0  0  0  0  0  0  0  0  0
   22.4726   -6.3686  -15.0649 C   0  0  0  0  0  0  0  0  0  0  0  0
   22.5812   -7.8254  -14.8775 C   0  0  0  0  0  0  0  0  0  0  0  0
   22.5789   -8.6397  -15.9866 C   0  0  0  0  0  0  0  0  0  0  0  0
   22.6812  -10.0243  -15.8768 C   0  0  0  0  0  0  0  0  0  0  0  0
   22.7865  -10.5696  -14.6120 C   0  0  0  0  0  0  0  0  0  0  0  0
   22.7908   -9.7823  -13.4997 C   0  0  0  0  0  0  0  0  0  0  0  0
   22.6878   -8.4043  -13.6316 C   0  0  0  0  0  0  0  0  0  0  0  0
   21.3672   -4.3225  -14.2303 C   0  0  0  0  0  0  0  0  0  0  0  0
   20.5227   -3.3890  -14.8052 O   0  0  0  0  0  0  0  0  0  0  0  0
   22.2921   -3.8315  -13.4910 O   0  0  0  0  0  0  0  0  0  0  0  0
  1  2  1  0
  2  4  1  0
  2  3  2  0
  4  5  1  0
  5  7  1  0
  5  6  1  6
  7  8  2  0
  9  7  1  0
  9 10  1  0
 10 11  1  1
 11 12  1  0
 12 13  1  0
 13 14  2  0
 13 17  1  0
 15 18  1  0
 15 10  1  0
 16 15  2  0
 19 27  1  0
 19 20  1  6
 19 18  1  0
 20 21  1  0
 21 26  2  0
 21 22  1  0
 22 23  2  0
 23 24  1  0
 25 24  2  0
 26 25  1  0
 27 28  1  0
 29 27  2  0
M  END
$$$$
