NEF.pdb
     RDKit          3D

 29 29  0  0  1  0  0  0  0  0999 V2000
   30.6679  -22.1496  -17.5932 N   0  0  0  0  0  0  0  0  0  0  0  0
   29.2485  -22.0550  -17.6124 C   0  0  0  0  0  0  0  0  0  0  0  0
   28.6003  -22.8143  -18.4006 O   0  0  0  0  0  0  0  0  0  0  0  0
   28.5180  -21.0958  -16.7379 C   0  0  0  0  0  0  0  0  0  0  0  0
   28.4454  -21.6945  -15.3523 C   0  0  2  0  0  0  0  0  0  0  0  0
   27.9234  -23.0354  -15.4968 N   0  0  0  0  0  0  0  0  0  0  0  0
   27.6331  -20.8713  -14.4283 C   0  0  0  0  0  0  0  0  0  0  0  0
   27.8461  -19.6343  -14.4034 O   0  0  0  0  0  0  0  0  0  0  0  0
   26.6294  -21.3949  -13.5701 N   0  0  0  0  0  0  0  0  0  0  0  0
   25.7708  -20.5874  -12.7307 C   0  0  1  0  0  0  0  0  0  0  0  0
   24.3109  -20.8049  -13.0097 C   0  0  0  0  0  0  0  0  0  0  0  0
   23.8882  -20.3029  -14.3537 C   0  0  0  0  0  0  0  0  0  0  0  0
   22.6983  -19.4218  -14.2325 C   0  0  0  0  0  0  0  0  0  0  0  0
   21.5313  -19.8381  -14.4459 O   0  0  0  0  0  0  0  0  0  0  0  0
   26.0191  -20.9798  -11.3097 C   0  0  0  0  0  0  0  0  0  0  0  0
   26.0807  -22.1919  -10.9992 O   0  0  0  0  0  0  0  0  0  0  0  0
   22.8550  -18.0909  -13.8728 O   0  0  0  0  0  0  0  0  0  0  0  0
   26.1912  -20.0193  -10.2779 N   0  0  0  0  0  0  0  0  0  0  0  0
   26.1297  -20.3485   -8.8546 C   0  0  1  0  0  0  0  0  0  0  0  0
   26.5483  -19.1908   -8.0132 C   0  0  0  0  0  0  0  0  0  0  0  0
   27.4553  -19.5719   -6.9171 C   0  0  0  0  0  0  0  0  0  0  0  0
   26.9341  -20.2114   -5.8159 C   0  0  0  0  0  0  0  0  0  0  0  0
   27.7389  -20.5999   -4.7477 C   0  0  0  0  0  0  0  0  0  0  0  0
   29.0907  -20.3250   -4.8191 C   0  0  0  0  0  0  0  0  0  0  0  0
   29.6284  -19.6926   -5.8999 C   0  0  0  0  0  0  0  0  0  0  0  0
   28.8084  -19.3139   -6.9540 C   0  0  0  0  0  0  0  0  0  0  0  0
   24.7746  -20.8346   -8.5203 C   0  0  0  0  0  0  0  0  0  0  0  0
   24.4957  -21.8236   -7.5933 O   0  0  0  0  0  0  0  0  0  0  0  0
   23.7482  -20.3375   -9.1055 O   0  0  0  0  0  0  0  0  0  0  0  0
  1  2  1  0
  2  4  1  0
  2  3  2  0
  4  5  1  0
  5  7  1  0
  5  6  1  6
  7  8  2  0
  9  7  1  0
  9 10  1  0
 10 11  1  6
 11 12  1  0
 12 13  1  0
 13 14  2  0
 13 17  1  0
 15 18  1  0
 15 10  1  0
 16 15  2  0
 19 27  1  0
 19 20  1  1
 19 18  1  0
 20 21  1  0
 21 26  2  0
 21 22  1  0
 22 23  2  0
 23 24  1  0
 25 24  2  0
 26 25  1  0
 27 28  1  0
 29 27  2  0
M  END
$$$$
