NEF.pdb
     RDKit          3D

 29 29  0  0  1  0  0  0  0  0999 V2000
   28.3203  -37.1466   -6.7834 N   0  0  0  0  0  0  0  0  0  0  0  0
   28.6895  -35.9959   -6.0327 C   0  0  0  0  0  0  0  0  0  0  0  0
   29.8989  -35.6044   -6.0772 O   0  0  0  0  0  0  0  0  0  0  0  0
   27.6984  -35.2515   -5.2067 C   0  0  0  0  0  0  0  0  0  0  0  0
   28.4600  -34.2940   -4.3199 C   0  0  2  0  0  0  0  0  0  0  0  0
   29.8179  -34.2464   -4.8152 N   0  0  0  0  0  0  0  0  0  0  0  0
   28.3954  -34.6806   -2.8925 C   0  0  0  0  0  0  0  0  0  0  0  0
   27.2610  -34.8011   -2.3682 O   0  0  0  0  0  0  0  0  0  0  0  0
   29.5363  -34.9232   -2.0817 N   0  0  0  0  0  0  0  0  0  0  0  0
   29.4801  -35.3315   -0.6946 C   0  0  1  0  0  0  0  0  0  0  0  0
   30.8398  -35.4613   -0.0695 C   0  0  0  0  0  0  0  0  0  0  0  0
   30.7909  -35.9153    1.3548 C   0  0  0  0  0  0  0  0  0  0  0  0
   32.1615  -36.0164    1.9189 C   0  0  0  0  0  0  0  0  0  0  0  0
   32.5443  -37.0184    2.5747 O   0  0  0  0  0  0  0  0  0  0  0  0
   28.7369  -34.2786    0.0630 C   0  0  0  0  0  0  0  0  0  0  0  0
   28.9827  -33.0683   -0.1475 O   0  0  0  0  0  0  0  0  0  0  0  0
   33.0675  -34.9828    1.7284 O   0  0  0  0  0  0  0  0  0  0  0  0
   27.7460  -34.5978    1.0289 N   0  0  0  0  0  0  0  0  0  0  0  0
   26.9792  -33.5886    1.7579 C   0  0  1  0  0  0  0  0  0  0  0  0
   26.3483  -32.6109    0.8255 C   0  0  0  0  0  0  0  0  0  0  0  0
   25.4576  -31.6559    1.5064 C   0  0  0  0  0  0  0  0  0  0  0  0
   24.1077  -31.7038    1.2441 C   0  0  0  0  0  0  0  0  0  0  0  0
   23.2127  -30.8303    1.8571 C   0  0  0  0  0  0  0  0  0  0  0  0
   23.7173  -29.9018    2.7467 C   0  0  0  0  0  0  0  0  0  0  0  0
   25.0505  -29.8364    3.0215 C   0  0  0  0  0  0  0  0  0  0  0  0
   25.9254  -30.7165    2.3995 C   0  0  0  0  0  0  0  0  0  0  0  0
   25.9942  -34.2570    2.6338 C   0  0  0  0  0  0  0  0  0  0  0  0
   25.7752  -35.6227    2.6795 O   0  0  0  0  0  0  0  0  0  0  0  0
   25.2624  -33.5657    3.4272 O   0  0  0  0  0  0  0  0  0  0  0  0
  1  2  1  0
  2  4  1  0
  2  3  2  0
  4  5  1  0
  5  7  1  0
  5  6  1  6
  7  8  2  0
  9  7  1  0
  9 10  1  0
 10 11  1  1
 11 12  1  0
 12 13  1  0
 13 14  2  0
 13 17  1  0
 15 18  1  0
 15 10  1  0
 16 15  2  0
 19 27  1  0
 19 20  1  6
 19 18  1  0
 20 21  1  0
 21 26  2  0
 21 22  1  0
 22 23  2  0
 23 24  1  0
 25 24  2  0
 26 25  1  0
 27 28  1  0
 29 27  2  0
M  END
$$$$
