NEF.pdb
     RDKit          3D

 29 29  0  0  1  0  0  0  0  0999 V2000
   29.5197  -32.2894  -17.9789 N   0  0  0  0  0  0  0  0  0  0  0  0
   29.2238  -31.1048  -17.2487 C   0  0  0  0  0  0  0  0  0  0  0  0
   30.1910  -30.3990  -16.8192 O   0  0  0  0  0  0  0  0  0  0  0  0
   27.8207  -30.6820  -16.9819 C   0  0  0  0  0  0  0  0  0  0  0  0
   26.9021  -31.7358  -17.5555 C   0  0  2  0  0  0  0  0  0  0  0  0
   26.6627  -31.3827  -18.9374 N   0  0  0  0  0  0  0  0  0  0  0  0
   25.6463  -31.8650  -16.7825 C   0  0  0  0  0  0  0  0  0  0  0  0
   24.5923  -31.4170  -17.2968 O   0  0  0  0  0  0  0  0  0  0  0  0
   25.5616  -32.4638  -15.4971 N   0  0  0  0  0  0  0  0  0  0  0  0
   24.3236  -32.6960  -14.7849 C   0  0  1  0  0  0  0  0  0  0  0  0
   23.4840  -33.7729  -15.4107 C   0  0  0  0  0  0  0  0  0  0  0  0
   22.1481  -33.9313  -14.7569 C   0  0  0  0  0  0  0  0  0  0  0  0
   21.9705  -35.3198  -14.2595 C   0  0  0  0  0  0  0  0  0  0  0  0
   22.3155  -36.3229  -14.9343 O   0  0  0  0  0  0  0  0  0  0  0  0
   24.6684  -33.1437  -13.4009 C   0  0  0  0  0  0  0  0  0  0  0  0
   25.8109  -33.5970  -13.1586 O   0  0  0  0  0  0  0  0  0  0  0  0
   21.4073  -35.5421  -13.0110 O   0  0  0  0  0  0  0  0  0  0  0  0
   23.7389  -33.0757  -12.3293 N   0  0  0  0  0  0  0  0  0  0  0  0
   24.0889  -33.3736  -10.9412 C   0  0  1  0  0  0  0  0  0  0  0  0
   25.0963  -32.4068  -10.4182 C   0  0  0  0  0  0  0  0  0  0  0  0
   25.4850  -32.6762   -9.0233 C   0  0  0  0  0  0  0  0  0  0  0  0
   26.4541  -33.6209   -8.7746 C   0  0  0  0  0  0  0  0  0  0  0  0
   26.8676  -33.9197   -7.4787 C   0  0  0  0  0  0  0  0  0  0  0  0
   26.2751  -33.2372   -6.4341 C   0  0  0  0  0  0  0  0  0  0  0  0
   25.3135  -32.2977   -6.6572 C   0  0  0  0  0  0  0  0  0  0  0  0
   24.9159  -32.0150   -7.9567 C   0  0  0  0  0  0  0  0  0  0  0  0
   22.8596  -33.4139  -10.1218 C   0  0  0  0  0  0  0  0  0  0  0  0
   22.4864  -34.4687   -9.3074 O   0  0  0  0  0  0  0  0  0  0  0  0
   22.0444  -32.4247  -10.1323 O   0  0  0  0  0  0  0  0  0  0  0  0
  1  2  1  0
  2  4  1  0
  2  3  2  0
  4  5  1  0
  5  7  1  0
  5  6  1  6
  7  8  2  0
  9  7  1  0
  9 10  1  0
 10 11  1  6
 11 12  1  0
 12 13  1  0
 13 14  2  0
 13 17  1  0
 15 18  1  0
 15 10  1  0
 16 15  2  0
 19 27  1  0
 19 20  1  1
 19 18  1  0
 20 21  1  0
 21 26  2  0
 21 22  1  0
 22 23  2  0
 23 24  1  0
 25 24  2  0
 26 25  1  0
 27 28  1  0
 29 27  2  0
M  END
$$$$
