NEF.pdb
     RDKit          3D

 29 29  0  0  1  0  0  0  0  0999 V2000
   15.3582  -24.3076    0.1579 N   0  0  0  0  0  0  0  0  0  0  0  0
   15.5711  -22.9803   -0.3080 C   0  0  0  0  0  0  0  0  0  0  0  0
   15.7611  -22.7970   -1.5523 O   0  0  0  0  0  0  0  0  0  0  0  0
   15.5754  -21.8174    0.6227 C   0  0  0  0  0  0  0  0  0  0  0  0
   14.4842  -22.0376    1.6446 C   0  0  2  0  0  0  0  0  0  0  0  0
   13.2228  -21.9570    0.9418 N   0  0  0  0  0  0  0  0  0  0  0  0
   14.5651  -21.0754    2.7666 C   0  0  0  0  0  0  0  0  0  0  0  0
   14.0349  -19.9480    2.6119 O   0  0  0  0  0  0  0  0  0  0  0  0
   15.2049  -21.3496    4.0049 N   0  0  0  0  0  0  0  0  0  0  0  0
   15.2704  -20.4213    5.1130 C   0  0  1  0  0  0  0  0  0  0  0  0
   15.7358  -21.0662    6.3872 C   0  0  0  0  0  0  0  0  0  0  0  0
   15.7520  -20.1259    7.5502 C   0  0  0  0  0  0  0  0  0  0  0  0
   16.2189  -20.8201    8.7778 C   0  0  0  0  0  0  0  0  0  0  0  0
   16.5769  -22.0252    8.7714 O   0  0  0  0  0  0  0  0  0  0  0  0
   16.2600  -19.3574    4.7614 C   0  0  0  0  0  0  0  0  0  0  0  0
   17.3309  -19.6664    4.1894 O   0  0  0  0  0  0  0  0  0  0  0  0
   16.2704  -20.1359    9.9839 O   0  0  0  0  0  0  0  0  0  0  0  0
   16.0336  -17.9862    5.0535 N   0  0  0  0  0  0  0  0  0  0  0  0
   17.0161  -16.9355    4.7916 C   0  0  1  0  0  0  0  0  0  0  0  0
   16.4344  -15.8477    3.9540 C   0  0  0  0  0  0  0  0  0  0  0  0
   17.4022  -14.7841    3.6355 C   0  0  0  0  0  0  0  0  0  0  0  0
   17.4029  -13.6375    4.3962 C   0  0  0  0  0  0  0  0  0  0  0  0
   18.2942  -12.5965    4.1479 C   0  0  0  0  0  0  0  0  0  0  0  0
   19.1898  -12.7426    3.1064 C   0  0  0  0  0  0  0  0  0  0  0  0
   19.2067  -13.8693    2.3401 C   0  0  0  0  0  0  0  0  0  0  0  0
   18.3098  -14.8951    2.6047 C   0  0  0  0  0  0  0  0  0  0  0  0
   17.5584  -16.4386    6.0736 C   0  0  0  0  0  0  0  0  0  0  0  0
   18.8670  -16.0365    6.2758 O   0  0  0  0  0  0  0  0  0  0  0  0
   16.8023  -16.3565    7.1054 O   0  0  0  0  0  0  0  0  0  0  0  0
  1  2  1  0
  2  4  1  0
  2  3  2  0
  4  5  1  0
  5  7  1  0
  5  6  1  6
  7  8  2  0
  9  7  1  0
  9 10  1  0
 10 11  1  1
 11 12  1  0
 12 13  1  0
 13 14  2  0
 13 17  1  0
 15 18  1  0
 15 10  1  0
 16 15  2  0
 19 27  1  0
 19 20  1  1
 19 18  1  0
 20 21  1  0
 21 26  2  0
 21 22  1  0
 22 23  2  0
 23 24  1  0
 25 24  2  0
 26 25  1  0
 27 28  1  0
 29 27  2  0
M  END
$$$$
