NEF.pdb
     RDKit          3D

 29 29  0  0  1  0  0  0  0  0999 V2000
   30.6365  -19.8979  -19.0934 N   0  0  0  0  0  0  0  0  0  0  0  0
   29.4088  -20.6107  -19.1870 C   0  0  0  0  0  0  0  0  0  0  0  0
   29.2990  -21.5168  -20.0729 O   0  0  0  0  0  0  0  0  0  0  0  0
   28.2652  -20.3186  -18.2784 C   0  0  0  0  0  0  0  0  0  0  0  0
   28.7176  -20.5889  -16.8622 C   0  0  2  0  0  0  0  0  0  0  0  0
   28.5187  -22.0000  -16.6156 N   0  0  0  0  0  0  0  0  0  0  0  0
   28.0102  -19.7407  -15.8767 C   0  0  0  0  0  0  0  0  0  0  0  0
   28.1286  -18.4953  -15.9826 O   0  0  0  0  0  0  0  0  0  0  0  0
   27.2074  -20.2491  -14.8208 N   0  0  0  0  0  0  0  0  0  0  0  0
   25.8378  -19.8528  -14.5732 C   0  0  1  0  0  0  0  0  0  0  0  0
   24.9318  -20.1266  -15.7396 C   0  0  0  0  0  0  0  0  0  0  0  0
   23.5043  -19.7694  -15.4715 C   0  0  0  0  0  0  0  0  0  0  0  0
   23.1498  -18.4922  -16.1422 C   0  0  0  0  0  0  0  0  0  0  0  0
   23.4885  -17.3743  -15.6774 O   0  0  0  0  0  0  0  0  0  0  0  0
   25.3320  -20.6517  -13.4153 C   0  0  0  0  0  0  0  0  0  0  0  0
   25.1958  -21.8922  -13.5256 O   0  0  0  0  0  0  0  0  0  0  0  0
   22.4208  -18.5083  -17.3229 O   0  0  0  0  0  0  0  0  0  0  0  0
   24.9932  -20.0533  -12.1727 N   0  0  0  0  0  0  0  0  0  0  0  0
   24.4147  -20.7959  -11.0539 C   0  0  1  0  0  0  0  0  0  0  0  0
   24.9442  -20.3067   -9.7487 C   0  0  0  0  0  0  0  0  0  0  0  0
   26.3986  -20.4931   -9.6094 C   0  0  0  0  0  0  0  0  0  0  0  0
   26.9654  -21.6603  -10.0673 C   0  0  0  0  0  0  0  0  0  0  0  0
   28.3343  -21.8961   -9.9673 C   0  0  0  0  0  0  0  0  0  0  0  0
   29.1214  -20.9187   -9.3901 C   0  0  0  0  0  0  0  0  0  0  0  0
   28.5815  -19.7553   -8.9297 C   0  0  0  0  0  0  0  0  0  0  0  0
   27.2145  -19.5403   -9.0392 C   0  0  0  0  0  0  0  0  0  0  0  0
   22.9402  -20.7309  -11.1304 C   0  0  0  0  0  0  0  0  0  0  0  0
   22.0743  -21.4858  -10.3586 O   0  0  0  0  0  0  0  0  0  0  0  0
   22.3715  -19.9338  -11.9576 O   0  0  0  0  0  0  0  0  0  0  0  0
  1  2  1  0
  2  4  1  0
  2  3  2  0
  4  5  1  0
  5  7  1  0
  5  6  1  1
  7  8  2  0
  9  7  1  0
  9 10  1  0
 10 11  1  6
 11 12  1  0
 12 13  1  0
 13 14  2  0
 13 17  1  0
 15 18  1  0
 15 10  1  0
 16 15  2  0
 19 27  1  0
 19 20  1  1
 19 18  1  0
 20 21  1  0
 21 26  2  0
 21 22  1  0
 22 23  2  0
 23 24  1  0
 25 24  2  0
 26 25  1  0
 27 28  1  0
 29 27  2  0
M  END
$$$$
