NEF.pdb
     RDKit          3D

 29 29  0  0  1  0  0  0  0  0999 V2000
   18.6633  -14.5422  -16.0100 N   0  0  0  0  0  0  0  0  0  0  0  0
   18.3394  -13.2400  -16.4825 C   0  0  0  0  0  0  0  0  0  0  0  0
   17.1208  -12.8756  -16.4703 O   0  0  0  0  0  0  0  0  0  0  0  0
   19.3877  -12.3084  -16.9845 C   0  0  0  0  0  0  0  0  0  0  0  0
   18.7216  -11.3158  -17.9089 C   0  0  2  0  0  0  0  0  0  0  0  0
   18.6200  -11.9469  -19.2062 N   0  0  0  0  0  0  0  0  0  0  0  0
   19.4489  -10.0278  -17.9656 C   0  0  0  0  0  0  0  0  0  0  0  0
   20.5311   -9.9928  -18.6010 O   0  0  0  0  0  0  0  0  0  0  0  0
   18.9977   -8.8317  -17.3461 N   0  0  0  0  0  0  0  0  0  0  0  0
   19.6801   -7.5588  -17.4352 C   0  0  1  0  0  0  0  0  0  0  0  0
   18.7396   -6.4065  -17.6448 C   0  0  0  0  0  0  0  0  0  0  0  0
   17.7031   -6.2912  -16.5726 C   0  0  0  0  0  0  0  0  0  0  0  0
   16.8567   -5.0899  -16.7902 C   0  0  0  0  0  0  0  0  0  0  0  0
   16.6986   -4.2118  -15.9045 O   0  0  0  0  0  0  0  0  0  0  0  0
   20.3902   -7.3281  -16.1402 C   0  0  0  0  0  0  0  0  0  0  0  0
   19.9086   -7.7802  -15.0757 O   0  0  0  0  0  0  0  0  0  0  0  0
   16.2089   -4.9090  -18.0039 O   0  0  0  0  0  0  0  0  0  0  0  0
   21.6102   -6.6050  -16.0638 N   0  0  0  0  0  0  0  0  0  0  0  0
   22.3585   -6.4198  -14.8213 C   0  0  1  0  0  0  0  0  0  0  0  0
   23.7446   -6.9563  -14.9399 C   0  0  0  0  0  0  0  0  0  0  0  0
   24.4845   -6.3967  -16.0838 C   0  0  0  0  0  0  0  0  0  0  0  0
   25.1707   -5.2157  -15.9172 C   0  0  0  0  0  0  0  0  0  0  0  0
   25.8914   -4.6362  -16.9586 C   0  0  0  0  0  0  0  0  0  0  0  0
   25.9022   -5.2824  -18.1795 C   0  0  0  0  0  0  0  0  0  0  0  0
   25.2297   -6.4527  -18.3670 C   0  0  0  0  0  0  0  0  0  0  0  0
   24.5175   -7.0133  -17.3156 C   0  0  0  0  0  0  0  0  0  0  0  0
   22.3314   -4.9924  -14.4389 C   0  0  0  0  0  0  0  0  0  0  0  0
   22.7663   -4.4907  -13.2247 O   0  0  0  0  0  0  0  0  0  0  0  0
   21.8794   -4.1141  -15.2558 O   0  0  0  0  0  0  0  0  0  0  0  0
  1  2  1  0
  2  4  1  0
  2  3  2  0
  4  5  1  0
  5  7  1  0
  5  6  1  6
  7  8  2  0
  9  7  1  0
  9 10  1  0
 10 11  1  1
 11 12  1  0
 12 13  1  0
 13 14  2  0
 13 17  1  0
 15 18  1  0
 15 10  1  0
 16 15  2  0
 19 27  1  0
 19 20  1  6
 19 18  1  0
 20 21  1  0
 21 26  2  0
 21 22  1  0
 22 23  2  0
 23 24  1  0
 25 24  2  0
 26 25  1  0
 27 28  1  0
 29 27  2  0
M  END
$$$$
