NEF.pdb
     RDKit          3D

 29 29  0  0  1  0  0  0  0  0999 V2000
   26.0751  -34.4929   -9.9675 N   0  0  0  0  0  0  0  0  0  0  0  0
   25.1664  -33.9031   -9.0454 C   0  0  0  0  0  0  0  0  0  0  0  0
   24.4554  -32.9235   -9.4362 O   0  0  0  0  0  0  0  0  0  0  0  0
   25.0345  -34.4056   -7.6494 C   0  0  0  0  0  0  0  0  0  0  0  0
   25.8083  -33.4735   -6.7462 C   0  0  2  0  0  0  0  0  0  0  0  0
   27.2081  -33.6308   -7.0738 N   0  0  0  0  0  0  0  0  0  0  0  0
   25.5342  -33.7261   -5.3136 C   0  0  0  0  0  0  0  0  0  0  0  0
   24.3377  -33.8710   -4.9620 O   0  0  0  0  0  0  0  0  0  0  0  0
   26.5405  -33.8142   -4.3148 N   0  0  0  0  0  0  0  0  0  0  0  0
   26.2811  -34.0784   -2.9159 C   0  0  1  0  0  0  0  0  0  0  0  0
   27.5177  -34.4670   -2.1569 C   0  0  0  0  0  0  0  0  0  0  0  0
   28.0685  -35.7946   -2.5707 C   0  0  0  0  0  0  0  0  0  0  0  0
   29.4684  -35.9503   -2.0986 C   0  0  0  0  0  0  0  0  0  0  0  0
   30.3033  -36.6708   -2.7021 O   0  0  0  0  0  0  0  0  0  0  0  0
   25.7548  -32.8210   -2.3022 C   0  0  0  0  0  0  0  0  0  0  0  0
   25.6022  -31.7983   -3.0096 O   0  0  0  0  0  0  0  0  0  0  0  0
   29.8921  -35.2878   -0.9553 O   0  0  0  0  0  0  0  0  0  0  0  0
   25.4142  -32.7347   -0.9262 N   0  0  0  0  0  0  0  0  0  0  0  0
   24.6614  -31.6202   -0.3526 C   0  0  1  0  0  0  0  0  0  0  0  0
   23.3365  -31.4630   -1.0183 C   0  0  0  0  0  0  0  0  0  0  0  0
   22.5487  -30.3416   -0.4788 C   0  0  0  0  0  0  0  0  0  0  0  0
   22.6177  -29.1190   -1.1064 C   0  0  0  0  0  0  0  0  0  0  0  0
   21.8955  -28.0202   -0.6473 C   0  0  0  0  0  0  0  0  0  0  0  0
   21.0973  -28.1873    0.4677 C   0  0  0  0  0  0  0  0  0  0  0  0
   21.0140  -29.3889    1.1050 C   0  0  0  0  0  0  0  0  0  0  0  0
   21.7421  -30.4714    0.6309 C   0  0  0  0  0  0  0  0  0  0  0  0
   24.5456  -31.8055    1.1091 C   0  0  0  0  0  0  0  0  0  0  0  0
   24.8035  -30.8269    2.0531 O   0  0  0  0  0  0  0  0  0  0  0  0
   24.1851  -32.9379    1.5894 O   0  0  0  0  0  0  0  0  0  0  0  0
  1  2  1  0
  2  4  1  0
  2  3  2  0
  4  5  1  0
  5  7  1  0
  5  6  1  1
  7  8  2  0
  9  7  1  0
  9 10  1  0
 10 11  1  1
 11 12  1  0
 12 13  1  0
 13 14  2  0
 13 17  1  0
 15 18  1  0
 15 10  1  0
 16 15  2  0
 19 27  1  0
 19 20  1  6
 19 18  1  0
 20 21  1  0
 21 26  2  0
 21 22  1  0
 22 23  2  0
 23 24  1  0
 25 24  2  0
 26 25  1  0
 27 28  1  0
 29 27  2  0
M  END
$$$$
