NEF.pdb
     RDKit          3D

 29 29  0  0  1  0  0  0  0  0999 V2000
   17.7457   -9.0426  -15.7627 N   0  0  0  0  0  0  0  0  0  0  0  0
   18.2002  -10.2986  -15.2728 C   0  0  0  0  0  0  0  0  0  0  0  0
   17.7667  -10.7042  -14.1479 O   0  0  0  0  0  0  0  0  0  0  0  0
   19.1616  -11.1356  -16.0433 C   0  0  0  0  0  0  0  0  0  0  0  0
   19.5431  -10.3735  -17.2912 C   0  0  2  0  0  0  0  0  0  0  0  0
   19.1396  -11.1810  -18.4210 N   0  0  0  0  0  0  0  0  0  0  0  0
   20.9849  -10.0399  -17.3249 C   0  0  0  0  0  0  0  0  0  0  0  0
   21.5642   -9.8305  -16.2309 O   0  0  0  0  0  0  0  0  0  0  0  0
   21.7511   -9.9424  -18.5171 N   0  0  0  0  0  0  0  0  0  0  0  0
   23.1525   -9.5844  -18.5597 C   0  0  1  0  0  0  0  0  0  0  0  0
   23.7857   -9.8652  -19.8926 C   0  0  0  0  0  0  0  0  0  0  0  0
   25.2540   -9.5810  -19.9174 C   0  0  0  0  0  0  0  0  0  0  0  0
   25.8128   -9.8330  -21.2705 C   0  0  0  0  0  0  0  0  0  0  0  0
   25.0974  -10.2169  -22.2304 O   0  0  0  0  0  0  0  0  0  0  0  0
   23.2571   -8.1135  -18.3145 C   0  0  0  0  0  0  0  0  0  0  0  0
   22.4225   -7.3344  -18.8302 O   0  0  0  0  0  0  0  0  0  0  0  0
   27.1671   -9.6451  -21.5072 O   0  0  0  0  0  0  0  0  0  0  0  0
   24.2813   -7.5513  -17.5071 N   0  0  0  0  0  0  0  0  0  0  0  0
   24.4173   -6.1157  -17.2651 C   0  0  1  0  0  0  0  0  0  0  0  0
   24.3151   -5.8003  -15.8114 C   0  0  0  0  0  0  0  0  0  0  0  0
   22.9441   -5.9265  -15.2883 C   0  0  0  0  0  0  0  0  0  0  0  0
   22.0340   -4.9319  -15.5640 C   0  0  0  0  0  0  0  0  0  0  0  0
   20.7220   -4.9932  -15.1009 C   0  0  0  0  0  0  0  0  0  0  0  0
   20.3493   -6.0898  -14.3481 C   0  0  0  0  0  0  0  0  0  0  0  0
   21.2340   -7.0863  -14.0628 C   0  0  0  0  0  0  0  0  0  0  0  0
   22.5371   -7.0056  -14.5343 C   0  0  0  0  0  0  0  0  0  0  0  0
   25.6789   -5.6331  -17.8649 C   0  0  0  0  0  0  0  0  0  0  0  0
   25.9332   -4.3206  -18.2224 O   0  0  0  0  0  0  0  0  0  0  0  0
   26.6392   -6.4510  -18.0929 O   0  0  0  0  0  0  0  0  0  0  0  0
  1  2  1  0
  2  4  1  0
  2  3  2  0
  4  5  1  0
  5  7  1  0
  5  6  1  6
  7  8  2  0
  9  7  1  0
  9 10  1  0
 10 11  1  6
 11 12  1  0
 12 13  1  0
 13 14  2  0
 13 17  1  0
 15 18  1  0
 15 10  1  0
 16 15  2  0
 19 27  1  0
 19 20  1  1
 19 18  1  0
 20 21  1  0
 21 26  2  0
 21 22  1  0
 22 23  2  0
 23 24  1  0
 25 24  2  0
 26 25  1  0
 27 28  1  0
 29 27  2  0
M  END
$$$$
