NEF.pdb
     RDKit          3D

 29 29  0  0  1  0  0  0  0  0999 V2000
   29.3239  -20.3228  -10.1737 N   0  0  0  0  0  0  0  0  0  0  0  0
   28.4694  -21.1368  -10.9683 C   0  0  0  0  0  0  0  0  0  0  0  0
   28.8887  -22.2807  -11.3339 O   0  0  0  0  0  0  0  0  0  0  0  0
   27.1112  -20.6796  -11.3742 C   0  0  0  0  0  0  0  0  0  0  0  0
   26.9944  -20.8459  -12.8716 C   0  0  2  0  0  0  0  0  0  0  0  0
   28.1519  -20.2094  -13.4603 N   0  0  0  0  0  0  0  0  0  0  0  0
   25.7235  -20.2995  -13.3984 C   0  0  0  0  0  0  0  0  0  0  0  0
   25.3658  -19.1624  -13.0042 O   0  0  0  0  0  0  0  0  0  0  0  0
   24.8859  -20.9819  -14.3207 N   0  0  0  0  0  0  0  0  0  0  0  0
   23.6527  -20.4456  -14.8547 C   0  0  1  0  0  0  0  0  0  0  0  0
   23.6301  -20.4197  -16.3564 C   0  0  0  0  0  0  0  0  0  0  0  0
   22.3188  -19.9687  -16.9170 C   0  0  0  0  0  0  0  0  0  0  0  0
   21.7318  -21.0208  -17.7861 C   0  0  0  0  0  0  0  0  0  0  0  0
   22.4439  -21.8232  -18.4415 O   0  0  0  0  0  0  0  0  0  0  0  0
   22.5353  -21.3308  -14.4047 C   0  0  0  0  0  0  0  0  0  0  0  0
   22.7066  -22.5705  -14.3465 O   0  0  0  0  0  0  0  0  0  0  0  0
   20.3537  -21.1415  -17.8941 O   0  0  0  0  0  0  0  0  0  0  0  0
   21.2645  -20.8170  -14.0335 N   0  0  0  0  0  0  0  0  0  0  0  0
   20.1346  -21.6637  -13.6535 C   0  0  1  0  0  0  0  0  0  0  0  0
   20.3254  -22.2411  -12.2921 C   0  0  0  0  0  0  0  0  0  0  0  0
   20.4971  -21.2157  -11.2489 C   0  0  0  0  0  0  0  0  0  0  0  0
   20.2789  -21.5618   -9.9352 C   0  0  0  0  0  0  0  0  0  0  0  0
   20.4270  -20.6394   -8.9023 C   0  0  0  0  0  0  0  0  0  0  0  0
   20.8029  -19.3513   -9.2305 C   0  0  0  0  0  0  0  0  0  0  0  0
   21.0241  -18.9865  -10.5247 C   0  0  0  0  0  0  0  0  0  0  0  0
   20.8710  -19.9216  -11.5392 C   0  0  0  0  0  0  0  0  0  0  0  0
   18.8796  -20.8925  -13.7740 C   0  0  0  0  0  0  0  0  0  0  0  0
   17.6183  -21.3849  -13.4878 O   0  0  0  0  0  0  0  0  0  0  0  0
   18.9067  -19.6738  -14.1704 O   0  0  0  0  0  0  0  0  0  0  0  0
  1  2  1  0
  2  4  1  0
  2  3  2  0
  4  5  1  0
  5  7  1  0
  5  6  1  6
  7  8  2  0
  9  7  1  0
  9 10  1  0
 10 11  1  6
 11 12  1  0
 12 13  1  0
 13 14  2  0
 13 17  1  0
 15 18  1  0
 15 10  1  0
 16 15  2  0
 19 27  1  0
 19 20  1  1
 19 18  1  0
 20 21  1  0
 21 26  2  0
 21 22  1  0
 22 23  2  0
 23 24  1  0
 25 24  2  0
 26 25  1  0
 27 28  1  0
 29 27  2  0
M  END
$$$$
