NEF.pdb
     RDKit          3D

 29 29  0  0  1  0  0  0  0  0999 V2000
   14.4789  -11.8811  -16.9058 N   0  0  0  0  0  0  0  0  0  0  0  0
   13.9466  -11.8950  -15.5865 C   0  0  0  0  0  0  0  0  0  0  0  0
   12.6943  -12.0623  -15.4390 O   0  0  0  0  0  0  0  0  0  0  0  0
   14.8178  -11.7194  -14.3912 C   0  0  0  0  0  0  0  0  0  0  0  0
   16.2196  -11.4330  -14.8774 C   0  0  2  0  0  0  0  0  0  0  0  0
   16.8277  -12.7069  -15.1920 N   0  0  0  0  0  0  0  0  0  0  0  0
   17.0083  -10.6620  -13.8901 C   0  0  0  0  0  0  0  0  0  0  0  0
   17.3881  -11.2552  -12.8508 O   0  0  0  0  0  0  0  0  0  0  0  0
   17.3608   -9.2949  -14.0468 N   0  0  0  0  0  0  0  0  0  0  0  0
   18.1411   -8.5384  -13.0914 C   0  0  1  0  0  0  0  0  0  0  0  0
   19.1704   -7.6605  -13.7441 C   0  0  0  0  0  0  0  0  0  0  0  0
   20.0138   -6.9127  -12.7609 C   0  0  0  0  0  0  0  0  0  0  0  0
   20.9754   -6.0256  -13.4647 C   0  0  0  0  0  0  0  0  0  0  0  0
   21.2856   -4.8897  -13.0242 O   0  0  0  0  0  0  0  0  0  0  0  0
   17.2055   -7.6487  -12.3379 C   0  0  0  0  0  0  0  0  0  0  0  0
   16.3958   -6.9242  -12.9617 O   0  0  0  0  0  0  0  0  0  0  0  0
   21.5642   -6.4433  -14.6497 O   0  0  0  0  0  0  0  0  0  0  0  0
   17.1952   -7.5885  -10.9191 N   0  0  0  0  0  0  0  0  0  0  0  0
   16.3413   -6.6767  -10.1591 C   0  0  1  0  0  0  0  0  0  0  0  0
   15.2906   -7.4206   -9.4068 C   0  0  0  0  0  0  0  0  0  0  0  0
   14.4211   -6.5409   -8.6072 C   0  0  0  0  0  0  0  0  0  0  0  0
   13.3755   -5.8977   -9.2286 C   0  0  0  0  0  0  0  0  0  0  0  0
   12.5160   -5.0550   -8.5281 C   0  0  0  0  0  0  0  0  0  0  0  0
   12.7396   -4.8767   -7.1767 C   0  0  0  0  0  0  0  0  0  0  0  0
   13.7690   -5.5036   -6.5407 C   0  0  0  0  0  0  0  0  0  0  0  0
   14.6140   -6.3395   -7.2577 C   0  0  0  0  0  0  0  0  0  0  0  0
   17.1802   -5.8334   -9.2820 C   0  0  0  0  0  0  0  0  0  0  0  0
   18.4963   -6.1027   -8.9495 O   0  0  0  0  0  0  0  0  0  0  0  0
   16.7000   -4.7637   -8.7640 O   0  0  0  0  0  0  0  0  0  0  0  0
  1  2  1  0
  2  4  1  0
  2  3  2  0
  4  5  1  0
  5  7  1  0
  5  6  1  1
  7  8  2  0
  9  7  1  0
  9 10  1  0
 10 11  1  6
 11 12  1  0
 12 13  1  0
 13 14  2  0
 13 17  1  0
 15 18  1  0
 15 10  1  0
 16 15  2  0
 19 27  1  0
 19 20  1  1
 19 18  1  0
 20 21  1  0
 21 26  2  0
 21 22  1  0
 22 23  2  0
 23 24  1  0
 25 24  2  0
 26 25  1  0
 27 28  1  0
 29 27  2  0
M  END
$$$$
