NEF.pdb
     RDKit          3D

 29 29  0  0  1  0  0  0  0  0999 V2000
   18.9000  -24.1094  -13.7225 N   0  0  0  0  0  0  0  0  0  0  0  0
   19.7253  -23.0737  -13.2025 C   0  0  0  0  0  0  0  0  0  0  0  0
   19.2141  -21.9230  -13.0224 O   0  0  0  0  0  0  0  0  0  0  0  0
   21.1579  -23.3098  -12.8699 C   0  0  0  0  0  0  0  0  0  0  0  0
   21.9931  -22.4165  -13.7575 C   0  0  2  0  0  0  0  0  0  0  0  0
   21.9178  -22.9590  -15.0960 N   0  0  0  0  0  0  0  0  0  0  0  0
   23.3881  -22.2962  -13.2773 C   0  0  0  0  0  0  0  0  0  0  0  0
   24.0492  -23.3526  -13.1248 O   0  0  0  0  0  0  0  0  0  0  0  0
   24.0229  -21.0609  -12.9791 N   0  0  0  0  0  0  0  0  0  0  0  0
   25.4089  -20.9297  -12.5843 C   0  0  1  0  0  0  0  0  0  0  0  0
   26.1107  -19.8020  -13.2857 C   0  0  0  0  0  0  0  0  0  0  0  0
   27.5933  -19.8190  -13.0885 C   0  0  0  0  0  0  0  0  0  0  0  0
   28.2358  -18.7220  -13.8569 C   0  0  0  0  0  0  0  0  0  0  0  0
   27.5675  -17.8726  -14.4992 O   0  0  0  0  0  0  0  0  0  0  0  0
   25.4419  -20.6362  -11.1189 C   0  0  0  0  0  0  0  0  0  0  0  0
   24.5368  -19.9416  -10.6015 O   0  0  0  0  0  0  0  0  0  0  0  0
   29.6187  -18.6103  -13.8813 O   0  0  0  0  0  0  0  0  0  0  0  0
   26.4747  -21.1202  -10.2727 N   0  0  0  0  0  0  0  0  0  0  0  0
   26.5653  -20.7977   -8.8494 C   0  0  1  0  0  0  0  0  0  0  0  0
   27.9561  -20.9758   -8.3421 C   0  0  0  0  0  0  0  0  0  0  0  0
   28.1086  -20.5913   -6.9285 C   0  0  0  0  0  0  0  0  0  0  0  0
   28.3908  -19.2795   -6.6238 C   0  0  0  0  0  0  0  0  0  0  0  0
   28.5443  -18.8519   -5.3073 C   0  0  0  0  0  0  0  0  0  0  0  0
   28.4051  -19.7870   -4.3001 C   0  0  0  0  0  0  0  0  0  0  0  0
   28.1257  -21.0914   -4.5788 C   0  0  0  0  0  0  0  0  0  0  0  0
   27.9766  -21.4966   -5.8980 C   0  0  0  0  0  0  0  0  0  0  0  0
   26.0461  -19.4331   -8.6202 C   0  0  0  0  0  0  0  0  0  0  0  0
   25.0956  -19.0976   -7.6719 O   0  0  0  0  0  0  0  0  0  0  0  0
   26.4740  -18.4528   -9.3267 O   0  0  0  0  0  0  0  0  0  0  0  0
  1  2  1  0
  2  4  1  0
  2  3  2  0
  4  5  1  0
  5  7  1  0
  5  6  1  6
  7  8  2  0
  9  7  1  0
  9 10  1  0
 10 11  1  6
 11 12  1  0
 12 13  1  0
 13 14  2  0
 13 17  1  0
 15 18  1  0
 15 10  1  0
 16 15  2  0
 19 27  1  0
 19 20  1  6
 19 18  1  0
 20 21  1  0
 21 26  2  0
 21 22  1  0
 22 23  2  0
 23 24  1  0
 25 24  2  0
 26 25  1  0
 27 28  1  0
 29 27  2  0
M  END
$$$$
