NEF.pdb
     RDKit          3D

 29 29  0  0  1  0  0  0  0  0999 V2000
   29.8028  -17.7328  -16.3411 N   0  0  0  0  0  0  0  0  0  0  0  0
   28.3924  -17.5789  -16.4464 C   0  0  0  0  0  0  0  0  0  0  0  0
   27.8824  -17.4330  -17.6025 O   0  0  0  0  0  0  0  0  0  0  0  0
   27.5143  -17.5854  -15.2433 C   0  0  0  0  0  0  0  0  0  0  0  0
   27.7531  -18.8804  -14.5022 C   0  0  2  0  0  0  0  0  0  0  0  0
   27.4646  -19.9561  -15.4247 N   0  0  0  0  0  0  0  0  0  0  0  0
   26.9499  -18.9725  -13.2622 C   0  0  0  0  0  0  0  0  0  0  0  0
   26.8670  -17.9491  -12.5397 O   0  0  0  0  0  0  0  0  0  0  0  0
   26.2688  -20.1458  -12.8410 N   0  0  0  0  0  0  0  0  0  0  0  0
   25.4231  -20.2225  -11.6693 C   0  0  1  0  0  0  0  0  0  0  0  0
   24.2619  -21.1582  -11.8487 C   0  0  0  0  0  0  0  0  0  0  0  0
   23.2392  -20.6477  -12.8134 C   0  0  0  0  0  0  0  0  0  0  0  0
   21.8891  -21.1596  -12.4641 C   0  0  0  0  0  0  0  0  0  0  0  0
   21.0699  -20.4847  -11.7903 O   0  0  0  0  0  0  0  0  0  0  0  0
   26.2510  -20.7465  -10.5403 C   0  0  0  0  0  0  0  0  0  0  0  0
   27.4546  -21.0369  -10.7320 O   0  0  0  0  0  0  0  0  0  0  0  0
   21.4962  -22.4222  -12.8847 O   0  0  0  0  0  0  0  0  0  0  0  0
   25.7216  -20.9327   -9.2357 N   0  0  0  0  0  0  0  0  0  0  0  0
   26.5525  -21.0197   -8.0357 C   0  0  1  0  0  0  0  0  0  0  0  0
   27.3701  -19.7861   -7.8535 C   0  0  0  0  0  0  0  0  0  0  0  0
   28.1278  -19.7771   -6.5905 C   0  0  0  0  0  0  0  0  0  0  0  0
   27.9376  -18.7374   -5.7094 C   0  0  0  0  0  0  0  0  0  0  0  0
   28.6215  -18.6720   -4.4980 C   0  0  0  0  0  0  0  0  0  0  0  0
   29.5073  -19.6881   -4.1963 C   0  0  0  0  0  0  0  0  0  0  0  0
   29.7113  -20.7272   -5.0540 C   0  0  0  0  0  0  0  0  0  0  0  0
   29.0193  -20.7732   -6.2564 C   0  0  0  0  0  0  0  0  0  0  0  0
   25.6982  -21.3144   -6.8662 C   0  0  0  0  0  0  0  0  0  0  0  0
   26.1296  -21.9392   -5.7092 O   0  0  0  0  0  0  0  0  0  0  0  0
   24.4583  -20.9893   -6.8747 O   0  0  0  0  0  0  0  0  0  0  0  0
  1  2  1  0
  2  4  1  0
  2  3  2  0
  4  5  1  0
  5  7  1  0
  5  6  1  6
  7  8  2  0
  9  7  1  0
  9 10  1  0
 10 11  1  6
 11 12  1  0
 12 13  1  0
 13 14  2  0
 13 17  1  0
 15 18  1  0
 15 10  1  0
 16 15  2  0
 19 27  1  0
 19 20  1  1
 19 18  1  0
 20 21  1  0
 21 26  2  0
 21 22  1  0
 22 23  2  0
 23 24  1  0
 25 24  2  0
 26 25  1  0
 27 28  1  0
 29 27  2  0
M  END
$$$$
