NEF.pdb
     RDKit          3D

 29 29  0  0  1  0  0  0  0  0999 V2000
   32.6953  -33.1837  -20.6559 N   0  0  0  0  0  0  0  0  0  0  0  0
   32.1976  -31.8733  -20.4126 C   0  0  0  0  0  0  0  0  0  0  0  0
   31.9900  -31.1085  -21.4075 O   0  0  0  0  0  0  0  0  0  0  0  0
   31.9191  -31.3878  -19.0323 C   0  0  0  0  0  0  0  0  0  0  0  0
   32.5606  -30.0280  -18.8810 C   0  0  2  0  0  0  0  0  0  0  0  0
   33.8861  -30.2420  -18.3437 N   0  0  0  0  0  0  0  0  0  0  0  0
   31.7524  -29.1181  -18.0383 C   0  0  0  0  0  0  0  0  0  0  0  0
   31.9905  -29.0939  -16.8058 O   0  0  0  0  0  0  0  0  0  0  0  0
   30.7262  -28.2725  -18.5381 N   0  0  0  0  0  0  0  0  0  0  0  0
   30.0050  -27.3048  -17.7400 C   0  0  1  0  0  0  0  0  0  0  0  0
   30.3368  -25.8857  -18.1037 C   0  0  0  0  0  0  0  0  0  0  0  0
   29.5403  -24.8801  -17.3346 C   0  0  0  0  0  0  0  0  0  0  0  0
   29.9705  -23.4998  -17.6764 C   0  0  0  0  0  0  0  0  0  0  0  0
   29.5260  -22.4903  -17.0732 O   0  0  0  0  0  0  0  0  0  0  0  0
   28.5444  -27.5020  -17.9902 C   0  0  0  0  0  0  0  0  0  0  0  0
   28.1627  -28.0693  -19.0399 O   0  0  0  0  0  0  0  0  0  0  0  0
   30.8933  -23.2928  -18.6919 O   0  0  0  0  0  0  0  0  0  0  0  0
   27.5530  -27.0657  -17.0717 N   0  0  0  0  0  0  0  0  0  0  0  0
   26.2138  -27.6479  -16.9975 C   0  0  1  0  0  0  0  0  0  0  0  0
   26.2756  -29.1329  -16.8785 C   0  0  0  0  0  0  0  0  0  0  0  0
   24.9499  -29.7722  -16.9345 C   0  0  0  0  0  0  0  0  0  0  0  0
   24.5452  -30.5552  -15.8778 C   0  0  0  0  0  0  0  0  0  0  0  0
   23.3029  -31.1847  -15.8687 C   0  0  0  0  0  0  0  0  0  0  0  0
   22.4746  -31.0032  -16.9592 C   0  0  0  0  0  0  0  0  0  0  0  0
   22.8549  -30.2322  -18.0165 C   0  0  0  0  0  0  0  0  0  0  0  0
   24.0975  -29.6135  -18.0054 C   0  0  0  0  0  0  0  0  0  0  0  0
   25.4647  -27.0187  -15.8897 C   0  0  0  0  0  0  0  0  0  0  0  0
   26.0203  -26.1933  -14.9279 O   0  0  0  0  0  0  0  0  0  0  0  0
   24.2053  -27.2224  -15.7649 O   0  0  0  0  0  0  0  0  0  0  0  0
  1  2  1  0
  2  4  1  0
  2  3  2  0
  4  5  1  0
  5  7  1  0
  5  6  1  1
  7  8  2  0
  9  7  1  0
  9 10  1  0
 10 11  1  6
 11 12  1  0
 12 13  1  0
 13 14  2  0
 13 17  1  0
 15 18  1  0
 15 10  1  0
 16 15  2  0
 19 27  1  0
 19 20  1  1
 19 18  1  0
 20 21  1  0
 21 26  2  0
 21 22  1  0
 22 23  2  0
 23 24  1  0
 25 24  2  0
 26 25  1  0
 27 28  1  0
 29 27  2  0
M  END
$$$$
