FHA.pdb
     RDKit          3D

 27 28  0  0  1  0  0  0  0  0999 V2000
    5.9429  -16.9041   21.8293 N   0  0  0  0  0  0  0  0  0  0  0  0
    7.1412  -16.2429   22.2401 C   0  0  1  0  0  0  0  0  0  0  0  0
    6.8276  -14.7670   22.3967 C   0  0  0  0  0  0  0  0  0  0  0  0
    7.3478  -13.9895   21.2554 C   0  0  0  0  0  0  0  0  0  0  0  0
    8.6719  -13.5480   21.2845 C   0  0  0  0  0  0  0  0  0  0  0  0
    9.1606  -12.8213   20.2196 C   0  0  0  0  0  0  0  0  0  0  0  0
    8.3655  -12.5286   19.1375 C   0  0  0  0  0  0  0  0  0  0  0  0
    7.0580  -12.9698   19.1185 C   0  0  0  0  0  0  0  0  0  0  0  0
    6.5451  -13.6996   20.1738 C   0  0  0  0  0  0  0  0  0  0  0  0
    7.6486  -16.7401   23.5484 C   0  0  0  0  0  0  0  0  0  0  0  0
    6.8230  -16.8630   24.4850 O   0  0  0  0  0  0  0  0  0  0  0  0
    9.0044  -17.0694   23.7573 N   0  0  0  0  0  0  0  0  0  0  0  0
    9.5278  -17.5104   25.0729 C   0  0  1  0  0  0  0  0  0  0  0  0
   10.4508  -18.6566   24.8678 C   0  0  0  0  0  0  0  0  0  0  0  0
    9.8031  -19.9267   24.5386 C   0  0  0  0  0  0  0  0  0  0  0  0
    8.4274  -20.1516   24.6671 C   0  0  0  0  0  0  0  0  0  0  0  0
    8.1238  -21.3886   24.3004 N   0  0  0  0  0  0  0  0  0  0  0  0
    9.2750  -21.9748   23.9353 C   0  0  0  0  0  0  0  0  0  0  0  0
   10.2805  -21.0949   24.0794 N   0  0  0  0  0  0  0  0  0  0  0  0
   10.0266  -16.3512   25.7903 C   0  0  0  0  0  0  0  0  0  0  0  0
   11.1139  -15.8209   25.3631 O   0  0  0  0  0  0  0  0  0  0  0  0
    9.3212  -13.5345   27.9872 C   0  0  0  0  0  0  0  0  0  0  0  0
   10.2051  -14.7393   27.6751 C   0  0  2  0  0  0  0  0  0  0  0  0
    9.4456  -15.7193   26.9223 N   0  0  0  0  0  0  0  0  0  0  0  0
   10.6571  -15.2627   28.9777 C   0  0  0  0  0  0  0  0  0  0  0  0
   10.3455  -16.4305   29.3087 O   0  0  0  0  0  0  0  0  0  0  0  0
   11.4124  -14.4679   29.8116 O   0  0  0  0  0  0  0  0  0  0  0  0
  2  1  1  1
  2  3  1  0
  3  4  1  0
  4  9  1  0
  5  4  2  0
  5  6  1  0
  6  7  2  0
  7  8  1  0
  9  8  2  0
 10 11  2  0
 10  2  1  0
 12 10  1  0
 13 20  1  0
 13 12  1  0
 13 14  1  6
 15 14  1  0
 16 15  2  0
 17 16  1  0
 18 17  1  0
 18 19  2  0
 19 15  1  0
 20 24  1  0
 21 20  2  0
 23 22  1  1
 23 25  1  0
 24 23  1  0
 25 26  2  0
 25 27  1  0
M  END
$$$$
