FHA.pdb
     RDKit          3D

 27 28  0  0  1  0  0  0  0  0999 V2000
    5.9273  -17.9665   25.8566 N   0  0  0  0  0  0  0  0  0  0  0  0
    6.2856  -16.6074   25.5991 C   0  0  1  0  0  0  0  0  0  0  0  0
    7.0417  -16.0889   26.8077 C   0  0  0  0  0  0  0  0  0  0  0  0
    7.0767  -14.6137   26.8196 C   0  0  0  0  0  0  0  0  0  0  0  0
    8.3116  -13.9666   26.8923 C   0  0  0  0  0  0  0  0  0  0  0  0
    8.3474  -12.5883   26.9036 C   0  0  0  0  0  0  0  0  0  0  0  0
    7.1902  -11.8493   26.8444 C   0  0  0  0  0  0  0  0  0  0  0  0
    5.9746  -12.4987   26.7727 C   0  0  0  0  0  0  0  0  0  0  0  0
    5.9127  -13.8791   26.7600 C   0  0  0  0  0  0  0  0  0  0  0  0
    7.1741  -16.4654   24.4131 C   0  0  0  0  0  0  0  0  0  0  0  0
    8.0624  -17.3348   24.2429 O   0  0  0  0  0  0  0  0  0  0  0  0
    7.0455  -15.4015   23.4956 N   0  0  0  0  0  0  0  0  0  0  0  0
    7.8220  -15.3337   22.2340 C   0  0  1  0  0  0  0  0  0  0  0  0
    7.3845  -14.1439   21.4589 C   0  0  0  0  0  0  0  0  0  0  0  0
    7.9139  -14.0583   20.0975 C   0  0  0  0  0  0  0  0  0  0  0  0
    8.8288  -14.9729   19.5625 C   0  0  0  0  0  0  0  0  0  0  0  0
    9.1331  -14.6475   18.3142 N   0  0  0  0  0  0  0  0  0  0  0  0
    8.4344  -13.5382   18.0248 C   0  0  0  0  0  0  0  0  0  0  0  0
    7.7040  -13.1875   19.0969 N   0  0  0  0  0  0  0  0  0  0  0  0
    9.2336  -15.4649   22.5460 C   0  0  0  0  0  0  0  0  0  0  0  0
    9.7496  -14.5746   23.3120 O   0  0  0  0  0  0  0  0  0  0  0  0
   12.0154  -17.9054   22.6657 C   0  0  0  0  0  0  0  0  0  0  0  0
   11.5075  -16.4707   22.5458 C   0  0  2  0  0  0  0  0  0  0  0  0
   10.1261  -16.4780   22.1037 N   0  0  0  0  0  0  0  0  0  0  0  0
   12.3997  -15.8009   21.5813 C   0  0  0  0  0  0  0  0  0  0  0  0
   13.5816  -15.5501   21.9140 O   0  0  0  0  0  0  0  0  0  0  0  0
   11.9280  -15.4601   20.3328 O   0  0  0  0  0  0  0  0  0  0  0  0
  2  1  1  1
  2  3  1  0
  3  4  1  0
  4  9  1  0
  5  4  2  0
  5  6  1  0
  6  7  2  0
  7  8  1  0
  9  8  2  0
 10 11  2  0
 10  2  1  0
 12 10  1  0
 13 20  1  0
 13 12  1  0
 13 14  1  1
 15 14  1  0
 16 15  2  0
 17 16  1  0
 18 17  1  0
 18 19  2  0
 19 15  1  0
 20 24  1  0
 21 20  2  0
 23 22  1  6
 23 25  1  0
 24 23  1  0
 25 26  2  0
 25 27  1  0
M  END
$$$$
