FHA.pdb
     RDKit          3D

 27 28  0  0  1  0  0  0  0  0999 V2000
    6.0047  -18.0242   24.3651 N   0  0  0  0  0  0  0  0  0  0  0  0
    6.6397  -16.7681   24.6117 C   0  0  1  0  0  0  0  0  0  0  0  0
    6.2341  -16.3063   25.9986 C   0  0  0  0  0  0  0  0  0  0  0  0
    6.5708  -14.8843   26.2045 C   0  0  0  0  0  0  0  0  0  0  0  0
    7.7176  -14.5587   26.9309 C   0  0  0  0  0  0  0  0  0  0  0  0
    8.0346  -13.2310   27.1249 C   0  0  0  0  0  0  0  0  0  0  0  0
    7.2408  -12.2315   26.6153 C   0  0  0  0  0  0  0  0  0  0  0  0
    6.1093  -12.5641   25.8986 C   0  0  0  0  0  0  0  0  0  0  0  0
    5.7705  -13.8875   25.6908 C   0  0  0  0  0  0  0  0  0  0  0  0
    8.1251  -16.8629   24.5815 C   0  0  0  0  0  0  0  0  0  0  0  0
    8.6534  -17.8917   25.0678 O   0  0  0  0  0  0  0  0  0  0  0  0
    8.9361  -15.8476   24.0322 N   0  0  0  0  0  0  0  0  0  0  0  0
   10.4070  -15.9816   23.8997 C   0  0  1  0  0  0  0  0  0  0  0  0
   10.8650  -15.1728   22.7405 C   0  0  0  0  0  0  0  0  0  0  0  0
   10.0878  -15.3479   21.5130 C   0  0  0  0  0  0  0  0  0  0  0  0
    9.9841  -16.5643   20.8280 C   0  0  0  0  0  0  0  0  0  0  0  0
    9.2206  -16.4271   19.7532 N   0  0  0  0  0  0  0  0  0  0  0  0
    8.8246  -15.1447   19.7242 C   0  0  0  0  0  0  0  0  0  0  0  0
    9.3466  -14.5001   20.7814 N   0  0  0  0  0  0  0  0  0  0  0  0
   11.0178  -15.7300   25.1924 C   0  0  0  0  0  0  0  0  0  0  0  0
   12.2994  -15.7451   25.2479 O   0  0  0  0  0  0  0  0  0  0  0  0
   10.5153  -13.9649   28.3359 C   0  0  0  0  0  0  0  0  0  0  0  0
   11.1353  -15.1554   27.6087 C   0  0  2  0  0  0  0  0  0  0  0  0
   10.3590  -15.4597   26.4218 N   0  0  0  0  0  0  0  0  0  0  0  0
   11.1376  -16.2688   28.5759 C   0  0  0  0  0  0  0  0  0  0  0  0
   11.7636  -16.1407   29.6539 O   0  0  0  0  0  0  0  0  0  0  0  0
   10.4558  -17.4303   28.2865 O   0  0  0  0  0  0  0  0  0  0  0  0
  2  1  1  1
  2  3  1  0
  3  4  1  0
  4  9  1  0
  5  4  2  0
  5  6  1  0
  6  7  2  0
  7  8  1  0
  9  8  2  0
 10 11  2  0
 10  2  1  0
 12 10  1  0
 13 20  1  0
 13 12  1  0
 13 14  1  6
 15 14  1  0
 16 15  2  0
 17 16  1  0
 18 17  1  0
 18 19  2  0
 19 15  1  0
 20 24  1  0
 21 20  2  0
 23 22  1  1
 23 25  1  0
 24 23  1  0
 25 26  2  0
 25 27  1  0
M  END
$$$$
