FHA.pdb
     RDKit          3D

 27 28  0  0  1  0  0  0  0  0999 V2000
    7.8956  -15.9200   26.0448 N   0  0  0  0  0  0  0  0  0  0  0  0
    7.2713  -16.2510   24.8028 C   0  0  1  0  0  0  0  0  0  0  0  0
    6.2655  -15.1614   24.4830 C   0  0  0  0  0  0  0  0  0  0  0  0
    6.5691  -13.9234   25.2267 C   0  0  0  0  0  0  0  0  0  0  0  0
    5.9529  -13.7067   26.4605 C   0  0  0  0  0  0  0  0  0  0  0  0
    6.2346  -12.5510   27.1575 C   0  0  0  0  0  0  0  0  0  0  0  0
    7.1086  -11.6166   26.6558 C   0  0  0  0  0  0  0  0  0  0  0  0
    7.7125  -11.8404   25.4353 C   0  0  0  0  0  0  0  0  0  0  0  0
    7.4463  -12.9909   24.7178 C   0  0  0  0  0  0  0  0  0  0  0  0
    8.2412  -16.3181   23.6754 C   0  0  0  0  0  0  0  0  0  0  0  0
    7.8217  -16.7372   22.5699 O   0  0  0  0  0  0  0  0  0  0  0  0
    9.5906  -15.9308   23.8154 N   0  0  0  0  0  0  0  0  0  0  0  0
   10.5872  -16.0934   22.7294 C   0  0  1  0  0  0  0  0  0  0  0  0
   10.7970  -14.7818   22.0636 C   0  0  0  0  0  0  0  0  0  0  0  0
   11.6835  -14.8088   20.8997 C   0  0  0  0  0  0  0  0  0  0  0  0
   11.3782  -15.4768   19.7080 C   0  0  0  0  0  0  0  0  0  0  0  0
   12.3617  -15.3331   18.8312 N   0  0  0  0  0  0  0  0  0  0  0  0
   13.3026  -14.5843   19.4282 C   0  0  0  0  0  0  0  0  0  0  0  0
   12.8925  -14.2715   20.6691 N   0  0  0  0  0  0  0  0  0  0  0  0
   11.7486  -16.7841   23.2600 C   0  0  0  0  0  0  0  0  0  0  0  0
   12.2297  -16.3547   24.3690 O   0  0  0  0  0  0  0  0  0  0  0  0
   13.9325  -19.8076   22.7584 C   0  0  0  0  0  0  0  0  0  0  0  0
   13.6043  -18.4368   23.3446 C   0  0  2  0  0  0  0  0  0  0  0  0
   12.4247  -17.8983   22.6945 N   0  0  0  0  0  0  0  0  0  0  0  0
   14.7977  -17.6001   23.1198 C   0  0  0  0  0  0  0  0  0  0  0  0
   15.7635  -17.6867   23.9137 O   0  0  0  0  0  0  0  0  0  0  0  0
   14.8386  -16.7378   22.0463 O   0  0  0  0  0  0  0  0  0  0  0  0
  2  1  1  1
  2  3  1  0
  3  4  1  0
  4  9  1  0
  5  4  2  0
  5  6  1  0
  6  7  2  0
  7  8  1  0
  9  8  2  0
 10 11  2  0
 10  2  1  0
 12 10  1  0
 13 20  1  0
 13 12  1  0
 13 14  1  1
 15 14  1  0
 16 15  2  0
 17 16  1  0
 18 17  1  0
 18 19  2  0
 19 15  1  0
 20 24  1  0
 21 20  2  0
 23 22  1  6
 23 25  1  0
 24 23  1  0
 25 26  2  0
 25 27  1  0
M  END
$$$$
