FHA.pdb
     RDKit          3D

 27 28  0  0  1  0  0  0  0  0999 V2000
    5.8762  -17.2357   22.8681 N   0  0  0  0  0  0  0  0  0  0  0  0
    6.7211  -16.3033   23.5452 C   0  0  1  0  0  0  0  0  0  0  0  0
    6.0490  -15.9317   24.8534 C   0  0  0  0  0  0  0  0  0  0  0  0
    6.7135  -14.7736   25.4818 C   0  0  0  0  0  0  0  0  0  0  0  0
    6.6753  -13.5377   24.8338 C   0  0  0  0  0  0  0  0  0  0  0  0
    7.2954  -12.4539   25.4186 C   0  0  0  0  0  0  0  0  0  0  0  0
    7.9459  -12.5750   26.6231 C   0  0  0  0  0  0  0  0  0  0  0  0
    7.9779  -13.8012   27.2554 C   0  0  0  0  0  0  0  0  0  0  0  0
    7.3639  -14.9022   26.6895 C   0  0  0  0  0  0  0  0  0  0  0  0
    8.0580  -16.8733   23.8681 C   0  0  0  0  0  0  0  0  0  0  0  0
    8.0955  -18.0198   24.3760 O   0  0  0  0  0  0  0  0  0  0  0  0
    9.2575  -16.1724   23.6229 N   0  0  0  0  0  0  0  0  0  0  0  0
   10.5935  -16.7421   23.9226 C   0  0  1  0  0  0  0  0  0  0  0  0
   11.5963  -16.1311   23.0124 C   0  0  0  0  0  0  0  0  0  0  0  0
   11.3528  -16.3430   21.5851 C   0  0  0  0  0  0  0  0  0  0  0  0
   11.2669  -17.6085   20.9929 C   0  0  0  0  0  0  0  0  0  0  0  0
   11.0432  -17.4967   19.6913 N   0  0  0  0  0  0  0  0  0  0  0  0
   10.9815  -16.1827   19.4233 C   0  0  0  0  0  0  0  0  0  0  0  0
   11.1677  -15.4934   20.5617 N   0  0  0  0  0  0  0  0  0  0  0  0
   10.8277  -16.6579   25.3528 C   0  0  0  0  0  0  0  0  0  0  0  0
   11.6341  -15.7479   25.7619 O   0  0  0  0  0  0  0  0  0  0  0  0
    9.5056  -17.3692   28.6826 C   0  0  0  0  0  0  0  0  0  0  0  0
   10.7085  -17.3311   27.7434 C   0  0  2  0  0  0  0  0  0  0  0  0
   10.2599  -17.4699   26.3710 N   0  0  0  0  0  0  0  0  0  0  0  0
   11.5868  -18.4404   28.1594 C   0  0  0  0  0  0  0  0  0  0  0  0
   12.0192  -18.4698   29.3352 O   0  0  0  0  0  0  0  0  0  0  0  0
   11.9204  -19.4265   27.2573 O   0  0  0  0  0  0  0  0  0  0  0  0
  2  1  1  1
  2  3  1  0
  3  4  1  0
  4  9  1  0
  5  4  2  0
  5  6  1  0
  6  7  2  0
  7  8  1  0
  9  8  2  0
 10 11  2  0
 10  2  1  0
 12 10  1  0
 13 20  1  0
 13 12  1  0
 13 14  1  6
 15 14  1  0
 16 15  2  0
 17 16  1  0
 18 17  1  0
 18 19  2  0
 19 15  1  0
 20 24  1  0
 21 20  2  0
 23 22  1  1
 23 25  1  0
 24 23  1  0
 25 26  2  0
 25 27  1  0
M  END
$$$$
