FHA.pdb
     RDKit          3D

 27 28  0  0  1  0  0  0  0  0999 V2000
    5.5976  -17.5464   24.3574 N   0  0  0  0  0  0  0  0  0  0  0  0
    6.3213  -16.3370   24.5928 C   0  0  1  0  0  0  0  0  0  0  0  0
    6.0364  -15.8939   26.0154 C   0  0  0  0  0  0  0  0  0  0  0  0
    6.3111  -14.4544   26.1884 C   0  0  0  0  0  0  0  0  0  0  0  0
    5.3534  -13.5278   25.7722 C   0  0  0  0  0  0  0  0  0  0  0  0
    5.6073  -12.1822   25.9326 C   0  0  0  0  0  0  0  0  0  0  0  0
    6.7835  -11.7453   26.4933 C   0  0  0  0  0  0  0  0  0  0  0  0
    7.7236  -12.6694   26.9015 C   0  0  0  0  0  0  0  0  0  0  0  0
    7.4924  -14.0234   26.7513 C   0  0  0  0  0  0  0  0  0  0  0  0
    7.7932  -16.5166   24.4599 C   0  0  0  0  0  0  0  0  0  0  0  0
    8.2770  -17.6264   24.7889 O   0  0  0  0  0  0  0  0  0  0  0  0
    8.6394  -15.4932   23.9837 N   0  0  0  0  0  0  0  0  0  0  0  0
   10.0829  -15.7061   23.7188 C   0  0  1  0  0  0  0  0  0  0  0  0
   10.5190  -14.7829   22.6394 C   0  0  0  0  0  0  0  0  0  0  0  0
    9.6053  -14.6797   21.5011 C   0  0  0  0  0  0  0  0  0  0  0  0
    9.6212  -15.5593   20.4122 C   0  0  0  0  0  0  0  0  0  0  0  0
    8.6873  -15.2250   19.5330 N   0  0  0  0  0  0  0  0  0  0  0  0
    8.0627  -14.1445   20.0277 C   0  0  0  0  0  0  0  0  0  0  0  0
    8.6160  -13.8200   21.2086 N   0  0  0  0  0  0  0  0  0  0  0  0
   10.8002  -15.6697   24.9804 C   0  0  0  0  0  0  0  0  0  0  0  0
   12.0718  -15.8341   24.9364 O   0  0  0  0  0  0  0  0  0  0  0  0
   10.4919  -14.4899   28.4947 C   0  0  0  0  0  0  0  0  0  0  0  0
   11.1399  -15.3649   27.4246 C   0  0  2  0  0  0  0  0  0  0  0  0
   10.2578  -15.4659   26.2776 N   0  0  0  0  0  0  0  0  0  0  0  0
   11.3835  -16.6735   28.0594 C   0  0  0  0  0  0  0  0  0  0  0  0
   12.1175  -16.7339   29.0734 O   0  0  0  0  0  0  0  0  0  0  0  0
   10.8055  -17.8087   27.5351 O   0  0  0  0  0  0  0  0  0  0  0  0
  2  1  1  1
  2  3  1  0
  3  4  1  0
  4  9  1  0
  5  4  2  0
  5  6  1  0
  6  7  2  0
  7  8  1  0
  9  8  2  0
 10 11  2  0
 10  2  1  0
 12 10  1  0
 13 20  1  0
 13 12  1  0
 13 14  1  6
 15 14  1  0
 16 15  2  0
 17 16  1  0
 18 17  1  0
 18 19  2  0
 19 15  1  0
 20 24  1  0
 21 20  2  0
 23 22  1  1
 23 25  1  0
 24 23  1  0
 25 26  2  0
 25 27  1  0
M  END
$$$$
