FHA.pdb
     RDKit          3D

 27 28  0  0  1  0  0  0  0  0999 V2000
    5.7978  -17.9348   24.1384 N   0  0  0  0  0  0  0  0  0  0  0  0
    6.4120  -16.6535   24.2894 C   0  0  1  0  0  0  0  0  0  0  0  0
    5.7569  -15.9598   25.4687 C   0  0  0  0  0  0  0  0  0  0  0  0
    6.2029  -14.5571   25.5746 C   0  0  0  0  0  0  0  0  0  0  0  0
    6.0690  -13.7188   24.4664 C   0  0  0  0  0  0  0  0  0  0  0  0
    6.4849  -12.4078   24.5624 C   0  0  0  0  0  0  0  0  0  0  0  0
    7.0258  -11.9200   25.7278 C   0  0  0  0  0  0  0  0  0  0  0  0
    7.1537  -12.7569   26.8176 C   0  0  0  0  0  0  0  0  0  0  0  0
    6.7443  -14.0747   26.7460 C   0  0  0  0  0  0  0  0  0  0  0  0
    7.8705  -16.7485   24.5721 C   0  0  0  0  0  0  0  0  0  0  0  0
    8.2401  -17.5480   25.4654 O   0  0  0  0  0  0  0  0  0  0  0  0
    8.8268  -15.9792   23.8763 N   0  0  0  0  0  0  0  0  0  0  0  0
   10.2872  -16.1572   24.0630 C   0  0  1  0  0  0  0  0  0  0  0  0
   10.9927  -15.6872   22.8428 C   0  0  0  0  0  0  0  0  0  0  0  0
   12.4324  -15.9474   22.8164 C   0  0  0  0  0  0  0  0  0  0  0  0
   13.2700  -15.7848   23.9262 C   0  0  0  0  0  0  0  0  0  0  0  0
   14.5208  -16.0900   23.6113 N   0  0  0  0  0  0  0  0  0  0  0  0
   14.5150  -16.4485   22.3176 C   0  0  0  0  0  0  0  0  0  0  0  0
   13.2604  -16.3618   21.8438 N   0  0  0  0  0  0  0  0  0  0  0  0
   10.6694  -15.5795   25.3387 C   0  0  0  0  0  0  0  0  0  0  0  0
   11.2619  -14.4419   25.3128 O   0  0  0  0  0  0  0  0  0  0  0  0
   10.2646  -14.6233   28.5370 C   0  0  0  0  0  0  0  0  0  0  0  0
   11.1726  -15.5843   27.7737 C   0  0  2  0  0  0  0  0  0  0  0  0
   10.4594  -16.1265   26.6330 N   0  0  0  0  0  0  0  0  0  0  0  0
   11.5629  -16.6299   28.7376 C   0  0  0  0  0  0  0  0  0  0  0  0
   12.0857  -16.2938   29.8259 O   0  0  0  0  0  0  0  0  0  0  0  0
   11.3499  -17.9566   28.4343 O   0  0  0  0  0  0  0  0  0  0  0  0
  2  1  1  1
  2  3  1  0
  3  4  1  0
  4  9  1  0
  5  4  2  0
  5  6  1  0
  6  7  2  0
  7  8  1  0
  9  8  2  0
 10 11  2  0
 10  2  1  0
 12 10  1  0
 13 20  1  0
 13 12  1  0
 13 14  1  6
 15 14  1  0
 16 15  2  0
 17 16  1  0
 18 17  1  0
 18 19  2  0
 19 15  1  0
 20 24  1  0
 21 20  2  0
 23 22  1  1
 23 25  1  0
 24 23  1  0
 25 26  2  0
 25 27  1  0
M  END
$$$$
