FHA.pdb
     RDKit          3D

 27 28  0  0  1  0  0  0  0  0999 V2000
    5.6978  -17.2524   23.1898 N   0  0  0  0  0  0  0  0  0  0  0  0
    6.5675  -16.3274   23.8454 C   0  0  1  0  0  0  0  0  0  0  0  0
    5.8787  -15.8605   25.1137 C   0  0  0  0  0  0  0  0  0  0  0  0
    6.4944  -14.6216   25.6273 C   0  0  0  0  0  0  0  0  0  0  0  0
    7.7028  -14.1885   25.0785 C   0  0  0  0  0  0  0  0  0  0  0  0
    8.2804  -13.0313   25.5563 C   0  0  0  0  0  0  0  0  0  0  0  0
    7.6850  -12.3045   26.5592 C   0  0  0  0  0  0  0  0  0  0  0  0
    6.4906  -12.7412   27.0949 C   0  0  0  0  0  0  0  0  0  0  0  0
    5.8921  -13.8977   26.6329 C   0  0  0  0  0  0  0  0  0  0  0  0
    7.8665  -16.9416   24.2345 C   0  0  0  0  0  0  0  0  0  0  0  0
    7.8348  -18.0522   24.8171 O   0  0  0  0  0  0  0  0  0  0  0  0
    9.1054  -16.3203   23.9706 N   0  0  0  0  0  0  0  0  0  0  0  0
   10.4047  -17.0036   24.1805 C   0  0  1  0  0  0  0  0  0  0  0  0
   11.4390  -16.3468   23.3399 C   0  0  0  0  0  0  0  0  0  0  0  0
   11.2403  -16.4730   21.8958 C   0  0  0  0  0  0  0  0  0  0  0  0
   11.3113  -15.3943   21.0063 C   0  0  0  0  0  0  0  0  0  0  0  0
   11.0882  -15.8019   19.7650 N   0  0  0  0  0  0  0  0  0  0  0  0
   10.8729  -17.1256   19.8278 C   0  0  0  0  0  0  0  0  0  0  0  0
   10.9649  -17.5249   21.1076 N   0  0  0  0  0  0  0  0  0  0  0  0
   10.6510  -17.1120   25.6070 C   0  0  0  0  0  0  0  0  0  0  0  0
   11.0117  -16.0455   26.2221 O   0  0  0  0  0  0  0  0  0  0  0  0
   10.2236  -19.3783   28.5640 C   0  0  0  0  0  0  0  0  0  0  0  0
   10.8708  -18.2078   27.8281 C   0  0  2  0  0  0  0  0  0  0  0  0
   10.5345  -18.2722   26.4186 N   0  0  0  0  0  0  0  0  0  0  0  0
   12.3216  -18.3298   28.0628 C   0  0  0  0  0  0  0  0  0  0  0  0
   12.7567  -18.2865   29.2373 O   0  0  0  0  0  0  0  0  0  0  0  0
   13.1782  -18.4893   26.9958 O   0  0  0  0  0  0  0  0  0  0  0  0
  2  1  1  1
  2  3  1  0
  3  4  1  0
  4  9  1  0
  5  4  2  0
  5  6  1  0
  6  7  2  0
  7  8  1  0
  9  8  2  0
 10 11  2  0
 10  2  1  0
 12 10  1  0
 13 20  1  0
 13 12  1  0
 13 14  1  6
 15 14  1  0
 16 15  2  0
 17 16  1  0
 18 17  1  0
 18 19  2  0
 19 15  1  0
 20 24  1  0
 21 20  2  0
 23 22  1  1
 23 25  1  0
 24 23  1  0
 25 26  2  0
 25 27  1  0
M  END
$$$$
