FHA.pdb
     RDKit          3D

 27 28  0  0  1  0  0  0  0  0999 V2000
    7.2501  -17.6437   18.9842 N   0  0  0  0  0  0  0  0  0  0  0  0
    7.7947  -16.5295   19.6939 C   0  0  1  0  0  0  0  0  0  0  0  0
    6.6378  -15.7315   20.2650 C   0  0  0  0  0  0  0  0  0  0  0  0
    7.1224  -14.5616   21.0228 C   0  0  0  0  0  0  0  0  0  0  0  0
    7.5595  -13.4355   20.3230 C   0  0  0  0  0  0  0  0  0  0  0  0
    8.0128  -12.3411   21.0284 C   0  0  0  0  0  0  0  0  0  0  0  0
    8.0393  -12.3455   22.4024 C   0  0  0  0  0  0  0  0  0  0  0  0
    7.6050  -13.4637   23.0848 C   0  0  0  0  0  0  0  0  0  0  0  0
    7.1462  -14.5729   22.4003 C   0  0  0  0  0  0  0  0  0  0  0  0
    8.6636  -16.9444   20.8293 C   0  0  0  0  0  0  0  0  0  0  0  0
    8.2352  -17.8428   21.5930 O   0  0  0  0  0  0  0  0  0  0  0  0
    9.9289  -16.3659   21.0633 N   0  0  0  0  0  0  0  0  0  0  0  0
   10.8369  -16.8336   22.1384 C   0  0  1  0  0  0  0  0  0  0  0  0
   12.2243  -16.4077   21.8205 C   0  0  0  0  0  0  0  0  0  0  0  0
   12.9308  -17.2543   20.8586 C   0  0  0  0  0  0  0  0  0  0  0  0
   12.5417  -18.5617   20.5442 C   0  0  0  0  0  0  0  0  0  0  0  0
   13.3639  -19.0867   19.6468 N   0  0  0  0  0  0  0  0  0  0  0  0
   14.2816  -18.1468   19.3699 C   0  0  0  0  0  0  0  0  0  0  0  0
   14.0188  -17.0487   20.0987 N   0  0  0  0  0  0  0  0  0  0  0  0
   10.2803  -16.4465   23.4220 C   0  0  0  0  0  0  0  0  0  0  0  0
   10.3873  -15.2134   23.7592 O   0  0  0  0  0  0  0  0  0  0  0  0
    7.8400  -17.1245   26.0191 C   0  0  0  0  0  0  0  0  0  0  0  0
    9.2839  -16.7649   25.6777 C   0  0  2  0  0  0  0  0  0  0  0  0
    9.6164  -17.2789   24.3628 N   0  0  0  0  0  0  0  0  0  0  0  0
   10.1156  -17.3631   26.7386 C   0  0  0  0  0  0  0  0  0  0  0  0
    9.9428  -17.0036   27.9266 O   0  0  0  0  0  0  0  0  0  0  0  0
   11.0673  -18.3050   26.4150 O   0  0  0  0  0  0  0  0  0  0  0  0
  2  1  1  1
  2  3  1  0
  3  4  1  0
  4  9  1  0
  5  4  2  0
  5  6  1  0
  6  7  2  0
  7  8  1  0
  9  8  2  0
 10 11  2  0
 10  2  1  0
 12 10  1  0
 13 20  1  0
 13 12  1  0
 13 14  1  6
 15 14  1  0
 16 15  2  0
 17 16  1  0
 18 17  1  0
 18 19  2  0
 19 15  1  0
 20 24  1  0
 21 20  2  0
 23 22  1  1
 23 25  1  0
 24 23  1  0
 25 26  2  0
 25 27  1  0
M  END
$$$$
