FHA.pdb
     RDKit          3D

 27 28  0  0  1  0  0  0  0  0999 V2000
    6.2670  -16.2455   25.5185 N   0  0  0  0  0  0  0  0  0  0  0  0
    6.3453  -15.8210   24.1564 C   0  0  1  0  0  0  0  0  0  0  0  0
    6.0695  -14.3298   24.1174 C   0  0  0  0  0  0  0  0  0  0  0  0
    6.5688  -13.6652   25.3368 C   0  0  0  0  0  0  0  0  0  0  0  0
    7.9435  -13.4763   25.4899 C   0  0  0  0  0  0  0  0  0  0  0  0
    8.4129  -12.8557   26.6281 C   0  0  0  0  0  0  0  0  0  0  0  0
    7.5498  -12.4240   27.6066 C   0  0  0  0  0  0  0  0  0  0  0  0
    6.1927  -12.6157   27.4455 C   0  0  0  0  0  0  0  0  0  0  0  0
    5.6979  -13.2350   26.3137 C   0  0  0  0  0  0  0  0  0  0  0  0
    7.6916  -16.0488   23.5632 C   0  0  0  0  0  0  0  0  0  0  0  0
    8.2934  -17.1053   23.8722 O   0  0  0  0  0  0  0  0  0  0  0  0
    8.2948  -15.1271   22.6817 N   0  0  0  0  0  0  0  0  0  0  0  0
    9.5178  -15.4443   21.9053 C   0  0  1  0  0  0  0  0  0  0  0  0
    9.7440  -14.3749   20.8988 C   0  0  0  0  0  0  0  0  0  0  0  0
    8.8302  -14.3917   19.7561 C   0  0  0  0  0  0  0  0  0  0  0  0
    8.1001  -13.2756   19.3309 C   0  0  0  0  0  0  0  0  0  0  0  0
    7.3562  -13.5824   18.2776 N   0  0  0  0  0  0  0  0  0  0  0  0
    7.5872  -14.8770   18.0078 C   0  0  0  0  0  0  0  0  0  0  0  0
    8.4721  -15.3595   18.8967 N   0  0  0  0  0  0  0  0  0  0  0  0
   10.5933  -15.7501   22.8310 C   0  0  0  0  0  0  0  0  0  0  0  0
   11.0516  -14.7821   23.5372 O   0  0  0  0  0  0  0  0  0  0  0  0
   12.5783  -18.5877   24.3053 C   0  0  0  0  0  0  0  0  0  0  0  0
   12.3270  -17.1192   23.9722 C   0  0  2  0  0  0  0  0  0  0  0  0
   11.2063  -17.0116   23.0577 N   0  0  0  0  0  0  0  0  0  0  0  0
   13.5806  -16.6140   23.3821 C   0  0  0  0  0  0  0  0  0  0  0  0
   13.5874  -16.2448   22.1845 O   0  0  0  0  0  0  0  0  0  0  0  0
   14.7238  -16.5531   24.1483 O   0  0  0  0  0  0  0  0  0  0  0  0
  2  1  1  1
  2  3  1  0
  3  4  1  0
  4  9  1  0
  5  4  2  0
  5  6  1  0
  6  7  2  0
  7  8  1  0
  9  8  2  0
 10 11  2  0
 10  2  1  0
 12 10  1  0
 13 20  1  0
 13 12  1  0
 13 14  1  1
 15 14  1  0
 16 15  2  0
 17 16  1  0
 18 17  1  0
 18 19  2  0
 19 15  1  0
 20 24  1  0
 21 20  2  0
 23 22  1  6
 23 25  1  0
 24 23  1  0
 25 26  2  0
 25 27  1  0
M  END
$$$$
