FHA.pdb
     RDKit          3D

 27 28  0  0  1  0  0  0  0  0999 V2000
    6.6887  -17.1579   22.7106 N   0  0  0  0  0  0  0  0  0  0  0  0
    7.2819  -16.0710   23.4236 C   0  0  1  0  0  0  0  0  0  0  0  0
    6.3352  -15.6761   24.5412 C   0  0  0  0  0  0  0  0  0  0  0  0
    6.7752  -14.4278   25.1938 C   0  0  0  0  0  0  0  0  0  0  0  0
    6.4774  -14.2280   26.5430 C   0  0  0  0  0  0  0  0  0  0  0  0
    6.8872  -13.0627   27.1553 C   0  0  0  0  0  0  0  0  0  0  0  0
    7.5804  -12.1023   26.4583 C   0  0  0  0  0  0  0  0  0  0  0  0
    7.8698  -12.3095   25.1250 C   0  0  0  0  0  0  0  0  0  0  0  0
    7.4698  -13.4692   24.4890 C   0  0  0  0  0  0  0  0  0  0  0  0
    8.5859  -16.4368   24.0419 C   0  0  0  0  0  0  0  0  0  0  0  0
    8.6047  -17.4156   24.8264 O   0  0  0  0  0  0  0  0  0  0  0  0
    9.7750  -15.7264   23.7741 N   0  0  0  0  0  0  0  0  0  0  0  0
   11.0880  -16.1207   24.3395 C   0  0  1  0  0  0  0  0  0  0  0  0
   12.1572  -15.7788   23.3661 C   0  0  0  0  0  0  0  0  0  0  0  0
   12.1573  -16.5723   22.1367 C   0  0  0  0  0  0  0  0  0  0  0  0
   11.6766  -17.8849   22.0611 C   0  0  0  0  0  0  0  0  0  0  0  0
   11.8031  -18.3544   20.8281 N   0  0  0  0  0  0  0  0  0  0  0  0
   12.3571  -17.3734   20.0981 C   0  0  0  0  0  0  0  0  0  0  0  0
   12.5683  -16.3056   20.8863 N   0  0  0  0  0  0  0  0  0  0  0  0
   11.1952  -15.5907   25.6866 C   0  0  0  0  0  0  0  0  0  0  0  0
   12.0251  -14.6305   25.8743 O   0  0  0  0  0  0  0  0  0  0  0  0
    9.9965  -14.3060   28.5104 C   0  0  0  0  0  0  0  0  0  0  0  0
   10.8580  -15.5133   28.1489 C   0  0  2  0  0  0  0  0  0  0  0  0
   10.4781  -16.0088   26.8396 N   0  0  0  0  0  0  0  0  0  0  0  0
   10.6306  -16.5103   29.2116 C   0  0  0  0  0  0  0  0  0  0  0  0
   10.0464  -17.5824   28.9291 O   0  0  0  0  0  0  0  0  0  0  0  0
   11.0600  -16.2548   30.4953 O   0  0  0  0  0  0  0  0  0  0  0  0
  2  1  1  1
  2  3  1  0
  3  4  1  0
  4  9  1  0
  5  4  2  0
  5  6  1  0
  6  7  2  0
  7  8  1  0
  9  8  2  0
 10 11  2  0
 10  2  1  0
 12 10  1  0
 13 20  1  0
 13 12  1  0
 13 14  1  6
 15 14  1  0
 16 15  2  0
 17 16  1  0
 18 17  1  0
 18 19  2  0
 19 15  1  0
 20 24  1  0
 21 20  2  0
 23 22  1  1
 23 25  1  0
 24 23  1  0
 25 26  2  0
 25 27  1  0
M  END
$$$$
