FHA.pdb
     RDKit          3D

 27 28  0  0  1  0  0  0  0  0999 V2000
    5.6428  -17.6588   25.6217 N   0  0  0  0  0  0  0  0  0  0  0  0
    6.3891  -16.5155   25.2001 C   0  0  1  0  0  0  0  0  0  0  0  0
    6.9111  -15.8173   26.4415 C   0  0  0  0  0  0  0  0  0  0  0  0
    6.7914  -14.3518   26.3167 C   0  0  0  0  0  0  0  0  0  0  0  0
    7.9025  -13.6147   25.9031 C   0  0  0  0  0  0  0  0  0  0  0  0
    7.7935  -12.2453   25.7855 C   0  0  0  0  0  0  0  0  0  0  0  0
    6.6125  -11.6019   26.0686 C   0  0  0  0  0  0  0  0  0  0  0  0
    5.5200  -12.3398   26.4767 C   0  0  0  0  0  0  0  0  0  0  0  0
    5.6044  -13.7133   26.6021 C   0  0  0  0  0  0  0  0  0  0  0  0
    7.5612  -16.8773   24.3565 C   0  0  0  0  0  0  0  0  0  0  0  0
    8.2031  -17.9107   24.6631 O   0  0  0  0  0  0  0  0  0  0  0  0
    7.9598  -16.1048   23.2454 N   0  0  0  0  0  0  0  0  0  0  0  0
    9.1443  -16.4418   22.4192 C   0  0  1  0  0  0  0  0  0  0  0  0
    9.1931  -15.5299   21.2471 C   0  0  0  0  0  0  0  0  0  0  0  0
   10.1997  -15.8644   20.2392 C   0  0  0  0  0  0  0  0  0  0  0  0
   11.2143  -16.8077   20.4401 C   0  0  0  0  0  0  0  0  0  0  0  0
   11.9788  -16.9027   19.3615 N   0  0  0  0  0  0  0  0  0  0  0  0
   11.4824  -16.0395   18.4612 C   0  0  0  0  0  0  0  0  0  0  0  0
   10.4150  -15.4182   18.9910 N   0  0  0  0  0  0  0  0  0  0  0  0
   10.3108  -16.5109   23.2804 C   0  0  0  0  0  0  0  0  0  0  0  0
   10.7610  -15.4040   23.7472 O   0  0  0  0  0  0  0  0  0  0  0  0
   12.2418  -18.6730   25.5340 C   0  0  0  0  0  0  0  0  0  0  0  0
   12.2120  -17.5494   24.5009 C   0  0  2  0  0  0  0  0  0  0  0  0
   11.0228  -17.6737   23.6797 N   0  0  0  0  0  0  0  0  0  0  0  0
   13.4516  -17.6853   23.7137 C   0  0  0  0  0  0  0  0  0  0  0  0
   14.5570  -17.5210   24.2808 O   0  0  0  0  0  0  0  0  0  0  0  0
   13.3824  -17.9898   22.3720 O   0  0  0  0  0  0  0  0  0  0  0  0
  2  1  1  1
  2  3  1  0
  3  4  1  0
  4  9  1  0
  5  4  2  0
  5  6  1  0
  6  7  2  0
  7  8  1  0
  9  8  2  0
 10 11  2  0
 10  2  1  0
 12 10  1  0
 13 20  1  0
 13 12  1  0
 13 14  1  6
 15 14  1  0
 16 15  2  0
 17 16  1  0
 18 17  1  0
 18 19  2  0
 19 15  1  0
 20 24  1  0
 21 20  2  0
 23 22  1  1
 23 25  1  0
 24 23  1  0
 25 26  2  0
 25 27  1  0
M  END
$$$$
