SAN.pdb
     RDKit          3D

 20 19  0  0  1  0  0  0  0  0999 V2000
    7.9553  -15.7407   15.1551 O   0  0  0  0  0  0  0  0  0  0  0  0
    8.6324  -15.3787   16.3423 C   0  0  0  0  0  0  0  0  0  0  0  0
    7.8739  -14.2497   17.0472 C   0  0  2  0  0  0  0  0  0  0  0  0
    8.1702  -13.0492   16.2774 N   0  0  0  0  0  0  0  0  0  0  0  0
    8.4163  -14.1703   18.4161 C   0  0  0  0  0  0  0  0  0  0  0  0
    9.5933  -13.7044   18.5756 O   0  0  0  0  0  0  0  0  0  0  0  0
    7.3146  -14.8026   21.9157 C   0  0  0  0  0  0  0  0  0  0  0  0
    8.3820  -14.5223   20.8821 C   0  0  2  0  0  0  0  0  0  0  0  0
    7.7391  -14.5713   19.5916 N   0  0  0  0  0  0  0  0  0  0  0  0
    9.5146  -15.4591   20.9925 C   0  0  0  0  0  0  0  0  0  0  0  0
    9.5648  -16.5434   20.3203 O   0  0  0  0  0  0  0  0  0  0  0  0
   12.8296  -13.6299   19.6540 N   0  0  0  0  0  0  0  0  0  0  0  0
   13.1119  -14.9383   20.1230 C   0  0  0  0  0  0  0  0  0  0  0  0
   13.4526  -15.7871   19.2809 O   0  0  0  0  0  0  0  0  0  0  0  0
   12.9989  -15.2496   21.5432 C   0  0  0  0  0  0  0  0  0  0  0  0
   11.7941  -16.0442   21.9399 C   0  0  2  0  0  0  0  0  0  0  0  0
   10.5907  -15.1759   21.8592 N   0  0  0  0  0  0  0  0  0  0  0  0
   11.8692  -16.6233   23.2996 C   0  0  0  0  0  0  0  0  0  0  0  0
   11.1138  -16.1341   24.1891 O   0  0  0  0  0  0  0  0  0  0  0  0
   12.6864  -17.6359   23.6527 O   0  0  0  0  0  0  0  0  0  0  0  0
  2  1  1  0
  3  5  1  0
  3  2  1  0
  3  4  1  6
  5  6  2  0
  8  7  1  1
  9  8  1  0
  9  5  1  0
 10 11  2  0
 10  8  1  0
 12 13  1  0
 13 15  1  0
 13 14  2  0
 16 15  1  1
 16 17  1  0
 16 18  1  0
 17 10  1  0
 18 20  1  0
 19 18  2  0
M  END
$$$$
