SAN.pdb
     RDKit          3D

 20 19  0  0  1  0  0  0  0  0999 V2000
    5.2162  -21.4715   24.7978 O   0  0  0  0  0  0  0  0  0  0  0  0
    6.1762  -20.4524   24.6015 C   0  0  0  0  0  0  0  0  0  0  0  0
    5.5269  -19.2587   23.8941 C   0  0  2  0  0  0  0  0  0  0  0  0
    5.1281  -19.7585   22.5854 N   0  0  0  0  0  0  0  0  0  0  0  0
    6.5652  -18.2170   23.7895 C   0  0  0  0  0  0  0  0  0  0  0  0
    7.2639  -18.1626   22.7233 O   0  0  0  0  0  0  0  0  0  0  0  0
    7.6215  -15.1185   25.4900 C   0  0  0  0  0  0  0  0  0  0  0  0
    7.9370  -16.3051   24.6075 C   0  0  2  0  0  0  0  0  0  0  0  0
    6.8644  -17.2539   24.7816 N   0  0  0  0  0  0  0  0  0  0  0  0
    9.2614  -16.8779   24.9082 C   0  0  0  0  0  0  0  0  0  0  0  0
   10.3369  -16.2021   24.7784 O   0  0  0  0  0  0  0  0  0  0  0  0
   13.8634  -17.9493   26.7028 N   0  0  0  0  0  0  0  0  0  0  0  0
   13.1410  -18.3422   25.5472 C   0  0  0  0  0  0  0  0  0  0  0  0
   13.7136  -19.0991   24.7441 O   0  0  0  0  0  0  0  0  0  0  0  0
   11.7807  -17.8624   25.3333 C   0  0  0  0  0  0  0  0  0  0  0  0
   10.6914  -18.8452   25.6298 C   0  0  2  0  0  0  0  0  0  0  0  0
    9.3758  -18.2108   25.3549 N   0  0  0  0  0  0  0  0  0  0  0  0
   10.6913  -19.3505   27.0207 C   0  0  0  0  0  0  0  0  0  0  0  0
   10.4574  -20.5811   27.1988 O   0  0  0  0  0  0  0  0  0  0  0  0
   10.9244  -18.5885   28.1083 O   0  0  0  0  0  0  0  0  0  0  0  0
  2  1  1  0
  3  5  1  0
  3  2  1  0
  3  4  1  6
  5  6  2  0
  8  7  1  1
  9  8  1  0
  9  5  1  0
 10 11  2  0
 10  8  1  0
 12 13  1  0
 13 15  1  0
 13 14  2  0
 16 15  1  1
 16 17  1  0
 16 18  1  0
 17 10  1  0
 18 20  1  0
 19 18  2  0
M  END
$$$$
