SAN.pdb
     RDKit          3D

 20 19  0  0  1  0  0  0  0  0999 V2000
    7.8607  -18.1544   19.3893 O   0  0  0  0  0  0  0  0  0  0  0  0
    6.7942  -18.0680   18.4652 C   0  0  0  0  0  0  0  0  0  0  0  0
    7.0635  -16.9367   17.4680 C   0  0  2  0  0  0  0  0  0  0  0  0
    7.9108  -17.5251   16.4396 N   0  0  0  0  0  0  0  0  0  0  0  0
    7.7649  -15.8765   18.2151 C   0  0  0  0  0  0  0  0  0  0  0  0
    9.0392  -15.8394   18.1623 O   0  0  0  0  0  0  0  0  0  0  0  0
    6.9254  -12.8834   20.2699 C   0  0  0  0  0  0  0  0  0  0  0  0
    7.9138  -13.8424   19.6456 C   0  0  2  0  0  0  0  0  0  0  0  0
    7.1435  -14.8775   19.0006 N   0  0  0  0  0  0  0  0  0  0  0  0
    8.8673  -14.3727   20.6367 C   0  0  0  0  0  0  0  0  0  0  0  0
    9.6237  -13.6084   21.3251 O   0  0  0  0  0  0  0  0  0  0  0  0
   11.4341  -15.6250   24.1323 N   0  0  0  0  0  0  0  0  0  0  0  0
   10.0414  -15.4348   24.3214 C   0  0  0  0  0  0  0  0  0  0  0  0
    9.6733  -14.9309   25.3966 O   0  0  0  0  0  0  0  0  0  0  0  0
    9.0989  -15.8243   23.2790 C   0  0  0  0  0  0  0  0  0  0  0  0
    9.7080  -16.3330   22.0100 C   0  0  2  0  0  0  0  0  0  0  0  0
    8.9697  -15.7626   20.8532 N   0  0  0  0  0  0  0  0  0  0  0  0
    9.7129  -17.8078   21.8872 C   0  0  0  0  0  0  0  0  0  0  0  0
    8.5995  -18.3880   21.7306 O   0  0  0  0  0  0  0  0  0  0  0  0
   10.8227  -18.5724   21.9298 O   0  0  0  0  0  0  0  0  0  0  0  0
  2  1  1  0
  3  5  1  0
  3  2  1  0
  3  4  1  6
  5  6  2  0
  8  7  1  1
  9  8  1  0
  9  5  1  0
 10 11  2  0
 10  8  1  0
 12 13  1  0
 13 15  1  0
 13 14  2  0
 16 15  1  1
 16 17  1  0
 16 18  1  0
 17 10  1  0
 18 20  1  0
 19 18  2  0
M  END
$$$$
