SAN.pdb
     RDKit          3D

 20 19  0  0  1  0  0  0  0  0999 V2000
   10.0038  -16.8575   17.5249 O   0  0  0  0  0  0  0  0  0  0  0  0
    9.9276  -18.0090   18.3416 C   0  0  0  0  0  0  0  0  0  0  0  0
   11.1228  -18.0447   19.2992 C   0  0  2  0  0  0  0  0  0  0  0  0
   11.0266  -19.3258   19.9856 N   0  0  0  0  0  0  0  0  0  0  0  0
   10.9513  -16.9118   20.2273 C   0  0  0  0  0  0  0  0  0  0  0  0
   11.3427  -15.7567   19.8526 O   0  0  0  0  0  0  0  0  0  0  0  0
    9.1088  -15.8003   23.1328 C   0  0  0  0  0  0  0  0  0  0  0  0
   10.4492  -15.8776   22.4374 C   0  0  2  0  0  0  0  0  0  0  0  0
   10.3821  -16.9889   21.5201 N   0  0  0  0  0  0  0  0  0  0  0  0
   11.5614  -15.9951   23.3975 C   0  0  0  0  0  0  0  0  0  0  0  0
   11.7199  -15.1657   24.3552 O   0  0  0  0  0  0  0  0  0  0  0  0
   11.7043  -20.3217   24.7377 N   0  0  0  0  0  0  0  0  0  0  0  0
   12.4589  -19.2688   25.3152 C   0  0  0  0  0  0  0  0  0  0  0  0
   12.0866  -18.8368   26.4199 O   0  0  0  0  0  0  0  0  0  0  0  0
   13.6222  -18.7316   24.6190 C   0  0  0  0  0  0  0  0  0  0  0  0
   13.5641  -17.2732   24.2873 C   0  0  2  0  0  0  0  0  0  0  0  0
   12.4951  -17.0457   23.2802 N   0  0  0  0  0  0  0  0  0  0  0  0
   14.8324  -16.7183   23.7643 C   0  0  0  0  0  0  0  0  0  0  0  0
   14.9050  -16.4882   22.5222 O   0  0  0  0  0  0  0  0  0  0  0  0
   15.9127  -16.4411   24.5218 O   0  0  0  0  0  0  0  0  0  0  0  0
  2  1  1  0
  3  5  1  0
  3  2  1  0
  3  4  1  1
  5  6  2  0
  8  7  1  1
  9  8  1  0
  9  5  1  0
 10 11  2  0
 10  8  1  0
 12 13  1  0
 13 15  1  0
 13 14  2  0
 16 15  1  6
 16 17  1  0
 16 18  1  0
 17 10  1  0
 18 20  1  0
 19 18  2  0
M  END
$$$$
