SAN.pdb
     RDKit          3D

 20 19  0  0  1  0  0  0  0  0999 V2000
    6.2585  -19.2966   19.7185 O   0  0  0  0  0  0  0  0  0  0  0  0
    7.0716  -18.1615   19.9405 C   0  0  0  0  0  0  0  0  0  0  0  0
    6.9551  -17.2009   18.7529 C   0  0  2  0  0  0  0  0  0  0  0  0
    7.5446  -17.9107   17.6258 N   0  0  0  0  0  0  0  0  0  0  0  0
    7.7301  -15.9978   19.1084 C   0  0  0  0  0  0  0  0  0  0  0  0
    8.9833  -15.9914   18.8686 O   0  0  0  0  0  0  0  0  0  0  0  0
    7.1238  -12.5524   20.3753 C   0  0  0  0  0  0  0  0  0  0  0  0
    8.0427  -13.6949   20.0055 C   0  0  2  0  0  0  0  0  0  0  0  0
    7.2024  -14.8276   19.7027 N   0  0  0  0  0  0  0  0  0  0  0  0
    9.0235  -13.9786   21.0686 C   0  0  0  0  0  0  0  0  0  0  0  0
    9.8829  -13.1130   21.4457 O   0  0  0  0  0  0  0  0  0  0  0  0
   10.3847  -18.2953   25.0571 N   0  0  0  0  0  0  0  0  0  0  0  0
   10.1853  -16.9010   24.8901 C   0  0  0  0  0  0  0  0  0  0  0  0
   10.7626  -16.1408   25.6866 O   0  0  0  0  0  0  0  0  0  0  0  0
    9.3310  -16.4047   23.8175 C   0  0  0  0  0  0  0  0  0  0  0  0
   10.0125  -15.5717   22.7773 C   0  0  2  0  0  0  0  0  0  0  0  0
    9.0373  -15.2360   21.7074 N   0  0  0  0  0  0  0  0  0  0  0  0
   11.1906  -16.2182   22.1575 C   0  0  0  0  0  0  0  0  0  0  0  0
   10.9917  -16.9651   21.1557 O   0  0  0  0  0  0  0  0  0  0  0  0
   12.4590  -16.0638   22.5878 O   0  0  0  0  0  0  0  0  0  0  0  0
  2  1  1  0
  3  5  1  0
  3  2  1  0
  3  4  1  6
  5  6  2  0
  8  7  1  1
  9  8  1  0
  9  5  1  0
 10 11  2  0
 10  8  1  0
 12 13  1  0
 13 15  1  0
 13 14  2  0
 16 15  1  1
 16 17  1  0
 16 18  1  0
 17 10  1  0
 18 20  1  0
 19 18  2  0
M  END
$$$$
