SAN.pdb
     RDKit          3D

 20 19  0  0  1  0  0  0  0  0999 V2000
    8.6460  -19.1268   17.6763 O   0  0  0  0  0  0  0  0  0  0  0  0
    8.1582  -18.0181   18.4056 C   0  0  0  0  0  0  0  0  0  0  0  0
    7.6428  -16.9481   17.4381 C   0  0  2  0  0  0  0  0  0  0  0  0
    8.3373  -17.1991   16.1826 N   0  0  0  0  0  0  0  0  0  0  0  0
    8.0137  -15.6440   18.0179 C   0  0  0  0  0  0  0  0  0  0  0  0
    9.2048  -15.2206   17.8451 O   0  0  0  0  0  0  0  0  0  0  0  0
    6.4209  -12.8499   19.8955 C   0  0  0  0  0  0  0  0  0  0  0  0
    7.6313  -13.5767   19.3544 C   0  0  2  0  0  0  0  0  0  0  0  0
    7.1543  -14.8029   18.7630 N   0  0  0  0  0  0  0  0  0  0  0  0
    8.6491  -13.8026   20.3964 C   0  0  0  0  0  0  0  0  0  0  0  0
    9.2422  -12.8369   20.9845 O   0  0  0  0  0  0  0  0  0  0  0  0
    9.9161  -17.3809   24.9266 N   0  0  0  0  0  0  0  0  0  0  0  0
   10.1568  -16.1848   24.2034 C   0  0  0  0  0  0  0  0  0  0  0  0
   11.1153  -15.4803   24.5650 O   0  0  0  0  0  0  0  0  0  0  0  0
    9.2979  -15.8185   23.0833 C   0  0  0  0  0  0  0  0  0  0  0  0
   10.0053  -15.3922   21.8350 C   0  0  2  0  0  0  0  0  0  0  0  0
    8.9996  -15.1148   20.7766 N   0  0  0  0  0  0  0  0  0  0  0  0
   10.9750  -16.3833   21.3178 C   0  0  0  0  0  0  0  0  0  0  0  0
   12.1906  -16.0381   21.2543 O   0  0  0  0  0  0  0  0  0  0  0  0
   10.6500  -17.6273   20.9118 O   0  0  0  0  0  0  0  0  0  0  0  0
  2  1  1  0
  3  5  1  0
  3  2  1  0
  3  4  1  6
  5  6  2  0
  8  7  1  1
  9  8  1  0
  9  5  1  0
 10 11  2  0
 10  8  1  0
 12 13  1  0
 13 15  1  0
 13 14  2  0
 16 15  1  1
 16 17  1  0
 16 18  1  0
 17 10  1  0
 18 20  1  0
 19 18  2  0
M  END
$$$$
