SAN.pdb
     RDKit          3D

 20 19  0  0  1  0  0  0  0  0999 V2000
   10.4856  -17.8673   21.6174 O   0  0  0  0  0  0  0  0  0  0  0  0
    9.1859  -17.7034   21.0857 C   0  0  0  0  0  0  0  0  0  0  0  0
    8.9100  -16.2165   20.8415 C   0  0  2  0  0  0  0  0  0  0  0  0
    9.9028  -15.7978   19.8613 N   0  0  0  0  0  0  0  0  0  0  0  0
    9.0978  -15.5364   22.1362 C   0  0  0  0  0  0  0  0  0  0  0  0
   10.2356  -15.0171   22.3886 O   0  0  0  0  0  0  0  0  0  0  0  0
    7.1588  -14.8595   25.2479 C   0  0  0  0  0  0  0  0  0  0  0  0
    8.4158  -14.7836   24.4109 C   0  0  2  0  0  0  0  0  0  0  0  0
    8.1141  -15.4043   23.1442 N   0  0  0  0  0  0  0  0  0  0  0  0
    9.5679  -15.4023   25.0908 C   0  0  0  0  0  0  0  0  0  0  0  0
   10.7695  -15.0457   24.8474 O   0  0  0  0  0  0  0  0  0  0  0  0
   11.1050  -16.1217   29.9631 N   0  0  0  0  0  0  0  0  0  0  0  0
   10.3334  -15.0596   29.4264 C   0  0  0  0  0  0  0  0  0  0  0  0
   10.1660  -14.0559   30.1406 O   0  0  0  0  0  0  0  0  0  0  0  0
    9.7693  -15.1663   28.0858 C   0  0  0  0  0  0  0  0  0  0  0  0
   10.0744  -16.4348   27.3521 C   0  0  2  0  0  0  0  0  0  0  0  0
    9.3683  -16.4221   26.0445 N   0  0  0  0  0  0  0  0  0  0  0  0
    9.6955  -17.6649   28.0823 C   0  0  0  0  0  0  0  0  0  0  0  0
    8.4618  -17.9069   28.2254 O   0  0  0  0  0  0  0  0  0  0  0  0
   10.5756  -18.5437   28.6030 O   0  0  0  0  0  0  0  0  0  0  0  0
  2  1  1  0
  3  5  1  0
  3  2  1  0
  3  4  1  6
  5  6  2  0
  8  7  1  1
  9  8  1  0
  9  5  1  0
 10 11  2  0
 10  8  1  0
 12 13  1  0
 13 15  1  0
 13 14  2  0
 16 15  1  1
 16 17  1  0
 16 18  1  0
 17 10  1  0
 18 20  1  0
 19 18  2  0
M  END
$$$$
