SAN.pdb
     RDKit          3D

 20 19  0  0  1  0  0  0  0  0999 V2000
   10.6357  -14.3762   19.0973 O   0  0  0  0  0  0  0  0  0  0  0  0
    9.7520  -13.2729   19.1216 C   0  0  0  0  0  0  0  0  0  0  0  0
    8.3305  -13.7405   18.7937 C   0  0  2  0  0  0  0  0  0  0  0  0
    7.4862  -12.5703   18.9919 N   0  0  0  0  0  0  0  0  0  0  0  0
    8.0107  -14.8153   19.7512 C   0  0  0  0  0  0  0  0  0  0  0  0
    7.6178  -14.4884   20.9202 O   0  0  0  0  0  0  0  0  0  0  0  0
    7.1303  -18.3490   19.7774 C   0  0  0  0  0  0  0  0  0  0  0  0
    7.7677  -17.1805   20.4947 C   0  0  2  0  0  0  0  0  0  0  0  0
    8.1015  -16.2023   19.4884 N   0  0  0  0  0  0  0  0  0  0  0  0
    8.9324  -17.5960   21.2968 C   0  0  0  0  0  0  0  0  0  0  0  0
    8.8439  -18.4841   22.2099 O   0  0  0  0  0  0  0  0  0  0  0  0
   11.7928  -18.4139   18.5633 N   0  0  0  0  0  0  0  0  0  0  0  0
   12.1751  -18.7852   19.8776 C   0  0  0  0  0  0  0  0  0  0  0  0
   12.2192  -19.9998   20.1394 O   0  0  0  0  0  0  0  0  0  0  0  0
   12.4987  -17.7620   20.8650 C   0  0  0  0  0  0  0  0  0  0  0  0
   11.4065  -17.4231   21.8306 C   0  0  2  0  0  0  0  0  0  0  0  0
   10.1965  -17.0123   21.0717 N   0  0  0  0  0  0  0  0  0  0  0  0
   11.7529  -16.3477   22.7865 C   0  0  0  0  0  0  0  0  0  0  0  0
   11.4372  -15.1622   22.4768 O   0  0  0  0  0  0  0  0  0  0  0  0
   12.3800  -16.5470   23.9633 O   0  0  0  0  0  0  0  0  0  0  0  0
  2  1  1  0
  3  5  1  0
  3  2  1  0
  3  4  1  1
  5  6  2  0
  8  7  1  6
  9  8  1  0
  9  5  1  0
 10 11  2  0
 10  8  1  0
 12 13  1  0
 13 15  1  0
 13 14  2  0
 16 15  1  6
 16 17  1  0
 16 18  1  0
 17 10  1  0
 18 20  1  0
 19 18  2  0
M  END
$$$$
