SAN.pdb
     RDKit          3D

 20 19  0  0  1  0  0  0  0  0999 V2000
   10.0869  -13.3349   18.6747 O   0  0  0  0  0  0  0  0  0  0  0  0
    8.8098  -13.1804   18.0882 C   0  0  0  0  0  0  0  0  0  0  0  0
    7.7249  -13.3635   19.1542 C   0  0  2  0  0  0  0  0  0  0  0  0
    7.8782  -12.2304   20.0564 N   0  0  0  0  0  0  0  0  0  0  0  0
    8.0107  -14.6433   19.8286 C   0  0  0  0  0  0  0  0  0  0  0  0
    7.8851  -14.7012   21.0970 O   0  0  0  0  0  0  0  0  0  0  0  0
    8.4552  -18.1903   18.8865 C   0  0  0  0  0  0  0  0  0  0  0  0
    8.5248  -17.0795   19.9100 C   0  0  2  0  0  0  0  0  0  0  0  0
    8.4195  -15.8358   19.1868 N   0  0  0  0  0  0  0  0  0  0  0  0
    9.7469  -17.1624   20.7299 C   0  0  0  0  0  0  0  0  0  0  0  0
   10.1095  -18.2472   21.2973 O   0  0  0  0  0  0  0  0  0  0  0  0
   12.8023  -14.1133   18.8858 N   0  0  0  0  0  0  0  0  0  0  0  0
   13.1547  -15.1195   19.8211 C   0  0  0  0  0  0  0  0  0  0  0  0
   13.8161  -16.0848   19.4014 O   0  0  0  0  0  0  0  0  0  0  0  0
   12.7441  -15.0021   21.2155 C   0  0  0  0  0  0  0  0  0  0  0  0
   11.8137  -16.0652   21.7100 C   0  0  2  0  0  0  0  0  0  0  0  0
   10.5609  -16.0250   20.9114 N   0  0  0  0  0  0  0  0  0  0  0  0
   11.4647  -15.9481   23.1434 C   0  0  0  0  0  0  0  0  0  0  0  0
   12.4082  -16.0063   23.9845 O   0  0  0  0  0  0  0  0  0  0  0  0
   10.2111  -15.7830   23.6115 O   0  0  0  0  0  0  0  0  0  0  0  0
  2  1  1  0
  3  5  1  0
  3  2  1  0
  3  4  1  1
  5  6  2  0
  8  7  1  6
  9  8  1  0
  9  5  1  0
 10 11  2  0
 10  8  1  0
 12 13  1  0
 13 15  1  0
 13 14  2  0
 16 15  1  6
 16 17  1  0
 16 18  1  0
 17 10  1  0
 18 20  1  0
 19 18  2  0
M  END
$$$$
