SAN.pdb
     RDKit          3D

 20 19  0  0  1  0  0  0  0  0999 V2000
    9.2594  -17.7234   18.1210 O   0  0  0  0  0  0  0  0  0  0  0  0
    8.2596  -17.1703   17.2883 C   0  0  0  0  0  0  0  0  0  0  0  0
    8.7928  -15.9045   16.6098 C   0  0  2  0  0  0  0  0  0  0  0  0
   10.0143  -16.3176   15.9324 N   0  0  0  0  0  0  0  0  0  0  0  0
    9.0646  -14.9339   17.6860 C   0  0  0  0  0  0  0  0  0  0  0  0
   10.2796  -14.6906   17.9900 O   0  0  0  0  0  0  0  0  0  0  0  0
    7.2214  -12.5174   19.8214 C   0  0  0  0  0  0  0  0  0  0  0  0
    8.4485  -13.3397   19.4985 C   0  0  2  0  0  0  0  0  0  0  0  0
    8.0837  -14.2343   18.4273 N   0  0  0  0  0  0  0  0  0  0  0  0
    8.9642  -14.0477   20.6840 C   0  0  0  0  0  0  0  0  0  0  0  0
    9.3560  -13.4249   21.7275 O   0  0  0  0  0  0  0  0  0  0  0  0
    6.4309  -17.8667   21.0516 N   0  0  0  0  0  0  0  0  0  0  0  0
    7.2963  -17.4555   22.0973 C   0  0  0  0  0  0  0  0  0  0  0  0
    6.7713  -17.0371   23.1436 O   0  0  0  0  0  0  0  0  0  0  0  0
    8.7425  -17.5305   21.9258 C   0  0  0  0  0  0  0  0  0  0  0  0
    9.4621  -16.2183   21.8992 C   0  0  2  0  0  0  0  0  0  0  0  0
    9.0392  -15.4560   20.6955 N   0  0  0  0  0  0  0  0  0  0  0  0
   10.9374  -16.3346   21.8911 C   0  0  0  0  0  0  0  0  0  0  0  0
   11.5336  -16.1707   20.7872 O   0  0  0  0  0  0  0  0  0  0  0  0
   11.6867  -16.6019   22.9796 O   0  0  0  0  0  0  0  0  0  0  0  0
  2  1  1  0
  3  5  1  0
  3  2  1  0
  3  4  1  1
  5  6  2  0
  8  7  1  1
  9  8  1  0
  9  5  1  0
 10 11  2  0
 10  8  1  0
 12 13  1  0
 13 15  1  0
 13 14  2  0
 16 15  1  6
 16 17  1  0
 16 18  1  0
 17 10  1  0
 18 20  1  0
 19 18  2  0
M  END
$$$$
