SAN.pdb
     RDKit          3D

 20 19  0  0  1  0  0  0  0  0999 V2000
    7.6775  -15.8628   15.3372 O   0  0  0  0  0  0  0  0  0  0  0  0
    8.5257  -15.4859   16.4037 C   0  0  0  0  0  0  0  0  0  0  0  0
    7.8940  -14.3286   17.1837 C   0  0  2  0  0  0  0  0  0  0  0  0
    7.9691  -13.1789   16.2926 N   0  0  0  0  0  0  0  0  0  0  0  0
    8.7162  -14.1391   18.3930 C   0  0  0  0  0  0  0  0  0  0  0  0
    9.8463  -13.5591   18.2727 O   0  0  0  0  0  0  0  0  0  0  0  0
    8.4284  -14.5080   22.0720 C   0  0  0  0  0  0  0  0  0  0  0  0
    9.2558  -14.3596   20.8150 C   0  0  2  0  0  0  0  0  0  0  0  0
    8.3611  -14.5492   19.6994 N   0  0  0  0  0  0  0  0  0  0  0  0
   10.3989  -15.2899   20.7956 C   0  0  0  0  0  0  0  0  0  0  0  0
   10.2879  -16.4907   20.3764 O   0  0  0  0  0  0  0  0  0  0  0  0
   13.9562  -13.5038   18.6990 N   0  0  0  0  0  0  0  0  0  0  0  0
   13.8377  -14.8301   19.1872 C   0  0  0  0  0  0  0  0  0  0  0  0
   13.5939  -15.7251   18.3595 O   0  0  0  0  0  0  0  0  0  0  0  0
   13.9997  -15.1060   20.6100 C   0  0  0  0  0  0  0  0  0  0  0  0
   12.8412  -15.7795   21.2768 C   0  0  2  0  0  0  0  0  0  0  0  0
   11.6669  -14.8691   21.2477 N   0  0  0  0  0  0  0  0  0  0  0  0
   13.0955  -16.1787   22.6789 C   0  0  0  0  0  0  0  0  0  0  0  0
   14.0205  -17.0151   22.8931 O   0  0  0  0  0  0  0  0  0  0  0  0
   12.4094  -15.7105   23.7410 O   0  0  0  0  0  0  0  0  0  0  0  0
  2  1  1  0
  3  5  1  0
  3  2  1  0
  3  4  1  6
  5  6  2  0
  8  7  1  1
  9  8  1  0
  9  5  1  0
 10 11  2  0
 10  8  1  0
 12 13  1  0
 13 15  1  0
 13 14  2  0
 16 15  1  1
 16 17  1  0
 16 18  1  0
 17 10  1  0
 18 20  1  0
 19 18  2  0
M  END
$$$$
