PAF.pdb
     RDKit          3D

 24 25  0  0  1  0  0  0  0  0999 V2000
   19.2647  -12.0723  -17.2427 N   0  0  0  0  0  0  0  0  0  0  0  0
   18.6175  -12.8915  -18.2283 C   0  0  0  0  0  0  0  0  0  0  0  0
   19.7523  -13.2975  -19.1772 C   0  0  0  0  0  0  0  0  0  0  0  0
   20.5311  -12.0003  -19.2525 C   0  0  0  0  0  0  0  0  0  0  0  0
   20.4557  -11.5270  -17.8115 C   0  0  1  0  0  0  0  0  0  0  0  0
   20.4627  -10.0685  -17.6977 C   0  0  0  0  0  0  0  0  0  0  0  0
   21.5242   -9.3704  -17.7488 O   0  0  0  0  0  0  0  0  0  0  0  0
   17.7349   -7.5273  -17.8379 C   0  0  0  0  0  0  0  0  0  0  0  0
   19.1363   -7.9436  -17.4506 C   0  0  2  0  0  0  0  0  0  0  0  0
   19.2372   -9.3761  -17.5210 N   0  0  0  0  0  0  0  0  0  0  0  0
   19.5150   -7.4348  -16.0995 C   0  0  0  0  0  0  0  0  0  0  0  0
   19.0217   -7.9893  -15.0860 O   0  0  0  0  0  0  0  0  0  0  0  0
   20.4114   -6.3485  -15.9249 N   0  0  0  0  0  0  0  0  0  0  0  0
   20.8782   -5.8511  -14.6590 C   0  0  1  0  0  0  0  0  0  0  0  0
   21.9700   -6.6910  -14.0177 C   0  0  0  0  0  0  0  0  0  0  0  0
   23.1676   -6.8325  -14.9113 C   0  0  0  0  0  0  0  0  0  0  0  0
   23.8952   -5.7767  -15.3966 C   0  0  0  0  0  0  0  0  0  0  0  0
   24.9856   -6.0386  -16.2343 C   0  0  0  0  0  0  0  0  0  0  0  0
   25.3617   -7.3144  -16.5936 C   0  0  0  0  0  0  0  0  0  0  0  0
   24.6265   -8.3702  -16.1020 C   0  0  0  0  0  0  0  0  0  0  0  0
   23.5564   -8.1261  -15.2810 C   0  0  0  0  0  0  0  0  0  0  0  0
   21.1625   -4.4075  -14.6346 C   0  0  0  0  0  0  0  0  0  0  0  0
   21.1162   -3.6974  -15.6676 O   0  0  0  0  0  0  0  0  0  0  0  0
   21.4966   -3.7795  -13.4433 O   0  0  0  0  0  0  0  0  0  0  0  0
  1  5  1  0
  2  1  1  0
  2  3  1  0
  3  4  1  0
  5  4  1  0
  5  6  1  6
  6  7  2  0
  9  8  1  1
 10  9  1  0
 10  6  1  0
 11 12  2  0
 11  9  1  0
 13 11  1  0
 14 13  1  0
 14 22  1  0
 14 15  1  6
 16 21  1  0
 16 15  1  0
 17 16  2  0
 18 19  2  0
 18 17  1  0
 19 20  1  0
 20 21  2  0
 22 24  1  0
 23 22  2  0
M  END
$$$$
