PAF.pdb
     RDKit          3D

 24 25  0  0  1  0  0  0  0  0999 V2000
   27.1495  -19.3758  -15.3863 N   0  0  0  0  0  0  0  0  0  0  0  0
   27.9366  -18.3342  -15.9841 C   0  0  0  0  0  0  0  0  0  0  0  0
   29.1602  -18.2199  -15.0660 C   0  0  0  0  0  0  0  0  0  0  0  0
   28.5071  -18.3804  -13.7086 C   0  0  0  0  0  0  0  0  0  0  0  0
   27.4827  -19.4628  -14.0004 C   0  0  1  0  0  0  0  0  0  0  0  0
   26.2836  -19.3403  -13.1714 C   0  0  0  0  0  0  0  0  0  0  0  0
   25.6061  -18.2682  -13.0796 O   0  0  0  0  0  0  0  0  0  0  0  0
   23.6679  -21.4645  -12.1586 C   0  0  0  0  0  0  0  0  0  0  0  0
   24.6468  -20.4488  -11.6132 C   0  0  2  0  0  0  0  0  0  0  0  0
   25.8345  -20.4589  -12.4235 N   0  0  0  0  0  0  0  0  0  0  0  0
   24.9637  -20.6968  -10.1759 C   0  0  0  0  0  0  0  0  0  0  0  0
   24.0362  -20.6223   -9.3321 O   0  0  0  0  0  0  0  0  0  0  0  0
   26.2750  -21.0128   -9.7348 N   0  0  0  0  0  0  0  0  0  0  0  0
   26.6869  -21.1193   -8.3611 C   0  0  1  0  0  0  0  0  0  0  0  0
   28.1602  -20.8341   -8.1228 C   0  0  0  0  0  0  0  0  0  0  0  0
   28.4064  -20.2509   -6.7619 C   0  0  0  0  0  0  0  0  0  0  0  0
   28.4948  -18.9072   -6.5046 C   0  0  0  0  0  0  0  0  0  0  0  0
   28.7414  -18.4875   -5.1922 C   0  0  0  0  0  0  0  0  0  0  0  0
   28.8993  -19.3676   -4.1440 C   0  0  0  0  0  0  0  0  0  0  0  0
   28.8087  -20.7160   -4.4097 C   0  0  0  0  0  0  0  0  0  0  0  0
   28.5677  -21.1390   -5.6912 C   0  0  0  0  0  0  0  0  0  0  0  0
   25.7993  -20.4444   -7.4008 C   0  0  0  0  0  0  0  0  0  0  0  0
   25.4870  -19.2347   -7.5122 O   0  0  0  0  0  0  0  0  0  0  0  0
   25.2729  -21.1425   -6.3234 O   0  0  0  0  0  0  0  0  0  0  0  0
  1  5  1  0
  2  1  1  0
  2  3  1  0
  3  4  1  0
  5  4  1  0
  5  6  1  1
  6  7  2  0
  9  8  1  6
 10  9  1  0
 10  6  1  0
 11 12  2  0
 11  9  1  0
 13 11  1  0
 14 13  1  0
 14 22  1  0
 14 15  1  6
 16 21  1  0
 16 15  1  0
 17 16  2  0
 18 19  2  0
 18 17  1  0
 19 20  1  0
 20 21  2  0
 22 24  1  0
 23 22  2  0
M  END
$$$$
