PAF.pdb
     RDKit          3D

 24 25  0  0  1  0  0  0  0  0999 V2000
   26.4515  -17.1657  -14.9846 N   0  0  0  0  0  0  0  0  0  0  0  0
   27.3051  -16.0501  -15.2823 C   0  0  0  0  0  0  0  0  0  0  0  0
   27.5358  -16.1523  -16.7953 C   0  0  0  0  0  0  0  0  0  0  0  0
   27.6905  -17.6509  -16.9539 C   0  0  0  0  0  0  0  0  0  0  0  0
   26.6295  -18.1600  -15.9941 C   0  0  1  0  0  0  0  0  0  0  0  0
   26.9837  -19.4471  -15.3957 C   0  0  0  0  0  0  0  0  0  0  0  0
   26.9107  -20.5510  -16.0226 O   0  0  0  0  0  0  0  0  0  0  0  0
   28.9754  -20.5597  -12.5486 C   0  0  0  0  0  0  0  0  0  0  0  0
   27.6964  -20.7139  -13.3407 C   0  0  2  0  0  0  0  0  0  0  0  0
   27.4335  -19.4918  -14.0510 N   0  0  0  0  0  0  0  0  0  0  0  0
   26.5459  -21.0989  -12.4713 C   0  0  0  0  0  0  0  0  0  0  0  0
   26.5898  -22.1978  -11.8643 O   0  0  0  0  0  0  0  0  0  0  0  0
   25.4086  -20.2656  -12.3097 N   0  0  0  0  0  0  0  0  0  0  0  0
   24.2575  -20.5766  -11.5059 C   0  0  1  0  0  0  0  0  0  0  0  0
   24.0969  -19.7026  -10.2734 C   0  0  0  0  0  0  0  0  0  0  0  0
   25.2204  -19.8966   -9.2971 C   0  0  0  0  0  0  0  0  0  0  0  0
   25.1091  -20.5987   -8.1248 C   0  0  0  0  0  0  0  0  0  0  0  0
   26.2283  -20.6971   -7.2899 C   0  0  0  0  0  0  0  0  0  0  0  0
   27.4408  -20.1183   -7.5950 C   0  0  0  0  0  0  0  0  0  0  0  0
   27.5454  -19.4149   -8.7744 C   0  0  0  0  0  0  0  0  0  0  0  0
   26.4560  -19.3114   -9.6001 C   0  0  0  0  0  0  0  0  0  0  0  0
   23.0086  -20.7503  -12.2646 C   0  0  0  0  0  0  0  0  0  0  0  0
   22.9403  -20.5435  -13.4999 O   0  0  0  0  0  0  0  0  0  0  0  0
   21.8485  -21.1561  -11.6206 O   0  0  0  0  0  0  0  0  0  0  0  0
  1  5  1  0
  2  1  1  0
  2  3  1  0
  3  4  1  0
  5  4  1  0
  5  6  1  1
  6  7  2  0
  9  8  1  1
 10  9  1  0
 10  6  1  0
 11 12  2  0
 11  9  1  0
 13 11  1  0
 14 13  1  0
 14 22  1  0
 14 15  1  1
 16 21  1  0
 16 15  1  0
 17 16  2  0
 18 19  2  0
 18 17  1  0
 19 20  1  0
 20 21  2  0
 22 24  1  0
 23 22  2  0
M  END
$$$$
