PAF.pdb
     RDKit          3D

 24 25  0  0  1  0  0  0  0  0999 V2000
   27.1427  -19.7086  -15.2793 N   0  0  0  0  0  0  0  0  0  0  0  0
   26.9220  -18.8955  -16.4419 C   0  0  0  0  0  0  0  0  0  0  0  0
   28.1346  -17.9566  -16.4742 C   0  0  0  0  0  0  0  0  0  0  0  0
   28.2847  -17.6431  -14.9997 C   0  0  0  0  0  0  0  0  0  0  0  0
   27.9939  -18.9983  -14.3791 C   0  0  1  0  0  0  0  0  0  0  0  0
   27.3748  -18.8905  -13.0580 C   0  0  0  0  0  0  0  0  0  0  0  0
   27.8437  -18.1643  -12.1255 O   0  0  0  0  0  0  0  0  0  0  0  0
   24.0142  -19.7886  -11.7771 C   0  0  0  0  0  0  0  0  0  0  0  0
   25.4864  -19.5475  -11.5289 C   0  0  2  0  0  0  0  0  0  0  0  0
   26.1922  -19.6227  -12.7793 N   0  0  0  0  0  0  0  0  0  0  0  0
   26.0460  -20.5021  -10.5273 C   0  0  0  0  0  0  0  0  0  0  0  0
   26.4594  -21.6198  -10.9246 O   0  0  0  0  0  0  0  0  0  0  0  0
   26.1253  -20.1877   -9.1457 N   0  0  0  0  0  0  0  0  0  0  0  0
   26.6223  -21.0652   -8.1206 C   0  0  1  0  0  0  0  0  0  0  0  0
   28.0822  -20.8469   -7.7601 C   0  0  0  0  0  0  0  0  0  0  0  0
   28.2361  -20.1314   -6.4497 C   0  0  0  0  0  0  0  0  0  0  0  0
   27.8662  -18.8287   -6.2356 C   0  0  0  0  0  0  0  0  0  0  0  0
   28.0739  -18.2689   -4.9696 C   0  0  0  0  0  0  0  0  0  0  0  0
   28.6350  -18.9712   -3.9255 C   0  0  0  0  0  0  0  0  0  0  0  0
   29.0038  -20.2795   -4.1476 C   0  0  0  0  0  0  0  0  0  0  0  0
   28.8055  -20.8385   -5.3834 C   0  0  0  0  0  0  0  0  0  0  0  0
   25.7448  -21.1957   -6.9466 C   0  0  0  0  0  0  0  0  0  0  0  0
   24.7911  -20.4097   -6.7316 O   0  0  0  0  0  0  0  0  0  0  0  0
   25.9529  -22.2129   -6.0262 O   0  0  0  0  0  0  0  0  0  0  0  0
  1  5  1  0
  2  1  1  0
  2  3  1  0
  3  4  1  0
  5  4  1  0
  5  6  1  1
  6  7  2  0
  9  8  1  6
 10  9  1  0
 10  6  1  0
 11 12  2  0
 11  9  1  0
 13 11  1  0
 14 13  1  0
 14 22  1  0
 14 15  1  1
 16 21  1  0
 16 15  1  0
 17 16  2  0
 18 19  2  0
 18 17  1  0
 19 20  1  0
 20 21  2  0
 22 24  1  0
 23 22  2  0
M  END
$$$$
