PAF.pdb
     RDKit          3D

 24 25  0  0  1  0  0  0  0  0999 V2000
   27.2670  -21.5739  -14.1834 N   0  0  0  0  0  0  0  0  0  0  0  0
   27.3473  -21.4228  -15.6090 C   0  0  0  0  0  0  0  0  0  0  0  0
   28.6616  -20.6629  -15.8286 C   0  0  0  0  0  0  0  0  0  0  0  0
   28.6092  -19.6765  -14.6800 C   0  0  0  0  0  0  0  0  0  0  0  0
   28.0459  -20.5462  -13.5699 C   0  0  1  0  0  0  0  0  0  0  0  0
   27.2394  -19.7863  -12.6147 C   0  0  0  0  0  0  0  0  0  0  0  0
   27.5772  -18.6438  -12.1706 O   0  0  0  0  0  0  0  0  0  0  0  0
   23.6689  -19.9785  -11.7662 C   0  0  0  0  0  0  0  0  0  0  0  0
   25.0712  -19.5933  -11.3508 C   0  0  2  0  0  0  0  0  0  0  0  0
   26.0158  -20.3300  -12.1460 N   0  0  0  0  0  0  0  0  0  0  0  0
   25.2990  -19.8097   -9.8917 C   0  0  0  0  0  0  0  0  0  0  0  0
   25.2303  -18.8228   -9.1176 O   0  0  0  0  0  0  0  0  0  0  0  0
   25.5898  -21.0904   -9.3539 N   0  0  0  0  0  0  0  0  0  0  0  0
   26.4056  -21.3403   -8.1965 C   0  0  1  0  0  0  0  0  0  0  0  0
   27.7647  -20.6614   -8.2271 C   0  0  0  0  0  0  0  0  0  0  0  0
   28.1087  -20.0337   -6.9078 C   0  0  0  0  0  0  0  0  0  0  0  0
   27.8900  -18.7153   -6.6021 C   0  0  0  0  0  0  0  0  0  0  0  0
   28.2679  -18.2451   -5.3390 C   0  0  0  0  0  0  0  0  0  0  0  0
   28.8515  -19.0511   -4.3861 C   0  0  0  0  0  0  0  0  0  0  0  0
   29.0678  -20.3745   -4.6999 C   0  0  0  0  0  0  0  0  0  0  0  0
   28.7021  -20.8464   -5.9339 C   0  0  0  0  0  0  0  0  0  0  0  0
   25.7073  -21.1899   -6.9099 C   0  0  0  0  0  0  0  0  0  0  0  0
   24.7220  -20.4269   -6.7671 O   0  0  0  0  0  0  0  0  0  0  0  0
   26.1287  -21.9028   -5.7967 O   0  0  0  0  0  0  0  0  0  0  0  0
  1  5  1  0
  2  1  1  0
  2  3  1  0
  3  4  1  0
  5  4  1  0
  5  6  1  1
  6  7  2  0
  9  8  1  6
 10  9  1  0
 10  6  1  0
 11 12  2  0
 11  9  1  0
 13 11  1  0
 14 13  1  0
 14 22  1  0
 14 15  1  1
 16 21  1  0
 16 15  1  0
 17 16  2  0
 18 19  2  0
 18 17  1  0
 19 20  1  0
 20 21  2  0
 22 24  1  0
 23 22  2  0
M  END
$$$$
