PAF.pdb
     RDKit          3D

 24 25  0  0  1  0  0  0  0  0999 V2000
   26.0435  -16.5950  -14.5264 N   0  0  0  0  0  0  0  0  0  0  0  0
   26.4549  -15.2243  -14.6419 C   0  0  0  0  0  0  0  0  0  0  0  0
   26.3223  -14.9216  -16.1398 C   0  0  0  0  0  0  0  0  0  0  0  0
   26.8397  -16.2157  -16.7333 C   0  0  0  0  0  0  0  0  0  0  0  0
   26.2325  -17.2372  -15.7878 C   0  0  1  0  0  0  0  0  0  0  0  0
   27.0646  -18.4315  -15.6408 C   0  0  0  0  0  0  0  0  0  0  0  0
   27.4503  -19.1379  -16.6251 O   0  0  0  0  0  0  0  0  0  0  0  0
   29.5295  -19.7199  -13.4625 C   0  0  0  0  0  0  0  0  0  0  0  0
   28.1953  -20.0590  -14.0889 C   0  0  2  0  0  0  0  0  0  0  0  0
   27.4742  -18.8420  -14.3461 N   0  0  0  0  0  0  0  0  0  0  0  0
   27.4024  -20.9946  -13.2382 C   0  0  0  0  0  0  0  0  0  0  0  0
   27.5513  -22.2312  -13.4010 O   0  0  0  0  0  0  0  0  0  0  0  0
   26.4892  -20.5324  -12.2550 N   0  0  0  0  0  0  0  0  0  0  0  0
   25.4844  -21.3347  -11.6113 C   0  0  1  0  0  0  0  0  0  0  0  0
   25.9760  -22.1007  -10.3946 C   0  0  0  0  0  0  0  0  0  0  0  0
   26.6565  -21.2027   -9.4029 C   0  0  0  0  0  0  0  0  0  0  0  0
   28.0075  -21.1970   -9.1698 C   0  0  0  0  0  0  0  0  0  0  0  0
   28.5212  -20.3200   -8.2073 C   0  0  0  0  0  0  0  0  0  0  0  0
   27.7270  -19.4593   -7.4816 C   0  0  0  0  0  0  0  0  0  0  0  0
   26.3707  -19.4701   -7.7214 C   0  0  0  0  0  0  0  0  0  0  0  0
   25.8561  -20.3248   -8.6615 C   0  0  0  0  0  0  0  0  0  0  0  0
   24.2014  -20.6490  -11.3896 C   0  0  0  0  0  0  0  0  0  0  0  0
   24.0447  -19.4270  -11.6254 O   0  0  0  0  0  0  0  0  0  0  0  0
   23.1072  -21.3502  -10.9035 O   0  0  0  0  0  0  0  0  0  0  0  0
  1  5  1  0
  2  1  1  0
  2  3  1  0
  3  4  1  0
  5  4  1  0
  5  6  1  1
  6  7  2  0
  9  8  1  1
 10  9  1  0
 10  6  1  0
 11 12  2  0
 11  9  1  0
 13 11  1  0
 14 13  1  0
 14 22  1  0
 14 15  1  1
 16 21  1  0
 16 15  1  0
 17 16  2  0
 18 19  2  0
 18 17  1  0
 19 20  1  0
 20 21  2  0
 22 24  1  0
 23 22  2  0
M  END
$$$$
