PAF.pdb
     RDKit          3D

 24 25  0  0  1  0  0  0  0  0999 V2000
   26.9575  -19.9906  -15.0300 N   0  0  0  0  0  0  0  0  0  0  0  0
   26.9107  -19.1054  -16.1595 C   0  0  0  0  0  0  0  0  0  0  0  0
   28.2614  -18.3795  -16.1187 C   0  0  0  0  0  0  0  0  0  0  0  0
   28.4134  -18.1557  -14.6282 C   0  0  0  0  0  0  0  0  0  0  0  0
   27.8843  -19.4683  -14.0774 C   0  0  1  0  0  0  0  0  0  0  0  0
   27.2491  -19.3135  -12.7686 C   0  0  0  0  0  0  0  0  0  0  0  0
   27.7831  -18.6782  -11.8054 O   0  0  0  0  0  0  0  0  0  0  0  0
   23.8566  -20.2625  -11.4647 C   0  0  0  0  0  0  0  0  0  0  0  0
   25.2973  -19.8455  -11.2710 C   0  0  2  0  0  0  0  0  0  0  0  0
   25.9744  -19.8919  -12.5385 N   0  0  0  0  0  0  0  0  0  0  0  0
   25.9886  -20.6878  -10.2509 C   0  0  0  0  0  0  0  0  0  0  0  0
   26.4864  -21.7836  -10.6105 O   0  0  0  0  0  0  0  0  0  0  0  0
   26.1004  -20.2908   -8.8930 N   0  0  0  0  0  0  0  0  0  0  0  0
   26.7217  -21.0616   -7.8501 C   0  0  1  0  0  0  0  0  0  0  0  0
   28.1968  -20.7628   -7.6415 C   0  0  0  0  0  0  0  0  0  0  0  0
   28.4722  -20.2263   -6.2670 C   0  0  0  0  0  0  0  0  0  0  0  0
   29.0061  -20.9669   -5.2442 C   0  0  0  0  0  0  0  0  0  0  0  0
   29.2034  -20.3546   -4.0010 C   0  0  0  0  0  0  0  0  0  0  0  0
   28.8844  -19.0363   -3.7589 C   0  0  0  0  0  0  0  0  0  0  0  0
   28.3489  -18.2983   -4.7911 C   0  0  0  0  0  0  0  0  0  0  0  0
   28.1508  -18.8872   -6.0130 C   0  0  0  0  0  0  0  0  0  0  0  0
   25.9560  -21.1244   -6.5950 C   0  0  0  0  0  0  0  0  0  0  0  0
   25.0181  -20.3311   -6.3413 O   0  0  0  0  0  0  0  0  0  0  0  0
   26.2572  -22.0828   -5.6380 O   0  0  0  0  0  0  0  0  0  0  0  0
  1  5  1  0
  2  1  1  0
  2  3  1  0
  3  4  1  0
  5  4  1  0
  5  6  1  1
  6  7  2  0
  9  8  1  6
 10  9  1  0
 10  6  1  0
 11 12  2  0
 11  9  1  0
 13 11  1  0
 14 13  1  0
 14 22  1  0
 14 15  1  1
 16 21  1  0
 16 15  1  0
 17 16  2  0
 18 19  2  0
 18 17  1  0
 19 20  1  0
 20 21  2  0
 22 24  1  0
 23 22  2  0
M  END
$$$$
