PAF.pdb
     RDKit          3D

 24 25  0  0  1  0  0  0  0  0999 V2000
   27.4978  -21.2211  -13.6659 N   0  0  0  0  0  0  0  0  0  0  0  0
   27.4820  -21.3522  -15.0957 C   0  0  0  0  0  0  0  0  0  0  0  0
   28.1311  -20.0551  -15.5948 C   0  0  0  0  0  0  0  0  0  0  0  0
   27.5236  -19.0517  -14.6362 C   0  0  0  0  0  0  0  0  0  0  0  0
   27.5519  -19.8331  -13.3344 C   0  0  1  0  0  0  0  0  0  0  0  0
   26.4536  -19.4721  -12.4379 C   0  0  0  0  0  0  0  0  0  0  0  0
   26.1782  -18.2719  -12.1210 O   0  0  0  0  0  0  0  0  0  0  0  0
   23.4301  -21.2501  -11.3226 C   0  0  0  0  0  0  0  0  0  0  0  0
   24.5135  -20.2368  -11.0284 C   0  0  2  0  0  0  0  0  0  0  0  0
   25.6415  -20.4938  -11.8821 N   0  0  0  0  0  0  0  0  0  0  0  0
   24.9055  -20.2429   -9.5882 C   0  0  0  0  0  0  0  0  0  0  0  0
   24.1735  -19.6444   -8.7613 O   0  0  0  0  0  0  0  0  0  0  0  0
   26.0747  -20.9012   -9.1260 N   0  0  0  0  0  0  0  0  0  0  0  0
   26.9605  -20.4050   -8.1077 C   0  0  1  0  0  0  0  0  0  0  0  0
   26.7647  -21.0393   -6.7409 C   0  0  0  0  0  0  0  0  0  0  0  0
   27.7092  -20.4754   -5.7197 C   0  0  0  0  0  0  0  0  0  0  0  0
   28.7928  -21.1493   -5.2181 C   0  0  0  0  0  0  0  0  0  0  0  0
   29.5922  -20.5191   -4.2573 C   0  0  0  0  0  0  0  0  0  0  0  0
   29.3379  -19.2475   -3.7920 C   0  0  0  0  0  0  0  0  0  0  0  0
   28.2481  -18.5763   -4.3005 C   0  0  0  0  0  0  0  0  0  0  0  0
   27.4577  -19.1833   -5.2418 C   0  0  0  0  0  0  0  0  0  0  0  0
   28.3724  -20.3167   -8.5130 C   0  0  0  0  0  0  0  0  0  0  0  0
   28.9298  -21.2065   -9.1993 O   0  0  0  0  0  0  0  0  0  0  0  0
   29.1414  -19.2240   -8.1392 O   0  0  0  0  0  0  0  0  0  0  0  0
  1  5  1  0
  2  1  1  0
  2  3  1  0
  3  4  1  0
  5  4  1  0
  5  6  1  1
  6  7  2  0
  9  8  1  1
 10  9  1  0
 10  6  1  0
 11 12  2  0
 11  9  1  0
 13 11  1  0
 14 13  1  0
 14 22  1  0
 14 15  1  1
 16 21  1  0
 16 15  1  0
 17 16  2  0
 18 19  2  0
 18 17  1  0
 19 20  1  0
 20 21  2  0
 22 24  1  0
 23 22  2  0
M  END
$$$$
