PAF.pdb
     RDKit          3D

 24 25  0  0  1  0  0  0  0  0999 V2000
   27.7010  -17.6373  -15.6627 N   0  0  0  0  0  0  0  0  0  0  0  0
   28.4763  -17.1748  -16.7793 C   0  0  0  0  0  0  0  0  0  0  0  0
   27.4587  -16.4360  -17.6576 C   0  0  0  0  0  0  0  0  0  0  0  0
   26.2618  -17.3563  -17.5330 C   0  0  0  0  0  0  0  0  0  0  0  0
   26.3345  -17.7374  -16.0648 C   0  0  1  0  0  0  0  0  0  0  0  0
   25.8162  -19.0808  -15.8064 C   0  0  0  0  0  0  0  0  0  0  0  0
   24.6353  -19.4425  -16.1087 O   0  0  0  0  0  0  0  0  0  0  0  0
   26.8084  -22.3822  -15.7281 C   0  0  0  0  0  0  0  0  0  0  0  0
   26.2046  -21.3540  -14.7978 C   0  0  2  0  0  0  0  0  0  0  0  0
   26.6534  -20.0453  -15.1891 N   0  0  0  0  0  0  0  0  0  0  0  0
   26.5280  -21.6380  -13.3686 C   0  0  0  0  0  0  0  0  0  0  0  0
   27.6397  -22.1535  -13.0927 O   0  0  0  0  0  0  0  0  0  0  0  0
   25.6222  -21.3450  -12.3162 N   0  0  0  0  0  0  0  0  0  0  0  0
   25.9773  -21.1984  -10.9305 C   0  0  1  0  0  0  0  0  0  0  0  0
   27.2389  -20.3870  -10.6875 C   0  0  0  0  0  0  0  0  0  0  0  0
   27.5656  -20.2810   -9.2264 C   0  0  0  0  0  0  0  0  0  0  0  0
   28.2839  -21.2171   -8.5281 C   0  0  0  0  0  0  0  0  0  0  0  0
   28.5115  -21.0102   -7.1625 C   0  0  0  0  0  0  0  0  0  0  0  0
   28.0448  -19.9040   -6.4869 C   0  0  0  0  0  0  0  0  0  0  0  0
   27.3244  -18.9675   -7.1947 C   0  0  0  0  0  0  0  0  0  0  0  0
   27.0949  -19.1593   -8.5325 C   0  0  0  0  0  0  0  0  0  0  0  0
   24.8618  -20.8205  -10.0482 C   0  0  0  0  0  0  0  0  0  0  0  0
   24.0076  -19.9629  -10.3773 O   0  0  0  0  0  0  0  0  0  0  0  0
   24.7217  -21.4150   -8.8024 O   0  0  0  0  0  0  0  0  0  0  0  0
  1  5  1  0
  2  1  1  0
  2  3  1  0
  3  4  1  0
  5  4  1  0
  5  6  1  6
  6  7  2  0
  9  8  1  6
 10  9  1  0
 10  6  1  0
 11 12  2  0
 11  9  1  0
 13 11  1  0
 14 13  1  0
 14 22  1  0
 14 15  1  6
 16 21  1  0
 16 15  1  0
 17 16  2  0
 18 19  2  0
 18 17  1  0
 19 20  1  0
 20 21  2  0
 22 24  1  0
 23 22  2  0
M  END
$$$$
