PAF.pdb
     RDKit          3D

 24 25  0  0  1  0  0  0  0  0999 V2000
   27.7294  -20.0329  -14.9883 N   0  0  0  0  0  0  0  0  0  0  0  0
   27.4440  -19.4716  -16.2787 C   0  0  0  0  0  0  0  0  0  0  0  0
   28.2277  -18.1531  -16.2918 C   0  0  0  0  0  0  0  0  0  0  0  0
   27.9916  -17.6735  -14.8743 C   0  0  0  0  0  0  0  0  0  0  0  0
   28.0972  -18.9762  -14.1009 C   0  0  1  0  0  0  0  0  0  0  0  0
   27.2559  -18.9892  -12.9041 C   0  0  0  0  0  0  0  0  0  0  0  0
   27.2671  -18.0620  -12.0341 O   0  0  0  0  0  0  0  0  0  0  0  0
   24.2554  -20.9159  -11.9206 C   0  0  0  0  0  0  0  0  0  0  0  0
   25.5228  -20.1896  -11.5291 C   0  0  2  0  0  0  0  0  0  0  0  0
   26.3761  -20.0794  -12.6810 N   0  0  0  0  0  0  0  0  0  0  0  0
   26.2213  -20.8610  -10.3937 C   0  0  0  0  0  0  0  0  0  0  0  0
   27.0897  -21.7318  -10.6500 O   0  0  0  0  0  0  0  0  0  0  0  0
   25.9362  -20.5475   -9.0393 N   0  0  0  0  0  0  0  0  0  0  0  0
   26.6110  -21.1033   -7.8976 C   0  0  1  0  0  0  0  0  0  0  0  0
   28.0716  -20.7029   -7.7744 C   0  0  0  0  0  0  0  0  0  0  0  0
   28.4198  -20.2710   -6.3798 C   0  0  0  0  0  0  0  0  0  0  0  0
   28.9654  -21.0973   -5.4315 C   0  0  0  0  0  0  0  0  0  0  0  0
   29.2333  -20.5781   -4.1595 C   0  0  0  0  0  0  0  0  0  0  0  0
   28.9726  -19.2693   -3.8170 C   0  0  0  0  0  0  0  0  0  0  0  0
   28.4249  -18.4449   -4.7748 C   0  0  0  0  0  0  0  0  0  0  0  0
   28.1579  -18.9421   -6.0240 C   0  0  0  0  0  0  0  0  0  0  0  0
   25.8674  -20.9937   -6.6325 C   0  0  0  0  0  0  0  0  0  0  0  0
   24.9616  -20.1435   -6.4586 O   0  0  0  0  0  0  0  0  0  0  0  0
   26.1540  -21.8456   -5.5755 O   0  0  0  0  0  0  0  0  0  0  0  0
  1  5  1  0
  2  1  1  0
  2  3  1  0
  3  4  1  0
  5  4  1  0
  5  6  1  1
  6  7  2  0
  9  8  1  6
 10  9  1  0
 10  6  1  0
 11 12  2  0
 11  9  1  0
 13 11  1  0
 14 13  1  0
 14 22  1  0
 14 15  1  1
 16 21  1  0
 16 15  1  0
 17 16  2  0
 18 19  2  0
 18 17  1  0
 19 20  1  0
 20 21  2  0
 22 24  1  0
 23 22  2  0
M  END
$$$$
