PAF.pdb
     RDKit          3D

 24 25  0  0  1  0  0  0  0  0999 V2000
   43.5205  -10.5062   -6.5895 N   0  0  0  0  0  0  0  0  0  0  0  0
   44.6586  -11.2500   -6.1276 C   0  0  0  0  0  0  0  0  0  0  0  0
   45.7355  -10.1806   -5.9047 C   0  0  0  0  0  0  0  0  0  0  0  0
   45.4947   -9.2872   -7.1041 C   0  0  0  0  0  0  0  0  0  0  0  0
   43.9775   -9.2839   -7.1694 C   0  0  1  0  0  0  0  0  0  0  0  0
   43.4739   -9.1392   -8.5354 C   0  0  0  0  0  0  0  0  0  0  0  0
   43.7374   -8.1377   -9.2731 O   0  0  0  0  0  0  0  0  0  0  0  0
   42.0156  -11.4747  -10.9911 C   0  0  0  0  0  0  0  0  0  0  0  0
   42.0740  -10.0829  -10.4023 C   0  0  2  0  0  0  0  0  0  0  0  0
   42.6488  -10.1532   -9.0863 N   0  0  0  0  0  0  0  0  0  0  0  0
   40.7313   -9.4316  -10.3782 C   0  0  0  0  0  0  0  0  0  0  0  0
   39.7103  -10.1488  -10.5233 O   0  0  0  0  0  0  0  0  0  0  0  0
   40.5728   -8.0330  -10.1970 N   0  0  0  0  0  0  0  0  0  0  0  0
   39.3140   -7.3452  -10.0957 C   0  0  1  0  0  0  0  0  0  0  0  0
   38.8847   -7.0265   -8.6734 C   0  0  0  0  0  0  0  0  0  0  0  0
   38.8190   -8.2576   -7.8174 C   0  0  0  0  0  0  0  0  0  0  0  0
   37.7591   -9.1271   -7.7993 C   0  0  0  0  0  0  0  0  0  0  0  0
   37.8115  -10.2351   -6.9455 C   0  0  0  0  0  0  0  0  0  0  0  0
   38.8844  -10.4918   -6.1201 C   0  0  0  0  0  0  0  0  0  0  0  0
   39.9457   -9.6143   -6.1438 C   0  0  0  0  0  0  0  0  0  0  0  0
   39.9057   -8.5255   -6.9757 C   0  0  0  0  0  0  0  0  0  0  0  0
   39.1591   -6.2106  -11.0199 C   0  0  0  0  0  0  0  0  0  0  0  0
   40.1086   -5.7789  -11.7168 O   0  0  0  0  0  0  0  0  0  0  0  0
   37.9329   -5.5741  -11.1483 O   0  0  0  0  0  0  0  0  0  0  0  0
  1  5  1  0
  2  1  1  0
  2  3  1  0
  3  4  1  0
  5  4  1  0
  5  6  1  6
  6  7  2  0
  9  8  1  1
 10  9  1  0
 10  6  1  0
 11 12  2  0
 11  9  1  0
 13 11  1  0
 14 13  1  0
 14 22  1  0
 14 15  1  1
 16 21  1  0
 16 15  1  0
 17 16  2  0
 18 19  2  0
 18 17  1  0
 19 20  1  0
 20 21  2  0
 22 24  1  0
 23 22  2  0
M  END
$$$$
