CGI.pdb
     RDKit          3D

 19 18  0  0  1  0  0  0  0  0999 V2000
   22.0303  -19.2915  -15.6383 N   0  0  0  0  0  0  0  0  0  0  0  0
   20.9599  -20.1417  -15.1703 C   0  0  1  0  0  0  0  0  0  0  0  0
   20.6594  -21.2353  -16.1958 C   0  0  0  0  0  0  0  0  0  0  0  0
   21.8827  -21.2728  -17.5030 S   0  0  0  0  0  0  0  0  0  0  0  0
   21.3619  -20.7411  -13.8737 C   0  0  0  0  0  0  0  0  0  0  0  0
   20.8550  -21.8212  -13.4723 O   0  0  0  0  0  0  0  0  0  0  0  0
   22.3373  -20.0985  -13.0534 N   0  0  0  0  0  0  0  0  0  0  0  0
   22.7523  -20.6602  -11.7834 C   0  0  0  0  0  0  0  0  0  0  0  0
   24.2101  -20.3935  -11.5854 C   0  0  0  0  0  0  0  0  0  0  0  0
   24.8749  -19.7074  -12.4159 O   0  0  0  0  0  0  0  0  0  0  0  0
   27.9157  -18.9995   -6.9635 C   0  0  0  0  0  0  0  0  0  0  0  0
   27.7690  -19.5895   -8.3060 C   0  0  0  0  0  0  0  0  0  0  0  0
   26.4237  -20.0783   -8.7216 C   0  0  2  0  0  0  0  0  0  0  0  0
   25.8915  -21.0270   -7.6746 C   0  0  0  0  0  0  0  0  0  0  0  0
   26.2846  -20.4529  -10.1185 C   0  0  2  0  0  0  0  0  0  0  0  0
   24.9367  -20.8731  -10.4875 N   0  0  0  0  0  0  0  0  0  0  0  0
   27.2090  -21.4183  -10.7064 C   0  0  0  0  0  0  0  0  0  0  0  0
   26.9301  -22.7032  -11.1315 O   0  0  0  0  0  0  0  0  0  0  0  0
   28.4327  -21.0745  -10.8595 O   0  0  0  0  0  0  0  0  0  0  0  0
  2  1  1  6
  3  2  1  0
  3  4  1  0
  5  6  2  0
  5  2  1  0
  7  5  1  0
  8  7  1  0
  9  8  1  0
  9 10  2  0
 11 12  1  0
 12 13  1  0
 13 14  1  1
 15 13  1  0
 15 16  1  1
 16  9  1  0
 17 15  1  0
 18 17  1  0
 19 17  2  0
M  END
$$$$
