CGI.pdb
     RDKit          3D

 19 18  0  0  1  0  0  0  0  0999 V2000
   26.9223  -17.3235  -17.7202 N   0  0  0  0  0  0  0  0  0  0  0  0
   27.3724  -18.3620  -16.8220 C   0  0  1  0  0  0  0  0  0  0  0  0
   28.8502  -18.6724  -17.0625 C   0  0  0  0  0  0  0  0  0  0  0  0
   29.2665  -20.3417  -16.5655 S   0  0  0  0  0  0  0  0  0  0  0  0
   27.1568  -17.9085  -15.4257 C   0  0  0  0  0  0  0  0  0  0  0  0
   27.1833  -16.6855  -15.1284 O   0  0  0  0  0  0  0  0  0  0  0  0
   26.9139  -18.8580  -14.3881 N   0  0  0  0  0  0  0  0  0  0  0  0
   26.1326  -18.5197  -13.2152 C   0  0  0  0  0  0  0  0  0  0  0  0
   26.0328  -19.7224  -12.3324 C   0  0  0  0  0  0  0  0  0  0  0  0
   25.9228  -20.8880  -12.8139 O   0  0  0  0  0  0  0  0  0  0  0  0
   27.5071  -19.4664   -6.9618 C   0  0  0  0  0  0  0  0  0  0  0  0
   27.2203  -19.9574   -8.3214 C   0  0  0  0  0  0  0  0  0  0  0  0
   25.8398  -20.4281   -8.6280 C   0  0  2  0  0  0  0  0  0  0  0  0
   25.4325  -21.4733   -7.6175 C   0  0  0  0  0  0  0  0  0  0  0  0
   25.5481  -20.6802  -10.0287 C   0  0  2  0  0  0  0  0  0  0  0  0
   26.0529  -19.6521  -10.9331 N   0  0  0  0  0  0  0  0  0  0  0  0
   24.1801  -20.9790  -10.4428 C   0  0  0  0  0  0  0  0  0  0  0  0
   23.5610  -22.2136  -10.4833 O   0  0  0  0  0  0  0  0  0  0  0  0
   23.4342  -20.0110  -10.8247 O   0  0  0  0  0  0  0  0  0  0  0  0
  2  1  1  6
  3  2  1  0
  3  4  1  0
  5  6  2  0
  5  2  1  0
  7  5  1  0
  8  7  1  0
  9  8  1  0
  9 10  2  0
 11 12  1  0
 12 13  1  0
 13 14  1  1
 15 13  1  0
 15 16  1  6
 16  9  1  0
 17 15  1  0
 18 17  1  0
 19 17  2  0
M  END
$$$$
