CGI.pdb
     RDKit          3D

 19 18  0  0  1  0  0  0  0  0999 V2000
   25.1896  -14.7582  -16.7585 N   0  0  0  0  0  0  0  0  0  0  0  0
   25.8723  -13.8582  -15.8576 C   0  0  1  0  0  0  0  0  0  0  0  0
   27.2856  -14.3642  -15.5668 C   0  0  0  0  0  0  0  0  0  0  0  0
   27.2681  -15.8088  -14.5087 S   0  0  0  0  0  0  0  0  0  0  0  0
   25.9197  -12.5110  -16.4777 C   0  0  0  0  0  0  0  0  0  0  0  0
   26.3432  -12.3510  -17.6524 O   0  0  0  0  0  0  0  0  0  0  0  0
   25.4827  -11.3650  -15.7478 N   0  0  0  0  0  0  0  0  0  0  0  0
   25.5116  -10.0371  -16.3279 C   0  0  0  0  0  0  0  0  0  0  0  0
   24.1192   -9.6355  -16.6964 C   0  0  0  0  0  0  0  0  0  0  0  0
   23.5324  -10.1329  -17.7018 O   0  0  0  0  0  0  0  0  0  0  0  0
   20.0521  -10.8456  -13.7814 C   0  0  0  0  0  0  0  0  0  0  0  0
   20.9701   -9.7925  -14.2508 C   0  0  0  0  0  0  0  0  0  0  0  0
   21.1098   -9.5776  -15.7190 C   0  0  2  0  0  0  0  0  0  0  0  0
   21.3278  -10.9073  -16.4000 C   0  0  0  0  0  0  0  0  0  0  0  0
   21.9415   -8.4571  -16.1234 C   0  0  2  0  0  0  0  0  0  0  0  0
   23.3730   -8.6971  -15.9713 N   0  0  0  0  0  0  0  0  0  0  0  0
   21.6729   -7.1244  -15.5908 C   0  0  0  0  0  0  0  0  0  0  0  0
   20.5516   -6.3435  -15.7963 O   0  0  0  0  0  0  0  0  0  0  0  0
   22.5573   -6.5774  -14.8439 O   0  0  0  0  0  0  0  0  0  0  0  0
  2  1  1  6
  3  2  1  0
  3  4  1  0
  5  6  2  0
  5  2  1  0
  7  5  1  0
  8  7  1  0
  9  8  1  0
  9 10  2  0
 11 12  1  0
 12 13  1  0
 13 14  1  6
 15 13  1  0
 15 16  1  1
 16  9  1  0
 17 15  1  0
 18 17  1  0
 19 17  2  0
M  END
$$$$
