CGI.pdb
     RDKit          3D

 19 18  0  0  1  0  0  0  0  0999 V2000
   22.0148  -12.4263  -20.4603 N   0  0  0  0  0  0  0  0  0  0  0  0
   22.2147  -13.5746  -19.6063 C   0  0  1  0  0  0  0  0  0  0  0  0
   23.6839  -13.9983  -19.6167 C   0  0  0  0  0  0  0  0  0  0  0  0
   24.3717  -13.9658  -21.2698 S   0  0  0  0  0  0  0  0  0  0  0  0
   21.7845  -13.2235  -18.2302 C   0  0  0  0  0  0  0  0  0  0  0  0
   21.8551  -14.0618  -17.2938 O   0  0  0  0  0  0  0  0  0  0  0  0
   21.2797  -11.9199  -17.9427 N   0  0  0  0  0  0  0  0  0  0  0  0
   20.7772  -11.5716  -16.6285 C   0  0  0  0  0  0  0  0  0  0  0  0
   21.7195  -10.6040  -15.9869 C   0  0  0  0  0  0  0  0  0  0  0  0
   21.4951  -10.1281  -14.8356 O   0  0  0  0  0  0  0  0  0  0  0  0
   26.7709  -11.6996  -15.3682 C   0  0  0  0  0  0  0  0  0  0  0  0
   25.4359  -11.0781  -15.3092 C   0  0  0  0  0  0  0  0  0  0  0  0
   25.2324   -9.7706  -15.9952 C   0  0  2  0  0  0  0  0  0  0  0  0
   26.3495   -8.8284  -15.6159 C   0  0  0  0  0  0  0  0  0  0  0  0
   23.8738   -9.2558  -15.9969 C   0  0  2  0  0  0  0  0  0  0  0  0
   22.8989  -10.1594  -16.5991 N   0  0  0  0  0  0  0  0  0  0  0  0
   23.6039   -7.9220  -16.5264 C   0  0  0  0  0  0  0  0  0  0  0  0
   23.0671   -7.5950  -17.7569 O   0  0  0  0  0  0  0  0  0  0  0  0
   23.8877   -6.9085  -15.7974 O   0  0  0  0  0  0  0  0  0  0  0  0
  2  1  1  6
  3  2  1  0
  3  4  1  0
  5  6  2  0
  5  2  1  0
  7  5  1  0
  8  7  1  0
  9  8  1  0
  9 10  2  0
 11 12  1  0
 12 13  1  0
 13 14  1  1
 15 13  1  0
 15 16  1  6
 16  9  1  0
 17 15  1  0
 18 17  1  0
 19 17  2  0
M  END
$$$$
