CGI.pdb
     RDKit          3D

 19 18  0  0  1  0  0  0  0  0999 V2000
   25.4201  -18.0654  -14.2331 N   0  0  0  0  0  0  0  0  0  0  0  0
   24.7254  -19.2850  -14.5764 C   0  0  1  0  0  0  0  0  0  0  0  0
   24.5524  -19.3923  -16.0919 C   0  0  0  0  0  0  0  0  0  0  0  0
   23.9237  -17.8710  -16.7969 S   0  0  0  0  0  0  0  0  0  0  0  0
   25.5046  -20.4370  -14.0592 C   0  0  0  0  0  0  0  0  0  0  0  0
   25.0966  -21.6181  -14.2114 O   0  0  0  0  0  0  0  0  0  0  0  0
   26.7391  -20.2242  -13.3752 N   0  0  0  0  0  0  0  0  0  0  0  0
   27.5154  -21.3277  -12.8456 C   0  0  0  0  0  0  0  0  0  0  0  0
   27.1159  -21.5673  -11.4248 C   0  0  0  0  0  0  0  0  0  0  0  0
   27.3720  -22.6615  -10.8421 O   0  0  0  0  0  0  0  0  0  0  0  0
   27.6990  -20.1698   -6.0165 C   0  0  0  0  0  0  0  0  0  0  0  0
   26.5117  -20.1050   -6.8873 C   0  0  0  0  0  0  0  0  0  0  0  0
   26.7135  -19.8547   -8.3427 C   0  0  2  0  0  0  0  0  0  0  0  0
   26.5684  -18.3778   -8.6204 C   0  0  0  0  0  0  0  0  0  0  0  0
   26.0636  -20.7881   -9.2466 C   0  0  2  0  0  0  0  0  0  0  0  0
   26.4413  -20.6178  -10.6458 N   0  0  0  0  0  0  0  0  0  0  0  0
   24.6118  -20.9406   -9.2116 C   0  0  0  0  0  0  0  0  0  0  0  0
   23.7199  -20.7713  -10.2534 O   0  0  0  0  0  0  0  0  0  0  0  0
   24.0600  -21.2645   -8.1027 O   0  0  0  0  0  0  0  0  0  0  0  0
  2  1  1  6
  3  2  1  0
  3  4  1  0
  5  6  2  0
  5  2  1  0
  7  5  1  0
  8  7  1  0
  9  8  1  0
  9 10  2  0
 11 12  1  0
 12 13  1  0
 13 14  1  6
 15 13  1  0
 15 16  1  6
 16  9  1  0
 17 15  1  0
 18 17  1  0
 19 17  2  0
M  END
$$$$
