CGI.pdb
     RDKit          3D

 19 18  0  0  1  0  0  0  0  0999 V2000
   16.4835  -11.9025  -15.3386 N   0  0  0  0  0  0  0  0  0  0  0  0
   15.7466  -11.3208  -16.4369 C   0  0  1  0  0  0  0  0  0  0  0  0
   14.3253  -10.9665  -15.9981 C   0  0  0  0  0  0  0  0  0  0  0  0
   13.6350  -12.2147  -14.9155 S   0  0  0  0  0  0  0  0  0  0  0  0
   16.4649  -10.1083  -16.9014 C   0  0  0  0  0  0  0  0  0  0  0  0
   16.0450   -9.4402  -17.8822 O   0  0  0  0  0  0  0  0  0  0  0  0
   17.6529   -9.6755  -16.2392 N   0  0  0  0  0  0  0  0  0  0  0  0
   18.3686   -8.4876  -16.6602 C   0  0  0  0  0  0  0  0  0  0  0  0
   19.1042   -7.9206  -15.4884 C   0  0  0  0  0  0  0  0  0  0  0  0
   18.6348   -7.9944  -14.3150 O   0  0  0  0  0  0  0  0  0  0  0  0
   23.0640  -10.2265  -13.9810 C   0  0  0  0  0  0  0  0  0  0  0  0
   21.9746   -9.2597  -14.2055 C   0  0  0  0  0  0  0  0  0  0  0  0
   22.3141   -7.8094  -14.2569 C   0  0  2  0  0  0  0  0  0  0  0  0
   23.2875   -7.4847  -13.1494 C   0  0  0  0  0  0  0  0  0  0  0  0
   21.2019   -6.9013  -14.4785 C   0  0  2  0  0  0  0  0  0  0  0  0
   20.3442   -7.2774  -15.5977 N   0  0  0  0  0  0  0  0  0  0  0  0
   21.4480   -5.4666  -14.5923 C   0  0  0  0  0  0  0  0  0  0  0  0
   21.6251   -4.5565  -13.5677 O   0  0  0  0  0  0  0  0  0  0  0  0
   21.5100   -4.9502  -15.7623 O   0  0  0  0  0  0  0  0  0  0  0  0
  2  1  1  1
  3  2  1  0
  3  4  1  0
  5  6  2  0
  5  2  1  0
  7  5  1  0
  8  7  1  0
  9  8  1  0
  9 10  2  0
 11 12  1  0
 12 13  1  0
 13 14  1  1
 15 13  1  0
 15 16  1  6
 16  9  1  0
 17 15  1  0
 18 17  1  0
 19 17  2  0
M  END
$$$$
