CGI.pdb
     RDKit          3D

 19 18  0  0  1  0  0  0  0  0999 V2000
   27.1308  -21.8435  -11.8657 N   0  0  0  0  0  0  0  0  0  0  0  0
   26.1120  -21.2302  -12.6866 C   0  0  1  0  0  0  0  0  0  0  0  0
   24.7218  -21.6846  -12.2405 C   0  0  0  0  0  0  0  0  0  0  0  0
   24.4001  -23.3847  -12.7018 S   0  0  0  0  0  0  0  0  0  0  0  0
   26.2373  -19.7558  -12.5764 C   0  0  0  0  0  0  0  0  0  0  0  0
   26.4524  -19.2032  -11.4660 O   0  0  0  0  0  0  0  0  0  0  0  0
   26.1153  -18.9327  -13.7361 N   0  0  0  0  0  0  0  0  0  0  0  0
   26.1730  -17.4869  -13.6521 C   0  0  0  0  0  0  0  0  0  0  0  0
   26.1208  -16.9159  -15.0331 C   0  0  0  0  0  0  0  0  0  0  0  0
   26.1543  -17.6594  -16.0571 O   0  0  0  0  0  0  0  0  0  0  0  0
   22.3043  -14.4897  -15.6948 C   0  0  0  0  0  0  0  0  0  0  0  0
   23.3731  -15.0847  -16.5168 C   0  0  0  0  0  0  0  0  0  0  0  0
   24.5891  -14.2694  -16.7960 C   0  0  2  0  0  0  0  0  0  0  0  0
   24.3788  -13.4767  -18.0636 C   0  0  0  0  0  0  0  0  0  0  0  0
   25.8639  -14.9418  -16.6129 C   0  0  2  0  0  0  0  0  0  0  0  0
   26.0327  -15.5419  -15.2934 N   0  0  0  0  0  0  0  0  0  0  0  0
   27.1058  -14.2402  -16.9250 C   0  0  0  0  0  0  0  0  0  0  0  0
   27.8140  -14.2648  -18.1113 O   0  0  0  0  0  0  0  0  0  0  0  0
   27.6364  -13.5085  -16.0183 O   0  0  0  0  0  0  0  0  0  0  0  0
  2  1  1  1
  3  2  1  0
  3  4  1  0
  5  6  2  0
  5  2  1  0
  7  5  1  0
  8  7  1  0
  9  8  1  0
  9 10  2  0
 11 12  1  0
 12 13  1  0
 13 14  1  6
 15 13  1  0
 15 16  1  1
 16  9  1  0
 17 15  1  0
 18 17  1  0
 19 17  2  0
M  END
$$$$
