CGI.pdb
     RDKit          3D

 19 18  0  0  1  0  0  0  0  0999 V2000
   25.3615  -23.0801  -13.8222 N   0  0  0  0  0  0  0  0  0  0  0  0
   24.5420  -21.9133  -14.0557 C   0  0  1  0  0  0  0  0  0  0  0  0
   23.0637  -22.2510  -13.8589 C   0  0  0  0  0  0  0  0  0  0  0  0
   22.7699  -24.0156  -13.9417 S   0  0  0  0  0  0  0  0  0  0  0  0
   24.9604  -20.8434  -13.1165 C   0  0  0  0  0  0  0  0  0  0  0  0
   24.2815  -19.7914  -12.9859 O   0  0  0  0  0  0  0  0  0  0  0  0
   26.1485  -20.9899  -12.3392 N   0  0  0  0  0  0  0  0  0  0  0  0
   26.5314  -20.0092  -11.3431 C   0  0  0  0  0  0  0  0  0  0  0  0
   26.7024  -20.6942  -10.0250 C   0  0  0  0  0  0  0  0  0  0  0  0
   27.0722  -21.9026   -9.9516 O   0  0  0  0  0  0  0  0  0  0  0  0
   29.0263  -19.8010   -4.5207 C   0  0  0  0  0  0  0  0  0  0  0  0
   28.0264  -20.4897   -5.3561 C   0  0  0  0  0  0  0  0  0  0  0  0
   27.7208  -19.9284   -6.7026 C   0  0  2  0  0  0  0  0  0  0  0  0
   27.5923  -18.4275   -6.6007 C   0  0  0  0  0  0  0  0  0  0  0  0
   26.7302  -20.6485   -7.4841 C   0  0  2  0  0  0  0  0  0  0  0  0
   26.4708  -20.0632   -8.7955 N   0  0  0  0  0  0  0  0  0  0  0  0
   25.4330  -20.9677   -6.8947 C   0  0  0  0  0  0  0  0  0  0  0  0
   24.1848  -20.5730   -7.3370 O   0  0  0  0  0  0  0  0  0  0  0  0
   25.4051  -21.6931   -5.8401 O   0  0  0  0  0  0  0  0  0  0  0  0
  2  1  1  1
  3  2  1  0
  3  4  1  0
  5  6  2  0
  5  2  1  0
  7  5  1  0
  8  7  1  0
  9  8  1  0
  9 10  2  0
 11 12  1  0
 12 13  1  0
 13 14  1  1
 15 13  1  0
 15 16  1  6
 16  9  1  0
 17 15  1  0
 18 17  1  0
 19 17  2  0
M  END
$$$$
