CGI.pdb
     RDKit          3D

 19 18  0  0  1  0  0  0  0  0999 V2000
   33.4078  -27.7999  -22.2490 N   0  0  0  0  0  0  0  0  0  0  0  0
   32.4107  -27.2590  -23.1440 C   0  0  1  0  0  0  0  0  0  0  0  0
   31.2910  -28.2750  -23.3726 C   0  0  0  0  0  0  0  0  0  0  0  0
   31.9073  -29.7865  -24.1090 S   0  0  0  0  0  0  0  0  0  0  0  0
   31.8679  -26.0114  -22.5518 C   0  0  0  0  0  0  0  0  0  0  0  0
   32.4342  -24.9030  -22.7398 O   0  0  0  0  0  0  0  0  0  0  0  0
   30.6856  -26.0470  -21.7529 N   0  0  0  0  0  0  0  0  0  0  0  0
   30.1429  -24.8490  -21.1440 C   0  0  0  0  0  0  0  0  0  0  0  0
   28.8652  -25.1922  -20.4471 C   0  0  0  0  0  0  0  0  0  0  0  0
   28.2419  -26.2644  -20.7006 O   0  0  0  0  0  0  0  0  0  0  0  0
   28.6454  -27.2360  -16.1859 C   0  0  0  0  0  0  0  0  0  0  0  0
   28.1974  -26.6221  -17.4485 C   0  0  0  0  0  0  0  0  0  0  0  0
   27.4631  -25.3266  -17.3847 C   0  0  2  0  0  0  0  0  0  0  0  0
   26.3902  -25.4122  -16.3259 C   0  0  0  0  0  0  0  0  0  0  0  0
   27.1180  -24.7254  -18.6615 C   0  0  2  0  0  0  0  0  0  0  0  0
   28.2727  -24.3696  -19.4798 N   0  0  0  0  0  0  0  0  0  0  0  0
   26.1982  -23.5922  -18.7050 C   0  0  0  0  0  0  0  0  0  0  0  0
   26.5154  -22.2506  -18.7991 O   0  0  0  0  0  0  0  0  0  0  0  0
   24.9407  -23.8259  -18.6474 O   0  0  0  0  0  0  0  0  0  0  0  0
  2  1  1  1
  3  2  1  0
  3  4  1  0
  5  6  2  0
  5  2  1  0
  7  5  1  0
  8  7  1  0
  9  8  1  0
  9 10  2  0
 11 12  1  0
 12 13  1  0
 13 14  1  1
 15 13  1  0
 15 16  1  1
 16  9  1  0
 17 15  1  0
 18 17  1  0
 19 17  2  0
M  END
$$$$
