CGI.pdb
     RDKit          3D

 19 18  0  0  1  0  0  0  0  0999 V2000
   29.5858  -24.5700  -16.3400 N   0  0  0  0  0  0  0  0  0  0  0  0
   28.6088  -23.5134  -16.4698 C   0  0  1  0  0  0  0  0  0  0  0  0
   28.5949  -22.9716  -17.8996 C   0  0  0  0  0  0  0  0  0  0  0  0
   27.1956  -21.8915  -18.1858 S   0  0  0  0  0  0  0  0  0  0  0  0
   27.2752  -24.0523  -16.1050 C   0  0  0  0  0  0  0  0  0  0  0  0
   26.9133  -25.1986  -16.4788 O   0  0  0  0  0  0  0  0  0  0  0  0
   26.3734  -23.2747  -15.3182 N   0  0  0  0  0  0  0  0  0  0  0  0
   25.0562  -23.7648  -14.9638 C   0  0  0  0  0  0  0  0  0  0  0  0
   24.3691  -22.7449  -14.1132 C   0  0  0  0  0  0  0  0  0  0  0  0
   25.0154  -22.0126  -13.3079 O   0  0  0  0  0  0  0  0  0  0  0  0
   24.1477  -19.0192  -16.3768 C   0  0  0  0  0  0  0  0  0  0  0  0
   23.9079  -20.0140  -15.3163 C   0  0  0  0  0  0  0  0  0  0  0  0
   22.5062  -20.2441  -14.8648 C   0  0  2  0  0  0  0  0  0  0  0  0
   21.8178  -18.9139  -14.6754 C   0  0  0  0  0  0  0  0  0  0  0  0
   22.3239  -21.2606  -13.8430 C   0  0  2  0  0  0  0  0  0  0  0  0
   22.9853  -22.5265  -14.1423 N   0  0  0  0  0  0  0  0  0  0  0  0
   20.9801  -21.5821  -13.3708 C   0  0  0  0  0  0  0  0  0  0  0  0
   20.2709  -20.9647  -12.3582 O   0  0  0  0  0  0  0  0  0  0  0  0
   20.3518  -22.5462  -13.9320 O   0  0  0  0  0  0  0  0  0  0  0  0
  2  1  1  6
  3  2  1  0
  3  4  1  0
  5  6  2  0
  5  2  1  0
  7  5  1  0
  8  7  1  0
  9  8  1  0
  9 10  2  0
 11 12  1  0
 12 13  1  0
 13 14  1  1
 15 13  1  0
 15 16  1  6
 16  9  1  0
 17 15  1  0
 18 17  1  0
 19 17  2  0
M  END
$$$$
