CGI.pdb
     RDKit          3D

 19 18  0  0  1  0  0  0  0  0999 V2000
   27.8021  -23.1741  -17.5416 N   0  0  0  0  0  0  0  0  0  0  0  0
   28.8637  -22.2171  -17.3300 C   0  0  1  0  0  0  0  0  0  0  0  0
   29.2454  -21.5429  -18.6482 C   0  0  0  0  0  0  0  0  0  0  0  0
   29.2696  -22.7092  -20.0069 S   0  0  0  0  0  0  0  0  0  0  0  0
   28.4039  -21.2081  -16.3439 C   0  0  0  0  0  0  0  0  0  0  0  0
   29.1857  -20.3236  -15.9066 O   0  0  0  0  0  0  0  0  0  0  0  0
   27.0573  -21.2231  -15.8709 N   0  0  0  0  0  0  0  0  0  0  0  0
   26.5690  -20.2304  -14.9345 C   0  0  0  0  0  0  0  0  0  0  0  0
   26.0566  -20.9233  -13.7125 C   0  0  0  0  0  0  0  0  0  0  0  0
   26.0041  -22.1861  -13.6423 O   0  0  0  0  0  0  0  0  0  0  0  0
   26.2692  -20.4915   -7.6387 C   0  0  0  0  0  0  0  0  0  0  0  0
   25.5687  -20.9645   -8.8460 C   0  0  0  0  0  0  0  0  0  0  0  0
   25.9438  -20.3710  -10.1607 C   0  0  2  0  0  0  0  0  0  0  0  0
   26.1039  -18.8776  -10.0072 C   0  0  0  0  0  0  0  0  0  0  0  0
   25.2141  -20.8658  -11.3155 C   0  0  2  0  0  0  0  0  0  0  0  0
   25.6048  -20.2410  -12.5751 N   0  0  0  0  0  0  0  0  0  0  0  0
   23.7546  -20.9014  -11.2909 C   0  0  0  0  0  0  0  0  0  0  0  0
   22.9432  -21.8215  -10.6550 O   0  0  0  0  0  0  0  0  0  0  0  0
   23.1125  -19.9930  -11.9248 O   0  0  0  0  0  0  0  0  0  0  0  0
  2  1  1  6
  3  2  1  0
  3  4  1  0
  5  6  2  0
  5  2  1  0
  7  5  1  0
  8  7  1  0
  9  8  1  0
  9 10  2  0
 11 12  1  0
 12 13  1  0
 13 14  1  1
 15 13  1  0
 15 16  1  6
 16  9  1  0
 17 15  1  0
 18 17  1  0
 19 17  2  0
M  END
$$$$
