CGI.pdb
     RDKit          3D

 19 18  0  0  1  0  0  0  0  0999 V2000
   17.1335  -14.3841  -16.3268 N   0  0  0  0  0  0  0  0  0  0  0  0
   16.6621  -14.0429  -17.6493 C   0  0  1  0  0  0  0  0  0  0  0  0
   15.1335  -14.0239  -17.6829 C   0  0  0  0  0  0  0  0  0  0  0  0
   14.4405  -15.6107  -17.2261 S   0  0  0  0  0  0  0  0  0  0  0  0
   17.2069  -12.7131  -18.0192 C   0  0  0  0  0  0  0  0  0  0  0  0
   17.0661  -12.2542  -19.1829 O   0  0  0  0  0  0  0  0  0  0  0  0
   17.9049  -11.9258  -17.0548 N   0  0  0  0  0  0  0  0  0  0  0  0
   18.4850  -10.6424  -17.3968 C   0  0  0  0  0  0  0  0  0  0  0  0
   19.0424  -10.0141  -16.1597 C   0  0  0  0  0  0  0  0  0  0  0  0
   18.4729  -10.1472  -15.0370 O   0  0  0  0  0  0  0  0  0  0  0  0
   23.4962  -11.4512  -14.4959 C   0  0  0  0  0  0  0  0  0  0  0  0
   22.2011  -10.7893  -14.7337 C   0  0  0  0  0  0  0  0  0  0  0  0
   22.1395   -9.3025  -14.6493 C   0  0  2  0  0  0  0  0  0  0  0  0
   22.8613   -8.8425  -13.4056 C   0  0  0  0  0  0  0  0  0  0  0  0
   20.8545   -8.6988  -14.9575 C   0  0  2  0  0  0  0  0  0  0  0  0
   20.2140   -9.2455  -16.1493 N   0  0  0  0  0  0  0  0  0  0  0  0
   20.7360   -7.2456  -15.0375 C   0  0  0  0  0  0  0  0  0  0  0  0
   20.4766   -6.3619  -14.0075 O   0  0  0  0  0  0  0  0  0  0  0  0
   20.8783   -6.6849  -16.1797 O   0  0  0  0  0  0  0  0  0  0  0  0
  2  1  1  1
  3  2  1  0
  3  4  1  0
  5  6  2  0
  5  2  1  0
  7  5  1  0
  8  7  1  0
  9  8  1  0
  9 10  2  0
 11 12  1  0
 12 13  1  0
 13 14  1  1
 15 13  1  0
 15 16  1  6
 16  9  1  0
 17 15  1  0
 18 17  1  0
 19 17  2  0
M  END
$$$$
