NID.pdb
     RDKit          3D

 25 24  0  0  1  0  0  0  0  0999 V2000
   15.5096  -13.4065  -13.7603 N   0  0  0  0  0  0  0  0  0  0  0  0
   14.1338  -13.1774  -13.4427 C   0  0  0  0  0  0  0  0  0  0  0  0
   13.3149  -14.0826  -13.7868 O   0  0  0  0  0  0  0  0  0  0  0  0
   13.6946  -11.9551  -12.7527 C   0  0  0  0  0  0  0  0  0  0  0  0
   14.8976  -11.3101  -12.0915 C   0  0  2  0  0  0  0  0  0  0  0  0
   15.2588  -12.0094  -10.8959 N   0  0  0  0  0  0  0  0  0  0  0  0
   14.6454   -9.8494  -11.8330 C   0  0  0  0  0  0  0  0  0  0  0  0
   14.2085   -9.1070  -12.7414 O   0  0  0  0  0  0  0  0  0  0  0  0
   13.1505   -8.5319   -6.6722 C   0  0  0  0  0  0  0  0  0  0  0  0
   13.2353   -8.4405   -8.1808 C   0  0  0  0  0  0  0  0  0  0  0  0
   14.5669   -7.8453   -8.6303 C   0  0  2  0  0  0  0  0  0  0  0  0
   14.4927   -6.3558   -8.2547 C   0  0  0  0  0  0  0  0  0  0  0  0
   14.6625   -7.9257  -10.1378 C   0  0  2  0  0  0  0  0  0  0  0  0
   14.8971   -9.3022  -10.5707 N   0  0  0  0  0  0  0  0  0  0  0  0
   15.7107   -7.0461  -10.6599 C   0  0  0  0  0  0  0  0  0  0  0  0
   16.9397   -7.4801  -10.6443 O   0  0  0  0  0  0  0  0  0  0  0  0
   15.6030   -5.7490  -11.2062 N   0  0  0  0  0  0  0  0  0  0  0  0
   16.7239   -5.0518  -11.8171 C   0  0  1  0  0  0  0  0  0  0  0  0
   17.2524   -5.7129  -13.0637 C   0  0  0  0  0  0  0  0  0  0  0  0
   18.2055   -4.9243  -13.8252 C   0  0  0  0  0  0  0  0  0  0  0  0
   19.0398   -4.2013  -13.2355 O   0  0  0  0  0  0  0  0  0  0  0  0
   16.3726   -3.6401  -12.0483 C   0  0  0  0  0  0  0  0  0  0  0  0
   17.2872   -2.8389  -12.3659 O   0  0  0  0  0  0  0  0  0  0  0  0
   18.2156   -4.9524  -15.1999 O   0  0  0  0  0  0  0  0  0  0  0  0
   15.1075   -3.0953  -11.9484 O   0  0  0  0  0  0  0  0  0  0  0  0
  2  1  1  0
  2  3  2  0
  4  2  1  0
  5  4  1  0
  5  6  1  1
  7  8  2  0
  7  5  1  0
 10  9  1  0
 10 11  1  0
 11 13  1  0
 11 12  1  6
 13 14  1  1
 14  7  1  0
 15 16  2  0
 15 13  1  0
 17 15  1  0
 18 17  1  0
 18 19  1  6
 20 19  1  0
 20 21  2  0
 22 18  1  0
 23 22  2  0
 24 20  1  0
 25 22  1  0
M  END
$$$$
