NID.pdb
     RDKit          3D

 25 24  0  0  1  0  0  0  0  0999 V2000
   18.5237  -14.3688  -18.4566 N   0  0  0  0  0  0  0  0  0  0  0  0
   19.6786  -13.5252  -18.4820 C   0  0  0  0  0  0  0  0  0  0  0  0
   20.3273  -13.4861  -19.5711 O   0  0  0  0  0  0  0  0  0  0  0  0
   20.0899  -12.7449  -17.3052 C   0  0  0  0  0  0  0  0  0  0  0  0
   21.4947  -13.1599  -16.9122 C   0  0  2  0  0  0  0  0  0  0  0  0
   21.5075  -14.4966  -16.4002 N   0  0  0  0  0  0  0  0  0  0  0  0
   22.0878  -12.1796  -15.9368 C   0  0  0  0  0  0  0  0  0  0  0  0
   21.6195  -12.0670  -14.7813 O   0  0  0  0  0  0  0  0  0  0  0  0
   27.3945  -11.5439  -15.7784 C   0  0  0  0  0  0  0  0  0  0  0  0
   25.9301  -11.5169  -15.3958 C   0  0  0  0  0  0  0  0  0  0  0  0
   25.2663  -10.2094  -15.8188 C   0  0  2  0  0  0  0  0  0  0  0  0
   25.8454   -9.1382  -14.8793 C   0  0  0  0  0  0  0  0  0  0  0  0
   23.7813  -10.2951  -15.5434 C   0  0  2  0  0  0  0  0  0  0  0  0
   23.1725  -11.3800  -16.3112 N   0  0  0  0  0  0  0  0  0  0  0  0
   23.1046   -9.0290  -15.8332 C   0  0  0  0  0  0  0  0  0  0  0  0
   23.1769   -8.5587  -17.0468 O   0  0  0  0  0  0  0  0  0  0  0  0
   22.3488   -8.1997  -14.9769 N   0  0  0  0  0  0  0  0  0  0  0  0
   21.7578   -6.9433  -15.4105 C   0  0  1  0  0  0  0  0  0  0  0  0
   20.2559   -6.9792  -15.5271 C   0  0  0  0  0  0  0  0  0  0  0  0
   19.6354   -5.7230  -15.9105 C   0  0  0  0  0  0  0  0  0  0  0  0
   19.1498   -4.9674  -15.0388 O   0  0  0  0  0  0  0  0  0  0  0  0
   22.2174   -5.8453  -14.5427 C   0  0  0  0  0  0  0  0  0  0  0  0
   22.0525   -4.6625  -14.9343 O   0  0  0  0  0  0  0  0  0  0  0  0
   19.5671   -5.3355  -17.2280 O   0  0  0  0  0  0  0  0  0  0  0  0
   22.8264   -5.9889  -13.3116 O   0  0  0  0  0  0  0  0  0  0  0  0
  2  1  1  0
  2  3  2  0
  4  2  1  0
  5  4  1  0
  5  6  1  1
  7  8  2  0
  7  5  1  0
 10  9  1  0
 10 11  1  0
 11 13  1  0
 11 12  1  1
 13 14  1  6
 14  7  1  0
 15 16  2  0
 15 13  1  0
 17 15  1  0
 18 17  1  0
 18 19  1  1
 20 19  1  0
 20 21  2  0
 22 18  1  0
 23 22  2  0
 24 20  1  0
 25 22  1  0
M  END
$$$$
