NID.pdb
     RDKit          3D

 25 24  0  0  1  0  0  0  0  0999 V2000
   28.3420  -21.3352  -17.1850 N   0  0  0  0  0  0  0  0  0  0  0  0
   28.7279  -22.1882  -16.1036 C   0  0  0  0  0  0  0  0  0  0  0  0
   29.8676  -22.7371  -16.1943 O   0  0  0  0  0  0  0  0  0  0  0  0
   27.8470  -22.4150  -14.9478 C   0  0  0  0  0  0  0  0  0  0  0  0
   26.6241  -21.5288  -15.0863 C   0  0  2  0  0  0  0  0  0  0  0  0
   26.9725  -20.1496  -14.9264 N   0  0  0  0  0  0  0  0  0  0  0  0
   25.5472  -21.9508  -14.1238 C   0  0  0  0  0  0  0  0  0  0  0  0
   25.0833  -23.1131  -14.1555 O   0  0  0  0  0  0  0  0  0  0  0  0
   26.0132  -20.4674   -9.0539 C   0  0  0  0  0  0  0  0  0  0  0  0
   25.5467  -21.2287  -10.2762 C   0  0  0  0  0  0  0  0  0  0  0  0
   24.3052  -20.5896  -10.8922 C   0  0  2  0  0  0  0  0  0  0  0  0
   23.1589  -20.9091   -9.9178 C   0  0  0  0  0  0  0  0  0  0  0  0
   23.9896  -21.2793  -12.2010 C   0  0  2  0  0  0  0  0  0  0  0  0
   25.0503  -21.0464  -13.1797 N   0  0  0  0  0  0  0  0  0  0  0  0
   22.6991  -20.8466  -12.7417 C   0  0  0  0  0  0  0  0  0  0  0  0
   22.5954  -19.6219  -13.1757 O   0  0  0  0  0  0  0  0  0  0  0  0
   21.4964  -21.5724  -12.8807 N   0  0  0  0  0  0  0  0  0  0  0  0
   20.3149  -21.0292  -13.5324 C   0  0  1  0  0  0  0  0  0  0  0  0
   19.3785  -22.0762  -14.0778 C   0  0  0  0  0  0  0  0  0  0  0  0
   20.0103  -23.1215  -14.8641 C   0  0  0  0  0  0  0  0  0  0  0  0
   20.8625  -22.8293  -15.7331 O   0  0  0  0  0  0  0  0  0  0  0  0
   19.6273  -20.0920  -12.6276 C   0  0  0  0  0  0  0  0  0  0  0  0
   19.6179  -20.3451  -11.3966 O   0  0  0  0  0  0  0  0  0  0  0  0
   19.6919  -24.4457  -14.6750 O   0  0  0  0  0  0  0  0  0  0  0  0
   18.9758  -18.9346  -13.0057 O   0  0  0  0  0  0  0  0  0  0  0  0
  2  1  1  0
  2  3  2  0
  4  2  1  0
  5  4  1  0
  5  6  1  1
  7  8  2  0
  7  5  1  0
 10  9  1  0
 10 11  1  0
 11 13  1  0
 11 12  1  1
 13 14  1  6
 14  7  1  0
 15 16  2  0
 15 13  1  0
 17 15  1  0
 18 17  1  0
 18 19  1  1
 20 19  1  0
 20 21  2  0
 22 18  1  0
 23 22  2  0
 24 20  1  0
 25 22  1  0
M  END
$$$$
