NID.pdb
     RDKit          3D

 25 24  0  0  1  0  0  0  0  0999 V2000
   20.9315  -15.9328  -18.3004 N   0  0  0  0  0  0  0  0  0  0  0  0
   20.0578  -14.8136  -18.1264 C   0  0  0  0  0  0  0  0  0  0  0  0
   18.9522  -14.8566  -18.7462 O   0  0  0  0  0  0  0  0  0  0  0  0
   20.4249  -13.6740  -17.2723 C   0  0  0  0  0  0  0  0  0  0  0  0
   21.8372  -13.8837  -16.7608 C   0  0  2  0  0  0  0  0  0  0  0  0
   21.9165  -15.0599  -15.9488 N   0  0  0  0  0  0  0  0  0  0  0  0
   22.3270  -12.6631  -16.0299 C   0  0  0  0  0  0  0  0  0  0  0  0
   21.7893  -12.3026  -14.9584 O   0  0  0  0  0  0  0  0  0  0  0  0
   27.5552  -12.1273  -15.5310 C   0  0  0  0  0  0  0  0  0  0  0  0
   26.0536  -12.0099  -15.3797 C   0  0  0  0  0  0  0  0  0  0  0  0
   25.5147  -10.7761  -16.0984 C   0  0  2  0  0  0  0  0  0  0  0  0
   26.0896   -9.5751  -15.3287 C   0  0  0  0  0  0  0  0  0  0  0  0
   24.0103  -10.7308  -15.9459 C   0  0  2  0  0  0  0  0  0  0  0  0
   23.3921  -11.9144  -16.5410 N   0  0  0  0  0  0  0  0  0  0  0  0
   23.4445   -9.5149  -16.5347 C   0  0  0  0  0  0  0  0  0  0  0  0
   23.7282   -9.2462  -17.7782 O   0  0  0  0  0  0  0  0  0  0  0  0
   22.6004   -8.5453  -15.9517 N   0  0  0  0  0  0  0  0  0  0  0  0
   22.0528   -7.4221  -16.6961 C   0  0  1  0  0  0  0  0  0  0  0  0
   20.7840   -6.8579  -16.1111 C   0  0  0  0  0  0  0  0  0  0  0  0
   19.7176   -7.8218  -15.9020 C   0  0  0  0  0  0  0  0  0  0  0  0
   19.4208   -8.6394  -16.8021 O   0  0  0  0  0  0  0  0  0  0  0  0
   23.0850   -6.3867  -16.8762 C   0  0  0  0  0  0  0  0  0  0  0  0
   23.9879   -6.2830  -16.0082 O   0  0  0  0  0  0  0  0  0  0  0  0
   19.0144   -7.8607  -14.7210 O   0  0  0  0  0  0  0  0  0  0  0  0
   23.1617   -5.4965  -17.9292 O   0  0  0  0  0  0  0  0  0  0  0  0
  2  1  1  0
  2  3  2  0
  4  2  1  0
  5  4  1  0
  5  6  1  1
  7  8  2  0
  7  5  1  0
 10  9  1  0
 10 11  1  0
 11 13  1  0
 11 12  1  1
 13 14  1  6
 14  7  1  0
 15 16  2  0
 15 13  1  0
 17 15  1  0
 18 17  1  0
 18 19  1  1
 20 19  1  0
 20 21  2  0
 22 18  1  0
 23 22  2  0
 24 20  1  0
 25 22  1  0
M  END
$$$$
