NID.pdb
     RDKit          3D

 25 24  0  0  1  0  0  0  0  0999 V2000
   20.4700  -28.7215  -15.0205 N   0  0  0  0  0  0  0  0  0  0  0  0
   20.7442  -29.0500  -13.6556 C   0  0  0  0  0  0  0  0  0  0  0  0
   20.9981  -30.2673  -13.4062 O   0  0  0  0  0  0  0  0  0  0  0  0
   20.7319  -28.0274  -12.5987 C   0  0  0  0  0  0  0  0  0  0  0  0
   20.3900  -26.6874  -13.2213 C   0  0  2  0  0  0  0  0  0  0  0  0
   21.4079  -26.2772  -14.1404 N   0  0  0  0  0  0  0  0  0  0  0  0
   20.1436  -25.6519  -12.1579 C   0  0  0  0  0  0  0  0  0  0  0  0
   21.1011  -25.0604  -11.6095 O   0  0  0  0  0  0  0  0  0  0  0  0
   16.9301  -22.4181  -13.6525 C   0  0  0  0  0  0  0  0  0  0  0  0
   17.9204  -22.5989  -12.5220 C   0  0  0  0  0  0  0  0  0  0  0  0
   17.3325  -23.4422  -11.3940 C   0  0  2  0  0  0  0  0  0  0  0  0
   16.9200  -22.4350  -10.3074 C   0  0  0  0  0  0  0  0  0  0  0  0
   18.4201  -24.3159  -10.8091 C   0  0  2  0  0  0  0  0  0  0  0  0
   18.8378  -25.3372  -11.7681 N   0  0  0  0  0  0  0  0  0  0  0  0
   17.9933  -24.9432   -9.5564 C   0  0  0  0  0  0  0  0  0  0  0  0
   16.9839  -25.7670   -9.5958 O   0  0  0  0  0  0  0  0  0  0  0  0
   18.5225  -24.7994   -8.2558 N   0  0  0  0  0  0  0  0  0  0  0  0
   17.9437  -25.4479   -7.0895 C   0  0  1  0  0  0  0  0  0  0  0  0
   18.7682  -25.3070   -5.8362 C   0  0  0  0  0  0  0  0  0  0  0  0
   18.3401  -26.1303   -4.7187 C   0  0  0  0  0  0  0  0  0  0  0  0
   17.4907  -27.0336   -4.8896 O   0  0  0  0  0  0  0  0  0  0  0  0
   16.5586  -24.9867   -6.8930 C   0  0  0  0  0  0  0  0  0  0  0  0
   15.6449  -25.8466   -6.8202 O   0  0  0  0  0  0  0  0  0  0  0  0
   18.8527  -25.9404   -3.4570 O   0  0  0  0  0  0  0  0  0  0  0  0
   16.1533  -23.6714   -6.7781 O   0  0  0  0  0  0  0  0  0  0  0  0
  2  1  1  0
  2  3  2  0
  4  2  1  0
  5  4  1  0
  5  6  1  6
  7  8  2  0
  7  5  1  0
 10  9  1  0
 10 11  1  0
 11 13  1  0
 11 12  1  1
 13 14  1  6
 14  7  1  0
 15 16  2  0
 15 13  1  0
 17 15  1  0
 18 17  1  0
 18 19  1  1
 20 19  1  0
 20 21  2  0
 22 18  1  0
 23 22  2  0
 24 20  1  0
 25 22  1  0
M  END
$$$$
