NID.pdb
     RDKit          3D

 25 24  0  0  1  0  0  0  0  0999 V2000
   16.1557  -11.3319  -18.3929 N   0  0  0  0  0  0  0  0  0  0  0  0
   15.5725  -10.8216  -17.1905 C   0  0  0  0  0  0  0  0  0  0  0  0
   14.3094  -10.7079  -17.1778 O   0  0  0  0  0  0  0  0  0  0  0  0
   16.3970  -10.4493  -16.0310 C   0  0  0  0  0  0  0  0  0  0  0  0
   17.8563  -10.6695  -16.3801 C   0  0  2  0  0  0  0  0  0  0  0  0
   18.1569  -12.0669  -16.4592 N   0  0  0  0  0  0  0  0  0  0  0  0
   18.7523   -9.9571  -15.4035 C   0  0  0  0  0  0  0  0  0  0  0  0
   18.3399   -9.6596  -14.2595 O   0  0  0  0  0  0  0  0  0  0  0  0
   23.7901  -11.6450  -14.8631 C   0  0  0  0  0  0  0  0  0  0  0  0
   22.4606  -10.9700  -14.6017 C   0  0  0  0  0  0  0  0  0  0  0  0
   22.4340   -9.5518  -15.1649 C   0  0  2  0  0  0  0  0  0  0  0  0
   23.4322   -8.7560  -14.3072 C   0  0  0  0  0  0  0  0  0  0  0  0
   21.0643   -8.9523  -14.9350 C   0  0  2  0  0  0  0  0  0  0  0  0
   20.0604   -9.6176  -15.7637 N   0  0  0  0  0  0  0  0  0  0  0  0
   21.0562   -7.5103  -15.1912 C   0  0  0  0  0  0  0  0  0  0  0  0
   21.2471   -7.1037  -16.4148 O   0  0  0  0  0  0  0  0  0  0  0  0
   20.8620   -6.4407  -14.2908 N   0  0  0  0  0  0  0  0  0  0  0  0
   20.9579   -5.0446  -14.6876 C   0  0  1  0  0  0  0  0  0  0  0  0
   19.6678   -4.2779  -14.5521 C   0  0  0  0  0  0  0  0  0  0  0  0
   19.7618   -2.8554  -14.8311 C   0  0  0  0  0  0  0  0  0  0  0  0
   20.3132   -2.4535  -15.8804 O   0  0  0  0  0  0  0  0  0  0  0  0
   22.0654   -4.3921  -13.9683 C   0  0  0  0  0  0  0  0  0  0  0  0
   22.4595   -4.8987  -12.8878 O   0  0  0  0  0  0  0  0  0  0  0  0
   19.2517   -1.9235  -13.9582 O   0  0  0  0  0  0  0  0  0  0  0  0
   22.7304   -3.2511  -14.3722 O   0  0  0  0  0  0  0  0  0  0  0  0
  2  1  1  0
  2  3  2  0
  4  2  1  0
  5  4  1  0
  5  6  1  1
  7  8  2  0
  7  5  1  0
 10  9  1  0
 10 11  1  0
 11 13  1  0
 11 12  1  1
 13 14  1  6
 14  7  1  0
 15 16  2  0
 15 13  1  0
 17 15  1  0
 18 17  1  0
 18 19  1  1
 20 19  1  0
 20 21  2  0
 22 18  1  0
 23 22  2  0
 24 20  1  0
 25 22  1  0
M  END
$$$$
