NID.pdb
     RDKit          3D

 25 24  0  0  1  0  0  0  0  0999 V2000
   25.8296  -20.0050  -19.4026 N   0  0  0  0  0  0  0  0  0  0  0  0
   26.3572  -20.0457  -18.0737 C   0  0  0  0  0  0  0  0  0  0  0  0
   27.3908  -19.3448  -17.8530 O   0  0  0  0  0  0  0  0  0  0  0  0
   25.7312  -20.8586  -17.0199 C   0  0  0  0  0  0  0  0  0  0  0  0
   25.0534  -19.9325  -16.0284 C   0  0  2  0  0  0  0  0  0  0  0  0
   26.0016  -19.0413  -15.4319 N   0  0  0  0  0  0  0  0  0  0  0  0
   24.2958  -20.7202  -14.9941 C   0  0  0  0  0  0  0  0  0  0  0  0
   23.6769  -21.7610  -15.3121 O   0  0  0  0  0  0  0  0  0  0  0  0
   26.3604  -20.6759   -9.9885 C   0  0  0  0  0  0  0  0  0  0  0  0
   25.5215  -21.2572  -11.1064 C   0  0  0  0  0  0  0  0  0  0  0  0
   24.1784  -20.5425  -11.2265 C   0  0  2  0  0  0  0  0  0  0  0  0
   23.2991  -21.1425  -10.1165 C   0  0  0  0  0  0  0  0  0  0  0  0
   23.5413  -20.9028  -12.5503 C   0  0  2  0  0  0  0  0  0  0  0  0
   24.2737  -20.2971  -13.6611 N   0  0  0  0  0  0  0  0  0  0  0  0
   22.1325  -20.5053  -12.5973 C   0  0  0  0  0  0  0  0  0  0  0  0
   21.8559  -19.2534  -12.8322 O   0  0  0  0  0  0  0  0  0  0  0  0
   20.9727  -21.2918  -12.4272 N   0  0  0  0  0  0  0  0  0  0  0  0
   19.6630  -20.8862  -12.9128 C   0  0  1  0  0  0  0  0  0  0  0  0
   19.6391  -20.5072  -14.3709 C   0  0  0  0  0  0  0  0  0  0  0  0
   18.8918  -19.3016  -14.6842 C   0  0  0  0  0  0  0  0  0  0  0  0
   18.5455  -18.5189  -13.7709 O   0  0  0  0  0  0  0  0  0  0  0  0
   18.6658  -21.9232  -12.5962 C   0  0  0  0  0  0  0  0  0  0  0  0
   17.4902  -21.5644  -12.3343 O   0  0  0  0  0  0  0  0  0  0  0  0
   18.5499  -18.9922  -15.9796 O   0  0  0  0  0  0  0  0  0  0  0  0
   18.8992  -23.2838  -12.5574 O   0  0  0  0  0  0  0  0  0  0  0  0
  2  1  1  0
  2  3  2  0
  4  2  1  0
  5  4  1  0
  5  6  1  1
  7  8  2  0
  7  5  1  0
 10  9  1  0
 10 11  1  0
 11 13  1  0
 11 12  1  1
 13 14  1  6
 14  7  1  0
 15 16  2  0
 15 13  1  0
 17 15  1  0
 18 17  1  0
 18 19  1  6
 20 19  1  0
 20 21  2  0
 22 18  1  0
 23 22  2  0
 24 20  1  0
 25 22  1  0
M  END
$$$$
