NID.pdb
     RDKit          3D

 25 24  0  0  1  0  0  0  0  0999 V2000
   15.8761  -11.4575  -19.3483 N   0  0  0  0  0  0  0  0  0  0  0  0
   17.2594  -11.2028  -19.0883 C   0  0  0  0  0  0  0  0  0  0  0  0
   18.0845  -11.6155  -19.9585 O   0  0  0  0  0  0  0  0  0  0  0  0
   17.6991  -10.4984  -17.8744 C   0  0  0  0  0  0  0  0  0  0  0  0
   18.8785  -11.2434  -17.2792 C   0  0  2  0  0  0  0  0  0  0  0  0
   18.4863  -12.5450  -16.8306 N   0  0  0  0  0  0  0  0  0  0  0  0
   19.5177  -10.4397  -16.1795 C   0  0  0  0  0  0  0  0  0  0  0  0
   18.9846  -10.3685  -15.0490 O   0  0  0  0  0  0  0  0  0  0  0  0
   24.2915  -11.5711  -14.8160 C   0  0  0  0  0  0  0  0  0  0  0  0
   22.9076  -10.9576  -14.8180 C   0  0  0  0  0  0  0  0  0  0  0  0
   22.9274   -9.5367  -15.3746 C   0  0  2  0  0  0  0  0  0  0  0  0
   23.6825   -8.7013  -14.3270 C   0  0  0  0  0  0  0  0  0  0  0  0
   21.5113   -9.0084  -15.4368 C   0  0  2  0  0  0  0  0  0  0  0  0
   20.7187   -9.7603  -16.4082 N   0  0  0  0  0  0  0  0  0  0  0  0
   21.4817   -7.5798  -15.7578 C   0  0  0  0  0  0  0  0  0  0  0  0
   22.0704   -7.1845  -16.8515 O   0  0  0  0  0  0  0  0  0  0  0  0
   20.8895   -6.5133  -15.0477 N   0  0  0  0  0  0  0  0  0  0  0  0
   20.9907   -5.1260  -15.4732 C   0  0  1  0  0  0  0  0  0  0  0  0
   19.8157   -4.2730  -15.0705 C   0  0  0  0  0  0  0  0  0  0  0  0
   18.5222   -4.7437  -15.5345 C   0  0  0  0  0  0  0  0  0  0  0  0
   18.3628   -5.0722  -16.7317 O   0  0  0  0  0  0  0  0  0  0  0  0
   22.2695   -4.5527  -15.0195 C   0  0  0  0  0  0  0  0  0  0  0  0
   22.6913   -4.8582  -13.8757 O   0  0  0  0  0  0  0  0  0  0  0  0
   17.4505   -4.8400  -14.6784 O   0  0  0  0  0  0  0  0  0  0  0  0
   23.0711   -3.6917  -15.7429 O   0  0  0  0  0  0  0  0  0  0  0  0
  2  1  1  0
  2  3  2  0
  4  2  1  0
  5  4  1  0
  5  6  1  1
  7  8  2  0
  7  5  1  0
 10  9  1  0
 10 11  1  0
 11 13  1  0
 11 12  1  1
 13 14  1  6
 14  7  1  0
 15 16  2  0
 15 13  1  0
 17 15  1  0
 18 17  1  0
 18 19  1  1
 20 19  1  0
 20 21  2  0
 22 18  1  0
 23 22  2  0
 24 20  1  0
 25 22  1  0
M  END
$$$$
