NID.pdb
     RDKit          3D

 25 24  0  0  1  0  0  0  0  0999 V2000
   27.8946  -18.9248  -19.0896 N   0  0  0  0  0  0  0  0  0  0  0  0
   27.8742  -18.8235  -17.6630 C   0  0  0  0  0  0  0  0  0  0  0  0
   28.7191  -18.0361  -17.1390 O   0  0  0  0  0  0  0  0  0  0  0  0
   26.9217  -19.5933  -16.8486 C   0  0  0  0  0  0  0  0  0  0  0  0
   27.6979  -20.4124  -15.8353 C   0  0  2  0  0  0  0  0  0  0  0  0
   28.5593  -21.3502  -16.4893 N   0  0  0  0  0  0  0  0  0  0  0  0
   26.7647  -21.0878  -14.8673 C   0  0  0  0  0  0  0  0  0  0  0  0
   26.0833  -22.0762  -15.2225 O   0  0  0  0  0  0  0  0  0  0  0  0
   28.3041  -21.0521   -9.6504 C   0  0  0  0  0  0  0  0  0  0  0  0
   27.6075  -21.5257  -10.9081 C   0  0  0  0  0  0  0  0  0  0  0  0
   26.2976  -20.7767  -11.1368 C   0  0  2  0  0  0  0  0  0  0  0  0
   25.3157  -21.3517  -10.1021 C   0  0  0  0  0  0  0  0  0  0  0  0
   25.7610  -21.1230  -12.5081 C   0  0  2  0  0  0  0  0  0  0  0  0
   26.6471  -20.6177  -13.5554 N   0  0  0  0  0  0  0  0  0  0  0  0
   24.4037  -20.6082  -12.7025 C   0  0  0  0  0  0  0  0  0  0  0  0
   24.2425  -19.3170  -12.7783 O   0  0  0  0  0  0  0  0  0  0  0  0
   23.1875  -21.3128  -12.8321 N   0  0  0  0  0  0  0  0  0  0  0  0
   21.9348  -20.6693  -13.1958 C   0  0  1  0  0  0  0  0  0  0  0  0
   21.6144  -20.7366  -14.6666 C   0  0  0  0  0  0  0  0  0  0  0  0
   20.3355  -20.1628  -15.0477 C   0  0  0  0  0  0  0  0  0  0  0  0
   19.2746  -20.7950  -14.8440 O   0  0  0  0  0  0  0  0  0  0  0  0
   20.8379  -21.1994  -12.3677 C   0  0  0  0  0  0  0  0  0  0  0  0
   20.8195  -22.4301  -12.1135 O   0  0  0  0  0  0  0  0  0  0  0  0
   20.2586  -18.9221  -15.6354 O   0  0  0  0  0  0  0  0  0  0  0  0
   19.8022  -20.4614  -11.8295 O   0  0  0  0  0  0  0  0  0  0  0  0
  2  1  1  0
  2  3  2  0
  4  2  1  0
  5  4  1  0
  5  6  1  6
  7  8  2  0
  7  5  1  0
 10  9  1  0
 10 11  1  0
 11 13  1  0
 11 12  1  1
 13 14  1  6
 14  7  1  0
 15 16  2  0
 15 13  1  0
 17 15  1  0
 18 17  1  0
 18 19  1  6
 20 19  1  0
 20 21  2  0
 22 18  1  0
 23 22  2  0
 24 20  1  0
 25 22  1  0
M  END
$$$$
