NID.pdb
     RDKit          3D

 25 24  0  0  1  0  0  0  0  0999 V2000
   23.5361  -14.8852  -21.3233 N   0  0  0  0  0  0  0  0  0  0  0  0
   22.3208  -14.3559  -20.7857 C   0  0  0  0  0  0  0  0  0  0  0  0
   21.2446  -14.7332  -21.3406 O   0  0  0  0  0  0  0  0  0  0  0  0
   22.3221  -13.4234  -19.6485 C   0  0  0  0  0  0  0  0  0  0  0  0
   23.1879  -14.0015  -18.5455 C   0  0  2  0  0  0  0  0  0  0  0  0
   22.5790  -15.1648  -17.9756 N   0  0  0  0  0  0  0  0  0  0  0  0
   23.4916  -12.9593  -17.5036 C   0  0  0  0  0  0  0  0  0  0  0  0
   22.6933  -12.7463  -16.5630 O   0  0  0  0  0  0  0  0  0  0  0  0
   28.4975  -12.5552  -15.6872 C   0  0  0  0  0  0  0  0  0  0  0  0
   26.9925  -12.4125  -15.7653 C   0  0  0  0  0  0  0  0  0  0  0  0
   26.5898  -11.1354  -16.4974 C   0  0  2  0  0  0  0  0  0  0  0  0
   26.9346   -9.9888  -15.5322 C   0  0  0  0  0  0  0  0  0  0  0  0
   25.0895  -11.1263  -16.6904 C   0  0  2  0  0  0  0  0  0  0  0  0
   24.6729  -12.2138  -17.5741 N   0  0  0  0  0  0  0  0  0  0  0  0
   24.6204   -9.8415  -17.2142 C   0  0  0  0  0  0  0  0  0  0  0  0
   25.1119   -9.4248  -18.3473 O   0  0  0  0  0  0  0  0  0  0  0  0
   23.6774   -8.9423  -16.6714 N   0  0  0  0  0  0  0  0  0  0  0  0
   23.2812   -7.7122  -17.3389 C   0  0  1  0  0  0  0  0  0  0  0  0
   21.9250   -7.7775  -17.9923 C   0  0  0  0  0  0  0  0  0  0  0  0
   21.4925   -6.5530  -18.6429 C   0  0  0  0  0  0  0  0  0  0  0  0
   20.6835   -5.7872  -18.0722 O   0  0  0  0  0  0  0  0  0  0  0  0
   23.3903   -6.5766  -16.4071 C   0  0  0  0  0  0  0  0  0  0  0  0
   23.4001   -5.4121  -16.8797 O   0  0  0  0  0  0  0  0  0  0  0  0
   21.9571   -6.2069  -19.8899 O   0  0  0  0  0  0  0  0  0  0  0  0
   23.4852   -6.6655  -15.0322 O   0  0  0  0  0  0  0  0  0  0  0  0
  2  1  1  0
  2  3  2  0
  4  2  1  0
  5  4  1  0
  5  6  1  1
  7  8  2  0
  7  5  1  0
 10  9  1  0
 10 11  1  0
 11 13  1  0
 11 12  1  1
 13 14  1  6
 14  7  1  0
 15 16  2  0
 15 13  1  0
 17 15  1  0
 18 17  1  0
 18 19  1  1
 20 19  1  0
 20 21  2  0
 22 18  1  0
 23 22  2  0
 24 20  1  0
 25 22  1  0
M  END
$$$$
