NID.pdb
     RDKit          3D

 25 24  0  0  1  0  0  0  0  0999 V2000
   18.5559  -13.7971  -19.1959 N   0  0  0  0  0  0  0  0  0  0  0  0
   19.7288  -12.9993  -19.0117 C   0  0  0  0  0  0  0  0  0  0  0  0
   20.5315  -12.9380  -19.9916 O   0  0  0  0  0  0  0  0  0  0  0  0
   19.9877  -12.2880  -17.7507 C   0  0  0  0  0  0  0  0  0  0  0  0
   21.4237  -12.5420  -17.3342 C   0  0  2  0  0  0  0  0  0  0  0  0
   21.6325  -13.9273  -17.0404 N   0  0  0  0  0  0  0  0  0  0  0  0
   21.8084  -11.6589  -16.1782 C   0  0  0  0  0  0  0  0  0  0  0  0
   21.2435  -11.7799  -15.0676 O   0  0  0  0  0  0  0  0  0  0  0  0
   26.9686  -10.0985  -16.3633 C   0  0  0  0  0  0  0  0  0  0  0  0
   25.4762   -9.8795  -16.4899 C   0  0  0  0  0  0  0  0  0  0  0  0
   24.7895   -9.9106  -15.1272 C   0  0  2  0  0  0  0  0  0  0  0  0
   25.0365  -11.3269  -14.5809 C   0  0  0  0  0  0  0  0  0  0  0  0
   23.2972   -9.7559  -15.3201 C   0  0  2  0  0  0  0  0  0  0  0  0
   22.8047  -10.6893  -16.3316 N   0  0  0  0  0  0  0  0  0  0  0  0
   22.9392   -8.3827  -15.6824 C   0  0  0  0  0  0  0  0  0  0  0  0
   22.9107   -8.0697  -16.9474 O   0  0  0  0  0  0  0  0  0  0  0  0
   22.6000   -7.2950  -14.8493 N   0  0  0  0  0  0  0  0  0  0  0  0
   22.2547   -5.9798  -15.3658 C   0  0  1  0  0  0  0  0  0  0  0  0
   21.1197   -5.3113  -14.6340 C   0  0  0  0  0  0  0  0  0  0  0  0
   20.7002   -4.0323  -15.1799 C   0  0  0  0  0  0  0  0  0  0  0  0
   21.0691   -2.9647  -14.6405 O   0  0  0  0  0  0  0  0  0  0  0  0
   23.4555   -5.1281  -15.4167 C   0  0  0  0  0  0  0  0  0  0  0  0
   24.3074   -5.2375  -14.4993 O   0  0  0  0  0  0  0  0  0  0  0  0
   19.8957   -3.9625  -16.2929 O   0  0  0  0  0  0  0  0  0  0  0  0
   23.7460   -4.1985  -16.3958 O   0  0  0  0  0  0  0  0  0  0  0  0
  2  1  1  0
  2  3  2  0
  4  2  1  0
  5  4  1  0
  5  6  1  1
  7  8  2  0
  7  5  1  0
 10  9  1  0
 10 11  1  0
 11 13  1  0
 11 12  1  6
 13 14  1  6
 14  7  1  0
 15 16  2  0
 15 13  1  0
 17 15  1  0
 18 17  1  0
 18 19  1  1
 20 19  1  0
 20 21  2  0
 22 18  1  0
 23 22  2  0
 24 20  1  0
 25 22  1  0
M  END
$$$$
