NID.pdb
     RDKit          3D

 25 24  0  0  1  0  0  0  0  0999 V2000
   18.3222  -14.6983  -18.3960 N   0  0  0  0  0  0  0  0  0  0  0  0
   19.5808  -14.0214  -18.4558 C   0  0  0  0  0  0  0  0  0  0  0  0
   20.1470  -13.9777  -19.5898 O   0  0  0  0  0  0  0  0  0  0  0  0
   20.1845  -13.4085  -17.2629 C   0  0  0  0  0  0  0  0  0  0  0  0
   20.6547  -12.0111  -17.6183 C   0  0  2  0  0  0  0  0  0  0  0  0
   21.7228  -12.0588  -18.5701 N   0  0  0  0  0  0  0  0  0  0  0  0
   21.0394  -11.2465  -16.3808 C   0  0  0  0  0  0  0  0  0  0  0  0
   20.2816  -11.2225  -15.3846 O   0  0  0  0  0  0  0  0  0  0  0  0
   26.4800  -10.6209  -15.8074 C   0  0  0  0  0  0  0  0  0  0  0  0
   25.0576  -10.1976  -16.1060 C   0  0  0  0  0  0  0  0  0  0  0  0
   24.1845  -10.2515  -14.8554 C   0  0  2  0  0  0  0  0  0  0  0  0
   24.0923  -11.7424  -14.4893 C   0  0  0  0  0  0  0  0  0  0  0  0
   22.7883   -9.7860  -15.2047 C   0  0  2  0  0  0  0  0  0  0  0  0
   22.2518  -10.5511  -16.3291 N   0  0  0  0  0  0  0  0  0  0  0  0
   22.7568   -8.3534  -15.5073 C   0  0  0  0  0  0  0  0  0  0  0  0
   23.1940   -7.9626  -16.6714 O   0  0  0  0  0  0  0  0  0  0  0  0
   22.3057   -7.2785  -14.7113 N   0  0  0  0  0  0  0  0  0  0  0  0
   22.3196   -5.8968  -15.1654 C   0  0  1  0  0  0  0  0  0  0  0  0
   21.2253   -5.5616  -16.1454 C   0  0  0  0  0  0  0  0  0  0  0  0
   21.1435   -4.1621  -16.5260 C   0  0  0  0  0  0  0  0  0  0  0  0
   22.1590   -3.5617  -16.9439 O   0  0  0  0  0  0  0  0  0  0  0  0
   22.3205   -4.9865  -14.0073 C   0  0  0  0  0  0  0  0  0  0  0  0
   22.0102   -5.4493  -12.8808 O   0  0  0  0  0  0  0  0  0  0  0  0
   19.9595   -3.4684  -16.4384 O   0  0  0  0  0  0  0  0  0  0  0  0
   22.6360   -3.6423  -14.0361 O   0  0  0  0  0  0  0  0  0  0  0  0
  2  1  1  0
  2  3  2  0
  4  2  1  0
  5  4  1  0
  5  6  1  6
  7  8  2  0
  7  5  1  0
 10  9  1  0
 10 11  1  0
 11 13  1  0
 11 12  1  6
 13 14  1  6
 14  7  1  0
 15 16  2  0
 15 13  1  0
 17 15  1  0
 18 17  1  0
 18 19  1  6
 20 19  1  0
 20 21  2  0
 22 18  1  0
 23 22  2  0
 24 20  1  0
 25 22  1  0
M  END
$$$$
