NID.pdb
     RDKit          3D

 25 24  0  0  1  0  0  0  0  0999 V2000
   13.5137  -13.8774  -10.6503 N   0  0  0  0  0  0  0  0  0  0  0  0
   14.4177  -13.4805  -11.6853 C   0  0  0  0  0  0  0  0  0  0  0  0
   15.0005  -14.4134  -12.3166 O   0  0  0  0  0  0  0  0  0  0  0  0
   14.6567  -12.0637  -11.9993 C   0  0  0  0  0  0  0  0  0  0  0  0
   13.9707  -11.2099  -10.9501 C   0  0  2  0  0  0  0  0  0  0  0  0
   12.5532  -11.4074  -10.9785 N   0  0  0  0  0  0  0  0  0  0  0  0
   14.3389   -9.7606  -11.1171 C   0  0  0  0  0  0  0  0  0  0  0  0
   13.8432   -9.0792  -12.0431 O   0  0  0  0  0  0  0  0  0  0  0  0
   14.2474   -6.5871   -6.9066 C   0  0  0  0  0  0  0  0  0  0  0  0
   14.2897   -6.9792   -8.3681 C   0  0  0  0  0  0  0  0  0  0  0  0
   15.7223   -7.1983   -8.8464 C   0  0  2  0  0  0  0  0  0  0  0  0
   16.3403   -5.7926   -8.9330 C   0  0  0  0  0  0  0  0  0  0  0  0
   15.6959   -7.7661  -10.2482 C   0  0  2  0  0  0  0  0  0  0  0  0
   15.2423   -9.1558  -10.2372 N   0  0  0  0  0  0  0  0  0  0  0  0
   17.0060   -7.6671  -10.8954 C   0  0  0  0  0  0  0  0  0  0  0  0
   17.9716   -8.4171  -10.4436 O   0  0  0  0  0  0  0  0  0  0  0  0
   17.4116   -6.8601  -11.9802 N   0  0  0  0  0  0  0  0  0  0  0  0
   18.7365   -6.9409  -12.5750 C   0  0  1  0  0  0  0  0  0  0  0  0
   18.9903   -8.2151  -13.3381 C   0  0  0  0  0  0  0  0  0  0  0  0
   20.2576   -8.2699  -14.0459 C   0  0  0  0  0  0  0  0  0  0  0  0
   21.3356   -8.2739  -13.4099 O   0  0  0  0  0  0  0  0  0  0  0  0
   18.9926   -5.7456  -13.3969 C   0  0  0  0  0  0  0  0  0  0  0  0
   18.0123   -5.0541  -13.7713 O   0  0  0  0  0  0  0  0  0  0  0  0
   20.3046   -8.3192  -15.4192 O   0  0  0  0  0  0  0  0  0  0  0  0
   20.2328   -5.2977  -13.8075 O   0  0  0  0  0  0  0  0  0  0  0  0
  2  1  1  0
  2  3  2  0
  4  2  1  0
  5  4  1  0
  5  6  1  6
  7  8  2  0
  7  5  1  0
 10  9  1  0
 10 11  1  0
 11 13  1  0
 11 12  1  6
 13 14  1  1
 14  7  1  0
 15 16  2  0
 15 13  1  0
 17 15  1  0
 18 17  1  0
 18 19  1  6
 20 19  1  0
 20 21  2  0
 22 18  1  0
 23 22  2  0
 24 20  1  0
 25 22  1  0
M  END
$$$$
