IYD.pdb
     RDKit          3D

 29 29  0  0  1  0  0  0  0  0999 V2000
   17.6846  -13.9035  -16.5646 C   0  0  0  0  0  0  0  0  0  0  0  0
   18.1602  -12.6053  -15.9845 C   0  0  0  0  0  0  0  0  0  0  0  0
   17.0631  -11.9004  -15.1666 C   0  0  2  0  0  0  0  0  0  0  0  0
   15.8206  -11.7741  -15.9804 C   0  0  0  0  0  0  0  0  0  0  0  0
   17.6115  -10.5994  -14.6329 C   0  0  2  0  0  0  0  0  0  0  0  0
   18.8529  -10.9302  -13.8901 N   0  0  0  0  0  0  0  0  0  0  0  0
   16.6925   -9.8456  -13.7750 C   0  0  0  0  0  0  0  0  0  0  0  0
   15.5919   -9.4831  -14.2882 O   0  0  0  0  0  0  0  0  0  0  0  0
   12.7976   -6.1132   -6.5558 O   0  0  0  0  0  0  0  0  0  0  0  0
   13.6063   -6.8279   -7.4435 C   0  0  0  0  0  0  0  0  0  0  0  0
   13.0819   -7.8271   -8.2334 C   0  0  0  0  0  0  0  0  0  0  0  0
   13.8678   -8.5400   -9.1131 C   0  0  0  0  0  0  0  0  0  0  0  0
   15.2189   -8.3047   -9.2620 C   0  0  0  0  0  0  0  0  0  0  0  0
   16.0933   -9.0355  -10.1914 C   0  0  0  0  0  0  0  0  0  0  0  0
   15.8724   -8.7376  -11.6525 C   0  0  2  0  0  0  0  0  0  0  0  0
   16.9094   -9.4824  -12.4260 N   0  0  0  0  0  0  0  0  0  0  0  0
   16.0798   -7.3130  -11.9168 C   0  0  0  0  0  0  0  0  0  0  0  0
   17.2704   -6.8640  -11.7656 O   0  0  0  0  0  0  0  0  0  0  0  0
   15.7342   -7.2818   -8.4473 C   0  0  0  0  0  0  0  0  0  0  0  0
   14.9544   -6.5675   -7.5678 C   0  0  0  0  0  0  0  0  0  0  0  0
   15.1388   -6.3557  -12.3273 N   0  0  0  0  0  0  0  0  0  0  0  0
   15.4768   -4.9773  -12.4725 C   0  0  1  0  0  0  0  0  0  0  0  0
   15.4468   -4.5426  -13.9269 C   0  0  0  0  0  0  0  0  0  0  0  0
   16.7841   -4.4262  -14.5121 C   0  0  0  0  0  0  0  0  0  0  0  0
   17.8669   -4.6005  -13.9004 O   0  0  0  0  0  0  0  0  0  0  0  0
   14.6997   -4.0124  -11.7107 C   0  0  0  0  0  0  0  0  0  0  0  0
   15.1189   -2.8010  -11.7527 O   0  0  0  0  0  0  0  0  0  0  0  0
   16.8761   -4.0954  -15.8570 O   0  0  0  0  0  0  0  0  0  0  0  0
   13.5808   -4.2132  -10.9529 O   0  0  0  0  0  0  0  0  0  0  0  0
  1  2  1  0
  2  3  1  0
  3  4  1  6
  5  3  1  0
  5  6  1  1
  7  5  1  0
  8  7  2  0
  9 10  1  0
 10 11  2  0
 11 12  1  0
 13 12  2  0
 13 14  1  0
 15 14  1  1
 15 16  1  0
 16  7  1  0
 17 21  1  0
 17 15  1  0
 18 17  2  0
 19 13  1  0
 20 10  1  0
 20 19  2  0
 22 21  1  0
 22 26  1  0
 22 23  1  6
 23 24  1  0
 24 25  2  0
 26 29  1  0
 27 26  2  0
 28 24  1  0
M  END
$$$$
