IYD.pdb
     RDKit          3D

 29 29  0  0  1  0  0  0  0  0999 V2000
   26.5536  -19.2193  -21.5698 C   0  0  0  0  0  0  0  0  0  0  0  0
   25.6469  -18.6558  -20.5170 C   0  0  0  0  0  0  0  0  0  0  0  0
   25.4565  -19.6262  -19.3374 C   0  0  2  0  0  0  0  0  0  0  0  0
   24.9927  -20.9521  -19.8362 C   0  0  0  0  0  0  0  0  0  0  0  0
   24.5565  -18.9793  -18.3129 C   0  0  2  0  0  0  0  0  0  0  0  0
   25.1045  -17.6244  -18.0556 N   0  0  0  0  0  0  0  0  0  0  0  0
   24.4192  -19.7184  -17.0545 C   0  0  0  0  0  0  0  0  0  0  0  0
   24.0551  -20.9297  -17.1347 O   0  0  0  0  0  0  0  0  0  0  0  0
   24.5235  -21.9705   -8.3254 O   0  0  0  0  0  0  0  0  0  0  0  0
   24.6834  -21.3511   -9.5678 C   0  0  0  0  0  0  0  0  0  0  0  0
   23.7254  -20.4930  -10.0611 C   0  0  0  0  0  0  0  0  0  0  0  0
   23.8701  -19.8754  -11.2848 C   0  0  0  0  0  0  0  0  0  0  0  0
   24.9720  -20.0713  -12.0911 C   0  0  0  0  0  0  0  0  0  0  0  0
   25.1707  -19.4293  -13.3991 C   0  0  0  0  0  0  0  0  0  0  0  0
   24.4281  -20.0638  -14.5473 C   0  0  2  0  0  0  0  0  0  0  0  0
   24.6552  -19.2155  -15.7545 N   0  0  0  0  0  0  0  0  0  0  0  0
   22.9883  -20.0601  -14.2843 C   0  0  0  0  0  0  0  0  0  0  0  0
   22.3973  -18.9236  -14.3162 O   0  0  0  0  0  0  0  0  0  0  0  0
   25.9373  -20.9500  -11.5699 C   0  0  0  0  0  0  0  0  0  0  0  0
   25.7979  -21.5690  -10.3495 C   0  0  0  0  0  0  0  0  0  0  0  0
   22.1497  -21.1504  -14.0038 N   0  0  0  0  0  0  0  0  0  0  0  0
   20.7832  -20.9772  -13.6327 C   0  0  1  0  0  0  0  0  0  0  0  0
   19.8898  -20.8020  -14.8477 C   0  0  0  0  0  0  0  0  0  0  0  0
   19.5817  -19.3980  -15.1279 C   0  0  0  0  0  0  0  0  0  0  0  0
   19.2935  -18.5281  -14.2695 O   0  0  0  0  0  0  0  0  0  0  0  0
   20.1821  -21.9994  -12.7907 C   0  0  0  0  0  0  0  0  0  0  0  0
   19.0434  -21.7031  -12.2803 O   0  0  0  0  0  0  0  0  0  0  0  0
   19.6073  -18.9809  -16.4516 O   0  0  0  0  0  0  0  0  0  0  0  0
   20.6597  -23.2372  -12.4643 O   0  0  0  0  0  0  0  0  0  0  0  0
  1  2  1  0
  2  3  1  0
  3  4  1  6
  5  3  1  0
  5  6  1  1
  7  5  1  0
  8  7  2  0
  9 10  1  0
 10 11  2  0
 11 12  1  0
 13 12  2  0
 13 14  1  0
 15 14  1  1
 15 16  1  0
 16  7  1  0
 17 21  1  0
 17 15  1  0
 18 17  2  0
 19 13  1  0
 20 10  1  0
 20 19  2  0
 22 21  1  0
 22 26  1  0
 22 23  1  6
 23 24  1  0
 24 25  2  0
 26 29  1  0
 27 26  2  0
 28 24  1  0
M  END
$$$$
