IYD.pdb
     RDKit          3D

 29 29  0  0  1  0  0  0  0  0999 V2000
   21.7360   -9.8097  -21.4827 C   0  0  0  0  0  0  0  0  0  0  0  0
   22.1522  -10.0770  -20.0672 C   0  0  0  0  0  0  0  0  0  0  0  0
   21.4105   -9.1739  -19.0655 C   0  0  2  0  0  0  0  0  0  0  0  0
   21.6845   -7.7406  -19.3696 C   0  0  0  0  0  0  0  0  0  0  0  0
   21.7626   -9.6075  -17.6633 C   0  0  2  0  0  0  0  0  0  0  0  0
   21.3888  -11.0392  -17.5508 N   0  0  0  0  0  0  0  0  0  0  0  0
   21.1243   -8.8310  -16.5963 C   0  0  0  0  0  0  0  0  0  0  0  0
   20.1424   -9.3681  -16.0015 O   0  0  0  0  0  0  0  0  0  0  0  0
   18.8695   -5.5430   -8.9592 O   0  0  0  0  0  0  0  0  0  0  0  0
   19.4363   -6.0429  -10.1347 C   0  0  0  0  0  0  0  0  0  0  0  0
   20.7082   -5.6796  -10.5192 C   0  0  0  0  0  0  0  0  0  0  0  0
   21.2794   -6.1649  -11.6759 C   0  0  0  0  0  0  0  0  0  0  0  0
   20.6246   -7.0384  -12.5190 C   0  0  0  0  0  0  0  0  0  0  0  0
   21.1971   -7.5856  -13.7582 C   0  0  0  0  0  0  0  0  0  0  0  0
   20.7890   -6.8763  -15.0242 C   0  0  2  0  0  0  0  0  0  0  0  0
   21.4960   -7.5389  -16.1598 N   0  0  0  0  0  0  0  0  0  0  0  0
   21.2378   -5.4835  -14.9926 C   0  0  0  0  0  0  0  0  0  0  0  0
   22.5033   -5.2829  -15.0122 O   0  0  0  0  0  0  0  0  0  0  0  0
   19.3287   -7.3965  -12.1090 C   0  0  0  0  0  0  0  0  0  0  0  0
   18.7539   -6.9151  -10.9558 C   0  0  0  0  0  0  0  0  0  0  0  0
   20.4588   -4.3165  -14.9501 N   0  0  0  0  0  0  0  0  0  0  0  0
   21.0458   -3.0170  -14.9042 C   0  0  1  0  0  0  0  0  0  0  0  0
   20.8508   -2.2670  -16.2097 C   0  0  0  0  0  0  0  0  0  0  0  0
   21.5229   -0.9661  -16.2228 C   0  0  0  0  0  0  0  0  0  0  0  0
   21.0906    0.0849  -15.6885 O   0  0  0  0  0  0  0  0  0  0  0  0
   20.6341   -2.1329  -13.8253 C   0  0  0  0  0  0  0  0  0  0  0  0
   19.4214   -2.2636  -13.4291 O   0  0  0  0  0  0  0  0  0  0  0  0
   22.7429   -0.8737  -16.8784 O   0  0  0  0  0  0  0  0  0  0  0  0
   21.3589   -1.1780  -13.1699 O   0  0  0  0  0  0  0  0  0  0  0  0
  1  2  1  0
  2  3  1  0
  3  4  1  1
  5  3  1  0
  5  6  1  6
  7  5  1  0
  8  7  2  0
  9 10  1  0
 10 11  2  0
 11 12  1  0
 13 12  2  0
 13 14  1  0
 15 14  1  1
 15 16  1  0
 16  7  1  0
 17 21  1  0
 17 15  1  0
 18 17  2  0
 19 13  1  0
 20 10  1  0
 20 19  2  0
 22 21  1  0
 22 26  1  0
 22 23  1  6
 23 24  1  0
 24 25  2  0
 26 29  1  0
 27 26  2  0
 28 24  1  0
M  END
$$$$
