IYD.pdb
     RDKit          3D

 29 29  0  0  1  0  0  0  0  0999 V2000
   47.2624  -12.9875   -6.2201 C   0  0  0  0  0  0  0  0  0  0  0  0
   46.0105  -13.4958   -6.8700 C   0  0  0  0  0  0  0  0  0  0  0  0
   45.0329  -12.3573   -7.2126 C   0  0  2  0  0  0  0  0  0  0  0  0
   44.6977  -11.5842   -5.9829 C   0  0  0  0  0  0  0  0  0  0  0  0
   43.8472  -12.9356   -7.9459 C   0  0  2  0  0  0  0  0  0  0  0  0
   44.3728  -13.5611   -9.1847 N   0  0  0  0  0  0  0  0  0  0  0  0
   42.7912  -11.9728   -8.2724 C   0  0  0  0  0  0  0  0  0  0  0  0
   42.9683  -11.2491   -9.2976 O   0  0  0  0  0  0  0  0  0  0  0  0
   35.5473   -6.7104   -7.0573 O   0  0  0  0  0  0  0  0  0  0  0  0
   36.4633   -7.7625   -7.1408 C   0  0  0  0  0  0  0  0  0  0  0  0
   37.1164   -8.0423   -8.3209 C   0  0  0  0  0  0  0  0  0  0  0  0
   38.0221   -9.0768   -8.4174 C   0  0  0  0  0  0  0  0  0  0  0  0
   38.3340   -9.8942   -7.3509 C   0  0  0  0  0  0  0  0  0  0  0  0
   39.2972  -11.0040   -7.4069 C   0  0  0  0  0  0  0  0  0  0  0  0
   40.6771  -10.6353   -7.8891 C   0  0  2  0  0  0  0  0  0  0  0  0
   41.5884  -11.7702   -7.5576 N   0  0  0  0  0  0  0  0  0  0  0  0
   41.1708   -9.4625   -7.1659 C   0  0  0  0  0  0  0  0  0  0  0  0
   41.4139   -9.6131   -5.9168 O   0  0  0  0  0  0  0  0  0  0  0  0
   37.6570   -9.5922   -6.1567 C   0  0  0  0  0  0  0  0  0  0  0  0
   36.7523   -8.5612   -6.0549 C   0  0  0  0  0  0  0  0  0  0  0  0
   41.4258   -8.1746   -7.6626 N   0  0  0  0  0  0  0  0  0  0  0  0
   41.8599   -7.1105   -6.8173 C   0  0  1  0  0  0  0  0  0  0  0  0
   43.3740   -7.0050   -6.7808 C   0  0  0  0  0  0  0  0  0  0  0  0
   43.8481   -5.9523   -5.8800 C   0  0  0  0  0  0  0  0  0  0  0  0
   43.1211   -5.2286   -5.1557 O   0  0  0  0  0  0  0  0  0  0  0  0
   41.3345   -5.7817   -7.0883 C   0  0  0  0  0  0  0  0  0  0  0  0
   41.3863   -5.4003   -8.3117 O   0  0  0  0  0  0  0  0  0  0  0  0
   45.2158   -5.7252   -5.8121 O   0  0  0  0  0  0  0  0  0  0  0  0
   40.7906   -4.8769   -6.2210 O   0  0  0  0  0  0  0  0  0  0  0  0
  1  2  1  0
  2  3  1  0
  3  4  1  1
  5  3  1  0
  5  6  1  6
  7  5  1  0
  8  7  2  0
  9 10  1  0
 10 11  2  0
 11 12  1  0
 13 12  2  0
 13 14  1  0
 15 14  1  1
 15 16  1  0
 16  7  1  0
 17 21  1  0
 17 15  1  0
 18 17  2  0
 19 13  1  0
 20 10  1  0
 20 19  2  0
 22 21  1  0
 22 26  1  0
 22 23  1  6
 23 24  1  0
 24 25  2  0
 26 29  1  0
 27 26  2  0
 28 24  1  0
M  END
$$$$
