IYD.pdb
     RDKit          3D

 29 29  0  0  1  0  0  0  0  0999 V2000
   18.1373  -18.1922  -17.6258 C   0  0  0  0  0  0  0  0  0  0  0  0
   18.0186  -16.7559  -18.0393 C   0  0  0  0  0  0  0  0  0  0  0  0
   18.8001  -15.8174  -17.1023 C   0  0  2  0  0  0  0  0  0  0  0  0
   18.4018  -16.0610  -15.6867 C   0  0  0  0  0  0  0  0  0  0  0  0
   18.6263  -14.3958  -17.5787 C   0  0  2  0  0  0  0  0  0  0  0  0
   19.1611  -14.3389  -18.9618 N   0  0  0  0  0  0  0  0  0  0  0  0
   19.2719  -13.3793  -16.7428 C   0  0  0  0  0  0  0  0  0  0  0  0
   18.9550  -13.3562  -15.5159 O   0  0  0  0  0  0  0  0  0  0  0  0
   25.2059  -16.1195  -15.2688 O   0  0  0  0  0  0  0  0  0  0  0  0
   24.4929  -14.9544  -15.5639 C   0  0  0  0  0  0  0  0  0  0  0  0
   24.1379  -14.6490  -16.8594 C   0  0  0  0  0  0  0  0  0  0  0  0
   23.4348  -13.5035  -17.1647 C   0  0  0  0  0  0  0  0  0  0  0  0
   23.0423  -12.5937  -16.2049 C   0  0  0  0  0  0  0  0  0  0  0  0
   22.2867  -11.3634  -16.4842 C   0  0  0  0  0  0  0  0  0  0  0  0
   20.8069  -11.4397  -16.2072 C   0  0  2  0  0  0  0  0  0  0  0  0
   20.2186  -12.4192  -17.1679 N   0  0  0  0  0  0  0  0  0  0  0  0
   20.1741  -10.1464  -16.4708 C   0  0  0  0  0  0  0  0  0  0  0  0
   19.9642   -9.8445  -17.6983 O   0  0  0  0  0  0  0  0  0  0  0  0
   23.4143  -12.9236  -14.8903 C   0  0  0  0  0  0  0  0  0  0  0  0
   24.1159  -14.0653  -14.5801 C   0  0  0  0  0  0  0  0  0  0  0  0
   19.7516   -9.1774  -15.5472 N   0  0  0  0  0  0  0  0  0  0  0  0
   19.1336   -7.9593  -15.9589 C   0  0  1  0  0  0  0  0  0  0  0  0
   17.8630   -7.6821  -15.1754 C   0  0  0  0  0  0  0  0  0  0  0  0
   17.2554   -6.3942  -15.5166 C   0  0  0  0  0  0  0  0  0  0  0  0
   17.2044   -5.8924  -16.6666 O   0  0  0  0  0  0  0  0  0  0  0  0
   19.9426   -6.7512  -15.9231 C   0  0  0  0  0  0  0  0  0  0  0  0
   20.9882   -6.8019  -15.1821 O   0  0  0  0  0  0  0  0  0  0  0  0
   16.6835   -5.6554  -14.4900 O   0  0  0  0  0  0  0  0  0  0  0  0
   19.7469   -5.5638  -16.5699 O   0  0  0  0  0  0  0  0  0  0  0  0
  1  2  1  0
  2  3  1  0
  3  4  1  1
  5  3  1  0
  5  6  1  6
  7  5  1  0
  8  7  2  0
  9 10  1  0
 10 11  2  0
 11 12  1  0
 13 12  2  0
 13 14  1  0
 15 14  1  6
 15 16  1  0
 16  7  1  0
 17 21  1  0
 17 15  1  0
 18 17  2  0
 19 13  1  0
 20 10  1  0
 20 19  2  0
 22 21  1  0
 22 26  1  0
 22 23  1  1
 23 24  1  0
 24 25  2  0
 26 29  1  0
 27 26  2  0
 28 24  1  0
M  END
$$$$
