IYD.pdb
     RDKit          3D

 29 29  0  0  1  0  0  0  0  0999 V2000
   25.6661  -20.0290  -19.3489 C   0  0  0  0  0  0  0  0  0  0  0  0
   26.3029  -21.0404  -18.4436 C   0  0  0  0  0  0  0  0  0  0  0  0
   27.7099  -20.6089  -17.9925 C   0  0  2  0  0  0  0  0  0  0  0  0
   28.5844  -20.3957  -19.1807 C   0  0  0  0  0  0  0  0  0  0  0  0
   28.2294  -21.6092  -16.9888 C   0  0  2  0  0  0  0  0  0  0  0  0
   28.2706  -22.9239  -17.6760 N   0  0  0  0  0  0  0  0  0  0  0  0
   27.4493  -21.7076  -15.7518 C   0  0  0  0  0  0  0  0  0  0  0  0
   26.6560  -22.6905  -15.6476 O   0  0  0  0  0  0  0  0  0  0  0  0
   24.7001  -20.5116   -7.2448 O   0  0  0  0  0  0  0  0  0  0  0  0
   25.3464  -20.4483   -8.4822 C   0  0  0  0  0  0  0  0  0  0  0  0
   25.7912  -21.5912   -9.1093 C   0  0  0  0  0  0  0  0  0  0  0  0
   26.4301  -21.5434  -10.3297 C   0  0  0  0  0  0  0  0  0  0  0  0
   26.6655  -20.3611  -11.0002 C   0  0  0  0  0  0  0  0  0  0  0  0
   27.3369  -20.2638  -12.3049 C   0  0  0  0  0  0  0  0  0  0  0  0
   26.7226  -21.0871  -13.4082 C   0  0  2  0  0  0  0  0  0  0  0  0
   27.4940  -20.8144  -14.6569 N   0  0  0  0  0  0  0  0  0  0  0  0
   25.3442  -20.6598  -13.6528 C   0  0  0  0  0  0  0  0  0  0  0  0
   25.1815  -19.6275  -14.3944 O   0  0  0  0  0  0  0  0  0  0  0  0
   26.2042  -19.2071  -10.3436 C   0  0  0  0  0  0  0  0  0  0  0  0
   25.5662  -19.2491   -9.1258 C   0  0  0  0  0  0  0  0  0  0  0  0
   24.1548  -21.2397  -13.1843 N   0  0  0  0  0  0  0  0  0  0  0  0
   22.8758  -20.6740  -13.4662 C   0  0  1  0  0  0  0  0  0  0  0  0
   22.1962  -21.3752  -14.6287 C   0  0  0  0  0  0  0  0  0  0  0  0
   22.3353  -20.6460  -15.8910 C   0  0  0  0  0  0  0  0  0  0  0  0
   22.8691  -19.5176  -16.0278 O   0  0  0  0  0  0  0  0  0  0  0  0
   21.9171  -20.6061  -12.3746 C   0  0  0  0  0  0  0  0  0  0  0  0
   21.5023  -21.7336  -11.9257 O   0  0  0  0  0  0  0  0  0  0  0  0
   21.8387  -21.2425  -17.0419 O   0  0  0  0  0  0  0  0  0  0  0  0
   21.3926  -19.5068  -11.7556 O   0  0  0  0  0  0  0  0  0  0  0  0
  1  2  1  0
  2  3  1  0
  3  4  1  6
  5  3  1  0
  5  6  1  6
  7  5  1  0
  8  7  2  0
  9 10  1  0
 10 11  2  0
 11 12  1  0
 13 12  2  0
 13 14  1  0
 15 14  1  1
 15 16  1  0
 16  7  1  0
 17 21  1  0
 17 15  1  0
 18 17  2  0
 19 13  1  0
 20 10  1  0
 20 19  2  0
 22 21  1  0
 22 26  1  0
 22 23  1  6
 23 24  1  0
 24 25  2  0
 26 29  1  0
 27 26  2  0
 28 24  1  0
M  END
$$$$
