IYD.pdb
     RDKit          3D

 29 29  0  0  1  0  0  0  0  0999 V2000
   28.7373  -10.3582  -17.4246 C   0  0  0  0  0  0  0  0  0  0  0  0
   27.8903  -11.2247  -16.5414 C   0  0  0  0  0  0  0  0  0  0  0  0
   26.4050  -10.8238  -16.5898 C   0  0  2  0  0  0  0  0  0  0  0  0
   26.2566   -9.3739  -16.2769 C   0  0  0  0  0  0  0  0  0  0  0  0
   25.6188  -11.7530  -15.6974 C   0  0  2  0  0  0  0  0  0  0  0  0
   25.9456  -13.1361  -16.1247 N   0  0  0  0  0  0  0  0  0  0  0  0
   24.1676  -11.5466  -15.7136 C   0  0  0  0  0  0  0  0  0  0  0  0
   23.5327  -11.9973  -16.7136 O   0  0  0  0  0  0  0  0  0  0  0  0
   20.6610  -17.1059  -14.7789 O   0  0  0  0  0  0  0  0  0  0  0  0
   20.8074  -15.7390  -14.5284 C   0  0  0  0  0  0  0  0  0  0  0  0
   21.7980  -15.2733  -13.6920 C   0  0  0  0  0  0  0  0  0  0  0  0
   21.9538  -13.9279  -13.4361 C   0  0  0  0  0  0  0  0  0  0  0  0
   21.1380  -12.9654  -13.9935 C   0  0  0  0  0  0  0  0  0  0  0  0
   21.2716  -11.5206  -13.7537 C   0  0  0  0  0  0  0  0  0  0  0  0
   21.9229  -10.7405  -14.8671 C   0  0  2  0  0  0  0  0  0  0  0  0
   23.4005  -10.8949  -14.7210 N   0  0  0  0  0  0  0  0  0  0  0  0
   21.6241   -9.3143  -14.7294 C   0  0  0  0  0  0  0  0  0  0  0  0
   22.5240   -8.5850  -14.1813 O   0  0  0  0  0  0  0  0  0  0  0  0
   20.1341  -13.4611  -14.8433 C   0  0  0  0  0  0  0  0  0  0  0  0
   19.9741  -14.8024  -15.1021 C   0  0  0  0  0  0  0  0  0  0  0  0
   20.4701   -8.6220  -15.1287 N   0  0  0  0  0  0  0  0  0  0  0  0
   20.4266   -7.1974  -15.1908 C   0  0  1  0  0  0  0  0  0  0  0  0
   21.6020   -6.6338  -15.9691 C   0  0  0  0  0  0  0  0  0  0  0  0
   21.6033   -5.1701  -16.0144 C   0  0  0  0  0  0  0  0  0  0  0  0
   21.0137   -4.4652  -16.8701 O   0  0  0  0  0  0  0  0  0  0  0  0
   19.2176   -6.5857  -15.7192 C   0  0  0  0  0  0  0  0  0  0  0  0
   18.6650   -7.1993  -16.7005 O   0  0  0  0  0  0  0  0  0  0  0  0
   22.3133   -4.4923  -15.0329 O   0  0  0  0  0  0  0  0  0  0  0  0
   18.5828   -5.4446  -15.3171 O   0  0  0  0  0  0  0  0  0  0  0  0
  1  2  1  0
  2  3  1  0
  3  4  1  1
  5  3  1  0
  5  6  1  6
  7  5  1  0
  8  7  2  0
  9 10  1  0
 10 11  2  0
 11 12  1  0
 13 12  2  0
 13 14  1  0
 15 14  1  1
 15 16  1  0
 16  7  1  0
 17 21  1  0
 17 15  1  0
 18 17  2  0
 19 13  1  0
 20 10  1  0
 20 19  2  0
 22 21  1  0
 22 26  1  0
 22 23  1  6
 23 24  1  0
 24 25  2  0
 26 29  1  0
 27 26  2  0
 28 24  1  0
M  END
$$$$
