IYD.pdb
     RDKit          3D

 29 29  0  0  1  0  0  0  0  0999 V2000
   29.4363  -17.5096  -15.9618 C   0  0  0  0  0  0  0  0  0  0  0  0
   27.9424  -17.4846  -15.8360 C   0  0  0  0  0  0  0  0  0  0  0  0
   27.4107  -18.6735  -15.0156 C   0  0  2  0  0  0  0  0  0  0  0  0
   27.9942  -19.9473  -15.5247 C   0  0  0  0  0  0  0  0  0  0  0  0
   25.9023  -18.6226  -15.0029 C   0  0  2  0  0  0  0  0  0  0  0  0
   25.5226  -17.3095  -14.4254 N   0  0  0  0  0  0  0  0  0  0  0  0
   25.2522  -19.7090  -14.2640 C   0  0  0  0  0  0  0  0  0  0  0  0
   25.3806  -20.8803  -14.7304 O   0  0  0  0  0  0  0  0  0  0  0  0
   29.4341  -21.1046   -9.1307 O   0  0  0  0  0  0  0  0  0  0  0  0
   28.1139  -20.9888   -9.5741 C   0  0  0  0  0  0  0  0  0  0  0  0
   27.1997  -20.2210   -8.8869 C   0  0  0  0  0  0  0  0  0  0  0  0
   25.8946  -20.0980   -9.3128 C   0  0  0  0  0  0  0  0  0  0  0  0
   25.4189  -20.7279  -10.4441 C   0  0  0  0  0  0  0  0  0  0  0  0
   24.0380  -20.6199  -10.9382 C   0  0  0  0  0  0  0  0  0  0  0  0
   23.8735  -20.7747  -12.4286 C   0  0  2  0  0  0  0  0  0  0  0  0
   24.4951  -19.5823  -13.0768 N   0  0  0  0  0  0  0  0  0  0  0  0
   22.4541  -20.7668  -12.7859 C   0  0  0  0  0  0  0  0  0  0  0  0
   21.8382  -19.6476  -12.6845 O   0  0  0  0  0  0  0  0  0  0  0  0
   26.3670  -21.5060  -11.1304 C   0  0  0  0  0  0  0  0  0  0  0  0
   27.6705  -21.6324  -10.7098 C   0  0  0  0  0  0  0  0  0  0  0  0
   21.6624  -21.8337  -13.2390 N   0  0  0  0  0  0  0  0  0  0  0  0
   20.2771  -21.6728  -13.5396 C   0  0  1  0  0  0  0  0  0  0  0  0
   19.8790  -22.4489  -14.7823 C   0  0  0  0  0  0  0  0  0  0  0  0
   19.5135  -21.5788  -15.9020 C   0  0  0  0  0  0  0  0  0  0  0  0
   19.4975  -20.3235  -15.8766 O   0  0  0  0  0  0  0  0  0  0  0  0
   19.3214  -22.0004  -12.4936 C   0  0  0  0  0  0  0  0  0  0  0  0
   19.6468  -22.9750  -11.7260 O   0  0  0  0  0  0  0  0  0  0  0  0
   19.1519  -22.1812  -17.0992 O   0  0  0  0  0  0  0  0  0  0  0  0
   18.1200  -21.4148  -12.2100 O   0  0  0  0  0  0  0  0  0  0  0  0
  1  2  1  0
  2  3  1  0
  3  4  1  6
  5  3  1  0
  5  6  1  1
  7  5  1  0
  8  7  2  0
  9 10  1  0
 10 11  2  0
 11 12  1  0
 13 12  2  0
 13 14  1  0
 15 14  1  1
 15 16  1  0
 16  7  1  0
 17 21  1  0
 17 15  1  0
 18 17  2  0
 19 13  1  0
 20 10  1  0
 20 19  2  0
 22 21  1  0
 22 26  1  0
 22 23  1  6
 23 24  1  0
 24 25  2  0
 26 29  1  0
 27 26  2  0
 28 24  1  0
M  END
$$$$
