IYD.pdb
     RDKit          3D

 29 29  0  0  1  0  0  0  0  0999 V2000
   29.8563  -18.1485  -15.3925 C   0  0  0  0  0  0  0  0  0  0  0  0
   28.3571  -18.1321  -15.3762 C   0  0  0  0  0  0  0  0  0  0  0  0
   27.7740  -19.3116  -14.5774 C   0  0  2  0  0  0  0  0  0  0  0  0
   28.3971  -20.5897  -15.0250 C   0  0  0  0  0  0  0  0  0  0  0  0
   26.2682  -19.2684  -14.6714 C   0  0  2  0  0  0  0  0  0  0  0  0
   25.8649  -17.8583  -14.4452 N   0  0  0  0  0  0  0  0  0  0  0  0
   25.5639  -20.1534  -13.7389 C   0  0  0  0  0  0  0  0  0  0  0  0
   25.7335  -21.4004  -13.8887 O   0  0  0  0  0  0  0  0  0  0  0  0
   29.1339  -20.7083   -7.8442 O   0  0  0  0  0  0  0  0  0  0  0  0
   27.8907  -20.6071   -8.4743 C   0  0  0  0  0  0  0  0  0  0  0  0
   27.5047  -21.5186   -9.4323 C   0  0  0  0  0  0  0  0  0  0  0  0
   26.2816  -21.4307  -10.0617 C   0  0  0  0  0  0  0  0  0  0  0  0
   25.3695  -20.4353   -9.7789 C   0  0  0  0  0  0  0  0  0  0  0  0
   24.0524  -20.3068  -10.4204 C   0  0  0  0  0  0  0  0  0  0  0  0
   23.9877  -20.7640  -11.8554 C   0  0  2  0  0  0  0  0  0  0  0  0
   24.7126  -19.7550  -12.6829 N   0  0  0  0  0  0  0  0  0  0  0  0
   22.5997  -20.7832  -12.3196 C   0  0  0  0  0  0  0  0  0  0  0  0
   22.2339  -19.8263  -13.0894 O   0  0  0  0  0  0  0  0  0  0  0  0
   25.7824  -19.5159   -8.7992 C   0  0  0  0  0  0  0  0  0  0  0  0
   27.0017  -19.5988   -8.1682 C   0  0  0  0  0  0  0  0  0  0  0  0
   21.5985  -21.7262  -12.0384 N   0  0  0  0  0  0  0  0  0  0  0  0
   20.3705  -21.7641  -12.7635 C   0  0  1  0  0  0  0  0  0  0  0  0
   20.5779  -22.2290  -14.1939 C   0  0  0  0  0  0  0  0  0  0  0  0
   19.6995  -21.5458  -15.1457 C   0  0  0  0  0  0  0  0  0  0  0  0
   19.4367  -21.9388  -16.3091 O   0  0  0  0  0  0  0  0  0  0  0  0
   19.2833  -22.5492  -12.2009 C   0  0  0  0  0  0  0  0  0  0  0  0
   19.2120  -22.5661  -10.9205 O   0  0  0  0  0  0  0  0  0  0  0  0
   19.1000  -20.3617  -14.7392 O   0  0  0  0  0  0  0  0  0  0  0  0
   18.3217  -23.2752  -12.8451 O   0  0  0  0  0  0  0  0  0  0  0  0
  1  2  1  0
  2  3  1  0
  3  4  1  6
  5  3  1  0
  5  6  1  1
  7  5  1  0
  8  7  2  0
  9 10  1  0
 10 11  2  0
 11 12  1  0
 13 12  2  0
 13 14  1  0
 15 14  1  1
 15 16  1  0
 16  7  1  0
 17 21  1  0
 17 15  1  0
 18 17  2  0
 19 13  1  0
 20 10  1  0
 20 19  2  0
 22 21  1  0
 22 26  1  0
 22 23  1  6
 23 24  1  0
 24 25  2  0
 26 29  1  0
 27 26  2  0
 28 24  1  0
M  END
$$$$
