MLS.pdb
     RDKit          3D

 23 22  0  0  1  0  0  0  0  0999 V2000
   31.7770  -29.0152  -22.4634 C   0  0  0  0  0  0  0  0  0  0  0  0
   32.3352  -28.0662  -21.0177 S   0  0  0  0  0  0  0  0  0  0  0  0
   33.6448  -29.0208  -20.2146 C   0  0  0  0  0  0  0  0  0  0  0  0
   33.0732  -30.3763  -19.8709 C   0  0  0  0  0  0  0  0  0  0  0  0
   33.1250  -30.5276  -18.3675 C   0  0  2  0  0  0  0  0  0  0  0  0
   34.4632  -30.9312  -18.0031 N   0  0  0  0  0  0  0  0  0  0  0  0
   32.1246  -31.6026  -18.0297 C   0  0  0  0  0  0  0  0  0  0  0  0
   32.4580  -32.8129  -18.0965 O   0  0  0  0  0  0  0  0  0  0  0  0
   28.3174  -33.6718  -15.2632 C   0  0  0  0  0  0  0  0  0  0  0  0
   27.7478  -32.5397  -16.1026 C   0  0  1  0  0  0  0  0  0  0  0  0
   26.6488  -31.8167  -15.3631 C   0  0  0  0  0  0  0  0  0  0  0  0
   28.8465  -31.5495  -16.3918 C   0  0  0  0  0  0  0  0  0  0  0  0
   29.8312  -32.1781  -17.3310 C   0  0  2  0  0  0  0  0  0  0  0  0
   30.8337  -31.1825  -17.6466 N   0  0  0  0  0  0  0  0  0  0  0  0
   29.1670  -32.6098  -18.6016 C   0  0  0  0  0  0  0  0  0  0  0  0
   28.8114  -31.7626  -19.4504 O   0  0  0  0  0  0  0  0  0  0  0  0
   28.0621  -36.3172  -21.4170 O   0  0  0  0  0  0  0  0  0  0  0  0
   28.5952  -35.9026  -20.1866 C   0  0  0  0  0  0  0  0  0  0  0  0
   28.3514  -34.4186  -20.0696 C   0  0  2  0  0  0  0  0  0  0  0  0
   28.9538  -33.9821  -18.8167 N   0  0  0  0  0  0  0  0  0  0  0  0
   26.8855  -34.1666  -19.9850 C   0  0  0  0  0  0  0  0  0  0  0  0
   26.1415  -33.9334  -21.1440 O   0  0  0  0  0  0  0  0  0  0  0  0
   26.2844  -34.1560  -18.8914 O   0  0  0  0  0  0  0  0  0  0  0  0
  1  2  1  0
  3  2  1  0
  4  3  1  0
  5  4  1  0
  5  6  1  6
  7  8  2  0
  7  5  1  0
 10  9  1  1
 10 11  1  0
 12 10  1  0
 13 12  1  1
 13 14  1  0
 14  7  1  0
 15 20  1  0
 15 13  1  0
 16 15  2  0
 19 18  1  1
 18 17  1  0
 19 20  1  0
 19 21  1  0
 21 22  1  0
 23 21  2  0
M  END
$$$$
