MLS.pdb
     RDKit          3D

 23 22  0  0  1  0  0  0  0  0999 V2000
   15.7959  -13.2156  -15.2834 C   0  0  0  0  0  0  0  0  0  0  0  0
   16.6313  -14.0397  -16.6710 S   0  0  0  0  0  0  0  0  0  0  0  0
   17.5633  -12.7773  -17.5704 C   0  0  0  0  0  0  0  0  0  0  0  0
   18.3755  -12.0048  -16.5577 C   0  0  0  0  0  0  0  0  0  0  0  0
   19.0813  -10.8877  -17.2924 C   0  0  2  0  0  0  0  0  0  0  0  0
   19.7720  -11.4614  -18.4240 N   0  0  0  0  0  0  0  0  0  0  0  0
   20.0558  -10.3000  -16.3047 C   0  0  0  0  0  0  0  0  0  0  0  0
   19.6344   -9.7892  -15.2361 O   0  0  0  0  0  0  0  0  0  0  0  0
   24.3451  -10.5850  -13.8031 C   0  0  0  0  0  0  0  0  0  0  0  0
   24.7078   -9.8073  -15.0578 C   0  0  1  0  0  0  0  0  0  0  0  0
   26.1037  -10.1457  -15.5206 C   0  0  0  0  0  0  0  0  0  0  0  0
   23.7471  -10.1830  -16.1565 C   0  0  0  0  0  0  0  0  0  0  0  0
   22.3852   -9.6617  -15.8093 C   0  0  2  0  0  0  0  0  0  0  0  0
   21.4246  -10.3558  -16.6408 N   0  0  0  0  0  0  0  0  0  0  0  0
   22.2827   -8.1929  -16.0814 C   0  0  0  0  0  0  0  0  0  0  0  0
   22.5319   -7.7405  -17.2206 O   0  0  0  0  0  0  0  0  0  0  0  0
   19.8439   -5.9022  -16.4392 O   0  0  0  0  0  0  0  0  0  0  0  0
   20.4266   -5.4751  -15.2359 C   0  0  0  0  0  0  0  0  0  0  0  0
   21.8734   -5.9008  -15.2624 C   0  0  2  0  0  0  0  0  0  0  0  0
   21.9019   -7.3393  -15.0319 N   0  0  0  0  0  0  0  0  0  0  0  0
   22.5998   -5.2430  -14.1402 C   0  0  0  0  0  0  0  0  0  0  0  0
   23.0331   -5.9928  -13.0442 O   0  0  0  0  0  0  0  0  0  0  0  0
   22.8407   -4.0185  -14.1438 O   0  0  0  0  0  0  0  0  0  0  0  0
  1  2  1  0
  3  2  1  0
  4  3  1  0
  5  4  1  0
  5  6  1  6
  7  8  2  0
  7  5  1  0
 10  9  1  1
 10 11  1  0
 12 10  1  0
 13 12  1  6
 13 14  1  0
 14  7  1  0
 15 20  1  0
 15 13  1  0
 16 15  2  0
 19 18  1  1
 18 17  1  0
 19 20  1  0
 19 21  1  0
 21 22  1  0
 23 21  2  0
M  END
$$$$
