MLS.pdb
     RDKit          3D

 23 22  0  0  1  0  0  0  0  0999 V2000
   20.8332  -21.2780   -9.0705 C   0  0  0  0  0  0  0  0  0  0  0  0
   21.6006  -21.6453   -7.4647 S   0  0  0  0  0  0  0  0  0  0  0  0
   23.3931  -21.6395   -7.7058 C   0  0  0  0  0  0  0  0  0  0  0  0
   23.6700  -20.9819   -9.0374 C   0  0  0  0  0  0  0  0  0  0  0  0
   25.1704  -20.9043   -9.2069 C   0  0  2  0  0  0  0  0  0  0  0  0
   25.7029  -20.1051   -8.1278 N   0  0  0  0  0  0  0  0  0  0  0  0
   25.3978  -20.2364  -10.5383 C   0  0  0  0  0  0  0  0  0  0  0  0
   25.1396  -19.0142  -10.6791 O   0  0  0  0  0  0  0  0  0  0  0  0
   29.7865  -21.4296  -13.3483 C   0  0  0  0  0  0  0  0  0  0  0  0
   28.5962  -20.6840  -12.7669 C   0  0  1  0  0  0  0  0  0  0  0  0
   28.7331  -19.1960  -12.9779 C   0  0  0  0  0  0  0  0  0  0  0  0
   27.3451  -21.1429  -13.4707 C   0  0  0  0  0  0  0  0  0  0  0  0
   26.1655  -20.4372  -12.8727 C   0  0  2  0  0  0  0  0  0  0  0  0
   25.9016  -21.0394  -11.5829 N   0  0  0  0  0  0  0  0  0  0  0  0
   24.9496  -20.5920  -13.7325 C   0  0  0  0  0  0  0  0  0  0  0  0
   24.2870  -21.6527  -13.7081 O   0  0  0  0  0  0  0  0  0  0  0  0
   21.6546  -18.3676  -16.3418 O   0  0  0  0  0  0  0  0  0  0  0  0
   22.8177  -18.2536  -15.5646 C   0  0  0  0  0  0  0  0  0  0  0  0
   23.3674  -19.6451  -15.3734 C   0  0  2  0  0  0  0  0  0  0  0  0
   24.5724  -19.5231  -14.5633 N   0  0  0  0  0  0  0  0  0  0  0  0
   23.7605  -20.2044  -16.6971 C   0  0  0  0  0  0  0  0  0  0  0  0
   22.8754  -21.0151  -17.4117 O   0  0  0  0  0  0  0  0  0  0  0  0
   24.8772  -19.9696  -17.2024 O   0  0  0  0  0  0  0  0  0  0  0  0
  1  2  1  0
  3  2  1  0
  4  3  1  0
  5  4  1  0
  5  6  1  1
  7  8  2  0
  7  5  1  0
 10  9  1  6
 10 11  1  0
 12 10  1  0
 13 12  1  6
 13 14  1  0
 14  7  1  0
 15 20  1  0
 15 13  1  0
 16 15  2  0
 19 18  1  6
 18 17  1  0
 19 20  1  0
 19 21  1  0
 21 22  1  0
 23 21  2  0
M  END
$$$$
