MLS.pdb
     RDKit          3D

 23 22  0  0  1  0  0  0  0  0999 V2000
   17.9667  -26.1338   -6.2373 C   0  0  0  0  0  0  0  0  0  0  0  0
   18.4287  -24.3784   -6.3233 S   0  0  0  0  0  0  0  0  0  0  0  0
   18.8377  -24.0087   -8.0458 C   0  0  0  0  0  0  0  0  0  0  0  0
   19.3472  -22.5875   -8.0967 C   0  0  0  0  0  0  0  0  0  0  0  0
   19.7326  -22.2897   -9.5280 C   0  0  2  0  0  0  0  0  0  0  0  0
   20.2309  -23.5089  -10.1212 N   0  0  0  0  0  0  0  0  0  0  0  0
   20.8144  -21.2436   -9.4514 C   0  0  0  0  0  0  0  0  0  0  0  0
   20.5282  -20.0697   -9.1045 O   0  0  0  0  0  0  0  0  0  0  0  0
   25.3724  -19.2236   -8.4118 C   0  0  0  0  0  0  0  0  0  0  0  0
   25.5803  -20.3651   -9.3938 C   0  0  1  0  0  0  0  0  0  0  0  0
   26.8512  -21.1189   -9.0873 C   0  0  0  0  0  0  0  0  0  0  0  0
   24.4259  -21.3263   -9.2724 C   0  0  0  0  0  0  0  0  0  0  0  0
   23.1863  -20.6638   -9.7934 C   0  0  2  0  0  0  0  0  0  0  0  0
   22.1247  -21.6482   -9.7816 N   0  0  0  0  0  0  0  0  0  0  0  0
   23.3795  -20.1832  -11.1983 C   0  0  0  0  0  0  0  0  0  0  0  0
   24.4779  -19.7059  -11.5594 O   0  0  0  0  0  0  0  0  0  0  0  0
   22.7985  -21.9223  -14.3000 O   0  0  0  0  0  0  0  0  0  0  0  0
   23.4247  -20.6733  -14.1659 C   0  0  0  0  0  0  0  0  0  0  0  0
   22.4594  -19.7623  -13.4495 C   0  0  2  0  0  0  0  0  0  0  0  0
   22.3033  -20.2807  -12.0967 N   0  0  0  0  0  0  0  0  0  0  0  0
   21.1311  -19.8282  -14.1210 C   0  0  0  0  0  0  0  0  0  0  0  0
   20.0212  -20.3357  -13.4416 O   0  0  0  0  0  0  0  0  0  0  0  0
   20.9703  -19.4375  -15.2953 O   0  0  0  0  0  0  0  0  0  0  0  0
  1  2  1  0
  3  2  1  0
  4  3  1  0
  5  4  1  0
  5  6  1  1
  7  8  2  0
  7  5  1  0
 10  9  1  1
 10 11  1  0
 12 10  1  0
 13 12  1  6
 13 14  1  0
 14  7  1  0
 15 20  1  0
 15 13  1  0
 16 15  2  0
 19 18  1  6
 18 17  1  0
 19 20  1  0
 19 21  1  0
 21 22  1  0
 23 21  2  0
M  END
$$$$
