MLS.pdb
     RDKit          3D

 23 22  0  0  1  0  0  0  0  0999 V2000
   20.4434  -20.0060   -8.6347 C   0  0  0  0  0  0  0  0  0  0  0  0
   21.1364  -21.5566   -7.9883 S   0  0  0  0  0  0  0  0  0  0  0  0
   22.9331  -21.3609   -7.9193 C   0  0  0  0  0  0  0  0  0  0  0  0
   23.3976  -20.9440   -9.2949 C   0  0  0  0  0  0  0  0  0  0  0  0
   24.8961  -20.7523   -9.2340 C   0  0  2  0  0  0  0  0  0  0  0  0
   25.1744  -19.6880   -8.2978 N   0  0  0  0  0  0  0  0  0  0  0  0
   25.3168  -20.3696  -10.6293 C   0  0  0  0  0  0  0  0  0  0  0  0
   24.9866  -19.2514  -11.0995 O   0  0  0  0  0  0  0  0  0  0  0  0
   30.2318  -21.4538  -12.1072 C   0  0  0  0  0  0  0  0  0  0  0  0
   28.8627  -20.8019  -12.0008 C   0  0  1  0  0  0  0  0  0  0  0  0
   28.9036  -19.3734  -12.4857 C   0  0  0  0  0  0  0  0  0  0  0  0
   27.8939  -21.5628  -12.8690 C   0  0  0  0  0  0  0  0  0  0  0  0
   26.5234  -20.9824  -12.6903 C   0  0  2  0  0  0  0  0  0  0  0  0
   26.0787  -21.3111  -11.3523 N   0  0  0  0  0  0  0  0  0  0  0  0
   25.5567  -21.5653  -13.6741 C   0  0  0  0  0  0  0  0  0  0  0  0
   25.5013  -22.8022  -13.8514 O   0  0  0  0  0  0  0  0  0  0  0  0
   21.6731  -20.9091  -14.0124 O   0  0  0  0  0  0  0  0  0  0  0  0
   22.6494  -21.8795  -14.2863 C   0  0  0  0  0  0  0  0  0  0  0  0
   23.6564  -21.2521  -15.2177 C   0  0  2  0  0  0  0  0  0  0  0  0
   24.7177  -20.6941  -14.3897 N   0  0  0  0  0  0  0  0  0  0  0  0
   23.0116  -20.1287  -15.9538 C   0  0  0  0  0  0  0  0  0  0  0  0
   23.4803  -18.8220  -15.7985 O   0  0  0  0  0  0  0  0  0  0  0  0
   22.0459  -20.3168  -16.7216 O   0  0  0  0  0  0  0  0  0  0  0  0
  1  2  1  0
  3  2  1  0
  4  3  1  0
  5  4  1  0
  5  6  1  1
  7  8  2  0
  7  5  1  0
 10  9  1  6
 10 11  1  0
 12 10  1  0
 13 12  1  6
 13 14  1  0
 14  7  1  0
 15 20  1  0
 15 13  1  0
 16 15  2  0
 19 18  1  1
 18 17  1  0
 19 20  1  0
 19 21  1  0
 21 22  1  0
 23 21  2  0
M  END
$$$$
