MLS.pdb
     RDKit          3D

 23 22  0  0  1  0  0  0  0  0999 V2000
   24.9249  -15.4030  -16.6987 C   0  0  0  0  0  0  0  0  0  0  0  0
   26.4567  -14.9678  -15.8233 S   0  0  0  0  0  0  0  0  0  0  0  0
   27.3648  -16.5028  -15.5229 C   0  0  0  0  0  0  0  0  0  0  0  0
   26.3496  -17.5783  -15.2151 C   0  0  0  0  0  0  0  0  0  0  0  0
   27.1086  -18.8388  -14.8670 C   0  0  2  0  0  0  0  0  0  0  0  0
   27.7068  -19.3510  -16.0779 N   0  0  0  0  0  0  0  0  0  0  0  0
   26.0815  -19.7978  -14.3231 C   0  0  0  0  0  0  0  0  0  0  0  0
   25.6113  -20.6991  -15.0627 O   0  0  0  0  0  0  0  0  0  0  0  0
   26.8399  -21.5010  -11.0693 C   0  0  0  0  0  0  0  0  0  0  0  0
   25.5408  -21.3762  -10.2899 C   0  0  1  0  0  0  0  0  0  0  0  0
   25.8035  -20.9712   -8.8601 C   0  0  0  0  0  0  0  0  0  0  0  0
   24.6915  -20.3082  -10.9297 C   0  0  0  0  0  0  0  0  0  0  0  0
   24.6933  -20.5121  -12.4148 C   0  0  2  0  0  0  0  0  0  0  0  0
   25.6925  -19.6287  -12.9778 N   0  0  0  0  0  0  0  0  0  0  0  0
   23.3618  -20.1715  -13.0091 C   0  0  0  0  0  0  0  0  0  0  0  0
   22.9849  -18.9808  -13.0790 O   0  0  0  0  0  0  0  0  0  0  0  0
   21.7243  -22.9400  -15.2105 O   0  0  0  0  0  0  0  0  0  0  0  0
   21.2858  -21.6312  -15.4645 C   0  0  0  0  0  0  0  0  0  0  0  0
   21.2950  -20.8920  -14.1497 C   0  0  2  0  0  0  0  0  0  0  0  0
   22.5500  -21.2157  -13.4840 N   0  0  0  0  0  0  0  0  0  0  0  0
   20.1815  -21.3936  -13.2963 C   0  0  0  0  0  0  0  0  0  0  0  0
   18.8532  -21.1884  -13.6767 O   0  0  0  0  0  0  0  0  0  0  0  0
   20.3972  -22.0043  -12.2296 O   0  0  0  0  0  0  0  0  0  0  0  0
  1  2  1  0
  3  2  1  0
  4  3  1  0
  5  4  1  0
  5  6  1  6
  7  8  2  0
  7  5  1  0
 10  9  1  6
 10 11  1  0
 12 10  1  0
 13 12  1  1
 13 14  1  0
 14  7  1  0
 15 20  1  0
 15 13  1  0
 16 15  2  0
 19 18  1  6
 18 17  1  0
 19 20  1  0
 19 21  1  0
 21 22  1  0
 23 21  2  0
M  END
$$$$
