MLS.pdb
     RDKit          3D

 23 22  0  0  1  0  0  0  0  0999 V2000
   28.5684  -13.0669  -16.9960 C   0  0  0  0  0  0  0  0  0  0  0  0
   27.9060  -13.2465  -15.3133 S   0  0  0  0  0  0  0  0  0  0  0  0
   26.1194  -13.4887  -15.4563 C   0  0  0  0  0  0  0  0  0  0  0  0
   25.5565  -12.2944  -16.1904 C   0  0  0  0  0  0  0  0  0  0  0  0
   24.0676  -12.5096  -16.3417 C   0  0  2  0  0  0  0  0  0  0  0  0
   23.8649  -13.6781  -17.1664 N   0  0  0  0  0  0  0  0  0  0  0  0
   23.5420  -11.2708  -17.0197 C   0  0  0  0  0  0  0  0  0  0  0  0
   23.5440  -11.1938  -18.2745 O   0  0  0  0  0  0  0  0  0  0  0  0
   20.9401   -8.2583  -19.4088 C   0  0  0  0  0  0  0  0  0  0  0  0
   20.3108   -8.6144  -18.0718 C   0  0  1  0  0  0  0  0  0  0  0  0
   18.8920   -9.0962  -18.2518 C   0  0  0  0  0  0  0  0  0  0  0  0
   21.1065   -9.7288  -17.4422 C   0  0  0  0  0  0  0  0  0  0  0  0
   22.3166   -9.1451  -16.7774 C   0  0  2  0  0  0  0  0  0  0  0  0
   23.0632  -10.2367  -16.1884 N   0  0  0  0  0  0  0  0  0  0  0  0
   21.9293   -8.1883  -15.6927 C   0  0  0  0  0  0  0  0  0  0  0  0
   21.4659   -8.6110  -14.6104 O   0  0  0  0  0  0  0  0  0  0  0  0
   22.5825   -3.8813  -13.8713 O   0  0  0  0  0  0  0  0  0  0  0  0
   22.8370   -4.7711  -14.9264 C   0  0  0  0  0  0  0  0  0  0  0  0
   21.8135   -5.8756  -14.8382 C   0  0  2  0  0  0  0  0  0  0  0  0
   22.0977   -6.8115  -15.9183 N   0  0  0  0  0  0  0  0  0  0  0  0
   20.4560   -5.3073  -15.0703 C   0  0  0  0  0  0  0  0  0  0  0  0
   19.5794   -5.1142  -14.0001 O   0  0  0  0  0  0  0  0  0  0  0  0
   20.0646   -4.9903  -16.2121 O   0  0  0  0  0  0  0  0  0  0  0  0
  1  2  1  0
  3  2  1  0
  4  3  1  0
  5  4  1  0
  5  6  1  6
  7  8  2  0
  7  5  1  0
 10  9  1  6
 10 11  1  0
 12 10  1  0
 13 12  1  1
 13 14  1  0
 14  7  1  0
 15 20  1  0
 15 13  1  0
 16 15  2  0
 19 18  1  6
 18 17  1  0
 19 20  1  0
 19 21  1  0
 21 22  1  0
 23 21  2  0
M  END
$$$$
