MLS.pdb
     RDKit          3D

 23 22  0  0  1  0  0  0  0  0999 V2000
   20.0665   -9.1291  -16.1878 C   0  0  0  0  0  0  0  0  0  0  0  0
   19.7351  -10.8791  -16.5479 S   0  0  0  0  0  0  0  0  0  0  0  0
   18.6847  -11.5168  -15.2207 C   0  0  0  0  0  0  0  0  0  0  0  0
   17.9098  -10.3501  -14.6547 C   0  0  0  0  0  0  0  0  0  0  0  0
   17.0483  -10.8753  -13.5287 C   0  0  2  0  0  0  0  0  0  0  0  0
   16.1747  -11.8911  -14.0687 N   0  0  0  0  0  0  0  0  0  0  0  0
   16.2594   -9.6920  -13.0308 C   0  0  0  0  0  0  0  0  0  0  0  0
   15.3036   -9.2434  -13.7131 O   0  0  0  0  0  0  0  0  0  0  0  0
   13.7840   -7.1474   -9.3781 C   0  0  0  0  0  0  0  0  0  0  0  0
   15.2704   -6.9137   -9.1620 C   0  0  1  0  0  0  0  0  0  0  0  0
   15.5996   -6.8434   -7.6910 C   0  0  0  0  0  0  0  0  0  0  0  0
   16.0348   -8.0680   -9.7575 C   0  0  0  0  0  0  0  0  0  0  0  0
   15.8888   -8.0287  -11.2488 C   0  0  2  0  0  0  0  0  0  0  0  0
   16.6457   -9.1363  -11.7932 N   0  0  0  0  0  0  0  0  0  0  0  0
   16.4329   -6.7526  -11.8122 C   0  0  0  0  0  0  0  0  0  0  0  0
   17.6361   -6.4508  -11.6509 O   0  0  0  0  0  0  0  0  0  0  0  0
   14.0255   -4.8146  -14.2147 O   0  0  0  0  0  0  0  0  0  0  0  0
   15.3708   -4.4700  -14.4179 C   0  0  0  0  0  0  0  0  0  0  0  0
   16.0903   -4.6808  -13.1091 C   0  0  2  0  0  0  0  0  0  0  0  0
   15.5643   -5.9065  -12.5226 N   0  0  0  0  0  0  0  0  0  0  0  0
   15.7693   -3.5569  -12.1853 C   0  0  0  0  0  0  0  0  0  0  0  0
   16.2433   -2.2695  -12.4487 O   0  0  0  0  0  0  0  0  0  0  0  0
   15.0766   -3.7276  -11.1614 O   0  0  0  0  0  0  0  0  0  0  0  0
  1  2  1  0
  3  2  1  0
  4  3  1  0
  5  4  1  0
  5  6  1  6
  7  8  2  0
  7  5  1  0
 10  9  1  1
 10 11  1  0
 12 10  1  0
 13 12  1  1
 13 14  1  0
 14  7  1  0
 15 20  1  0
 15 13  1  0
 16 15  2  0
 19 18  1  6
 18 17  1  0
 19 20  1  0
 19 21  1  0
 21 22  1  0
 23 21  2  0
M  END
$$$$
