MLS.pdb
     RDKit          3D

 23 22  0  0  1  0  0  0  0  0999 V2000
   18.2585  -11.5373  -20.6819 C   0  0  0  0  0  0  0  0  0  0  0  0
   19.4678  -12.4025  -21.7266 S   0  0  0  0  0  0  0  0  0  0  0  0
   20.7717  -13.0300  -20.6416 C   0  0  0  0  0  0  0  0  0  0  0  0
   20.6364  -12.3233  -19.3133 C   0  0  0  0  0  0  0  0  0  0  0  0
   21.7797  -12.7772  -18.4342 C   0  0  2  0  0  0  0  0  0  0  0  0
   21.4277  -14.0580  -17.8665 N   0  0  0  0  0  0  0  0  0  0  0  0
   21.9125  -11.7277  -17.3613 C   0  0  0  0  0  0  0  0  0  0  0  0
   21.0580  -11.6591  -16.4418 O   0  0  0  0  0  0  0  0  0  0  0  0
   26.7912  -10.3090  -15.7161 C   0  0  0  0  0  0  0  0  0  0  0  0
   25.2964  -10.5851  -15.7127 C   0  0  1  0  0  0  0  0  0  0  0  0
   24.7723  -10.7136  -14.3034 C   0  0  0  0  0  0  0  0  0  0  0  0
   24.5879   -9.4295  -16.3714 C   0  0  0  0  0  0  0  0  0  0  0  0
   23.1328   -9.7644  -16.5035 C   0  0  2  0  0  0  0  0  0  0  0  0
   23.0176  -10.8554  -17.4482 N   0  0  0  0  0  0  0  0  0  0  0  0
   22.3537   -8.5958  -17.0226 C   0  0  0  0  0  0  0  0  0  0  0  0
   22.5501   -8.1676  -18.1814 O   0  0  0  0  0  0  0  0  0  0  0  0
   19.1027   -7.5560  -15.0323 O   0  0  0  0  0  0  0  0  0  0  0  0
   19.1748   -7.1606  -16.3771 C   0  0  0  0  0  0  0  0  0  0  0  0
   20.6231   -6.8693  -16.6817 C   0  0  2  0  0  0  0  0  0  0  0  0
   21.4018   -7.9947  -16.1815 N   0  0  0  0  0  0  0  0  0  0  0  0
   21.0470   -5.6516  -15.9354 C   0  0  0  0  0  0  0  0  0  0  0  0
   20.4540   -4.4161  -16.2056 O   0  0  0  0  0  0  0  0  0  0  0  0
   21.9328   -5.6962  -15.0574 O   0  0  0  0  0  0  0  0  0  0  0  0
  1  2  1  0
  3  2  1  0
  4  3  1  0
  5  4  1  0
  5  6  1  1
  7  8  2  0
  7  5  1  0
 10  9  1  1
 10 11  1  0
 12 10  1  0
 13 12  1  6
 13 14  1  0
 14  7  1  0
 15 20  1  0
 15 13  1  0
 16 15  2  0
 19 18  1  1
 18 17  1  0
 19 20  1  0
 19 21  1  0
 21 22  1  0
 23 21  2  0
M  END
$$$$
