MLS.pdb
     RDKit          3D

 23 22  0  0  1  0  0  0  0  0999 V2000
   18.3852  -12.2125  -19.9189 C   0  0  0  0  0  0  0  0  0  0  0  0
   18.9370  -13.9041  -20.2879 S   0  0  0  0  0  0  0  0  0  0  0  0
   20.7335  -13.9459  -20.0820 C   0  0  0  0  0  0  0  0  0  0  0  0
   21.0362  -13.5537  -18.6549 C   0  0  0  0  0  0  0  0  0  0  0  0
   22.5378  -13.4404  -18.5196 C   0  0  2  0  0  0  0  0  0  0  0  0
   23.0481  -14.7238  -18.0965 N   0  0  0  0  0  0  0  0  0  0  0  0
   22.7756  -12.3895  -17.4662 C   0  0  0  0  0  0  0  0  0  0  0  0
   22.2044  -12.4798  -16.3500 O   0  0  0  0  0  0  0  0  0  0  0  0
   27.5531  -10.9018  -16.3814 C   0  0  0  0  0  0  0  0  0  0  0  0
   26.0581  -11.1487  -16.2610 C   0  0  1  0  0  0  0  0  0  0  0  0
   25.6514  -11.3187  -14.8177 C   0  0  0  0  0  0  0  0  0  0  0  0
   25.3228   -9.9562  -16.8165 C   0  0  0  0  0  0  0  0  0  0  0  0
   23.8556  -10.2615  -16.8460 C   0  0  2  0  0  0  0  0  0  0  0  0
   23.6494  -11.3329  -17.7977 N   0  0  0  0  0  0  0  0  0  0  0  0
   23.0638   -9.0695  -17.2864 C   0  0  0  0  0  0  0  0  0  0  0  0
   23.2067   -8.6041  -18.4387 O   0  0  0  0  0  0  0  0  0  0  0  0
   19.5738   -8.6320  -16.0881 O   0  0  0  0  0  0  0  0  0  0  0  0
   20.0042   -7.8097  -17.1410 C   0  0  0  0  0  0  0  0  0  0  0  0
   21.3894   -7.3243  -16.7933 C   0  0  2  0  0  0  0  0  0  0  0  0
   22.1611   -8.4889  -16.3792 N   0  0  0  0  0  0  0  0  0  0  0  0
   21.3071   -6.3935  -15.6330 C   0  0  0  0  0  0  0  0  0  0  0  0
   20.6560   -5.1641  -15.7593 O   0  0  0  0  0  0  0  0  0  0  0  0
   21.8101   -6.6786  -14.5271 O   0  0  0  0  0  0  0  0  0  0  0  0
  1  2  1  0
  3  2  1  0
  4  3  1  0
  5  4  1  0
  5  6  1  1
  7  8  2  0
  7  5  1  0
 10  9  1  1
 10 11  1  0
 12 10  1  0
 13 12  1  6
 13 14  1  0
 14  7  1  0
 15 20  1  0
 15 13  1  0
 16 15  2  0
 19 18  1  1
 18 17  1  0
 19 20  1  0
 19 21  1  0
 21 22  1  0
 23 21  2  0
M  END
$$$$
