MLS.pdb
     RDKit          3D

 23 22  0  0  1  0  0  0  0  0999 V2000
   22.5043  -14.1128  -20.8240 C   0  0  0  0  0  0  0  0  0  0  0  0
   22.7073  -13.3200  -22.4466 S   0  0  0  0  0  0  0  0  0  0  0  0
   24.4788  -13.0671  -22.7092 C   0  0  0  0  0  0  0  0  0  0  0  0
   25.1106  -12.8399  -21.3559 C   0  0  0  0  0  0  0  0  0  0  0  0
   26.5882  -12.6046  -21.5737 C   0  0  2  0  0  0  0  0  0  0  0  0
   27.2489  -13.8889  -21.5923 N   0  0  0  0  0  0  0  0  0  0  0  0
   27.0477  -11.7764  -20.4018 C   0  0  0  0  0  0  0  0  0  0  0  0
   26.5970  -10.6140  -20.2401 O   0  0  0  0  0  0  0  0  0  0  0  0
   27.2371  -14.4113  -15.9891 C   0  0  0  0  0  0  0  0  0  0  0  0
   27.0992  -13.2407  -16.9490 C   0  0  1  0  0  0  0  0  0  0  0  0
   26.2442  -12.1492  -16.3533 C   0  0  0  0  0  0  0  0  0  0  0  0
   28.4676  -12.6688  -17.2168 C   0  0  0  0  0  0  0  0  0  0  0  0
   28.3641  -11.6596  -18.3204 C   0  0  2  0  0  0  0  0  0  0  0  0
   27.9836  -12.3651  -19.5259 N   0  0  0  0  0  0  0  0  0  0  0  0
   29.6771  -10.9796  -18.5564 C   0  0  0  0  0  0  0  0  0  0  0  0
   30.6335  -11.6067  -19.0630 O   0  0  0  0  0  0  0  0  0  0  0  0
   30.6199   -8.3551  -20.6464 O   0  0  0  0  0  0  0  0  0  0  0  0
   30.8125   -7.8072  -19.3686 C   0  0  0  0  0  0  0  0  0  0  0  0
   31.0801   -8.9532  -18.4250 C   0  0  2  0  0  0  0  0  0  0  0  0
   29.8086   -9.6274  -18.1971 N   0  0  0  0  0  0  0  0  0  0  0  0
   31.5530   -8.4142  -17.1191 C   0  0  0  0  0  0  0  0  0  0  0  0
   32.8555   -7.9273  -16.9866 O   0  0  0  0  0  0  0  0  0  0  0  0
   30.8109   -8.3811  -16.1163 O   0  0  0  0  0  0  0  0  0  0  0  0
  1  2  1  0
  3  2  1  0
  4  3  1  0
  5  4  1  0
  5  6  1  1
  7  8  2  0
  7  5  1  0
 10  9  1  1
 10 11  1  0
 12 10  1  0
 13 12  1  1
 13 14  1  0
 14  7  1  0
 15 20  1  0
 15 13  1  0
 16 15  2  0
 19 18  1  6
 18 17  1  0
 19 20  1  0
 19 21  1  0
 21 22  1  0
 23 21  2  0
M  END
$$$$
