MLS.pdb
     RDKit          3D

 23 22  0  0  1  0  0  0  0  0999 V2000
   13.6862  -14.8031  -18.2648 C   0  0  0  0  0  0  0  0  0  0  0  0
   14.7917  -13.8111  -17.2178 S   0  0  0  0  0  0  0  0  0  0  0  0
   16.3552  -13.6211  -18.1068 C   0  0  0  0  0  0  0  0  0  0  0  0
   17.1698  -12.5801  -17.3756 C   0  0  0  0  0  0  0  0  0  0  0  0
   18.4772  -12.4171  -18.1173 C   0  0  2  0  0  0  0  0  0  0  0  0
   19.3823  -13.4469  -17.6625 N   0  0  0  0  0  0  0  0  0  0  0  0
   18.9876  -11.0475  -17.7509 C   0  0  0  0  0  0  0  0  0  0  0  0
   19.5059  -10.8526  -16.6224 O   0  0  0  0  0  0  0  0  0  0  0  0
   21.5450   -8.1741  -21.4054 C   0  0  0  0  0  0  0  0  0  0  0  0
   21.1112   -8.7071  -20.0495 C   0  0  1  0  0  0  0  0  0  0  0  0
   22.1219   -8.3625  -18.9832 C   0  0  0  0  0  0  0  0  0  0  0  0
   19.7990   -8.0681  -19.6739 C   0  0  0  0  0  0  0  0  0  0  0  0
   19.3020   -8.6909  -18.4043 C   0  0  2  0  0  0  0  0  0  0  0  0
   18.8529  -10.0307  -18.7193 N   0  0  0  0  0  0  0  0  0  0  0  0
   18.1504   -7.9195  -17.8380 C   0  0  0  0  0  0  0  0  0  0  0  0
   17.0179   -7.9941  -18.3637 O   0  0  0  0  0  0  0  0  0  0  0  0
   16.2477   -5.9413  -14.0413 O   0  0  0  0  0  0  0  0  0  0  0  0
   17.2470   -6.7246  -14.6395 C   0  0  0  0  0  0  0  0  0  0  0  0
   17.2470   -6.4027  -16.1131 C   0  0  2  0  0  0  0  0  0  0  0  0
   18.3711   -7.1138  -16.7078 N   0  0  0  0  0  0  0  0  0  0  0  0
   17.4798   -4.9427  -16.2972 C   0  0  0  0  0  0  0  0  0  0  0  0
   16.4185   -4.0404  -16.1946 O   0  0  0  0  0  0  0  0  0  0  0  0
   18.6145   -4.4862  -16.5454 O   0  0  0  0  0  0  0  0  0  0  0  0
  1  2  1  0
  3  2  1  0
  4  3  1  0
  5  4  1  0
  5  6  1  1
  7  8  2  0
  7  5  1  0
 10  9  1  6
 10 11  1  0
 12 10  1  0
 13 12  1  6
 13 14  1  0
 14  7  1  0
 15 20  1  0
 15 13  1  0
 16 15  2  0
 19 18  1  1
 18 17  1  0
 19 20  1  0
 19 21  1  0
 21 22  1  0
 23 21  2  0
M  END
$$$$
