MLS.pdb
     RDKit          3D

 23 22  0  0  1  0  0  0  0  0999 V2000
   26.2817  -24.8037  -19.2558 C   0  0  0  0  0  0  0  0  0  0  0  0
   27.4519  -23.4427  -19.5398 S   0  0  0  0  0  0  0  0  0  0  0  0
   28.3575  -23.1750  -17.9972 C   0  0  0  0  0  0  0  0  0  0  0  0
   27.3681  -23.2984  -16.8624 C   0  0  0  0  0  0  0  0  0  0  0  0
   26.8668  -21.9092  -16.5385 C   0  0  2  0  0  0  0  0  0  0  0  0
   28.0090  -21.0816  -16.2269 N   0  0  0  0  0  0  0  0  0  0  0  0
   25.9696  -22.0675  -15.3383 C   0  0  0  0  0  0  0  0  0  0  0  0
   24.9850  -22.8475  -15.3897 O   0  0  0  0  0  0  0  0  0  0  0  0
   24.9252  -22.1722  -10.2878 C   0  0  0  0  0  0  0  0  0  0  0  0
   25.1994  -20.7333  -10.6942 C   0  0  1  0  0  0  0  0  0  0  0  0
   25.8821  -19.9765   -9.5814 C   0  0  0  0  0  0  0  0  0  0  0  0
   26.1159  -20.7330  -11.8906 C   0  0  0  0  0  0  0  0  0  0  0  0
   25.3897  -21.3300  -13.0582 C   0  0  2  0  0  0  0  0  0  0  0  0
   26.2908  -21.3121  -14.1911 N   0  0  0  0  0  0  0  0  0  0  0  0
   24.1703  -20.5321  -13.4022 C   0  0  0  0  0  0  0  0  0  0  0  0
   24.2691  -19.3223  -13.7046 O   0  0  0  0  0  0  0  0  0  0  0  0
   21.5297  -21.7918  -15.5812 O   0  0  0  0  0  0  0  0  0  0  0  0
   21.5623  -20.4415  -15.1995 C   0  0  0  0  0  0  0  0  0  0  0  0
   21.7236  -20.4031  -13.7003 C   0  0  2  0  0  0  0  0  0  0  0  0
   22.9190  -21.1711  -13.3773 N   0  0  0  0  0  0  0  0  0  0  0  0
   20.5590  -21.0794  -13.0633 C   0  0  0  0  0  0  0  0  0  0  0  0
   19.2729  -20.5528  -13.2048 O   0  0  0  0  0  0  0  0  0  0  0  0
   20.6935  -22.1231  -12.3924 O   0  0  0  0  0  0  0  0  0  0  0  0
  1  2  1  0
  3  2  1  0
  4  3  1  0
  5  4  1  0
  5  6  1  1
  7  8  2  0
  7  5  1  0
 10  9  1  1
 10 11  1  0
 12 10  1  0
 13 12  1  1
 13 14  1  0
 14  7  1  0
 15 20  1  0
 15 13  1  0
 16 15  2  0
 19 18  1  6
 18 17  1  0
 19 20  1  0
 19 21  1  0
 21 22  1  0
 23 21  2  0
M  END
$$$$
