MFP.pdb
     RDKit          3D

 27 28  0  0  1  0  0  0  0  0999 V2000
    9.5763  -20.9020   21.2221 C   0  0  0  0  0  0  0  0  0  0  0  0
    8.5249  -22.3360   21.6390 S   0  0  0  0  0  0  0  0  0  0  0  0
    7.1475  -21.7511   22.6222 C   0  0  0  0  0  0  0  0  0  0  0  0
    6.7590  -20.3166   22.3253 C   0  0  0  0  0  0  0  0  0  0  0  0
    5.6532  -19.8613   23.2384 C   0  0  2  0  0  0  0  0  0  0  0  0
    4.3967  -20.1359   22.5673 N   0  0  0  0  0  0  0  0  0  0  0  0
    5.6919  -18.4516   23.6031 C   0  0  0  0  0  0  0  0  0  0  0  0
    5.1723  -17.5721   22.8530 O   0  0  0  0  0  0  0  0  0  0  0  0
    6.2949  -17.9433   24.7947 N   0  0  0  0  0  0  0  0  0  0  0  0
    6.7764  -16.5901   24.9452 C   0  0  1  0  0  0  0  0  0  0  0  0
    6.8854  -16.1848   26.3760 C   0  0  0  0  0  0  0  0  0  0  0  0
    7.1988  -14.7525   26.4960 C   0  0  0  0  0  0  0  0  0  0  0  0
    6.1298  -13.8843   26.7434 C   0  0  0  0  0  0  0  0  0  0  0  0
    6.2791  -12.5384   26.9079 C   0  0  0  0  0  0  0  0  0  0  0  0
    7.5481  -12.0083   26.8261 C   0  0  0  0  0  0  0  0  0  0  0  0
    8.6149  -12.8610   26.5811 C   0  0  0  0  0  0  0  0  0  0  0  0
    8.4699  -14.2186   26.4145 C   0  0  0  0  0  0  0  0  0  0  0  0
    7.9244  -16.2231   24.1264 C   0  0  0  0  0  0  0  0  0  0  0  0
    8.9448  -17.0148   24.1752 O   0  0  0  0  0  0  0  0  0  0  0  0
    8.0913  -15.1134   23.2752 N   0  0  0  0  0  0  0  0  0  0  0  0
    7.3438  -13.8919   23.2947 C   0  0  0  0  0  0  0  0  0  0  0  0
    7.8311  -13.0668   22.0856 C   0  0  0  0  0  0  0  0  0  0  0  0
    8.4060  -14.1667   21.1787 C   0  0  0  0  0  0  0  0  0  0  0  0
    9.0702  -15.0279   22.2239 C   0  0  1  0  0  0  0  0  0  0  0  0
   10.2936  -14.3023   22.6539 C   0  0  0  0  0  0  0  0  0  0  0  0
   10.4456  -13.7808   23.7813 O   0  0  0  0  0  0  0  0  0  0  0  0
   11.3247  -14.2084   21.7274 O   0  0  0  0  0  0  0  0  0  0  0  0
  2  1  1  0
  3  2  1  0
  3  4  1  0
  4  5  1  0
  5  6  1  6
  7  5  1  0
  7  8  2  0
  9  7  1  0
 10  9  1  0
 10 11  1  1
 12 13  2  0
 12 11  1  0
 14 13  1  0
 15 14  2  0
 16 15  1  0
 16 17  2  0
 17 12  1  0
 18 10  1  0
 19 18  2  0
 20 18  1  0
 20 24  1  0
 21 20  1  0
 22 21  1  0
 22 23  1  0
 23 24  1  0
 24 25  1  1
 25 27  1  0
 26 25  2  0
M  END
$$$$
