MFP.pdb
     RDKit          3D

 27 28  0  0  1  0  0  0  0  0999 V2000
    8.3060  -23.3815   25.7124 C   0  0  0  0  0  0  0  0  0  0  0  0
    7.7712  -23.5654   23.9758 S   0  0  0  0  0  0  0  0  0  0  0  0
    6.4698  -22.3758   23.6637 C   0  0  0  0  0  0  0  0  0  0  0  0
    6.8009  -20.9775   24.1451 C   0  0  0  0  0  0  0  0  0  0  0  0
    5.6238  -20.0573   23.9677 C   0  0  2  0  0  0  0  0  0  0  0  0
    4.9923  -20.3999   22.7073 N   0  0  0  0  0  0  0  0  0  0  0  0
    5.9439  -18.6363   23.9609 C   0  0  0  0  0  0  0  0  0  0  0  0
    6.1519  -18.0224   22.8719 O   0  0  0  0  0  0  0  0  0  0  0  0
    6.0497  -17.8280   25.1346 N   0  0  0  0  0  0  0  0  0  0  0  0
    6.5904  -16.4890   25.1499 C   0  0  1  0  0  0  0  0  0  0  0  0
    6.2586  -15.7598   26.4075 C   0  0  0  0  0  0  0  0  0  0  0  0
    6.7674  -14.3801   26.3671 C   0  0  0  0  0  0  0  0  0  0  0  0
    5.8510  -13.3715   26.0500 C   0  0  0  0  0  0  0  0  0  0  0  0
    6.1774  -12.0478   26.0072 C   0  0  0  0  0  0  0  0  0  0  0  0
    7.4763  -11.6869   26.2911 C   0  0  0  0  0  0  0  0  0  0  0  0
    8.3927  -12.6799   26.6068 C   0  0  0  0  0  0  0  0  0  0  0  0
    8.0689  -14.0159   26.6513 C   0  0  0  0  0  0  0  0  0  0  0  0
    7.9767  -16.3522   24.7226 C   0  0  0  0  0  0  0  0  0  0  0  0
    8.8529  -17.0415   25.3765 O   0  0  0  0  0  0  0  0  0  0  0  0
    8.5141  -15.5655   23.6853 N   0  0  0  0  0  0  0  0  0  0  0  0
    7.9214  -14.4075   23.0861 C   0  0  0  0  0  0  0  0  0  0  0  0
    8.8479  -14.0004   21.9217 C   0  0  0  0  0  0  0  0  0  0  0  0
    9.5741  -15.3242   21.6338 C   0  0  0  0  0  0  0  0  0  0  0  0
    9.7818  -15.8058   23.0482 C   0  0  1  0  0  0  0  0  0  0  0  0
   10.8667  -14.9697   23.6241 C   0  0  0  0  0  0  0  0  0  0  0  0
   10.6984  -14.1163   24.5239 O   0  0  0  0  0  0  0  0  0  0  0  0
   12.1450  -15.1644   23.1156 O   0  0  0  0  0  0  0  0  0  0  0  0
  2  1  1  0
  3  2  1  0
  3  4  1  0
  4  5  1  0
  5  6  1  6
  7  5  1  0
  7  8  2  0
  9  7  1  0
 10  9  1  0
 10 11  1  1
 12 13  2  0
 12 11  1  0
 14 13  1  0
 15 14  2  0
 16 15  1  0
 16 17  2  0
 17 12  1  0
 18 10  1  0
 19 18  2  0
 20 18  1  0
 20 24  1  0
 21 20  1  0
 22 21  1  0
 22 23  1  0
 23 24  1  0
 24 25  1  1
 25 27  1  0
 26 25  2  0
M  END
$$$$
