MFP.pdb
     RDKit          3D

 27 28  0  0  1  0  0  0  0  0999 V2000
    9.5278  -22.2923   23.1468 C   0  0  0  0  0  0  0  0  0  0  0  0
    8.0269  -23.2966   22.8739 S   0  0  0  0  0  0  0  0  0  0  0  0
    6.6009  -22.2281   23.0496 C   0  0  0  0  0  0  0  0  0  0  0  0
    6.9130  -20.9106   23.7305 C   0  0  0  0  0  0  0  0  0  0  0  0
    5.6707  -20.0736   23.8723 C   0  0  2  0  0  0  0  0  0  0  0  0
    4.8209  -20.3632   22.7328 N   0  0  0  0  0  0  0  0  0  0  0  0
    5.8964  -18.6360   23.9357 C   0  0  0  0  0  0  0  0  0  0  0  0
    5.8326  -17.9217   22.8908 O   0  0  0  0  0  0  0  0  0  0  0  0
    6.1990  -17.9194   25.1345 N   0  0  0  0  0  0  0  0  0  0  0  0
    6.7160  -16.5713   25.1636 C   0  0  1  0  0  0  0  0  0  0  0  0
    6.6519  -15.9708   26.5269 C   0  0  0  0  0  0  0  0  0  0  0  0
    7.0016  -14.5423   26.4911 C   0  0  0  0  0  0  0  0  0  0  0  0
    5.9436  -13.6269   26.4755 C   0  0  0  0  0  0  0  0  0  0  0  0
    6.1217  -12.2745   26.4735 C   0  0  0  0  0  0  0  0  0  0  0  0
    7.4099  -11.7864   26.4876 C   0  0  0  0  0  0  0  0  0  0  0  0
    8.4661  -12.6862   26.5032 C   0  0  0  0  0  0  0  0  0  0  0  0
    8.2921  -14.0506   26.5052 C   0  0  0  0  0  0  0  0  0  0  0  0
    7.9778  -16.3531   24.4684 C   0  0  0  0  0  0  0  0  0  0  0  0
    8.9052  -17.2313   24.6664 O   0  0  0  0  0  0  0  0  0  0  0  0
    8.3446  -15.3081   23.5982 N   0  0  0  0  0  0  0  0  0  0  0  0
    7.8254  -13.9734   23.5869 C   0  0  0  0  0  0  0  0  0  0  0  0
    8.4594  -13.2726   22.3675 C   0  0  0  0  0  0  0  0  0  0  0  0
    8.8361  -14.4752   21.4874 C   0  0  0  0  0  0  0  0  0  0  0  0
    9.3301  -15.4191   22.5555 C   0  0  1  0  0  0  0  0  0  0  0  0
   10.6598  -14.9131   22.9840 C   0  0  0  0  0  0  0  0  0  0  0  0
   11.6476  -14.7928   22.2251 O   0  0  0  0  0  0  0  0  0  0  0  0
   10.7935  -14.5555   24.3199 O   0  0  0  0  0  0  0  0  0  0  0  0
  2  1  1  0
  3  2  1  0
  3  4  1  0
  4  5  1  0
  5  6  1  6
  7  5  1  0
  7  8  2  0
  9  7  1  0
 10  9  1  0
 10 11  1  1
 12 13  2  0
 12 11  1  0
 14 13  1  0
 15 14  2  0
 16 15  1  0
 16 17  2  0
 17 12  1  0
 18 10  1  0
 19 18  2  0
 20 18  1  0
 20 24  1  0
 21 20  1  0
 22 21  1  0
 22 23  1  0
 23 24  1  0
 24 25  1  1
 25 27  1  0
 26 25  2  0
M  END
$$$$
