MFP.pdb
     RDKit          3D

 27 28  0  0  1  0  0  0  0  0999 V2000
    9.5196  -21.9301   23.8660 C   0  0  0  0  0  0  0  0  0  0  0  0
    8.0743  -23.0152   23.6019 S   0  0  0  0  0  0  0  0  0  0  0  0
    6.5925  -22.0348   23.8235 C   0  0  0  0  0  0  0  0  0  0  0  0
    6.5698  -20.7748   22.9818 C   0  0  0  0  0  0  0  0  0  0  0  0
    5.4196  -19.8883   23.3755 C   0  0  2  0  0  0  0  0  0  0  0  0
    4.4229  -19.9801   22.3253 N   0  0  0  0  0  0  0  0  0  0  0  0
    5.7592  -18.4865   23.5786 C   0  0  0  0  0  0  0  0  0  0  0  0
    5.7366  -17.6661   22.6129 O   0  0  0  0  0  0  0  0  0  0  0  0
    6.1353  -17.9221   24.8364 N   0  0  0  0  0  0  0  0  0  0  0  0
    6.6166  -16.5712   25.0064 C   0  0  1  0  0  0  0  0  0  0  0  0
    6.4778  -16.0945   26.4124 C   0  0  0  0  0  0  0  0  0  0  0  0
    6.7362  -14.6495   26.5074 C   0  0  0  0  0  0  0  0  0  0  0  0
    8.0621  -14.2506   26.7095 C   0  0  0  0  0  0  0  0  0  0  0  0
    8.4494  -12.9449   26.7854 C   0  0  0  0  0  0  0  0  0  0  0  0
    7.4846  -11.9700   26.6563 C   0  0  0  0  0  0  0  0  0  0  0  0
    6.1668  -12.3553   26.4556 C   0  0  0  0  0  0  0  0  0  0  0  0
    5.7709  -13.6702   26.3783 C   0  0  0  0  0  0  0  0  0  0  0  0
    7.9018  -16.2660   24.3914 C   0  0  0  0  0  0  0  0  0  0  0  0
    8.8749  -17.0741   24.6567 O   0  0  0  0  0  0  0  0  0  0  0  0
    8.2483  -15.2016   23.5366 N   0  0  0  0  0  0  0  0  0  0  0  0
    7.6391  -13.9066   23.4818 C   0  0  0  0  0  0  0  0  0  0  0  0
    8.2973  -13.1683   22.2979 C   0  0  0  0  0  0  0  0  0  0  0  0
    8.8110  -14.3452   21.4532 C   0  0  0  0  0  0  0  0  0  0  0  0
    9.3021  -15.2475   22.5577 C   0  0  1  0  0  0  0  0  0  0  0  0
   10.5641  -14.6477   23.0633 C   0  0  0  0  0  0  0  0  0  0  0  0
   11.5827  -14.4514   22.3632 O   0  0  0  0  0  0  0  0  0  0  0  0
   10.5937  -14.2883   24.4051 O   0  0  0  0  0  0  0  0  0  0  0  0
  2  1  1  0
  3  2  1  0
  3  4  1  0
  4  5  1  0
  5  6  1  6
  7  5  1  0
  7  8  2  0
  9  7  1  0
 10  9  1  0
 10 11  1  1
 12 13  2  0
 12 11  1  0
 14 13  1  0
 15 14  2  0
 16 15  1  0
 16 17  2  0
 17 12  1  0
 18 10  1  0
 19 18  2  0
 20 18  1  0
 20 24  1  0
 21 20  1  0
 22 21  1  0
 22 23  1  0
 23 24  1  0
 24 25  1  1
 25 27  1  0
 26 25  2  0
M  END
$$$$
