MFP.pdb
     RDKit          3D

 27 28  0  0  1  0  0  0  0  0999 V2000
    7.4222  -23.0227   20.3959 C   0  0  0  0  0  0  0  0  0  0  0  0
    8.6658  -22.3133   21.5299 S   0  0  0  0  0  0  0  0  0  0  0  0
    7.8252  -21.7847   23.0199 C   0  0  0  0  0  0  0  0  0  0  0  0
    6.6752  -20.8326   22.7597 C   0  0  0  0  0  0  0  0  0  0  0  0
    6.0745  -20.3524   24.0529 C   0  0  2  0  0  0  0  0  0  0  0  0
    4.8082  -21.0394   24.2237 N   0  0  0  0  0  0  0  0  0  0  0  0
    5.8435  -18.9164   24.1330 C   0  0  0  0  0  0  0  0  0  0  0  0
    4.8986  -18.3733   23.4863 O   0  0  0  0  0  0  0  0  0  0  0  0
    6.6281  -18.0161   24.9178 N   0  0  0  0  0  0  0  0  0  0  0  0
    6.5896  -16.5789   24.7824 C   0  0  1  0  0  0  0  0  0  0  0  0
    5.9454  -15.9180   25.9536 C   0  0  0  0  0  0  0  0  0  0  0  0
    6.5870  -14.6278   26.2499 C   0  0  0  0  0  0  0  0  0  0  0  0
    7.9838  -14.6137   26.3305 C   0  0  0  0  0  0  0  0  0  0  0  0
    8.7102  -13.4837   26.5674 C   0  0  0  0  0  0  0  0  0  0  0  0
    8.0324  -12.2961   26.7356 C   0  0  0  0  0  0  0  0  0  0  0  0
    6.6471  -12.2996   26.6573 C   0  0  0  0  0  0  0  0  0  0  0  0
    5.9099  -13.4360   26.4188 C   0  0  0  0  0  0  0  0  0  0  0  0
    7.8222  -15.9435   24.3354 C   0  0  0  0  0  0  0  0  0  0  0  0
    8.8947  -16.2371   24.9942 O   0  0  0  0  0  0  0  0  0  0  0  0
    8.0226  -15.0397   23.2739 N   0  0  0  0  0  0  0  0  0  0  0  0
    7.4241  -13.7480   23.1169 C   0  0  0  0  0  0  0  0  0  0  0  0
    7.8710  -13.2290   21.7346 C   0  0  0  0  0  0  0  0  0  0  0  0
    8.2189  -14.5417   21.0146 C   0  0  0  0  0  0  0  0  0  0  0  0
    8.8883  -15.2769   22.1491 C   0  0  1  0  0  0  0  0  0  0  0  0
   10.2243  -14.6515   22.3276 C   0  0  0  0  0  0  0  0  0  0  0  0
   11.1405  -14.6880   21.4758 O   0  0  0  0  0  0  0  0  0  0  0  0
   10.4502  -13.9872   23.5268 O   0  0  0  0  0  0  0  0  0  0  0  0
  2  1  1  0
  3  2  1  0
  3  4  1  0
  4  5  1  0
  5  6  1  6
  7  5  1  0
  7  8  2  0
  9  7  1  0
 10  9  1  0
 10 11  1  1
 12 13  2  0
 12 11  1  0
 14 13  1  0
 15 14  2  0
 16 15  1  0
 16 17  2  0
 17 12  1  0
 18 10  1  0
 19 18  2  0
 20 18  1  0
 20 24  1  0
 21 20  1  0
 22 21  1  0
 22 23  1  0
 23 24  1  0
 24 25  1  1
 25 27  1  0
 26 25  2  0
M  END
$$$$
