MFP.pdb
     RDKit          3D

 27 28  0  0  1  0  0  0  0  0999 V2000
   11.8302  -21.2403   22.9939 C   0  0  0  0  0  0  0  0  0  0  0  0
   12.3412  -20.9982   21.2573 S   0  0  0  0  0  0  0  0  0  0  0  0
   11.7578  -19.3920   20.7227 C   0  0  0  0  0  0  0  0  0  0  0  0
   11.5427  -18.4168   21.8627 C   0  0  0  0  0  0  0  0  0  0  0  0
   10.9803  -17.1164   21.3562 C   0  0  2  0  0  0  0  0  0  0  0  0
   11.9944  -16.5025   20.5199 N   0  0  0  0  0  0  0  0  0  0  0  0
   10.5867  -16.1677   22.3890 C   0  0  0  0  0  0  0  0  0  0  0  0
   11.4539  -15.4687   22.9936 O   0  0  0  0  0  0  0  0  0  0  0  0
    9.2382  -15.9412   22.8041 N   0  0  0  0  0  0  0  0  0  0  0  0
    8.8663  -15.1432   23.9489 C   0  0  1  0  0  0  0  0  0  0  0  0
    7.5461  -14.4745   23.7669 C   0  0  0  0  0  0  0  0  0  0  0  0
    7.1539  -13.7422   24.9810 C   0  0  0  0  0  0  0  0  0  0  0  0
    7.4669  -12.3795   25.0329 C   0  0  0  0  0  0  0  0  0  0  0  0
    7.1358  -11.5732   26.0820 C   0  0  0  0  0  0  0  0  0  0  0  0
    6.4584  -12.1305   27.1443 C   0  0  0  0  0  0  0  0  0  0  0  0
    6.1432  -13.4812   27.1024 C   0  0  0  0  0  0  0  0  0  0  0  0
    6.4748  -14.2986   26.0471 C   0  0  0  0  0  0  0  0  0  0  0  0
    9.0505  -15.7672   25.2526 C   0  0  0  0  0  0  0  0  0  0  0  0
    8.6673  -16.9965   25.3634 O   0  0  0  0  0  0  0  0  0  0  0  0
    9.5924  -15.2199   26.4319 N   0  0  0  0  0  0  0  0  0  0  0  0
    9.4450  -13.8765   26.9058 C   0  0  0  0  0  0  0  0  0  0  0  0
   10.3328  -13.7607   28.1621 C   0  0  0  0  0  0  0  0  0  0  0  0
   11.3359  -14.9023   27.9319 C   0  0  0  0  0  0  0  0  0  0  0  0
   10.3999  -15.9464   27.3757 C   0  0  1  0  0  0  0  0  0  0  0  0
    9.6030  -16.4533   28.5229 C   0  0  0  0  0  0  0  0  0  0  0  0
   10.0801  -17.0965   29.4846 O   0  0  0  0  0  0  0  0  0  0  0  0
    8.2401  -16.1843   28.5067 O   0  0  0  0  0  0  0  0  0  0  0  0
  2  1  1  0
  3  2  1  0
  3  4  1  0
  4  5  1  0
  5  6  1  6
  7  5  1  0
  7  8  2  0
  9  7  1  0
 10  9  1  0
 10 11  1  6
 12 13  2  0
 12 11  1  0
 14 13  1  0
 15 14  2  0
 16 15  1  0
 16 17  2  0
 17 12  1  0
 18 10  1  0
 19 18  2  0
 20 18  1  0
 20 24  1  0
 21 20  1  0
 22 21  1  0
 22 23  1  0
 23 24  1  0
 24 25  1  1
 25 27  1  0
 26 25  2  0
M  END
$$$$
