MFP.pdb
     RDKit          3D

 27 28  0  0  1  0  0  0  0  0999 V2000
    9.8865  -22.1042   24.9573 C   0  0  0  0  0  0  0  0  0  0  0  0
    8.4309  -23.1998   25.0863 S   0  0  0  0  0  0  0  0  0  0  0  0
    6.9643  -22.2167   24.7885 C   0  0  0  0  0  0  0  0  0  0  0  0
    7.2186  -20.9982   23.9240 C   0  0  0  0  0  0  0  0  0  0  0  0
    5.9861  -20.1402   23.8318 C   0  0  2  0  0  0  0  0  0  0  0  0
    5.3279  -20.4607   22.5793 N   0  0  0  0  0  0  0  0  0  0  0  0
    6.2258  -18.7043   23.8817 C   0  0  0  0  0  0  0  0  0  0  0  0
    6.3689  -18.0322   22.8168 O   0  0  0  0  0  0  0  0  0  0  0  0
    6.3186  -17.9437   25.0879 N   0  0  0  0  0  0  0  0  0  0  0  0
    6.7951  -16.5820   25.1522 C   0  0  1  0  0  0  0  0  0  0  0  0
    6.4936  -15.9390   26.4633 C   0  0  0  0  0  0  0  0  0  0  0  0
    6.8470  -14.5111   26.4442 C   0  0  0  0  0  0  0  0  0  0  0  0
    8.1880  -14.1829   26.6713 C   0  0  0  0  0  0  0  0  0  0  0  0
    8.6610  -12.9036   26.6512 C   0  0  0  0  0  0  0  0  0  0  0  0
    7.7716  -11.8835   26.3939 C   0  0  0  0  0  0  0  0  0  0  0  0
    6.4394  -12.1987   26.1673 C   0  0  0  0  0  0  0  0  0  0  0  0
    5.9573  -13.4867   26.1864 C   0  0  0  0  0  0  0  0  0  0  0  0
    8.1496  -16.3528   24.6666 C   0  0  0  0  0  0  0  0  0  0  0  0
    9.0946  -16.9994   25.2659 O   0  0  0  0  0  0  0  0  0  0  0  0
    8.5906  -15.5156   23.6233 N   0  0  0  0  0  0  0  0  0  0  0  0
    7.9017  -14.3861   23.0747 C   0  0  0  0  0  0  0  0  0  0  0  0
    8.7483  -13.9013   21.8797 C   0  0  0  0  0  0  0  0  0  0  0  0
    9.5408  -15.1719   21.5330 C   0  0  0  0  0  0  0  0  0  0  0  0
    9.8408  -15.6651   22.9266 C   0  0  1  0  0  0  0  0  0  0  0  0
   10.8971  -14.7735   23.4719 C   0  0  0  0  0  0  0  0  0  0  0  0
   12.0447  -14.6591   22.9858 O   0  0  0  0  0  0  0  0  0  0  0  0
   10.5678  -14.0263   24.5960 O   0  0  0  0  0  0  0  0  0  0  0  0
  2  1  1  0
  3  2  1  0
  3  4  1  0
  4  5  1  0
  5  6  1  6
  7  5  1  0
  7  8  2  0
  9  7  1  0
 10  9  1  0
 10 11  1  1
 12 13  2  0
 12 11  1  0
 14 13  1  0
 15 14  2  0
 16 15  1  0
 16 17  2  0
 17 12  1  0
 18 10  1  0
 19 18  2  0
 20 18  1  0
 20 24  1  0
 21 20  1  0
 22 21  1  0
 22 23  1  0
 23 24  1  0
 24 25  1  1
 25 27  1  0
 26 25  2  0
M  END
$$$$
