MFP.pdb
     RDKit          3D

 27 28  0  0  1  0  0  0  0  0999 V2000
    8.9337  -22.8822   23.8216 C   0  0  0  0  0  0  0  0  0  0  0  0
    7.5648  -23.1881   22.6518 S   0  0  0  0  0  0  0  0  0  0  0  0
    6.1957  -22.1269   23.1051 C   0  0  0  0  0  0  0  0  0  0  0  0
    6.5009  -20.6499   22.9565 C   0  0  0  0  0  0  0  0  0  0  0  0
    5.3827  -19.8130   23.5162 C   0  0  2  0  0  0  0  0  0  0  0  0
    4.2480  -19.9533   22.6233 N   0  0  0  0  0  0  0  0  0  0  0  0
    5.6862  -18.3967   23.6700 C   0  0  0  0  0  0  0  0  0  0  0  0
    5.5829  -17.6000   22.6899 O   0  0  0  0  0  0  0  0  0  0  0  0
    6.1125  -17.7916   24.8924 N   0  0  0  0  0  0  0  0  0  0  0  0
    6.6393  -16.4507   24.9918 C   0  0  1  0  0  0  0  0  0  0  0  0
    6.6681  -15.9576   26.3987 C   0  0  0  0  0  0  0  0  0  0  0  0
    6.9974  -14.5247   26.4487 C   0  0  0  0  0  0  0  0  0  0  0  0
    5.9274  -13.6269   26.5317 C   0  0  0  0  0  0  0  0  0  0  0  0
    6.0874  -12.2750   26.6162 C   0  0  0  0  0  0  0  0  0  0  0  0
    7.3687  -11.7689   26.6200 C   0  0  0  0  0  0  0  0  0  0  0  0
    8.4366  -12.6510   26.5381 C   0  0  0  0  0  0  0  0  0  0  0  0
    8.2809  -14.0149   26.4528 C   0  0  0  0  0  0  0  0  0  0  0  0
    7.8546  -16.1813   24.2344 C   0  0  0  0  0  0  0  0  0  0  0  0
    8.8265  -17.0197   24.3854 O   0  0  0  0  0  0  0  0  0  0  0  0
    8.1335  -15.1234   23.3474 N   0  0  0  0  0  0  0  0  0  0  0  0
    7.4734  -13.8539   23.2851 C   0  0  0  0  0  0  0  0  0  0  0  0
    8.0663  -13.1171   22.0661 C   0  0  0  0  0  0  0  0  0  0  0  0
    8.5988  -14.2919   21.2301 C   0  0  0  0  0  0  0  0  0  0  0  0
    9.1579  -15.1507   22.3371 C   0  0  1  0  0  0  0  0  0  0  0  0
   10.4107  -14.4927   22.7903 C   0  0  0  0  0  0  0  0  0  0  0  0
   10.5651  -13.9673   23.9156 O   0  0  0  0  0  0  0  0  0  0  0  0
   11.4682  -14.4705   21.8895 O   0  0  0  0  0  0  0  0  0  0  0  0
  2  1  1  0
  3  2  1  0
  3  4  1  0
  4  5  1  0
  5  6  1  6
  7  5  1  0
  7  8  2  0
  9  7  1  0
 10  9  1  0
 10 11  1  1
 12 13  2  0
 12 11  1  0
 14 13  1  0
 15 14  2  0
 16 15  1  0
 16 17  2  0
 17 12  1  0
 18 10  1  0
 19 18  2  0
 20 18  1  0
 20 24  1  0
 21 20  1  0
 22 21  1  0
 22 23  1  0
 23 24  1  0
 24 25  1  1
 25 27  1  0
 26 25  2  0
M  END
$$$$
