MFP.pdb
     RDKit          3D

 27 28  0  0  1  0  0  0  0  0999 V2000
   10.2422  -20.7295   22.6898 C   0  0  0  0  0  0  0  0  0  0  0  0
    8.9179  -20.1490   23.8057 S   0  0  0  0  0  0  0  0  0  0  0  0
    7.4943  -21.2118   23.5823 C   0  0  0  0  0  0  0  0  0  0  0  0
    6.3867  -20.9573   24.5849 C   0  0  0  0  0  0  0  0  0  0  0  0
    5.4034  -19.9505   24.0526 C   0  0  2  0  0  0  0  0  0  0  0  0
    5.0784  -20.3394   22.6932 N   0  0  0  0  0  0  0  0  0  0  0  0
    5.8711  -18.5710   24.0466 C   0  0  0  0  0  0  0  0  0  0  0  0
    6.1226  -17.9751   22.9568 O   0  0  0  0  0  0  0  0  0  0  0  0
    6.0830  -17.7864   25.2220 N   0  0  0  0  0  0  0  0  0  0  0  0
    6.6614  -16.4632   25.2192 C   0  0  1  0  0  0  0  0  0  0  0  0
    6.5426  -15.7916   26.5451 C   0  0  0  0  0  0  0  0  0  0  0  0
    6.8632  -14.3596   26.4417 C   0  0  0  0  0  0  0  0  0  0  0  0
    8.1985  -13.9894   26.6358 C   0  0  0  0  0  0  0  0  0  0  0  0
    8.6420  -12.7032   26.5385 C   0  0  0  0  0  0  0  0  0  0  0  0
    7.7273  -11.7193   26.2334 C   0  0  0  0  0  0  0  0  0  0  0  0
    6.4006  -12.0762   26.0389 C   0  0  0  0  0  0  0  0  0  0  0  0
    5.9481  -13.3715   26.1358 C   0  0  0  0  0  0  0  0  0  0  0  0
    7.9725  -16.3378   24.5961 C   0  0  0  0  0  0  0  0  0  0  0  0
    8.8799  -17.1704   24.9882 O   0  0  0  0  0  0  0  0  0  0  0  0
    8.4067  -15.4269   23.6134 N   0  0  0  0  0  0  0  0  0  0  0  0
    7.7735  -14.1989   23.2364 C   0  0  0  0  0  0  0  0  0  0  0  0
    8.5731  -13.6501   22.0366 C   0  0  0  0  0  0  0  0  0  0  0  0
    9.2378  -14.9293   21.5034 C   0  0  0  0  0  0  0  0  0  0  0  0
    9.5914  -15.5894   22.8129 C   0  0  1  0  0  0  0  0  0  0  0  0
   10.7490  -14.8391   23.3650 C   0  0  0  0  0  0  0  0  0  0  0  0
   10.7100  -14.1477   24.4074 O   0  0  0  0  0  0  0  0  0  0  0  0
   11.9442  -14.9245   22.6617 O   0  0  0  0  0  0  0  0  0  0  0  0
  2  1  1  0
  3  2  1  0
  3  4  1  0
  4  5  1  0
  5  6  1  6
  7  5  1  0
  7  8  2  0
  9  7  1  0
 10  9  1  0
 10 11  1  1
 12 13  2  0
 12 11  1  0
 14 13  1  0
 15 14  2  0
 16 15  1  0
 16 17  2  0
 17 12  1  0
 18 10  1  0
 19 18  2  0
 20 18  1  0
 20 24  1  0
 21 20  1  0
 22 21  1  0
 22 23  1  0
 23 24  1  0
 24 25  1  1
 25 27  1  0
 26 25  2  0
M  END
$$$$
