MFP.pdb
     RDKit          3D

 27 28  0  0  1  0  0  0  0  0999 V2000
    9.9602  -21.6324   23.0516 C   0  0  0  0  0  0  0  0  0  0  0  0
   11.0763  -21.3968   21.6252 S   0  0  0  0  0  0  0  0  0  0  0  0
   10.7770  -19.7676   20.9455 C   0  0  0  0  0  0  0  0  0  0  0  0
   11.1134  -18.6420   21.9030 C   0  0  0  0  0  0  0  0  0  0  0  0
   10.7233  -17.3101   21.3219 C   0  0  2  0  0  0  0  0  0  0  0  0
   11.8316  -16.8525   20.5053 N   0  0  0  0  0  0  0  0  0  0  0  0
   10.4030  -16.2781   22.2987 C   0  0  0  0  0  0  0  0  0  0  0  0
   11.3140  -15.5551   22.8023 O   0  0  0  0  0  0  0  0  0  0  0  0
    9.0831  -15.9913   22.7653 N   0  0  0  0  0  0  0  0  0  0  0  0
    8.7908  -15.1488   23.9012 C   0  0  1  0  0  0  0  0  0  0  0  0
    7.4848  -14.4433   23.7604 C   0  0  0  0  0  0  0  0  0  0  0  0
    7.1956  -13.6265   24.9492 C   0  0  0  0  0  0  0  0  0  0  0  0
    7.5847  -12.2831   24.9101 C   0  0  0  0  0  0  0  0  0  0  0  0
    7.3520  -11.4048   25.9274 C   0  0  0  0  0  0  0  0  0  0  0  0
    6.7003  -11.8654   27.0504 C   0  0  0  0  0  0  0  0  0  0  0  0
    6.3103  -13.1962   27.0989 C   0  0  0  0  0  0  0  0  0  0  0  0
    6.5425  -14.0859   26.0761 C   0  0  0  0  0  0  0  0  0  0  0  0
    9.0171  -15.7403   25.2135 C   0  0  0  0  0  0  0  0  0  0  0  0
    8.6038  -16.9536   25.3787 O   0  0  0  0  0  0  0  0  0  0  0  0
    9.6291  -15.1761   26.3497 N   0  0  0  0  0  0  0  0  0  0  0  0
    9.6595  -13.7914   26.7143 C   0  0  0  0  0  0  0  0  0  0  0  0
   10.5584  -13.6925   27.9643 C   0  0  0  0  0  0  0  0  0  0  0  0
   11.4033  -14.9698   27.8331 C   0  0  0  0  0  0  0  0  0  0  0  0
   10.3375  -15.9241   27.3544 C   0  0  1  0  0  0  0  0  0  0  0  0
    9.4845  -16.2298   28.5320 C   0  0  0  0  0  0  0  0  0  0  0  0
    8.2801  -15.9054   28.6347 O   0  0  0  0  0  0  0  0  0  0  0  0
   10.0835  -16.9224   29.5769 O   0  0  0  0  0  0  0  0  0  0  0  0
  2  1  1  0
  3  2  1  0
  3  4  1  0
  4  5  1  0
  5  6  1  1
  7  5  1  0
  7  8  2  0
  9  7  1  0
 10  9  1  0
 10 11  1  1
 12 13  2  0
 12 11  1  0
 14 13  1  0
 15 14  2  0
 16 15  1  0
 16 17  2  0
 17 12  1  0
 18 10  1  0
 19 18  2  0
 20 18  1  0
 20 24  1  0
 21 20  1  0
 22 21  1  0
 22 23  1  0
 23 24  1  0
 24 25  1  1
 25 27  1  0
 26 25  2  0
M  END
$$$$
