MFP.pdb
     RDKit          3D

 27 28  0  0  1  0  0  0  0  0999 V2000
    8.9929  -11.8484   18.9492 C   0  0  0  0  0  0  0  0  0  0  0  0
    8.1748  -13.3504   18.3085 S   0  0  0  0  0  0  0  0  0  0  0  0
    8.4374  -14.6741   19.4853 C   0  0  0  0  0  0  0  0  0  0  0  0
    9.8769  -15.1425   19.5569 C   0  0  0  0  0  0  0  0  0  0  0  0
   10.0616  -16.1371   20.6707 C   0  0  2  0  0  0  0  0  0  0  0  0
    9.1083  -17.2094   20.4564 N   0  0  0  0  0  0  0  0  0  0  0  0
    9.8748  -15.6049   22.0137 C   0  0  0  0  0  0  0  0  0  0  0  0
   10.7818  -14.9185   22.5725 O   0  0  0  0  0  0  0  0  0  0  0  0
    8.6973  -15.7968   22.8004 N   0  0  0  0  0  0  0  0  0  0  0  0
    8.4662  -15.1671   24.0793 C   0  0  1  0  0  0  0  0  0  0  0  0
    7.0507  -14.7293   24.2461 C   0  0  0  0  0  0  0  0  0  0  0  0
    6.9229  -13.7673   25.3517 C   0  0  0  0  0  0  0  0  0  0  0  0
    6.4510  -14.2592   26.5737 C   0  0  0  0  0  0  0  0  0  0  0  0
    6.3127  -13.4875   27.6899 C   0  0  0  0  0  0  0  0  0  0  0  0
    6.6557  -12.1557   27.6085 C   0  0  0  0  0  0  0  0  0  0  0  0
    7.1249  -11.6583   26.4011 C   0  0  0  0  0  0  0  0  0  0  0  0
    7.2662  -12.4319   25.2727 C   0  0  0  0  0  0  0  0  0  0  0  0
    9.0268  -15.8471   25.2396 C   0  0  0  0  0  0  0  0  0  0  0  0
    8.9513  -17.1373   25.2447 O   0  0  0  0  0  0  0  0  0  0  0  0
    9.6487  -15.2978   26.3778 N   0  0  0  0  0  0  0  0  0  0  0  0
    9.4733  -13.9771   26.9031 C   0  0  0  0  0  0  0  0  0  0  0  0
   10.4703  -13.8402   28.0724 C   0  0  0  0  0  0  0  0  0  0  0  0
   11.5083  -14.9158   27.7144 C   0  0  0  0  0  0  0  0  0  0  0  0
   10.5825  -15.9988   27.2189 C   0  0  1  0  0  0  0  0  0  0  0  0
    9.9293  -16.5786   28.4210 C   0  0  0  0  0  0  0  0  0  0  0  0
   10.5378  -17.1797   29.3345 O   0  0  0  0  0  0  0  0  0  0  0  0
    8.5510  -16.4325   28.5171 O   0  0  0  0  0  0  0  0  0  0  0  0
  2  1  1  0
  3  2  1  0
  3  4  1  0
  4  5  1  0
  5  6  1  6
  7  5  1  0
  7  8  2  0
  9  7  1  0
 10  9  1  0
 10 11  1  1
 12 13  2  0
 12 11  1  0
 14 13  1  0
 15 14  2  0
 16 15  1  0
 16 17  2  0
 17 12  1  0
 18 10  1  0
 19 18  2  0
 20 18  1  0
 20 24  1  0
 21 20  1  0
 22 21  1  0
 22 23  1  0
 23 24  1  0
 24 25  1  1
 25 27  1  0
 26 25  2  0
M  END
$$$$
