FGM.pdb
     RDKit          3D

 24 24  0  0  1  0  0  0  0  0999 V2000
   26.1558  -17.9512  -15.8354 N   0  0  0  0  0  0  0  0  0  0  0  0
   25.7885  -19.2241  -15.2557 C   0  0  1  0  0  0  0  0  0  0  0  0
   25.5932  -20.2082  -16.3901 C   0  0  0  0  0  0  0  0  0  0  0  0
   24.4104  -19.8274  -17.1708 C   0  0  0  0  0  0  0  0  0  0  0  0
   24.5401  -19.3235  -18.4371 C   0  0  0  0  0  0  0  0  0  0  0  0
   23.4220  -18.9560  -19.1938 C   0  0  0  0  0  0  0  0  0  0  0  0
   22.1547  -19.1155  -18.6243 C   0  0  0  0  0  0  0  0  0  0  0  0
   22.0237  -19.6199  -17.3566 C   0  0  0  0  0  0  0  0  0  0  0  0
   23.1513  -19.9709  -16.6422 C   0  0  0  0  0  0  0  0  0  0  0  0
   26.8613  -19.6468  -14.3322 C   0  0  0  0  0  0  0  0  0  0  0  0
   28.0428  -19.3025  -14.5646 O   0  0  0  0  0  0  0  0  0  0  0  0
   26.6137  -20.4334  -13.1810 N   0  0  0  0  0  0  0  0  0  0  0  0
   27.7110  -20.8265  -12.3142 C   0  0  0  0  0  0  0  0  0  0  0  0
   27.1950  -21.4031  -11.0649 C   0  0  0  0  0  0  0  0  0  0  0  0
   26.8705  -22.6173  -11.0255 O   0  0  0  0  0  0  0  0  0  0  0  0
   28.3061  -18.1556   -5.2605 C   0  0  0  0  0  0  0  0  0  0  0  0
   28.9455  -19.3390   -6.4797 S   0  0  0  0  0  0  0  0  0  0  0  0
   27.7018  -20.5467   -6.8185 C   0  0  0  0  0  0  0  0  0  0  0  0
   26.5256  -20.1929   -7.6000 C   0  0  0  0  0  0  0  0  0  0  0  0
   26.1365  -20.9407   -8.8009 C   0  0  2  0  0  0  0  0  0  0  0  0
   27.0599  -20.6086   -9.9085 N   0  0  0  0  0  0  0  0  0  0  0  0
   24.7836  -20.8201   -9.3084 C   0  0  0  0  0  0  0  0  0  0  0  0
   24.4093  -20.1748  -10.3210 O   0  0  0  0  0  0  0  0  0  0  0  0
   23.7320  -21.4766   -8.6340 O   0  0  0  0  0  0  0  0  0  0  0  0
  2  1  1  6
  3  4  1  0
  3  2  1  0
  4  5  2  0
  5  6  1  0
  7  6  2  0
  8  7  1  0
  9  4  1  0
  9  8  2  0
 10  2  1  0
 10 12  1  0
 11 10  2  0
 13 14  1  0
 13 12  1  0
 14 21  1  0
 15 14  2  0
 17 16  1  0
 18 19  1  0
 18 17  1  0
 20 19  1  1
 20 22  1  0
 21 20  1  0
 22 23  2  0
 22 24  1  0
M  END
$$$$
