FGM.pdb
     RDKit          3D

 24 24  0  0  1  0  0  0  0  0999 V2000
   22.1215  -19.6781  -12.9142 N   0  0  0  0  0  0  0  0  0  0  0  0
   22.9613  -20.3842  -13.8562 C   0  0  1  0  0  0  0  0  0  0  0  0
   22.8238  -19.6993  -15.1999 C   0  0  0  0  0  0  0  0  0  0  0  0
   21.4695  -19.9138  -15.7228 C   0  0  0  0  0  0  0  0  0  0  0  0
   21.1029  -21.1275  -16.2395 C   0  0  0  0  0  0  0  0  0  0  0  0
   19.8157  -21.3475  -16.7417 C   0  0  0  0  0  0  0  0  0  0  0  0
   18.9004  -20.2907  -16.7051 C   0  0  0  0  0  0  0  0  0  0  0  0
   19.2663  -19.0752  -16.1880 C   0  0  0  0  0  0  0  0  0  0  0  0
   20.5460  -18.8980  -15.7022 C   0  0  0  0  0  0  0  0  0  0  0  0
   24.3519  -20.3566  -13.3584 C   0  0  0  0  0  0  0  0  0  0  0  0
   24.7288  -19.4012  -12.6417 O   0  0  0  0  0  0  0  0  0  0  0  0
   25.2916  -21.3729  -13.6571 N   0  0  0  0  0  0  0  0  0  0  0  0
   26.6553  -21.2750  -13.1666 C   0  0  0  0  0  0  0  0  0  0  0  0
   26.7115  -21.6175  -11.7386 C   0  0  0  0  0  0  0  0  0  0  0  0
   27.1425  -22.7441  -11.3839 O   0  0  0  0  0  0  0  0  0  0  0  0
   28.3897  -19.1306   -4.8071 C   0  0  0  0  0  0  0  0  0  0  0  0
   27.2916  -19.3227   -6.2399 S   0  0  0  0  0  0  0  0  0  0  0  0
   28.0842  -20.3472   -7.4409 C   0  0  0  0  0  0  0  0  0  0  0  0
   27.6748  -20.2965   -8.8370 C   0  0  0  0  0  0  0  0  0  0  0  0
   26.4372  -20.9287   -9.3075 C   0  0  2  0  0  0  0  0  0  0  0  0
   26.2867  -20.6952  -10.7610 N   0  0  0  0  0  0  0  0  0  0  0  0
   25.1773  -20.5859   -8.6768 C   0  0  0  0  0  0  0  0  0  0  0  0
   24.3377  -19.7377   -9.0738 O   0  0  0  0  0  0  0  0  0  0  0  0
   24.7998  -21.2428   -7.4861 O   0  0  0  0  0  0  0  0  0  0  0  0
  2  1  1  1
  3  4  1  0
  3  2  1  0
  4  5  2  0
  5  6  1  0
  7  6  2  0
  8  7  1  0
  9  4  1  0
  9  8  2  0
 10  2  1  0
 10 12  1  0
 11 10  2  0
 13 14  1  0
 13 12  1  0
 14 21  1  0
 15 14  2  0
 17 16  1  0
 18 19  1  0
 18 17  1  0
 20 19  1  1
 20 22  1  0
 21 20  1  0
 22 23  2  0
 22 24  1  0
M  END
$$$$
