FGM.pdb
     RDKit          3D

 24 24  0  0  1  0  0  0  0  0999 V2000
   24.7030  -19.7239  -16.0208 N   0  0  0  0  0  0  0  0  0  0  0  0
   23.9023  -19.4519  -14.8478 C   0  0  1  0  0  0  0  0  0  0  0  0
   22.4676  -19.8091  -15.1758 C   0  0  0  0  0  0  0  0  0  0  0  0
   21.9117  -18.8093  -16.0950 C   0  0  0  0  0  0  0  0  0  0  0  0
   21.4559  -19.1740  -17.3333 C   0  0  0  0  0  0  0  0  0  0  0  0
   20.9232  -18.2325  -18.2207 C   0  0  0  0  0  0  0  0  0  0  0  0
   20.8650  -16.8960  -17.8129 C   0  0  0  0  0  0  0  0  0  0  0  0
   21.3211  -16.5298  -16.5733 C   0  0  0  0  0  0  0  0  0  0  0  0
   21.8396  -17.4885  -15.7267 C   0  0  0  0  0  0  0  0  0  0  0  0
   24.4303  -20.2507  -13.7229 C   0  0  0  0  0  0  0  0  0  0  0  0
   23.6312  -20.7745  -12.9132 O   0  0  0  0  0  0  0  0  0  0  0  0
   25.8159  -20.4552  -13.5139 N   0  0  0  0  0  0  0  0  0  0  0  0
   26.5113  -19.7324  -12.4633 C   0  0  0  0  0  0  0  0  0  0  0  0
   26.6644  -20.5808  -11.2732 C   0  0  0  0  0  0  0  0  0  0  0  0
   26.4769  -21.8209  -11.3629 O   0  0  0  0  0  0  0  0  0  0  0  0
   29.3181  -18.3188   -5.7919 C   0  0  0  0  0  0  0  0  0  0  0  0
   28.1940  -19.5087   -5.0068 S   0  0  0  0  0  0  0  0  0  0  0  0
   27.2510  -20.3237   -6.2585 C   0  0  0  0  0  0  0  0  0  0  0  0
   27.3970  -19.9420   -7.6557 C   0  0  0  0  0  0  0  0  0  0  0  0
   26.6999  -20.6539   -8.7328 C   0  0  2  0  0  0  0  0  0  0  0  0
   27.0196  -20.0185  -10.0305 N   0  0  0  0  0  0  0  0  0  0  0  0
   25.2602  -20.8130   -8.6668 C   0  0  0  0  0  0  0  0  0  0  0  0
   24.6199  -21.6238   -7.9493 O   0  0  0  0  0  0  0  0  0  0  0  0
   24.4375  -19.9971   -9.4724 O   0  0  0  0  0  0  0  0  0  0  0  0
  2  1  1  6
  3  4  1  0
  3  2  1  0
  4  5  2  0
  5  6  1  0
  7  6  2  0
  8  7  1  0
  9  4  1  0
  9  8  2  0
 10  2  1  0
 10 12  1  0
 11 10  2  0
 13 14  1  0
 13 12  1  0
 14 21  1  0
 15 14  2  0
 17 16  1  0
 18 19  1  0
 18 17  1  0
 20 19  1  1
 20 22  1  0
 21 20  1  0
 22 23  2  0
 22 24  1  0
M  END
$$$$
