FGM.pdb
     RDKit          3D

 24 24  0  0  1  0  0  0  0  0999 V2000
   17.6966  -11.4026  -15.7510 N   0  0  0  0  0  0  0  0  0  0  0  0
   17.7164   -9.9711  -15.9547 C   0  0  1  0  0  0  0  0  0  0  0  0
   17.5047   -9.7127  -17.4319 C   0  0  0  0  0  0  0  0  0  0  0  0
   18.6023  -10.3158  -18.1969 C   0  0  0  0  0  0  0  0  0  0  0  0
   19.8223   -9.6995  -18.2749 C   0  0  0  0  0  0  0  0  0  0  0  0
   20.8783  -10.2619  -19.0003 C   0  0  0  0  0  0  0  0  0  0  0  0
   20.6603  -11.4802  -19.6515 C   0  0  0  0  0  0  0  0  0  0  0  0
   19.4393  -12.0981  -19.5741 C   0  0  0  0  0  0  0  0  0  0  0  0
   18.4226  -11.5110  -18.8483 C   0  0  0  0  0  0  0  0  0  0  0  0
   16.6542   -9.3640  -15.1268 C   0  0  0  0  0  0  0  0  0  0  0  0
   15.6142  -10.0186  -14.8853 O   0  0  0  0  0  0  0  0  0  0  0  0
   16.7575   -8.0593  -14.5861 N   0  0  0  0  0  0  0  0  0  0  0  0
   15.6727   -7.5087  -13.7924 C   0  0  0  0  0  0  0  0  0  0  0  0
   16.1165   -7.2748  -12.4112 C   0  0  0  0  0  0  0  0  0  0  0  0
   17.3276   -7.4295  -12.1105 O   0  0  0  0  0  0  0  0  0  0  0  0
   13.8292   -3.5287   -5.7982 C   0  0  0  0  0  0  0  0  0  0  0  0
   13.3218   -4.1610   -7.4225 S   0  0  0  0  0  0  0  0  0  0  0  0
   14.6471   -5.1013   -8.1151 C   0  0  0  0  0  0  0  0  0  0  0  0
   14.5178   -5.6903   -9.4401 C   0  0  0  0  0  0  0  0  0  0  0  0
   15.6054   -6.4555  -10.0601 C   0  0  2  0  0  0  0  0  0  0  0  0
   15.1979   -6.8784  -11.4184 N   0  0  0  0  0  0  0  0  0  0  0  0
   16.1347   -7.6213   -9.3795 C   0  0  0  0  0  0  0  0  0  0  0  0
   15.7471   -8.8115   -9.5034 O   0  0  0  0  0  0  0  0  0  0  0  0
   17.2005   -7.4642   -8.4679 O   0  0  0  0  0  0  0  0  0  0  0  0
  2  1  1  6
  3  4  1  0
  3  2  1  0
  4  5  2  0
  5  6  1  0
  7  6  2  0
  8  7  1  0
  9  4  1  0
  9  8  2  0
 10  2  1  0
 10 12  1  0
 11 10  2  0
 13 14  1  0
 13 12  1  0
 14 21  1  0
 15 14  2  0
 17 16  1  0
 18 19  1  0
 18 17  1  0
 20 19  1  1
 20 22  1  0
 21 20  1  0
 22 23  2  0
 22 24  1  0
M  END
$$$$
