FGM.pdb
     RDKit          3D

 24 24  0  0  1  0  0  0  0  0999 V2000
   15.9618  -19.5748    1.9227 N   0  0  0  0  0  0  0  0  0  0  0  0
   16.4733  -18.5546    2.8107 C   0  0  1  0  0  0  0  0  0  0  0  0
   15.9264  -17.2214    2.3449 C   0  0  0  0  0  0  0  0  0  0  0  0
   16.9230  -16.1717    2.5866 C   0  0  0  0  0  0  0  0  0  0  0  0
   16.6148  -15.0759    3.3472 C   0  0  0  0  0  0  0  0  0  0  0  0
   17.5541  -14.0668    3.5866 C   0  0  0  0  0  0  0  0  0  0  0  0
   18.8286  -14.2014    3.0270 C   0  0  0  0  0  0  0  0  0  0  0  0
   19.1383  -15.2980    2.2654 C   0  0  0  0  0  0  0  0  0  0  0  0
   18.1839  -16.2720    2.0523 C   0  0  0  0  0  0  0  0  0  0  0  0
   16.0513  -18.8770    4.1892 C   0  0  0  0  0  0  0  0  0  0  0  0
   15.0530  -19.6112    4.3700 O   0  0  0  0  0  0  0  0  0  0  0  0
   16.7313  -18.3887    5.3313 N   0  0  0  0  0  0  0  0  0  0  0  0
   16.1985  -18.6342    6.6601 C   0  0  0  0  0  0  0  0  0  0  0  0
   17.1389  -18.1590    7.6846 C   0  0  0  0  0  0  0  0  0  0  0  0
   18.2681  -17.7253    7.3416 O   0  0  0  0  0  0  0  0  0  0  0  0
   17.6559  -14.3101   14.4226 C   0  0  0  0  0  0  0  0  0  0  0  0
   16.5808  -15.0055   13.1357 S   0  0  0  0  0  0  0  0  0  0  0  0
   17.5480  -16.0241   12.0645 C   0  0  0  0  0  0  0  0  0  0  0  0
   16.9069  -16.8149   11.0239 C   0  0  0  0  0  0  0  0  0  0  0  0
   17.6742  -17.6824   10.1231 C   0  0  2  0  0  0  0  0  0  0  0  0
   16.7880  -18.1842    9.0495 N   0  0  0  0  0  0  0  0  0  0  0  0
   18.3896  -18.8202   10.6672 C   0  0  0  0  0  0  0  0  0  0  0  0
   18.0165  -20.0214   10.6641 O   0  0  0  0  0  0  0  0  0  0  0  0
   19.6455  -18.6184   11.2784 O   0  0  0  0  0  0  0  0  0  0  0  0
  2  1  1  6
  3  4  1  0
  3  2  1  0
  4  5  2  0
  5  6  1  0
  7  6  2  0
  8  7  1  0
  9  4  1  0
  9  8  2  0
 10  2  1  0
 10 12  1  0
 11 10  2  0
 13 14  1  0
 13 12  1  0
 14 21  1  0
 15 14  2  0
 17 16  1  0
 18 19  1  0
 18 17  1  0
 20 19  1  1
 20 22  1  0
 21 20  1  0
 22 23  2  0
 22 24  1  0
M  END
$$$$
