FGM.pdb
     RDKit          3D

 24 24  0  0  1  0  0  0  0  0999 V2000
   25.5433  -19.7045  -15.7094 N   0  0  0  0  0  0  0  0  0  0  0  0
   25.9511  -19.1860  -14.4226 C   0  0  1  0  0  0  0  0  0  0  0  0
   25.4341  -17.7669  -14.3124 C   0  0  0  0  0  0  0  0  0  0  0  0
   26.0485  -16.9392  -15.3569 C   0  0  0  0  0  0  0  0  0  0  0  0
   27.3020  -16.4152  -15.1875 C   0  0  0  0  0  0  0  0  0  0  0  0
   27.9011  -15.6243  -16.1740 C   0  0  0  0  0  0  0  0  0  0  0  0
   27.1859  -15.3768  -17.3501 C   0  0  0  0  0  0  0  0  0  0  0  0
   25.9310  -15.9009  -17.5207 C   0  0  0  0  0  0  0  0  0  0  0  0
   25.3744  -16.6764  -16.5238 C   0  0  0  0  0  0  0  0  0  0  0  0
   25.4004  -20.0613  -13.3675 C   0  0  0  0  0  0  0  0  0  0  0  0
   24.2404  -20.5170  -13.4911 O   0  0  0  0  0  0  0  0  0  0  0  0
   26.1317  -20.4142  -12.2074 N   0  0  0  0  0  0  0  0  0  0  0  0
   25.4713  -20.4675  -10.9148 C   0  0  0  0  0  0  0  0  0  0  0  0
   26.4415  -20.7833   -9.8571 C   0  0  0  0  0  0  0  0  0  0  0  0
   27.6727  -20.6713  -10.0862 O   0  0  0  0  0  0  0  0  0  0  0  0
   28.4794  -19.3404   -3.5294 C   0  0  0  0  0  0  0  0  0  0  0  0
   28.8569  -19.4482   -5.3019 S   0  0  0  0  0  0  0  0  0  0  0  0
   27.5515  -18.6876   -6.2170 C   0  0  0  0  0  0  0  0  0  0  0  0
   26.9481  -19.3757   -7.3491 C   0  0  0  0  0  0  0  0  0  0  0  0
   26.6736  -20.8169   -7.3262 C   0  0  2  0  0  0  0  0  0  0  0  0
   26.0058  -21.2110   -8.5866 N   0  0  0  0  0  0  0  0  0  0  0  0
   25.9077  -21.3793   -6.2311 C   0  0  0  0  0  0  0  0  0  0  0  0
   26.3497  -21.7721   -5.1209 O   0  0  0  0  0  0  0  0  0  0  0  0
   24.5108  -21.5258   -6.3689 O   0  0  0  0  0  0  0  0  0  0  0  0
  2  1  1  6
  3  4  1  0
  3  2  1  0
  4  5  2  0
  5  6  1  0
  7  6  2  0
  8  7  1  0
  9  4  1  0
  9  8  2  0
 10  2  1  0
 10 12  1  0
 11 10  2  0
 13 14  1  0
 13 12  1  0
 14 21  1  0
 15 14  2  0
 17 16  1  0
 18 19  1  0
 18 17  1  0
 20 19  1  1
 20 22  1  0
 21 20  1  0
 22 23  2  0
 22 24  1  0
M  END
$$$$
