FGM.pdb
     RDKit          3D

 24 24  0  0  1  0  0  0  0  0999 V2000
   26.8528  -22.2800  -11.6743 N   0  0  0  0  0  0  0  0  0  0  0  0
   25.9116  -21.2155  -11.4060 C   0  0  1  0  0  0  0  0  0  0  0  0
   26.7048  -19.9873  -11.0112 C   0  0  0  0  0  0  0  0  0  0  0  0
   27.3071  -20.1971   -9.6895 C   0  0  0  0  0  0  0  0  0  0  0  0
   26.5810  -19.9862   -8.5482 C   0  0  0  0  0  0  0  0  0  0  0  0
   27.1412  -20.1819   -7.2810 C   0  0  0  0  0  0  0  0  0  0  0  0
   28.4727  -20.6020   -7.2026 C   0  0  0  0  0  0  0  0  0  0  0  0
   29.2006  -20.8134   -8.3447 C   0  0  0  0  0  0  0  0  0  0  0  0
   28.6119  -20.6093   -9.5762 C   0  0  0  0  0  0  0  0  0  0  0  0
   25.1019  -20.9871  -12.6204 C   0  0  0  0  0  0  0  0  0  0  0  0
   25.5611  -20.2702  -13.5388 O   0  0  0  0  0  0  0  0  0  0  0  0
   23.8138  -21.5480  -12.7976 N   0  0  0  0  0  0  0  0  0  0  0  0
   22.7578  -20.7711  -13.4231 C   0  0  0  0  0  0  0  0  0  0  0  0
   21.4995  -21.5302  -13.4300 C   0  0  0  0  0  0  0  0  0  0  0  0
   21.3156  -22.4251  -14.2939 O   0  0  0  0  0  0  0  0  0  0  0  0
   20.0026  -23.9059   -7.7945 C   0  0  0  0  0  0  0  0  0  0  0  0
   18.3173  -23.6086   -8.4004 S   0  0  0  0  0  0  0  0  0  0  0  0
   18.3674  -23.3670  -10.1495 C   0  0  0  0  0  0  0  0  0  0  0  0
   19.2954  -22.4098  -10.7341 C   0  0  0  0  0  0  0  0  0  0  0  0
   19.3893  -22.2040  -12.1838 C   0  0  2  0  0  0  0  0  0  0  0  0
   20.4950  -21.2654  -12.4773 N   0  0  0  0  0  0  0  0  0  0  0  0
   18.2234  -21.7490  -12.9160 C   0  0  0  0  0  0  0  0  0  0  0  0
   17.9222  -20.5607  -13.1978 O   0  0  0  0  0  0  0  0  0  0  0  0
   17.2910  -22.6973  -13.3883 O   0  0  0  0  0  0  0  0  0  0  0  0
  2  1  1  6
  3  4  1  0
  3  2  1  0
  4  5  2  0
  5  6  1  0
  7  6  2  0
  8  7  1  0
  9  4  1  0
  9  8  2  0
 10  2  1  0
 10 12  1  0
 11 10  2  0
 13 14  1  0
 13 12  1  0
 14 21  1  0
 15 14  2  0
 17 16  1  0
 18 19  1  0
 18 17  1  0
 20 19  1  1
 20 22  1  0
 21 20  1  0
 22 23  2  0
 22 24  1  0
M  END
$$$$
