FGM.pdb
     RDKit          3D

 24 24  0  0  1  0  0  0  0  0999 V2000
   22.4220   -7.2702  -12.7053 N   0  0  0  0  0  0  0  0  0  0  0  0
   21.0664   -7.7497  -12.5529 C   0  0  1  0  0  0  0  0  0  0  0  0
   21.1248   -9.2546  -12.3930 C   0  0  0  0  0  0  0  0  0  0  0  0
   21.6051   -9.8614  -13.6398 C   0  0  0  0  0  0  0  0  0  0  0  0
   20.8602   -9.7880  -14.7862 C   0  0  0  0  0  0  0  0  0  0  0  0
   21.3046  -10.3614  -15.9825 C   0  0  0  0  0  0  0  0  0  0  0  0
   22.5390  -11.0187  -15.9841 C   0  0  0  0  0  0  0  0  0  0  0  0
   23.2856  -11.0928  -14.8371 C   0  0  0  0  0  0  0  0  0  0  0  0
   22.8125  -10.5142  -13.6768 C   0  0  0  0  0  0  0  0  0  0  0  0
   20.4638   -7.0892  -11.3768 C   0  0  0  0  0  0  0  0  0  0  0  0
   21.2084   -6.6491  -10.4711 O   0  0  0  0  0  0  0  0  0  0  0  0
   19.0655   -6.9278  -11.2230 N   0  0  0  0  0  0  0  0  0  0  0  0
   18.5299   -6.2834  -10.0365 C   0  0  0  0  0  0  0  0  0  0  0  0
   17.0832   -6.0686  -10.1795 C   0  0  0  0  0  0  0  0  0  0  0  0
   16.5224   -6.3098  -11.2788 O   0  0  0  0  0  0  0  0  0  0  0  0
   13.2574  -10.5565   -8.8867 C   0  0  0  0  0  0  0  0  0  0  0  0
   13.0709   -8.9429   -8.0760 S   0  0  0  0  0  0  0  0  0  0  0  0
   14.0363   -7.7457   -8.9449 C   0  0  0  0  0  0  0  0  0  0  0  0
   14.1366   -6.3807   -8.4491 C   0  0  0  0  0  0  0  0  0  0  0  0
   14.8616   -5.3381   -9.1841 C   0  0  2  0  0  0  0  0  0  0  0  0
   16.3163   -5.5946   -9.0960 N   0  0  0  0  0  0  0  0  0  0  0  0
   14.6420   -3.9449   -8.8474 C   0  0  0  0  0  0  0  0  0  0  0  0
   15.3017   -3.2496   -8.0330 O   0  0  0  0  0  0  0  0  0  0  0  0
   13.5883   -3.2418   -9.4696 O   0  0  0  0  0  0  0  0  0  0  0  0
  2  1  1  1
  3  4  1  0
  3  2  1  0
  4  5  2  0
  5  6  1  0
  7  6  2  0
  8  7  1  0
  9  4  1  0
  9  8  2  0
 10  2  1  0
 10 12  1  0
 11 10  2  0
 13 14  1  0
 13 12  1  0
 14 21  1  0
 15 14  2  0
 17 16  1  0
 18 19  1  0
 18 17  1  0
 20 19  1  1
 20 22  1  0
 21 20  1  0
 22 23  2  0
 22 24  1  0
M  END
$$$$
