FGM.pdb
     RDKit          3D

 24 24  0  0  1  0  0  0  0  0999 V2000
   14.7461  -13.5788    3.5605 N   0  0  0  0  0  0  0  0  0  0  0  0
   15.7587  -14.6107    3.5337 C   0  0  1  0  0  0  0  0  0  0  0  0
   16.8695  -14.1431    2.6167 C   0  0  0  0  0  0  0  0  0  0  0  0
   17.8154  -15.2425    2.3928 C   0  0  0  0  0  0  0  0  0  0  0  0
   19.1576  -15.0627    2.5939 C   0  0  0  0  0  0  0  0  0  0  0  0
   20.0718  -16.1011    2.3847 C   0  0  0  0  0  0  0  0  0  0  0  0
   19.5816  -17.3405    1.9613 C   0  0  0  0  0  0  0  0  0  0  0  0
   18.2380  -17.5216    1.7596 C   0  0  0  0  0  0  0  0  0  0  0  0
   17.3681  -16.4722    1.9770 C   0  0  0  0  0  0  0  0  0  0  0  0
   16.2356  -14.8369    4.9134 C   0  0  0  0  0  0  0  0  0  0  0  0
   16.3901  -13.8571    5.6782 O   0  0  0  0  0  0  0  0  0  0  0  0
   16.5305  -16.1262    5.4192 N   0  0  0  0  0  0  0  0  0  0  0  0
   16.9258  -16.2946    6.8068 C   0  0  0  0  0  0  0  0  0  0  0  0
   18.2738  -16.8741    6.8883 C   0  0  0  0  0  0  0  0  0  0  0  0
   18.7600  -17.4653    5.8907 O   0  0  0  0  0  0  0  0  0  0  0  0
   23.7917  -14.9652   10.4061 C   0  0  0  0  0  0  0  0  0  0  0  0
   23.6187  -16.3535    9.2492 S   0  0  0  0  0  0  0  0  0  0  0  0
   22.3154  -17.4084    9.8047 C   0  0  0  0  0  0  0  0  0  0  0  0
   20.9270  -17.0748    9.5213 C   0  0  0  0  0  0  0  0  0  0  0  0
   20.2257  -17.6011    8.3449 C   0  0  2  0  0  0  0  0  0  0  0  0
   19.0287  -16.7742    8.0744 N   0  0  0  0  0  0  0  0  0  0  0  0
   19.8112  -18.9904    8.3246 C   0  0  0  0  0  0  0  0  0  0  0  0
   18.8284  -19.4964    8.9247 O   0  0  0  0  0  0  0  0  0  0  0  0
   20.5528  -19.9214    7.5663 O   0  0  0  0  0  0  0  0  0  0  0  0
  2  1  1  1
  3  4  1  0
  3  2  1  0
  4  5  2  0
  5  6  1  0
  7  6  2  0
  8  7  1  0
  9  4  1  0
  9  8  2  0
 10  2  1  0
 10 12  1  0
 11 10  2  0
 13 14  1  0
 13 12  1  0
 14 21  1  0
 15 14  2  0
 17 16  1  0
 18 19  1  0
 18 17  1  0
 20 19  1  1
 20 22  1  0
 21 20  1  0
 22 23  2  0
 22 24  1  0
M  END
$$$$
