NAL.pdb
     RDKit          3D

 22 21  0  0  1  0  0  0  0  0999 V2000
   25.9648  -20.9468  -16.9961 N   0  0  0  0  0  0  0  0  0  0  0  0
   27.1978  -20.3110  -17.3064 C   0  0  0  0  0  0  0  0  0  0  0  0
   27.2174  -19.0598  -17.2416 O   0  0  0  0  0  0  0  0  0  0  0  0
   28.3787  -21.0988  -17.6823 C   0  0  0  0  0  0  0  0  0  0  0  0
   28.2003  -22.5936  -17.6185 C   0  0  2  0  0  0  0  0  0  0  0  0
   27.4914  -22.8400  -16.3392 N   0  0  0  0  0  0  0  0  0  0  0  0
   29.5435  -23.2278  -17.5380 C   0  0  0  0  0  0  0  0  0  0  0  0
   30.4218  -23.0868  -18.4081 O   0  0  0  0  0  0  0  0  0  0  0  0
   31.5577  -24.8218  -14.8770 C   0  0  0  0  0  0  0  0  0  0  0  0
   31.1933  -24.7249  -16.3310 C   0  0  2  0  0  0  0  0  0  0  0  0
   29.9102  -24.0574  -16.4259 N   0  0  0  0  0  0  0  0  0  0  0  0
   31.1897  -26.0322  -17.0122 C   0  0  0  0  0  0  0  0  0  0  0  0
   32.2386  -26.7337  -16.9708 O   0  0  0  0  0  0  0  0  0  0  0  0
   30.4752  -30.9907  -18.3822 C   0  0  0  0  0  0  0  0  0  0  0  0
   29.2473  -30.1718  -18.5964 C   0  0  1  0  0  0  0  0  0  0  0  0
   27.9596  -30.9577  -18.3589 C   0  0  0  0  0  0  0  0  0  0  0  0
   29.2145  -28.8728  -17.8883 C   0  0  0  0  0  0  0  0  0  0  0  0
   30.1792  -27.8404  -18.3603 C   0  0  2  0  0  0  0  0  0  0  0  0
   30.0786  -26.5709  -17.7226 N   0  0  0  0  0  0  0  0  0  0  0  0
   29.9695  -27.6724  -19.8196 C   0  0  0  0  0  0  0  0  0  0  0  0
   28.8657  -27.2261  -20.2151 O   0  0  0  0  0  0  0  0  0  0  0  0
   30.9237  -27.9809  -20.7626 O   0  0  0  0  0  0  0  0  0  0  0  0
  2  1  1  0
  3  2  2  0
  4  2  1  0
  4  5  1  0
  5  6  1  1
  7  5  1  0
  7 11  1  0
  8  7  2  0
 10  9  1  1
 10 11  1  0
 10 12  1  0
 12 19  1  0
 13 12  2  0
 15 14  1  1
 16 15  1  0
 17 15  1  0
 18 17  1  1
 19 18  1  0
 20 22  1  0
 20 18  1  0
 21 20  2  0
M  END
$$$$
