NAL.pdb
     RDKit          3D

 22 21  0  0  1  0  0  0  0  0999 V2000
   16.7995  -14.2247  -19.9876 N   0  0  0  0  0  0  0  0  0  0  0  0
   17.0289  -13.8277  -18.6419 C   0  0  0  0  0  0  0  0  0  0  0  0
   16.1766  -14.1868  -17.7966 O   0  0  0  0  0  0  0  0  0  0  0  0
   18.2118  -13.0362  -18.2806 C   0  0  0  0  0  0  0  0  0  0  0  0
   19.0956  -12.6390  -19.4344 C   0  0  2  0  0  0  0  0  0  0  0  0
   20.0174  -13.7856  -19.6225 N   0  0  0  0  0  0  0  0  0  0  0  0
   19.8996  -11.4547  -19.0293 C   0  0  0  0  0  0  0  0  0  0  0  0
   20.9106  -11.5264  -18.3074 O   0  0  0  0  0  0  0  0  0  0  0  0
   19.8551   -7.8259  -19.9921 C   0  0  0  0  0  0  0  0  0  0  0  0
   20.3357   -8.9609  -19.1335 C   0  0  2  0  0  0  0  0  0  0  0  0
   19.5455  -10.1318  -19.4585 N   0  0  0  0  0  0  0  0  0  0  0  0
   20.2982   -8.6493  -17.6931 C   0  0  0  0  0  0  0  0  0  0  0  0
   19.2350   -8.8865  -17.0550 O   0  0  0  0  0  0  0  0  0  0  0  0
   23.7286  -10.2190  -13.7722 C   0  0  0  0  0  0  0  0  0  0  0  0
   22.5184   -9.7691  -14.5187 C   0  0  1  0  0  0  0  0  0  0  0  0
   21.2228  -10.3502  -13.9564 C   0  0  0  0  0  0  0  0  0  0  0  0
   22.4003   -8.3081  -14.7225 C   0  0  0  0  0  0  0  0  0  0  0  0
   21.2568   -7.8499  -15.5600 C   0  0  2  0  0  0  0  0  0  0  0  0
   21.3843   -8.0938  -16.9574 N   0  0  0  0  0  0  0  0  0  0  0  0
   21.0958   -6.3927  -15.3309 C   0  0  0  0  0  0  0  0  0  0  0  0
   21.3629   -5.6086  -16.2732 O   0  0  0  0  0  0  0  0  0  0  0  0
   20.6683   -5.8559  -14.1375 O   0  0  0  0  0  0  0  0  0  0  0  0
  2  1  1  0
  3  2  2  0
  4  2  1  0
  4  5  1  0
  5  6  1  1
  7  5  1  0
  7 11  1  0
  8  7  2  0
 10  9  1  6
 10 11  1  0
 10 12  1  0
 12 19  1  0
 13 12  2  0
 15 14  1  1
 16 15  1  0
 17 15  1  0
 18 17  1  1
 19 18  1  0
 20 22  1  0
 20 18  1  0
 21 20  2  0
M  END
$$$$
