NAL.pdb
     RDKit          3D

 22 21  0  0  1  0  0  0  0  0999 V2000
   15.2525  -13.0791  -17.1401 N   0  0  0  0  0  0  0  0  0  0  0  0
   14.3400  -12.0340  -17.4504 C   0  0  0  0  0  0  0  0  0  0  0  0
   13.3518  -12.3415  -18.1567 O   0  0  0  0  0  0  0  0  0  0  0  0
   14.5621  -10.6685  -16.9581 C   0  0  0  0  0  0  0  0  0  0  0  0
   15.7836  -10.4879  -16.0946 C   0  0  2  0  0  0  0  0  0  0  0  0
   15.3458  -10.8651  -14.7288 N   0  0  0  0  0  0  0  0  0  0  0  0
   16.1487   -9.0457  -16.0866 C   0  0  0  0  0  0  0  0  0  0  0  0
   16.6596   -8.4622  -17.0597 O   0  0  0  0  0  0  0  0  0  0  0  0
   15.2754   -6.1394  -13.9733 C   0  0  0  0  0  0  0  0  0  0  0  0
   16.2567   -6.8167  -14.8867 C   0  0  2  0  0  0  0  0  0  0  0  0
   15.9269   -8.2276  -14.9287 N   0  0  0  0  0  0  0  0  0  0  0  0
   17.6597   -6.5869  -14.4968 C   0  0  0  0  0  0  0  0  0  0  0  0
   18.0651   -5.3963  -14.3874 O   0  0  0  0  0  0  0  0  0  0  0  0
   22.6354   -7.0770  -12.4395 C   0  0  0  0  0  0  0  0  0  0  0  0
   22.2833   -8.1300  -13.4353 C   0  0  1  0  0  0  0  0  0  0  0  0
   23.0876   -9.4151  -13.2512 C   0  0  0  0  0  0  0  0  0  0  0  0
   20.8391   -8.4227  -13.5714 C   0  0  0  0  0  0  0  0  0  0  0  0
   19.9842   -7.3069  -14.0645 C   0  0  2  0  0  0  0  0  0  0  0  0
   18.6046   -7.6193  -14.2307 N   0  0  0  0  0  0  0  0  0  0  0  0
   20.5443   -6.8607  -15.3641 C   0  0  0  0  0  0  0  0  0  0  0  0
   21.3897   -5.9336  -15.3614 O   0  0  0  0  0  0  0  0  0  0  0  0
   20.1845   -7.4114  -16.5734 O   0  0  0  0  0  0  0  0  0  0  0  0
  2  1  1  0
  3  2  2  0
  4  2  1  0
  4  5  1  0
  5  6  1  1
  7  5  1  0
  7 11  1  0
  8  7  2  0
 10  9  1  1
 10 11  1  0
 10 12  1  0
 12 19  1  0
 13 12  2  0
 15 14  1  1
 16 15  1  0
 17 15  1  0
 18 17  1  6
 19 18  1  0
 20 22  1  0
 20 18  1  0
 21 20  2  0
M  END
$$$$
