NAL.pdb
     RDKit          3D

 22 21  0  0  1  0  0  0  0  0999 V2000
   22.1004  -15.1523  -17.6200 N   0  0  0  0  0  0  0  0  0  0  0  0
   22.8663  -15.8763  -18.5743 C   0  0  0  0  0  0  0  0  0  0  0  0
   22.7482  -15.5270  -19.7718 O   0  0  0  0  0  0  0  0  0  0  0  0
   23.7461  -16.9755  -18.1574 C   0  0  0  0  0  0  0  0  0  0  0  0
   23.6436  -17.3647  -16.7054 C   0  0  2  0  0  0  0  0  0  0  0  0
   24.1383  -16.1838  -15.9569 N   0  0  0  0  0  0  0  0  0  0  0  0
   24.5711  -18.5001  -16.4529 C   0  0  0  0  0  0  0  0  0  0  0  0
   24.4487  -19.6175  -16.9867 O   0  0  0  0  0  0  0  0  0  0  0  0
   27.9232  -18.8448  -14.8791 C   0  0  0  0  0  0  0  0  0  0  0  0
   26.6097  -19.4496  -15.2856 C   0  0  2  0  0  0  0  0  0  0  0  0
   25.6853  -18.3670  -15.5583 N   0  0  0  0  0  0  0  0  0  0  0  0
   26.0774  -20.3947  -14.2874 C   0  0  0  0  0  0  0  0  0  0  0  0
   26.6676  -21.4999  -14.1324 O   0  0  0  0  0  0  0  0  0  0  0  0
   26.0841  -20.0254   -9.2886 C   0  0  0  0  0  0  0  0  0  0  0  0
   25.9773  -20.5994  -10.6610 C   0  0  1  0  0  0  0  0  0  0  0  0
   26.8709  -21.8207  -10.8658 C   0  0  0  0  0  0  0  0  0  0  0  0
   24.6012  -20.8626  -11.1377 C   0  0  0  0  0  0  0  0  0  0  0  0
   24.4525  -21.1603  -12.5897 C   0  0  2  0  0  0  0  0  0  0  0  0
   24.9331  -20.1526  -13.4741 N   0  0  0  0  0  0  0  0  0  0  0  0
   23.0098  -21.3908  -12.8491 C   0  0  0  0  0  0  0  0  0  0  0  0
   22.4305  -20.6569  -13.6857 O   0  0  0  0  0  0  0  0  0  0  0  0
   22.2736  -22.3688  -12.2194 O   0  0  0  0  0  0  0  0  0  0  0  0
  2  1  1  0
  3  2  2  0
  4  2  1  0
  4  5  1  0
  5  6  1  1
  7  5  1  0
  7 11  1  0
  8  7  2  0
 10  9  1  1
 10 11  1  0
 10 12  1  0
 12 19  1  0
 13 12  2  0
 15 14  1  1
 16 15  1  0
 17 15  1  0
 18 17  1  1
 19 18  1  0
 20 22  1  0
 20 18  1  0
 21 20  2  0
M  END
$$$$
