NAL.pdb
     RDKit          3D

 22 21  0  0  1  0  0  0  0  0999 V2000
   23.8393  -23.3503  -15.3171 N   0  0  0  0  0  0  0  0  0  0  0  0
   24.2766  -24.0562  -14.1632 C   0  0  0  0  0  0  0  0  0  0  0  0
   23.9632  -25.2673  -14.0925 O   0  0  0  0  0  0  0  0  0  0  0  0
   25.0557  -23.3818  -13.1171 C   0  0  0  0  0  0  0  0  0  0  0  0
   25.2987  -21.9123  -13.3441 C   0  0  2  0  0  0  0  0  0  0  0  0
   26.3329  -21.8550  -14.4056 N   0  0  0  0  0  0  0  0  0  0  0  0
   25.8722  -21.3296  -12.1012 C   0  0  0  0  0  0  0  0  0  0  0  0
   26.9632  -21.6826  -11.6181 O   0  0  0  0  0  0  0  0  0  0  0  0
   24.9032  -18.4492   -9.8955 C   0  0  0  0  0  0  0  0  0  0  0  0
   25.7438  -19.6552  -10.2038 C   0  0  2  0  0  0  0  0  0  0  0  0
   25.1826  -20.3034  -11.3725 N   0  0  0  0  0  0  0  0  0  0  0  0
   25.8651  -20.5797   -9.0620 C   0  0  0  0  0  0  0  0  0  0  0  0
   25.1224  -21.6003   -9.0342 O   0  0  0  0  0  0  0  0  0  0  0  0
   29.1547  -19.2675   -4.7397 C   0  0  0  0  0  0  0  0  0  0  0  0
   28.6434  -19.9022   -5.9887 C   0  0  1  0  0  0  0  0  0  0  0  0
   29.7552  -20.2557   -6.9742 C   0  0  0  0  0  0  0  0  0  0  0  0
   27.7237  -21.0451   -5.7938 C   0  0  0  0  0  0  0  0  0  0  0  0
   26.6225  -21.1817   -6.7877 C   0  0  2  0  0  0  0  0  0  0  0  0
   26.7681  -20.4068   -7.9738 N   0  0  0  0  0  0  0  0  0  0  0  0
   25.3608  -20.8001   -6.1063 C   0  0  0  0  0  0  0  0  0  0  0  0
   24.9224  -21.5502   -5.2013 O   0  0  0  0  0  0  0  0  0  0  0  0
   24.6460  -19.6650   -6.4156 O   0  0  0  0  0  0  0  0  0  0  0  0
  2  1  1  0
  3  2  2  0
  4  2  1  0
  4  5  1  0
  5  6  1  6
  7  5  1  0
  7 11  1  0
  8  7  2  0
 10  9  1  1
 10 11  1  0
 10 12  1  0
 12 19  1  0
 13 12  2  0
 15 14  1  1
 16 15  1  0
 17 15  1  0
 18 17  1  1
 19 18  1  0
 20 22  1  0
 20 18  1  0
 21 20  2  0
M  END
$$$$
