NAL.pdb
     RDKit          3D

 22 21  0  0  1  0  0  0  0  0999 V2000
   23.9344  -25.5090  -14.8717 N   0  0  0  0  0  0  0  0  0  0  0  0
   24.9253  -24.5086  -15.0677 C   0  0  0  0  0  0  0  0  0  0  0  0
   25.9151  -24.8268  -15.7669 O   0  0  0  0  0  0  0  0  0  0  0  0
   24.7778  -23.1746  -14.4720 C   0  0  0  0  0  0  0  0  0  0  0  0
   23.5915  -23.0068  -13.5584 C   0  0  2  0  0  0  0  0  0  0  0  0
   22.4282  -22.8554  -14.4658 N   0  0  0  0  0  0  0  0  0  0  0  0
   23.7568  -21.7405  -12.7953 C   0  0  0  0  0  0  0  0  0  0  0  0
   23.4022  -20.6285  -13.2267 O   0  0  0  0  0  0  0  0  0  0  0  0
   25.0938  -20.8198   -9.4112 C   0  0  0  0  0  0  0  0  0  0  0  0
   24.8642  -20.5268  -10.8664 C   0  0  2  0  0  0  0  0  0  0  0  0
   24.3485  -21.7305  -11.4879 N   0  0  0  0  0  0  0  0  0  0  0  0
   26.0695  -20.0231  -11.5495 C   0  0  0  0  0  0  0  0  0  0  0  0
   26.5340  -18.9026  -11.1993 O   0  0  0  0  0  0  0  0  0  0  0  0
   30.7886  -22.1279  -11.4202 C   0  0  0  0  0  0  0  0  0  0  0  0
   29.6680  -21.1592  -11.5940 C   0  0  1  0  0  0  0  0  0  0  0  0
   29.9481  -19.8040  -10.9479 C   0  0  0  0  0  0  0  0  0  0  0  0
   29.1751  -20.9949  -12.9796 C   0  0  0  0  0  0  0  0  0  0  0  0
   27.9483  -20.1670  -13.1488 C   0  0  2  0  0  0  0  0  0  0  0  0
   26.7585  -20.7132  -12.5880 N   0  0  0  0  0  0  0  0  0  0  0  0
   27.7516  -19.9589  -14.6048 C   0  0  0  0  0  0  0  0  0  0  0  0
   26.6833  -20.3614  -15.1249 O   0  0  0  0  0  0  0  0  0  0  0  0
   28.6810  -19.3466  -15.4150 O   0  0  0  0  0  0  0  0  0  0  0  0
  2  1  1  0
  3  2  2  0
  4  2  1  0
  4  5  1  0
  5  6  1  6
  7  5  1  0
  7 11  1  0
  8  7  2  0
 10  9  1  1
 10 11  1  0
 10 12  1  0
 12 19  1  0
 13 12  2  0
 15 14  1  6
 16 15  1  0
 17 15  1  0
 18 17  1  6
 19 18  1  0
 20 22  1  0
 20 18  1  0
 21 20  2  0
M  END
$$$$
