NAL.pdb
     RDKit          3D

 22 21  0  0  1  0  0  0  0  0999 V2000
   18.1834  -15.5979  -19.8346 N   0  0  0  0  0  0  0  0  0  0  0  0
   18.7613  -15.3310  -18.5634 C   0  0  0  0  0  0  0  0  0  0  0  0
   18.8966  -16.3081  -17.7908 O   0  0  0  0  0  0  0  0  0  0  0  0
   19.1725  -13.9709  -18.1928 C   0  0  0  0  0  0  0  0  0  0  0  0
   18.8364  -12.9016  -19.1997 C   0  0  2  0  0  0  0  0  0  0  0  0
   19.7208  -13.1756  -20.3583 N   0  0  0  0  0  0  0  0  0  0  0  0
   19.2099  -11.5796  -18.6290 C   0  0  0  0  0  0  0  0  0  0  0  0
   20.3529  -11.0946  -18.7127 O   0  0  0  0  0  0  0  0  0  0  0  0
   17.2945   -8.8312  -16.9216 C   0  0  0  0  0  0  0  0  0  0  0  0
   18.5763   -9.4791  -17.3614 C   0  0  2  0  0  0  0  0  0  0  0  0
   18.2502  -10.7704  -17.9336 N   0  0  0  0  0  0  0  0  0  0  0  0
   19.5682   -9.5883  -16.2764 C   0  0  0  0  0  0  0  0  0  0  0  0
   19.5461  -10.6163  -15.5439 O   0  0  0  0  0  0  0  0  0  0  0  0
   23.5447  -10.6917  -13.3405 C   0  0  0  0  0  0  0  0  0  0  0  0
   23.8452   -9.7820  -14.4835 C   0  0  1  0  0  0  0  0  0  0  0  0
   25.1624  -10.1173  -15.1799 C   0  0  0  0  0  0  0  0  0  0  0  0
   22.7532   -9.6107  -15.4674 C   0  0  0  0  0  0  0  0  0  0  0  0
   21.5544   -8.8615  -14.9976 C   0  0  2  0  0  0  0  0  0  0  0  0
   20.5624   -8.6095  -15.9881 N   0  0  0  0  0  0  0  0  0  0  0  0
   22.0289   -7.5703  -14.4414 C   0  0  0  0  0  0  0  0  0  0  0  0
   22.1216   -6.5869  -15.2149 O   0  0  0  0  0  0  0  0  0  0  0  0
   22.3726   -7.3951  -13.1200 O   0  0  0  0  0  0  0  0  0  0  0  0
  2  1  1  0
  3  2  2  0
  4  2  1  0
  4  5  1  0
  5  6  1  6
  7  5  1  0
  7 11  1  0
  8  7  2  0
 10  9  1  1
 10 11  1  0
 10 12  1  0
 12 19  1  0
 13 12  2  0
 15 14  1  1
 16 15  1  0
 17 15  1  0
 18 17  1  6
 19 18  1  0
 20 22  1  0
 20 18  1  0
 21 20  2  0
M  END
$$$$
