NAL.pdb
     RDKit          3D

 22 21  0  0  1  0  0  0  0  0999 V2000
   12.6308   -9.3140  -15.1898 N   0  0  0  0  0  0  0  0  0  0  0  0
   13.6659   -9.3157  -14.2153 C   0  0  0  0  0  0  0  0  0  0  0  0
   13.3098   -9.3987  -13.0168 O   0  0  0  0  0  0  0  0  0  0  0  0
   15.0763   -9.2241  -14.6134 C   0  0  0  0  0  0  0  0  0  0  0  0
   15.3187   -9.1038  -16.0956 C   0  0  2  0  0  0  0  0  0  0  0  0
   15.1244  -10.4746  -16.6275 N   0  0  0  0  0  0  0  0  0  0  0  0
   16.7380   -8.7150  -16.3134 C   0  0  0  0  0  0  0  0  0  0  0  0
   17.6974   -9.4824  -16.1161 O   0  0  0  0  0  0  0  0  0  0  0  0
   18.4158   -5.7107  -17.8114 C   0  0  0  0  0  0  0  0  0  0  0  0
   18.4550   -6.9996  -17.0410 C   0  0  2  0  0  0  0  0  0  0  0  0
   17.0883   -7.4017  -16.7741 N   0  0  0  0  0  0  0  0  0  0  0  0
   19.2570   -6.9090  -15.8074 C   0  0  0  0  0  0  0  0  0  0  0  0
   18.6760   -6.5781  -14.7365 O   0  0  0  0  0  0  0  0  0  0  0  0
   23.2525  -10.2504  -13.7823 C   0  0  0  0  0  0  0  0  0  0  0  0
   22.1165   -9.2919  -13.9048 C   0  0  1  0  0  0  0  0  0  0  0  0
   21.1815   -9.3206  -12.6976 C   0  0  0  0  0  0  0  0  0  0  0  0
   22.4880   -7.9030  -14.2554 C   0  0  0  0  0  0  0  0  0  0  0  0
   21.3603   -6.9637  -14.5106 C   0  0  2  0  0  0  0  0  0  0  0  0
   20.6555   -7.1697  -15.7310 N   0  0  0  0  0  0  0  0  0  0  0  0
   21.9169   -5.5883  -14.4938 C   0  0  0  0  0  0  0  0  0  0  0  0
   21.9373   -4.9409  -15.5682 O   0  0  0  0  0  0  0  0  0  0  0  0
   22.4123   -4.9852  -13.3598 O   0  0  0  0  0  0  0  0  0  0  0  0
  2  1  1  0
  3  2  2  0
  4  2  1  0
  4  5  1  0
  5  6  1  6
  7  5  1  0
  7 11  1  0
  8  7  2  0
 10  9  1  1
 10 11  1  0
 10 12  1  0
 12 19  1  0
 13 12  2  0
 15 14  1  1
 16 15  1  0
 17 15  1  0
 18 17  1  6
 19 18  1  0
 20 22  1  0
 20 18  1  0
 21 20  2  0
M  END
$$$$
