NAL.pdb
     RDKit          3D

 22 21  0  0  1  0  0  0  0  0999 V2000
   16.1862  -15.4460  -15.2816 N   0  0  0  0  0  0  0  0  0  0  0  0
   16.1377  -14.3274  -16.1576 C   0  0  0  0  0  0  0  0  0  0  0  0
   15.0622  -14.1412  -16.7729 O   0  0  0  0  0  0  0  0  0  0  0  0
   17.3008  -13.4458  -16.3197 C   0  0  0  0  0  0  0  0  0  0  0  0
   17.7902  -13.2822  -17.7353 C   0  0  2  0  0  0  0  0  0  0  0  0
   18.4950  -14.5498  -18.0453 N   0  0  0  0  0  0  0  0  0  0  0  0
   18.7835  -12.1753  -17.7680 C   0  0  0  0  0  0  0  0  0  0  0  0
   19.9836  -12.3217  -17.4734 O   0  0  0  0  0  0  0  0  0  0  0  0
   18.6928   -8.6624  -19.0724 C   0  0  0  0  0  0  0  0  0  0  0  0
   19.3609   -9.7672  -18.3049 C   0  0  2  0  0  0  0  0  0  0  0  0
   18.4041  -10.8450  -18.1500 N   0  0  0  0  0  0  0  0  0  0  0  0
   19.9070   -9.3207  -17.0105 C   0  0  0  0  0  0  0  0  0  0  0  0
   19.1601   -9.3719  -15.9939 O   0  0  0  0  0  0  0  0  0  0  0  0
   24.7473  -10.5310  -14.6055 C   0  0  0  0  0  0  0  0  0  0  0  0
   23.3159  -10.1654  -14.8096 C   0  0  1  0  0  0  0  0  0  0  0  0
   22.4197  -10.6034  -13.6532 C   0  0  0  0  0  0  0  0  0  0  0  0
   23.0630   -8.7529  -15.1715 C   0  0  0  0  0  0  0  0  0  0  0  0
   21.6589   -8.4050  -15.5269 C   0  0  2  0  0  0  0  0  0  0  0  0
   21.2302   -8.8296  -16.8171 N   0  0  0  0  0  0  0  0  0  0  0  0
   21.5298   -6.9299  -15.4299 C   0  0  0  0  0  0  0  0  0  0  0  0
   21.4517   -6.2678  -16.4927 O   0  0  0  0  0  0  0  0  0  0  0  0
   21.4912   -6.2498  -14.2338 O   0  0  0  0  0  0  0  0  0  0  0  0
  2  1  1  0
  3  2  2  0
  4  2  1  0
  4  5  1  0
  5  6  1  1
  7  5  1  0
  7 11  1  0
  8  7  2  0
 10  9  1  1
 10 11  1  0
 10 12  1  0
 12 19  1  0
 13 12  2  0
 15 14  1  1
 16 15  1  0
 17 15  1  0
 18 17  1  6
 19 18  1  0
 20 22  1  0
 20 18  1  0
 21 20  2  0
M  END
$$$$
