NAL.pdb
     RDKit          3D

 22 21  0  0  1  0  0  0  0  0999 V2000
   13.9710  -14.5878  -16.4944 N   0  0  0  0  0  0  0  0  0  0  0  0
   14.9720  -14.2503  -15.5430 C   0  0  0  0  0  0  0  0  0  0  0  0
   14.8884  -14.7997  -14.4200 O   0  0  0  0  0  0  0  0  0  0  0  0
   16.0424  -13.3028  -15.8787 C   0  0  0  0  0  0  0  0  0  0  0  0
   15.9371  -12.6720  -17.2430 C   0  0  2  0  0  0  0  0  0  0  0  0
   16.2774  -13.7581  -18.1939 N   0  0  0  0  0  0  0  0  0  0  0  0
   16.9735  -11.6108  -17.3553 C   0  0  0  0  0  0  0  0  0  0  0  0
   18.1698  -11.8442  -17.6058 O   0  0  0  0  0  0  0  0  0  0  0  0
   16.8683   -7.8552  -17.3456 C   0  0  0  0  0  0  0  0  0  0  0  0
   17.6135   -9.1592  -17.3300 C   0  0  2  0  0  0  0  0  0  0  0  0
   16.6437  -10.2256  -17.1768 N   0  0  0  0  0  0  0  0  0  0  0  0
   18.6621   -9.2110  -16.2952 C   0  0  0  0  0  0  0  0  0  0  0  0
   18.3351   -9.5564  -15.1257 O   0  0  0  0  0  0  0  0  0  0  0  0
   22.8354  -10.2954  -13.3919 C   0  0  0  0  0  0  0  0  0  0  0  0
   23.2643   -9.6968  -14.6888 C   0  0  1  0  0  0  0  0  0  0  0  0
   24.5846  -10.2693  -15.2001 C   0  0  0  0  0  0  0  0  0  0  0  0
   22.2406   -9.6875  -15.7574 C   0  0  0  0  0  0  0  0  0  0  0  0
   20.9715   -8.9715  -15.4480 C   0  0  2  0  0  0  0  0  0  0  0  0
   20.0338   -8.8969  -16.5174 N   0  0  0  0  0  0  0  0  0  0  0  0
   21.3316   -7.5981  -15.0169 C   0  0  0  0  0  0  0  0  0  0  0  0
   21.6870   -7.4215  -13.8267 O   0  0  0  0  0  0  0  0  0  0  0  0
   21.2960   -6.5069  -15.8554 O   0  0  0  0  0  0  0  0  0  0  0  0
  2  1  1  0
  3  2  2  0
  4  2  1  0
  4  5  1  0
  5  6  1  6
  7  5  1  0
  7 11  1  0
  8  7  2  0
 10  9  1  1
 10 11  1  0
 10 12  1  0
 12 19  1  0
 13 12  2  0
 15 14  1  1
 16 15  1  0
 17 15  1  0
 18 17  1  6
 19 18  1  0
 20 22  1  0
 20 18  1  0
 21 20  2  0
M  END
$$$$
