NAL.pdb
     RDKit          3D

 22 21  0  0  1  0  0  0  0  0999 V2000
   22.8708  -18.0894  -16.9002 N   0  0  0  0  0  0  0  0  0  0  0  0
   23.5824  -19.2014  -17.4276 C   0  0  0  0  0  0  0  0  0  0  0  0
   23.3398  -19.5114  -18.6171 O   0  0  0  0  0  0  0  0  0  0  0  0
   24.5496  -19.9373  -16.6033 C   0  0  0  0  0  0  0  0  0  0  0  0
   24.5331  -19.5964  -15.1358 C   0  0  2  0  0  0  0  0  0  0  0  0
   25.0969  -18.2271  -15.0547 N   0  0  0  0  0  0  0  0  0  0  0  0
   25.4535  -20.5235  -14.4240 C   0  0  0  0  0  0  0  0  0  0  0  0
   25.2102  -21.7313  -14.2490 O   0  0  0  0  0  0  0  0  0  0  0  0
   28.8903  -20.1965  -12.9398 C   0  0  0  0  0  0  0  0  0  0  0  0
   27.5797  -20.9123  -13.1019 C   0  0  2  0  0  0  0  0  0  0  0  0
   26.7030  -20.0659  -13.8868 N   0  0  0  0  0  0  0  0  0  0  0  0
   26.9717  -21.2987  -11.8158 C   0  0  0  0  0  0  0  0  0  0  0  0
   27.0108  -22.5134  -11.4741 O   0  0  0  0  0  0  0  0  0  0  0  0
   27.5432  -18.5729   -7.2469 C   0  0  0  0  0  0  0  0  0  0  0  0
   27.3484  -19.7136   -8.1877 C   0  0  1  0  0  0  0  0  0  0  0  0
   28.1215  -20.9641   -7.7741 C   0  0  0  0  0  0  0  0  0  0  0  0
   25.9421  -20.0418   -8.5109 C   0  0  0  0  0  0  0  0  0  0  0  0
   25.7223  -20.8753   -9.7258 C   0  0  2  0  0  0  0  0  0  0  0  0
   26.3352  -20.3941  -10.9180 N   0  0  0  0  0  0  0  0  0  0  0  0
   24.2567  -20.9749   -9.9355 C   0  0  0  0  0  0  0  0  0  0  0  0
   23.7860  -20.6011  -11.0367 O   0  0  0  0  0  0  0  0  0  0  0  0
   23.3862  -21.4567   -8.9841 O   0  0  0  0  0  0  0  0  0  0  0  0
  2  1  1  0
  3  2  2  0
  4  2  1  0
  4  5  1  0
  5  6  1  6
  7  5  1  0
  7 11  1  0
  8  7  2  0
 10  9  1  1
 10 11  1  0
 10 12  1  0
 12 19  1  0
 13 12  2  0
 15 14  1  1
 16 15  1  0
 17 15  1  0
 18 17  1  1
 19 18  1  0
 20 22  1  0
 20 18  1  0
 21 20  2  0
M  END
$$$$
