NAL.pdb
     RDKit          3D

 22 21  0  0  1  0  0  0  0  0999 V2000
   15.9054  -23.2536    2.6531 N   0  0  0  0  0  0  0  0  0  0  0  0
   16.8605  -22.5515    3.4379 C   0  0  0  0  0  0  0  0  0  0  0  0
   17.8312  -23.2159    3.8696 O   0  0  0  0  0  0  0  0  0  0  0  0
   16.6998  -21.1189    3.7176 C   0  0  0  0  0  0  0  0  0  0  0  0
   15.4721  -20.4818    3.1200 C   0  0  2  0  0  0  0  0  0  0  0  0
   15.7089  -20.4940    1.6560 N   0  0  0  0  0  0  0  0  0  0  0  0
   15.4064  -19.0657    3.5710 C   0  0  0  0  0  0  0  0  0  0  0  0
   15.8854  -18.1168    2.9238 O   0  0  0  0  0  0  0  0  0  0  0  0
   13.7495  -17.3093    6.4504 C   0  0  0  0  0  0  0  0  0  0  0  0
   14.6963  -17.3398    5.2848 C   0  0  2  0  0  0  0  0  0  0  0  0
   14.7719  -18.7062    4.8070 N   0  0  0  0  0  0  0  0  0  0  0  0
   16.0259  -16.7914    5.6084 C   0  0  0  0  0  0  0  0  0  0  0  0
   16.9581  -17.5982    5.8803 O   0  0  0  0  0  0  0  0  0  0  0  0
   18.3402  -12.0239    3.6512 C   0  0  0  0  0  0  0  0  0  0  0  0
   18.0636  -13.4165    4.1075 C   0  0  1  0  0  0  0  0  0  0  0  0
   18.9586  -14.4527    3.4309 C   0  0  0  0  0  0  0  0  0  0  0  0
   18.0371  -13.6146    5.5738 C   0  0  0  0  0  0  0  0  0  0  0  0
   17.6352  -14.9681    6.0488 C   0  0  2  0  0  0  0  0  0  0  0  0
   16.3426  -15.4028    5.6379 N   0  0  0  0  0  0  0  0  0  0  0  0
   17.6978  -14.9541    7.5312 C   0  0  0  0  0  0  0  0  0  0  0  0
   16.6228  -15.0320    8.1734 O   0  0  0  0  0  0  0  0  0  0  0  0
   18.8747  -14.8600    8.2391 O   0  0  0  0  0  0  0  0  0  0  0  0
  2  1  1  0
  3  2  2  0
  4  2  1  0
  4  5  1  0
  5  6  1  6
  7  5  1  0
  7 11  1  0
  8  7  2  0
 10  9  1  1
 10 11  1  0
 10 12  1  0
 12 19  1  0
 13 12  2  0
 15 14  1  1
 16 15  1  0
 17 15  1  0
 18 17  1  1
 19 18  1  0
 20 22  1  0
 20 18  1  0
 21 20  2  0
M  END
$$$$
