NAL.pdb
     RDKit          3D

 22 21  0  0  1  0  0  0  0  0999 V2000
   14.7174  -12.6972  -15.1001 N   0  0  0  0  0  0  0  0  0  0  0  0
   15.9541  -12.5469  -14.4153 C   0  0  0  0  0  0  0  0  0  0  0  0
   16.0855  -13.1850  -13.3450 O   0  0  0  0  0  0  0  0  0  0  0  0
   17.0127  -11.6820  -14.9517 C   0  0  0  0  0  0  0  0  0  0  0  0
   16.6358  -10.8907  -16.1773 C   0  0  2  0  0  0  0  0  0  0  0  0
   16.6966  -11.8639  -17.2947 N   0  0  0  0  0  0  0  0  0  0  0  0
   17.6740   -9.8502  -16.4068 C   0  0  0  0  0  0  0  0  0  0  0  0
   18.8417  -10.1103  -16.7492 O   0  0  0  0  0  0  0  0  0  0  0  0
   17.6207   -6.1180  -16.6630 C   0  0  0  0  0  0  0  0  0  0  0  0
   18.3594   -7.4117  -16.4710 C   0  0  2  0  0  0  0  0  0  0  0  0
   17.3798   -8.4553  -16.2423 N   0  0  0  0  0  0  0  0  0  0  0  0
   19.3627   -7.3475  -15.3929 C   0  0  0  0  0  0  0  0  0  0  0  0
   18.9695   -7.4654  -14.1990 O   0  0  0  0  0  0  0  0  0  0  0  0
   24.2640   -9.8760  -15.3969 C   0  0  0  0  0  0  0  0  0  0  0  0
   22.9518   -9.2694  -15.0302 C   0  0  1  0  0  0  0  0  0  0  0  0
   22.2337  -10.0325  -13.9192 C   0  0  0  0  0  0  0  0  0  0  0  0
   22.9768   -7.8172  -14.7462 C   0  0  0  0  0  0  0  0  0  0  0  0
   21.6580   -7.1725  -14.4931 C   0  0  2  0  0  0  0  0  0  0  0  0
   20.7599   -7.1600  -15.5985 N   0  0  0  0  0  0  0  0  0  0  0  0
   21.9223   -5.7774  -14.0623 C   0  0  0  0  0  0  0  0  0  0  0  0
   21.6959   -4.8498  -14.8761 O   0  0  0  0  0  0  0  0  0  0  0  0
   22.4032   -5.4477  -12.8153 O   0  0  0  0  0  0  0  0  0  0  0  0
  2  1  1  0
  3  2  2  0
  4  2  1  0
  4  5  1  0
  5  6  1  6
  7  5  1  0
  7 11  1  0
  8  7  2  0
 10  9  1  1
 10 11  1  0
 10 12  1  0
 12 19  1  0
 13 12  2  0
 15 14  1  1
 16 15  1  0
 17 15  1  0
 18 17  1  6
 19 18  1  0
 20 22  1  0
 20 18  1  0
 21 20  2  0
M  END
$$$$
