NAL.pdb
     RDKit          3D

 22 21  0  0  1  0  0  0  0  0999 V2000
   18.3194  -13.1799  -19.7466 N   0  0  0  0  0  0  0  0  0  0  0  0
   17.0949  -12.4590  -19.7919 C   0  0  0  0  0  0  0  0  0  0  0  0
   16.2782  -12.7931  -20.6814 O   0  0  0  0  0  0  0  0  0  0  0  0
   16.8198  -11.3796  -18.8350 C   0  0  0  0  0  0  0  0  0  0  0  0
   17.9196  -11.1057  -17.8423 C   0  0  2  0  0  0  0  0  0  0  0  0
   17.7227  -12.1079  -16.7669 N   0  0  0  0  0  0  0  0  0  0  0  0
   17.7084   -9.7516  -17.2635 C   0  0  0  0  0  0  0  0  0  0  0  0
   17.8119   -8.7006  -17.9216 O   0  0  0  0  0  0  0  0  0  0  0  0
   16.0984   -8.4528  -14.1996 C   0  0  0  0  0  0  0  0  0  0  0  0
   17.1182   -8.2781  -15.2884 C   0  0  2  0  0  0  0  0  0  0  0  0
   17.3655   -9.5777  -15.8808 N   0  0  0  0  0  0  0  0  0  0  0  0
   18.3599   -7.6384  -14.8173 C   0  0  0  0  0  0  0  0  0  0  0  0
   18.2671   -6.6298  -14.0637 O   0  0  0  0  0  0  0  0  0  0  0  0
   21.0528   -8.9948  -12.5028 C   0  0  0  0  0  0  0  0  0  0  0  0
   22.2764   -8.8130  -13.3358 C   0  0  1  0  0  0  0  0  0  0  0  0
   23.0456  -10.1141  -13.5543 C   0  0  0  0  0  0  0  0  0  0  0  0
   22.0779   -8.0929  -14.6133 C   0  0  0  0  0  0  0  0  0  0  0  0
   20.8101   -7.3221  -14.7452 C   0  0  2  0  0  0  0  0  0  0  0  0
   19.6732   -8.0775  -15.1519 N   0  0  0  0  0  0  0  0  0  0  0  0
   21.0520   -6.2360  -15.7269 C   0  0  0  0  0  0  0  0  0  0  0  0
   21.8638   -5.3289  -15.4234 O   0  0  0  0  0  0  0  0  0  0  0  0
   20.4317   -6.1720  -16.9542 O   0  0  0  0  0  0  0  0  0  0  0  0
  2  1  1  0
  3  2  2  0
  4  2  1  0
  4  5  1  0
  5  6  1  1
  7  5  1  0
  7 11  1  0
  8  7  2  0
 10  9  1  1
 10 11  1  0
 10 12  1  0
 12 19  1  0
 13 12  2  0
 15 14  1  6
 16 15  1  0
 17 15  1  0
 18 17  1  6
 19 18  1  0
 20 22  1  0
 20 18  1  0
 21 20  2  0
M  END
$$$$
