NAL.pdb
     RDKit          3D

 22 21  0  0  1  0  0  0  0  0999 V2000
   14.3174  -12.6169  -15.5485 N   0  0  0  0  0  0  0  0  0  0  0  0
   13.6813  -12.1048  -14.3848 C   0  0  0  0  0  0  0  0  0  0  0  0
   12.5225  -12.5188  -14.1490 O   0  0  0  0  0  0  0  0  0  0  0  0
   14.3651  -11.1392  -13.5150 C   0  0  0  0  0  0  0  0  0  0  0  0
   15.7887  -10.8269  -13.8967 C   0  0  2  0  0  0  0  0  0  0  0  0
   16.5772  -11.9875  -13.4161 N   0  0  0  0  0  0  0  0  0  0  0  0
   16.2269   -9.6206  -13.1445 C   0  0  0  0  0  0  0  0  0  0  0  0
   16.2237   -9.5482  -11.9022 O   0  0  0  0  0  0  0  0  0  0  0  0
   17.7771   -6.3407  -14.1187 C   0  0  0  0  0  0  0  0  0  0  0  0
   17.0891   -7.2380  -13.1298 C   0  0  2  0  0  0  0  0  0  0  0  0
   16.6889   -8.4449  -13.8257 N   0  0  0  0  0  0  0  0  0  0  0  0
   15.9534   -6.5857  -12.4534 C   0  0  0  0  0  0  0  0  0  0  0  0
   14.8182   -6.6347  -13.0037 O   0  0  0  0  0  0  0  0  0  0  0  0
   15.0523   -5.8593   -6.9146 C   0  0  0  0  0  0  0  0  0  0  0  0
   15.4728   -6.0716   -8.3296 C   0  0  1  0  0  0  0  0  0  0  0  0
   16.1585   -7.4182   -8.5505 C   0  0  0  0  0  0  0  0  0  0  0  0
   14.4264   -5.8353   -9.3490 C   0  0  0  0  0  0  0  0  0  0  0  0
   14.8880   -5.2744  -10.6495 C   0  0  2  0  0  0  0  0  0  0  0  0
   16.0405   -5.8956  -11.2101 N   0  0  0  0  0  0  0  0  0  0  0  0
   15.1648   -3.8322  -10.4367 C   0  0  0  0  0  0  0  0  0  0  0  0
   14.2117   -3.0849  -10.1095 O   0  0  0  0  0  0  0  0  0  0  0  0
   16.4137   -3.2712  -10.5795 O   0  0  0  0  0  0  0  0  0  0  0  0
  2  1  1  0
  3  2  2  0
  4  2  1  0
  4  5  1  0
  5  6  1  1
  7  5  1  0
  7 11  1  0
  8  7  2  0
 10  9  1  6
 10 11  1  0
 10 12  1  0
 12 19  1  0
 13 12  2  0
 15 14  1  1
 16 15  1  0
 17 15  1  0
 18 17  1  1
 19 18  1  0
 20 22  1  0
 20 18  1  0
 21 20  2  0
M  END
$$$$
