YFL.pdb
     RDKit          3D

 32 33  0  0  1  0  0  0  0  0999 V2000
   10.3913  -24.6453   19.7058 O   0  0  0  0  0  0  0  0  0  0  0  0
   10.4232  -23.4105   20.3301 C   0  0  0  0  0  0  0  0  0  0  0  0
    9.9280  -22.3198   19.6488 C   0  0  0  0  0  0  0  0  0  0  0  0
    9.9209  -21.0399   20.2012 C   0  0  0  0  0  0  0  0  0  0  0  0
   10.4363  -20.8841   21.4846 C   0  0  0  0  0  0  0  0  0  0  0  0
   10.4309  -19.5417   22.0697 C   0  0  0  0  0  0  0  0  0  0  0  0
    9.7645  -18.5299   21.1679 C   0  0  2  0  0  0  0  0  0  0  0  0
   10.5185  -18.2984   19.9652 N   0  0  0  0  0  0  0  0  0  0  0  0
    9.6739  -17.2557   21.9283 C   0  0  0  0  0  0  0  0  0  0  0  0
   10.6107  -16.4235   21.9097 O   0  0  0  0  0  0  0  0  0  0  0  0
   10.9343  -21.9524   22.1824 C   0  0  0  0  0  0  0  0  0  0  0  0
   10.9185  -23.1988   21.5908 C   0  0  0  0  0  0  0  0  0  0  0  0
    8.5433  -16.8983   22.7133 N   0  0  0  0  0  0  0  0  0  0  0  0
    8.3716  -15.7346   23.4894 C   0  0  1  0  0  0  0  0  0  0  0  0
    6.9680  -15.4326   23.9384 C   0  0  0  0  0  0  0  0  0  0  0  0
    6.8693  -14.2166   24.8038 C   0  0  0  0  0  0  0  0  0  0  0  0
    7.3903  -12.9991   24.5349 C   0  0  0  0  0  0  0  0  0  0  0  0
    7.2510  -11.9232   25.4173 C   0  0  0  0  0  0  0  0  0  0  0  0
    6.5637  -12.1086   26.5931 C   0  0  0  0  0  0  0  0  0  0  0  0
    6.0197  -13.3214   26.9073 C   0  0  0  0  0  0  0  0  0  0  0  0
    6.1783  -14.3433   26.0203 C   0  0  0  0  0  0  0  0  0  0  0  0
    9.2793  -15.6062   24.6343 C   0  0  0  0  0  0  0  0  0  0  0  0
    9.7725  -14.4689   24.8713 O   0  0  0  0  0  0  0  0  0  0  0  0
    9.2699  -13.6028   29.2304 C   0  0  0  0  0  0  0  0  0  0  0  0
   10.1312  -14.6837   28.6289 C   0  0  2  0  0  0  0  0  0  0  0  0
   11.5812  -14.3031   28.5610 C   0  0  0  0  0  0  0  0  0  0  0  0
    9.5661  -15.3667   27.4525 C   0  0  0  0  0  0  0  0  0  0  0  0
   10.2964  -16.4526   26.7940 C   0  0  2  0  0  0  0  0  0  0  0  0
    9.6319  -16.6788   25.4856 N   0  0  0  0  0  0  0  0  0  0  0  0
   10.5198  -17.7047   27.4962 C   0  0  0  0  0  0  0  0  0  0  0  0
    9.7063  -18.8185   27.3634 O   0  0  0  0  0  0  0  0  0  0  0  0
   11.4956  -17.8877   28.3092 O   0  0  0  0  0  0  0  0  0  0  0  0
  2  3  2  0
  2  1  1  0
  4  3  1  0
  5  4  2  0
  6  7  1  0
  6  5  1  0
  7  8  1  6
  9  7  1  0
  9 13  1  0
 10  9  2  0
 11  5  1  0
 11 12  2  0
 12  2  1  0
 14 13  1  0
 14 15  1  1
 16 21  1  0
 16 15  1  0
 17 16  2  0
 18 19  2  0
 18 17  1  0
 19 20  1  0
 20 21  2  0
 22 14  1  0
 23 22  2  0
 25 27  1  0
 25 24  1  6
 26 25  1  0
 28 29  1  0
 28 27  1  1
 29 22  1  0
 30 28  1  0
 31 30  1  0
 32 30  2  0
M  END
$$$$
