YFL.pdb
     RDKit          3D

 32 33  0  0  1  0  0  0  0  0999 V2000
   11.6015  -22.3127   16.7791 O   0  0  0  0  0  0  0  0  0  0  0  0
   11.4825  -21.3762   17.7913 C   0  0  0  0  0  0  0  0  0  0  0  0
   12.1551  -20.1808   17.6591 C   0  0  0  0  0  0  0  0  0  0  0  0
   12.0916  -19.1819   18.6294 C   0  0  0  0  0  0  0  0  0  0  0  0
   11.3166  -19.4236   19.7599 C   0  0  0  0  0  0  0  0  0  0  0  0
   11.2463  -18.3774   20.7821 C   0  0  0  0  0  0  0  0  0  0  0  0
   10.2725  -17.2838   20.4120 C   0  0  2  0  0  0  0  0  0  0  0  0
   10.6850  -16.5686   19.2343 N   0  0  0  0  0  0  0  0  0  0  0  0
   10.2223  -16.3346   21.5550 C   0  0  0  0  0  0  0  0  0  0  0  0
   10.6145  -15.1509   21.4303 O   0  0  0  0  0  0  0  0  0  0  0  0
   10.6387  -20.6036   19.9147 C   0  0  0  0  0  0  0  0  0  0  0  0
   10.7344  -21.5604   18.9252 C   0  0  0  0  0  0  0  0  0  0  0  0
    9.7366  -16.6939   22.8424 N   0  0  0  0  0  0  0  0  0  0  0  0
    9.1220  -15.8536   23.7921 C   0  0  1  0  0  0  0  0  0  0  0  0
    7.7956  -15.2618   23.4007 C   0  0  0  0  0  0  0  0  0  0  0  0
    7.2329  -14.3321   24.4285 C   0  0  0  0  0  0  0  0  0  0  0  0
    6.3816  -14.6618   25.4248 C   0  0  0  0  0  0  0  0  0  0  0  0
    5.9028  -13.7129   26.3335 C   0  0  0  0  0  0  0  0  0  0  0  0
    6.3098  -12.4058   26.2106 C   0  0  0  0  0  0  0  0  0  0  0  0
    7.1694  -12.0259   25.2194 C   0  0  0  0  0  0  0  0  0  0  0  0
    7.6120  -12.9814   24.3550 C   0  0  0  0  0  0  0  0  0  0  0  0
    9.0185  -16.4093   25.1455 C   0  0  0  0  0  0  0  0  0  0  0  0
    8.4700  -17.5382   25.2792 O   0  0  0  0  0  0  0  0  0  0  0  0
   10.2716  -13.4802   29.7739 C   0  0  0  0  0  0  0  0  0  0  0  0
   10.1371  -14.1897   28.4508 C   0  0  2  0  0  0  0  0  0  0  0  0
    8.9170  -13.7689   27.6852 C   0  0  0  0  0  0  0  0  0  0  0  0
   10.4504  -15.6290   28.4659 C   0  0  0  0  0  0  0  0  0  0  0  0
   10.4664  -16.4053   27.2236 C   0  0  2  0  0  0  0  0  0  0  0  0
    9.4969  -15.7566   26.3051 N   0  0  0  0  0  0  0  0  0  0  0  0
   10.2711  -17.8443   27.2669 C   0  0  0  0  0  0  0  0  0  0  0  0
    9.1633  -18.4878   26.7391 O   0  0  0  0  0  0  0  0  0  0  0  0
   11.1129  -18.6498   27.8047 O   0  0  0  0  0  0  0  0  0  0  0  0
  2  3  2  0
  2  1  1  0
  4  3  1  0
  5  4  2  0
  6  7  1  0
  6  5  1  0
  7  8  1  6
  9  7  1  0
  9 13  1  0
 10  9  2  0
 11  5  1  0
 11 12  2  0
 12  2  1  0
 14 13  1  0
 14 15  1  6
 16 21  1  0
 16 15  1  0
 17 16  2  0
 18 19  2  0
 18 17  1  0
 19 20  1  0
 20 21  2  0
 22 14  1  0
 23 22  2  0
 25 27  1  0
 25 24  1  1
 26 25  1  0
 28 29  1  0
 28 27  1  1
 29 22  1  0
 30 28  1  0
 31 30  1  0
 32 30  2  0
M  END
$$$$
