YFL.pdb
     RDKit          3D

 32 33  0  0  1  0  0  0  0  0999 V2000
    6.9442  -13.0699   16.9801 O   0  0  0  0  0  0  0  0  0  0  0  0
    7.9037  -13.8619   17.5865 C   0  0  0  0  0  0  0  0  0  0  0  0
    8.8653  -13.2485   18.3598 C   0  0  0  0  0  0  0  0  0  0  0  0
    9.8685  -13.9685   19.0066 C   0  0  0  0  0  0  0  0  0  0  0  0
    9.8780  -15.3515   18.8508 C   0  0  0  0  0  0  0  0  0  0  0  0
   10.9297  -16.1127   19.5284 C   0  0  0  0  0  0  0  0  0  0  0  0
   10.3968  -16.9008   20.7015 C   0  0  2  0  0  0  0  0  0  0  0  0
    9.1504  -17.5498   20.3951 N   0  0  0  0  0  0  0  0  0  0  0  0
   10.1746  -15.9388   21.8128 C   0  0  0  0  0  0  0  0  0  0  0  0
   11.0964  -15.1910   22.2148 O   0  0  0  0  0  0  0  0  0  0  0  0
    8.9334  -15.9848   18.0876 C   0  0  0  0  0  0  0  0  0  0  0  0
    7.9614  -15.2265   17.4680 C   0  0  0  0  0  0  0  0  0  0  0  0
    8.9284  -15.8015   22.4840 N   0  0  0  0  0  0  0  0  0  0  0  0
    8.6151  -14.9210   23.5387 C   0  0  1  0  0  0  0  0  0  0  0  0
    7.1524  -14.6904   23.8036 C   0  0  0  0  0  0  0  0  0  0  0  0
    6.8945  -13.7663   24.9512 C   0  0  0  0  0  0  0  0  0  0  0  0
    6.2882  -14.0867   26.1156 C   0  0  0  0  0  0  0  0  0  0  0  0
    6.0845  -13.1437   27.1279 C   0  0  0  0  0  0  0  0  0  0  0  0
    6.5137  -11.8525   26.9339 C   0  0  0  0  0  0  0  0  0  0  0  0
    7.1318  -11.4825   25.7734 C   0  0  0  0  0  0  0  0  0  0  0  0
    7.3106  -12.4317   24.8125 C   0  0  0  0  0  0  0  0  0  0  0  0
    9.2944  -15.1987   24.8086 C   0  0  0  0  0  0  0  0  0  0  0  0
    9.2403  -14.3183   25.7113 O   0  0  0  0  0  0  0  0  0  0  0  0
   11.0427  -16.4476   29.4080 C   0  0  0  0  0  0  0  0  0  0  0  0
   11.1245  -15.2523   28.4932 C   0  0  2  0  0  0  0  0  0  0  0  0
   10.8949  -13.9537   29.2093 C   0  0  0  0  0  0  0  0  0  0  0  0
   10.4785  -15.4115   27.1790 C   0  0  0  0  0  0  0  0  0  0  0  0
   10.7527  -16.5854   26.3466 C   0  0  2  0  0  0  0  0  0  0  0  0
   10.0031  -16.3920   25.0796 N   0  0  0  0  0  0  0  0  0  0  0  0
   10.5450  -17.9188   26.8847 C   0  0  0  0  0  0  0  0  0  0  0  0
    9.2965  -18.4948   27.0559 O   0  0  0  0  0  0  0  0  0  0  0  0
   11.5073  -18.6832   27.2540 O   0  0  0  0  0  0  0  0  0  0  0  0
  2  3  2  0
  2  1  1  0
  4  3  1  0
  5  4  2  0
  6  7  1  0
  6  5  1  0
  7  8  1  6
  9  7  1  0
  9 13  1  0
 10  9  2  0
 11  5  1  0
 11 12  2  0
 12  2  1  0
 14 13  1  0
 14 15  1  1
 16 21  1  0
 16 15  1  0
 17 16  2  0
 18 19  2  0
 18 17  1  0
 19 20  1  0
 20 21  2  0
 22 14  1  0
 23 22  2  0
 25 27  1  0
 25 24  1  1
 26 25  1  0
 28 29  1  0
 28 27  1  1
 29 22  1  0
 30 28  1  0
 31 30  1  0
 32 30  2  0
M  END
$$$$
