YFL.pdb
     RDKit          3D

 32 33  0  0  1  0  0  0  0  0999 V2000
   11.9098  -20.6148   15.7169 O   0  0  0  0  0  0  0  0  0  0  0  0
   11.7715  -19.7377   16.7786 C   0  0  0  0  0  0  0  0  0  0  0  0
   12.3303  -20.0833   17.9899 C   0  0  0  0  0  0  0  0  0  0  0  0
   12.2392  -19.2603   19.1113 C   0  0  0  0  0  0  0  0  0  0  0  0
   11.5563  -18.0549   18.9779 C   0  0  0  0  0  0  0  0  0  0  0  0
   11.4580  -17.1864   20.1529 C   0  0  0  0  0  0  0  0  0  0  0  0
   10.3021  -17.5669   21.0474 C   0  0  2  0  0  0  0  0  0  0  0  0
    9.0553  -17.6077   20.3316 N   0  0  0  0  0  0  0  0  0  0  0  0
   10.2096  -16.5318   22.1104 C   0  0  0  0  0  0  0  0  0  0  0  0
   11.2357  -16.1093   22.6927 O   0  0  0  0  0  0  0  0  0  0  0  0
   10.9922  -17.6887   17.7847 C   0  0  0  0  0  0  0  0  0  0  0  0
   11.1105  -18.5390   16.7045 C   0  0  0  0  0  0  0  0  0  0  0  0
    8.9780  -15.9599   22.5328 N   0  0  0  0  0  0  0  0  0  0  0  0
    8.7460  -15.1745   23.6796 C   0  0  1  0  0  0  0  0  0  0  0  0
    7.6341  -14.1658   23.5842 C   0  0  0  0  0  0  0  0  0  0  0  0
    7.4207  -13.3948   24.8482 C   0  0  0  0  0  0  0  0  0  0  0  0
    6.5770  -13.7219   25.8518 C   0  0  0  0  0  0  0  0  0  0  0  0
    6.4417  -12.9262   26.9937 C   0  0  0  0  0  0  0  0  0  0  0  0
    7.1889  -11.7774   27.0995 C   0  0  0  0  0  0  0  0  0  0  0  0
    8.0549  -11.4068   26.1104 C   0  0  0  0  0  0  0  0  0  0  0  0
    8.1565  -12.2098   25.0145 C   0  0  0  0  0  0  0  0  0  0  0  0
    8.6081  -15.9229   24.9334 C   0  0  0  0  0  0  0  0  0  0  0  0
    7.6812  -16.7759   25.0123 O   0  0  0  0  0  0  0  0  0  0  0  0
   12.8972  -19.1202   25.4047 C   0  0  0  0  0  0  0  0  0  0  0  0
   11.8046  -18.6748   26.3427 C   0  0  2  0  0  0  0  0  0  0  0  0
   10.9661  -19.8140   26.8435 C   0  0  0  0  0  0  0  0  0  0  0  0
   11.0932  -17.4453   25.9527 C   0  0  0  0  0  0  0  0  0  0  0  0
   10.0238  -16.9001   26.7925 C   0  0  2  0  0  0  0  0  0  0  0  0
    9.4513  -15.7457   26.0547 N   0  0  0  0  0  0  0  0  0  0  0  0
   10.2945  -16.5591   28.1785 C   0  0  0  0  0  0  0  0  0  0  0  0
   10.7072  -15.3043   28.5969 O   0  0  0  0  0  0  0  0  0  0  0  0
   10.1769  -17.3980   29.1424 O   0  0  0  0  0  0  0  0  0  0  0  0
  2  3  2  0
  2  1  1  0
  4  3  1  0
  5  4  2  0
  6  7  1  0
  6  5  1  0
  7  8  1  6
  9  7  1  0
  9 13  1  0
 10  9  2  0
 11  5  1  0
 11 12  2  0
 12  2  1  0
 14 13  1  0
 14 15  1  6
 16 21  1  0
 16 15  1  0
 17 16  2  0
 18 19  2  0
 18 17  1  0
 19 20  1  0
 20 21  2  0
 22 14  1  0
 23 22  2  0
 25 27  1  0
 25 24  1  6
 26 25  1  0
 28 29  1  0
 28 27  1  6
 29 22  1  0
 30 28  1  0
 31 30  1  0
 32 30  2  0
M  END
$$$$
