YFL.pdb
     RDKit          3D

 32 33  0  0  1  0  0  0  0  0999 V2000
   10.1104  -17.6154   13.4439 O   0  0  0  0  0  0  0  0  0  0  0  0
   10.0784  -17.0074   14.6869 C   0  0  0  0  0  0  0  0  0  0  0  0
   11.2204  -17.0336   15.4577 C   0  0  0  0  0  0  0  0  0  0  0  0
   11.2772  -16.4468   16.7209 C   0  0  0  0  0  0  0  0  0  0  0  0
   10.1297  -15.8197   17.1973 C   0  0  0  0  0  0  0  0  0  0  0  0
   10.1841  -15.2013   18.5237 C   0  0  0  0  0  0  0  0  0  0  0  0
   10.3528  -16.2237   19.6224 C   0  0  2  0  0  0  0  0  0  0  0  0
    9.4425  -17.3279   19.4777 N   0  0  0  0  0  0  0  0  0  0  0  0
   10.0700  -15.5362   20.9098 C   0  0  0  0  0  0  0  0  0  0  0  0
   10.8750  -14.7039   21.3889 O   0  0  0  0  0  0  0  0  0  0  0  0
    8.9823  -15.7801   16.4504 C   0  0  0  0  0  0  0  0  0  0  0  0
    8.9778  -16.3761   15.2060 C   0  0  0  0  0  0  0  0  0  0  0  0
    8.8923  -15.7688   21.6723 N   0  0  0  0  0  0  0  0  0  0  0  0
    8.5505  -15.2019   22.9163 C   0  0  1  0  0  0  0  0  0  0  0  0
    7.0811  -15.0921   23.2189 C   0  0  0  0  0  0  0  0  0  0  0  0
    6.7878  -14.3383   24.4771 C   0  0  0  0  0  0  0  0  0  0  0  0
    6.2491  -14.8471   25.6072 C   0  0  0  0  0  0  0  0  0  0  0  0
    6.0037  -14.0537   26.7323 C   0  0  0  0  0  0  0  0  0  0  0  0
    6.3198  -12.7168   26.6885 C   0  0  0  0  0  0  0  0  0  0  0  0
    6.8662  -12.1586   25.5681 C   0  0  0  0  0  0  0  0  0  0  0  0
    7.0891  -12.9664   24.4938 C   0  0  0  0  0  0  0  0  0  0  0  0
    9.2372  -15.7787   24.0769 C   0  0  0  0  0  0  0  0  0  0  0  0
    9.5023  -17.0125   24.0522 O   0  0  0  0  0  0  0  0  0  0  0  0
   10.2491  -14.1065   29.9463 C   0  0  0  0  0  0  0  0  0  0  0  0
   10.6416  -15.0590   28.8460 C   0  0  2  0  0  0  0  0  0  0  0  0
   12.0699  -15.5082   28.9460 C   0  0  0  0  0  0  0  0  0  0  0  0
   10.1429  -14.7192   27.5023 C   0  0  0  0  0  0  0  0  0  0  0  0
   10.2346  -15.6833   26.4031 C   0  0  2  0  0  0  0  0  0  0  0  0
    9.6192  -15.0352   25.2174 N   0  0  0  0  0  0  0  0  0  0  0  0
    9.7366  -17.0361   26.5834 C   0  0  0  0  0  0  0  0  0  0  0  0
    8.3907  -17.3599   26.6450 O   0  0  0  0  0  0  0  0  0  0  0  0
   10.5061  -18.0557   26.7053 O   0  0  0  0  0  0  0  0  0  0  0  0
  2  3  2  0
  2  1  1  0
  4  3  1  0
  5  4  2  0
  6  7  1  0
  6  5  1  0
  7  8  1  6
  9  7  1  0
  9 13  1  0
 10  9  2  0
 11  5  1  0
 11 12  2  0
 12  2  1  0
 14 13  1  0
 14 15  1  1
 16 21  1  0
 16 15  1  0
 17 16  2  0
 18 19  2  0
 18 17  1  0
 19 20  1  0
 20 21  2  0
 22 14  1  0
 23 22  2  0
 25 27  1  0
 25 24  1  1
 26 25  1  0
 28 29  1  0
 28 27  1  1
 29 22  1  0
 30 28  1  0
 31 30  1  0
 32 30  2  0
M  END
$$$$
