YFL.pdb
     RDKit          3D

 32 33  0  0  1  0  0  0  0  0999 V2000
   13.4443  -19.2683   14.9743 O   0  0  0  0  0  0  0  0  0  0  0  0
   13.1277  -18.5912   16.1392 C   0  0  0  0  0  0  0  0  0  0  0  0
   13.3266  -19.2318   17.3430 C   0  0  0  0  0  0  0  0  0  0  0  0
   13.0352  -18.6252   18.5639 C   0  0  0  0  0  0  0  0  0  0  0  0
   12.5278  -17.3295   18.5400 C   0  0  0  0  0  0  0  0  0  0  0  0
   12.2203  -16.6875   19.8198 C   0  0  0  0  0  0  0  0  0  0  0  0
   11.2163  -17.4766   20.6262 C   0  0  2  0  0  0  0  0  0  0  0  0
   10.0593  -17.8328   19.8496 N   0  0  0  0  0  0  0  0  0  0  0  0
   10.7858  -16.6138   21.7577 C   0  0  0  0  0  0  0  0  0  0  0  0
   11.6258  -16.0359   22.4863 O   0  0  0  0  0  0  0  0  0  0  0  0
   12.3212  -16.6715   17.3566 C   0  0  0  0  0  0  0  0  0  0  0  0
   12.6257  -17.3161   16.1753 C   0  0  0  0  0  0  0  0  0  0  0  0
    9.4208  -16.3878   22.0866 N   0  0  0  0  0  0  0  0  0  0  0  0
    8.9110  -15.5796   23.1224 C   0  0  1  0  0  0  0  0  0  0  0  0
    7.4501  -15.2309   23.0395 C   0  0  0  0  0  0  0  0  0  0  0  0
    7.0147  -14.2442   24.0761 C   0  0  0  0  0  0  0  0  0  0  0  0
    7.1536  -12.9017   24.0107 C   0  0  0  0  0  0  0  0  0  0  0  0
    6.7205  -12.0619   25.0416 C   0  0  0  0  0  0  0  0  0  0  0  0
    6.1358  -12.6175   26.1545 C   0  0  0  0  0  0  0  0  0  0  0  0
    5.9741  -13.9693   26.2645 C   0  0  0  0  0  0  0  0  0  0  0  0
    6.4099  -14.7518   25.2380 C   0  0  0  0  0  0  0  0  0  0  0  0
    9.2185  -16.0365   24.4818 C   0  0  0  0  0  0  0  0  0  0  0  0
    9.2818  -17.2804   24.6858 O   0  0  0  0  0  0  0  0  0  0  0  0
   10.2601  -15.7713   29.8603 C   0  0  0  0  0  0  0  0  0  0  0  0
   10.7670  -14.5996   29.0589 C   0  0  2  0  0  0  0  0  0  0  0  0
   10.8750  -13.3418   29.8702 C   0  0  0  0  0  0  0  0  0  0  0  0
   10.2126  -14.4703   27.7004 C   0  0  0  0  0  0  0  0  0  0  0  0
   10.0717  -15.6432   26.8339 C   0  0  2  0  0  0  0  0  0  0  0  0
    9.4486  -15.1672   25.5731 N   0  0  0  0  0  0  0  0  0  0  0  0
    9.4093  -16.8361   27.3327 C   0  0  0  0  0  0  0  0  0  0  0  0
    8.0406  -17.0417   27.2678 O   0  0  0  0  0  0  0  0  0  0  0  0
   10.0392  -17.8088   27.8838 O   0  0  0  0  0  0  0  0  0  0  0  0
  2  3  2  0
  2  1  1  0
  4  3  1  0
  5  4  2  0
  6  7  1  0
  6  5  1  0
  7  8  1  6
  9  7  1  0
  9 13  1  0
 10  9  2  0
 11  5  1  0
 11 12  2  0
 12  2  1  0
 14 13  1  0
 14 15  1  1
 16 21  1  0
 16 15  1  0
 17 16  2  0
 18 19  2  0
 18 17  1  0
 19 20  1  0
 20 21  2  0
 22 14  1  0
 23 22  2  0
 25 27  1  0
 25 24  1  1
 26 25  1  0
 28 29  1  0
 28 27  1  1
 29 22  1  0
 30 28  1  0
 31 30  1  0
 32 30  2  0
M  END
$$$$
