YFL.pdb
     RDKit          3D

 32 33  0  0  1  0  0  0  0  0999 V2000
    6.6236  -13.9387   16.4790 O   0  0  0  0  0  0  0  0  0  0  0  0
    7.6721  -14.3830   17.2656 C   0  0  0  0  0  0  0  0  0  0  0  0
    8.1281  -13.5611   18.2733 C   0  0  0  0  0  0  0  0  0  0  0  0
    9.1788  -13.9282   19.1126 C   0  0  0  0  0  0  0  0  0  0  0  0
    9.7705  -15.1709   18.9061 C   0  0  0  0  0  0  0  0  0  0  0  0
   10.8746  -15.5616   19.7853 C   0  0  0  0  0  0  0  0  0  0  0  0
   10.4225  -16.4853   20.8914 C   0  0  2  0  0  0  0  0  0  0  0  0
    9.2123  -17.1841   20.5513 N   0  0  0  0  0  0  0  0  0  0  0  0
   10.1682  -15.6438   22.0903 C   0  0  0  0  0  0  0  0  0  0  0  0
   11.0324  -14.8400   22.5113 O   0  0  0  0  0  0  0  0  0  0  0  0
    9.3356  -16.0059   17.9114 C   0  0  0  0  0  0  0  0  0  0  0  0
    8.2919  -15.5956   17.1075 C   0  0  0  0  0  0  0  0  0  0  0  0
    8.9534  -15.6899   22.8281 N   0  0  0  0  0  0  0  0  0  0  0  0
    8.6167  -14.9406   23.9732 C   0  0  1  0  0  0  0  0  0  0  0  0
    7.1919  -14.4672   24.0661 C   0  0  0  0  0  0  0  0  0  0  0  0
    6.9313  -13.5955   25.2534 C   0  0  0  0  0  0  0  0  0  0  0  0
    6.2092  -13.9275   26.3464 C   0  0  0  0  0  0  0  0  0  0  0  0
    6.0147  -13.0339   27.4042 C   0  0  0  0  0  0  0  0  0  0  0  0
    6.5744  -11.7807   27.3313 C   0  0  0  0  0  0  0  0  0  0  0  0
    7.3123  -11.4009   26.2464 C   0  0  0  0  0  0  0  0  0  0  0  0
    7.4776  -12.3014   25.2375 C   0  0  0  0  0  0  0  0  0  0  0  0
    9.0062  -15.5431   25.2523 C   0  0  0  0  0  0  0  0  0  0  0  0
    8.7767  -14.8887   26.3068 O   0  0  0  0  0  0  0  0  0  0  0  0
   11.5468  -14.6411   27.8104 C   0  0  0  0  0  0  0  0  0  0  0  0
   10.1629  -15.1706   28.0872 C   0  0  2  0  0  0  0  0  0  0  0  0
    9.6265  -14.7318   29.4182 C   0  0  0  0  0  0  0  0  0  0  0  0
    9.9305  -16.5742   27.7054 C   0  0  0  0  0  0  0  0  0  0  0  0
   10.5385  -17.1318   26.4948 C   0  0  2  0  0  0  0  0  0  0  0  0
    9.6209  -16.8110   25.3724 N   0  0  0  0  0  0  0  0  0  0  0  0
   10.9423  -18.5270   26.4643 C   0  0  0  0  0  0  0  0  0  0  0  0
   10.4133  -19.4635   25.5908 O   0  0  0  0  0  0  0  0  0  0  0  0
   11.8286  -19.0173   27.2522 O   0  0  0  0  0  0  0  0  0  0  0  0
  2  3  2  0
  2  1  1  0
  4  3  1  0
  5  4  2  0
  6  7  1  0
  6  5  1  0
  7  8  1  6
  9  7  1  0
  9 13  1  0
 10  9  2  0
 11  5  1  0
 11 12  2  0
 12  2  1  0
 14 13  1  0
 14 15  1  1
 16 21  1  0
 16 15  1  0
 17 16  2  0
 18 19  2  0
 18 17  1  0
 19 20  1  0
 20 21  2  0
 22 14  1  0
 23 22  2  0
 25 27  1  0
 25 24  1  1
 26 25  1  0
 28 29  1  0
 28 27  1  1
 29 22  1  0
 30 28  1  0
 31 30  1  0
 32 30  2  0
M  END
$$$$
