YFL.pdb
     RDKit          3D

 32 33  0  0  1  0  0  0  0  0999 V2000
    7.7430  -14.6484   14.1219 O   0  0  0  0  0  0  0  0  0  0  0  0
    8.0590  -14.4304   15.4517 C   0  0  0  0  0  0  0  0  0  0  0  0
    8.9451  -15.2906   16.0631 C   0  0  0  0  0  0  0  0  0  0  0  0
    9.3192  -15.1456   17.3981 C   0  0  0  0  0  0  0  0  0  0  0  0
    8.7659  -14.0894   18.1161 C   0  0  0  0  0  0  0  0  0  0  0  0
    9.1558  -13.9324   19.5190 C   0  0  0  0  0  0  0  0  0  0  0  0
    9.4885  -15.2544   20.1692 C   0  0  2  0  0  0  0  0  0  0  0  0
    8.5297  -16.2749   19.8405 N   0  0  0  0  0  0  0  0  0  0  0  0
    9.4712  -15.0376   21.6398 C   0  0  0  0  0  0  0  0  0  0  0  0
   10.1657  -14.1389   22.1692 O   0  0  0  0  0  0  0  0  0  0  0  0
    7.8829  -13.2210   17.5312 C   0  0  0  0  0  0  0  0  0  0  0  0
    7.5450  -13.4080   16.2065 C   0  0  0  0  0  0  0  0  0  0  0  0
    8.6830  -15.8171   22.5307 N   0  0  0  0  0  0  0  0  0  0  0  0
    8.5734  -15.6732   23.9282 C   0  0  1  0  0  0  0  0  0  0  0  0
    7.1817  -15.5112   24.4756 C   0  0  0  0  0  0  0  0  0  0  0  0
    6.9943  -14.2514   25.2600 C   0  0  0  0  0  0  0  0  0  0  0  0
    7.4329  -13.0210   24.9140 C   0  0  0  0  0  0  0  0  0  0  0  0
    7.2145  -11.9025   25.7243 C   0  0  0  0  0  0  0  0  0  0  0  0
    6.5333  -12.0582   26.9080 C   0  0  0  0  0  0  0  0  0  0  0  0
    6.0710  -13.2826   27.2988 C   0  0  0  0  0  0  0  0  0  0  0  0
    6.3051  -14.3464   26.4804 C   0  0  0  0  0  0  0  0  0  0  0  0
    9.2852  -16.6827   24.7190 C   0  0  0  0  0  0  0  0  0  0  0  0
    8.6831  -17.7613   24.9780 O   0  0  0  0  0  0  0  0  0  0  0  0
    9.9102  -13.2845   28.7761 C   0  0  0  0  0  0  0  0  0  0  0  0
   10.4692  -14.6523   28.4781 C   0  0  2  0  0  0  0  0  0  0  0  0
   11.7642  -14.9198   29.1876 C   0  0  0  0  0  0  0  0  0  0  0  0
   10.3780  -15.0846   27.0730 C   0  0  0  0  0  0  0  0  0  0  0  0
   10.8904  -16.3924   26.6567 C   0  0  2  0  0  0  0  0  0  0  0  0
   10.6028  -16.5188   25.2055 N   0  0  0  0  0  0  0  0  0  0  0  0
   10.4940  -17.5887   27.3796 C   0  0  0  0  0  0  0  0  0  0  0  0
    9.1759  -17.9478   27.6111 O   0  0  0  0  0  0  0  0  0  0  0  0
   11.3369  -18.4209   27.8729 O   0  0  0  0  0  0  0  0  0  0  0  0
  2  3  2  0
  2  1  1  0
  4  3  1  0
  5  4  2  0
  6  7  1  0
  6  5  1  0
  7  8  1  1
  9  7  1  0
  9 13  1  0
 10  9  2  0
 11  5  1  0
 11 12  2  0
 12  2  1  0
 14 13  1  0
 14 15  1  6
 16 21  1  0
 16 15  1  0
 17 16  2  0
 18 19  2  0
 18 17  1  0
 19 20  1  0
 20 21  2  0
 22 14  1  0
 23 22  2  0
 25 27  1  0
 25 24  1  6
 26 25  1  0
 28 29  1  0
 28 27  1  1
 29 22  1  0
 30 28  1  0
 31 30  1  0
 32 30  2  0
M  END
$$$$
