YFL.pdb
     RDKit          3D

 32 33  0  0  1  0  0  0  0  0999 V2000
   13.0412  -23.2071   18.1226 O   0  0  0  0  0  0  0  0  0  0  0  0
   12.8286  -22.1282   18.9629 C   0  0  0  0  0  0  0  0  0  0  0  0
   11.7028  -21.3580   18.7669 C   0  0  0  0  0  0  0  0  0  0  0  0
   11.4104  -20.2536   19.5658 C   0  0  0  0  0  0  0  0  0  0  0  0
   12.3002  -19.9388   20.5887 C   0  0  0  0  0  0  0  0  0  0  0  0
   11.9975  -18.7798   21.4311 C   0  0  0  0  0  0  0  0  0  0  0  0
   10.6286  -18.2094   21.1449 C   0  0  2  0  0  0  0  0  0  0  0  0
   10.5023  -17.7646   19.7830 N   0  0  0  0  0  0  0  0  0  0  0  0
   10.4405  -17.0438   22.0482 C   0  0  0  0  0  0  0  0  0  0  0  0
   11.4125  -16.3365   22.4022 O   0  0  0  0  0  0  0  0  0  0  0  0
   13.4259  -20.6887   20.8039 C   0  0  0  0  0  0  0  0  0  0  0  0
   13.6700  -21.7721   19.9850 C   0  0  0  0  0  0  0  0  0  0  0  0
    9.1727  -16.6570   22.5635 N   0  0  0  0  0  0  0  0  0  0  0  0
    8.9057  -15.6652   23.5283 C   0  0  1  0  0  0  0  0  0  0  0  0
    7.4577  -15.4311   23.8620 C   0  0  0  0  0  0  0  0  0  0  0  0
    7.2128  -14.1375   24.5720 C   0  0  0  0  0  0  0  0  0  0  0  0
    7.7307  -12.9337   24.2422 C   0  0  0  0  0  0  0  0  0  0  0  0
    7.4473  -11.7793   24.9789 C   0  0  0  0  0  0  0  0  0  0  0  0
    6.6173  -11.8708   26.0707 C   0  0  0  0  0  0  0  0  0  0  0  0
    6.0705  -13.0663   26.4416 C   0  0  0  0  0  0  0  0  0  0  0  0
    6.3722  -14.1667   25.6971 C   0  0  0  0  0  0  0  0  0  0  0  0
    9.6721  -15.7809   24.7734 C   0  0  0  0  0  0  0  0  0  0  0  0
   10.7142  -15.0788   24.8919 O   0  0  0  0  0  0  0  0  0  0  0  0
    9.6435  -13.1965   29.1173 C   0  0  0  0  0  0  0  0  0  0  0  0
   10.3258  -14.3252   28.3875 C   0  0  2  0  0  0  0  0  0  0  0  0
   11.4455  -13.8562   27.5053 C   0  0  0  0  0  0  0  0  0  0  0  0
    9.4326  -15.3591   27.8371 C   0  0  0  0  0  0  0  0  0  0  0  0
    9.9789  -16.5430   27.1693 C   0  0  2  0  0  0  0  0  0  0  0  0
    9.3118  -16.6295   25.8456 N   0  0  0  0  0  0  0  0  0  0  0  0
    9.9702  -17.8266   27.8499 C   0  0  0  0  0  0  0  0  0  0  0  0
   11.0443  -18.3243   28.5698 O   0  0  0  0  0  0  0  0  0  0  0  0
    8.9601  -18.6179   27.8403 O   0  0  0  0  0  0  0  0  0  0  0  0
  2  3  2  0
  2  1  1  0
  4  3  1  0
  5  4  2  0
  6  7  1  0
  6  5  1  0
  7  8  1  6
  9  7  1  0
  9 13  1  0
 10  9  2  0
 11  5  1  0
 11 12  2  0
 12  2  1  0
 14 13  1  0
 14 15  1  1
 16 21  1  0
 16 15  1  0
 17 16  2  0
 18 19  2  0
 18 17  1  0
 19 20  1  0
 20 21  2  0
 22 14  1  0
 23 22  2  0
 25 27  1  0
 25 24  1  6
 26 25  1  0
 28 29  1  0
 28 27  1  1
 29 22  1  0
 30 28  1  0
 31 30  1  0
 32 30  2  0
M  END
$$$$
