YFL.pdb
     RDKit          3D

 32 33  0  0  1  0  0  0  0  0999 V2000
   11.3881  -21.5620   16.5824 O   0  0  0  0  0  0  0  0  0  0  0  0
   11.3058  -20.7289   17.6846 C   0  0  0  0  0  0  0  0  0  0  0  0
   10.0592  -20.4456   18.1991 C   0  0  0  0  0  0  0  0  0  0  0  0
    9.8837  -19.6168   19.3062 C   0  0  0  0  0  0  0  0  0  0  0  0
   11.0205  -19.0695   19.8937 C   0  0  0  0  0  0  0  0  0  0  0  0
   10.8417  -18.1983   21.0572 C   0  0  0  0  0  0  0  0  0  0  0  0
   10.4336  -16.7985   20.6635 C   0  0  2  0  0  0  0  0  0  0  0  0
   11.4111  -16.1684   19.8172 N   0  0  0  0  0  0  0  0  0  0  0  0
   10.3059  -16.0090   21.9166 C   0  0  0  0  0  0  0  0  0  0  0  0
   11.3198  -15.6146   22.5387 O   0  0  0  0  0  0  0  0  0  0  0  0
   12.2704  -19.3357   19.4011 C   0  0  0  0  0  0  0  0  0  0  0  0
   12.3903  -20.1625   18.3030 C   0  0  0  0  0  0  0  0  0  0  0  0
    9.0524  -15.6529   22.4861 N   0  0  0  0  0  0  0  0  0  0  0  0
    8.8245  -14.8812   23.6430 C   0  0  1  0  0  0  0  0  0  0  0  0
    7.5189  -14.1364   23.7022 C   0  0  0  0  0  0  0  0  0  0  0  0
    7.3350  -13.3585   24.9665 C   0  0  0  0  0  0  0  0  0  0  0  0
    7.9059  -12.1707   25.2650 C   0  0  0  0  0  0  0  0  0  0  0  0
    7.6772  -11.5254   26.4844 C   0  0  0  0  0  0  0  0  0  0  0  0
    6.8470  -12.1159   27.4071 C   0  0  0  0  0  0  0  0  0  0  0  0
    6.2477  -13.3158   27.1491 C   0  0  0  0  0  0  0  0  0  0  0  0
    6.4971  -13.9112   25.9493 C   0  0  0  0  0  0  0  0  0  0  0  0
    9.0349  -15.5818   24.9142 C   0  0  0  0  0  0  0  0  0  0  0  0
    8.3330  -16.6046   25.1472 O   0  0  0  0  0  0  0  0  0  0  0  0
   13.9825  -17.5128   26.4876 C   0  0  0  0  0  0  0  0  0  0  0  0
   12.4864  -17.5285   26.6706 C   0  0  2  0  0  0  0  0  0  0  0  0
   11.7937  -18.4672   25.7268 C   0  0  0  0  0  0  0  0  0  0  0  0
   11.8576  -16.2135   26.8833 C   0  0  0  0  0  0  0  0  0  0  0  0
   10.4017  -16.0870   26.9858 C   0  0  2  0  0  0  0  0  0  0  0  0
    9.9761  -15.1800   25.8900 N   0  0  0  0  0  0  0  0  0  0  0  0
    9.7954  -15.7080   28.2505 C   0  0  0  0  0  0  0  0  0  0  0  0
    9.5830  -14.3955   28.6405 O   0  0  0  0  0  0  0  0  0  0  0  0
    9.4040  -16.5627   29.1240 O   0  0  0  0  0  0  0  0  0  0  0  0
  2  3  2  0
  2  1  1  0
  4  3  1  0
  5  4  2  0
  6  7  1  0
  6  5  1  0
  7  8  1  6
  9  7  1  0
  9 13  1  0
 10  9  2  0
 11  5  1  0
 11 12  2  0
 12  2  1  0
 14 13  1  0
 14 15  1  1
 16 21  1  0
 16 15  1  0
 17 16  2  0
 18 19  2  0
 18 17  1  0
 19 20  1  0
 20 21  2  0
 22 14  1  0
 23 22  2  0
 25 27  1  0
 25 24  1  6
 26 25  1  0
 28 29  1  0
 28 27  1  1
 29 22  1  0
 30 28  1  0
 31 30  1  0
 32 30  2  0
M  END
$$$$
