YFL.pdb
     RDKit          3D

 32 33  0  0  1  0  0  0  0  0999 V2000
    7.9656  -12.3196   16.7912 O   0  0  0  0  0  0  0  0  0  0  0  0
    8.2678  -13.4327   17.5562 C   0  0  0  0  0  0  0  0  0  0  0  0
    8.6479  -13.2423   18.8670 C   0  0  0  0  0  0  0  0  0  0  0  0
    8.9699  -14.3059   19.7087 C   0  0  0  0  0  0  0  0  0  0  0  0
    8.8976  -15.5932   19.1845 C   0  0  0  0  0  0  0  0  0  0  0  0
    9.2346  -16.7141   20.0645 C   0  0  0  0  0  0  0  0  0  0  0  0
    8.0051  -17.3789   20.6367 C   0  0  2  0  0  0  0  0  0  0  0  0
    6.9708  -17.5424   19.6507 N   0  0  0  0  0  0  0  0  0  0  0  0
    7.4959  -16.5009   21.7229 C   0  0  0  0  0  0  0  0  0  0  0  0
    6.7462  -15.5288   21.4708 O   0  0  0  0  0  0  0  0  0  0  0  0
    8.5226  -15.8087   17.8849 C   0  0  0  0  0  0  0  0  0  0  0  0
    8.2139  -14.7218   17.0929 C   0  0  0  0  0  0  0  0  0  0  0  0
    7.8160  -16.6969   23.0945 N   0  0  0  0  0  0  0  0  0  0  0  0
    7.8868  -15.7190   24.1067 C   0  0  1  0  0  0  0  0  0  0  0  0
    6.6377  -15.5052   24.9171 C   0  0  0  0  0  0  0  0  0  0  0  0
    6.6558  -14.2399   25.7148 C   0  0  0  0  0  0  0  0  0  0  0  0
    6.7265  -14.1439   27.0608 C   0  0  0  0  0  0  0  0  0  0  0  0
    6.7275  -12.9083   27.7155 C   0  0  0  0  0  0  0  0  0  0  0  0
    6.6547  -11.7567   26.9686 C   0  0  0  0  0  0  0  0  0  0  0  0
    6.5820  -11.8047   25.6055 C   0  0  0  0  0  0  0  0  0  0  0  0
    6.5836  -13.0286   25.0070 C   0  0  0  0  0  0  0  0  0  0  0  0
    9.0325  -15.8396   25.0144 C   0  0  0  0  0  0  0  0  0  0  0  0
    9.8271  -14.8622   25.0945 O   0  0  0  0  0  0  0  0  0  0  0  0
   11.3629  -14.3054   27.6107 C   0  0  0  0  0  0  0  0  0  0  0  0
    9.9233  -14.5539   27.9821 C   0  0  2  0  0  0  0  0  0  0  0  0
    9.4813  -13.7515   29.1707 C   0  0  0  0  0  0  0  0  0  0  0  0
    9.4854  -15.9592   27.9272 C   0  0  0  0  0  0  0  0  0  0  0  0
   10.1371  -16.9123   27.0255 C   0  0  2  0  0  0  0  0  0  0  0  0
    9.2971  -16.9830   25.8033 N   0  0  0  0  0  0  0  0  0  0  0  0
   10.4860  -18.2390   27.5039 C   0  0  0  0  0  0  0  0  0  0  0  0
   11.6402  -18.5224   28.2162 O   0  0  0  0  0  0  0  0  0  0  0  0
    9.7512  -19.2717   27.3038 O   0  0  0  0  0  0  0  0  0  0  0  0
  2  3  2  0
  2  1  1  0
  4  3  1  0
  5  4  2  0
  6  7  1  0
  6  5  1  0
  7  8  1  6
  9  7  1  0
  9 13  1  0
 10  9  2  0
 11  5  1  0
 11 12  2  0
 12  2  1  0
 14 13  1  0
 14 15  1  1
 16 21  1  0
 16 15  1  0
 17 16  2  0
 18 19  2  0
 18 17  1  0
 19 20  1  0
 20 21  2  0
 22 14  1  0
 23 22  2  0
 25 27  1  0
 25 24  1  1
 26 25  1  0
 28 29  1  0
 28 27  1  1
 29 22  1  0
 30 28  1  0
 31 30  1  0
 32 30  2  0
M  END
$$$$
