YFL.pdb
     RDKit          3D

 32 33  0  0  1  0  0  0  0  0999 V2000
   12.3650  -23.3984   17.8044 O   0  0  0  0  0  0  0  0  0  0  0  0
   12.2008  -22.3232   18.6603 C   0  0  0  0  0  0  0  0  0  0  0  0
   11.6213  -21.1752   18.1651 C   0  0  0  0  0  0  0  0  0  0  0  0
   11.4178  -20.0455   18.9561 C   0  0  0  0  0  0  0  0  0  0  0  0
   11.8215  -20.1036   20.2868 C   0  0  0  0  0  0  0  0  0  0  0  0
   11.6097  -18.9197   21.1222 C   0  0  0  0  0  0  0  0  0  0  0  0
   10.8332  -17.8443   20.3999 C   0  0  2  0  0  0  0  0  0  0  0  0
   11.5939  -17.2530   19.3321 N   0  0  0  0  0  0  0  0  0  0  0  0
   10.5099  -16.7905   21.3974 C   0  0  0  0  0  0  0  0  0  0  0  0
   11.3166  -15.8636   21.6434 O   0  0  0  0  0  0  0  0  0  0  0  0
   12.3998  -21.2329   20.8027 C   0  0  0  0  0  0  0  0  0  0  0  0
   12.5792  -22.3245   19.9780 C   0  0  0  0  0  0  0  0  0  0  0  0
    9.2897  -16.7597   22.1271 N   0  0  0  0  0  0  0  0  0  0  0  0
    8.9136  -15.8445   23.1306 C   0  0  1  0  0  0  0  0  0  0  0  0
    7.4453  -15.5351   23.2357 C   0  0  0  0  0  0  0  0  0  0  0  0
    7.1317  -14.4759   24.2443 C   0  0  0  0  0  0  0  0  0  0  0  0
    6.5979  -14.6717   25.4702 C   0  0  0  0  0  0  0  0  0  0  0  0
    6.3319  -13.6094   26.3398 C   0  0  0  0  0  0  0  0  0  0  0  0
    6.6221  -12.3278   25.9367 C   0  0  0  0  0  0  0  0  0  0  0  0
    7.1626  -12.0816   24.7068 C   0  0  0  0  0  0  0  0  0  0  0  0
    7.4060  -13.1445   23.8900 C   0  0  0  0  0  0  0  0  0  0  0  0
    9.4401  -16.1321   24.4690 C   0  0  0  0  0  0  0  0  0  0  0  0
    9.2311  -17.2797   24.9510 O   0  0  0  0  0  0  0  0  0  0  0  0
   10.0886  -15.5684   29.6448 C   0  0  0  0  0  0  0  0  0  0  0  0
   10.5048  -14.3265   28.8988 C   0  0  2  0  0  0  0  0  0  0  0  0
   10.1692  -13.0636   29.6365 C   0  0  0  0  0  0  0  0  0  0  0  0
   10.2474  -14.3391   27.4485 C   0  0  0  0  0  0  0  0  0  0  0  0
   10.5928  -15.5085   26.6364 C   0  0  2  0  0  0  0  0  0  0  0  0
   10.1667  -15.2017   25.2475 N   0  0  0  0  0  0  0  0  0  0  0  0
   10.1492  -16.8302   27.0451 C   0  0  0  0  0  0  0  0  0  0  0  0
    8.8308  -17.2527   26.9867 O   0  0  0  0  0  0  0  0  0  0  0  0
   10.9456  -17.7265   27.5020 O   0  0  0  0  0  0  0  0  0  0  0  0
  2  3  2  0
  2  1  1  0
  4  3  1  0
  5  4  2  0
  6  7  1  0
  6  5  1  0
  7  8  1  6
  9  7  1  0
  9 13  1  0
 10  9  2  0
 11  5  1  0
 11 12  2  0
 12  2  1  0
 14 13  1  0
 14 15  1  1
 16 21  1  0
 16 15  1  0
 17 16  2  0
 18 19  2  0
 18 17  1  0
 19 20  1  0
 20 21  2  0
 22 14  1  0
 23 22  2  0
 25 27  1  0
 25 24  1  1
 26 25  1  0
 28 29  1  0
 28 27  1  1
 29 22  1  0
 30 28  1  0
 31 30  1  0
 32 30  2  0
M  END
$$$$
