YFL.pdb
     RDKit          3D

 32 33  0  0  1  0  0  0  0  0999 V2000
    8.6703  -21.3592   16.1767 O   0  0  0  0  0  0  0  0  0  0  0  0
    8.8681  -20.5121   17.2532 C   0  0  0  0  0  0  0  0  0  0  0  0
    8.8032  -21.0421   18.5236 C   0  0  0  0  0  0  0  0  0  0  0  0
    8.9898  -20.2622   19.6639 C   0  0  0  0  0  0  0  0  0  0  0  0
    9.2488  -18.9062   19.4874 C   0  0  0  0  0  0  0  0  0  0  0  0
    9.4459  -18.0825   20.6821 C   0  0  0  0  0  0  0  0  0  0  0  0
    9.5919  -16.6173   20.3460 C   0  0  2  0  0  0  0  0  0  0  0  0
   10.7962  -16.3497   19.6066 N   0  0  0  0  0  0  0  0  0  0  0  0
    9.6457  -15.8745   21.6327 C   0  0  0  0  0  0  0  0  0  0  0  0
   10.7187  -15.7624   22.2703 O   0  0  0  0  0  0  0  0  0  0  0  0
    9.3183  -18.3555   18.2353 C   0  0  0  0  0  0  0  0  0  0  0  0
    9.1262  -19.1706   17.1387 C   0  0  0  0  0  0  0  0  0  0  0  0
    8.5091  -15.2521   22.2184 N   0  0  0  0  0  0  0  0  0  0  0  0
    8.4232  -14.6433   23.4864 C   0  0  1  0  0  0  0  0  0  0  0  0
    7.1621  -13.8755   23.7743 C   0  0  0  0  0  0  0  0  0  0  0  0
    7.1293  -13.2788   25.1456 C   0  0  0  0  0  0  0  0  0  0  0  0
    6.4810  -13.7794   26.2204 C   0  0  0  0  0  0  0  0  0  0  0  0
    6.5035  -13.1383   27.4629 C   0  0  0  0  0  0  0  0  0  0  0  0
    7.2059  -11.9644   27.5961 C   0  0  0  0  0  0  0  0  0  0  0  0
    7.8766  -11.4210   26.5376 C   0  0  0  0  0  0  0  0  0  0  0  0
    7.8290  -12.0771   25.3445 C   0  0  0  0  0  0  0  0  0  0  0  0
    8.7204  -15.5208   24.6234 C   0  0  0  0  0  0  0  0  0  0  0  0
    7.9954  -16.5409   24.7865 O   0  0  0  0  0  0  0  0  0  0  0  0
   13.8178  -17.9165   26.1884 C   0  0  0  0  0  0  0  0  0  0  0  0
   12.3877  -17.7706   26.6418 C   0  0  2  0  0  0  0  0  0  0  0  0
   11.6889  -19.0892   26.7995 C   0  0  0  0  0  0  0  0  0  0  0  0
   11.6249  -16.6850   26.0020 C   0  0  0  0  0  0  0  0  0  0  0  0
   10.2664  -16.3618   26.4449 C   0  0  2  0  0  0  0  0  0  0  0  0
    9.7693  -15.2916   25.5437 N   0  0  0  0  0  0  0  0  0  0  0  0
   10.0178  -16.0361   27.8388 C   0  0  0  0  0  0  0  0  0  0  0  0
    9.8609  -14.7433   28.3118 O   0  0  0  0  0  0  0  0  0  0  0  0
    9.9244  -16.9244   28.7600 O   0  0  0  0  0  0  0  0  0  0  0  0
  2  3  2  0
  2  1  1  0
  4  3  1  0
  5  4  2  0
  6  7  1  0
  6  5  1  0
  7  8  1  1
  9  7  1  0
  9 13  1  0
 10  9  2  0
 11  5  1  0
 11 12  2  0
 12  2  1  0
 14 13  1  0
 14 15  1  1
 16 21  1  0
 16 15  1  0
 17 16  2  0
 18 19  2  0
 18 17  1  0
 19 20  1  0
 20 21  2  0
 22 14  1  0
 23 22  2  0
 25 27  1  0
 25 24  1  6
 26 25  1  0
 28 29  1  0
 28 27  1  1
 29 22  1  0
 30 28  1  0
 31 30  1  0
 32 30  2  0
M  END
$$$$
