YFL.pdb
     RDKit          3D

 32 33  0  0  1  0  0  0  0  0999 V2000
   15.5983  -20.9214   19.0458 O   0  0  0  0  0  0  0  0  0  0  0  0
   14.3704  -20.4634   19.4908 C   0  0  0  0  0  0  0  0  0  0  0  0
   14.1995  -20.2580   20.8427 C   0  0  0  0  0  0  0  0  0  0  0  0
   12.9969  -19.7986   21.3776 C   0  0  0  0  0  0  0  0  0  0  0  0
   11.9492  -19.5464   20.4969 C   0  0  0  0  0  0  0  0  0  0  0  0
   10.6838  -19.0634   21.0537 C   0  0  0  0  0  0  0  0  0  0  0  0
   10.2343  -17.7726   20.4110 C   0  0  2  0  0  0  0  0  0  0  0  0
   11.1834  -17.2916   19.4432 N   0  0  0  0  0  0  0  0  0  0  0  0
   10.1037  -16.7639   21.4951 C   0  0  0  0  0  0  0  0  0  0  0  0
   11.0460  -15.9852   21.7709 O   0  0  0  0  0  0  0  0  0  0  0  0
   12.0940  -19.7427   19.1492 C   0  0  0  0  0  0  0  0  0  0  0  0
   13.3049  -20.1988   18.6699 C   0  0  0  0  0  0  0  0  0  0  0  0
    8.9267  -16.6141   22.2790 N   0  0  0  0  0  0  0  0  0  0  0  0
    8.6643  -15.6293   23.2523 C   0  0  1  0  0  0  0  0  0  0  0  0
    7.2559  -15.1038   23.3076 C   0  0  0  0  0  0  0  0  0  0  0  0
    7.0463  -14.0761   24.3742 C   0  0  0  0  0  0  0  0  0  0  0  0
    7.6013  -12.8448   24.4186 C   0  0  0  0  0  0  0  0  0  0  0  0
    7.3489  -11.9569   25.4690 C   0  0  0  0  0  0  0  0  0  0  0  0
    6.5113  -12.3470   26.4866 C   0  0  0  0  0  0  0  0  0  0  0  0
    5.9274  -13.5818   26.4840 C   0  0  0  0  0  0  0  0  0  0  0  0
    6.1998  -14.4166   25.4423 C   0  0  0  0  0  0  0  0  0  0  0  0
    9.1069  -15.9588   24.6112 C   0  0  0  0  0  0  0  0  0  0  0  0
    8.2812  -16.5257   25.3792 O   0  0  0  0  0  0  0  0  0  0  0  0
   10.6610  -15.0581   29.3925 C   0  0  0  0  0  0  0  0  0  0  0  0
   10.2222  -13.9598   28.4579 C   0  0  2  0  0  0  0  0  0  0  0  0
    9.0774  -13.1557   29.0006 C   0  0  0  0  0  0  0  0  0  0  0  0
   10.1638  -14.3235   27.0317 C   0  0  0  0  0  0  0  0  0  0  0  0
   10.6806  -15.6125   26.5654 C   0  0  2  0  0  0  0  0  0  0  0  0
   10.4009  -15.6802   25.1087 N   0  0  0  0  0  0  0  0  0  0  0  0
   10.2825  -16.8377   27.2370 C   0  0  0  0  0  0  0  0  0  0  0  0
    8.9715  -17.1477   27.5612 O   0  0  0  0  0  0  0  0  0  0  0  0
   11.1175  -17.7444   27.5937 O   0  0  0  0  0  0  0  0  0  0  0  0
  2  3  2  0
  2  1  1  0
  4  3  1  0
  5  4  2  0
  6  7  1  0
  6  5  1  0
  7  8  1  6
  9  7  1  0
  9 13  1  0
 10  9  2  0
 11  5  1  0
 11 12  2  0
 12  2  1  0
 14 13  1  0
 14 15  1  1
 16 21  1  0
 16 15  1  0
 17 16  2  0
 18 19  2  0
 18 17  1  0
 19 20  1  0
 20 21  2  0
 22 14  1  0
 23 22  2  0
 25 27  1  0
 25 24  1  1
 26 25  1  0
 28 29  1  0
 28 27  1  1
 29 22  1  0
 30 28  1  0
 31 30  1  0
 32 30  2  0
M  END
$$$$
