MEL.pdb
     RDKit          3D

 26 25  0  0  1  0  0  0  0  0999 V2000
   21.3936  -23.7066  -13.6925 C   0  0  0  0  0  0  0  0  0  0  0  0
   20.1251  -22.4037  -13.6487 S   0  0  0  0  0  0  0  0  0  0  0  0
   20.9308  -20.8549  -13.1568 C   0  0  0  0  0  0  0  0  0  0  0  0
   22.0911  -21.2100  -12.2496 C   0  0  0  0  0  0  0  0  0  0  0  0
   22.7838  -19.9479  -11.7429 C   0  0  2  0  0  0  0  0  0  0  0  0
   23.1938  -19.2311  -12.9344 N   0  0  0  0  0  0  0  0  0  0  0  0
   23.9854  -20.4416  -10.9860 C   0  0  0  0  0  0  0  0  0  0  0  0
   23.8649  -21.1784   -9.9753 O   0  0  0  0  0  0  0  0  0  0  0  0
   25.3082  -20.1002  -11.3747 N   0  0  0  0  0  0  0  0  0  0  0  0
   26.4196  -20.6110  -10.6432 C   0  0  1  0  0  0  0  0  0  0  0  0
   27.6835  -20.5854  -11.4446 C   0  0  0  0  0  0  0  0  0  0  0  0
   27.9305  -21.7707  -12.2824 C   0  0  0  0  0  0  0  0  0  0  0  0
   28.1135  -21.5416  -13.7251 C   0  0  0  0  0  0  0  0  0  0  0  0
   28.0606  -20.4149  -14.2516 O   0  0  0  0  0  0  0  0  0  0  0  0
   26.6853  -19.8635   -9.3861 C   0  0  0  0  0  0  0  0  0  0  0  0
   26.5075  -18.6311   -9.2504 O   0  0  0  0  0  0  0  0  0  0  0  0
   28.3614  -22.6280  -14.5714 O   0  0  0  0  0  0  0  0  0  0  0  0
   26.8191  -22.2987   -4.1899 C   0  0  0  0  0  0  0  0  0  0  0  0
   26.6272  -21.0185   -5.0592 C   0  0  1  0  0  0  0  0  0  0  0  0
   26.7580  -19.8749   -4.0718 C   0  0  0  0  0  0  0  0  0  0  0  0
   27.7133  -21.0314   -6.0581 C   0  0  0  0  0  0  0  0  0  0  0  0
   27.7420  -19.9454   -7.0816 C   0  0  2  0  0  0  0  0  0  0  0  0
   27.1686  -20.6192   -8.2898 N   0  0  0  0  0  0  0  0  0  0  0  0
   29.0492  -19.4862   -7.5028 C   0  0  0  0  0  0  0  0  0  0  0  0
   29.5895  -18.4802   -6.9875 O   0  0  0  0  0  0  0  0  0  0  0  0
   29.7701  -20.1355   -8.4845 O   0  0  0  0  0  0  0  0  0  0  0  0
  2  1  1  0
  3  2  1  0
  4  3  1  0
  5  7  1  0
  5  4  1  0
  5  6  1  6
  7  9  1  0
  7  8  2  0
  9 10  1  0
 10 11  1  6
 11 12  1  0
 12 13  1  0
 13 17  1  0
 14 13  2  0
 15 10  1  0
 16 15  2  0
 19 18  1  1
 19 21  1  0
 20 19  1  0
 22 21  1  1
 22 24  1  0
 22 23  1  0
 23 15  1  0
 24 26  1  0
 25 24  2  0
M  END
$$$$
