MEL.pdb
     RDKit          3D

 26 25  0  0  1  0  0  0  0  0999 V2000
   16.4617  -14.2107  -14.6705 C   0  0  0  0  0  0  0  0  0  0  0  0
   16.8071  -13.7888  -16.4058 S   0  0  0  0  0  0  0  0  0  0  0  0
   18.0000  -12.4226  -16.4225 C   0  0  0  0  0  0  0  0  0  0  0  0
   17.3897  -11.2718  -15.6487 C   0  0  0  0  0  0  0  0  0  0  0  0
   18.3695  -10.1052  -15.5573 C   0  0  2  0  0  0  0  0  0  0  0  0
   19.4604  -10.5845  -14.7318 N   0  0  0  0  0  0  0  0  0  0  0  0
   17.6121   -9.0166  -14.8487 C   0  0  0  0  0  0  0  0  0  0  0  0
   16.5956   -8.4857  -15.3622 O   0  0  0  0  0  0  0  0  0  0  0  0
   18.0076   -8.5380  -13.5713 N   0  0  0  0  0  0  0  0  0  0  0  0
   17.3844   -7.3808  -13.0202 C   0  0  1  0  0  0  0  0  0  0  0  0
   17.6667   -7.2290  -11.5581 C   0  0  0  0  0  0  0  0  0  0  0  0
   17.0003   -6.0958  -10.8950 C   0  0  0  0  0  0  0  0  0  0  0  0
   17.1695   -5.9824   -9.4370 C   0  0  0  0  0  0  0  0  0  0  0  0
   17.8668   -6.7652   -8.7657 O   0  0  0  0  0  0  0  0  0  0  0  0
   17.8090   -6.1181  -13.6795 C   0  0  0  0  0  0  0  0  0  0  0  0
   18.9930   -5.8504  -13.9886 O   0  0  0  0  0  0  0  0  0  0  0  0
   16.5253   -4.9512   -8.7446 O   0  0  0  0  0  0  0  0  0  0  0  0
   17.7377   -3.0458  -17.5598 C   0  0  0  0  0  0  0  0  0  0  0  0
   16.3345   -2.9051  -16.8946 C   0  0  1  0  0  0  0  0  0  0  0  0
   15.3588   -3.0853  -18.0415 C   0  0  0  0  0  0  0  0  0  0  0  0
   16.2409   -3.9876  -15.8960 C   0  0  0  0  0  0  0  0  0  0  0  0
   17.0969   -3.8971  -14.6766 C   0  0  2  0  0  0  0  0  0  0  0  0
   16.7885   -5.1779  -13.9646 N   0  0  0  0  0  0  0  0  0  0  0  0
   16.7619   -2.8580  -13.7252 C   0  0  0  0  0  0  0  0  0  0  0  0
   15.7894   -2.9716  -12.9437 O   0  0  0  0  0  0  0  0  0  0  0  0
   17.4991   -1.6956  -13.6235 O   0  0  0  0  0  0  0  0  0  0  0  0
  2  1  1  0
  3  2  1  0
  4  3  1  0
  5  7  1  0
  5  4  1  0
  5  6  1  1
  7  9  1  0
  7  8  2  0
  9 10  1  0
 10 11  1  1
 11 12  1  0
 12 13  1  0
 13 17  1  0
 14 13  2  0
 15 10  1  0
 16 15  2  0
 19 18  1  6
 19 21  1  0
 20 19  1  0
 22 21  1  6
 22 24  1  0
 22 23  1  0
 23 15  1  0
 24 26  1  0
 25 24  2  0
M  END
$$$$
