MEL.pdb
     RDKit          3D

 26 25  0  0  1  0  0  0  0  0999 V2000
   24.3582  -13.4893  -15.7480 C   0  0  0  0  0  0  0  0  0  0  0  0
   26.1763  -13.4468  -15.7810 S   0  0  0  0  0  0  0  0  0  0  0  0
   26.7674  -15.1116  -16.1921 C   0  0  0  0  0  0  0  0  0  0  0  0
   26.1944  -16.0677  -15.1659 C   0  0  0  0  0  0  0  0  0  0  0  0
   26.6282  -17.5003  -15.4640 C   0  0  2  0  0  0  0  0  0  0  0  0
   26.0613  -17.8104  -16.7617 N   0  0  0  0  0  0  0  0  0  0  0  0
   25.9794  -18.3333  -14.3936 C   0  0  0  0  0  0  0  0  0  0  0  0
   24.9082  -17.9737  -13.8438 O   0  0  0  0  0  0  0  0  0  0  0  0
   26.5434  -19.5604  -13.9539 N   0  0  0  0  0  0  0  0  0  0  0  0
   25.8215  -20.3925  -13.0497 C   0  0  1  0  0  0  0  0  0  0  0  0
   25.5734  -21.7571  -13.6126 C   0  0  0  0  0  0  0  0  0  0  0  0
   24.8173  -22.6759  -12.7456 C   0  0  0  0  0  0  0  0  0  0  0  0
   24.6923  -24.0707  -13.1997 C   0  0  0  0  0  0  0  0  0  0  0  0
   25.2560  -24.5125  -14.2178 O   0  0  0  0  0  0  0  0  0  0  0  0
   26.5127  -20.5775  -11.7468 C   0  0  0  0  0  0  0  0  0  0  0  0
   27.7342  -20.8286  -11.6287 O   0  0  0  0  0  0  0  0  0  0  0  0
   23.9060  -24.9678  -12.4683 O   0  0  0  0  0  0  0  0  0  0  0  0
   28.0413  -18.4221   -7.0102 C   0  0  0  0  0  0  0  0  0  0  0  0
   27.6433  -19.8667   -7.4417 C   0  0  1  0  0  0  0  0  0  0  0  0
   26.7801  -20.3714   -6.3015 C   0  0  0  0  0  0  0  0  0  0  0  0
   26.8907  -19.7278   -8.7034 C   0  0  0  0  0  0  0  0  0  0  0  0
   26.2096  -20.9364   -9.2541 C   0  0  2  0  0  0  0  0  0  0  0  0
   25.7142  -20.4558  -10.5831 N   0  0  0  0  0  0  0  0  0  0  0  0
   25.0208  -21.3837   -8.5588 C   0  0  0  0  0  0  0  0  0  0  0  0
   23.9082  -20.8378   -8.7418 O   0  0  0  0  0  0  0  0  0  0  0  0
   25.0489  -22.4371   -7.6673 O   0  0  0  0  0  0  0  0  0  0  0  0
  2  1  1  0
  3  2  1  0
  4  3  1  0
  5  7  1  0
  5  4  1  0
  5  6  1  6
  7  9  1  0
  7  8  2  0
  9 10  1  0
 10 11  1  6
 11 12  1  0
 12 13  1  0
 13 17  1  0
 14 13  2  0
 15 10  1  0
 16 15  2  0
 19 18  1  1
 19 21  1  0
 20 19  1  0
 22 21  1  1
 22 24  1  0
 22 23  1  0
 23 15  1  0
 24 26  1  0
 25 24  2  0
M  END
$$$$
