MEL.pdb
     RDKit          3D

 26 25  0  0  1  0  0  0  0  0999 V2000
   30.5064  -17.5038  -15.6119 C   0  0  0  0  0  0  0  0  0  0  0  0
   29.8526  -17.0626  -17.2509 S   0  0  0  0  0  0  0  0  0  0  0  0
   28.1508  -17.6808  -17.3592 C   0  0  0  0  0  0  0  0  0  0  0  0
   27.7687  -18.2132  -15.9932 C   0  0  0  0  0  0  0  0  0  0  0  0
   26.3290  -18.7197  -15.9964 C   0  0  2  0  0  0  0  0  0  0  0  0
   25.6016  -17.8018  -16.8507 N   0  0  0  0  0  0  0  0  0  0  0  0
   25.8684  -18.5895  -14.5711 C   0  0  0  0  0  0  0  0  0  0  0  0
   25.6205  -17.4671  -14.0634 O   0  0  0  0  0  0  0  0  0  0  0  0
   25.6925  -19.7233  -13.7339 N   0  0  0  0  0  0  0  0  0  0  0  0
   25.1614  -19.5635  -12.4210 C   0  0  1  0  0  0  0  0  0  0  0  0
   23.7301  -19.9930  -12.3342 C   0  0  0  0  0  0  0  0  0  0  0  0
   23.1617  -20.5672  -13.5651 C   0  0  0  0  0  0  0  0  0  0  0  0
   22.3247  -21.7690  -13.4161 C   0  0  0  0  0  0  0  0  0  0  0  0
   21.7573  -22.3309  -14.3710 O   0  0  0  0  0  0  0  0  0  0  0  0
   25.9097  -20.3299  -11.3904 C   0  0  0  0  0  0  0  0  0  0  0  0
   26.7161  -21.2528  -11.6488 O   0  0  0  0  0  0  0  0  0  0  0  0
   22.1406  -22.3300  -12.1475 O   0  0  0  0  0  0  0  0  0  0  0  0
   29.1856  -18.8603   -7.0831 C   0  0  0  0  0  0  0  0  0  0  0  0
   28.2021  -20.0528   -7.2884 C   0  0  1  0  0  0  0  0  0  0  0  0
   27.4184  -20.1167   -5.9916 C   0  0  0  0  0  0  0  0  0  0  0  0
   27.3568  -19.6963   -8.4441 C   0  0  0  0  0  0  0  0  0  0  0  0
   26.3564  -20.6964   -8.9206 C   0  0  2  0  0  0  0  0  0  0  0  0
   25.6761  -19.9710  -10.0401 N   0  0  0  0  0  0  0  0  0  0  0  0
   25.2904  -21.0354   -8.0010 C   0  0  0  0  0  0  0  0  0  0  0  0
   25.3341  -22.0712   -7.2977 O   0  0  0  0  0  0  0  0  0  0  0  0
   24.1779  -20.2335   -7.8449 O   0  0  0  0  0  0  0  0  0  0  0  0
  2  1  1  0
  3  2  1  0
  4  3  1  0
  5  7  1  0
  5  4  1  0
  5  6  1  6
  7  9  1  0
  7  8  2  0
  9 10  1  0
 10 11  1  6
 11 12  1  0
 12 13  1  0
 13 17  1  0
 14 13  2  0
 15 10  1  0
 16 15  2  0
 19 18  1  1
 19 21  1  0
 20 19  1  0
 22 21  1  1
 22 24  1  0
 22 23  1  0
 23 15  1  0
 24 26  1  0
 25 24  2  0
M  END
$$$$
