MEL.pdb
     RDKit          3D

 26 25  0  0  1  0  0  0  0  0999 V2000
   19.2017  -18.2459  -14.5932 C   0  0  0  0  0  0  0  0  0  0  0  0
   19.2582  -16.6845  -15.5245 S   0  0  0  0  0  0  0  0  0  0  0  0
   20.7223  -16.7240  -16.5944 C   0  0  0  0  0  0  0  0  0  0  0  0
   21.6553  -17.7891  -16.0553 C   0  0  0  0  0  0  0  0  0  0  0  0
   22.9621  -17.8087  -16.8434 C   0  0  2  0  0  0  0  0  0  0  0  0
   22.5936  -18.2096  -18.1869 N   0  0  0  0  0  0  0  0  0  0  0  0
   23.7959  -18.8734  -16.1864 C   0  0  0  0  0  0  0  0  0  0  0  0
   23.2914  -19.9618  -15.8123 O   0  0  0  0  0  0  0  0  0  0  0  0
   25.1870  -18.7011  -15.9575 N   0  0  0  0  0  0  0  0  0  0  0  0
   25.9492  -19.7561  -15.3767 C   0  0  1  0  0  0  0  0  0  0  0  0
   27.3724  -19.7466  -15.8405 C   0  0  0  0  0  0  0  0  0  0  0  0
   27.6790  -20.6355  -16.9735 C   0  0  0  0  0  0  0  0  0  0  0  0
   28.0239  -19.9922  -18.2519 C   0  0  0  0  0  0  0  0  0  0  0  0
   27.5671  -20.3615  -19.3495 O   0  0  0  0  0  0  0  0  0  0  0  0
   25.9745  -19.7098  -13.8913 C   0  0  0  0  0  0  0  0  0  0  0  0
   25.8996  -18.6551  -13.2197 O   0  0  0  0  0  0  0  0  0  0  0  0
   28.9078  -18.9075  -18.2635 O   0  0  0  0  0  0  0  0  0  0  0  0
   23.0347  -19.7015   -9.8612 C   0  0  0  0  0  0  0  0  0  0  0  0
   24.5398  -19.6371  -10.2638 C   0  0  1  0  0  0  0  0  0  0  0  0
   25.2794  -20.0576   -9.0083 C   0  0  0  0  0  0  0  0  0  0  0  0
   24.7121  -20.5973  -11.3710 C   0  0  0  0  0  0  0  0  0  0  0  0
   26.0982  -21.0232  -11.7248 C   0  0  2  0  0  0  0  0  0  0  0  0
   26.0906  -20.9521  -13.2206 N   0  0  0  0  0  0  0  0  0  0  0  0
   26.4514  -22.3950  -11.4240 C   0  0  0  0  0  0  0  0  0  0  0  0
   26.1776  -23.3313  -12.2100 O   0  0  0  0  0  0  0  0  0  0  0  0
   27.1138  -22.7409  -10.2636 O   0  0  0  0  0  0  0  0  0  0  0  0
  2  1  1  0
  3  2  1  0
  4  3  1  0
  5  7  1  0
  5  4  1  0
  5  6  1  6
  7  9  1  0
  7  8  2  0
  9 10  1  0
 10 11  1  6
 11 12  1  0
 12 13  1  0
 13 17  1  0
 14 13  2  0
 15 10  1  0
 16 15  2  0
 19 18  1  1
 19 21  1  0
 20 19  1  0
 22 21  1  6
 22 24  1  0
 22 23  1  0
 23 15  1  0
 24 26  1  0
 25 24  2  0
M  END
$$$$
