MEL.pdb
     RDKit          3D

 26 25  0  0  1  0  0  0  0  0999 V2000
   28.6201  -22.3645  -15.1574 C   0  0  0  0  0  0  0  0  0  0  0  0
   28.5520  -21.7455  -16.8664 S   0  0  0  0  0  0  0  0  0  0  0  0
   28.9846  -19.9843  -16.8412 C   0  0  0  0  0  0  0  0  0  0  0  0
   28.2377  -19.3454  -15.6882 C   0  0  0  0  0  0  0  0  0  0  0  0
   26.8246  -18.9550  -16.1127 C   0  0  2  0  0  0  0  0  0  0  0  0
   26.9416  -17.6117  -16.6450 N   0  0  0  0  0  0  0  0  0  0  0  0
   26.0244  -18.9490  -14.8398 C   0  0  0  0  0  0  0  0  0  0  0  0
   26.1181  -18.0080  -14.0124 O   0  0  0  0  0  0  0  0  0  0  0  0
   25.1288  -20.0017  -14.5127 N   0  0  0  0  0  0  0  0  0  0  0  0
   24.4214  -19.9762  -13.2757 C   0  0  1  0  0  0  0  0  0  0  0  0
   23.0408  -20.5404  -13.4025 C   0  0  0  0  0  0  0  0  0  0  0  0
   22.2131  -20.4781  -12.1864 C   0  0  0  0  0  0  0  0  0  0  0  0
   20.8633  -21.0599  -12.2674 C   0  0  0  0  0  0  0  0  0  0  0  0
   20.4315  -21.6504  -13.2746 O   0  0  0  0  0  0  0  0  0  0  0  0
   25.1049  -20.7350  -12.1957 C   0  0  0  0  0  0  0  0  0  0  0  0
   25.5665  -21.8913  -12.3330 O   0  0  0  0  0  0  0  0  0  0  0  0
   20.0003  -20.9591  -11.1706 O   0  0  0  0  0  0  0  0  0  0  0  0
   28.0528  -18.6526   -7.4492 C   0  0  0  0  0  0  0  0  0  0  0  0
   27.6575  -20.0096   -8.1078 C   0  0  1  0  0  0  0  0  0  0  0  0
   26.9490  -20.7679   -7.0019 C   0  0  0  0  0  0  0  0  0  0  0  0
   26.7603  -19.6770   -9.2313 C   0  0  0  0  0  0  0  0  0  0  0  0
   25.8940  -20.7590   -9.7851 C   0  0  2  0  0  0  0  0  0  0  0  0
   25.2276  -20.0837  -10.9437 N   0  0  0  0  0  0  0  0  0  0  0  0
   24.8035  -21.2096   -8.9456 C   0  0  0  0  0  0  0  0  0  0  0  0
   23.7175  -20.5877   -8.8893 O   0  0  0  0  0  0  0  0  0  0  0  0
   24.8995  -22.3491   -8.1727 O   0  0  0  0  0  0  0  0  0  0  0  0
  2  1  1  0
  3  2  1  0
  4  3  1  0
  5  7  1  0
  5  4  1  0
  5  6  1  1
  7  9  1  0
  7  8  2  0
  9 10  1  0
 10 11  1  6
 11 12  1  0
 12 13  1  0
 13 17  1  0
 14 13  2  0
 15 10  1  0
 16 15  2  0
 19 18  1  1
 19 21  1  0
 20 19  1  0
 22 21  1  1
 22 24  1  0
 22 23  1  0
 23 15  1  0
 24 26  1  0
 25 24  2  0
M  END
$$$$
