MEL.pdb
     RDKit          3D

 26 25  0  0  1  0  0  0  0  0999 V2000
   19.4846  -23.3865    3.4677 C   0  0  0  0  0  0  0  0  0  0  0  0
   18.2003  -24.6455    3.1958 S   0  0  0  0  0  0  0  0  0  0  0  0
   16.7707  -23.8306    2.4330 C   0  0  0  0  0  0  0  0  0  0  0  0
   16.4105  -22.6368    3.2936 C   0  0  0  0  0  0  0  0  0  0  0  0
   15.3222  -21.8008    2.6257 C   0  0  2  0  0  0  0  0  0  0  0  0
   15.7496  -21.6439    1.2495 N   0  0  0  0  0  0  0  0  0  0  0  0
   15.3544  -20.4786    3.3409 C   0  0  0  0  0  0  0  0  0  0  0  0
   15.1645  -19.3983    2.7279 O   0  0  0  0  0  0  0  0  0  0  0  0
   15.6004  -20.3875    4.7368 N   0  0  0  0  0  0  0  0  0  0  0  0
   15.4626  -19.1355    5.4039 C   0  0  1  0  0  0  0  0  0  0  0  0
   15.2815  -19.2990    6.8807 C   0  0  0  0  0  0  0  0  0  0  0  0
   13.9845  -19.8511    7.3060 C   0  0  0  0  0  0  0  0  0  0  0  0
   13.8911  -20.3451    8.6897 C   0  0  0  0  0  0  0  0  0  0  0  0
   13.6222  -19.6143    9.6609 O   0  0  0  0  0  0  0  0  0  0  0  0
   16.6287  -18.2356    5.2047 C   0  0  0  0  0  0  0  0  0  0  0  0
   17.7942  -18.6351    4.9787 O   0  0  0  0  0  0  0  0  0  0  0  0
   14.1108  -21.7011    8.9557 O   0  0  0  0  0  0  0  0  0  0  0  0
   18.9171  -14.4226    2.8387 C   0  0  0  0  0  0  0  0  0  0  0  0
   17.7797  -13.7722    3.6840 C   0  0  1  0  0  0  0  0  0  0  0  0
   17.0719  -12.8506    2.7095 C   0  0  0  0  0  0  0  0  0  0  0  0
   16.9200  -14.8809    4.1415 C   0  0  0  0  0  0  0  0  0  0  0  0
   17.4838  -15.8488    5.1280 C   0  0  2  0  0  0  0  0  0  0  0  0
   16.3753  -16.8439    5.2802 N   0  0  0  0  0  0  0  0  0  0  0  0
   17.7151  -15.3487    6.4671 C   0  0  0  0  0  0  0  0  0  0  0  0
   16.7825  -15.2343    7.2958 O   0  0  0  0  0  0  0  0  0  0  0  0
   18.9722  -14.9813    6.9026 O   0  0  0  0  0  0  0  0  0  0  0  0
  2  1  1  0
  3  2  1  0
  4  3  1  0
  5  7  1  0
  5  4  1  0
  5  6  1  6
  7  9  1  0
  7  8  2  0
  9 10  1  0
 10 11  1  1
 11 12  1  0
 12 13  1  0
 13 17  1  0
 14 13  2  0
 15 10  1  0
 16 15  2  0
 19 18  1  6
 19 21  1  0
 20 19  1  0
 22 21  1  6
 22 24  1  0
 22 23  1  0
 23 15  1  0
 24 26  1  0
 25 24  2  0
M  END
$$$$
