MEL.pdb
     RDKit          3D

 26 25  0  0  1  0  0  0  0  0999 V2000
   27.2419  -22.3428  -12.6958 C   0  0  0  0  0  0  0  0  0  0  0  0
   27.4644  -20.6905  -11.9686 S   0  0  0  0  0  0  0  0  0  0  0  0
   26.8488  -19.4680  -13.1587 C   0  0  0  0  0  0  0  0  0  0  0  0
   27.4490  -19.8008  -14.5095 C   0  0  0  0  0  0  0  0  0  0  0  0
   26.9551  -18.8241  -15.5732 C   0  0  2  0  0  0  0  0  0  0  0  0
   27.3203  -17.5089  -15.0851 N   0  0  0  0  0  0  0  0  0  0  0  0
   25.4603  -18.9851  -15.5841 C   0  0  0  0  0  0  0  0  0  0  0  0
   24.7190  -18.2622  -14.8722 O   0  0  0  0  0  0  0  0  0  0  0  0
   24.8172  -19.9577  -16.3953 N   0  0  0  0  0  0  0  0  0  0  0  0
   23.3943  -20.0332  -16.4234 C   0  0  1  0  0  0  0  0  0  0  0  0
   22.8843  -20.6120  -17.7062 C   0  0  0  0  0  0  0  0  0  0  0  0
   21.4293  -20.5206  -17.9122 C   0  0  0  0  0  0  0  0  0  0  0  0
   20.8980  -21.0686  -19.1710 C   0  0  0  0  0  0  0  0  0  0  0  0
   19.6993  -20.9938  -19.4984 O   0  0  0  0  0  0  0  0  0  0  0  0
   22.8306  -20.8545  -15.3202 C   0  0  0  0  0  0  0  0  0  0  0  0
   23.3832  -21.8763  -14.8517 O   0  0  0  0  0  0  0  0  0  0  0  0
   21.7622  -21.7116  -20.0642 O   0  0  0  0  0  0  0  0  0  0  0  0
   22.9566  -19.7824  -10.3872 C   0  0  0  0  0  0  0  0  0  0  0  0
   23.0546  -20.3097  -11.8513 C   0  0  1  0  0  0  0  0  0  0  0  0
   23.1684  -21.8143  -11.6984 C   0  0  0  0  0  0  0  0  0  0  0  0
   21.8050  -19.9014  -12.5215 C   0  0  0  0  0  0  0  0  0  0  0  0
   21.1397  -20.8816  -13.4296 C   0  0  2  0  0  0  0  0  0  0  0  0
   21.5898  -20.4300  -14.7846 N   0  0  0  0  0  0  0  0  0  0  0  0
   19.6936  -20.8333  -13.4877 C   0  0  0  0  0  0  0  0  0  0  0  0
   18.9827  -21.3451  -12.5921 O   0  0  0  0  0  0  0  0  0  0  0  0
   19.0247  -20.2152  -14.5248 O   0  0  0  0  0  0  0  0  0  0  0  0
  2  1  1  0
  3  2  1  0
  4  3  1  0
  5  7  1  0
  5  4  1  0
  5  6  1  1
  7  9  1  0
  7  8  2  0
  9 10  1  0
 10 11  1  6
 11 12  1  0
 12 13  1  0
 13 17  1  0
 14 13  2  0
 15 10  1  0
 16 15  2  0
 19 18  1  1
 19 21  1  0
 20 19  1  0
 22 21  1  1
 22 24  1  0
 22 23  1  0
 23 15  1  0
 24 26  1  0
 25 24  2  0
M  END
$$$$
