MEL.pdb
     RDKit          3D

 26 25  0  0  1  0  0  0  0  0999 V2000
   26.7760  -17.0950  -18.6858 C   0  0  0  0  0  0  0  0  0  0  0  0
   28.0049  -16.7862  -17.3808 S   0  0  0  0  0  0  0  0  0  0  0  0
   28.6488  -18.3892  -16.8281 C   0  0  0  0  0  0  0  0  0  0  0  0
   27.5008  -19.1518  -16.1987 C   0  0  0  0  0  0  0  0  0  0  0  0
   27.9948  -20.4603  -15.5879 C   0  0  2  0  0  0  0  0  0  0  0  0
   28.1151  -21.3815  -16.7007 N   0  0  0  0  0  0  0  0  0  0  0  0
   26.8943  -20.8959  -14.6606 C   0  0  0  0  0  0  0  0  0  0  0  0
   25.9617  -21.6396  -15.0557 O   0  0  0  0  0  0  0  0  0  0  0  0
   26.8556  -20.4893  -13.3003 N   0  0  0  0  0  0  0  0  0  0  0  0
   25.7333  -20.8247  -12.4884 C   0  0  1  0  0  0  0  0  0  0  0  0
   26.0133  -20.6338  -11.0304 C   0  0  0  0  0  0  0  0  0  0  0  0
   24.9325  -21.0384  -10.1161 C   0  0  0  0  0  0  0  0  0  0  0  0
   25.1710  -20.8488   -8.6758 C   0  0  0  0  0  0  0  0  0  0  0  0
   26.1639  -20.2531   -8.2188 O   0  0  0  0  0  0  0  0  0  0  0  0
   24.5212  -20.0257  -12.8078 C   0  0  0  0  0  0  0  0  0  0  0  0
   24.5256  -18.7876  -12.9976 O   0  0  0  0  0  0  0  0  0  0  0  0
   24.2506  -21.3534   -7.7505 O   0  0  0  0  0  0  0  0  0  0  0  0
   21.1214  -18.0888  -15.4849 C   0  0  0  0  0  0  0  0  0  0  0  0
   20.9953  -19.6366  -15.6254 C   0  0  1  0  0  0  0  0  0  0  0  0
   21.1622  -19.8905  -17.1113 C   0  0  0  0  0  0  0  0  0  0  0  0
   22.0924  -20.2143  -14.8254 C   0  0  0  0  0  0  0  0  0  0  0  0
   22.0418  -20.0559  -13.3420 C   0  0  2  0  0  0  0  0  0  0  0  0
   23.2992  -20.7366  -12.8971 N   0  0  0  0  0  0  0  0  0  0  0  0
   20.9800  -20.7575  -12.6512 C   0  0  0  0  0  0  0  0  0  0  0  0
   20.9991  -22.0019  -12.5087 O   0  0  0  0  0  0  0  0  0  0  0  0
   19.8990  -20.0935  -12.1074 O   0  0  0  0  0  0  0  0  0  0  0  0
  2  1  1  0
  3  2  1  0
  4  3  1  0
  5  7  1  0
  5  4  1  0
  5  6  1  6
  7  9  1  0
  7  8  2  0
  9 10  1  0
 10 11  1  1
 11 12  1  0
 12 13  1  0
 13 17  1  0
 14 13  2  0
 15 10  1  0
 16 15  2  0
 19 18  1  6
 19 21  1  0
 20 19  1  0
 22 21  1  6
 22 24  1  0
 22 23  1  0
 23 15  1  0
 24 26  1  0
 25 24  2  0
M  END
$$$$
