MEL.pdb
     RDKit          3D

 26 25  0  0  1  0  0  0  0  0999 V2000
   16.6536  -13.6284  -20.4135 C   0  0  0  0  0  0  0  0  0  0  0  0
   16.6131  -12.0296  -19.5472 S   0  0  0  0  0  0  0  0  0  0  0  0
   17.6407  -12.1733  -18.0595 C   0  0  0  0  0  0  0  0  0  0  0  0
   17.6264  -10.8289  -17.3610 C   0  0  0  0  0  0  0  0  0  0  0  0
   18.4518  -10.8801  -16.0782 C   0  0  2  0  0  0  0  0  0  0  0  0
   17.6614  -11.6580  -15.1447 N   0  0  0  0  0  0  0  0  0  0  0  0
   18.5494   -9.4508  -15.6219 C   0  0  0  0  0  0  0  0  0  0  0  0
   17.6133   -8.9003  -14.9898 O   0  0  0  0  0  0  0  0  0  0  0  0
   19.6985   -8.6577  -15.8826 N   0  0  0  0  0  0  0  0  0  0  0  0
   19.7317   -7.2944  -15.4684 C   0  0  1  0  0  0  0  0  0  0  0  0
   20.9192   -6.9938  -14.6082 C   0  0  0  0  0  0  0  0  0  0  0  0
   20.9672   -5.6362  -14.0406 C   0  0  0  0  0  0  0  0  0  0  0  0
   22.1894   -5.2608  -13.3109 C   0  0  0  0  0  0  0  0  0  0  0  0
   22.6304   -4.0976  -13.2664 O   0  0  0  0  0  0  0  0  0  0  0  0
   19.7645   -6.3385  -16.6062 C   0  0  0  0  0  0  0  0  0  0  0  0
   20.4514   -6.5010  -17.6410 O   0  0  0  0  0  0  0  0  0  0  0  0
   22.9123   -6.2417  -12.6230 O   0  0  0  0  0  0  0  0  0  0  0  0
   17.1979   -3.4805  -19.9645 C   0  0  0  0  0  0  0  0  0  0  0  0
   17.1309   -2.7129  -18.6089 C   0  0  1  0  0  0  0  0  0  0  0  0
   15.6756   -2.3049  -18.4836 C   0  0  0  0  0  0  0  0  0  0  0  0
   17.5407   -3.6760  -17.5686 C   0  0  0  0  0  0  0  0  0  0  0  0
   18.9653   -4.1204  -17.5419 C   0  0  2  0  0  0  0  0  0  0  0  0
   18.9575   -5.1806  -16.4844 N   0  0  0  0  0  0  0  0  0  0  0  0
   19.9382   -3.1510  -17.0831 C   0  0  0  0  0  0  0  0  0  0  0  0
   19.9967   -2.7964  -15.8830 O   0  0  0  0  0  0  0  0  0  0  0  0
   20.8550   -2.5750  -17.9391 O   0  0  0  0  0  0  0  0  0  0  0  0
  2  1  1  0
  3  2  1  0
  4  3  1  0
  5  7  1  0
  5  4  1  0
  5  6  1  1
  7  9  1  0
  7  8  2  0
  9 10  1  0
 10 11  1  1
 11 12  1  0
 12 13  1  0
 13 17  1  0
 14 13  2  0
 15 10  1  0
 16 15  2  0
 19 18  1  6
 19 21  1  0
 20 19  1  0
 22 21  1  1
 22 24  1  0
 22 23  1  0
 23 15  1  0
 24 26  1  0
 25 24  2  0
M  END
$$$$
