GAW.pdb
     RDKit          3D

 24 25  0  0  1  0  0  0  0  0999 V2000
   30.0768  -20.7141  -12.9545 N   0  0  0  0  0  0  0  0  0  0  0  0
   28.7400  -21.1100  -13.3505 C   0  0  0  0  0  0  0  0  0  0  0  0
   27.7452  -20.5016  -12.4363 C   0  0  0  0  0  0  0  0  0  0  0  0
   28.1437  -19.7575  -11.5235 O   0  0  0  0  0  0  0  0  0  0  0  0
   23.9890  -20.2287  -12.4164 C   0  0  0  0  0  0  0  0  0  0  0  0
   25.3409  -20.2295  -11.7471 C   0  0  2  0  0  0  0  0  0  0  0  0
   26.3789  -20.7704  -12.6100 N   0  0  0  0  0  0  0  0  0  0  0  0
   25.3518  -21.0109  -10.4791 C   0  0  0  0  0  0  0  0  0  0  0  0
   25.6599  -22.2491  -10.4713 O   0  0  0  0  0  0  0  0  0  0  0  0
   25.0291  -20.4506   -9.2217 N   0  0  0  0  0  0  0  0  0  0  0  0
   24.9873  -21.2430   -8.0056 C   0  0  1  0  0  0  0  0  0  0  0  0
   25.2762  -20.2848   -6.8674 C   0  0  0  0  0  0  0  0  0  0  0  0
   26.6531  -19.7970   -6.8361 C   0  0  0  0  0  0  0  0  0  0  0  0
   27.3567  -19.1589   -7.8324 C   0  0  0  0  0  0  0  0  0  0  0  0
   28.5837  -18.8927   -7.3585 N   0  0  0  0  0  0  0  0  0  0  0  0
   28.7286  -19.3238   -6.0950 C   0  0  0  0  0  0  0  0  0  0  0  0
   29.7451  -19.3111   -5.1660 C   0  0  0  0  0  0  0  0  0  0  0  0
   29.5229  -19.8644   -3.9383 C   0  0  0  0  0  0  0  0  0  0  0  0
   28.3285  -20.4438   -3.5631 C   0  0  0  0  0  0  0  0  0  0  0  0
   27.3207  -20.4480   -4.5059 C   0  0  0  0  0  0  0  0  0  0  0  0
   27.5056  -19.8995   -5.7564 C   0  0  0  0  0  0  0  0  0  0  0  0
   23.5836  -21.7484   -7.7721 C   0  0  0  0  0  0  0  0  0  0  0  0
   23.3057  -22.7267   -6.8324 O   0  0  0  0  0  0  0  0  0  0  0  0
   22.6193  -21.2893   -8.4320 O   0  0  0  0  0  0  0  0  0  0  0  0
  1  2  1  0
  3  2  1  0
  3  7  1  0
  4  3  2  0
  6  8  1  0
  6  7  1  0
  6  5  1  6
  8 10  1  0
  9  8  2  0
 10 11  1  0
 11 12  1  1
 12 13  1  0
 13 14  2  0
 13 21  1  0
 14 15  1  0
 15 16  1  0
 16 17  2  0
 17 18  1  0
 19 18  2  0
 20 19  1  0
 21 20  2  0
 21 16  1  0
 22 11  1  0
 23 22  1  0
 24 22  2  0
M  END
$$$$
