GAW.pdb
     RDKit          3D

 24 25  0  0  1  0  0  0  0  0999 V2000
   29.2194  -22.9917  -16.8744 N   0  0  0  0  0  0  0  0  0  0  0  0
   27.9894  -23.1260  -16.1196 C   0  0  0  0  0  0  0  0  0  0  0  0
   27.9134  -22.0623  -15.0908 C   0  0  0  0  0  0  0  0  0  0  0  0
   28.8087  -21.9927  -14.2309 O   0  0  0  0  0  0  0  0  0  0  0  0
   25.7313  -19.0192  -14.6056 C   0  0  0  0  0  0  0  0  0  0  0  0
   26.7005  -20.0756  -14.1361 C   0  0  2  0  0  0  0  0  0  0  0  0
   26.8424  -21.1556  -15.0994 N   0  0  0  0  0  0  0  0  0  0  0  0
   26.3038  -20.6784  -12.8333 C   0  0  0  0  0  0  0  0  0  0  0  0
   25.4787  -21.6503  -12.7814 O   0  0  0  0  0  0  0  0  0  0  0  0
   26.8010  -20.2282  -11.5886 N   0  0  0  0  0  0  0  0  0  0  0  0
   26.4313  -20.8543  -10.3317 C   0  0  1  0  0  0  0  0  0  0  0  0
   27.3768  -20.2951   -9.2874 C   0  0  0  0  0  0  0  0  0  0  0  0
   26.9370  -20.5114   -7.9109 C   0  0  0  0  0  0  0  0  0  0  0  0
   25.8944  -21.2882   -7.4588 C   0  0  0  0  0  0  0  0  0  0  0  0
   25.8635  -21.1901   -6.1208 N   0  0  0  0  0  0  0  0  0  0  0  0
   26.8357  -20.3849   -5.6627 C   0  0  0  0  0  0  0  0  0  0  0  0
   27.2431  -19.9490   -4.4216 C   0  0  0  0  0  0  0  0  0  0  0  0
   28.3098  -19.1017   -4.3380 C   0  0  0  0  0  0  0  0  0  0  0  0
   29.0160  -18.6476   -5.4327 C   0  0  0  0  0  0  0  0  0  0  0  0
   28.5946  -19.0942   -6.6686 C   0  0  0  0  0  0  0  0  0  0  0  0
   27.5220  -19.9501   -6.7948 C   0  0  0  0  0  0  0  0  0  0  0  0
   25.0504  -20.4020   -9.9212 C   0  0  0  0  0  0  0  0  0  0  0  0
   24.5795  -19.1332  -10.2142 O   0  0  0  0  0  0  0  0  0  0  0  0
   24.2829  -21.1739   -9.2955 O   0  0  0  0  0  0  0  0  0  0  0  0
  1  2  1  0
  3  2  1  0
  3  7  1  0
  4  3  2  0
  6  8  1  0
  6  7  1  0
  6  5  1  6
  8 10  1  0
  9  8  2  0
 10 11  1  0
 11 12  1  1
 12 13  1  0
 13 14  2  0
 13 21  1  0
 14 15  1  0
 15 16  1  0
 16 17  2  0
 17 18  1  0
 19 18  2  0
 20 19  1  0
 21 20  2  0
 21 16  1  0
 22 11  1  0
 23 22  1  0
 24 22  2  0
M  END
$$$$
