GAW.pdb
     RDKit          3D

 24 25  0  0  1  0  0  0  0  0999 V2000
   29.9973  -23.0964  -17.1487 N   0  0  0  0  0  0  0  0  0  0  0  0
   29.5161  -21.7363  -17.2868 C   0  0  0  0  0  0  0  0  0  0  0  0
   28.9422  -21.2742  -16.0012 C   0  0  0  0  0  0  0  0  0  0  0  0
   29.0265  -22.0134  -15.0051 O   0  0  0  0  0  0  0  0  0  0  0  0
   27.4905  -17.9715  -14.8466 C   0  0  0  0  0  0  0  0  0  0  0  0
   27.8822  -19.4181  -14.6743 C   0  0  2  0  0  0  0  0  0  0  0  0
   28.3166  -20.0205  -15.9245 N   0  0  0  0  0  0  0  0  0  0  0  0
   26.7736  -20.2507  -14.1302 C   0  0  0  0  0  0  0  0  0  0  0  0
   25.9193  -20.7972  -14.9046 O   0  0  0  0  0  0  0  0  0  0  0  0
   26.5916  -20.4905  -12.7487 N   0  0  0  0  0  0  0  0  0  0  0  0
   25.6238  -21.4499  -12.2474 C   0  0  1  0  0  0  0  0  0  0  0  0
   26.2241  -22.0343  -10.9844 C   0  0  0  0  0  0  0  0  0  0  0  0
   26.2253  -21.1168   -9.8473 C   0  0  0  0  0  0  0  0  0  0  0  0
   25.2153  -20.2857   -9.4185 C   0  0  0  0  0  0  0  0  0  0  0  0
   25.6598  -19.6288   -8.3361 N   0  0  0  0  0  0  0  0  0  0  0  0
   26.9171  -19.9838   -8.0256 C   0  0  0  0  0  0  0  0  0  0  0  0
   27.8220  -19.6311   -7.0493 C   0  0  0  0  0  0  0  0  0  0  0  0
   29.0532  -20.2200   -7.0480 C   0  0  0  0  0  0  0  0  0  0  0  0
   29.4550  -21.1592   -7.9751 C   0  0  0  0  0  0  0  0  0  0  0  0
   28.5361  -21.5013   -8.9462 C   0  0  0  0  0  0  0  0  0  0  0  0
   27.2829  -20.9293   -8.9816 C   0  0  0  0  0  0  0  0  0  0  0  0
   24.3689  -20.7313  -11.8125 C   0  0  0  0  0  0  0  0  0  0  0  0
   23.1925  -21.4111  -11.5454 O   0  0  0  0  0  0  0  0  0  0  0  0
   24.3587  -19.4829  -11.6800 O   0  0  0  0  0  0  0  0  0  0  0  0
  1  2  1  0
  3  2  1  0
  3  7  1  0
  4  3  2  0
  6  8  1  0
  6  7  1  0
  6  5  1  6
  8 10  1  0
  9  8  2  0
 10 11  1  0
 11 12  1  1
 12 13  1  0
 13 14  2  0
 13 21  1  0
 14 15  1  0
 15 16  1  0
 16 17  2  0
 17 18  1  0
 19 18  2  0
 20 19  1  0
 21 20  2  0
 21 16  1  0
 22 11  1  0
 23 22  1  0
 24 22  2  0
M  END
$$$$
