GAW.pdb
     RDKit          3D

 24 25  0  0  1  0  0  0  0  0999 V2000
   25.0913  -15.7444  -15.0471 N   0  0  0  0  0  0  0  0  0  0  0  0
   25.9111  -16.4505  -14.0828 C   0  0  0  0  0  0  0  0  0  0  0  0
   26.4642  -17.6794  -14.6989 C   0  0  0  0  0  0  0  0  0  0  0  0
   25.9300  -18.1289  -15.7276 O   0  0  0  0  0  0  0  0  0  0  0  0
   29.6393  -19.6284  -14.3373 C   0  0  0  0  0  0  0  0  0  0  0  0
   28.1670  -19.5308  -14.6510 C   0  0  2  0  0  0  0  0  0  0  0  0
   27.5731  -18.3147  -14.1192 N   0  0  0  0  0  0  0  0  0  0  0  0
   27.3904  -20.6853  -14.1197 C   0  0  0  0  0  0  0  0  0  0  0  0
   27.5310  -21.8550  -14.6098 O   0  0  0  0  0  0  0  0  0  0  0  0
   26.4629  -20.5718  -13.0586 N   0  0  0  0  0  0  0  0  0  0  0  0
   25.6585  -21.6929  -12.6063 C   0  0  1  0  0  0  0  0  0  0  0  0
   26.2622  -22.1421  -11.2907 C   0  0  0  0  0  0  0  0  0  0  0  0
   26.1132  -21.1736  -10.2069 C   0  0  0  0  0  0  0  0  0  0  0  0
   25.0520  -20.3353   -9.9497 C   0  0  0  0  0  0  0  0  0  0  0  0
   25.3510  -19.6245   -8.8515 N   0  0  0  0  0  0  0  0  0  0  0  0
   26.5603  -19.9506   -8.3671 C   0  0  0  0  0  0  0  0  0  0  0  0
   27.3311  -19.5432   -7.3011 C   0  0  0  0  0  0  0  0  0  0  0  0
   28.5553  -20.1174   -7.1154 C   0  0  0  0  0  0  0  0  0  0  0  0
   29.0773  -21.0934   -7.9388 C   0  0  0  0  0  0  0  0  0  0  0  0
   28.2919  -21.4900   -9.0019 C   0  0  0  0  0  0  0  0  0  0  0  0
   27.0504  -20.9346   -9.2234 C   0  0  0  0  0  0  0  0  0  0  0  0
   24.2619  -21.2214  -12.2787 C   0  0  0  0  0  0  0  0  0  0  0  0
   23.9319  -19.8769  -12.2507 O   0  0  0  0  0  0  0  0  0  0  0  0
   23.3514  -22.0463  -12.0198 O   0  0  0  0  0  0  0  0  0  0  0  0
  1  2  1  0
  3  2  1  0
  3  7  1  0
  4  3  2  0
  6  8  1  0
  6  7  1  0
  6  5  1  1
  8 10  1  0
  9  8  2  0
 10 11  1  0
 11 12  1  1
 12 13  1  0
 13 14  2  0
 13 21  1  0
 14 15  1  0
 15 16  1  0
 16 17  2  0
 17 18  1  0
 19 18  2  0
 20 19  1  0
 21 20  2  0
 21 16  1  0
 22 11  1  0
 23 22  1  0
 24 22  2  0
M  END
$$$$
