GAW.pdb
     RDKit          3D

 24 25  0  0  1  0  0  0  0  0999 V2000
   30.1123  -23.1443  -16.9451 N   0  0  0  0  0  0  0  0  0  0  0  0
   29.1978  -22.0420  -17.1672 C   0  0  0  0  0  0  0  0  0  0  0  0
   28.9583  -21.3243  -15.8932 C   0  0  0  0  0  0  0  0  0  0  0  0
   29.5011  -21.7433  -14.8561 O   0  0  0  0  0  0  0  0  0  0  0  0
   27.2198  -18.1077  -14.9400 C   0  0  0  0  0  0  0  0  0  0  0  0
   27.7770  -19.4802  -14.6549 C   0  0  2  0  0  0  0  0  0  0  0  0
   28.1297  -20.1920  -15.8730 N   0  0  0  0  0  0  0  0  0  0  0  0
   26.8289  -20.3352  -13.8878 C   0  0  0  0  0  0  0  0  0  0  0  0
   25.8315  -20.8891  -14.4593 O   0  0  0  0  0  0  0  0  0  0  0  0
   26.9621  -20.5894  -12.5033 N   0  0  0  0  0  0  0  0  0  0  0  0
   26.1256  -21.5494  -11.8055 C   0  0  1  0  0  0  0  0  0  0  0  0
   26.8629  -21.9026  -10.5293 C   0  0  0  0  0  0  0  0  0  0  0  0
   26.7690  -20.8829   -9.4870 C   0  0  0  0  0  0  0  0  0  0  0  0
   25.7789  -19.9461   -9.2945 C   0  0  0  0  0  0  0  0  0  0  0  0
   26.1081  -19.2213   -8.2142 N   0  0  0  0  0  0  0  0  0  0  0  0
   27.2697  -19.6319   -7.6801 C   0  0  0  0  0  0  0  0  0  0  0  0
   28.0429  -19.2514   -6.6059 C   0  0  0  0  0  0  0  0  0  0  0  0
   29.2060  -19.9221   -6.3605 C   0  0  0  0  0  0  0  0  0  0  0  0
   29.6632  -20.9714   -7.1306 C   0  0  0  0  0  0  0  0  0  0  0  0
   28.8764  -21.3398   -8.2028 C   0  0  0  0  0  0  0  0  0  0  0  0
   27.6954  -20.6877   -8.4838 C   0  0  0  0  0  0  0  0  0  0  0  0
   24.8409  -20.8866  -11.3688 C   0  0  0  0  0  0  0  0  0  0  0  0
   24.6545  -19.5180  -11.4665 O   0  0  0  0  0  0  0  0  0  0  0  0
   23.8960  -21.5673  -10.8997 O   0  0  0  0  0  0  0  0  0  0  0  0
  1  2  1  0
  3  2  1  0
  3  7  1  0
  4  3  2  0
  6  8  1  0
  6  7  1  0
  6  5  1  6
  8 10  1  0
  9  8  2  0
 10 11  1  0
 11 12  1  1
 12 13  1  0
 13 14  2  0
 13 21  1  0
 14 15  1  0
 15 16  1  0
 16 17  2  0
 17 18  1  0
 19 18  2  0
 20 19  1  0
 21 20  2  0
 21 16  1  0
 22 11  1  0
 23 22  1  0
 24 22  2  0
M  END
$$$$
