GAW.pdb
     RDKit          3D

 24 25  0  0  1  0  0  0  0  0999 V2000
   28.6670  -21.6574  -16.5944 N   0  0  0  0  0  0  0  0  0  0  0  0
   27.8025  -22.3311  -15.6461 C   0  0  0  0  0  0  0  0  0  0  0  0
   27.3225  -21.3648  -14.6304 C   0  0  0  0  0  0  0  0  0  0  0  0
   28.1550  -20.7846  -13.9120 O   0  0  0  0  0  0  0  0  0  0  0  0
   24.0000  -19.7484  -13.8848 C   0  0  0  0  0  0  0  0  0  0  0  0
   25.3939  -20.1933  -13.5179 C   0  0  2  0  0  0  0  0  0  0  0  0
   25.9478  -21.1191  -14.4929 N   0  0  0  0  0  0  0  0  0  0  0  0
   25.4524  -20.8512  -12.1830 C   0  0  0  0  0  0  0  0  0  0  0  0
   25.2147  -22.0980  -12.0523 O   0  0  0  0  0  0  0  0  0  0  0  0
   25.7681  -20.1583  -10.9916 N   0  0  0  0  0  0  0  0  0  0  0  0
   25.8236  -20.8190   -9.6998 C   0  0  1  0  0  0  0  0  0  0  0  0
   26.7350  -19.9741   -8.8323 C   0  0  0  0  0  0  0  0  0  0  0  0
   26.8322  -20.4334   -7.4486 C   0  0  0  0  0  0  0  0  0  0  0  0
   26.1931  -21.4981   -6.8546 C   0  0  0  0  0  0  0  0  0  0  0  0
   26.5845  -21.5442   -5.5718 N   0  0  0  0  0  0  0  0  0  0  0  0
   27.4530  -20.5609   -5.2855 C   0  0  0  0  0  0  0  0  0  0  0  0
   28.1415  -20.1579   -4.1630 C   0  0  0  0  0  0  0  0  0  0  0  0
   28.9641  -19.0722   -4.2487 C   0  0  0  0  0  0  0  0  0  0  0  0
   29.1527  -18.3424   -5.4041 C   0  0  0  0  0  0  0  0  0  0  0  0
   28.4554  -18.7598   -6.5195 C   0  0  0  0  0  0  0  0  0  0  0  0
   27.6152  -19.8510   -6.4736 C   0  0  0  0  0  0  0  0  0  0  0  0
   24.4658  -20.7695   -9.0408 C   0  0  0  0  0  0  0  0  0  0  0  0
   24.0555  -21.7362   -8.1384 O   0  0  0  0  0  0  0  0  0  0  0  0
   23.6629  -19.8389   -9.2969 O   0  0  0  0  0  0  0  0  0  0  0  0
  1  2  1  0
  3  2  1  0
  3  7  1  0
  4  3  2  0
  6  8  1  0
  6  7  1  0
  6  5  1  6
  8 10  1  0
  9  8  2  0
 10 11  1  0
 11 12  1  1
 12 13  1  0
 13 14  2  0
 13 21  1  0
 14 15  1  0
 15 16  1  0
 16 17  2  0
 17 18  1  0
 19 18  2  0
 20 19  1  0
 21 20  2  0
 21 16  1  0
 22 11  1  0
 23 22  1  0
 24 22  2  0
M  END
$$$$
