GAW.pdb
     RDKit          3D

 24 25  0  0  1  0  0  0  0  0999 V2000
   29.2271  -22.6746  -16.1772 N   0  0  0  0  0  0  0  0  0  0  0  0
   28.0175  -21.8927  -16.0152 C   0  0  0  0  0  0  0  0  0  0  0  0
   28.0110  -21.2492  -14.6805 C   0  0  0  0  0  0  0  0  0  0  0  0
   28.8382  -21.6210  -13.8300 O   0  0  0  0  0  0  0  0  0  0  0  0
   26.2327  -18.2429  -13.2370 C   0  0  0  0  0  0  0  0  0  0  0  0
   27.0571  -19.5026  -13.1414 C   0  0  2  0  0  0  0  0  0  0  0  0
   27.0804  -20.2383  -14.3955 N   0  0  0  0  0  0  0  0  0  0  0  0
   26.5687  -20.4277  -12.0813 C   0  0  0  0  0  0  0  0  0  0  0  0
   25.7255  -21.3476  -12.3474 O   0  0  0  0  0  0  0  0  0  0  0  0
   26.9938  -20.3555  -10.7348 N   0  0  0  0  0  0  0  0  0  0  0  0
   26.5809  -21.3256   -9.7364 C   0  0  1  0  0  0  0  0  0  0  0  0
   27.6882  -21.3645   -8.7023 C   0  0  0  0  0  0  0  0  0  0  0  0
   27.6290  -20.2780   -7.7271 C   0  0  0  0  0  0  0  0  0  0  0  0
   26.9681  -19.0746   -7.8272 C   0  0  0  0  0  0  0  0  0  0  0  0
   27.1906  -18.3919   -6.6935 N   0  0  0  0  0  0  0  0  0  0  0  0
   27.9678  -19.0844   -5.8452 C   0  0  0  0  0  0  0  0  0  0  0  0
   28.4877  -18.8624   -4.5895 C   0  0  0  0  0  0  0  0  0  0  0  0
   29.2662  -19.8272   -4.0184 C   0  0  0  0  0  0  0  0  0  0  0  0
   29.5698  -21.0274   -4.6272 C   0  0  0  0  0  0  0  0  0  0  0  0
   29.0407  -21.2336   -5.8849 C   0  0  0  0  0  0  0  0  0  0  0  0
   28.2502  -20.2841   -6.4954 C   0  0  0  0  0  0  0  0  0  0  0  0
   25.3564  -20.8227   -9.0098 C   0  0  0  0  0  0  0  0  0  0  0  0
   24.6977  -21.5937   -8.0669 O   0  0  0  0  0  0  0  0  0  0  0  0
   24.8973  -19.6779   -9.2442 O   0  0  0  0  0  0  0  0  0  0  0  0
  1  2  1  0
  3  2  1  0
  3  7  1  0
  4  3  2  0
  6  8  1  0
  6  7  1  0
  6  5  1  6
  8 10  1  0
  9  8  2  0
 10 11  1  0
 11 12  1  1
 12 13  1  0
 13 14  2  0
 13 21  1  0
 14 15  1  0
 15 16  1  0
 16 17  2  0
 17 18  1  0
 19 18  2  0
 20 19  1  0
 21 20  2  0
 21 16  1  0
 22 11  1  0
 23 22  1  0
 24 22  2  0
M  END
$$$$
