GAW.pdb
     RDKit          3D

 24 25  0  0  1  0  0  0  0  0999 V2000
   30.1815  -21.1270  -18.0972 N   0  0  0  0  0  0  0  0  0  0  0  0
   28.7659  -21.2796  -17.8262 C   0  0  0  0  0  0  0  0  0  0  0  0
   28.4829  -20.9183  -16.4173 C   0  0  0  0  0  0  0  0  0  0  0  0
   28.8273  -21.7015  -15.5152 O   0  0  0  0  0  0  0  0  0  0  0  0
   27.1168  -17.8166  -14.7267 C   0  0  0  0  0  0  0  0  0  0  0  0
   27.5668  -19.2560  -14.7660 C   0  0  2  0  0  0  0  0  0  0  0  0
   27.8359  -19.7088  -16.1214 N   0  0  0  0  0  0  0  0  0  0  0  0
   26.5685  -20.1847  -14.1669 C   0  0  0  0  0  0  0  0  0  0  0  0
   25.6319  -20.6888  -14.8718 O   0  0  0  0  0  0  0  0  0  0  0  0
   26.5855  -20.5663  -12.8055 N   0  0  0  0  0  0  0  0  0  0  0  0
   25.6682  -21.5527  -12.2634 C   0  0  1  0  0  0  0  0  0  0  0  0
   26.3288  -22.1024  -11.0150 C   0  0  0  0  0  0  0  0  0  0  0  0
   26.3397  -21.1710   -9.8892 C   0  0  0  0  0  0  0  0  0  0  0  0
   25.3179  -20.3691   -9.4334 C   0  0  0  0  0  0  0  0  0  0  0  0
   25.7785  -19.6839   -8.3755 N   0  0  0  0  0  0  0  0  0  0  0  0
   27.0576  -19.9923   -8.1071 C   0  0  0  0  0  0  0  0  0  0  0  0
   27.9846  -19.5968   -7.1686 C   0  0  0  0  0  0  0  0  0  0  0  0
   29.2345  -20.1438   -7.2055 C   0  0  0  0  0  0  0  0  0  0  0  0
   29.6344  -21.0806   -8.1359 C   0  0  0  0  0  0  0  0  0  0  0  0
   28.6933  -21.4657   -9.0688 C   0  0  0  0  0  0  0  0  0  0  0  0
   27.4208  -20.9369   -9.0650 C   0  0  0  0  0  0  0  0  0  0  0  0
   24.4039  -20.8728  -11.7949 C   0  0  0  0  0  0  0  0  0  0  0  0
   23.2433  -21.5835  -11.5392 O   0  0  0  0  0  0  0  0  0  0  0  0
   24.3710  -19.6296  -11.6227 O   0  0  0  0  0  0  0  0  0  0  0  0
  1  2  1  0
  3  2  1  0
  3  7  1  0
  4  3  2  0
  6  8  1  0
  6  7  1  0
  6  5  1  6
  8 10  1  0
  9  8  2  0
 10 11  1  0
 11 12  1  1
 12 13  1  0
 13 14  2  0
 13 21  1  0
 14 15  1  0
 15 16  1  0
 16 17  2  0
 17 18  1  0
 19 18  2  0
 20 19  1  0
 21 20  2  0
 21 16  1  0
 22 11  1  0
 23 22  1  0
 24 22  2  0
M  END
$$$$
