GAW.pdb
     RDKit          3D

 24 25  0  0  1  0  0  0  0  0999 V2000
   27.6207  -19.3864  -16.7905 N   0  0  0  0  0  0  0  0  0  0  0  0
   27.2380  -19.1677  -15.4098 C   0  0  0  0  0  0  0  0  0  0  0  0
   26.1245  -20.0758  -15.0479 C   0  0  0  0  0  0  0  0  0  0  0  0
   25.2246  -20.2847  -15.8800 O   0  0  0  0  0  0  0  0  0  0  0  0
   25.4430  -22.4487  -12.2039 C   0  0  0  0  0  0  0  0  0  0  0  0
   25.0145  -21.5370  -13.3268 C   0  0  2  0  0  0  0  0  0  0  0  0
   26.0992  -20.6827  -13.7829 N   0  0  0  0  0  0  0  0  0  0  0  0
   23.8734  -20.6583  -12.9473 C   0  0  0  0  0  0  0  0  0  0  0  0
   24.0177  -19.7256  -12.0886 O   0  0  0  0  0  0  0  0  0  0  0  0
   22.5778  -20.7906  -13.4980 N   0  0  0  0  0  0  0  0  0  0  0  0
   21.4795  -19.9200  -13.1183 C   0  0  1  0  0  0  0  0  0  0  0  0
   21.6211  -18.6692  -13.9624 C   0  0  0  0  0  0  0  0  0  0  0  0
   21.7433  -18.9297  -15.3950 C   0  0  0  0  0  0  0  0  0  0  0  0
   20.9714  -19.7532  -16.1829 C   0  0  0  0  0  0  0  0  0  0  0  0
   21.4456  -19.6799  -17.4361 N   0  0  0  0  0  0  0  0  0  0  0  0
   22.4958  -18.8470  -17.5181 C   0  0  0  0  0  0  0  0  0  0  0  0
   23.3320  -18.4211  -18.5259 C   0  0  0  0  0  0  0  0  0  0  0  0
   24.3291  -17.5386  -18.2262 C   0  0  0  0  0  0  0  0  0  0  0  0
   24.5561  -17.0390  -16.9605 C   0  0  0  0  0  0  0  0  0  0  0  0
   23.7091  -17.4760  -15.9626 C   0  0  0  0  0  0  0  0  0  0  0  0
   22.6906  -18.3665  -16.2247 C   0  0  0  0  0  0  0  0  0  0  0  0
   20.1667  -20.5451  -13.5257 C   0  0  0  0  0  0  0  0  0  0  0  0
   20.1110  -21.7434  -14.2175 O   0  0  0  0  0  0  0  0  0  0  0  0
   19.0772  -19.9881  -13.2446 O   0  0  0  0  0  0  0  0  0  0  0  0
  1  2  1  0
  3  2  1  0
  3  7  1  0
  4  3  2  0
  6  8  1  0
  6  7  1  0
  6  5  1  1
  8 10  1  0
  9  8  2  0
 10 11  1  0
 11 12  1  6
 12 13  1  0
 13 14  2  0
 13 21  1  0
 14 15  1  0
 15 16  1  0
 16 17  2  0
 17 18  1  0
 19 18  2  0
 20 19  1  0
 21 20  2  0
 21 16  1  0
 22 11  1  0
 23 22  1  0
 24 22  2  0
M  END
$$$$
