GAW.pdb
     RDKit          3D

 24 25  0  0  1  0  0  0  0  0999 V2000
   29.1987  -22.7999  -16.2546 N   0  0  0  0  0  0  0  0  0  0  0  0
   28.2119  -21.7387  -16.2343 C   0  0  0  0  0  0  0  0  0  0  0  0
   28.0784  -21.2040  -14.8588 C   0  0  0  0  0  0  0  0  0  0  0  0
   28.6607  -21.7874  -13.9280 O   0  0  0  0  0  0  0  0  0  0  0  0
   26.5813  -18.0351  -13.4294 C   0  0  0  0  0  0  0  0  0  0  0  0
   27.2169  -19.3997  -13.3318 C   0  0  2  0  0  0  0  0  0  0  0  0
   27.3038  -20.0573  -14.6258 N   0  0  0  0  0  0  0  0  0  0  0  0
   26.4824  -20.3090  -12.4088 C   0  0  0  0  0  0  0  0  0  0  0  0
   25.5545  -21.0729  -12.8372 O   0  0  0  0  0  0  0  0  0  0  0  0
   26.7534  -20.3899  -11.0235 N   0  0  0  0  0  0  0  0  0  0  0  0
   26.1382  -21.3893  -10.1684 C   0  0  1  0  0  0  0  0  0  0  0  0
   27.0842  -21.5856   -9.0006 C   0  0  0  0  0  0  0  0  0  0  0  0
   27.2054  -20.4176   -8.1311 C   0  0  0  0  0  0  0  0  0  0  0  0
   26.6103  -19.1840   -8.2688 C   0  0  0  0  0  0  0  0  0  0  0  0
   27.0052  -18.4234   -7.2363 N   0  0  0  0  0  0  0  0  0  0  0  0
   27.8343  -19.0929   -6.4193 C   0  0  0  0  0  0  0  0  0  0  0  0
   28.5110  -18.8005   -5.2561 C   0  0  0  0  0  0  0  0  0  0  0  0
   29.2924  -19.7646   -4.6880 C   0  0  0  0  0  0  0  0  0  0  0  0
   29.4500  -21.0310   -5.2117 C   0  0  0  0  0  0  0  0  0  0  0  0
   28.7649  -21.3074   -6.3773 C   0  0  0  0  0  0  0  0  0  0  0  0
   27.9660  -20.3610   -6.9816 C   0  0  0  0  0  0  0  0  0  0  0  0
   24.8618  -20.8409   -9.5766 C   0  0  0  0  0  0  0  0  0  0  0  0
   23.9878  -21.6384   -8.8572 O   0  0  0  0  0  0  0  0  0  0  0  0
   24.5553  -19.6322   -9.7229 O   0  0  0  0  0  0  0  0  0  0  0  0
  1  2  1  0
  3  2  1  0
  3  7  1  0
  4  3  2  0
  6  8  1  0
  6  7  1  0
  6  5  1  6
  8 10  1  0
  9  8  2  0
 10 11  1  0
 11 12  1  1
 12 13  1  0
 13 14  2  0
 13 21  1  0
 14 15  1  0
 15 16  1  0
 16 17  2  0
 17 18  1  0
 19 18  2  0
 20 19  1  0
 21 20  2  0
 21 16  1  0
 22 11  1  0
 23 22  1  0
 24 22  2  0
M  END
$$$$
