GAW.pdb
     RDKit          3D

 24 25  0  0  1  0  0  0  0  0999 V2000
   23.3949  -26.0742  -14.9984 N   0  0  0  0  0  0  0  0  0  0  0  0
   23.2394  -24.6824  -14.6252 C   0  0  0  0  0  0  0  0  0  0  0  0
   24.4884  -24.1881  -13.9996 C   0  0  0  0  0  0  0  0  0  0  0  0
   25.0302  -24.8742  -13.1156 O   0  0  0  0  0  0  0  0  0  0  0  0
   26.8098  -21.2747  -14.6388 C   0  0  0  0  0  0  0  0  0  0  0  0
   26.2095  -22.3655  -13.7871 C   0  0  2  0  0  0  0  0  0  0  0  0
   25.0387  -22.9637  -14.4084 N   0  0  0  0  0  0  0  0  0  0  0  0
   25.8096  -21.8826  -12.4361 C   0  0  0  0  0  0  0  0  0  0  0  0
   24.6302  -21.4491  -12.2141 O   0  0  0  0  0  0  0  0  0  0  0  0
   26.6871  -21.8696  -11.3275 N   0  0  0  0  0  0  0  0  0  0  0  0
   26.3269  -21.2632  -10.0583 C   0  0  1  0  0  0  0  0  0  0  0  0
   27.6209  -21.0990   -9.2866 C   0  0  0  0  0  0  0  0  0  0  0  0
   27.5054  -20.2434   -8.1078 C   0  0  0  0  0  0  0  0  0  0  0  0
   26.5674  -19.2704   -7.8465 C   0  0  0  0  0  0  0  0  0  0  0  0
   26.8493  -18.7448   -6.6444 N   0  0  0  0  0  0  0  0  0  0  0  0
   27.9299  -19.3223   -6.0948 C   0  0  0  0  0  0  0  0  0  0  0  0
   28.6306  -19.1704   -4.9190 C   0  0  0  0  0  0  0  0  0  0  0  0
   29.7204  -19.9607   -4.6944 C   0  0  0  0  0  0  0  0  0  0  0  0
   30.1715  -20.9154   -5.5824 C   0  0  0  0  0  0  0  0  0  0  0  0
   29.4579  -21.0545   -6.7553 C   0  0  0  0  0  0  0  0  0  0  0  0
   28.3521  -20.2757   -7.0192 C   0  0  0  0  0  0  0  0  0  0  0  0
   25.8048  -19.8652  -10.2890 C   0  0  0  0  0  0  0  0  0  0  0  0
   26.4459  -18.9756  -11.1346 O   0  0  0  0  0  0  0  0  0  0  0  0
   24.7626  -19.4672   -9.7129 O   0  0  0  0  0  0  0  0  0  0  0  0
  1  2  1  0
  3  2  1  0
  3  7  1  0
  4  3  2  0
  6  8  1  0
  6  7  1  0
  6  5  1  6
  8 10  1  0
  9  8  2  0
 10 11  1  0
 11 12  1  1
 12 13  1  0
 13 14  2  0
 13 21  1  0
 14 15  1  0
 15 16  1  0
 16 17  2  0
 17 18  1  0
 19 18  2  0
 20 19  1  0
 21 20  2  0
 21 16  1  0
 22 11  1  0
 23 22  1  0
 24 22  2  0
M  END
$$$$
