GAW.pdb
     RDKit          3D

 24 25  0  0  1  0  0  0  0  0999 V2000
   30.2606  -22.9572  -17.2671 N   0  0  0  0  0  0  0  0  0  0  0  0
   29.3082  -21.8824  -17.4632 C   0  0  0  0  0  0  0  0  0  0  0  0
   28.8508  -21.3715  -16.1497 C   0  0  0  0  0  0  0  0  0  0  0  0
   29.0899  -22.0393  -15.1286 O   0  0  0  0  0  0  0  0  0  0  0  0
   27.3760  -18.0821  -15.0063 C   0  0  0  0  0  0  0  0  0  0  0  0
   27.7796  -19.5237  -14.8202 C   0  0  2  0  0  0  0  0  0  0  0  0
   28.1599  -20.1524  -16.0750 N   0  0  0  0  0  0  0  0  0  0  0  0
   26.6990  -20.3467  -14.2092 C   0  0  0  0  0  0  0  0  0  0  0  0
   25.7850  -20.8720  -14.9281 O   0  0  0  0  0  0  0  0  0  0  0  0
   26.6094  -20.5997  -12.8210 N   0  0  0  0  0  0  0  0  0  0  0  0
   25.5970  -21.4724  -12.2539 C   0  0  1  0  0  0  0  0  0  0  0  0
   26.1923  -22.0374  -10.9798 C   0  0  0  0  0  0  0  0  0  0  0  0
   26.1961  -21.1001   -9.8589 C   0  0  0  0  0  0  0  0  0  0  0  0
   25.1677  -20.3047   -9.4064 C   0  0  0  0  0  0  0  0  0  0  0  0
   25.6232  -19.6100   -8.3526 N   0  0  0  0  0  0  0  0  0  0  0  0
   26.9051  -19.9060   -8.0835 C   0  0  0  0  0  0  0  0  0  0  0  0
   27.8293  -19.4976   -7.1479 C   0  0  0  0  0  0  0  0  0  0  0  0
   29.0839  -20.0339   -7.1829 C   0  0  0  0  0  0  0  0  0  0  0  0
   29.4912  -20.9721   -8.1087 C   0  0  0  0  0  0  0  0  0  0  0  0
   28.5527  -21.3703   -9.0389 C   0  0  0  0  0  0  0  0  0  0  0  0
   27.2757  -20.8524   -9.0368 C   0  0  0  0  0  0  0  0  0  0  0  0
   24.4013  -20.6569  -11.8233 C   0  0  0  0  0  0  0  0  0  0  0  0
   23.1696  -21.2396  -11.5762 O   0  0  0  0  0  0  0  0  0  0  0  0
   24.4932  -19.4135  -11.6760 O   0  0  0  0  0  0  0  0  0  0  0  0
  1  2  1  0
  3  2  1  0
  3  7  1  0
  4  3  2  0
  6  8  1  0
  6  7  1  0
  6  5  1  6
  8 10  1  0
  9  8  2  0
 10 11  1  0
 11 12  1  1
 12 13  1  0
 13 14  2  0
 13 21  1  0
 14 15  1  0
 15 16  1  0
 16 17  2  0
 17 18  1  0
 19 18  2  0
 20 19  1  0
 21 20  2  0
 21 16  1  0
 22 11  1  0
 23 22  1  0
 24 22  2  0
M  END
$$$$
