GAW.pdb
     RDKit          3D

 24 25  0  0  1  0  0  0  0  0999 V2000
   28.8055  -24.1578  -16.2253 N   0  0  0  0  0  0  0  0  0  0  0  0
   27.8774  -23.0771  -16.4926 C   0  0  0  0  0  0  0  0  0  0  0  0
   27.8445  -22.1472  -15.3395 C   0  0  0  0  0  0  0  0  0  0  0  0
   28.7657  -22.1908  -14.5057 O   0  0  0  0  0  0  0  0  0  0  0  0
   25.8981  -19.0105  -14.6598 C   0  0  0  0  0  0  0  0  0  0  0  0
   26.7749  -20.1597  -14.2282 C   0  0  2  0  0  0  0  0  0  0  0  0
   26.7844  -21.2379  -15.2038 N   0  0  0  0  0  0  0  0  0  0  0  0
   26.3605  -20.7359  -12.9188 C   0  0  0  0  0  0  0  0  0  0  0  0
   25.5189  -21.6929  -12.8572 O   0  0  0  0  0  0  0  0  0  0  0  0
   26.8580  -20.2752  -11.6780 N   0  0  0  0  0  0  0  0  0  0  0  0
   26.4388  -20.8485  -10.4115 C   0  0  1  0  0  0  0  0  0  0  0  0
   27.3944  -20.3081   -9.3666 C   0  0  0  0  0  0  0  0  0  0  0  0
   26.9076  -20.4331   -7.9947 C   0  0  0  0  0  0  0  0  0  0  0  0
   25.7829  -21.0858   -7.5429 C   0  0  0  0  0  0  0  0  0  0  0  0
   25.7353  -20.9406   -6.2098 N   0  0  0  0  0  0  0  0  0  0  0  0
   26.7747  -20.2225   -5.7545 C   0  0  0  0  0  0  0  0  0  0  0  0
   27.1992  -19.7887   -4.5183 C   0  0  0  0  0  0  0  0  0  0  0  0
   28.3444  -19.0506   -4.4364 C   0  0  0  0  0  0  0  0  0  0  0  0
   29.1146  -18.7064   -5.5279 C   0  0  0  0  0  0  0  0  0  0  0  0
   28.6749  -19.1492   -6.7588 C   0  0  0  0  0  0  0  0  0  0  0  0
   27.5239  -19.8967   -6.8833 C   0  0  0  0  0  0  0  0  0  0  0  0
   25.0756  -20.3185  -10.0361 C   0  0  0  0  0  0  0  0  0  0  0  0
   24.1627  -21.0838   -9.3301 O   0  0  0  0  0  0  0  0  0  0  0  0
   24.7293  -19.1555  -10.3580 O   0  0  0  0  0  0  0  0  0  0  0  0
  1  2  1  0
  3  2  1  0
  3  7  1  0
  4  3  2  0
  6  8  1  0
  6  7  1  0
  6  5  1  6
  8 10  1  0
  9  8  2  0
 10 11  1  0
 11 12  1  1
 12 13  1  0
 13 14  2  0
 13 21  1  0
 14 15  1  0
 15 16  1  0
 16 17  2  0
 17 18  1  0
 19 18  2  0
 20 19  1  0
 21 20  2  0
 21 16  1  0
 22 11  1  0
 23 22  1  0
 24 22  2  0
M  END
$$$$
