AEW.pdb
     RDKit          3D

 29 30  0  0  1  0  0  0  0  0999 V2000
    7.9145  -12.5045   20.3329 C   0  0  0  0  0  0  0  0  0  0  0  0
    7.9272  -13.8195   19.5824 C   0  0  2  0  0  0  0  0  0  0  0  0
    6.6000  -14.0285   19.0411 N   0  0  0  0  0  0  0  0  0  0  0  0
    8.3434  -14.9577   20.4445 C   0  0  0  0  0  0  0  0  0  0  0  0
    7.4814  -15.4615   21.2032 O   0  0  0  0  0  0  0  0  0  0  0  0
    9.6422  -15.4819   20.4429 N   0  0  0  0  0  0  0  0  0  0  0  0
    9.9935  -16.6799   21.2487 C   0  0  1  0  0  0  0  0  0  0  0  0
   11.1280  -17.3411   20.5233 C   0  0  0  0  0  0  0  0  0  0  0  0
   11.6964  -18.5455   21.2143 C   0  0  0  0  0  0  0  0  0  0  0  0
   12.8352  -19.0701   20.3967 C   0  0  0  0  0  0  0  0  0  0  0  0
   12.6932  -20.0486   19.6289 O   0  0  0  0  0  0  0  0  0  0  0  0
   10.2889  -16.2723   22.6345 C   0  0  0  0  0  0  0  0  0  0  0  0
   11.1413  -15.3465   22.8055 O   0  0  0  0  0  0  0  0  0  0  0  0
   14.0891  -18.4795   20.4697 O   0  0  0  0  0  0  0  0  0  0  0  0
    9.7191  -16.8014   23.8057 N   0  0  0  0  0  0  0  0  0  0  0  0
   10.2067  -16.4688   25.1602 C   0  0  1  0  0  0  0  0  0  0  0  0
    9.9798  -15.0222   25.4178 C   0  0  0  0  0  0  0  0  0  0  0  0
    8.5699  -14.6211   25.5965 C   0  0  0  0  0  0  0  0  0  0  0  0
    7.4834  -15.4801   25.3633 C   0  0  0  0  0  0  0  0  0  0  0  0
    6.3306  -14.8488   25.6399 N   0  0  0  0  0  0  0  0  0  0  0  0
    6.5917  -13.5910   26.0522 C   0  0  0  0  0  0  0  0  0  0  0  0
    5.7525  -12.5663   26.4380 C   0  0  0  0  0  0  0  0  0  0  0  0
    6.3204  -11.3655   26.8058 C   0  0  0  0  0  0  0  0  0  0  0  0
    7.7050  -11.2247   26.7771 C   0  0  0  0  0  0  0  0  0  0  0  0
    8.5345  -12.2536   26.3905 C   0  0  0  0  0  0  0  0  0  0  0  0
    7.9735  -13.4620   26.0209 C   0  0  0  0  0  0  0  0  0  0  0  0
    9.7376  -17.4175   26.1545 C   0  0  0  0  0  0  0  0  0  0  0  0
   10.0508  -17.3205   27.3930 O   0  0  0  0  0  0  0  0  0  0  0  0
    8.9181  -18.4945   25.8562 O   0  0  0  0  0  0  0  0  0  0  0  0
  2  4  1  0
  2  1  1  1
  3  2  1  0
  4  5  2  0
  6  4  1  0
  6  7  1  0
  7  8  1  6
  9 10  1  0
  9  8  1  0
 10 11  2  0
 12 15  1  0
 12  7  1  0
 13 12  2  0
 14 10  1  0
 16 17  1  1
 16 15  1  0
 18 17  1  0
 19 18  2  0
 20 19  1  0
 21 26  2  0
 21 20  1  0
 22 21  1  0
 23 22  2  0
 23 24  1  0
 24 25  2  0
 25 26  1  0
 26 18  1  0
 27 16  1  0
 27 29  1  0
 28 27  2  0
M  END
$$$$
