AEW.pdb
     RDKit          3D

 29 30  0  0  1  0  0  0  0  0999 V2000
    7.8857  -12.5476   20.8421 C   0  0  0  0  0  0  0  0  0  0  0  0
    8.0296  -13.8653   20.1102 C   0  0  2  0  0  0  0  0  0  0  0  0
    6.7838  -14.1201   19.4165 N   0  0  0  0  0  0  0  0  0  0  0  0
    8.3759  -14.9849   21.0258 C   0  0  0  0  0  0  0  0  0  0  0  0
    7.4329  -15.6366   21.5343 O   0  0  0  0  0  0  0  0  0  0  0  0
    9.6953  -15.3354   21.3388 N   0  0  0  0  0  0  0  0  0  0  0  0
   10.0071  -16.5744   22.0976 C   0  0  1  0  0  0  0  0  0  0  0  0
   11.2390  -17.1446   21.4593 C   0  0  0  0  0  0  0  0  0  0  0  0
   11.7005  -18.4480   22.0417 C   0  0  0  0  0  0  0  0  0  0  0  0
   12.9299  -18.8878   21.3097 C   0  0  0  0  0  0  0  0  0  0  0  0
   13.9142  -19.3700   21.9145 O   0  0  0  0  0  0  0  0  0  0  0  0
   10.1350  -16.2551   23.5313 C   0  0  0  0  0  0  0  0  0  0  0  0
   10.7610  -15.1949   23.8435 O   0  0  0  0  0  0  0  0  0  0  0  0
   13.0106  -18.7710   19.9291 O   0  0  0  0  0  0  0  0  0  0  0  0
    9.6291  -17.0047   24.6077 N   0  0  0  0  0  0  0  0  0  0  0  0
    9.9071  -16.6741   26.0207 C   0  0  1  0  0  0  0  0  0  0  0  0
    8.6192  -16.5172   26.7466 C   0  0  0  0  0  0  0  0  0  0  0  0
    7.6818  -15.5304   26.1736 C   0  0  0  0  0  0  0  0  0  0  0  0
    6.5362  -15.8828   25.4414 C   0  0  0  0  0  0  0  0  0  0  0  0
    5.8649  -14.7777   25.0779 N   0  0  0  0  0  0  0  0  0  0  0  0
    6.5116  -13.6853   25.5348 C   0  0  0  0  0  0  0  0  0  0  0  0
    6.2256  -12.3411   25.4151 C   0  0  0  0  0  0  0  0  0  0  0  0
    7.0936  -11.4387   25.9911 C   0  0  0  0  0  0  0  0  0  0  0  0
    8.2179  -11.9046   26.6671 C   0  0  0  0  0  0  0  0  0  0  0  0
    8.4948  -13.2486   26.7812 C   0  0  0  0  0  0  0  0  0  0  0  0
    7.6289  -14.1610   26.2074 C   0  0  0  0  0  0  0  0  0  0  0  0
   10.9090  -17.5533   26.5971 C   0  0  0  0  0  0  0  0  0  0  0  0
   11.4078  -18.5390   25.9483 O   0  0  0  0  0  0  0  0  0  0  0  0
   11.4096  -17.4035   27.8806 O   0  0  0  0  0  0  0  0  0  0  0  0
  2  4  1  0
  2  1  1  1
  3  2  1  0
  4  5  2  0
  6  4  1  0
  6  7  1  0
  7  8  1  6
  9 10  1  0
  9  8  1  0
 10 11  2  0
 12 15  1  0
 12  7  1  0
 13 12  2  0
 14 10  1  0
 16 17  1  1
 16 15  1  0
 18 17  1  0
 19 18  2  0
 20 19  1  0
 21 26  2  0
 21 20  1  0
 22 21  1  0
 23 22  2  0
 23 24  1  0
 24 25  2  0
 25 26  1  0
 26 18  1  0
 27 16  1  0
 27 29  1  0
 28 27  2  0
M  END
$$$$
