AEW.pdb
     RDKit          3D

 29 30  0  0  1  0  0  0  0  0999 V2000
    7.8821  -12.7583   20.0900 C   0  0  0  0  0  0  0  0  0  0  0  0
    8.0520  -14.0226   19.2743 C   0  0  2  0  0  0  0  0  0  0  0  0
    6.7817  -14.3098   18.6404 N   0  0  0  0  0  0  0  0  0  0  0  0
    8.5142  -15.1697   20.1004 C   0  0  0  0  0  0  0  0  0  0  0  0
    7.6467  -15.8314   20.7185 O   0  0  0  0  0  0  0  0  0  0  0  0
    9.8614  -15.5352   20.2142 N   0  0  0  0  0  0  0  0  0  0  0  0
   10.2858  -16.6643   21.0821 C   0  0  1  0  0  0  0  0  0  0  0  0
   11.5156  -17.2335   20.4388 C   0  0  0  0  0  0  0  0  0  0  0  0
   12.0880  -18.4336   21.1340 C   0  0  0  0  0  0  0  0  0  0  0  0
   12.2706  -19.5253   20.1264 C   0  0  0  0  0  0  0  0  0  0  0  0
   12.1636  -19.3070   18.8984 O   0  0  0  0  0  0  0  0  0  0  0  0
   10.4674  -16.1824   22.4636 C   0  0  0  0  0  0  0  0  0  0  0  0
   11.1471  -15.1227   22.6316 O   0  0  0  0  0  0  0  0  0  0  0  0
   12.5659  -20.8195   20.5317 O   0  0  0  0  0  0  0  0  0  0  0  0
    9.9598  -16.7740   23.6336 N   0  0  0  0  0  0  0  0  0  0  0  0
   10.2206  -16.2382   24.9857 C   0  0  1  0  0  0  0  0  0  0  0  0
    9.8634  -14.7954   25.0149 C   0  0  0  0  0  0  0  0  0  0  0  0
    8.4611  -14.4939   25.3665 C   0  0  0  0  0  0  0  0  0  0  0  0
    7.4085  -15.4111   25.2134 C   0  0  0  0  0  0  0  0  0  0  0  0
    6.2586  -14.8675   25.6450 N   0  0  0  0  0  0  0  0  0  0  0  0
    6.4889  -13.6134   26.0857 C   0  0  0  0  0  0  0  0  0  0  0  0
    5.6389  -12.6618   26.6100 C   0  0  0  0  0  0  0  0  0  0  0  0
    6.1718  -11.4429   26.9702 C   0  0  0  0  0  0  0  0  0  0  0  0
    7.5336  -11.2117   26.7962 C   0  0  0  0  0  0  0  0  0  0  0  0
    8.3741  -12.1681   26.2720 C   0  0  0  0  0  0  0  0  0  0  0  0
    7.8482  -13.3941   25.9089 C   0  0  0  0  0  0  0  0  0  0  0  0
    9.6745  -17.0943   26.0237 C   0  0  0  0  0  0  0  0  0  0  0  0
    9.7664  -16.8035   27.2680 O   0  0  0  0  0  0  0  0  0  0  0  0
    9.0116  -18.2832   25.7635 O   0  0  0  0  0  0  0  0  0  0  0  0
  2  4  1  0
  2  1  1  1
  3  2  1  0
  4  5  2  0
  6  4  1  0
  6  7  1  0
  7  8  1  6
  9 10  1  0
  9  8  1  0
 10 11  2  0
 12 15  1  0
 12  7  1  0
 13 12  2  0
 14 10  1  0
 16 17  1  6
 16 15  1  0
 18 17  1  0
 19 18  2  0
 20 19  1  0
 21 26  2  0
 21 20  1  0
 22 21  1  0
 23 22  2  0
 23 24  1  0
 24 25  2  0
 25 26  1  0
 26 18  1  0
 27 16  1  0
 27 29  1  0
 28 27  2  0
M  END
$$$$
