AEW.pdb
     RDKit          3D

 29 30  0  0  1  0  0  0  0  0999 V2000
    7.3386  -19.3743   18.7095 C   0  0  0  0  0  0  0  0  0  0  0  0
    7.8647  -18.0549   19.2338 C   0  0  2  0  0  0  0  0  0  0  0  0
    8.4101  -17.3222   18.1096 N   0  0  0  0  0  0  0  0  0  0  0  0
    8.8820  -18.2375   20.3032 C   0  0  0  0  0  0  0  0  0  0  0  0
    8.5465  -18.8838   21.3242 O   0  0  0  0  0  0  0  0  0  0  0  0
   10.1818  -17.7232   20.2169 N   0  0  0  0  0  0  0  0  0  0  0  0
   11.1272  -17.8146   21.3597 C   0  0  1  0  0  0  0  0  0  0  0  0
   12.4862  -17.5377   20.7880 C   0  0  0  0  0  0  0  0  0  0  0  0
   13.0851  -18.6763   20.0161 C   0  0  0  0  0  0  0  0  0  0  0  0
   14.1868  -18.1408   19.1558 C   0  0  0  0  0  0  0  0  0  0  0  0
   15.3425  -17.9681   19.6048 O   0  0  0  0  0  0  0  0  0  0  0  0
   10.6980  -16.8947   22.4289 C   0  0  0  0  0  0  0  0  0  0  0  0
   10.6878  -15.6522   22.1659 O   0  0  0  0  0  0  0  0  0  0  0  0
   13.9527  -17.8191   17.8261 O   0  0  0  0  0  0  0  0  0  0  0  0
   10.2887  -17.2474   23.7268 N   0  0  0  0  0  0  0  0  0  0  0  0
    9.6972  -16.2811   24.6754 C   0  0  1  0  0  0  0  0  0  0  0  0
    8.5576  -15.5887   24.0180 C   0  0  0  0  0  0  0  0  0  0  0  0
    7.5543  -15.0061   24.9316 C   0  0  0  0  0  0  0  0  0  0  0  0
    6.5865  -15.7668   25.6079 C   0  0  0  0  0  0  0  0  0  0  0  0
    5.8381  -14.9699   26.3881 N   0  0  0  0  0  0  0  0  0  0  0  0
    6.2598  -13.6940   26.2676 C   0  0  0  0  0  0  0  0  0  0  0  0
    5.8122  -12.5277   26.8527 C   0  0  0  0  0  0  0  0  0  0  0  0
    6.4478  -11.3501   26.5225 C   0  0  0  0  0  0  0  0  0  0  0  0
    7.5079  -11.3728   25.6205 C   0  0  0  0  0  0  0  0  0  0  0  0
    7.9475  -12.5423   25.0416 C   0  0  0  0  0  0  0  0  0  0  0  0
    7.3164  -13.7284   25.3679 C   0  0  0  0  0  0  0  0  0  0  0  0
    9.4701  -16.8726   25.9821 C   0  0  0  0  0  0  0  0  0  0  0  0
    9.0895  -18.0874   26.1256 O   0  0  0  0  0  0  0  0  0  0  0  0
    9.6462  -16.1858   27.1728 O   0  0  0  0  0  0  0  0  0  0  0  0
  2  4  1  0
  2  1  1  6
  3  2  1  0
  4  5  2  0
  6  4  1  0
  6  7  1  0
  7  8  1  6
  9 10  1  0
  9  8  1  0
 10 11  2  0
 12 15  1  0
 12  7  1  0
 13 12  2  0
 14 10  1  0
 16 17  1  6
 16 15  1  0
 18 17  1  0
 19 18  2  0
 20 19  1  0
 21 26  2  0
 21 20  1  0
 22 21  1  0
 23 22  2  0
 23 24  1  0
 24 25  2  0
 25 26  1  0
 26 18  1  0
 27 16  1  0
 27 29  1  0
 28 27  2  0
M  END
$$$$
