AEW.pdb
     RDKit          3D

 29 30  0  0  1  0  0  0  0  0999 V2000
    7.5875  -12.7913   20.3652 C   0  0  0  0  0  0  0  0  0  0  0  0
    7.7615  -14.0354   19.5198 C   0  0  2  0  0  0  0  0  0  0  0  0
    6.4940  -14.3077   18.8738 N   0  0  0  0  0  0  0  0  0  0  0  0
    8.2209  -15.2020   20.3197 C   0  0  0  0  0  0  0  0  0  0  0  0
    7.3491  -15.8924   20.8992 O   0  0  0  0  0  0  0  0  0  0  0  0
    9.5699  -15.5551   20.4501 N   0  0  0  0  0  0  0  0  0  0  0  0
    9.9914  -16.6974   21.3018 C   0  0  1  0  0  0  0  0  0  0  0  0
   11.2045  -17.2769   20.6362 C   0  0  0  0  0  0  0  0  0  0  0  0
   11.7932  -18.4677   21.3336 C   0  0  0  0  0  0  0  0  0  0  0  0
   12.9685  -18.9500   20.5420 C   0  0  0  0  0  0  0  0  0  0  0  0
   14.1211  -18.5059   20.7455 O   0  0  0  0  0  0  0  0  0  0  0  0
   10.1987  -16.2305   22.6849 C   0  0  0  0  0  0  0  0  0  0  0  0
   10.8287  -15.1399   22.8485 O   0  0  0  0  0  0  0  0  0  0  0  0
   12.8088  -19.9107   19.5531 O   0  0  0  0  0  0  0  0  0  0  0  0
    9.7657  -16.8677   23.8608 N   0  0  0  0  0  0  0  0  0  0  0  0
   10.1087  -16.3819   25.2134 C   0  0  1  0  0  0  0  0  0  0  0  0
    9.8620  -14.9174   25.2819 C   0  0  0  0  0  0  0  0  0  0  0  0
    8.4552  -14.5179   25.4871 C   0  0  0  0  0  0  0  0  0  0  0  0
    7.3636  -15.3656   25.2371 C   0  0  0  0  0  0  0  0  0  0  0  0
    6.2156  -14.7400   25.5451 N   0  0  0  0  0  0  0  0  0  0  0  0
    6.4849  -13.4969   25.9951 C   0  0  0  0  0  0  0  0  0  0  0  0
    5.6530  -12.4827   26.4218 C   0  0  0  0  0  0  0  0  0  0  0  0
    6.2284  -11.2961   26.8225 C   0  0  0  0  0  0  0  0  0  0  0  0
    7.6132  -11.1587   26.7848 C   0  0  0  0  0  0  0  0  0  0  0  0
    8.4354  -12.1771   26.3572 C   0  0  0  0  0  0  0  0  0  0  0  0
    7.8668  -13.3712   25.9545 C   0  0  0  0  0  0  0  0  0  0  0  0
    9.5329  -17.2170   26.2526 C   0  0  0  0  0  0  0  0  0  0  0  0
    9.7533  -17.0085   27.4973 O   0  0  0  0  0  0  0  0  0  0  0  0
    8.7027  -18.2959   25.9934 O   0  0  0  0  0  0  0  0  0  0  0  0
  2  4  1  0
  2  1  1  1
  3  2  1  0
  4  5  2  0
  6  4  1  0
  6  7  1  0
  7  8  1  6
  9 10  1  0
  9  8  1  0
 10 11  2  0
 12 15  1  0
 12  7  1  0
 13 12  2  0
 14 10  1  0
 16 17  1  1
 16 15  1  0
 18 17  1  0
 19 18  2  0
 20 19  1  0
 21 26  2  0
 21 20  1  0
 22 21  1  0
 23 22  2  0
 23 24  1  0
 24 25  2  0
 25 26  1  0
 26 18  1  0
 27 16  1  0
 27 29  1  0
 28 27  2  0
M  END
$$$$
