AEW.pdb
     RDKit          3D

 29 30  0  0  1  0  0  0  0  0999 V2000
    8.0629  -12.6897   20.1721 C   0  0  0  0  0  0  0  0  0  0  0  0
    8.2161  -13.9518   19.3497 C   0  0  2  0  0  0  0  0  0  0  0  0
    6.9631  -14.1809   18.6602 N   0  0  0  0  0  0  0  0  0  0  0  0
    8.5966  -15.1247   20.1811 C   0  0  0  0  0  0  0  0  0  0  0  0
    7.6751  -15.7790   20.7246 O   0  0  0  0  0  0  0  0  0  0  0  0
    9.9249  -15.5222   20.3789 N   0  0  0  0  0  0  0  0  0  0  0  0
   10.2633  -16.6950   21.2263 C   0  0  1  0  0  0  0  0  0  0  0  0
   11.4219  -17.3663   20.5500 C   0  0  0  0  0  0  0  0  0  0  0  0
   11.0662  -18.1294   19.3082 C   0  0  0  0  0  0  0  0  0  0  0  0
   12.3161  -18.7286   18.7433 C   0  0  0  0  0  0  0  0  0  0  0  0
   12.8369  -19.7502   19.2456 O   0  0  0  0  0  0  0  0  0  0  0  0
   10.5179  -16.2475   22.6078 C   0  0  0  0  0  0  0  0  0  0  0  0
   11.2388  -15.2140   22.7672 O   0  0  0  0  0  0  0  0  0  0  0  0
   12.9352  -18.1617   17.6380 O   0  0  0  0  0  0  0  0  0  0  0  0
   10.0399  -16.8460   23.7867 N   0  0  0  0  0  0  0  0  0  0  0  0
   10.1713  -16.2199   25.1186 C   0  0  1  0  0  0  0  0  0  0  0  0
    9.7629  -14.7932   25.0284 C   0  0  0  0  0  0  0  0  0  0  0  0
    8.3814  -14.4982   25.4588 C   0  0  0  0  0  0  0  0  0  0  0  0
    7.3406  -15.4407   25.4260 C   0  0  0  0  0  0  0  0  0  0  0  0
    6.2111  -14.8953   25.9062 N   0  0  0  0  0  0  0  0  0  0  0  0
    6.4439  -13.6155   26.2643 C   0  0  0  0  0  0  0  0  0  0  0  0
    5.6110  -12.6524   26.7951 C   0  0  0  0  0  0  0  0  0  0  0  0
    6.1410  -11.4067   27.0541 C   0  0  0  0  0  0  0  0  0  0  0  0
    7.4827  -11.1612   26.7756 C   0  0  0  0  0  0  0  0  0  0  0  0
    8.3062  -12.1293   26.2457 C   0  0  0  0  0  0  0  0  0  0  0  0
    7.7832  -13.3820   25.9838 C   0  0  0  0  0  0  0  0  0  0  0  0
    9.5728  -17.0330   26.1623 C   0  0  0  0  0  0  0  0  0  0  0  0
    8.7709  -17.9977   25.9018 O   0  0  0  0  0  0  0  0  0  0  0  0
    9.8155  -16.8424   27.5132 O   0  0  0  0  0  0  0  0  0  0  0  0
  2  4  1  0
  2  1  1  1
  3  2  1  0
  4  5  2  0
  6  4  1  0
  6  7  1  0
  7  8  1  6
  9 10  1  0
  9  8  1  0
 10 11  2  0
 12 15  1  0
 12  7  1  0
 13 12  2  0
 14 10  1  0
 16 17  1  6
 16 15  1  0
 18 17  1  0
 19 18  2  0
 20 19  1  0
 21 26  2  0
 21 20  1  0
 22 21  1  0
 23 22  2  0
 23 24  1  0
 24 25  2  0
 25 26  1  0
 26 18  1  0
 27 16  1  0
 27 29  1  0
 28 27  2  0
M  END
$$$$
