AEW.pdb
     RDKit          3D

 29 30  0  0  1  0  0  0  0  0999 V2000
    8.0229  -12.6879   20.7979 C   0  0  0  0  0  0  0  0  0  0  0  0
    7.9977  -13.9685   19.9904 C   0  0  2  0  0  0  0  0  0  0  0  0
    6.6499  -14.1452   19.4901 N   0  0  0  0  0  0  0  0  0  0  0  0
    8.4366  -15.1462   20.7855 C   0  0  0  0  0  0  0  0  0  0  0  0
    7.5930  -15.6913   21.5364 O   0  0  0  0  0  0  0  0  0  0  0  0
    9.7369  -15.6636   20.7301 N   0  0  0  0  0  0  0  0  0  0  0  0
   10.1645  -16.7774   21.6159 C   0  0  1  0  0  0  0  0  0  0  0  0
   11.3783  -17.3727   20.9658 C   0  0  0  0  0  0  0  0  0  0  0  0
   11.9684  -18.5440   21.6945 C   0  0  0  0  0  0  0  0  0  0  0  0
   13.1268  -19.0634   20.9014 C   0  0  0  0  0  0  0  0  0  0  0  0
   13.0473  -20.1280   20.2476 O   0  0  0  0  0  0  0  0  0  0  0  0
   10.3730  -16.2671   22.9833 C   0  0  0  0  0  0  0  0  0  0  0  0
   11.1999  -15.3151   23.1354 O   0  0  0  0  0  0  0  0  0  0  0  0
   14.3297  -18.3716   20.8706 O   0  0  0  0  0  0  0  0  0  0  0  0
    9.7445  -16.7229   24.1554 N   0  0  0  0  0  0  0  0  0  0  0  0
   10.2567  -16.4302   25.5101 C   0  0  1  0  0  0  0  0  0  0  0  0
    9.9205  -15.0262   25.8649 C   0  0  0  0  0  0  0  0  0  0  0  0
    8.4838  -14.6867   25.8271 C   0  0  0  0  0  0  0  0  0  0  0  0
    7.4662  -15.6382   25.6496 C   0  0  0  0  0  0  0  0  0  0  0  0
    6.2646  -15.0395   25.6907 N   0  0  0  0  0  0  0  0  0  0  0  0
    6.4262  -13.7148   25.8889 C   0  0  0  0  0  0  0  0  0  0  0  0
    5.5077  -12.6911   25.9955 C   0  0  0  0  0  0  0  0  0  0  0  0
    5.9813  -11.4115   26.1908 C   0  0  0  0  0  0  0  0  0  0  0  0
    7.3537  -11.1937   26.2734 C   0  0  0  0  0  0  0  0  0  0  0  0
    8.2629  -12.2223   26.1658 C   0  0  0  0  0  0  0  0  0  0  0  0
    7.7966  -13.5092   25.9708 C   0  0  0  0  0  0  0  0  0  0  0  0
    9.9084  -17.4727   26.4592 C   0  0  0  0  0  0  0  0  0  0  0  0
    9.1967  -18.4861   26.1307 O   0  0  0  0  0  0  0  0  0  0  0  0
   10.3126  -17.4654   27.7847 O   0  0  0  0  0  0  0  0  0  0  0  0
  2  4  1  0
  2  1  1  1
  3  2  1  0
  4  5  2  0
  6  4  1  0
  6  7  1  0
  7  8  1  6
  9 10  1  0
  9  8  1  0
 10 11  2  0
 12 15  1  0
 12  7  1  0
 13 12  2  0
 14 10  1  0
 16 17  1  1
 16 15  1  0
 18 17  1  0
 19 18  2  0
 20 19  1  0
 21 26  2  0
 21 20  1  0
 22 21  1  0
 23 22  2  0
 23 24  1  0
 24 25  2  0
 25 26  1  0
 26 18  1  0
 27 16  1  0
 27 29  1  0
 28 27  2  0
M  END
$$$$
