AEW.pdb
     RDKit          3D

 29 30  0  0  1  0  0  0  0  0999 V2000
    7.9892  -12.4745   20.4392 C   0  0  0  0  0  0  0  0  0  0  0  0
    7.9897  -13.7434   19.6130 C   0  0  2  0  0  0  0  0  0  0  0  0
    6.6889  -13.8596   18.9867 N   0  0  0  0  0  0  0  0  0  0  0  0
    8.3059  -14.9472   20.4272 C   0  0  0  0  0  0  0  0  0  0  0  0
    7.3606  -15.5099   21.0292 O   0  0  0  0  0  0  0  0  0  0  0  0
    9.5996  -15.4701   20.5470 N   0  0  0  0  0  0  0  0  0  0  0  0
    9.8740  -16.6730   21.3752 C   0  0  1  0  0  0  0  0  0  0  0  0
   10.9373  -17.4378   20.6440 C   0  0  0  0  0  0  0  0  0  0  0  0
   11.5048  -18.6019   21.4015 C   0  0  0  0  0  0  0  0  0  0  0  0
   12.5901  -19.2222   20.5781 C   0  0  0  0  0  0  0  0  0  0  0  0
   13.7259  -18.7025   20.4942 O   0  0  0  0  0  0  0  0  0  0  0  0
   10.2303  -16.2577   22.7442 C   0  0  0  0  0  0  0  0  0  0  0  0
   11.1458  -15.3871   22.8745 O   0  0  0  0  0  0  0  0  0  0  0  0
   12.3627  -20.4001   19.8802 O   0  0  0  0  0  0  0  0  0  0  0  0
    9.6566  -16.7239   23.9400 N   0  0  0  0  0  0  0  0  0  0  0  0
   10.1643  -16.3504   25.2764 C   0  0  1  0  0  0  0  0  0  0  0  0
    9.8300  -14.9267   25.5438 C   0  0  0  0  0  0  0  0  0  0  0  0
    8.3885  -14.6124   25.6068 C   0  0  0  0  0  0  0  0  0  0  0  0
    7.3775  -15.5521   25.3469 C   0  0  0  0  0  0  0  0  0  0  0  0
    6.1705  -14.9866   25.5126 N   0  0  0  0  0  0  0  0  0  0  0  0
    6.3220  -13.6959   25.8750 C   0  0  0  0  0  0  0  0  0  0  0  0
    5.3948  -12.7122   26.1498 C   0  0  0  0  0  0  0  0  0  0  0  0
    5.8584  -11.4600   26.4914 C   0  0  0  0  0  0  0  0  0  0  0  0
    7.2300  -11.2286   26.5478 C   0  0  0  0  0  0  0  0  0  0  0  0
    8.1479  -12.2172   26.2717 C   0  0  0  0  0  0  0  0  0  0  0  0
    7.6917  -13.4767   25.9293 C   0  0  0  0  0  0  0  0  0  0  0  0
    9.8102  -17.3324   26.2858 C   0  0  0  0  0  0  0  0  0  0  0  0
    9.0562  -18.3357   26.0284 O   0  0  0  0  0  0  0  0  0  0  0  0
   10.2534  -17.2739   27.5975 O   0  0  0  0  0  0  0  0  0  0  0  0
  2  4  1  0
  2  1  1  1
  3  2  1  0
  4  5  2  0
  6  4  1  0
  6  7  1  0
  7  8  1  6
  9 10  1  0
  9  8  1  0
 10 11  2  0
 12 15  1  0
 12  7  1  0
 13 12  2  0
 14 10  1  0
 16 17  1  1
 16 15  1  0
 18 17  1  0
 19 18  2  0
 20 19  1  0
 21 26  2  0
 21 20  1  0
 22 21  1  0
 23 22  2  0
 23 24  1  0
 24 25  2  0
 25 26  1  0
 26 18  1  0
 27 16  1  0
 27 29  1  0
 28 27  2  0
M  END
$$$$
