AEW.pdb
     RDKit          3D

 29 30  0  0  1  0  0  0  0  0999 V2000
    7.3387  -20.6454   24.6218 C   0  0  0  0  0  0  0  0  0  0  0  0
    7.4322  -20.1920   23.1802 C   0  0  2  0  0  0  0  0  0  0  0  0
    7.4947  -21.3778   22.3506 N   0  0  0  0  0  0  0  0  0  0  0  0
    8.6017  -19.3048   22.9420 C   0  0  0  0  0  0  0  0  0  0  0  0
    9.7465  -19.8031   23.0593 O   0  0  0  0  0  0  0  0  0  0  0  0
    8.4773  -17.9531   22.5968 N   0  0  0  0  0  0  0  0  0  0  0  0
    9.6709  -17.0823   22.4386 C   0  0  1  0  0  0  0  0  0  0  0  0
    9.2324  -15.9437   21.5658 C   0  0  0  0  0  0  0  0  0  0  0  0
   10.3196  -14.9734   21.2086 C   0  0  0  0  0  0  0  0  0  0  0  0
   11.1731  -15.5862   20.1424 C   0  0  0  0  0  0  0  0  0  0  0  0
   10.6955  -15.9239   19.0356 O   0  0  0  0  0  0  0  0  0  0  0  0
   10.1770  -16.6939   23.7678 C   0  0  0  0  0  0  0  0  0  0  0  0
   11.2432  -16.0051   23.8122 O   0  0  0  0  0  0  0  0  0  0  0  0
   12.5281  -15.7976   20.3558 O   0  0  0  0  0  0  0  0  0  0  0  0
    9.5982  -17.0036   25.0109 N   0  0  0  0  0  0  0  0  0  0  0  0
   10.1746  -16.5665   26.2993 C   0  0  1  0  0  0  0  0  0  0  0  0
    9.0716  -16.2146   27.2319 C   0  0  0  0  0  0  0  0  0  0  0  0
    7.9474  -15.4663   26.6344 C   0  0  0  0  0  0  0  0  0  0  0  0
    6.7875  -16.0788   26.1323 C   0  0  0  0  0  0  0  0  0  0  0  0
    5.9320  -15.1455   25.6839 N   0  0  0  0  0  0  0  0  0  0  0  0
    6.4668  -13.9196   25.8613 C   0  0  0  0  0  0  0  0  0  0  0  0
    5.9843  -12.6630   25.5593 C   0  0  0  0  0  0  0  0  0  0  0  0
    6.7769  -11.5748   25.8549 C   0  0  0  0  0  0  0  0  0  0  0  0
    8.0237  -11.7738   26.4411 C   0  0  0  0  0  0  0  0  0  0  0  0
    8.4967  -13.0323   26.7388 C   0  0  0  0  0  0  0  0  0  0  0  0
    7.7079  -14.1296   26.4468 C   0  0  0  0  0  0  0  0  0  0  0  0
   11.1995  -17.4796   26.7732 C   0  0  0  0  0  0  0  0  0  0  0  0
   11.8483  -17.2749   27.8588 O   0  0  0  0  0  0  0  0  0  0  0  0
   11.5588  -18.6389   26.1042 O   0  0  0  0  0  0  0  0  0  0  0  0
  2  4  1  0
  2  1  1  1
  3  2  1  0
  4  5  2  0
  6  4  1  0
  6  7  1  0
  7  8  1  6
  9 10  1  0
  9  8  1  0
 10 11  2  0
 12 15  1  0
 12  7  1  0
 13 12  2  0
 14 10  1  0
 16 17  1  1
 16 15  1  0
 18 17  1  0
 19 18  2  0
 20 19  1  0
 21 26  2  0
 21 20  1  0
 22 21  1  0
 23 22  2  0
 23 24  1  0
 24 25  2  0
 25 26  1  0
 26 18  1  0
 27 16  1  0
 27 29  1  0
 28 27  2  0
M  END
$$$$
