AEW.pdb
     RDKit          3D

 29 30  0  0  1  0  0  0  0  0999 V2000
    7.9379  -12.4503   20.6887 C   0  0  0  0  0  0  0  0  0  0  0  0
    8.1394  -13.7500   19.9385 C   0  0  2  0  0  0  0  0  0  0  0  0
    6.9286  -14.0165   19.1896 N   0  0  0  0  0  0  0  0  0  0  0  0
    8.4720  -14.8801   20.8462 C   0  0  0  0  0  0  0  0  0  0  0  0
    7.5253  -15.5783   21.2808 O   0  0  0  0  0  0  0  0  0  0  0  0
    9.7825  -15.1914   21.2300 N   0  0  0  0  0  0  0  0  0  0  0  0
   10.0927  -16.4320   21.9868 C   0  0  1  0  0  0  0  0  0  0  0  0
   11.3561  -16.9720   21.3846 C   0  0  0  0  0  0  0  0  0  0  0  0
   11.8551  -18.2416   22.0092 C   0  0  0  0  0  0  0  0  0  0  0  0
   13.1413  -18.6248   21.3463 C   0  0  0  0  0  0  0  0  0  0  0  0
   14.1760  -17.9322   21.4763 O   0  0  0  0  0  0  0  0  0  0  0  0
   10.1665  -16.1251   23.4270 C   0  0  0  0  0  0  0  0  0  0  0  0
   10.7479  -15.0491   23.7694 O   0  0  0  0  0  0  0  0  0  0  0  0
   13.2202  -19.7682   20.5636 O   0  0  0  0  0  0  0  0  0  0  0  0
    9.6527  -16.9029   24.4794 N   0  0  0  0  0  0  0  0  0  0  0  0
    9.8230  -16.5454   25.9029 C   0  0  1  0  0  0  0  0  0  0  0  0
    8.4883  -16.4976   26.5560 C   0  0  0  0  0  0  0  0  0  0  0  0
    7.5607  -15.4738   26.0341 C   0  0  0  0  0  0  0  0  0  0  0  0
    6.4259  -15.7757   25.2636 C   0  0  0  0  0  0  0  0  0  0  0  0
    5.7614  -14.6479   24.9624 N   0  0  0  0  0  0  0  0  0  0  0  0
    6.4022  -13.5887   25.4987 C   0  0  0  0  0  0  0  0  0  0  0  0
    6.1195  -12.2391   25.4621 C   0  0  0  0  0  0  0  0  0  0  0  0
    6.9798  -11.3776   26.1082 C   0  0  0  0  0  0  0  0  0  0  0  0
    8.0932  -11.8887   26.7694 C   0  0  0  0  0  0  0  0  0  0  0  0
    8.3669  -13.2378   26.8004 C   0  0  0  0  0  0  0  0  0  0  0  0
    7.5088  -14.1093   26.1557 C   0  0  0  0  0  0  0  0  0  0  0  0
   10.8631  -17.3334   26.5400 C   0  0  0  0  0  0  0  0  0  0  0  0
   11.1724  -17.1865   27.7745 O   0  0  0  0  0  0  0  0  0  0  0  0
   11.6003  -18.3030   25.8790 O   0  0  0  0  0  0  0  0  0  0  0  0
  2  4  1  0
  2  1  1  1
  3  2  1  0
  4  5  2  0
  6  4  1  0
  6  7  1  0
  7  8  1  6
  9 10  1  0
  9  8  1  0
 10 11  2  0
 12 15  1  0
 12  7  1  0
 13 12  2  0
 14 10  1  0
 16 17  1  1
 16 15  1  0
 18 17  1  0
 19 18  2  0
 20 19  1  0
 21 26  2  0
 21 20  1  0
 22 21  1  0
 23 22  2  0
 23 24  1  0
 24 25  2  0
 25 26  1  0
 26 18  1  0
 27 16  1  0
 27 29  1  0
 28 27  2  0
M  END
$$$$
