AEW.pdb
     RDKit          3D

 29 30  0  0  1  0  0  0  0  0999 V2000
    7.6034  -12.8846   21.2053 C   0  0  0  0  0  0  0  0  0  0  0  0
    7.7474  -14.2250   20.5159 C   0  0  2  0  0  0  0  0  0  0  0  0
    6.4561  -14.5734   19.9600 N   0  0  0  0  0  0  0  0  0  0  0  0
    8.2416  -15.2833   21.4366 C   0  0  0  0  0  0  0  0  0  0  0  0
    7.3894  -15.9970   22.0171 O   0  0  0  0  0  0  0  0  0  0  0  0
    9.6021  -15.5113   21.6782 N   0  0  0  0  0  0  0  0  0  0  0  0
   10.0597  -16.6629   22.4984 C   0  0  1  0  0  0  0  0  0  0  0  0
   11.2981  -17.1765   21.8256 C   0  0  0  0  0  0  0  0  0  0  0  0
   11.8440  -18.4485   22.4045 C   0  0  0  0  0  0  0  0  0  0  0  0
   13.0820  -18.8218   21.6505 C   0  0  0  0  0  0  0  0  0  0  0  0
   14.1908  -18.3049   21.9162 O   0  0  0  0  0  0  0  0  0  0  0  0
   10.2396  -16.2312   23.8966 C   0  0  0  0  0  0  0  0  0  0  0  0
   11.0152  -15.2490   24.1131 O   0  0  0  0  0  0  0  0  0  0  0  0
   13.0317  -19.7593   20.6283 O   0  0  0  0  0  0  0  0  0  0  0  0
    9.6346  -16.7935   25.0343 N   0  0  0  0  0  0  0  0  0  0  0  0
   10.1223  -16.5527   26.4081 C   0  0  1  0  0  0  0  0  0  0  0  0
    8.9913  -16.0830   27.2510 C   0  0  0  0  0  0  0  0  0  0  0  0
    7.8991  -15.4010   26.5279 C   0  0  0  0  0  0  0  0  0  0  0  0
    6.9022  -16.0801   25.8085 C   0  0  0  0  0  0  0  0  0  0  0  0
    6.0314  -15.2004   25.2870 N   0  0  0  0  0  0  0  0  0  0  0  0
    6.3989  -13.9468   25.6241 C   0  0  0  0  0  0  0  0  0  0  0  0
    5.8374  -12.7223   25.3271 C   0  0  0  0  0  0  0  0  0  0  0  0
    6.4545  -11.5899   25.8134 C   0  0  0  0  0  0  0  0  0  0  0  0
    7.6104  -11.7143   26.5793 C   0  0  0  0  0  0  0  0  0  0  0  0
    8.1633  -12.9413   26.8705 C   0  0  0  0  0  0  0  0  0  0  0  0
    7.5502  -14.0826   26.3876 C   0  0  0  0  0  0  0  0  0  0  0  0
   10.9235  -17.6587   26.9015 C   0  0  0  0  0  0  0  0  0  0  0  0
   11.0417  -18.7587   26.2554 O   0  0  0  0  0  0  0  0  0  0  0  0
   11.6243  -17.6213   28.0965 O   0  0  0  0  0  0  0  0  0  0  0  0
  2  4  1  0
  2  1  1  1
  3  2  1  0
  4  5  2  0
  6  4  1  0
  6  7  1  0
  7  8  1  6
  9 10  1  0
  9  8  1  0
 10 11  2  0
 12 15  1  0
 12  7  1  0
 13 12  2  0
 14 10  1  0
 16 17  1  1
 16 15  1  0
 18 17  1  0
 19 18  2  0
 20 19  1  0
 21 26  2  0
 21 20  1  0
 22 21  1  0
 23 22  2  0
 23 24  1  0
 24 25  2  0
 25 26  1  0
 26 18  1  0
 27 16  1  0
 27 29  1  0
 28 27  2  0
M  END
$$$$
