AEW.pdb
     RDKit          3D

 29 30  0  0  1  0  0  0  0  0999 V2000
    7.7062  -12.7743   20.6896 C   0  0  0  0  0  0  0  0  0  0  0  0
    7.8556  -14.0449   19.8796 C   0  0  2  0  0  0  0  0  0  0  0  0
    6.5698  -14.3365   19.2799 N   0  0  0  0  0  0  0  0  0  0  0  0
    8.3381  -15.1858   20.7027 C   0  0  0  0  0  0  0  0  0  0  0  0
    7.4811  -15.8748   21.3055 O   0  0  0  0  0  0  0  0  0  0  0  0
    9.6931  -15.5166   20.8299 N   0  0  0  0  0  0  0  0  0  0  0  0
   10.1336  -16.6663   21.6618 C   0  0  1  0  0  0  0  0  0  0  0  0
   11.3851  -17.1821   21.0151 C   0  0  0  0  0  0  0  0  0  0  0  0
   12.0153  -18.3509   21.7134 C   0  0  0  0  0  0  0  0  0  0  0  0
   13.2710  -18.7191   20.9866 C   0  0  0  0  0  0  0  0  0  0  0  0
   14.3971  -18.5854   21.5168 O   0  0  0  0  0  0  0  0  0  0  0  0
   10.2858  -16.2314   23.0623 C   0  0  0  0  0  0  0  0  0  0  0  0
   10.8700  -15.1235   23.2732 O   0  0  0  0  0  0  0  0  0  0  0  0
   13.2182  -19.2229   19.6944 O   0  0  0  0  0  0  0  0  0  0  0  0
    9.8452  -16.9169   24.2079 N   0  0  0  0  0  0  0  0  0  0  0  0
   10.2011  -16.5032   25.5810 C   0  0  1  0  0  0  0  0  0  0  0  0
    9.9341  -15.0489   25.7361 C   0  0  0  0  0  0  0  0  0  0  0  0
    8.5089  -14.6635   25.7691 C   0  0  0  0  0  0  0  0  0  0  0  0
    7.4557  -15.5665   25.5502 C   0  0  0  0  0  0  0  0  0  0  0  0
    6.2762  -14.9362   25.6747 N   0  0  0  0  0  0  0  0  0  0  0  0
    6.4871  -13.6366   25.9696 C   0  0  0  0  0  0  0  0  0  0  0  0
    5.6064  -12.5967   26.1834 C   0  0  0  0  0  0  0  0  0  0  0  0
    6.1273  -11.3515   26.4623 C   0  0  0  0  0  0  0  0  0  0  0  0
    7.5080  -11.1831   26.5189 C   0  0  0  0  0  0  0  0  0  0  0  0
    8.3792  -12.2275   26.3040 C   0  0  0  0  0  0  0  0  0  0  0  0
    7.8654  -13.4803   26.0246 C   0  0  0  0  0  0  0  0  0  0  0  0
    9.6531  -17.4046   26.5789 C   0  0  0  0  0  0  0  0  0  0  0  0
    8.9907  -18.4543   26.2615 O   0  0  0  0  0  0  0  0  0  0  0  0
    9.7992  -17.2137   27.9437 O   0  0  0  0  0  0  0  0  0  0  0  0
  2  4  1  0
  2  1  1  1
  3  2  1  0
  4  5  2  0
  6  4  1  0
  6  7  1  0
  7  8  1  6
  9 10  1  0
  9  8  1  0
 10 11  2  0
 12 15  1  0
 12  7  1  0
 13 12  2  0
 14 10  1  0
 16 17  1  1
 16 15  1  0
 18 17  1  0
 19 18  2  0
 20 19  1  0
 21 26  2  0
 21 20  1  0
 22 21  1  0
 23 22  2  0
 23 24  1  0
 24 25  2  0
 25 26  1  0
 26 18  1  0
 27 16  1  0
 27 29  1  0
 28 27  2  0
M  END
$$$$
