AEW.pdb
     RDKit          3D

 29 30  0  0  1  0  0  0  0  0999 V2000
    7.8291  -12.8389   21.0857 C   0  0  0  0  0  0  0  0  0  0  0  0
    7.8358  -14.1960   20.4141 C   0  0  2  0  0  0  0  0  0  0  0  0
    6.4851  -14.4723   19.9699 N   0  0  0  0  0  0  0  0  0  0  0  0
    8.3380  -15.2687   21.3135 C   0  0  0  0  0  0  0  0  0  0  0  0
    7.5018  -15.8701   22.0289 O   0  0  0  0  0  0  0  0  0  0  0  0
    9.6891  -15.6289   21.3926 N   0  0  0  0  0  0  0  0  0  0  0  0
   10.1427  -16.7427   22.2653 C   0  0  1  0  0  0  0  0  0  0  0  0
   11.4478  -17.2067   21.6893 C   0  0  0  0  0  0  0  0  0  0  0  0
   11.3353  -17.9092   20.3684 C   0  0  0  0  0  0  0  0  0  0  0  0
   12.7073  -18.3102   19.9241 C   0  0  0  0  0  0  0  0  0  0  0  0
   13.3572  -19.1952   20.5255 O   0  0  0  0  0  0  0  0  0  0  0  0
   10.2045  -16.2793   23.6636 C   0  0  0  0  0  0  0  0  0  0  0  0
   10.7795  -15.1697   23.8899 O   0  0  0  0  0  0  0  0  0  0  0  0
   13.2994  -17.7055   18.8241 O   0  0  0  0  0  0  0  0  0  0  0  0
    9.6854  -16.9391   24.7913 N   0  0  0  0  0  0  0  0  0  0  0  0
    9.9035  -16.4645   26.1735 C   0  0  1  0  0  0  0  0  0  0  0  0
    8.5988  -16.4208   26.8849 C   0  0  0  0  0  0  0  0  0  0  0  0
    7.5939  -15.5008   26.3153 C   0  0  0  0  0  0  0  0  0  0  0  0
    6.4660  -15.9316   25.5978 C   0  0  0  0  0  0  0  0  0  0  0  0
    5.7211  -14.8747   25.2340 N   0  0  0  0  0  0  0  0  0  0  0  0
    6.3005  -13.7396   25.6767 C   0  0  0  0  0  0  0  0  0  0  0  0
    5.9272  -12.4176   25.5511 C   0  0  0  0  0  0  0  0  0  0  0  0
    6.7410  -11.4569   26.1118 C   0  0  0  0  0  0  0  0  0  0  0  0
    7.8998  -11.8444   26.7788 C   0  0  0  0  0  0  0  0  0  0  0  0
    8.2641  -13.1669   26.8990 C   0  0  0  0  0  0  0  0  0  0  0  0
    7.4530  -14.1373   26.3405 C   0  0  0  0  0  0  0  0  0  0  0  0
   11.0055  -17.1568   26.8177 C   0  0  0  0  0  0  0  0  0  0  0  0
   11.3788  -16.8842   28.0126 O   0  0  0  0  0  0  0  0  0  0  0  0
   11.7383  -18.1619   26.2068 O   0  0  0  0  0  0  0  0  0  0  0  0
  2  4  1  0
  2  1  1  1
  3  2  1  0
  4  5  2  0
  6  4  1  0
  6  7  1  0
  7  8  1  6
  9 10  1  0
  9  8  1  0
 10 11  2  0
 12 15  1  0
 12  7  1  0
 13 12  2  0
 14 10  1  0
 16 17  1  1
 16 15  1  0
 18 17  1  0
 19 18  2  0
 20 19  1  0
 21 26  2  0
 21 20  1  0
 22 21  1  0
 23 22  2  0
 23 24  1  0
 24 25  2  0
 25 26  1  0
 26 18  1  0
 27 16  1  0
 27 29  1  0
 28 27  2  0
M  END
$$$$
