ADQ.pdb
     RDKit          3D

 23 22  0  0  1  0  0  0  0  0999 V2000
   26.3272  -11.5807  -15.1705 C   0  0  0  0  0  0  0  0  0  0  0  0
   25.4041  -12.4707  -15.9736 C   0  0  2  0  0  0  0  0  0  0  0  0
   26.1413  -13.0008  -17.0852 N   0  0  0  0  0  0  0  0  0  0  0  0
   24.1912  -11.7238  -16.4150 C   0  0  0  0  0  0  0  0  0  0  0  0
   24.3060  -10.9247  -17.3726 O   0  0  0  0  0  0  0  0  0  0  0  0
   22.9637  -11.9345  -15.7514 N   0  0  0  0  0  0  0  0  0  0  0  0
   21.7494  -11.2623  -16.1688 C   0  0  1  0  0  0  0  0  0  0  0  0
   20.5529  -12.1666  -16.0696 C   0  0  0  0  0  0  0  0  0  0  0  0
   20.4800  -13.0242  -17.2673 C   0  0  0  0  0  0  0  0  0  0  0  0
   21.1988  -12.8627  -18.3004 O   0  0  0  0  0  0  0  0  0  0  0  0
   21.4995  -10.0435  -15.3543 C   0  0  0  0  0  0  0  0  0  0  0  0
   21.6144  -10.1586  -14.1110 O   0  0  0  0  0  0  0  0  0  0  0  0
   19.5675  -14.0924  -17.2906 O   0  0  0  0  0  0  0  0  0  0  0  0
   23.8270   -4.4800  -15.8659 N   0  0  0  0  0  0  0  0  0  0  0  0
   22.7835   -4.2798  -14.8988 C   0  0  0  0  0  0  0  0  0  0  0  0
   22.7176   -3.1318  -14.3557 O   0  0  0  0  0  0  0  0  0  0  0  0
   21.8323   -5.3440  -14.5564 C   0  0  0  0  0  0  0  0  0  0  0  0
   21.9722   -6.6044  -15.3246 C   0  0  0  0  0  0  0  0  0  0  0  0
   20.9604   -7.6319  -14.9922 C   0  0  2  0  0  0  0  0  0  0  0  0
   21.1511   -8.8037  -15.8925 N   0  0  0  0  0  0  0  0  0  0  0  0
   19.5555   -7.3217  -15.0121 C   0  0  0  0  0  0  0  0  0  0  0  0
   18.8201   -7.5318  -16.0063 O   0  0  0  0  0  0  0  0  0  0  0  0
   18.8998   -6.7558  -13.9080 O   0  0  0  0  0  0  0  0  0  0  0  0
  2  4  1  0
  2  3  1  0
  2  1  1  6
  4  5  2  0
  6  7  1  0
  6  4  1  0
  7 11  1  0
  7  8  1  1
  9  8  1  0
 10  9  2  0
 11 20  1  0
 11 12  2  0
 13  9  1  0
 14 15  1  0
 15 17  1  0
 16 15  2  0
 17 18  1  0
 19 18  1  6
 20 19  1  0
 21 19  1  0
 21 23  1  0
 22 21  2  0
M  END
$$$$
