ADQ.pdb
     RDKit          3D

 23 22  0  0  1  0  0  0  0  0999 V2000
   16.4491  -11.2493  -10.4035 C   0  0  0  0  0  0  0  0  0  0  0  0
   15.2514  -10.3863  -10.0719 C   0  0  2  0  0  0  0  0  0  0  0  0
   14.1082  -10.9160  -10.7593 N   0  0  0  0  0  0  0  0  0  0  0  0
   15.5043   -8.9605  -10.4281 C   0  0  0  0  0  0  0  0  0  0  0  0
   15.3632   -8.6169  -11.6243 O   0  0  0  0  0  0  0  0  0  0  0  0
   15.8902   -8.0492   -9.4221 N   0  0  0  0  0  0  0  0  0  0  0  0
   16.1684   -6.6589   -9.7227 C   0  0  1  0  0  0  0  0  0  0  0  0
   15.8635   -5.7667   -8.5522 C   0  0  0  0  0  0  0  0  0  0  0  0
   16.0348   -4.3560   -8.9471 C   0  0  0  0  0  0  0  0  0  0  0  0
   16.1787   -3.9675  -10.1464 O   0  0  0  0  0  0  0  0  0  0  0  0
   17.5890   -6.4654  -10.1172 C   0  0  0  0  0  0  0  0  0  0  0  0
   18.4594   -6.7482   -9.2600 O   0  0  0  0  0  0  0  0  0  0  0  0
   16.0419   -3.3624   -7.9537 O   0  0  0  0  0  0  0  0  0  0  0  0
   20.5236   -9.8431  -13.5292 N   0  0  0  0  0  0  0  0  0  0  0  0
   21.4625   -8.7566  -13.4830 C   0  0  0  0  0  0  0  0  0  0  0  0
   22.6212   -8.9795  -13.9572 O   0  0  0  0  0  0  0  0  0  0  0  0
   21.1035   -7.4480  -12.9232 C   0  0  0  0  0  0  0  0  0  0  0  0
   19.7367   -7.3423  -12.3583 C   0  0  0  0  0  0  0  0  0  0  0  0
   19.4360   -6.0312  -11.7413 C   0  0  2  0  0  0  0  0  0  0  0  0
   17.9942   -5.9950  -11.3673 N   0  0  0  0  0  0  0  0  0  0  0  0
   19.7112   -4.8036  -12.4396 C   0  0  0  0  0  0  0  0  0  0  0  0
   18.8284   -4.1382  -13.0323 O   0  0  0  0  0  0  0  0  0  0  0  0
   21.0015   -4.2562  -12.5080 O   0  0  0  0  0  0  0  0  0  0  0  0
  2  4  1  0
  2  3  1  0
  2  1  1  6
  4  5  2  0
  6  7  1  0
  6  4  1  0
  7 11  1  0
  7  8  1  1
  9  8  1  0
 10  9  2  0
 11 20  1  0
 11 12  2  0
 13  9  1  0
 14 15  1  0
 15 17  1  0
 16 15  2  0
 17 18  1  0
 19 18  1  6
 20 19  1  0
 21 19  1  0
 21 23  1  0
 22 21  2  0
M  END
$$$$
