ADQ.pdb
     RDKit          3D

 23 22  0  0  1  0  0  0  0  0999 V2000
   20.3409  -11.2042  -15.7761 C   0  0  0  0  0  0  0  0  0  0  0  0
   19.2118  -10.2214  -15.5559 C   0  0  2  0  0  0  0  0  0  0  0  0
   19.0489   -9.4445  -16.7518 N   0  0  0  0  0  0  0  0  0  0  0  0
   19.4747   -9.3626  -14.3654 C   0  0  0  0  0  0  0  0  0  0  0  0
   19.5627   -9.9169  -13.2457 O   0  0  0  0  0  0  0  0  0  0  0  0
   19.6154   -7.9682  -14.5299 N   0  0  0  0  0  0  0  0  0  0  0  0
   19.9696   -7.1044  -13.4213 C   0  0  1  0  0  0  0  0  0  0  0  0
   21.0708   -6.1507  -13.7913 C   0  0  0  0  0  0  0  0  0  0  0  0
   21.5250   -5.4283  -12.5882 C   0  0  0  0  0  0  0  0  0  0  0  0
   21.2647   -5.7931  -11.4012 O   0  0  0  0  0  0  0  0  0  0  0  0
   18.7958   -6.3232  -12.9488 C   0  0  0  0  0  0  0  0  0  0  0  0
   18.0482   -5.8343  -13.8288 O   0  0  0  0  0  0  0  0  0  0  0  0
   22.2950   -4.2627  -12.7389 O   0  0  0  0  0  0  0  0  0  0  0  0
   15.4461   -7.6208   -7.8133 N   0  0  0  0  0  0  0  0  0  0  0  0
   14.8753   -6.3919   -8.2909 C   0  0  0  0  0  0  0  0  0  0  0  0
   13.8700   -5.9416   -7.6556 O   0  0  0  0  0  0  0  0  0  0  0  0
   15.4274   -5.6828   -9.4516 C   0  0  0  0  0  0  0  0  0  0  0  0
   16.6592   -6.2655  -10.0360 C   0  0  0  0  0  0  0  0  0  0  0  0
   17.1659   -5.5438  -11.2245 C   0  0  2  0  0  0  0  0  0  0  0  0
   18.4904   -6.1113  -11.6034 N   0  0  0  0  0  0  0  0  0  0  0  0
   17.3192   -4.1131  -11.2125 C   0  0  0  0  0  0  0  0  0  0  0  0
   16.3572   -3.3207  -11.0707 O   0  0  0  0  0  0  0  0  0  0  0  0
   18.5702   -3.4947  -11.3599 O   0  0  0  0  0  0  0  0  0  0  0  0
  2  4  1  0
  2  3  1  0
  2  1  1  6
  4  5  2  0
  6  7  1  0
  6  4  1  0
  7 11  1  0
  7  8  1  6
  9  8  1  0
 10  9  2  0
 11 20  1  0
 11 12  2  0
 13  9  1  0
 14 15  1  0
 15 17  1  0
 16 15  2  0
 17 18  1  0
 19 18  1  1
 20 19  1  0
 21 19  1  0
 21 23  1  0
 22 21  2  0
M  END
$$$$
