ADQ.pdb
     RDKit          3D

 23 22  0  0  1  0  0  0  0  0999 V2000
   19.6078  -15.2388  -18.5249 C   0  0  0  0  0  0  0  0  0  0  0  0
   19.5903  -14.0251  -17.6216 C   0  0  2  0  0  0  0  0  0  0  0  0
   18.2230  -13.6686  -17.3696 N   0  0  0  0  0  0  0  0  0  0  0  0
   20.3576  -12.8979  -18.2253 C   0  0  0  0  0  0  0  0  0  0  0  0
   21.6086  -12.9518  -18.1940 O   0  0  0  0  0  0  0  0  0  0  0  0
   19.6636  -11.8159  -18.8076 N   0  0  0  0  0  0  0  0  0  0  0  0
   20.3618  -10.6571  -19.3275 C   0  0  1  0  0  0  0  0  0  0  0  0
   19.8014  -10.2199  -20.6518 C   0  0  0  0  0  0  0  0  0  0  0  0
   20.1998  -11.1791  -21.6989 C   0  0  0  0  0  0  0  0  0  0  0  0
   19.3798  -11.7932  -22.4476 O   0  0  0  0  0  0  0  0  0  0  0  0
   20.2955   -9.5153  -18.3770 C   0  0  0  0  0  0  0  0  0  0  0  0
   19.3614   -9.5269  -17.5406 O   0  0  0  0  0  0  0  0  0  0  0  0
   21.5644  -11.4461  -21.9002 O   0  0  0  0  0  0  0  0  0  0  0  0
   20.3704   -9.3282  -13.4643 N   0  0  0  0  0  0  0  0  0  0  0  0
   21.0113   -8.0428  -13.5002 C   0  0  0  0  0  0  0  0  0  0  0  0
   21.0943   -7.4126  -12.3987 O   0  0  0  0  0  0  0  0  0  0  0  0
   21.5523   -7.4831  -14.7446 C   0  0  0  0  0  0  0  0  0  0  0  0
   21.3463   -8.3033  -15.9626 C   0  0  0  0  0  0  0  0  0  0  0  0
   21.2350   -7.5166  -17.2110 C   0  0  2  0  0  0  0  0  0  0  0  0
   21.2017   -8.4538  -18.3688 N   0  0  0  0  0  0  0  0  0  0  0  0
   22.1993   -6.4983  -17.5332 C   0  0  0  0  0  0  0  0  0  0  0  0
   23.0320   -6.6114  -18.4644 O   0  0  0  0  0  0  0  0  0  0  0  0
   22.2780   -5.2918  -16.8208 O   0  0  0  0  0  0  0  0  0  0  0  0
  2  4  1  0
  2  3  1  0
  2  1  1  6
  4  5  2  0
  6  7  1  0
  6  4  1  0
  7 11  1  0
  7  8  1  6
  9  8  1  0
 10  9  2  0
 11 20  1  0
 11 12  2  0
 13  9  1  0
 14 15  1  0
 15 17  1  0
 16 15  2  0
 17 18  1  0
 19 18  1  1
 20 19  1  0
 21 19  1  0
 21 23  1  0
 22 21  2  0
M  END
$$$$
