ADQ.pdb
     RDKit          3D

 23 22  0  0  1  0  0  0  0  0999 V2000
   16.6104  -14.7804  -16.5618 C   0  0  0  0  0  0  0  0  0  0  0  0
   17.8986  -13.9872  -16.5890 C   0  0  2  0  0  0  0  0  0  0  0  0
   18.6684  -14.3352  -15.4287 N   0  0  0  0  0  0  0  0  0  0  0  0
   17.6239  -12.5230  -16.6566 C   0  0  0  0  0  0  0  0  0  0  0  0
   17.0795  -12.0717  -17.6904 O   0  0  0  0  0  0  0  0  0  0  0  0
   17.9795  -11.6968  -15.5693 N   0  0  0  0  0  0  0  0  0  0  0  0
   17.8958  -10.2523  -15.6537 C   0  0  1  0  0  0  0  0  0  0  0  0
   16.9084   -9.6954  -14.6669 C   0  0  0  0  0  0  0  0  0  0  0  0
   16.8441   -8.2284  -14.8050 C   0  0  0  0  0  0  0  0  0  0  0  0
   17.3080   -7.4142  -13.9494 O   0  0  0  0  0  0  0  0  0  0  0  0
   19.2207   -9.6198  -15.4170 C   0  0  0  0  0  0  0  0  0  0  0  0
   19.8873  -10.0464  -14.4444 O   0  0  0  0  0  0  0  0  0  0  0  0
   16.2381   -7.6734  -15.9447 O   0  0  0  0  0  0  0  0  0  0  0  0
   25.5500   -7.8193  -18.3825 N   0  0  0  0  0  0  0  0  0  0  0  0
   24.1570   -8.1674  -18.3324 C   0  0  0  0  0  0  0  0  0  0  0  0
   23.6622   -8.7031  -19.3742 O   0  0  0  0  0  0  0  0  0  0  0  0
   23.3421   -7.9252  -17.1358 C   0  0  0  0  0  0  0  0  0  0  0  0
   21.9232   -8.3458  -17.2270 C   0  0  0  0  0  0  0  0  0  0  0  0
   21.1482   -8.1364  -15.9839 C   0  0  2  0  0  0  0  0  0  0  0  0
   19.7488   -8.5969  -16.2062 N   0  0  0  0  0  0  0  0  0  0  0  0
   21.0618   -6.8354  -15.3753 C   0  0  0  0  0  0  0  0  0  0  0  0
   21.9195   -6.3943  -14.5732 O   0  0  0  0  0  0  0  0  0  0  0  0
   20.0000   -5.9565  -15.6387 O   0  0  0  0  0  0  0  0  0  0  0  0
  2  4  1  0
  2  3  1  0
  2  1  1  1
  4  5  2  0
  6  7  1  0
  6  4  1  0
  7 11  1  0
  7  8  1  1
  9  8  1  0
 10  9  2  0
 11 20  1  0
 11 12  2  0
 13  9  1  0
 14 15  1  0
 15 17  1  0
 16 15  2  0
 17 18  1  0
 19 18  1  6
 20 19  1  0
 21 19  1  0
 21 23  1  0
 22 21  2  0
M  END
$$$$
