ADQ.pdb
     RDKit          3D

 23 22  0  0  1  0  0  0  0  0999 V2000
   18.4658   -9.4621  -20.6717 C   0  0  0  0  0  0  0  0  0  0  0  0
   19.1686  -10.2604  -19.5957 C   0  0  2  0  0  0  0  0  0  0  0  0
   18.4868  -11.5144  -19.4449 N   0  0  0  0  0  0  0  0  0  0  0  0
   19.2240   -9.4990  -18.3147 C   0  0  0  0  0  0  0  0  0  0  0  0
   18.1485   -9.2802  -17.7110 O   0  0  0  0  0  0  0  0  0  0  0  0
   20.4690   -9.0517  -17.8236 N   0  0  0  0  0  0  0  0  0  0  0  0
   20.5808   -8.3577  -16.5561 C   0  0  1  0  0  0  0  0  0  0  0  0
   21.6513   -8.9574  -15.6881 C   0  0  0  0  0  0  0  0  0  0  0  0
   21.6475   -8.2964  -14.3696 C   0  0  0  0  0  0  0  0  0  0  0  0
   22.3410   -7.2719  -14.0876 O   0  0  0  0  0  0  0  0  0  0  0  0
   20.8761   -6.9139  -16.7550 C   0  0  0  0  0  0  0  0  0  0  0  0
   21.7299   -6.6243  -17.6265 O   0  0  0  0  0  0  0  0  0  0  0  0
   20.8345   -8.8127  -13.3466 O   0  0  0  0  0  0  0  0  0  0  0  0
   17.1180   -2.4989  -18.0184 N   0  0  0  0  0  0  0  0  0  0  0  0
   18.2113   -1.7131  -17.5173 C   0  0  0  0  0  0  0  0  0  0  0  0
   18.1946   -0.4703  -17.7860 O   0  0  0  0  0  0  0  0  0  0  0  0
   19.2941   -2.3104  -16.7264 C   0  0  0  0  0  0  0  0  0  0  0  0
   19.1911   -3.7712  -16.4936 C   0  0  0  0  0  0  0  0  0  0  0  0
   20.4952   -4.4675  -16.4277 C   0  0  2  0  0  0  0  0  0  0  0  0
   20.2637   -5.8863  -16.0360 N   0  0  0  0  0  0  0  0  0  0  0  0
   21.5554   -3.9763  -15.5879 C   0  0  0  0  0  0  0  0  0  0  0  0
   21.8763   -4.5152  -14.5016 O   0  0  0  0  0  0  0  0  0  0  0  0
   22.3153   -2.8467  -15.9280 O   0  0  0  0  0  0  0  0  0  0  0  0
  2  4  1  0
  2  3  1  0
  2  1  1  6
  4  5  2  0
  6  7  1  0
  6  4  1  0
  7 11  1  0
  7  8  1  1
  9  8  1  0
 10  9  2  0
 11 20  1  0
 11 12  2  0
 13  9  1  0
 14 15  1  0
 15 17  1  0
 16 15  2  0
 17 18  1  0
 19 18  1  1
 20 19  1  0
 21 19  1  0
 21 23  1  0
 22 21  2  0
M  END
$$$$
