ADQ.pdb
     RDKit          3D

 23 22  0  0  1  0  0  0  0  0999 V2000
   15.8625  -11.8283  -16.6699 C   0  0  0  0  0  0  0  0  0  0  0  0
   17.1766  -11.5431  -15.9764 C   0  0  2  0  0  0  0  0  0  0  0  0
   17.0574  -11.9380  -14.6016 N   0  0  0  0  0  0  0  0  0  0  0  0
   17.5525  -10.1065  -16.1126 C   0  0  0  0  0  0  0  0  0  0  0  0
   17.9611   -9.7063  -17.2270 O   0  0  0  0  0  0  0  0  0  0  0  0
   17.4394   -9.2482  -14.9981 N   0  0  0  0  0  0  0  0  0  0  0  0
   17.7537   -7.8364  -15.0915 C   0  0  1  0  0  0  0  0  0  0  0  0
   16.8638   -7.0104  -14.2055 C   0  0  0  0  0  0  0  0  0  0  0  0
   15.4952   -6.9946  -14.7551 C   0  0  0  0  0  0  0  0  0  0  0  0
   15.2156   -6.6862  -15.9537 O   0  0  0  0  0  0  0  0  0  0  0  0
   19.1714   -7.5735  -14.7280 C   0  0  0  0  0  0  0  0  0  0  0  0
   19.6162   -8.1636  -13.7149 O   0  0  0  0  0  0  0  0  0  0  0  0
   14.4181   -7.3386  -13.9211 O   0  0  0  0  0  0  0  0  0  0  0  0
   25.7109   -6.2119  -17.6808 N   0  0  0  0  0  0  0  0  0  0  0  0
   24.4965   -6.9411  -17.4405 C   0  0  0  0  0  0  0  0  0  0  0  0
   24.1428   -7.7756  -18.3325 O   0  0  0  0  0  0  0  0  0  0  0  0
   23.7030   -6.7413  -16.2219 C   0  0  0  0  0  0  0  0  0  0  0  0
   22.2352   -6.8807  -16.3792 C   0  0  0  0  0  0  0  0  0  0  0  0
   21.4704   -6.6834  -15.1277 C   0  0  2  0  0  0  0  0  0  0  0  0
   20.0146   -6.7211  -15.4426 N   0  0  0  0  0  0  0  0  0  0  0  0
   21.6837   -5.5226  -14.3047 C   0  0  0  0  0  0  0  0  0  0  0  0
   20.9647   -4.4965  -14.3653 O   0  0  0  0  0  0  0  0  0  0  0  0
   22.7229   -5.4544  -13.3640 O   0  0  0  0  0  0  0  0  0  0  0  0
  2  4  1  0
  2  3  1  0
  2  1  1  6
  4  5  2  0
  6  7  1  0
  6  4  1  0
  7 11  1  0
  7  8  1  1
  9  8  1  0
 10  9  2  0
 11 20  1  0
 11 12  2  0
 13  9  1  0
 14 15  1  0
 15 17  1  0
 16 15  2  0
 17 18  1  0
 19 18  1  6
 20 19  1  0
 21 19  1  0
 21 23  1  0
 22 21  2  0
M  END
$$$$
