ADQ.pdb
     RDKit          3D

 23 22  0  0  1  0  0  0  0  0999 V2000
   19.2195  -13.3721  -19.3449 C   0  0  0  0  0  0  0  0  0  0  0  0
   19.7281  -12.0993  -18.7040 C   0  0  2  0  0  0  0  0  0  0  0  0
   20.7605  -12.4453  -17.7688 N   0  0  0  0  0  0  0  0  0  0  0  0
   18.6169  -11.3469  -18.0537 C   0  0  0  0  0  0  0  0  0  0  0  0
   17.6718  -10.9503  -18.7737 O   0  0  0  0  0  0  0  0  0  0  0  0
   18.6591  -11.1052  -16.6640 N   0  0  0  0  0  0  0  0  0  0  0  0
   17.5832  -10.4161  -15.9797 C   0  0  1  0  0  0  0  0  0  0  0  0
   17.2609  -11.0620  -14.6614 C   0  0  0  0  0  0  0  0  0  0  0  0
   16.7163  -12.4131  -14.8922 C   0  0  0  0  0  0  0  0  0  0  0  0
   17.3899  -13.4808  -14.7645 O   0  0  0  0  0  0  0  0  0  0  0  0
   17.9204   -8.9869  -15.7450 C   0  0  0  0  0  0  0  0  0  0  0  0
   17.1054   -8.3154  -15.0687 O   0  0  0  0  0  0  0  0  0  0  0  0
   15.3723  -12.5536  -15.2769 O   0  0  0  0  0  0  0  0  0  0  0  0
   21.3863   -4.8600  -13.7328 N   0  0  0  0  0  0  0  0  0  0  0  0
   21.6477   -6.2445  -13.4518 C   0  0  0  0  0  0  0  0  0  0  0  0
   22.7559   -6.5162  -12.8903 O   0  0  0  0  0  0  0  0  0  0  0  0
   20.6818   -7.2974  -13.7881 C   0  0  0  0  0  0  0  0  0  0  0  0
   19.4097   -6.8348  -14.3932 C   0  0  0  0  0  0  0  0  0  0  0  0
   19.3626   -6.9516  -15.8677 C   0  0  2  0  0  0  0  0  0  0  0  0
   19.0739   -8.3680  -16.2291 N   0  0  0  0  0  0  0  0  0  0  0  0
   20.4766   -6.5384  -16.6793 C   0  0  0  0  0  0  0  0  0  0  0  0
   21.0573   -7.3016  -17.4879 O   0  0  0  0  0  0  0  0  0  0  0  0
   20.9990   -5.2371  -16.6242 O   0  0  0  0  0  0  0  0  0  0  0  0
  2  4  1  0
  2  3  1  0
  2  1  1  1
  4  5  2  0
  6  7  1  0
  6  4  1  0
  7 11  1  0
  7  8  1  1
  9  8  1  0
 10  9  2  0
 11 20  1  0
 11 12  2  0
 13  9  1  0
 14 15  1  0
 15 17  1  0
 16 15  2  0
 17 18  1  0
 19 18  1  1
 20 19  1  0
 21 19  1  0
 21 23  1  0
 22 21  2  0
M  END
$$$$
