ADQ.pdb
     RDKit          3D

 23 22  0  0  1  0  0  0  0  0999 V2000
   14.9557  -11.4968  -15.1207 C   0  0  0  0  0  0  0  0  0  0  0  0
   16.4656  -11.5689  -15.1853 C   0  0  2  0  0  0  0  0  0  0  0  0
   16.8525  -12.9510  -15.1918 N   0  0  0  0  0  0  0  0  0  0  0  0
   17.0858  -10.8222  -14.0532 C   0  0  0  0  0  0  0  0  0  0  0  0
   17.1919  -11.4048  -12.9495 O   0  0  0  0  0  0  0  0  0  0  0  0
   17.5303   -9.4978  -14.2529 N   0  0  0  0  0  0  0  0  0  0  0  0
   18.2179   -8.7620  -13.2105 C   0  0  1  0  0  0  0  0  0  0  0  0
   19.2218   -7.7998  -13.7808 C   0  0  0  0  0  0  0  0  0  0  0  0
   19.9277   -7.1125  -12.6832 C   0  0  0  0  0  0  0  0  0  0  0  0
   19.4768   -6.0919  -12.0789 O   0  0  0  0  0  0  0  0  0  0  0  0
   17.2594   -8.0084  -12.3593 C   0  0  0  0  0  0  0  0  0  0  0  0
   16.2954   -7.4572  -12.9418 O   0  0  0  0  0  0  0  0  0  0  0  0
   21.1770   -7.5982  -12.2619 O   0  0  0  0  0  0  0  0  0  0  0  0
   13.0355   -9.8876   -9.2374 N   0  0  0  0  0  0  0  0  0  0  0  0
   13.0681   -8.5527   -8.7069 C   0  0  0  0  0  0  0  0  0  0  0  0
   12.0944   -8.2064   -7.9659 O   0  0  0  0  0  0  0  0  0  0  0  0
   14.1737   -7.6321   -8.9977 C   0  0  0  0  0  0  0  0  0  0  0  0
   15.2680   -8.1833   -9.8327 C   0  0  0  0  0  0  0  0  0  0  0  0
   16.3075   -7.1955  -10.1981 C   0  0  2  0  0  0  0  0  0  0  0  0
   17.3759   -7.8861  -10.9738 N   0  0  0  0  0  0  0  0  0  0  0  0
   16.9715   -6.4119   -9.1904 C   0  0  0  0  0  0  0  0  0  0  0  0
   18.1615   -6.6051   -8.8440 O   0  0  0  0  0  0  0  0  0  0  0  0
   16.3282   -5.3631   -8.5155 O   0  0  0  0  0  0  0  0  0  0  0  0
  2  4  1  0
  2  3  1  0
  2  1  1  1
  4  5  2  0
  6  7  1  0
  6  4  1  0
  7 11  1  0
  7  8  1  6
  9  8  1  0
 10  9  2  0
 11 20  1  0
 11 12  2  0
 13  9  1  0
 14 15  1  0
 15 17  1  0
 16 15  2  0
 17 18  1  0
 19 18  1  1
 20 19  1  0
 21 19  1  0
 21 23  1  0
 22 21  2  0
M  END
$$$$
