ADQ.pdb
     RDKit          3D

 23 22  0  0  1  0  0  0  0  0999 V2000
   28.7029  -11.3240  -16.4310 C   0  0  0  0  0  0  0  0  0  0  0  0
   27.2025  -11.1625  -16.3218 C   0  0  2  0  0  0  0  0  0  0  0  0
   26.5786  -12.2186  -17.0671 N   0  0  0  0  0  0  0  0  0  0  0  0
   26.7733   -9.8160  -16.7978 C   0  0  0  0  0  0  0  0  0  0  0  0
   27.2439   -8.8085  -16.2213 O   0  0  0  0  0  0  0  0  0  0  0  0
   25.8614   -9.7144  -17.8700 N   0  0  0  0  0  0  0  0  0  0  0  0
   25.3431   -8.4335  -18.3075 C   0  0  1  0  0  0  0  0  0  0  0  0
   25.1106   -8.4073  -19.7922 C   0  0  0  0  0  0  0  0  0  0  0  0
   26.3923   -8.5951  -20.4974 C   0  0  0  0  0  0  0  0  0  0  0  0
   27.3827   -7.8091  -20.3903 O   0  0  0  0  0  0  0  0  0  0  0  0
   24.0694   -8.1015  -17.6156 C   0  0  0  0  0  0  0  0  0  0  0  0
   23.1935   -8.9980  -17.5787 O   0  0  0  0  0  0  0  0  0  0  0  0
   26.5520   -9.7044  -21.3446 O   0  0  0  0  0  0  0  0  0  0  0  0
   20.5085   -9.6977  -14.9907 N   0  0  0  0  0  0  0  0  0  0  0  0
   20.5280   -8.6071  -14.0556 C   0  0  0  0  0  0  0  0  0  0  0  0
   19.5667   -8.5464  -13.2254 O   0  0  0  0  0  0  0  0  0  0  0  0
   21.6077   -7.6126  -14.0503 C   0  0  0  0  0  0  0  0  0  0  0  0
   22.6350   -7.7718  -15.1076 C   0  0  0  0  0  0  0  0  0  0  0  0
   22.6120   -6.7111  -16.1392 C   0  0  2  0  0  0  0  0  0  0  0  0
   23.8051   -6.8684  -17.0176 N   0  0  0  0  0  0  0  0  0  0  0  0
   22.5520   -5.3213  -15.7712 C   0  0  0  0  0  0  0  0  0  0  0  0
   23.5004   -4.5210  -15.9545 O   0  0  0  0  0  0  0  0  0  0  0  0
   21.4151   -4.7549  -15.1745 O   0  0  0  0  0  0  0  0  0  0  0  0
  2  4  1  0
  2  3  1  0
  2  1  1  6
  4  5  2  0
  6  7  1  0
  6  4  1  0
  7 11  1  0
  7  8  1  6
  9  8  1  0
 10  9  2  0
 11 20  1  0
 11 12  2  0
 13  9  1  0
 14 15  1  0
 15 17  1  0
 16 15  2  0
 17 18  1  0
 19 18  1  1
 20 19  1  0
 21 19  1  0
 21 23  1  0
 22 21  2  0
M  END
$$$$
