ADQ.pdb
     RDKit          3D

 23 22  0  0  1  0  0  0  0  0999 V2000
   20.2729  -12.9194  -19.5074 C   0  0  0  0  0  0  0  0  0  0  0  0
   20.9997  -12.2116  -18.3849 C   0  0  2  0  0  0  0  0  0  0  0  0
   21.3117  -13.1765  -17.3691 N   0  0  0  0  0  0  0  0  0  0  0  0
   20.1865  -11.0822  -17.8494 C   0  0  0  0  0  0  0  0  0  0  0  0
   19.8898  -10.1472  -18.6282 O   0  0  0  0  0  0  0  0  0  0  0  0
   19.7786  -11.0968  -16.4985 N   0  0  0  0  0  0  0  0  0  0  0  0
   19.0888   -9.9708  -15.9010 C   0  0  1  0  0  0  0  0  0  0  0  0
   18.1205  -10.4131  -14.8400 C   0  0  0  0  0  0  0  0  0  0  0  0
   16.9768  -11.1000  -15.4689 C   0  0  0  0  0  0  0  0  0  0  0  0
   16.2097  -10.5624  -16.3247 O   0  0  0  0  0  0  0  0  0  0  0  0
   20.0486   -9.0049  -15.3033 C   0  0  0  0  0  0  0  0  0  0  0  0
   21.0679   -9.4850  -14.7529 O   0  0  0  0  0  0  0  0  0  0  0  0
   16.6991  -12.4314  -15.1163 O   0  0  0  0  0  0  0  0  0  0  0  0
   23.5734   -5.3269  -17.9570 N   0  0  0  0  0  0  0  0  0  0  0  0
   23.7681   -4.9058  -16.5973 C   0  0  0  0  0  0  0  0  0  0  0  0
   24.7536   -4.1345  -16.3714 O   0  0  0  0  0  0  0  0  0  0  0  0
   22.8708   -5.3367  -15.5185 C   0  0  0  0  0  0  0  0  0  0  0  0
   21.8108   -6.2976  -15.9079 C   0  0  0  0  0  0  0  0  0  0  0  0
   20.9458   -6.7318  -14.7884 C   0  0  2  0  0  0  0  0  0  0  0  0
   19.8760   -7.6200  -15.3236 N   0  0  0  0  0  0  0  0  0  0  0  0
   20.2954   -5.7697  -13.9388 C   0  0  0  0  0  0  0  0  0  0  0  0
   20.8942   -5.1315  -13.0402 O   0  0  0  0  0  0  0  0  0  0  0  0
   18.9289   -5.4726  -14.0563 O   0  0  0  0  0  0  0  0  0  0  0  0
  2  4  1  0
  2  3  1  0
  2  1  1  6
  4  5  2  0
  6  7  1  0
  6  4  1  0
  7 11  1  0
  7  8  1  1
  9  8  1  0
 10  9  2  0
 11 20  1  0
 11 12  2  0
 13  9  1  0
 14 15  1  0
 15 17  1  0
 16 15  2  0
 17 18  1  0
 19 18  1  6
 20 19  1  0
 21 19  1  0
 21 23  1  0
 22 21  2  0
M  END
$$$$
