ADQ.pdb
     RDKit          3D

 23 22  0  0  1  0  0  0  0  0999 V2000
   15.5187  -14.4012  -14.4381 C   0  0  0  0  0  0  0  0  0  0  0  0
   15.0087  -12.9986  -14.1893 C   0  0  2  0  0  0  0  0  0  0  0  0
   14.2343  -12.5906  -15.3268 N   0  0  0  0  0  0  0  0  0  0  0  0
   16.1353  -12.0603  -13.9170 C   0  0  0  0  0  0  0  0  0  0  0  0
   16.8367  -12.2598  -12.8986 O   0  0  0  0  0  0  0  0  0  0  0  0
   16.3778  -10.9878  -14.8016 N   0  0  0  0  0  0  0  0  0  0  0  0
   17.3410   -9.9501  -14.4913 C   0  0  1  0  0  0  0  0  0  0  0  0
   18.1237   -9.5387  -15.7066 C   0  0  0  0  0  0  0  0  0  0  0  0
   19.1116   -8.5088  -15.3340 C   0  0  0  0  0  0  0  0  0  0  0  0
   18.9760   -7.2723  -15.5843 O   0  0  0  0  0  0  0  0  0  0  0  0
   16.6758   -8.7496  -13.9189 C   0  0  0  0  0  0  0  0  0  0  0  0
   15.6168   -8.3697  -14.4726 O   0  0  0  0  0  0  0  0  0  0  0  0
   20.2821   -8.8945  -14.6593 O   0  0  0  0  0  0  0  0  0  0  0  0
   15.3044   -7.4805   -8.1235 N   0  0  0  0  0  0  0  0  0  0  0  0
   14.9795   -6.2545   -8.7985 C   0  0  0  0  0  0  0  0  0  0  0  0
   14.3764   -5.3668   -8.1164 O   0  0  0  0  0  0  0  0  0  0  0  0
   15.3314   -6.0301  -10.2058 C   0  0  0  0  0  0  0  0  0  0  0  0
   16.0031   -7.1612  -10.8899 C   0  0  0  0  0  0  0  0  0  0  0  0
   16.3913   -6.8783  -12.2896 C   0  0  2  0  0  0  0  0  0  0  0  0
   17.1603   -8.0392  -12.8195 N   0  0  0  0  0  0  0  0  0  0  0  0
   17.1432   -5.6984  -12.6256 C   0  0  0  0  0  0  0  0  0  0  0  0
   18.3608   -5.7226  -12.9258 O   0  0  0  0  0  0  0  0  0  0  0  0
   16.5614   -4.4215  -12.6422 O   0  0  0  0  0  0  0  0  0  0  0  0
  2  4  1  0
  2  3  1  0
  2  1  1  6
  4  5  2  0
  6  7  1  0
  6  4  1  0
  7 11  1  0
  7  8  1  6
  9  8  1  0
 10  9  2  0
 11 20  1  0
 11 12  2  0
 13  9  1  0
 14 15  1  0
 15 17  1  0
 16 15  2  0
 17 18  1  0
 19 18  1  1
 20 19  1  0
 21 19  1  0
 21 23  1  0
 22 21  2  0
M  END
$$$$
