ADQ.pdb
     RDKit          3D

 23 22  0  0  1  0  0  0  0  0999 V2000
   15.8777  -11.1617  -15.5934 C   0  0  0  0  0  0  0  0  0  0  0  0
   16.3836   -9.7782  -15.9385 C   0  0  2  0  0  0  0  0  0  0  0  0
   16.4165   -9.6523  -17.3678 N   0  0  0  0  0  0  0  0  0  0  0  0
   17.7205   -9.5294  -15.3265 C   0  0  0  0  0  0  0  0  0  0  0  0
   17.7933   -9.4527  -14.0784 O   0  0  0  0  0  0  0  0  0  0  0  0
   18.8519   -9.3890  -16.1581 N   0  0  0  0  0  0  0  0  0  0  0  0
   20.1702   -9.1365  -15.6110 C   0  0  1  0  0  0  0  0  0  0  0  0
   21.2217   -9.9662  -16.2928 C   0  0  0  0  0  0  0  0  0  0  0  0
   22.4999   -9.8384  -15.5681 C   0  0  0  0  0  0  0  0  0  0  0  0
   22.6539   -9.1422  -14.5186 O   0  0  0  0  0  0  0  0  0  0  0  0
   20.5385   -7.7008  -15.7305 C   0  0  0  0  0  0  0  0  0  0  0  0
   20.2678   -7.1340  -16.8158 O   0  0  0  0  0  0  0  0  0  0  0  0
   23.6309  -10.5198  -16.0484 O   0  0  0  0  0  0  0  0  0  0  0  0
   17.4013   -3.6186  -15.3823 N   0  0  0  0  0  0  0  0  0  0  0  0
   18.5673   -2.8263  -15.1047 C   0  0  0  0  0  0  0  0  0  0  0  0
   18.3931   -1.5723  -14.9851 O   0  0  0  0  0  0  0  0  0  0  0  0
   19.8964   -3.4317  -14.9580 C   0  0  0  0  0  0  0  0  0  0  0  0
   19.9486   -4.9083  -15.0817 C   0  0  0  0  0  0  0  0  0  0  0  0
   21.2893   -5.4889  -14.8464 C   0  0  2  0  0  0  0  0  0  0  0  0
   21.1572   -6.9674  -14.7169 N   0  0  0  0  0  0  0  0  0  0  0  0
   22.1033   -5.0501  -13.7441 C   0  0  0  0  0  0  0  0  0  0  0  0
   22.4362   -5.8000  -12.7952 O   0  0  0  0  0  0  0  0  0  0  0  0
   22.5891   -3.7368  -13.6505 O   0  0  0  0  0  0  0  0  0  0  0  0
  2  4  1  0
  2  3  1  0
  2  1  1  6
  4  5  2  0
  6  7  1  0
  6  4  1  0
  7 11  1  0
  7  8  1  6
  9  8  1  0
 10  9  2  0
 11 20  1  0
 11 12  2  0
 13  9  1  0
 14 15  1  0
 15 17  1  0
 16 15  2  0
 17 18  1  0
 19 18  1  1
 20 19  1  0
 21 19  1  0
 21 23  1  0
 22 21  2  0
M  END
$$$$
