ELP.pdb
     RDKit          3D

 25 25  0  0  1  0  0  0  0  0999 V2000
   10.2626  -15.8186   20.4888 N   0  0  0  0  0  0  0  0  0  0  0  0
    9.3386  -16.3058   21.4566 C   0  0  1  0  0  0  0  0  0  0  0  0
    9.5106  -17.7596   21.7740 C   0  0  0  0  0  0  0  0  0  0  0  0
   10.9341  -18.1989   21.8627 C   0  0  0  0  0  0  0  0  0  0  0  0
   11.1034  -19.6206   22.0611 C   0  0  0  0  0  0  0  0  0  0  0  0
   10.7703  -20.4966   21.2690 O   0  0  0  0  0  0  0  0  0  0  0  0
    9.3862  -15.5016   22.7228 C   0  0  0  0  0  0  0  0  0  0  0  0
   10.5011  -14.9713   23.0474 O   0  0  0  0  0  0  0  0  0  0  0  0
   11.7002  -20.0588   23.2601 O   0  0  0  0  0  0  0  0  0  0  0  0
    7.4779  -11.7175   25.9773 C   0  0  0  0  0  0  0  0  0  0  0  0
    6.9148  -13.0869   26.2884 C   0  0  1  0  0  0  0  0  0  0  0  0
    5.5902  -12.9554   26.9370 C   0  0  0  0  0  0  0  0  0  0  0  0
    7.0090  -14.0245   25.1256 C   0  0  0  0  0  0  0  0  0  0  0  0
    8.3759  -14.5013   24.7763 C   0  0  2  0  0  0  0  0  0  0  0  0
    8.2780  -15.3073   23.5629 N   0  0  0  0  0  0  0  0  0  0  0  0
    8.9939  -15.3318   25.8395 C   0  0  0  0  0  0  0  0  0  0  0  0
    8.6822  -16.5613   25.8532 O   0  0  0  0  0  0  0  0  0  0  0  0
    9.8886  -14.8653   26.8206 N   0  0  0  0  0  0  0  0  0  0  0  0
   10.2785  -13.5397   27.2088 C   0  0  0  0  0  0  0  0  0  0  0  0
   10.4260  -13.7042   28.7269 C   0  0  0  0  0  0  0  0  0  0  0  0
   11.3862  -14.9078   28.6875 C   0  0  0  0  0  0  0  0  0  0  0  0
   10.6406  -15.7775   27.7045 C   0  0  1  0  0  0  0  0  0  0  0  0
    9.6674  -16.6189   28.4147 C   0  0  0  0  0  0  0  0  0  0  0  0
   10.0833  -17.6768   29.1980 O   0  0  0  0  0  0  0  0  0  0  0  0
    8.4390  -16.3848   28.3171 O   0  0  0  0  0  0  0  0  0  0  0  0
  2  1  1  6
  3  2  1  0
  4  3  1  0
  5  6  2  0
  5  4  1  0
  7  2  1  0
  7  8  2  0
  9  5  1  0
 11 12  1  6
 11 10  1  0
 13 11  1  0
 14 13  1  1
 15 14  1  0
 15  7  1  0
 16 14  1  0
 17 16  2  0
 18 16  1  0
 18 19  1  0
 20 19  1  0
 21 20  1  0
 22 21  1  0
 22 18  1  0
 22 23  1  1
 24 23  1  0
 25 23  2  0
M  END
$$$$
