ELP.pdb
     RDKit          3D

 25 25  0  0  1  0  0  0  0  0999 V2000
    8.9205  -19.2025   25.1210 N   0  0  0  0  0  0  0  0  0  0  0  0
    7.5057  -19.0417   25.1337 C   0  0  1  0  0  0  0  0  0  0  0  0
    6.8484  -19.5949   26.3609 C   0  0  0  0  0  0  0  0  0  0  0  0
    7.5572  -20.7659   26.9555 C   0  0  0  0  0  0  0  0  0  0  0  0
    7.9856  -20.5672   28.3216 C   0  0  0  0  0  0  0  0  0  0  0  0
    7.7565  -19.5735   29.0042 O   0  0  0  0  0  0  0  0  0  0  0  0
    7.1091  -17.6060   24.9500 C   0  0  0  0  0  0  0  0  0  0  0  0
    5.8888  -17.3589   24.6681 O   0  0  0  0  0  0  0  0  0  0  0  0
    8.7309  -21.5903   28.9408 O   0  0  0  0  0  0  0  0  0  0  0  0
    6.0542  -13.6056   26.4168 C   0  0  0  0  0  0  0  0  0  0  0  0
    7.3199  -13.0823   25.7741 C   0  0  1  0  0  0  0  0  0  0  0  0
    7.8801  -11.9761   26.5835 C   0  0  0  0  0  0  0  0  0  0  0  0
    8.2609  -14.1783   25.3824 C   0  0  0  0  0  0  0  0  0  0  0  0
    7.7080  -15.2269   24.4811 C   0  0  2  0  0  0  0  0  0  0  0  0
    8.0042  -16.5306   25.0680 N   0  0  0  0  0  0  0  0  0  0  0  0
    8.2872  -15.1876   23.1155 C   0  0  0  0  0  0  0  0  0  0  0  0
    9.2226  -16.0089   22.8712 O   0  0  0  0  0  0  0  0  0  0  0  0
    7.8824  -14.3201   22.0838 N   0  0  0  0  0  0  0  0  0  0  0  0
    6.8397  -13.3365   22.0133 C   0  0  0  0  0  0  0  0  0  0  0  0
    7.5125  -12.2479   21.1674 C   0  0  0  0  0  0  0  0  0  0  0  0
    7.9208  -13.1562   19.9925 C   0  0  0  0  0  0  0  0  0  0  0  0
    8.5547  -14.2840   20.7702 C   0  0  1  0  0  0  0  0  0  0  0  0
    9.9775  -13.9985   21.0011 C   0  0  0  0  0  0  0  0  0  0  0  0
   10.9065  -14.1650   19.9937 O   0  0  0  0  0  0  0  0  0  0  0  0
   10.3679  -13.5974   22.1236 O   0  0  0  0  0  0  0  0  0  0  0  0
  2  1  1  1
  3  2  1  0
  4  3  1  0
  5  6  2  0
  5  4  1  0
  7  2  1  0
  7  8  2  0
  9  5  1  0
 11 12  1  1
 11 10  1  0
 13 11  1  0
 14 13  1  1
 15 14  1  0
 15  7  1  0
 16 14  1  0
 17 16  2  0
 18 16  1  0
 18 19  1  0
 20 19  1  0
 21 20  1  0
 22 21  1  0
 22 18  1  0
 22 23  1  1
 24 23  1  0
 25 23  2  0
M  END
$$$$
