ELP.pdb
     RDKit          3D

 25 25  0  0  1  0  0  0  0  0999 V2000
    5.7121  -20.2622   25.3610 N   0  0  0  0  0  0  0  0  0  0  0  0
    6.9569  -19.5722   25.4067 C   0  0  1  0  0  0  0  0  0  0  0  0
    8.0470  -20.2460   24.6311 C   0  0  0  0  0  0  0  0  0  0  0  0
    9.3909  -19.6192   24.7998 C   0  0  0  0  0  0  0  0  0  0  0  0
   10.0598  -19.9758   26.0305 C   0  0  0  0  0  0  0  0  0  0  0  0
   10.2015  -21.1159   26.4617 O   0  0  0  0  0  0  0  0  0  0  0  0
    6.8186  -18.1482   24.9536 C   0  0  0  0  0  0  0  0  0  0  0  0
    6.1298  -17.9242   23.9025 O   0  0  0  0  0  0  0  0  0  0  0  0
   10.6031  -18.9402   26.8168 O   0  0  0  0  0  0  0  0  0  0  0  0
    5.9235  -12.8715   26.1133 C   0  0  0  0  0  0  0  0  0  0  0  0
    7.3637  -13.3039   25.9458 C   0  0  1  0  0  0  0  0  0  0  0  0
    8.2627  -12.3537   26.6398 C   0  0  0  0  0  0  0  0  0  0  0  0
    7.5640  -14.7588   26.2340 C   0  0  0  0  0  0  0  0  0  0  0  0
    7.2661  -15.6962   25.1159 C   0  0  2  0  0  0  0  0  0  0  0  0
    7.4056  -17.0598   25.6189 N   0  0  0  0  0  0  0  0  0  0  0  0
    8.1778  -15.5310   23.9569 C   0  0  0  0  0  0  0  0  0  0  0  0
    9.3289  -16.0541   24.0604 O   0  0  0  0  0  0  0  0  0  0  0  0
    7.8665  -14.8475   22.7666 N   0  0  0  0  0  0  0  0  0  0  0  0
    6.7735  -13.9867   22.4143 C   0  0  0  0  0  0  0  0  0  0  0  0
    7.4796  -12.9568   21.5231 C   0  0  0  0  0  0  0  0  0  0  0  0
    8.1277  -13.9658   20.5567 C   0  0  0  0  0  0  0  0  0  0  0  0
    8.7230  -14.9169   21.5664 C   0  0  1  0  0  0  0  0  0  0  0  0
   10.0690  -14.4677   21.9481 C   0  0  0  0  0  0  0  0  0  0  0  0
   11.1338  -14.6022   21.0801 O   0  0  0  0  0  0  0  0  0  0  0  0
   10.2682  -13.9535   23.0747 O   0  0  0  0  0  0  0  0  0  0  0  0
  2  1  1  6
  3  2  1  0
  4  3  1  0
  5  6  2  0
  5  4  1  0
  7  2  1  0
  7  8  2  0
  9  5  1  0
 11 12  1  1
 11 10  1  0
 13 11  1  0
 14 13  1  1
 15 14  1  0
 15  7  1  0
 16 14  1  0
 17 16  2  0
 18 16  1  0
 18 19  1  0
 20 19  1  0
 21 20  1  0
 22 21  1  0
 22 18  1  0
 22 23  1  1
 24 23  1  0
 25 23  2  0
M  END
$$$$
