ELP.pdb
     RDKit          3D

 25 25  0  0  1  0  0  0  0  0999 V2000
    9.1654  -15.5048   20.3537 N   0  0  0  0  0  0  0  0  0  0  0  0
    8.9872  -16.2871   21.5302 C   0  0  1  0  0  0  0  0  0  0  0  0
    9.9250  -17.4513   21.6263 C   0  0  0  0  0  0  0  0  0  0  0  0
    9.8723  -18.3735   20.4541 C   0  0  0  0  0  0  0  0  0  0  0  0
   10.6644  -19.5727   20.6085 C   0  0  0  0  0  0  0  0  0  0  0  0
   11.8379  -19.7011   20.2737 O   0  0  0  0  0  0  0  0  0  0  0  0
    9.0885  -15.4512   22.7725 C   0  0  0  0  0  0  0  0  0  0  0  0
   10.0349  -14.5970   22.8375 O   0  0  0  0  0  0  0  0  0  0  0  0
   10.0556  -20.7019   21.1915 O   0  0  0  0  0  0  0  0  0  0  0  0
    5.1628  -12.9147   26.0673 C   0  0  0  0  0  0  0  0  0  0  0  0
    6.4106  -13.2130   25.2653 C   0  0  1  0  0  0  0  0  0  0  0  0
    7.2825  -12.0170   25.2198 C   0  0  0  0  0  0  0  0  0  0  0  0
    7.0536  -14.5048   25.6625 C   0  0  0  0  0  0  0  0  0  0  0  0
    8.3948  -14.7778   25.0755 C   0  0  2  0  0  0  0  0  0  0  0  0
    8.2054  -15.5620   23.8586 N   0  0  0  0  0  0  0  0  0  0  0  0
    9.2868  -15.5375   25.9860 C   0  0  0  0  0  0  0  0  0  0  0  0
    9.4262  -16.7747   25.7431 O   0  0  0  0  0  0  0  0  0  0  0  0
    9.9816  -14.9967   27.0841 N   0  0  0  0  0  0  0  0  0  0  0  0
    9.9770  -13.6862   27.6692 C   0  0  0  0  0  0  0  0  0  0  0  0
   10.1077  -14.0242   29.1599 C   0  0  0  0  0  0  0  0  0  0  0  0
   11.3627  -14.9084   29.0371 C   0  0  0  0  0  0  0  0  0  0  0  0
   10.9221  -15.7933   27.8963 C   0  0  1  0  0  0  0  0  0  0  0  0
   10.1923  -16.9580   28.4159 C   0  0  0  0  0  0  0  0  0  0  0  0
    8.8192  -17.0428   28.3020 O   0  0  0  0  0  0  0  0  0  0  0  0
   10.8120  -17.8955   28.9730 O   0  0  0  0  0  0  0  0  0  0  0  0
  2  1  1  6
  3  2  1  0
  4  3  1  0
  5  6  2  0
  5  4  1  0
  7  2  1  0
  7  8  2  0
  9  5  1  0
 11 12  1  1
 11 10  1  0
 13 11  1  0
 14 13  1  1
 15 14  1  0
 15  7  1  0
 16 14  1  0
 17 16  2  0
 18 16  1  0
 18 19  1  0
 20 19  1  0
 21 20  1  0
 22 21  1  0
 22 18  1  0
 22 23  1  1
 24 23  1  0
 25 23  2  0
M  END
$$$$
