ELP.pdb
     RDKit          3D

 25 25  0  0  1  0  0  0  0  0999 V2000
   10.3241  -15.8736   20.5766 N   0  0  0  0  0  0  0  0  0  0  0  0
    9.5275  -16.4888   21.5839 C   0  0  1  0  0  0  0  0  0  0  0  0
    9.9227  -17.9023   21.8837 C   0  0  0  0  0  0  0  0  0  0  0  0
   10.4071  -18.6639   20.6951 C   0  0  0  0  0  0  0  0  0  0  0  0
   10.7626  -20.0363   20.9764 C   0  0  0  0  0  0  0  0  0  0  0  0
   11.5719  -20.4053   21.8217 O   0  0  0  0  0  0  0  0  0  0  0  0
    9.5189  -15.6855   22.8515 C   0  0  0  0  0  0  0  0  0  0  0  0
   10.5780  -15.0392   23.1517 O   0  0  0  0  0  0  0  0  0  0  0  0
   10.1373  -21.0527   20.2269 O   0  0  0  0  0  0  0  0  0  0  0  0
    5.6105  -12.7669   26.5362 C   0  0  0  0  0  0  0  0  0  0  0  0
    6.8424  -12.8818   25.6654 C   0  0  1  0  0  0  0  0  0  0  0  0
    8.0138  -12.3065   26.3650 C   0  0  0  0  0  0  0  0  0  0  0  0
    7.0075  -14.2498   25.0813 C   0  0  0  0  0  0  0  0  0  0  0  0
    8.4084  -14.7053   24.8627 C   0  0  2  0  0  0  0  0  0  0  0  0
    8.4165  -15.6118   23.7181 N   0  0  0  0  0  0  0  0  0  0  0  0
    8.9779  -15.4227   26.0301 C   0  0  0  0  0  0  0  0  0  0  0  0
    8.6204  -16.6300   26.1847 O   0  0  0  0  0  0  0  0  0  0  0  0
    9.8735  -14.8731   26.9663 N   0  0  0  0  0  0  0  0  0  0  0  0
   10.1335  -13.5182   27.3619 C   0  0  0  0  0  0  0  0  0  0  0  0
   10.3938  -13.6902   28.8639 C   0  0  0  0  0  0  0  0  0  0  0  0
   11.4803  -14.7745   28.7378 C   0  0  0  0  0  0  0  0  0  0  0  0
   10.7782  -15.7075   27.7811 C   0  0  1  0  0  0  0  0  0  0  0  0
    9.9536  -16.6671   28.5284 C   0  0  0  0  0  0  0  0  0  0  0  0
    8.5838  -16.5151   28.6058 O   0  0  0  0  0  0  0  0  0  0  0  0
   10.4877  -17.6423   29.1090 O   0  0  0  0  0  0  0  0  0  0  0  0
  2  1  1  6
  3  2  1  0
  4  3  1  0
  5  6  2  0
  5  4  1  0
  7  2  1  0
  7  8  2  0
  9  5  1  0
 11 12  1  1
 11 10  1  0
 13 11  1  0
 14 13  1  1
 15 14  1  0
 15  7  1  0
 16 14  1  0
 17 16  2  0
 18 16  1  0
 18 19  1  0
 20 19  1  0
 21 20  1  0
 22 21  1  0
 22 18  1  0
 22 23  1  1
 24 23  1  0
 25 23  2  0
M  END
$$$$
