ELP.pdb
     RDKit          3D

 25 25  0  0  1  0  0  0  0  0999 V2000
    8.1518  -18.1072   22.0091 N   0  0  0  0  0  0  0  0  0  0  0  0
    9.3414  -17.3379   21.8654 C   0  0  1  0  0  0  0  0  0  0  0  0
    9.4866  -16.7008   20.5174 C   0  0  0  0  0  0  0  0  0  0  0  0
   10.8491  -16.1561   20.2453 C   0  0  0  0  0  0  0  0  0  0  0  0
   11.2947  -16.3308   18.8814 C   0  0  0  0  0  0  0  0  0  0  0  0
   11.1733  -15.5073   17.9797 O   0  0  0  0  0  0  0  0  0  0  0  0
    9.4581  -16.2920   22.9353 C   0  0  0  0  0  0  0  0  0  0  0  0
   10.5056  -15.5624   22.9402 O   0  0  0  0  0  0  0  0  0  0  0  0
   11.9250  -17.5432   18.5373 O   0  0  0  0  0  0  0  0  0  0  0  0
    5.5741  -12.9864   25.8159 C   0  0  0  0  0  0  0  0  0  0  0  0
    6.7835  -13.4367   25.0262 C   0  0  1  0  0  0  0  0  0  0  0  0
    7.7274  -12.3085   24.8561 C   0  0  0  0  0  0  0  0  0  0  0  0
    7.3528  -14.7251   25.5320 C   0  0  0  0  0  0  0  0  0  0  0  0
    8.6882  -15.1079   24.9953 C   0  0  2  0  0  0  0  0  0  0  0  0
    8.4844  -16.0791   23.9243 N   0  0  0  0  0  0  0  0  0  0  0  0
    9.5745  -15.7189   26.0166 C   0  0  0  0  0  0  0  0  0  0  0  0
    9.7790  -16.9670   25.9180 O   0  0  0  0  0  0  0  0  0  0  0  0
   10.1981  -15.0279   27.0723 N   0  0  0  0  0  0  0  0  0  0  0  0
   10.2066  -13.6394   27.4353 C   0  0  0  0  0  0  0  0  0  0  0  0
   10.1928  -13.7309   28.9666 C   0  0  0  0  0  0  0  0  0  0  0  0
   11.4097  -14.6648   29.1045 C   0  0  0  0  0  0  0  0  0  0  0  0
   11.0262  -15.7106   28.0857 C   0  0  1  0  0  0  0  0  0  0  0  0
   10.1994  -16.7485   28.7169 C   0  0  0  0  0  0  0  0  0  0  0  0
   10.7593  -17.6814   29.5665 O   0  0  0  0  0  0  0  0  0  0  0  0
    8.9669  -16.8000   28.4898 O   0  0  0  0  0  0  0  0  0  0  0  0
  2  1  1  6
  3  2  1  0
  4  3  1  0
  5  6  2  0
  5  4  1  0
  7  2  1  0
  7  8  2  0
  9  5  1  0
 11 12  1  1
 11 10  1  0
 13 11  1  0
 14 13  1  1
 15 14  1  0
 15  7  1  0
 16 14  1  0
 17 16  2  0
 18 16  1  0
 18 19  1  0
 20 19  1  0
 21 20  1  0
 22 21  1  0
 22 18  1  0
 22 23  1  1
 24 23  1  0
 25 23  2  0
M  END
$$$$
