ELP.pdb
     RDKit          3D

 25 25  0  0  1  0  0  0  0  0999 V2000
    9.4533  -15.4917   20.5808 N   0  0  0  0  0  0  0  0  0  0  0  0
    9.2351  -16.3541   21.6928 C   0  0  1  0  0  0  0  0  0  0  0  0
   10.1459  -17.5432   21.7196 C   0  0  0  0  0  0  0  0  0  0  0  0
    9.5030  -18.8125   21.2692 C   0  0  0  0  0  0  0  0  0  0  0  0
   10.3269  -19.9873   21.4432 C   0  0  0  0  0  0  0  0  0  0  0  0
   11.0869  -20.4572   20.6022 O   0  0  0  0  0  0  0  0  0  0  0  0
    9.3293  -15.6144   22.9951 C   0  0  0  0  0  0  0  0  0  0  0  0
   10.3221  -14.8294   23.1613 O   0  0  0  0  0  0  0  0  0  0  0  0
   10.2669  -20.6653   22.6771 O   0  0  0  0  0  0  0  0  0  0  0  0
    5.0623  -13.2429   25.9467 C   0  0  0  0  0  0  0  0  0  0  0  0
    6.3691  -13.4948   25.2270 C   0  0  1  0  0  0  0  0  0  0  0  0
    7.1532  -12.2414   25.1452 C   0  0  0  0  0  0  0  0  0  0  0  0
    7.0822  -14.7072   25.7385 C   0  0  0  0  0  0  0  0  0  0  0  0
    8.4674  -14.9157   25.2329 C   0  0  2  0  0  0  0  0  0  0  0  0
    8.3914  -15.7430   24.0322 N   0  0  0  0  0  0  0  0  0  0  0  0
    9.3503  -15.5956   26.2127 C   0  0  0  0  0  0  0  0  0  0  0  0
    9.4982  -16.8475   26.0712 O   0  0  0  0  0  0  0  0  0  0  0  0
   10.0281  -14.9651   27.2729 N   0  0  0  0  0  0  0  0  0  0  0  0
   10.0117  -13.6117   27.7500 C   0  0  0  0  0  0  0  0  0  0  0  0
   10.1222  -13.8275   29.2648 C   0  0  0  0  0  0  0  0  0  0  0  0
   11.3812  -14.7140   29.2313 C   0  0  0  0  0  0  0  0  0  0  0  0
   10.9592  -15.6898   28.1598 C   0  0  1  0  0  0  0  0  0  0  0  0
   10.2253  -16.8116   28.7618 C   0  0  0  0  0  0  0  0  0  0  0  0
    8.8570  -16.9226   28.6171 O   0  0  0  0  0  0  0  0  0  0  0  0
   10.8370  -17.6876   29.4188 O   0  0  0  0  0  0  0  0  0  0  0  0
  2  1  1  6
  3  2  1  0
  4  3  1  0
  5  6  2  0
  5  4  1  0
  7  2  1  0
  7  8  2  0
  9  5  1  0
 11 12  1  1
 11 10  1  0
 13 11  1  0
 14 13  1  1
 15 14  1  0
 15  7  1  0
 16 14  1  0
 17 16  2  0
 18 16  1  0
 18 19  1  0
 20 19  1  0
 21 20  1  0
 22 21  1  0
 22 18  1  0
 22 23  1  1
 24 23  1  0
 25 23  2  0
M  END
$$$$
