ELP.pdb
     RDKit          3D

 25 25  0  0  1  0  0  0  0  0999 V2000
    8.9035  -15.7040   20.4561 N   0  0  0  0  0  0  0  0  0  0  0  0
    8.8408  -16.4541   21.6650 C   0  0  1  0  0  0  0  0  0  0  0  0
    9.7869  -17.6149   21.7023 C   0  0  0  0  0  0  0  0  0  0  0  0
    9.4103  -18.7364   20.7926 C   0  0  0  0  0  0  0  0  0  0  0  0
    9.7487  -18.5123   19.4053 C   0  0  0  0  0  0  0  0  0  0  0  0
   10.8846  -18.3828   18.9595 O   0  0  0  0  0  0  0  0  0  0  0  0
    9.0579  -15.5847   22.8689 C   0  0  0  0  0  0  0  0  0  0  0  0
   10.1310  -14.8951   22.9171 O   0  0  0  0  0  0  0  0  0  0  0  0
    8.6989  -18.4328   18.4687 O   0  0  0  0  0  0  0  0  0  0  0  0
    5.4156  -12.5052   26.0335 C   0  0  0  0  0  0  0  0  0  0  0  0
    6.6361  -12.9512   25.2586 C   0  0  1  0  0  0  0  0  0  0  0  0
    7.6045  -11.8362   25.1513 C   0  0  0  0  0  0  0  0  0  0  0  0
    7.1687  -14.2670   25.7332 C   0  0  0  0  0  0  0  0  0  0  0  0
    8.4561  -14.7099   25.1296 C   0  0  2  0  0  0  0  0  0  0  0  0
    8.1507  -15.4946   23.9368 N   0  0  0  0  0  0  0  0  0  0  0  0
    9.2713  -15.5481   26.0433 C   0  0  0  0  0  0  0  0  0  0  0  0
    9.2400  -16.8006   25.8450 O   0  0  0  0  0  0  0  0  0  0  0  0
   10.0670  -15.0653   27.0990 N   0  0  0  0  0  0  0  0  0  0  0  0
   10.2740  -13.7421   27.6147 C   0  0  0  0  0  0  0  0  0  0  0  0
   10.3902  -14.0222   29.1185 C   0  0  0  0  0  0  0  0  0  0  0  0
   11.4948  -15.0910   29.0201 C   0  0  0  0  0  0  0  0  0  0  0  0
   10.8976  -15.9540   27.9351 C   0  0  1  0  0  0  0  0  0  0  0  0
   10.0147  -16.9681   28.5278 C   0  0  0  0  0  0  0  0  0  0  0  0
   10.5341  -18.0364   29.2311 O   0  0  0  0  0  0  0  0  0  0  0  0
    8.7703  -16.8751   28.4010 O   0  0  0  0  0  0  0  0  0  0  0  0
  2  1  1  6
  3  2  1  0
  4  3  1  0
  5  6  2  0
  5  4  1  0
  7  2  1  0
  7  8  2  0
  9  5  1  0
 11 12  1  1
 11 10  1  0
 13 11  1  0
 14 13  1  1
 15 14  1  0
 15  7  1  0
 16 14  1  0
 17 16  2  0
 18 16  1  0
 18 19  1  0
 20 19  1  0
 21 20  1  0
 22 21  1  0
 22 18  1  0
 22 23  1  1
 24 23  1  0
 25 23  2  0
M  END
$$$$
