ELP.pdb
     RDKit          3D

 25 25  0  0  1  0  0  0  0  0999 V2000
    8.4613  -17.6792   21.7688 N   0  0  0  0  0  0  0  0  0  0  0  0
    9.7340  -17.0488   21.8722 C   0  0  1  0  0  0  0  0  0  0  0  0
   10.1867  -16.3955   20.6025 C   0  0  0  0  0  0  0  0  0  0  0  0
   10.2399  -17.3166   19.4294 C   0  0  0  0  0  0  0  0  0  0  0  0
   10.6074  -16.6735   18.1882 C   0  0  0  0  0  0  0  0  0  0  0  0
   10.8894  -15.4867   18.0553 O   0  0  0  0  0  0  0  0  0  0  0  0
    9.7703  -16.0536   22.9949 C   0  0  0  0  0  0  0  0  0  0  0  0
   10.7909  -15.2916   23.0796 O   0  0  0  0  0  0  0  0  0  0  0  0
   10.6518  -17.4593   17.0193 O   0  0  0  0  0  0  0  0  0  0  0  0
    5.5985  -13.0451   25.6293 C   0  0  0  0  0  0  0  0  0  0  0  0
    6.9092  -13.4174   24.9716 C   0  0  1  0  0  0  0  0  0  0  0  0
    7.7857  -12.2276   24.8776 C   0  0  0  0  0  0  0  0  0  0  0  0
    7.5118  -14.6578   25.5531 C   0  0  0  0  0  0  0  0  0  0  0  0
    8.8804  -15.0062   25.0804 C   0  0  2  0  0  0  0  0  0  0  0  0
    8.7499  -15.9214   23.9503 N   0  0  0  0  0  0  0  0  0  0  0  0
    9.7074  -15.6653   26.1214 C   0  0  0  0  0  0  0  0  0  0  0  0
    9.8734  -16.9176   26.0065 O   0  0  0  0  0  0  0  0  0  0  0  0
   10.3144  -15.0149   27.2120 N   0  0  0  0  0  0  0  0  0  0  0  0
   10.3278  -13.6390   27.6201 C   0  0  0  0  0  0  0  0  0  0  0  0
   10.2803  -13.7798   29.1470 C   0  0  0  0  0  0  0  0  0  0  0  0
   11.4854  -14.7297   29.2801 C   0  0  0  0  0  0  0  0  0  0  0  0
   11.1143  -15.7381   28.2199 C   0  0  1  0  0  0  0  0  0  0  0  0
   10.2647  -16.7877   28.7994 C   0  0  0  0  0  0  0  0  0  0  0  0
   10.7941  -17.7418   29.6449 O   0  0  0  0  0  0  0  0  0  0  0  0
    9.0402  -16.8299   28.5310 O   0  0  0  0  0  0  0  0  0  0  0  0
  2  1  1  6
  3  2  1  0
  4  3  1  0
  5  6  2  0
  5  4  1  0
  7  2  1  0
  7  8  2  0
  9  5  1  0
 11 12  1  1
 11 10  1  0
 13 11  1  0
 14 13  1  1
 15 14  1  0
 15  7  1  0
 16 14  1  0
 17 16  2  0
 18 16  1  0
 18 19  1  0
 20 19  1  0
 21 20  1  0
 22 21  1  0
 22 18  1  0
 22 23  1  1
 24 23  1  0
 25 23  2  0
M  END
$$$$
