ELP.pdb
     RDKit          3D

 25 25  0  0  1  0  0  0  0  0999 V2000
    9.4148  -15.6915   20.3666 N   0  0  0  0  0  0  0  0  0  0  0  0
    9.4912  -16.4613   21.5622 C   0  0  1  0  0  0  0  0  0  0  0  0
   10.6667  -17.3888   21.6064 C   0  0  0  0  0  0  0  0  0  0  0  0
   10.4706  -18.6566   20.8440 C   0  0  0  0  0  0  0  0  0  0  0  0
   11.5723  -19.5864   20.9484 C   0  0  0  0  0  0  0  0  0  0  0  0
   12.5268  -19.6515   20.1800 O   0  0  0  0  0  0  0  0  0  0  0  0
    9.4873  -15.5898   22.7840 C   0  0  0  0  0  0  0  0  0  0  0  0
   10.2405  -14.5591   22.7802 O   0  0  0  0  0  0  0  0  0  0  0  0
   11.5689  -20.5050   22.0170 O   0  0  0  0  0  0  0  0  0  0  0  0
    5.4564  -13.2107   25.8873 C   0  0  0  0  0  0  0  0  0  0  0  0
    6.7617  -13.4775   25.1703 C   0  0  1  0  0  0  0  0  0  0  0  0
    7.6125  -12.2658   25.1977 C   0  0  0  0  0  0  0  0  0  0  0  0
    7.3997  -14.7622   25.5973 C   0  0  0  0  0  0  0  0  0  0  0  0
    8.7856  -15.0011   25.1077 C   0  0  2  0  0  0  0  0  0  0  0  0
    8.7071  -15.8497   23.9222 N   0  0  0  0  0  0  0  0  0  0  0  0
    9.6499  -15.6755   26.1077 C   0  0  0  0  0  0  0  0  0  0  0  0
    9.8832  -16.9079   25.9181 O   0  0  0  0  0  0  0  0  0  0  0  0
   10.2238  -15.0596   27.2357 N   0  0  0  0  0  0  0  0  0  0  0  0
   10.1295  -13.7226   27.7487 C   0  0  0  0  0  0  0  0  0  0  0  0
   10.1283  -13.9822   29.2607 C   0  0  0  0  0  0  0  0  0  0  0  0
   11.4123  -14.8318   29.3009 C   0  0  0  0  0  0  0  0  0  0  0  0
   11.1046  -15.7853   28.1719 C   0  0  1  0  0  0  0  0  0  0  0  0
   10.3603  -16.9452   28.6817 C   0  0  0  0  0  0  0  0  0  0  0  0
    8.9986  -17.0562   28.4842 O   0  0  0  0  0  0  0  0  0  0  0  0
   10.9569  -17.8543   29.3068 O   0  0  0  0  0  0  0  0  0  0  0  0
  2  1  1  6
  3  2  1  0
  4  3  1  0
  5  6  2  0
  5  4  1  0
  7  2  1  0
  7  8  2  0
  9  5  1  0
 11 12  1  1
 11 10  1  0
 13 11  1  0
 14 13  1  1
 15 14  1  0
 15  7  1  0
 16 14  1  0
 17 16  2  0
 18 16  1  0
 18 19  1  0
 20 19  1  0
 21 20  1  0
 22 21  1  0
 22 18  1  0
 22 23  1  1
 24 23  1  0
 25 23  2  0
M  END
$$$$
