ELP.pdb
     RDKit          3D

 25 25  0  0  1  0  0  0  0  0999 V2000
    9.8224  -15.6967   20.5401 N   0  0  0  0  0  0  0  0  0  0  0  0
    9.2673  -16.3812   21.6586 C   0  0  1  0  0  0  0  0  0  0  0  0
    9.7931  -17.7729   21.8337 C   0  0  0  0  0  0  0  0  0  0  0  0
   10.8633  -18.1458   20.8627 C   0  0  0  0  0  0  0  0  0  0  0  0
   11.1377  -19.5635   20.8000 C   0  0  0  0  0  0  0  0  0  0  0  0
   12.0061  -20.0929   20.1134 O   0  0  0  0  0  0  0  0  0  0  0  0
    9.4519  -15.6062   22.9305 C   0  0  0  0  0  0  0  0  0  0  0  0
   10.5213  -14.9209   23.0579 O   0  0  0  0  0  0  0  0  0  0  0  0
   10.3523  -20.4289   21.5874 O   0  0  0  0  0  0  0  0  0  0  0  0
    5.4512  -12.7530   25.8519 C   0  0  0  0  0  0  0  0  0  0  0  0
    6.7329  -13.1238   25.1386 C   0  0  1  0  0  0  0  0  0  0  0  0
    7.6225  -11.9435   25.0474 C   0  0  0  0  0  0  0  0  0  0  0  0
    7.3376  -14.3881   25.6638 C   0  0  0  0  0  0  0  0  0  0  0  0
    8.6892  -14.7345   25.1434 C   0  0  2  0  0  0  0  0  0  0  0  0
    8.5184  -15.5992   23.9794 N   0  0  0  0  0  0  0  0  0  0  0  0
    9.5313  -15.4482   26.1351 C   0  0  0  0  0  0  0  0  0  0  0  0
    9.6983  -16.6918   25.9485 O   0  0  0  0  0  0  0  0  0  0  0  0
   10.1514  -14.8579   27.2522 N   0  0  0  0  0  0  0  0  0  0  0  0
   10.1299  -13.5165   27.7620 C   0  0  0  0  0  0  0  0  0  0  0  0
   10.1389  -13.7715   29.2747 C   0  0  0  0  0  0  0  0  0  0  0  0
   11.3805  -14.6824   29.2986 C   0  0  0  0  0  0  0  0  0  0  0  0
   11.0099  -15.6229   28.1777 C   0  0  1  0  0  0  0  0  0  0  0  0
   10.2179  -16.7439   28.7026 C   0  0  0  0  0  0  0  0  0  0  0  0
    8.8546  -16.8072   28.4950 O   0  0  0  0  0  0  0  0  0  0  0  0
   10.7744  -17.6627   29.3501 O   0  0  0  0  0  0  0  0  0  0  0  0
  2  1  1  6
  3  2  1  0
  4  3  1  0
  5  6  2  0
  5  4  1  0
  7  2  1  0
  7  8  2  0
  9  5  1  0
 11 12  1  1
 11 10  1  0
 13 11  1  0
 14 13  1  1
 15 14  1  0
 15  7  1  0
 16 14  1  0
 17 16  2  0
 18 16  1  0
 18 19  1  0
 20 19  1  0
 21 20  1  0
 22 21  1  0
 22 18  1  0
 22 23  1  1
 24 23  1  0
 25 23  2  0
M  END
$$$$
