ELP.pdb
     RDKit          3D

 25 25  0  0  1  0  0  0  0  0999 V2000
   10.4290  -16.0326   20.5342 N   0  0  0  0  0  0  0  0  0  0  0  0
    9.7586  -16.6445   21.6314 C   0  0  1  0  0  0  0  0  0  0  0  0
   10.3591  -17.9514   22.0501 C   0  0  0  0  0  0  0  0  0  0  0  0
   10.1515  -19.0581   21.0706 C   0  0  0  0  0  0  0  0  0  0  0  0
   10.7073  -20.3266   21.4844 C   0  0  0  0  0  0  0  0  0  0  0  0
   11.4508  -21.0338   20.8114 O   0  0  0  0  0  0  0  0  0  0  0  0
    9.6749  -15.7236   22.8134 C   0  0  0  0  0  0  0  0  0  0  0  0
   10.7184  -15.0553   23.1201 O   0  0  0  0  0  0  0  0  0  0  0  0
   10.3799  -20.8101   22.7669 O   0  0  0  0  0  0  0  0  0  0  0  0
    7.4594  -11.8626   25.7088 C   0  0  0  0  0  0  0  0  0  0  0  0
    6.8915  -13.2204   26.0597 C   0  0  1  0  0  0  0  0  0  0  0  0
    5.5140  -13.0745   26.5829 C   0  0  0  0  0  0  0  0  0  0  0  0
    7.0995  -14.2284   24.9731 C   0  0  0  0  0  0  0  0  0  0  0  0
    8.5023  -14.6785   24.7555 C   0  0  2  0  0  0  0  0  0  0  0  0
    8.5189  -15.5635   23.5943 N   0  0  0  0  0  0  0  0  0  0  0  0
    9.0646  -15.4171   25.9131 C   0  0  0  0  0  0  0  0  0  0  0  0
    8.8128  -16.6591   25.9712 O   0  0  0  0  0  0  0  0  0  0  0  0
    9.8465  -14.8522   26.9379 N   0  0  0  0  0  0  0  0  0  0  0  0
   10.0994  -13.4890   27.3087 C   0  0  0  0  0  0  0  0  0  0  0  0
   10.1512  -13.6000   28.8379 C   0  0  0  0  0  0  0  0  0  0  0  0
   11.2058  -14.7206   28.9037 C   0  0  0  0  0  0  0  0  0  0  0  0
   10.6047  -15.6750   27.9006 C   0  0  1  0  0  0  0  0  0  0  0  0
    9.6546  -16.5748   28.5690 C   0  0  0  0  0  0  0  0  0  0  0  0
   10.0984  -17.5844   29.3993 O   0  0  0  0  0  0  0  0  0  0  0  0
    8.4206  -16.4358   28.3921 O   0  0  0  0  0  0  0  0  0  0  0  0
  2  1  1  6
  3  2  1  0
  4  3  1  0
  5  6  2  0
  5  4  1  0
  7  2  1  0
  7  8  2  0
  9  5  1  0
 11 12  1  6
 11 10  1  0
 13 11  1  0
 14 13  1  1
 15 14  1  0
 15  7  1  0
 16 14  1  0
 17 16  2  0
 18 16  1  0
 18 19  1  0
 20 19  1  0
 21 20  1  0
 22 21  1  0
 22 18  1  0
 22 23  1  1
 24 23  1  0
 25 23  2  0
M  END
$$$$
