ELP.pdb
     RDKit          3D

 25 25  0  0  1  0  0  0  0  0999 V2000
   10.6491  -15.9158   20.5137 N   0  0  0  0  0  0  0  0  0  0  0  0
    9.8322  -16.4849   21.5317 C   0  0  1  0  0  0  0  0  0  0  0  0
   10.2233  -17.8817   21.9061 C   0  0  0  0  0  0  0  0  0  0  0  0
   11.6863  -18.0621   22.1396 C   0  0  0  0  0  0  0  0  0  0  0  0
   12.0781  -19.4264   22.4126 C   0  0  0  0  0  0  0  0  0  0  0  0
   11.3792  -20.2741   22.9591 O   0  0  0  0  0  0  0  0  0  0  0  0
    9.7952  -15.6229   22.7596 C   0  0  0  0  0  0  0  0  0  0  0  0
   10.8412  -14.9481   23.0427 O   0  0  0  0  0  0  0  0  0  0  0  0
   13.3691  -19.8381   22.0259 O   0  0  0  0  0  0  0  0  0  0  0  0
    7.6924  -11.9048   25.8333 C   0  0  0  0  0  0  0  0  0  0  0  0
    7.1418  -13.2650   26.2017 C   0  0  1  0  0  0  0  0  0  0  0  0
    5.7862  -13.1240   26.7804 C   0  0  0  0  0  0  0  0  0  0  0  0
    7.3081  -14.2687   25.1039 C   0  0  0  0  0  0  0  0  0  0  0  0
    8.7055  -14.6860   24.8026 C   0  0  2  0  0  0  0  0  0  0  0  0
    8.6800  -15.5240   23.6072 N   0  0  0  0  0  0  0  0  0  0  0  0
    9.3334  -15.4602   25.9017 C   0  0  0  0  0  0  0  0  0  0  0  0
    9.2282  -16.7228   25.8396 O   0  0  0  0  0  0  0  0  0  0  0  0
   10.0286  -14.9075   26.9935 N   0  0  0  0  0  0  0  0  0  0  0  0
   10.1658  -13.5560   27.4566 C   0  0  0  0  0  0  0  0  0  0  0  0
   10.1615  -13.7592   28.9771 C   0  0  0  0  0  0  0  0  0  0  0  0
   11.2912  -14.8050   29.0245 C   0  0  0  0  0  0  0  0  0  0  0  0
   10.8038  -15.7341   27.9393 C   0  0  1  0  0  0  0  0  0  0  0  0
    9.8945  -16.7386   28.5081 C   0  0  0  0  0  0  0  0  0  0  0  0
   10.3743  -17.7587   29.3048 O   0  0  0  0  0  0  0  0  0  0  0  0
    8.6634  -16.6813   28.2749 O   0  0  0  0  0  0  0  0  0  0  0  0
  2  1  1  6
  3  2  1  0
  4  3  1  0
  5  6  2  0
  5  4  1  0
  7  2  1  0
  7  8  2  0
  9  5  1  0
 11 12  1  6
 11 10  1  0
 13 11  1  0
 14 13  1  1
 15 14  1  0
 15  7  1  0
 16 14  1  0
 17 16  2  0
 18 16  1  0
 18 19  1  0
 20 19  1  0
 21 20  1  0
 22 21  1  0
 22 18  1  0
 22 23  1  1
 24 23  1  0
 25 23  2  0
M  END
$$$$
