ELP.pdb
     RDKit          3D

 25 25  0  0  1  0  0  0  0  0999 V2000
    9.1425  -15.2277   20.4696 N   0  0  0  0  0  0  0  0  0  0  0  0
    8.5273  -15.8437   21.5965 C   0  0  1  0  0  0  0  0  0  0  0  0
    8.8082  -17.3109   21.7080 C   0  0  0  0  0  0  0  0  0  0  0  0
   10.2605  -17.6542   21.7077 C   0  0  0  0  0  0  0  0  0  0  0  0
   10.5331  -19.0737   21.7040 C   0  0  0  0  0  0  0  0  0  0  0  0
   11.6474  -19.5868   21.7328 O   0  0  0  0  0  0  0  0  0  0  0  0
    8.9024  -15.1572   22.8772 C   0  0  0  0  0  0  0  0  0  0  0  0
   10.0456  -14.5921   22.9348 O   0  0  0  0  0  0  0  0  0  0  0  0
    9.4393  -19.9612   21.6644 O   0  0  0  0  0  0  0  0  0  0  0  0
    5.5712  -12.1311   26.3864 C   0  0  0  0  0  0  0  0  0  0  0  0
    6.7474  -12.5727   25.5435 C   0  0  1  0  0  0  0  0  0  0  0  0
    7.7574  -11.4920   25.4759 C   0  0  0  0  0  0  0  0  0  0  0  0
    7.2396  -13.9368   25.9137 C   0  0  0  0  0  0  0  0  0  0  0  0
    8.4721  -14.4008   25.2184 C   0  0  2  0  0  0  0  0  0  0  0  0
    8.0692  -15.1082   24.0064 N   0  0  0  0  0  0  0  0  0  0  0  0
    9.2966  -15.3190   26.0423 C   0  0  0  0  0  0  0  0  0  0  0  0
    9.2276  -16.5535   25.7588 O   0  0  0  0  0  0  0  0  0  0  0  0
   10.1390  -14.9295   27.1003 N   0  0  0  0  0  0  0  0  0  0  0  0
   10.3825  -13.6537   27.7109 C   0  0  0  0  0  0  0  0  0  0  0  0
   10.5541  -14.0542   29.1818 C   0  0  0  0  0  0  0  0  0  0  0  0
   11.6406  -15.1219   28.9544 C   0  0  0  0  0  0  0  0  0  0  0  0
   10.9907  -15.8899   27.8292 C   0  0  1  0  0  0  0  0  0  0  0  0
   10.1192  -16.9399   28.3743 C   0  0  0  0  0  0  0  0  0  0  0  0
   10.6517  -18.0471   29.0038 O   0  0  0  0  0  0  0  0  0  0  0  0
    8.8727  -16.8426   28.2736 O   0  0  0  0  0  0  0  0  0  0  0  0
  2  1  1  6
  3  2  1  0
  4  3  1  0
  5  6  2  0
  5  4  1  0
  7  2  1  0
  7  8  2  0
  9  5  1  0
 11 12  1  1
 11 10  1  0
 13 11  1  0
 14 13  1  1
 15 14  1  0
 15  7  1  0
 16 14  1  0
 17 16  2  0
 18 16  1  0
 18 19  1  0
 20 19  1  0
 21 20  1  0
 22 21  1  0
 22 18  1  0
 22 23  1  1
 24 23  1  0
 25 23  2  0
M  END
$$$$
