ELP.pdb
     RDKit          3D

 25 25  0  0  1  0  0  0  0  0999 V2000
   10.5236  -15.7681   20.4691 N   0  0  0  0  0  0  0  0  0  0  0  0
   10.0579  -16.5729   21.5476 C   0  0  1  0  0  0  0  0  0  0  0  0
   10.8939  -17.7912   21.7937 C   0  0  0  0  0  0  0  0  0  0  0  0
   10.4679  -18.5925   22.9785 C   0  0  0  0  0  0  0  0  0  0  0  0
   10.1907  -19.9805   22.6855 C   0  0  0  0  0  0  0  0  0  0  0  0
    9.8123  -20.8196   23.4970 O   0  0  0  0  0  0  0  0  0  0  0  0
    9.9309  -15.7808   22.8160 C   0  0  0  0  0  0  0  0  0  0  0  0
   10.9505  -15.1198   23.2073 O   0  0  0  0  0  0  0  0  0  0  0  0
   10.3634  -20.4284   21.3607 O   0  0  0  0  0  0  0  0  0  0  0  0
    7.3041  -12.1530   25.7516 C   0  0  0  0  0  0  0  0  0  0  0  0
    6.8997  -13.5773   26.0630 C   0  0  1  0  0  0  0  0  0  0  0  0
    5.5194  -13.6075   26.5981 C   0  0  0  0  0  0  0  0  0  0  0  0
    7.2128  -14.5210   24.9443 C   0  0  0  0  0  0  0  0  0  0  0  0
    8.6510  -14.8553   24.7509 C   0  0  2  0  0  0  0  0  0  0  0  0
    8.7597  -15.7329   23.5891 N   0  0  0  0  0  0  0  0  0  0  0  0
    9.2511  -15.5490   25.9173 C   0  0  0  0  0  0  0  0  0  0  0  0
    9.1350  -16.8118   25.9488 O   0  0  0  0  0  0  0  0  0  0  0  0
    9.9312  -14.9207   26.9773 N   0  0  0  0  0  0  0  0  0  0  0  0
   10.0791  -13.5386   27.3349 C   0  0  0  0  0  0  0  0  0  0  0  0
   10.0393  -13.6204   28.8663 C   0  0  0  0  0  0  0  0  0  0  0  0
   11.1516  -14.6742   29.0217 C   0  0  0  0  0  0  0  0  0  0  0  0
   10.6733  -15.6800   28.0027 C   0  0  1  0  0  0  0  0  0  0  0  0
    9.7369  -16.6238   28.6286 C   0  0  0  0  0  0  0  0  0  0  0  0
   10.1777  -17.5569   29.5454 O   0  0  0  0  0  0  0  0  0  0  0  0
    8.5177  -16.5930   28.3354 O   0  0  0  0  0  0  0  0  0  0  0  0
  2  1  1  6
  3  2  1  0
  4  3  1  0
  5  6  2  0
  5  4  1  0
  7  2  1  0
  7  8  2  0
  9  5  1  0
 11 12  1  6
 11 10  1  0
 13 11  1  0
 14 13  1  1
 15 14  1  0
 15  7  1  0
 16 14  1  0
 17 16  2  0
 18 16  1  0
 18 19  1  0
 20 19  1  0
 21 20  1  0
 22 21  1  0
 22 18  1  0
 22 23  1  1
 24 23  1  0
 25 23  2  0
M  END
$$$$
