ELP.pdb
     RDKit          3D

 25 25  0  0  1  0  0  0  0  0999 V2000
    9.5979  -15.8248   20.2776 N   0  0  0  0  0  0  0  0  0  0  0  0
    8.9938  -16.4076   21.4279 C   0  0  1  0  0  0  0  0  0  0  0  0
    9.5032  -17.7802   21.7447 C   0  0  0  0  0  0  0  0  0  0  0  0
    9.6291  -18.6723   20.5549 C   0  0  0  0  0  0  0  0  0  0  0  0
   10.7913  -19.5312   20.5795 C   0  0  0  0  0  0  0  0  0  0  0  0
   11.6805  -19.5051   21.4248 O   0  0  0  0  0  0  0  0  0  0  0  0
    9.1319  -15.5251   22.6339 C   0  0  0  0  0  0  0  0  0  0  0  0
   10.2476  -14.9301   22.8092 O   0  0  0  0  0  0  0  0  0  0  0  0
   10.9341  -20.4873   19.5543 O   0  0  0  0  0  0  0  0  0  0  0  0
    7.7214  -11.6253   25.9032 C   0  0  0  0  0  0  0  0  0  0  0  0
    6.9829  -12.9031   26.2362 C   0  0  1  0  0  0  0  0  0  0  0  0
    5.6731  -12.5868   26.8503 C   0  0  0  0  0  0  0  0  0  0  0  0
    6.9803  -13.8778   25.1004 C   0  0  0  0  0  0  0  0  0  0  0  0
    8.2995  -14.4651   24.7368 C   0  0  2  0  0  0  0  0  0  0  0  0
    8.1070  -15.3250   23.5726 N   0  0  0  0  0  0  0  0  0  0  0  0
    8.8959  -15.2792   25.8246 C   0  0  0  0  0  0  0  0  0  0  0  0
    8.5335  -16.4931   25.8898 O   0  0  0  0  0  0  0  0  0  0  0  0
    9.8216  -14.8133   26.7769 N   0  0  0  0  0  0  0  0  0  0  0  0
   10.2608  -13.4903   27.1182 C   0  0  0  0  0  0  0  0  0  0  0  0
   10.4283  -13.6139   28.6381 C   0  0  0  0  0  0  0  0  0  0  0  0
   11.3480  -14.8492   28.6203 C   0  0  0  0  0  0  0  0  0  0  0  0
   10.5581  -15.7229   27.6763 C   0  0  1  0  0  0  0  0  0  0  0  0
    9.5701  -16.5100   28.4271 C   0  0  0  0  0  0  0  0  0  0  0  0
    9.9509  -17.6245   29.1471 O   0  0  0  0  0  0  0  0  0  0  0  0
    8.3609  -16.1767   28.4228 O   0  0  0  0  0  0  0  0  0  0  0  0
  2  1  1  6
  3  2  1  0
  4  3  1  0
  5  6  2  0
  5  4  1  0
  7  2  1  0
  7  8  2  0
  9  5  1  0
 11 12  1  6
 11 10  1  0
 13 11  1  0
 14 13  1  1
 15 14  1  0
 15  7  1  0
 16 14  1  0
 17 16  2  0
 18 16  1  0
 18 19  1  0
 20 19  1  0
 21 20  1  0
 22 21  1  0
 22 18  1  0
 22 23  1  1
 24 23  1  0
 25 23  2  0
M  END
$$$$
