ELP.pdb
     RDKit          3D

 25 25  0  0  1  0  0  0  0  0999 V2000
    5.4600  -19.3888   24.9891 N   0  0  0  0  0  0  0  0  0  0  0  0
    6.7565  -18.8003   24.9632 C   0  0  1  0  0  0  0  0  0  0  0  0
    7.7719  -19.6143   24.2214 C   0  0  0  0  0  0  0  0  0  0  0  0
    9.1569  -19.0618   24.2820 C   0  0  0  0  0  0  0  0  0  0  0  0
   10.1263  -19.8090   23.5132 C   0  0  0  0  0  0  0  0  0  0  0  0
   11.3213  -19.5454   23.4215 O   0  0  0  0  0  0  0  0  0  0  0  0
    6.7216  -17.4062   24.4088 C   0  0  0  0  0  0  0  0  0  0  0  0
    5.9589  -17.1838   23.4096 O   0  0  0  0  0  0  0  0  0  0  0  0
    9.6814  -20.9405   22.8008 O   0  0  0  0  0  0  0  0  0  0  0  0
    7.8088  -12.5651   27.2508 C   0  0  0  0  0  0  0  0  0  0  0  0
    7.1467  -13.5716   26.3356 C   0  0  1  0  0  0  0  0  0  0  0  0
    5.8146  -13.0780   25.9177 C   0  0  0  0  0  0  0  0  0  0  0  0
    8.0610  -14.0518   25.2524 C   0  0  0  0  0  0  0  0  0  0  0  0
    7.4816  -15.0298   24.2904 C   0  0  2  0  0  0  0  0  0  0  0  0
    7.4807  -16.3442   24.9261 N   0  0  0  0  0  0  0  0  0  0  0  0
    8.2471  -15.1253   23.0227 C   0  0  0  0  0  0  0  0  0  0  0  0
    9.1948  -15.9679   22.9934 O   0  0  0  0  0  0  0  0  0  0  0  0
    8.0042  -14.3625   21.8652 N   0  0  0  0  0  0  0  0  0  0  0  0
    7.0846  -13.2935   21.5981 C   0  0  0  0  0  0  0  0  0  0  0  0
    7.9245  -12.4004   20.6758 C   0  0  0  0  0  0  0  0  0  0  0  0
    8.2969  -13.4917   19.6549 C   0  0  0  0  0  0  0  0  0  0  0  0
    8.7528  -14.5682   20.6098 C   0  0  1  0  0  0  0  0  0  0  0  0
   10.1825  -14.4044   20.9070 C   0  0  0  0  0  0  0  0  0  0  0  0
   11.1434  -14.7385   19.9739 O   0  0  0  0  0  0  0  0  0  0  0  0
   10.5498  -13.9563   22.0195 O   0  0  0  0  0  0  0  0  0  0  0  0
  2  1  1  6
  3  2  1  0
  4  3  1  0
  5  6  2  0
  5  4  1  0
  7  2  1  0
  7  8  2  0
  9  5  1  0
 11 12  1  6
 11 10  1  0
 13 11  1  0
 14 13  1  1
 15 14  1  0
 15  7  1  0
 16 14  1  0
 17 16  2  0
 18 16  1  0
 18 19  1  0
 20 19  1  0
 21 20  1  0
 22 21  1  0
 22 18  1  0
 22 23  1  1
 24 23  1  0
 25 23  2  0
M  END
$$$$
