TEV.pdb
     RDKit          3D

 24 23  0  0  1  0  0  0  0  0999 V2000
   18.2432  -12.9734  -17.2977 C   0  0  0  0  0  0  0  0  0  0  0  0
   18.3001  -11.5143  -16.8817 C   0  0  1  0  0  0  0  0  0  0  0  0
   18.1820  -11.3543  -15.5225 O   0  0  0  0  0  0  0  0  0  0  0  0
   19.5724  -10.8385  -17.3524 C   0  0  2  0  0  0  0  0  0  0  0  0
   20.7397  -11.4392  -16.7168 N   0  0  0  0  0  0  0  0  0  0  0  0
   19.6038   -9.3865  -17.0475 C   0  0  0  0  0  0  0  0  0  0  0  0
   18.7060   -8.6160  -17.4811 O   0  0  0  0  0  0  0  0  0  0  0  0
   20.6208   -8.7732  -16.2642 N   0  0  0  0  0  0  0  0  0  0  0  0
   20.6755   -7.3267  -16.0581 C   0  0  1  0  0  0  0  0  0  0  0  0
   21.4026   -7.0856  -14.7660 C   0  0  0  0  0  0  0  0  0  0  0  0
   21.4686   -5.6592  -14.3438 C   0  0  0  0  0  0  0  0  0  0  0  0
   22.2096   -5.5079  -13.0883 C   0  0  0  0  0  0  0  0  0  0  0  0
   22.3842   -6.4526  -12.2992 O   0  0  0  0  0  0  0  0  0  0  0  0
   21.4611   -6.6774  -17.1460 C   0  0  0  0  0  0  0  0  0  0  0  0
   22.5184   -7.2293  -17.5336 O   0  0  0  0  0  0  0  0  0  0  0  0
   22.7336   -4.2629  -12.7726 O   0  0  0  0  0  0  0  0  0  0  0  0
   20.4998   -5.9154  -20.6346 C   0  0  0  0  0  0  0  0  0  0  0  0
   21.0134   -4.6301  -20.0595 C   0  0  1  0  0  0  0  0  0  0  0  0
   19.8787   -3.6859  -19.8016 C   0  0  0  0  0  0  0  0  0  0  0  0
   21.8447   -4.9070  -18.8171 C   0  0  2  0  0  0  0  0  0  0  0  0
   21.0540   -5.4665  -17.7497 N   0  0  0  0  0  0  0  0  0  0  0  0
   22.5200   -3.6596  -18.4181 C   0  0  0  0  0  0  0  0  0  0  0  0
   23.5280   -3.1416  -19.2056 O   0  0  0  0  0  0  0  0  0  0  0  0
   22.2002   -3.0500  -17.3710 O   0  0  0  0  0  0  0  0  0  0  0  0
  2  1  1  1
  2  4  1  0
  2  3  1  0
  4  5  1  1
  6  8  1  0
  6  4  1  0
  7  6  2  0
  9  8  1  0
 10 11  1  0
  9 10  1  1
 12 11  1  0
 13 12  2  0
 14  9  1  0
 14 21  1  0
 15 14  2  0
 16 12  1  0
 18 20  1  0
 18 17  1  1
 19 18  1  0
 20 21  1  1
 20 22  1  0
 22 24  2  0
 22 23  1  0
M  END
$$$$
