TEV.pdb
     RDKit          3D

 24 23  0  0  1  0  0  0  0  0999 V2000
   24.4428  -14.0675  -15.9139 C   0  0  0  0  0  0  0  0  0  0  0  0
   23.9646  -12.6719  -16.2726 C   0  0  1  0  0  0  0  0  0  0  0  0
   24.8044  -12.0448  -17.1606 O   0  0  0  0  0  0  0  0  0  0  0  0
   22.5593  -12.6811  -16.8403 C   0  0  2  0  0  0  0  0  0  0  0  0
   22.5433  -13.2920  -18.1647 N   0  0  0  0  0  0  0  0  0  0  0  0
   21.9807  -11.3213  -16.9759 C   0  0  0  0  0  0  0  0  0  0  0  0
   22.1270  -10.6602  -18.0387 O   0  0  0  0  0  0  0  0  0  0  0  0
   21.2377  -10.6806  -15.9455 N   0  0  0  0  0  0  0  0  0  0  0  0
   20.6627   -9.3474  -16.1175 C   0  0  1  0  0  0  0  0  0  0  0  0
   19.2714   -9.3835  -15.5525 C   0  0  0  0  0  0  0  0  0  0  0  0
   18.5605   -8.0750  -15.5602 C   0  0  0  0  0  0  0  0  0  0  0  0
   17.2069   -8.1999  -15.0122 C   0  0  0  0  0  0  0  0  0  0  0  0
   16.5455   -7.2158  -14.6385 O   0  0  0  0  0  0  0  0  0  0  0  0
   21.4405   -8.3428  -15.3375 C   0  0  0  0  0  0  0  0  0  0  0  0
   21.9396   -8.6908  -14.2410 O   0  0  0  0  0  0  0  0  0  0  0  0
   16.6469   -9.4648  -14.9081 O   0  0  0  0  0  0  0  0  0  0  0  0
   24.4053   -6.1204  -16.3416 C   0  0  0  0  0  0  0  0  0  0  0  0
   23.3318   -5.2459  -15.7677 C   0  0  1  0  0  0  0  0  0  0  0  0
   22.6703   -4.4538  -16.8543 C   0  0  0  0  0  0  0  0  0  0  0  0
   22.3483   -6.0821  -14.9648 C   0  0  2  0  0  0  0  0  0  0  0  0
   21.6311   -7.0189  -15.7928 N   0  0  0  0  0  0  0  0  0  0  0  0
   21.4450   -5.1728  -14.2378 C   0  0  0  0  0  0  0  0  0  0  0  0
   21.9277   -4.4196  -13.1870 O   0  0  0  0  0  0  0  0  0  0  0  0
   20.2366   -5.0640  -14.5515 O   0  0  0  0  0  0  0  0  0  0  0  0
  2  1  1  6
  2  4  1  0
  2  3  1  0
  4  5  1  6
  6  8  1  0
  6  4  1  0
  7  6  2  0
  9  8  1  0
 10 11  1  0
  9 10  1  1
 12 11  1  0
 13 12  2  0
 14  9  1  0
 14 21  1  0
 15 14  2  0
 16 12  1  0
 18 20  1  0
 18 17  1  6
 19 18  1  0
 20 21  1  6
 20 22  1  0
 22 24  2  0
 22 23  1  0
M  END
$$$$
