TEV.pdb
     RDKit          3D

 24 23  0  0  1  0  0  0  0  0999 V2000
   23.7263  -12.1459  -15.0101 C   0  0  0  0  0  0  0  0  0  0  0  0
   23.2527  -12.9958  -16.1757 C   0  0  1  0  0  0  0  0  0  0  0  0
   23.6079  -14.3155  -16.0372 O   0  0  0  0  0  0  0  0  0  0  0  0
   21.7530  -12.9035  -16.3738 C   0  0  2  0  0  0  0  0  0  0  0  0
   21.3383  -13.6833  -17.5345 N   0  0  0  0  0  0  0  0  0  0  0  0
   21.2817  -11.5125  -16.5870 C   0  0  0  0  0  0  0  0  0  0  0  0
   21.5242  -10.9065  -17.6648 O   0  0  0  0  0  0  0  0  0  0  0  0
   20.5411  -10.7800  -15.6179 N   0  0  0  0  0  0  0  0  0  0  0  0
   20.1237   -9.3969  -15.8428 C   0  0  1  0  0  0  0  0  0  0  0  0
   18.7395   -9.2494  -15.2787 C   0  0  0  0  0  0  0  0  0  0  0  0
   18.1677   -7.8781  -15.3788 C   0  0  0  0  0  0  0  0  0  0  0  0
   16.7848   -7.8399  -14.8945 C   0  0  0  0  0  0  0  0  0  0  0  0
   15.9876   -6.9444  -15.2234 O   0  0  0  0  0  0  0  0  0  0  0  0
   21.0153   -8.4595  -15.1020 C   0  0  0  0  0  0  0  0  0  0  0  0
   21.3965   -8.7784  -13.9507 O   0  0  0  0  0  0  0  0  0  0  0  0
   16.3537   -8.8418  -14.0373 O   0  0  0  0  0  0  0  0  0  0  0  0
   24.2405   -6.6103  -16.3414 C   0  0  0  0  0  0  0  0  0  0  0  0
   23.2996   -5.6248  -15.7167 C   0  0  1  0  0  0  0  0  0  0  0  0
   22.6791   -4.7586  -16.7706 C   0  0  0  0  0  0  0  0  0  0  0  0
   22.2687   -6.3505  -14.8672 C   0  0  2  0  0  0  0  0  0  0  0  0
   21.4408   -7.2302  -15.6535 N   0  0  0  0  0  0  0  0  0  0  0  0
   21.4783   -5.3476  -14.1318 C   0  0  0  0  0  0  0  0  0  0  0  0
   22.0546   -4.6453  -13.0930 O   0  0  0  0  0  0  0  0  0  0  0  0
   20.2834   -5.1130  -14.4276 O   0  0  0  0  0  0  0  0  0  0  0  0
  2  1  1  1
  2  4  1  0
  2  3  1  0
  4  5  1  6
  6  8  1  0
  6  4  1  0
  7  6  2  0
  9  8  1  0
 10 11  1  0
  9 10  1  1
 12 11  1  0
 13 12  2  0
 14  9  1  0
 14 21  1  0
 15 14  2  0
 16 12  1  0
 18 20  1  0
 18 17  1  6
 19 18  1  0
 20 21  1  6
 20 22  1  0
 22 24  2  0
 22 23  1  0
M  END
$$$$
