TEV.pdb
     RDKit          3D

 24 23  0  0  1  0  0  0  0  0999 V2000
   11.8771  -11.2586  -10.9967 C   0  0  0  0  0  0  0  0  0  0  0  0
   12.6321  -12.5657  -11.1604 C   0  0  1  0  0  0  0  0  0  0  0  0
   11.8095  -13.5997  -11.5361 O   0  0  0  0  0  0  0  0  0  0  0  0
   13.7660  -12.4456  -12.1588 C   0  0  2  0  0  0  0  0  0  0  0  0
   14.4435  -13.7266  -12.3246 N   0  0  0  0  0  0  0  0  0  0  0  0
   14.7928  -11.4542  -11.7523 C   0  0  0  0  0  0  0  0  0  0  0  0
   15.6341  -11.7268  -10.8546 O   0  0  0  0  0  0  0  0  0  0  0  0
   14.9015  -10.1585  -12.3298 N   0  0  0  0  0  0  0  0  0  0  0  0
   15.8868   -9.1825  -11.8666 C   0  0  1  0  0  0  0  0  0  0  0  0
   16.5658   -8.6201  -13.0827 C   0  0  0  0  0  0  0  0  0  0  0  0
   17.8645   -9.2630  -13.4256 C   0  0  0  0  0  0  0  0  0  0  0  0
   18.4290   -8.7023  -14.6565 C   0  0  0  0  0  0  0  0  0  0  0  0
   18.0184   -9.0237  -15.7851 O   0  0  0  0  0  0  0  0  0  0  0  0
   15.2092   -8.0545  -11.1659 C   0  0  0  0  0  0  0  0  0  0  0  0
   14.0656   -7.7111  -11.5489 O   0  0  0  0  0  0  0  0  0  0  0  0
   19.4596   -7.7794  -14.5540 O   0  0  0  0  0  0  0  0  0  0  0  0
   15.1383   -7.3209   -7.2637 C   0  0  0  0  0  0  0  0  0  0  0  0
   14.2801   -6.6640   -8.3023 C   0  0  1  0  0  0  0  0  0  0  0  0
   13.5183   -5.5223   -7.7008 C   0  0  0  0  0  0  0  0  0  0  0  0
   15.1267   -6.2459   -9.4937 C   0  0  2  0  0  0  0  0  0  0  0  0
   15.8124   -7.3646  -10.0905 N   0  0  0  0  0  0  0  0  0  0  0  0
   16.0556   -5.1876   -9.0597 C   0  0  0  0  0  0  0  0  0  0  0  0
   15.6126   -3.8847   -8.9554 O   0  0  0  0  0  0  0  0  0  0  0  0
   17.2504   -5.4417   -8.7800 O   0  0  0  0  0  0  0  0  0  0  0  0
  2  1  1  6
  2  4  1  0
  2  3  1  0
  4  5  1  1
  6  8  1  0
  6  4  1  0
  7  6  2  0
  9  8  1  0
 10 11  1  0
  9 10  1  6
 12 11  1  0
 13 12  2  0
 14  9  1  0
 14 21  1  0
 15 14  2  0
 16 12  1  0
 18 20  1  0
 18 17  1  1
 19 18  1  0
 20 21  1  1
 20 22  1  0
 22 24  2  0
 22 23  1  0
M  END
$$$$
