TEV.pdb
     RDKit          3D

 24 23  0  0  1  0  0  0  0  0999 V2000
   16.6653  -14.1966  -14.5623 C   0  0  0  0  0  0  0  0  0  0  0  0
   17.3312  -12.8916  -14.9608 C   0  0  1  0  0  0  0  0  0  0  0  0
   18.4969  -13.0928  -15.6591 O   0  0  0  0  0  0  0  0  0  0  0  0
   16.4089  -12.0095  -15.7780 C   0  0  2  0  0  0  0  0  0  0  0  0
   16.1292  -12.6181  -17.0737 N   0  0  0  0  0  0  0  0  0  0  0  0
   16.9756  -10.6627  -16.0377 C   0  0  0  0  0  0  0  0  0  0  0  0
   17.5289  -10.3960  -17.1380 O   0  0  0  0  0  0  0  0  0  0  0  0
   16.9371   -9.6016  -15.0908 N   0  0  0  0  0  0  0  0  0  0  0  0
   17.5115   -8.2872  -15.3742 C   0  0  1  0  0  0  0  0  0  0  0  0
   16.5347   -7.2566  -14.8843 C   0  0  0  0  0  0  0  0  0  0  0  0
   16.9599   -5.8449  -15.0931 C   0  0  0  0  0  0  0  0  0  0  0  0
   15.9586   -4.9047  -14.5815 C   0  0  0  0  0  0  0  0  0  0  0  0
   14.7455   -5.0242  -14.8259 O   0  0  0  0  0  0  0  0  0  0  0  0
   18.7814   -8.1020  -14.6156 C   0  0  0  0  0  0  0  0  0  0  0  0
   18.8328   -8.4974  -13.4267 O   0  0  0  0  0  0  0  0  0  0  0  0
   16.3846   -3.8436  -13.7960 O   0  0  0  0  0  0  0  0  0  0  0  0
   22.4711   -7.7492  -16.5586 C   0  0  0  0  0  0  0  0  0  0  0  0
   22.2412   -8.3074  -15.1866 C   0  0  1  0  0  0  0  0  0  0  0  0
   23.5312   -8.3655  -14.4262 C   0  0  0  0  0  0  0  0  0  0  0  0
   21.1681   -7.5057  -14.4677 C   0  0  2  0  0  0  0  0  0  0  0  0
   19.9216   -7.4978  -15.1913 N   0  0  0  0  0  0  0  0  0  0  0  0
   21.6827   -6.1463  -14.2255 C   0  0  0  0  0  0  0  0  0  0  0  0
   22.6660   -5.9422  -13.2789 O   0  0  0  0  0  0  0  0  0  0  0  0
   21.2462   -5.1596  -14.8629 O   0  0  0  0  0  0  0  0  0  0  0  0
  2  1  1  6
  2  4  1  0
  2  3  1  0
  4  5  1  6
  6  8  1  0
  6  4  1  0
  7  6  2  0
  9  8  1  0
 10 11  1  0
  9 10  1  1
 12 11  1  0
 13 12  2  0
 14  9  1  0
 14 21  1  0
 15 14  2  0
 16 12  1  0
 18 20  1  0
 18 17  1  6
 19 18  1  0
 20 21  1  6
 20 22  1  0
 22 24  2  0
 22 23  1  0
M  END
$$$$
