TEV.pdb
     RDKit          3D

 24 23  0  0  1  0  0  0  0  0999 V2000
   12.5888  -11.5986  -12.2541 C   0  0  0  0  0  0  0  0  0  0  0  0
   13.3411  -12.9134  -12.1516 C   0  0  1  0  0  0  0  0  0  0  0  0
   12.6393  -13.9599  -12.6985 O   0  0  0  0  0  0  0  0  0  0  0  0
   14.7078  -12.8382  -12.8024 C   0  0  2  0  0  0  0  0  0  0  0  0
   15.4152  -14.1060  -12.6619 N   0  0  0  0  0  0  0  0  0  0  0  0
   15.5719  -11.7847  -12.2145 C   0  0  0  0  0  0  0  0  0  0  0  0
   16.0626  -11.9208  -11.0618 O   0  0  0  0  0  0  0  0  0  0  0  0
   15.9023  -10.5766  -12.8894 N   0  0  0  0  0  0  0  0  0  0  0  0
   16.7088   -9.5317  -12.2604 C   0  0  1  0  0  0  0  0  0  0  0  0
   17.5945   -8.9485  -13.3241 C   0  0  0  0  0  0  0  0  0  0  0  0
   18.4795   -7.8434  -12.8624 C   0  0  0  0  0  0  0  0  0  0  0  0
   19.2401   -7.2684  -13.9756 C   0  0  0  0  0  0  0  0  0  0  0  0
   20.2096   -7.8506  -14.4918 O   0  0  0  0  0  0  0  0  0  0  0  0
   15.8337   -8.4373  -11.7516 C   0  0  0  0  0  0  0  0  0  0  0  0
   14.8628   -8.0698  -12.4550 O   0  0  0  0  0  0  0  0  0  0  0  0
   18.8609   -6.0282  -14.4681 O   0  0  0  0  0  0  0  0  0  0  0  0
   13.5350   -8.1513   -8.9401 C   0  0  0  0  0  0  0  0  0  0  0  0
   14.5113   -7.0267   -8.7711 C   0  0  1  0  0  0  0  0  0  0  0  0
   15.4772   -7.3380   -7.6685 C   0  0  0  0  0  0  0  0  0  0  0  0
   15.2007   -6.7281  -10.0927 C   0  0  2  0  0  0  0  0  0  0  0  0
   16.0636   -7.8049  -10.5092 N   0  0  0  0  0  0  0  0  0  0  0  0
   15.9228   -5.4499   -9.9658 C   0  0  0  0  0  0  0  0  0  0  0  0
   15.2165   -4.2715   -9.8356 O   0  0  0  0  0  0  0  0  0  0  0  0
   17.1751   -5.4038   -9.9734 O   0  0  0  0  0  0  0  0  0  0  0  0
  2  1  1  6
  2  4  1  0
  2  3  1  0
  4  5  1  1
  6  8  1  0
  6  4  1  0
  7  6  2  0
  9  8  1  0
 10 11  1  0
  9 10  1  6
 12 11  1  0
 13 12  2  0
 14  9  1  0
 14 21  1  0
 15 14  2  0
 16 12  1  0
 18 20  1  0
 18 17  1  6
 19 18  1  0
 20 21  1  1
 20 22  1  0
 22 24  2  0
 22 23  1  0
M  END
$$$$
