TEV.pdb
     RDKit          3D

 24 23  0  0  1  0  0  0  0  0999 V2000
   24.8075  -21.7815  -18.3029 C   0  0  0  0  0  0  0  0  0  0  0  0
   24.1990  -20.5673  -17.6241 C   0  0  1  0  0  0  0  0  0  0  0  0
   23.2939  -20.9130  -16.6504 O   0  0  0  0  0  0  0  0  0  0  0  0
   25.2562  -19.6641  -17.0212 C   0  0  2  0  0  0  0  0  0  0  0  0
   26.0824  -20.4014  -16.0719 N   0  0  0  0  0  0  0  0  0  0  0  0
   24.6814  -18.5039  -16.2959 C   0  0  0  0  0  0  0  0  0  0  0  0
   24.4930  -18.5496  -15.0508 O   0  0  0  0  0  0  0  0  0  0  0  0
   24.3112  -17.2874  -16.9340 N   0  0  0  0  0  0  0  0  0  0  0  0
   23.7131  -16.1752  -16.1970 C   0  0  1  0  0  0  0  0  0  0  0  0
   23.9578  -14.9263  -16.9949 C   0  0  0  0  0  0  0  0  0  0  0  0
   23.4368  -13.6771  -16.3740 C   0  0  0  0  0  0  0  0  0  0  0  0
   23.7289  -12.5059  -17.2054 C   0  0  0  0  0  0  0  0  0  0  0  0
   24.8878  -12.1831  -17.5191 O   0  0  0  0  0  0  0  0  0  0  0  0
   22.2378  -16.3593  -16.0880 C   0  0  0  0  0  0  0  0  0  0  0  0
   21.6359  -16.9432  -17.0203 O   0  0  0  0  0  0  0  0  0  0  0  0
   22.6702  -11.7315  -17.6568 O   0  0  0  0  0  0  0  0  0  0  0  0
   18.1454  -16.7781  -13.5304 C   0  0  0  0  0  0  0  0  0  0  0  0
   19.6403  -16.7861  -13.6375 C   0  0  1  0  0  0  0  0  0  0  0  0
   20.1636  -18.1840  -13.5044 C   0  0  0  0  0  0  0  0  0  0  0  0
   20.0768  -16.1131  -14.9289 C   0  0  2  0  0  0  0  0  0  0  0  0
   21.5014  -15.8986  -14.9736 N   0  0  0  0  0  0  0  0  0  0  0  0
   19.3175  -14.8598  -15.0836 C   0  0  0  0  0  0  0  0  0  0  0  0
   19.9420  -13.6474  -14.8727 O   0  0  0  0  0  0  0  0  0  0  0  0
   18.1062  -14.8655  -15.4048 O   0  0  0  0  0  0  0  0  0  0  0  0
  2  1  1  1
  2  4  1  0
  2  3  1  0
  4  5  1  1
  6  8  1  0
  6  4  1  0
  7  6  2  0
  9  8  1  0
 10 11  1  0
  9 10  1  6
 12 11  1  0
 13 12  2  0
 14  9  1  0
 14 21  1  0
 15 14  2  0
 16 12  1  0
 18 20  1  0
 18 17  1  6
 19 18  1  0
 20 21  1  1
 20 22  1  0
 22 24  2  0
 22 23  1  0
M  END
$$$$
