TEV.pdb
     RDKit          3D

 24 23  0  0  1  0  0  0  0  0999 V2000
   17.3529  -14.1851  -15.7442 C   0  0  0  0  0  0  0  0  0  0  0  0
   18.0007  -12.8136  -15.6772 C   0  0  1  0  0  0  0  0  0  0  0  0
   19.2263  -12.8453  -15.0578 O   0  0  0  0  0  0  0  0  0  0  0  0
   18.1542  -12.1900  -17.0499 C   0  0  2  0  0  0  0  0  0  0  0  0
   19.0302  -13.0006  -17.8884 N   0  0  0  0  0  0  0  0  0  0  0  0
   18.7305  -10.8232  -17.0039 C   0  0  0  0  0  0  0  0  0  0  0  0
   19.8532  -10.5780  -17.5208 O   0  0  0  0  0  0  0  0  0  0  0  0
   18.0767   -9.7185  -16.3906 N   0  0  0  0  0  0  0  0  0  0  0  0
   18.6483   -8.3728  -16.4047 C   0  0  1  0  0  0  0  0  0  0  0  0
   17.5156   -7.4032  -16.2225 C   0  0  0  0  0  0  0  0  0  0  0  0
   17.9066   -5.9678  -16.2864 C   0  0  0  0  0  0  0  0  0  0  0  0
   16.7380   -5.0907  -16.1710 C   0  0  0  0  0  0  0  0  0  0  0  0
   15.7110   -5.2552  -16.8521 O   0  0  0  0  0  0  0  0  0  0  0  0
   19.5836   -8.1949  -15.2575 C   0  0  0  0  0  0  0  0  0  0  0  0
   19.2234   -8.5902  -14.1233 O   0  0  0  0  0  0  0  0  0  0  0  0
   16.7838   -4.0392  -15.2673 O   0  0  0  0  0  0  0  0  0  0  0  0
   22.7279   -9.7807  -14.6139 C   0  0  0  0  0  0  0  0  0  0  0  0
   23.0275   -8.3156  -14.5122 C   0  0  1  0  0  0  0  0  0  0  0  0
   23.7760   -7.8528  -15.7252 C   0  0  0  0  0  0  0  0  0  0  0  0
   21.7454   -7.5337  -14.2760 C   0  0  2  0  0  0  0  0  0  0  0  0
   20.8553   -7.5977  -15.4080 N   0  0  0  0  0  0  0  0  0  0  0  0
   22.1005   -6.1482  -13.9217 C   0  0  0  0  0  0  0  0  0  0  0  0
   21.6905   -5.1059  -14.7280 O   0  0  0  0  0  0  0  0  0  0  0  0
   22.7726   -5.8881  -12.8965 O   0  0  0  0  0  0  0  0  0  0  0  0
  2  1  1  6
  2  4  1  0
  2  3  1  0
  4  5  1  6
  6  8  1  0
  6  4  1  0
  7  6  2  0
  9  8  1  0
 10 11  1  0
  9 10  1  1
 12 11  1  0
 13 12  2  0
 14  9  1  0
 14 21  1  0
 15 14  2  0
 16 12  1  0
 18 20  1  0
 18 17  1  6
 19 18  1  0
 20 21  1  6
 20 22  1  0
 22 24  2  0
 22 23  1  0
M  END
$$$$
