TEV.pdb
     RDKit          3D

 24 23  0  0  1  0  0  0  0  0999 V2000
   16.3876  -11.3889  -11.2903 C   0  0  0  0  0  0  0  0  0  0  0  0
   15.0717  -11.5606  -12.0279 C   0  0  1  0  0  0  0  0  0  0  0  0
   14.1289  -12.2097  -11.2685 O   0  0  0  0  0  0  0  0  0  0  0  0
   14.5054  -10.2350  -12.4958 C   0  0  2  0  0  0  0  0  0  0  0  0
   13.2641  -10.4376  -13.2345 N   0  0  0  0  0  0  0  0  0  0  0  0
   15.4311   -9.4920  -13.3865 C   0  0  0  0  0  0  0  0  0  0  0  0
   15.6196   -9.8628  -14.5760 O   0  0  0  0  0  0  0  0  0  0  0  0
   16.1543   -8.3376  -12.9759 N   0  0  0  0  0  0  0  0  0  0  0  0
   17.0206   -7.5977  -13.8924 C   0  0  1  0  0  0  0  0  0  0  0  0
   16.4277   -6.2280  -14.0613 C   0  0  0  0  0  0  0  0  0  0  0  0
   15.5247   -6.0795  -15.2361 C   0  0  0  0  0  0  0  0  0  0  0  0
   15.8783   -4.9031  -16.0356 C   0  0  0  0  0  0  0  0  0  0  0  0
   16.7871   -4.1214  -15.7059 O   0  0  0  0  0  0  0  0  0  0  0  0
   18.3790   -7.4317  -13.3012 C   0  0  0  0  0  0  0  0  0  0  0  0
   18.4764   -7.2473  -12.0647 O   0  0  0  0  0  0  0  0  0  0  0  0
   15.1701   -4.6563  -17.2027 O   0  0  0  0  0  0  0  0  0  0  0  0
   21.4006   -9.7586  -13.5520 C   0  0  0  0  0  0  0  0  0  0  0  0
   21.8327   -8.3810  -13.9547 C   0  0  1  0  0  0  0  0  0  0  0  0
   22.0342   -8.3122  -15.4381 C   0  0  0  0  0  0  0  0  0  0  0  0
   20.8380   -7.3501  -13.4459 C   0  0  2  0  0  0  0  0  0  0  0  0
   19.5528   -7.4749  -14.0866 N   0  0  0  0  0  0  0  0  0  0  0  0
   21.4225   -6.0090  -13.6215 C   0  0  0  0  0  0  0  0  0  0  0  0
   22.4641   -5.6019  -12.8129 O   0  0  0  0  0  0  0  0  0  0  0  0
   20.9942   -5.2192  -14.4951 O   0  0  0  0  0  0  0  0  0  0  0  0
  2  1  1  1
  2  4  1  0
  2  3  1  0
  4  5  1  6
  6  8  1  0
  6  4  1  0
  7  6  2  0
  9  8  1  0
 10 11  1  0
  9 10  1  1
 12 11  1  0
 13 12  2  0
 14  9  1  0
 14 21  1  0
 15 14  2  0
 16 12  1  0
 18 20  1  0
 18 17  1  6
 19 18  1  0
 20 21  1  6
 20 22  1  0
 22 24  2  0
 22 23  1  0
M  END
$$$$
