TEV.pdb
     RDKit          3D

 24 23  0  0  1  0  0  0  0  0999 V2000
   24.4727  -12.5933  -18.0270 C   0  0  0  0  0  0  0  0  0  0  0  0
   23.4373  -11.8073  -17.2424 C   0  0  1  0  0  0  0  0  0  0  0  0
   22.5422  -12.6243  -16.5957 O   0  0  0  0  0  0  0  0  0  0  0  0
   24.0768  -10.8746  -16.2335 C   0  0  2  0  0  0  0  0  0  0  0  0
   24.8373  -11.6299  -15.2442 N   0  0  0  0  0  0  0  0  0  0  0  0
   23.0856  -10.0542  -15.4939 C   0  0  0  0  0  0  0  0  0  0  0  0
   22.4945  -10.5138  -14.4804 O   0  0  0  0  0  0  0  0  0  0  0  0
   22.7389   -8.7247  -15.8630 N   0  0  0  0  0  0  0  0  0  0  0  0
   21.7883   -7.9273  -15.0895 C   0  0  1  0  0  0  0  0  0  0  0  0
   22.2238   -6.4930  -15.1865 C   0  0  0  0  0  0  0  0  0  0  0  0
   21.3528   -5.5261  -14.4627 C   0  0  0  0  0  0  0  0  0  0  0  0
   21.9042   -4.1690  -14.5141 C   0  0  0  0  0  0  0  0  0  0  0  0
   23.0351   -3.9257  -14.9693 O   0  0  0  0  0  0  0  0  0  0  0  0
   20.4246   -8.0261  -15.6837 C   0  0  0  0  0  0  0  0  0  0  0  0
   20.3170   -8.0831  -16.9318 O   0  0  0  0  0  0  0  0  0  0  0  0
   21.1323   -3.1203  -14.0358 O   0  0  0  0  0  0  0  0  0  0  0  0
   15.7969   -9.3561  -15.5126 C   0  0  0  0  0  0  0  0  0  0  0  0
   17.2430   -9.4435  -15.1282 C   0  0  1  0  0  0  0  0  0  0  0  0
   17.8636  -10.6745  -15.7158 C   0  0  0  0  0  0  0  0  0  0  0  0
   17.9692   -8.1688  -15.5267 C   0  0  2  0  0  0  0  0  0  0  0  0
   19.2569   -8.0567  -14.8887 N   0  0  0  0  0  0  0  0  0  0  0  0
   17.0959   -7.0199  -15.2292 C   0  0  0  0  0  0  0  0  0  0  0  0
   16.2193   -6.5562  -16.1890 O   0  0  0  0  0  0  0  0  0  0  0  0
   17.1284   -6.4459  -14.1157 O   0  0  0  0  0  0  0  0  0  0  0  0
  2  1  1  1
  2  4  1  0
  2  3  1  0
  4  5  1  1
  6  8  1  0
  6  4  1  0
  7  6  2  0
  9  8  1  0
 10 11  1  0
  9 10  1  6
 12 11  1  0
 13 12  2  0
 14  9  1  0
 14 21  1  0
 15 14  2  0
 16 12  1  0
 18 20  1  0
 18 17  1  6
 19 18  1  0
 20 21  1  1
 20 22  1  0
 22 24  2  0
 22 23  1  0
M  END
$$$$
