TEV.pdb
     RDKit          3D

 24 23  0  0  1  0  0  0  0  0999 V2000
   27.1470  -11.1750  -15.1412 C   0  0  0  0  0  0  0  0  0  0  0  0
   26.0779  -10.2562  -15.7050 C   0  0  1  0  0  0  0  0  0  0  0  0
   26.4834   -9.6302  -16.8585 O   0  0  0  0  0  0  0  0  0  0  0  0
   24.7789  -10.9909  -15.9692 C   0  0  2  0  0  0  0  0  0  0  0  0
   24.9399  -11.9443  -17.0612 N   0  0  0  0  0  0  0  0  0  0  0  0
   23.6648  -10.0828  -16.3386 C   0  0  0  0  0  0  0  0  0  0  0  0
   23.4558   -9.7734  -17.5421 O   0  0  0  0  0  0  0  0  0  0  0  0
   22.7740   -9.5102  -15.3884 N   0  0  0  0  0  0  0  0  0  0  0  0
   21.6684   -8.6404  -15.7869 C   0  0  1  0  0  0  0  0  0  0  0  0
   20.3957   -9.2997  -15.3380 C   0  0  0  0  0  0  0  0  0  0  0  0
   19.9747  -10.4682  -16.1595 C   0  0  0  0  0  0  0  0  0  0  0  0
   18.7152  -11.0374  -15.6718 C   0  0  0  0  0  0  0  0  0  0  0  0
   17.8885  -10.3711  -15.0252 O   0  0  0  0  0  0  0  0  0  0  0  0
   21.7660   -7.3260  -15.0903 C   0  0  0  0  0  0  0  0  0  0  0  0
   22.2494   -7.2948  -13.9336 O   0  0  0  0  0  0  0  0  0  0  0  0
   18.4395  -12.3695  -15.9437 O   0  0  0  0  0  0  0  0  0  0  0  0
   21.7512   -3.6895  -17.1276 C   0  0  0  0  0  0  0  0  0  0  0  0
   22.3153   -3.8709  -15.7508 C   0  0  1  0  0  0  0  0  0  0  0  0
   22.4238   -2.5481  -15.0550 C   0  0  0  0  0  0  0  0  0  0  0  0
   21.4858   -4.8802  -14.9734 C   0  0  2  0  0  0  0  0  0  0  0  0
   21.3326   -6.1219  -15.6893 N   0  0  0  0  0  0  0  0  0  0  0  0
   20.1898   -4.2635  -14.6400 C   0  0  0  0  0  0  0  0  0  0  0  0
   19.0427   -4.6853  -15.2810 O   0  0  0  0  0  0  0  0  0  0  0  0
   20.1003   -3.3559  -13.7805 O   0  0  0  0  0  0  0  0  0  0  0  0
  2  1  1  6
  2  4  1  0
  2  3  1  0
  4  5  1  6
  6  8  1  0
  6  4  1  0
  7  6  2  0
  9  8  1  0
 10 11  1  0
  9 10  1  1
 12 11  1  0
 13 12  2  0
 14  9  1  0
 14 21  1  0
 15 14  2  0
 16 12  1  0
 18 20  1  0
 18 17  1  6
 19 18  1  0
 20 21  1  6
 20 22  1  0
 22 24  2  0
 22 23  1  0
M  END
$$$$
