TEV.pdb
     RDKit          3D

 24 23  0  0  1  0  0  0  0  0999 V2000
   16.1620  -15.9479  -17.0239 C   0  0  0  0  0  0  0  0  0  0  0  0
   17.0456  -14.8421  -16.4745 C   0  0  1  0  0  0  0  0  0  0  0  0
   18.2497  -14.7620  -17.1307 O   0  0  0  0  0  0  0  0  0  0  0  0
   16.3618  -13.4906  -16.5250 C   0  0  2  0  0  0  0  0  0  0  0  0
   16.1252  -13.0847  -17.9058 N   0  0  0  0  0  0  0  0  0  0  0  0
   17.1559  -12.4154  -15.8802 C   0  0  0  0  0  0  0  0  0  0  0  0
   17.0266  -12.1650  -14.6520 O   0  0  0  0  0  0  0  0  0  0  0  0
   18.0966  -11.6100  -16.5806 N   0  0  0  0  0  0  0  0  0  0  0  0
   18.8347  -10.5312  -15.9255 C   0  0  1  0  0  0  0  0  0  0  0  0
   20.2422  -10.5696  -16.4485 C   0  0  0  0  0  0  0  0  0  0  0  0
   21.1373   -9.5084  -15.9097 C   0  0  0  0  0  0  0  0  0  0  0  0
   22.4615   -9.5585  -16.5359 C   0  0  0  0  0  0  0  0  0  0  0  0
   22.9050   -8.6295  -17.2330 O   0  0  0  0  0  0  0  0  0  0  0  0
   18.2530   -9.2083  -16.2919 C   0  0  0  0  0  0  0  0  0  0  0  0
   18.0504   -8.9573  -17.5037 O   0  0  0  0  0  0  0  0  0  0  0  0
   23.2456  -10.6862  -16.3413 O   0  0  0  0  0  0  0  0  0  0  0  0
   15.1559   -7.6615  -16.2983 C   0  0  0  0  0  0  0  0  0  0  0  0
   15.9813   -6.7383  -15.4539 C   0  0  1  0  0  0  0  0  0  0  0  0
   15.6472   -6.9211  -14.0046 C   0  0  0  0  0  0  0  0  0  0  0  0
   17.4591   -6.9393  -15.7486 C   0  0  2  0  0  0  0  0  0  0  0  0
   17.9255   -8.2346  -15.3218 N   0  0  0  0  0  0  0  0  0  0  0  0
   18.2149   -5.8392  -15.1243 C   0  0  0  0  0  0  0  0  0  0  0  0
   19.0944   -6.1070  -14.0950 O   0  0  0  0  0  0  0  0  0  0  0  0
   18.0788   -4.6537  -15.5070 O   0  0  0  0  0  0  0  0  0  0  0  0
  2  1  1  6
  2  4  1  0
  2  3  1  0
  4  5  1  6
  6  8  1  0
  6  4  1  0
  7  6  2  0
  9  8  1  0
 10 11  1  0
  9 10  1  6
 12 11  1  0
 13 12  2  0
 14  9  1  0
 14 21  1  0
 15 14  2  0
 16 12  1  0
 18 20  1  0
 18 17  1  6
 19 18  1  0
 20 21  1  1
 20 22  1  0
 22 24  2  0
 22 23  1  0
M  END
$$$$
