TEV.pdb
     RDKit          3D

 24 23  0  0  1  0  0  0  0  0999 V2000
   13.9352   -8.7736   -7.0585 C   0  0  0  0  0  0  0  0  0  0  0  0
   14.8129   -8.3667   -8.2287 C   0  0  1  0  0  0  0  0  0  0  0  0
   15.2003   -9.4430   -8.9892 O   0  0  0  0  0  0  0  0  0  0  0  0
   14.1337   -7.3471   -9.1208 C   0  0  2  0  0  0  0  0  0  0  0  0
   12.9434   -7.9179   -9.7411 N   0  0  0  0  0  0  0  0  0  0  0  0
   15.0098   -6.8605  -10.2153 C   0  0  0  0  0  0  0  0  0  0  0  0
   14.8583   -7.2738  -11.3961 O   0  0  0  0  0  0  0  0  0  0  0  0
   16.0565   -5.9171  -10.0192 N   0  0  0  0  0  0  0  0  0  0  0  0
   16.8082   -5.3481  -11.1368 C   0  0  1  0  0  0  0  0  0  0  0  0
   16.6772   -3.8543  -11.0503 C   0  0  0  0  0  0  0  0  0  0  0  0
   17.3531   -3.1042  -12.1449 C   0  0  0  0  0  0  0  0  0  0  0  0
   17.2145   -1.6563  -11.9643 C   0  0  0  0  0  0  0  0  0  0  0  0
   17.7953   -0.8347  -12.6944 O   0  0  0  0  0  0  0  0  0  0  0  0
   18.2557   -5.6823  -11.0114 C   0  0  0  0  0  0  0  0  0  0  0  0
   18.7773   -5.6702   -9.8711 O   0  0  0  0  0  0  0  0  0  0  0  0
   16.4044   -1.1897  -10.9394 O   0  0  0  0  0  0  0  0  0  0  0  0
   20.2029   -8.7517  -12.1349 C   0  0  0  0  0  0  0  0  0  0  0  0
   20.8873   -7.5428  -12.6975 C   0  0  1  0  0  0  0  0  0  0  0  0
   20.6413   -7.4454  -14.1725 C   0  0  0  0  0  0  0  0  0  0  0  0
   20.4531   -6.2963  -11.9433 C   0  0  2  0  0  0  0  0  0  0  0  0
   19.0530   -6.0095  -12.1311 N   0  0  0  0  0  0  0  0  0  0  0  0
   21.3141   -5.1746  -12.3578 C   0  0  0  0  0  0  0  0  0  0  0  0
   22.6515   -5.1725  -12.0172 O   0  0  0  0  0  0  0  0  0  0  0  0
   20.8593   -4.2116  -13.0183 O   0  0  0  0  0  0  0  0  0  0  0  0
  2  1  1  1
  2  4  1  0
  2  3  1  0
  4  5  1  6
  6  8  1  0
  6  4  1  0
  7  6  2  0
  9  8  1  0
 10 11  1  0
  9 10  1  1
 12 11  1  0
 13 12  2  0
 14  9  1  0
 14 21  1  0
 15 14  2  0
 16 12  1  0
 18 20  1  0
 18 17  1  1
 19 18  1  0
 20 21  1  6
 20 22  1  0
 22 24  2  0
 22 23  1  0
M  END
$$$$
