QMT.pdb
     RDKit          3D

 25 24  0  0  1  0  0  0  0  0999 V2000
    8.8448  -12.6886   17.3634 N   0  0  0  0  0  0  0  0  0  0  0  0
    7.9738  -13.8019   17.2683 C   0  0  0  0  0  0  0  0  0  0  0  0
    7.2429  -13.8792   16.2556 O   0  0  0  0  0  0  0  0  0  0  0  0
    7.9871  -14.7834   18.3571 C   0  0  0  0  0  0  0  0  0  0  0  0
    8.9442  -14.4387   19.4707 C   0  0  0  0  0  0  0  0  0  0  0  0
    8.8433  -15.5815   20.4799 C   0  0  2  0  0  0  0  0  0  0  0  0
    7.6198  -16.3206   20.2599 N   0  0  0  0  0  0  0  0  0  0  0  0
    8.9969  -15.1464   21.8690 C   0  0  0  0  0  0  0  0  0  0  0  0
   10.0504  -14.5672   22.2220 O   0  0  0  0  0  0  0  0  0  0  0  0
    6.9586  -11.2567   27.8341 C   0  0  0  0  0  0  0  0  0  0  0  0
    6.8553  -11.8142   26.1234 S   0  0  0  0  0  0  0  0  0  0  0  0
    7.0100  -13.6290   26.0659 C   0  0  0  0  0  0  0  0  0  0  0  0
    7.0205  -14.0190   24.6132 C   0  0  0  0  0  0  0  0  0  0  0  0
    8.1075  -14.9624   24.2358 C   0  0  2  0  0  0  0  0  0  0  0  0
    7.9745  -15.3678   22.8267 N   0  0  0  0  0  0  0  0  0  0  0  0
    8.2303  -16.1621   25.0943 C   0  0  0  0  0  0  0  0  0  0  0  0
    7.2841  -16.9040   25.3911 O   0  0  0  0  0  0  0  0  0  0  0  0
   10.1059  -19.1803   24.3877 C   0  0  0  0  0  0  0  0  0  0  0  0
   10.6731  -18.6523   25.7007 C   0  0  1  0  0  0  0  0  0  0  0  0
   11.8357  -17.9277   25.4294 O   0  0  0  0  0  0  0  0  0  0  0  0
    9.6980  -17.7289   26.3828 C   0  0  2  0  0  0  0  0  0  0  0  0
    9.5077  -16.5127   25.6298 N   0  0  0  0  0  0  0  0  0  0  0  0
   10.2458  -17.3804   27.7223 C   0  0  0  0  0  0  0  0  0  0  0  0
   10.5421  -16.1956   27.9939 O   0  0  0  0  0  0  0  0  0  0  0  0
   10.4275  -18.3797   28.6734 O   0  0  0  0  0  0  0  0  0  0  0  0
  2  1  1  0
  2  3  2  0
  4  2  1  0
  5  4  1  0
  6  5  1  0
  6  7  1  1
  8  6  1  0
  8  9  2  0
 10 11  1  0
 11 12  1  0
 14 13  1  1
 13 12  1  0
 14 15  1  0
 15  8  1  0
 16 14  1  0
 17 16  2  0
 19 18  1  6
 19 21  1  0
 20 19  1  0
 21 23  1  0
 21 22  1  6
 22 16  1  0
 23 25  1  0
 24 23  2  0
M  END
$$$$
