QMT.pdb
     RDKit          3D

 25 24  0  0  1  0  0  0  0  0999 V2000
    8.8252  -12.6189   17.4424 N   0  0  0  0  0  0  0  0  0  0  0  0
    8.2040  -13.7875   17.9479 C   0  0  0  0  0  0  0  0  0  0  0  0
    8.3574  -14.8488   17.3032 O   0  0  0  0  0  0  0  0  0  0  0  0
    7.4270  -13.6754   19.1860 C   0  0  0  0  0  0  0  0  0  0  0  0
    8.2778  -13.5385   20.4239 C   0  0  0  0  0  0  0  0  0  0  0  0
    8.1976  -14.8861   21.1397 C   0  0  2  0  0  0  0  0  0  0  0  0
    6.8792  -15.4542   20.9646 N   0  0  0  0  0  0  0  0  0  0  0  0
    8.6023  -14.8236   22.5449 C   0  0  0  0  0  0  0  0  0  0  0  0
    9.7356  -14.3798   22.8423 O   0  0  0  0  0  0  0  0  0  0  0  0
    7.0056  -11.8047   27.6847 C   0  0  0  0  0  0  0  0  0  0  0  0
    6.3741  -11.6722   26.0019 S   0  0  0  0  0  0  0  0  0  0  0  0
    7.2501  -12.8568   24.9296 C   0  0  0  0  0  0  0  0  0  0  0  0
    7.3828  -14.1352   25.7109 C   0  0  0  0  0  0  0  0  0  0  0  0
    8.1170  -15.2180   25.0017 C   0  0  2  0  0  0  0  0  0  0  0  0
    7.7352  -15.2568   23.5803 N   0  0  0  0  0  0  0  0  0  0  0  0
    7.9823  -16.5674   25.5952 C   0  0  0  0  0  0  0  0  0  0  0  0
    6.8987  -17.1289   25.8058 O   0  0  0  0  0  0  0  0  0  0  0  0
    8.8622  -19.8082   24.3069 C   0  0  0  0  0  0  0  0  0  0  0  0
    9.6973  -19.6386   25.5711 C   0  0  1  0  0  0  0  0  0  0  0  0
   10.9654  -19.1758   25.2139 O   0  0  0  0  0  0  0  0  0  0  0  0
    9.0783  -18.6283   26.5011 C   0  0  2  0  0  0  0  0  0  0  0  0
    9.1579  -17.2934   25.9588 N   0  0  0  0  0  0  0  0  0  0  0  0
    9.8218  -18.6651   27.7902 C   0  0  0  0  0  0  0  0  0  0  0  0
   10.4256  -17.6487   28.1994 O   0  0  0  0  0  0  0  0  0  0  0  0
    9.8427  -19.8371   28.5400 O   0  0  0  0  0  0  0  0  0  0  0  0
  2  1  1  0
  2  3  2  0
  4  2  1  0
  5  4  1  0
  6  5  1  0
  6  7  1  1
  8  6  1  0
  8  9  2  0
 10 11  1  0
 11 12  1  0
 14 13  1  1
 13 12  1  0
 14 15  1  0
 15  8  1  0
 16 14  1  0
 17 16  2  0
 19 18  1  6
 19 21  1  0
 20 19  1  0
 21 23  1  0
 21 22  1  6
 22 16  1  0
 23 25  1  0
 24 23  2  0
M  END
$$$$
