QMT.pdb
     RDKit          3D

 25 24  0  0  1  0  0  0  0  0999 V2000
    8.6408  -12.1675   17.9988 N   0  0  0  0  0  0  0  0  0  0  0  0
    8.1236  -13.4083   17.5515 C   0  0  0  0  0  0  0  0  0  0  0  0
    7.8986  -13.5331   16.3270 O   0  0  0  0  0  0  0  0  0  0  0  0
    7.8880  -14.4572   18.5481 C   0  0  0  0  0  0  0  0  0  0  0  0
    8.1332  -14.0094   19.9674 C   0  0  0  0  0  0  0  0  0  0  0  0
    8.0890  -15.2760   20.8210 C   0  0  2  0  0  0  0  0  0  0  0  0
    6.7467  -15.8143   20.8265 N   0  0  0  0  0  0  0  0  0  0  0  0
    8.6265  -15.0880   22.1693 C   0  0  0  0  0  0  0  0  0  0  0  0
    9.8135  -14.7142   22.3147 O   0  0  0  0  0  0  0  0  0  0  0  0
    7.0334  -11.7376   27.3518 C   0  0  0  0  0  0  0  0  0  0  0  0
    6.0373  -12.0399   25.8807 S   0  0  0  0  0  0  0  0  0  0  0  0
    6.9831  -13.0635   24.7068 C   0  0  0  0  0  0  0  0  0  0  0  0
    7.4941  -14.2498   25.4775 C   0  0  0  0  0  0  0  0  0  0  0  0
    8.3500  -15.1761   24.6878 C   0  0  2  0  0  0  0  0  0  0  0  0
    7.8288  -15.3214   23.3185 N   0  0  0  0  0  0  0  0  0  0  0  0
    8.5596  -16.5120   25.2900 C   0  0  0  0  0  0  0  0  0  0  0  0
    7.6625  -17.3507   25.4499 O   0  0  0  0  0  0  0  0  0  0  0  0
   10.3030  -19.4163   24.1499 C   0  0  0  0  0  0  0  0  0  0  0  0
   11.0125  -19.0204   25.4400 C   0  0  1  0  0  0  0  0  0  0  0  0
   12.1407  -18.2629   25.1187 O   0  0  0  0  0  0  0  0  0  0  0  0
   10.1211  -18.1791   26.3156 C   0  0  2  0  0  0  0  0  0  0  0  0
    9.8680  -16.8873   25.7245 N   0  0  0  0  0  0  0  0  0  0  0  0
   10.8055  -17.9804   27.6224 C   0  0  0  0  0  0  0  0  0  0  0  0
   11.1883  -16.8404   27.9671 O   0  0  0  0  0  0  0  0  0  0  0  0
   11.0182  -19.0701   28.4612 O   0  0  0  0  0  0  0  0  0  0  0  0
  2  1  1  0
  2  3  2  0
  4  2  1  0
  5  4  1  0
  6  5  1  0
  6  7  1  1
  8  6  1  0
  8  9  2  0
 10 11  1  0
 11 12  1  0
 14 13  1  1
 13 12  1  0
 14 15  1  0
 15  8  1  0
 16 14  1  0
 17 16  2  0
 19 18  1  6
 19 21  1  0
 20 19  1  0
 21 23  1  0
 21 22  1  6
 22 16  1  0
 23 25  1  0
 24 23  2  0
M  END
$$$$
