QMT.pdb
     RDKit          3D

 25 24  0  0  1  0  0  0  0  0999 V2000
    5.6633  -19.1872   20.3070 N   0  0  0  0  0  0  0  0  0  0  0  0
    7.0492  -19.3396   20.5584 C   0  0  0  0  0  0  0  0  0  0  0  0
    7.4958  -20.5049   20.6480 O   0  0  0  0  0  0  0  0  0  0  0  0
    7.8629  -18.1279   20.6960 C   0  0  0  0  0  0  0  0  0  0  0  0
    7.0856  -16.8511   20.4939 C   0  0  0  0  0  0  0  0  0  0  0  0
    8.1051  -15.7178   20.5991 C   0  0  2  0  0  0  0  0  0  0  0  0
    9.1498  -15.9081   19.6173 N   0  0  0  0  0  0  0  0  0  0  0  0
    8.6306  -15.5315   21.9525 C   0  0  0  0  0  0  0  0  0  0  0  0
    9.7864  -15.9298   22.2266 O   0  0  0  0  0  0  0  0  0  0  0  0
    5.4633  -11.8640   26.3465 C   0  0  0  0  0  0  0  0  0  0  0  0
    7.1716  -11.7703   26.9132 S   0  0  0  0  0  0  0  0  0  0  0  0
    8.0690  -13.2661   26.3863 C   0  0  0  0  0  0  0  0  0  0  0  0
    7.6241  -13.5682   24.9816 C   0  0  0  0  0  0  0  0  0  0  0  0
    8.3661  -14.6785   24.3251 C   0  0  2  0  0  0  0  0  0  0  0  0
    7.8555  -14.9077   22.9632 N   0  0  0  0  0  0  0  0  0  0  0  0
    8.3883  -15.9547   25.0747 C   0  0  0  0  0  0  0  0  0  0  0  0
    7.3847  -16.6429   25.3052 O   0  0  0  0  0  0  0  0  0  0  0  0
    9.8614  -19.1279   24.2678 C   0  0  0  0  0  0  0  0  0  0  0  0
   10.5279  -18.7168   25.5760 C   0  0  1  0  0  0  0  0  0  0  0  0
   11.7690  -18.1451   25.2883 O   0  0  0  0  0  0  0  0  0  0  0  0
    9.7024  -17.6922   26.3092 C   0  0  2  0  0  0  0  0  0  0  0  0
    9.6305  -16.4506   25.5773 N   0  0  0  0  0  0  0  0  0  0  0  0
   10.3446  -17.4332   27.6269 C   0  0  0  0  0  0  0  0  0  0  0  0
   10.4470  -18.3518   28.4700 O   0  0  0  0  0  0  0  0  0  0  0  0
   10.8316  -16.1628   27.9179 O   0  0  0  0  0  0  0  0  0  0  0  0
  2  1  1  0
  2  3  2  0
  4  2  1  0
  5  4  1  0
  6  5  1  0
  6  7  1  6
  8  6  1  0
  8  9  2  0
 10 11  1  0
 11 12  1  0
 14 13  1  1
 13 12  1  0
 14 15  1  0
 15  8  1  0
 16 14  1  0
 17 16  2  0
 19 18  1  6
 19 21  1  0
 20 19  1  0
 21 23  1  0
 21 22  1  6
 22 16  1  0
 23 25  1  0
 24 23  2  0
M  END
$$$$
