QMT.pdb
     RDKit          3D

 25 24  0  0  1  0  0  0  0  0999 V2000
    9.8119  -17.3576   18.0309 N   0  0  0  0  0  0  0  0  0  0  0  0
    8.4312  -17.4423   18.3366 C   0  0  0  0  0  0  0  0  0  0  0  0
    7.8132  -18.4568   17.9435 O   0  0  0  0  0  0  0  0  0  0  0  0
    7.8222  -16.3413   19.0891 C   0  0  0  0  0  0  0  0  0  0  0  0
    8.8127  -15.2983   19.5430 C   0  0  0  0  0  0  0  0  0  0  0  0
    8.0207  -14.3122   20.4006 C   0  0  2  0  0  0  0  0  0  0  0  0
    8.0739  -12.9953   19.8053 N   0  0  0  0  0  0  0  0  0  0  0  0
    8.4230  -14.3113   21.8079 C   0  0  0  0  0  0  0  0  0  0  0  0
    9.5007  -13.7667   22.1421 O   0  0  0  0  0  0  0  0  0  0  0  0
    6.8701  -10.3484   26.5883 C   0  0  0  0  0  0  0  0  0  0  0  0
    6.8644  -12.1499   26.6403 S   0  0  0  0  0  0  0  0  0  0  0  0
    6.8199  -12.8062   24.9410 C   0  0  0  0  0  0  0  0  0  0  0  0
    6.9076  -14.3038   25.0505 C   0  0  0  0  0  0  0  0  0  0  0  0
    7.9848  -14.9202   24.2295 C   0  0  2  0  0  0  0  0  0  0  0  0
    7.6153  -14.9165   22.8043 N   0  0  0  0  0  0  0  0  0  0  0  0
    8.3913  -16.2832   24.6397 C   0  0  0  0  0  0  0  0  0  0  0  0
    7.6040  -17.2270   24.7915 O   0  0  0  0  0  0  0  0  0  0  0  0
   11.4292  -18.2427   23.0753 C   0  0  0  0  0  0  0  0  0  0  0  0
   11.5469  -18.2043   24.5949 C   0  0  1  0  0  0  0  0  0  0  0  0
   12.4516  -17.2019   24.9508 O   0  0  0  0  0  0  0  0  0  0  0  0
   10.2219  -17.8840   25.2357 C   0  0  2  0  0  0  0  0  0  0  0  0
    9.7718  -16.5590   24.8834 N   0  0  0  0  0  0  0  0  0  0  0  0
   10.3902  -17.9541   26.7131 C   0  0  0  0  0  0  0  0  0  0  0  0
   10.1770  -16.9447   27.4208 O   0  0  0  0  0  0  0  0  0  0  0  0
   10.7864  -19.1493   27.3052 O   0  0  0  0  0  0  0  0  0  0  0  0
  2  1  1  0
  2  3  2  0
  4  2  1  0
  5  4  1  0
  6  5  1  0
  6  7  1  6
  8  6  1  0
  8  9  2  0
 10 11  1  0
 11 12  1  0
 14 13  1  1
 13 12  1  0
 14 15  1  0
 15  8  1  0
 16 14  1  0
 17 16  2  0
 19 18  1  6
 19 21  1  0
 20 19  1  0
 21 23  1  0
 21 22  1  1
 22 16  1  0
 23 25  1  0
 24 23  2  0
M  END
$$$$
