QMT.pdb
     RDKit          3D

 25 24  0  0  1  0  0  0  0  0999 V2000
    8.0062  -12.5566   17.3548 N   0  0  0  0  0  0  0  0  0  0  0  0
    8.2708  -13.9225   17.0877 C   0  0  0  0  0  0  0  0  0  0  0  0
    8.2655  -14.2891   15.8914 O   0  0  0  0  0  0  0  0  0  0  0  0
    8.5315  -14.8101   18.2249 C   0  0  0  0  0  0  0  0  0  0  0  0
    8.4803  -14.1123   19.5611 C   0  0  0  0  0  0  0  0  0  0  0  0
    8.7935  -15.1824   20.6059 C   0  0  2  0  0  0  0  0  0  0  0  0
    7.8819  -16.2947   20.4540 N   0  0  0  0  0  0  0  0  0  0  0  0
    8.8295  -14.6660   21.9750 C   0  0  0  0  0  0  0  0  0  0  0  0
    9.6986  -13.8218   22.2943 O   0  0  0  0  0  0  0  0  0  0  0  0
    6.8081  -11.5028   27.9447 C   0  0  0  0  0  0  0  0  0  0  0  0
    7.2144  -12.2613   26.3612 S   0  0  0  0  0  0  0  0  0  0  0  0
    6.5059  -13.9388   26.2920 C   0  0  0  0  0  0  0  0  0  0  0  0
    6.5671  -14.3780   24.8548 C   0  0  0  0  0  0  0  0  0  0  0  0
    7.9410  -14.6443   24.3493 C   0  0  2  0  0  0  0  0  0  0  0  0
    7.8979  -15.1032   22.9510 N   0  0  0  0  0  0  0  0  0  0  0  0
    8.7427  -15.5862   25.1626 C   0  0  0  0  0  0  0  0  0  0  0  0
    8.9441  -15.4576   26.3778 O   0  0  0  0  0  0  0  0  0  0  0  0
    8.6215  -19.6785   24.7502 C   0  0  0  0  0  0  0  0  0  0  0  0
   10.0126  -19.0640   24.6419 C   0  0  1  0  0  0  0  0  0  0  0  0
   10.3280  -18.8998   23.2915 O   0  0  0  0  0  0  0  0  0  0  0  0
   10.0623  -17.7097   25.2993 C   0  0  2  0  0  0  0  0  0  0  0  0
    9.3348  -16.7251   24.5352 N   0  0  0  0  0  0  0  0  0  0  0  0
   11.4870  -17.2875   25.3887 C   0  0  0  0  0  0  0  0  0  0  0  0
   11.8809  -16.2650   24.7850 O   0  0  0  0  0  0  0  0  0  0  0  0
   12.3808  -18.0361   26.1481 O   0  0  0  0  0  0  0  0  0  0  0  0
  2  1  1  0
  2  3  2  0
  4  2  1  0
  5  4  1  0
  6  5  1  0
  6  7  1  1
  8  6  1  0
  8  9  2  0
 10 11  1  0
 11 12  1  0
 14 13  1  1
 13 12  1  0
 14 15  1  0
 15  8  1  0
 16 14  1  0
 17 16  2  0
 19 18  1  6
 19 21  1  0
 20 19  1  0
 21 23  1  0
 21 22  1  6
 22 16  1  0
 23 25  1  0
 24 23  2  0
M  END
$$$$
