QMT.pdb
     RDKit          3D

 25 24  0  0  1  0  0  0  0  0999 V2000
    8.7067  -12.4861   17.6073 N   0  0  0  0  0  0  0  0  0  0  0  0
    8.2346  -13.7787   17.2702 C   0  0  0  0  0  0  0  0  0  0  0  0
    7.9211  -13.9866   16.0769 O   0  0  0  0  0  0  0  0  0  0  0  0
    8.1455  -14.7806   18.3368 C   0  0  0  0  0  0  0  0  0  0  0  0
    8.5580  -14.2606   19.6912 C   0  0  0  0  0  0  0  0  0  0  0  0
    8.3987  -15.4335   20.6576 C   0  0  2  0  0  0  0  0  0  0  0  0
    7.1188  -16.0719   20.4435 N   0  0  0  0  0  0  0  0  0  0  0  0
    8.6192  -15.0680   22.0576 C   0  0  0  0  0  0  0  0  0  0  0  0
    9.7420  -14.6426   22.4156 O   0  0  0  0  0  0  0  0  0  0  0  0
    7.6422  -10.7653   26.7888 C   0  0  0  0  0  0  0  0  0  0  0  0
    6.2585  -11.9085   26.6263 S   0  0  0  0  0  0  0  0  0  0  0  0
    6.8930  -13.6026   26.4072 C   0  0  0  0  0  0  0  0  0  0  0  0
    6.7900  -13.9195   24.9405 C   0  0  0  0  0  0  0  0  0  0  0  0
    7.7956  -14.9002   24.4494 C   0  0  2  0  0  0  0  0  0  0  0  0
    7.5846  -15.1860   23.0205 N   0  0  0  0  0  0  0  0  0  0  0  0
    7.8666  -16.1681   25.2101 C   0  0  0  0  0  0  0  0  0  0  0  0
    6.8820  -16.8624   25.4971 O   0  0  0  0  0  0  0  0  0  0  0  0
    9.4771  -19.2043   24.1586 C   0  0  0  0  0  0  0  0  0  0  0  0
   10.1312  -18.8671   25.4939 C   0  0  1  0  0  0  0  0  0  0  0  0
   11.3494  -18.2297   25.2497 O   0  0  0  0  0  0  0  0  0  0  0  0
    9.2701  -17.9314   26.3012 C   0  0  2  0  0  0  0  0  0  0  0  0
    9.1366  -16.6477   25.6556 N   0  0  0  0  0  0  0  0  0  0  0  0
    9.9146  -17.7337   27.6283 C   0  0  0  0  0  0  0  0  0  0  0  0
   10.0239  -18.6918   28.4254 O   0  0  0  0  0  0  0  0  0  0  0  0
   10.3962  -16.4765   27.9797 O   0  0  0  0  0  0  0  0  0  0  0  0
  2  1  1  0
  2  3  2  0
  4  2  1  0
  5  4  1  0
  6  5  1  0
  6  7  1  1
  8  6  1  0
  8  9  2  0
 10 11  1  0
 11 12  1  0
 14 13  1  1
 13 12  1  0
 14 15  1  0
 15  8  1  0
 16 14  1  0
 17 16  2  0
 19 18  1  6
 19 21  1  0
 20 19  1  0
 21 23  1  0
 21 22  1  6
 22 16  1  0
 23 25  1  0
 24 23  2  0
M  END
$$$$
