QMT.pdb
     RDKit          3D

 25 24  0  0  1  0  0  0  0  0999 V2000
    8.3622  -12.2014   18.5769 N   0  0  0  0  0  0  0  0  0  0  0  0
    8.4812  -13.4340   17.8886 C   0  0  0  0  0  0  0  0  0  0  0  0
    8.9144  -13.4014   16.7152 O   0  0  0  0  0  0  0  0  0  0  0  0
    8.0909  -14.6586   18.5938 C   0  0  0  0  0  0  0  0  0  0  0  0
    7.5118  -14.4092   19.9639 C   0  0  0  0  0  0  0  0  0  0  0  0
    7.8851  -15.6284   20.8059 C   0  0  2  0  0  0  0  0  0  0  0  0
    6.7861  -16.5684   20.8180 N   0  0  0  0  0  0  0  0  0  0  0  0
    8.3492  -15.2865   22.1513 C   0  0  0  0  0  0  0  0  0  0  0  0
    9.4601  -14.7259   22.2977 O   0  0  0  0  0  0  0  0  0  0  0  0
    6.4630  -10.5409   26.7163 C   0  0  0  0  0  0  0  0  0  0  0  0
    6.1221  -12.3036   26.5587 S   0  0  0  0  0  0  0  0  0  0  0  0
    7.3828  -13.0727   25.4912 C   0  0  0  0  0  0  0  0  0  0  0  0
    7.0740  -14.5440   25.4438 C   0  0  0  0  0  0  0  0  0  0  0  0
    8.0513  -15.3546   24.6679 C   0  0  2  0  0  0  0  0  0  0  0  0
    7.5648  -15.5780   23.2964 N   0  0  0  0  0  0  0  0  0  0  0  0
    8.4312  -16.6464   25.2829 C   0  0  0  0  0  0  0  0  0  0  0  0
    7.6552  -17.6002   25.4315 O   0  0  0  0  0  0  0  0  0  0  0  0
   10.8708  -19.0846   24.1087 C   0  0  0  0  0  0  0  0  0  0  0  0
   11.3295  -18.6945   25.5094 C   0  0  1  0  0  0  0  0  0  0  0  0
   12.3384  -17.7351   25.4014 O   0  0  0  0  0  0  0  0  0  0  0  0
   10.2000  -18.0943   26.3048 C   0  0  2  0  0  0  0  0  0  0  0  0
    9.7701  -16.8360   25.7442 N   0  0  0  0  0  0  0  0  0  0  0  0
   10.6821  -17.8586   27.6933 C   0  0  0  0  0  0  0  0  0  0  0  0
   11.0158  -18.8227   28.4173 O   0  0  0  0  0  0  0  0  0  0  0  0
   10.7605  -16.5588   28.1838 O   0  0  0  0  0  0  0  0  0  0  0  0
  2  1  1  0
  2  3  2  0
  4  2  1  0
  5  4  1  0
  6  5  1  0
  6  7  1  1
  8  6  1  0
  8  9  2  0
 10 11  1  0
 11 12  1  0
 14 13  1  1
 13 12  1  0
 14 15  1  0
 15  8  1  0
 16 14  1  0
 17 16  2  0
 19 18  1  6
 19 21  1  0
 20 19  1  0
 21 23  1  0
 21 22  1  6
 22 16  1  0
 23 25  1  0
 24 23  2  0
M  END
$$$$
