QMT.pdb
     RDKit          3D

 25 24  0  0  1  0  0  0  0  0999 V2000
    7.9865  -12.8820   18.0471 N   0  0  0  0  0  0  0  0  0  0  0  0
    8.3986  -14.1547   17.5808 C   0  0  0  0  0  0  0  0  0  0  0  0
    8.0723  -14.4775   16.4168 O   0  0  0  0  0  0  0  0  0  0  0  0
    9.1755  -15.0039   18.4889 C   0  0  0  0  0  0  0  0  0  0  0  0
    9.4691  -14.3569   19.8194 C   0  0  0  0  0  0  0  0  0  0  0  0
    9.0550  -15.3743   20.8815 C   0  0  2  0  0  0  0  0  0  0  0  0
    7.7142  -15.8441   20.6110 N   0  0  0  0  0  0  0  0  0  0  0  0
    9.2146  -14.8834   22.2512 C   0  0  0  0  0  0  0  0  0  0  0  0
   10.3294  -14.4521   22.6268 O   0  0  0  0  0  0  0  0  0  0  0  0
    6.4269  -10.3324   27.6346 C   0  0  0  0  0  0  0  0  0  0  0  0
    6.0423  -11.4170   26.2475 S   0  0  0  0  0  0  0  0  0  0  0  0
    7.2254  -12.8026   26.2141 C   0  0  0  0  0  0  0  0  0  0  0  0
    7.1955  -13.3668   24.8202 C   0  0  0  0  0  0  0  0  0  0  0  0
    8.2517  -14.3771   24.5410 C   0  0  2  0  0  0  0  0  0  0  0  0
    8.1299  -14.8861   23.1649 N   0  0  0  0  0  0  0  0  0  0  0  0
    8.3109  -15.5097   25.4923 C   0  0  0  0  0  0  0  0  0  0  0  0
    8.2992  -15.3839   26.7243 O   0  0  0  0  0  0  0  0  0  0  0  0
    6.3703  -19.0102   24.8567 C   0  0  0  0  0  0  0  0  0  0  0  0
    7.8391  -19.2089   25.2140 C   0  0  1  0  0  0  0  0  0  0  0  0
    8.5602  -19.4401   24.0407 O   0  0  0  0  0  0  0  0  0  0  0  0
    8.4092  -17.9820   25.8762 C   0  0  2  0  0  0  0  0  0  0  0  0
    8.3870  -16.8446   24.9885 N   0  0  0  0  0  0  0  0  0  0  0  0
    9.8213  -18.2684   26.2502 C   0  0  0  0  0  0  0  0  0  0  0  0
   10.0819  -19.1382   27.1108 O   0  0  0  0  0  0  0  0  0  0  0  0
   10.8526  -17.5633   25.6376 O   0  0  0  0  0  0  0  0  0  0  0  0
  2  1  1  0
  2  3  2  0
  4  2  1  0
  5  4  1  0
  6  5  1  0
  6  7  1  6
  8  6  1  0
  8  9  2  0
 10 11  1  0
 11 12  1  0
 14 13  1  1
 13 12  1  0
 14 15  1  0
 15  8  1  0
 16 14  1  0
 17 16  2  0
 19 18  1  6
 19 21  1  0
 20 19  1  0
 21 23  1  0
 21 22  1  6
 22 16  1  0
 23 25  1  0
 24 23  2  0
M  END
$$$$
