QMT.pdb
     RDKit          3D

 25 24  0  0  1  0  0  0  0  0999 V2000
    7.7123  -19.5718   19.0458 N   0  0  0  0  0  0  0  0  0  0  0  0
    8.6218  -18.6905   18.4107 C   0  0  0  0  0  0  0  0  0  0  0  0
    9.3873  -19.1737   17.5469 O   0  0  0  0  0  0  0  0  0  0  0  0
    8.6050  -17.2789   18.8061 C   0  0  0  0  0  0  0  0  0  0  0  0
    7.5749  -16.9582   19.8602 C   0  0  0  0  0  0  0  0  0  0  0  0
    7.6650  -15.4503   20.0903 C   0  0  2  0  0  0  0  0  0  0  0  0
    8.3261  -14.8237   18.9670 N   0  0  0  0  0  0  0  0  0  0  0  0
    8.2726  -15.0927   21.3730 C   0  0  0  0  0  0  0  0  0  0  0  0
    9.5192  -15.0052   21.4631 O   0  0  0  0  0  0  0  0  0  0  0  0
    7.2329  -10.9617   27.9322 C   0  0  0  0  0  0  0  0  0  0  0  0
    6.5663  -11.7225   26.4406 S   0  0  0  0  0  0  0  0  0  0  0  0
    7.7409  -12.9685   25.8176 C   0  0  0  0  0  0  0  0  0  0  0  0
    7.2208  -13.4279   24.4832 C   0  0  0  0  0  0  0  0  0  0  0  0
    8.0560  -14.4655   23.8197 C   0  0  2  0  0  0  0  0  0  0  0  0
    7.4766  -14.8427   22.5199 N   0  0  0  0  0  0  0  0  0  0  0  0
    8.3148  -15.6798   24.6258 C   0  0  0  0  0  0  0  0  0  0  0  0
    7.4272  -16.3891   25.1185 O   0  0  0  0  0  0  0  0  0  0  0  0
   10.8655  -18.4188   23.4565 C   0  0  0  0  0  0  0  0  0  0  0  0
   11.1566  -18.0114   24.8965 C   0  0  1  0  0  0  0  0  0  0  0  0
   12.2185  -17.1046   24.9015 O   0  0  0  0  0  0  0  0  0  0  0  0
    9.9649  -17.3357   25.5227 C   0  0  2  0  0  0  0  0  0  0  0  0
    9.6632  -16.0853   24.8687 N   0  0  0  0  0  0  0  0  0  0  0  0
   10.2817  -17.0631   26.9514 C   0  0  0  0  0  0  0  0  0  0  0  0
   10.3663  -15.8854   27.3652 O   0  0  0  0  0  0  0  0  0  0  0  0
   10.4838  -18.1255   27.8269 O   0  0  0  0  0  0  0  0  0  0  0  0
  2  1  1  0
  2  3  2  0
  4  2  1  0
  5  4  1  0
  6  5  1  0
  6  7  1  6
  8  6  1  0
  8  9  2  0
 10 11  1  0
 11 12  1  0
 14 13  1  1
 13 12  1  0
 14 15  1  0
 15  8  1  0
 16 14  1  0
 17 16  2  0
 19 18  1  6
 19 21  1  0
 20 19  1  0
 21 23  1  0
 21 22  1  6
 22 16  1  0
 23 25  1  0
 24 23  2  0
M  END
$$$$
