QMT.pdb
     RDKit          3D

 25 24  0  0  1  0  0  0  0  0999 V2000
    8.0148  -12.1944   17.4822 N   0  0  0  0  0  0  0  0  0  0  0  0
    8.3412  -13.5708   17.4047 C   0  0  0  0  0  0  0  0  0  0  0  0
    8.1699  -14.1445   16.3060 O   0  0  0  0  0  0  0  0  0  0  0  0
    8.8551  -14.2272   18.6106 C   0  0  0  0  0  0  0  0  0  0  0  0
    7.7743  -14.6762   19.5621 C   0  0  0  0  0  0  0  0  0  0  0  0
    8.3916  -15.7940   20.4014 C   0  0  2  0  0  0  0  0  0  0  0  0
    7.4943  -16.9275   20.4403 N   0  0  0  0  0  0  0  0  0  0  0  0
    8.8075  -15.3582   21.7354 C   0  0  0  0  0  0  0  0  0  0  0  0
   10.0032  -15.0432   21.9375 O   0  0  0  0  0  0  0  0  0  0  0  0
    6.6021  -11.6145   28.2265 C   0  0  0  0  0  0  0  0  0  0  0  0
    6.3531  -12.1641   26.5283 S   0  0  0  0  0  0  0  0  0  0  0  0
    7.5781  -13.4500   26.1204 C   0  0  0  0  0  0  0  0  0  0  0  0
    7.3463  -13.8318   24.6842 C   0  0  0  0  0  0  0  0  0  0  0  0
    8.2733  -14.8740   24.1658 C   0  0  2  0  0  0  0  0  0  0  0  0
    7.8818  -15.2853   22.8074 N   0  0  0  0  0  0  0  0  0  0  0  0
    8.4282  -16.0679   25.0272 C   0  0  0  0  0  0  0  0  0  0  0  0
    7.4991  -16.8251   25.3389 O   0  0  0  0  0  0  0  0  0  0  0  0
   10.0900  -19.0067   24.1885 C   0  0  0  0  0  0  0  0  0  0  0  0
   10.7980  -18.5777   25.4688 C   0  0  1  0  0  0  0  0  0  0  0  0
   11.9824  -17.9205   25.1291 O   0  0  0  0  0  0  0  0  0  0  0  0
    9.9490  -17.6233   26.2670 C   0  0  2  0  0  0  0  0  0  0  0  0
    9.7183  -16.3939   25.5476 N   0  0  0  0  0  0  0  0  0  0  0  0
   10.6666  -17.3086   27.5326 C   0  0  0  0  0  0  0  0  0  0  0  0
   11.0808  -16.1485   27.7511 O   0  0  0  0  0  0  0  0  0  0  0  0
   10.8752  -18.3119   28.4738 O   0  0  0  0  0  0  0  0  0  0  0  0
  2  1  1  0
  2  3  2  0
  4  2  1  0
  5  4  1  0
  6  5  1  0
  6  7  1  1
  8  6  1  0
  8  9  2  0
 10 11  1  0
 11 12  1  0
 14 13  1  1
 13 12  1  0
 14 15  1  0
 15  8  1  0
 16 14  1  0
 17 16  2  0
 19 18  1  6
 19 21  1  0
 20 19  1  0
 21 23  1  0
 21 22  1  6
 22 16  1  0
 23 25  1  0
 24 23  2  0
M  END
$$$$
