GEC.pdb
     RDKit          3D

 20 19  0  0  1  0  0  0  0  0999 V2000
   15.2335  -12.0713  -12.6009 N   0  0  0  0  0  0  0  0  0  0  0  0
   15.7889  -11.7471  -11.3008 C   0  0  0  0  0  0  0  0  0  0  0  0
   16.1461  -10.3070  -11.2985 C   0  0  0  0  0  0  0  0  0  0  0  0
   16.1883   -9.6305  -12.3763 O   0  0  0  0  0  0  0  0  0  0  0  0
   16.4612   -9.5963  -10.1053 N   0  0  0  0  0  0  0  0  0  0  0  0
   16.7233   -8.1730  -10.0889 C   0  0  1  0  0  0  0  0  0  0  0  0
   16.3473   -7.5411   -8.7699 C   0  0  0  0  0  0  0  0  0  0  0  0
   14.8801   -7.6978   -8.4560 C   0  0  0  0  0  0  0  0  0  0  0  0
   14.1517   -6.5563   -9.0601 C   0  0  0  0  0  0  0  0  0  0  0  0
   13.1037   -6.7344   -9.7351 O   0  0  0  0  0  0  0  0  0  0  0  0
   18.1356   -7.8766  -10.4723 C   0  0  0  0  0  0  0  0  0  0  0  0
   19.1246   -8.3358   -9.8445 O   0  0  0  0  0  0  0  0  0  0  0  0
   14.5800   -5.2291   -8.9179 O   0  0  0  0  0  0  0  0  0  0  0  0
   18.3855   -7.0446  -11.5883 N   0  0  0  0  0  0  0  0  0  0  0  0
   19.6793   -6.7092  -12.0850 C   0  0  1  0  0  0  0  0  0  0  0  0
   20.0694   -7.7697  -13.1128 C   0  0  0  0  0  0  0  0  0  0  0  0
   21.5985   -7.3163  -13.9511 S   0  0  0  0  0  0  0  0  0  0  0  0
   19.6021   -5.3864  -12.7546 C   0  0  0  0  0  0  0  0  0  0  0  0
   20.6763   -4.4912  -12.7638 O   0  0  0  0  0  0  0  0  0  0  0  0
   18.5562   -5.0160  -13.3459 O   0  0  0  0  0  0  0  0  0  0  0  0
  2  1  1  0
  3  2  1  0
  4  3  2  0
  5  3  1  0
  6 11  1  0
  6  5  1  0
  6  7  1  1
  8  7  1  0
  9 10  2  0
  9  8  1  0
 11 12  2  0
 13  9  1  0
 14 15  1  0
 14 11  1  0
 15 16  1  6
 16 17  1  0
 18 19  1  0
 18 15  1  0
 20 18  2  0
M  END
$$$$
