GEC.pdb
     RDKit          3D

 20 19  0  0  1  0  0  0  0  0999 V2000
   15.4677  -12.9500  -15.1856 N   0  0  0  0  0  0  0  0  0  0  0  0
   15.9834  -12.5064  -16.4666 C   0  0  0  0  0  0  0  0  0  0  0  0
   17.2759  -11.8175  -16.2293 C   0  0  0  0  0  0  0  0  0  0  0  0
   18.0329  -12.1398  -15.2576 O   0  0  0  0  0  0  0  0  0  0  0  0
   17.7483  -10.7637  -17.0627 N   0  0  0  0  0  0  0  0  0  0  0  0
   19.0496  -10.1542  -16.8908 C   0  0  1  0  0  0  0  0  0  0  0  0
   19.7317   -9.8885  -18.2116 C   0  0  0  0  0  0  0  0  0  0  0  0
   21.1318   -9.3545  -18.0373 C   0  0  0  0  0  0  0  0  0  0  0  0
   22.0771  -10.4937  -18.1232 C   0  0  0  0  0  0  0  0  0  0  0  0
   22.1089  -11.2404  -19.1367 O   0  0  0  0  0  0  0  0  0  0  0  0
   18.9669   -8.9274  -16.0436 C   0  0  0  0  0  0  0  0  0  0  0  0
   18.1034   -8.0301  -16.2234 O   0  0  0  0  0  0  0  0  0  0  0  0
   22.9792  -10.8033  -17.0959 O   0  0  0  0  0  0  0  0  0  0  0  0
   19.8943   -8.7551  -14.9898 N   0  0  0  0  0  0  0  0  0  0  0  0
   19.9670   -7.6099  -14.1435 C   0  0  1  0  0  0  0  0  0  0  0  0
   20.6620   -8.0335  -12.8509 C   0  0  0  0  0  0  0  0  0  0  0  0
   19.5464   -8.9903  -11.8085 S   0  0  0  0  0  0  0  0  0  0  0  0
   20.7853   -6.5718  -14.8193 C   0  0  0  0  0  0  0  0  0  0  0  0
   21.4077   -6.7975  -16.0510 O   0  0  0  0  0  0  0  0  0  0  0  0
   20.9521   -5.4370  -14.3045 O   0  0  0  0  0  0  0  0  0  0  0  0
  2  1  1  0
  3  2  1  0
  4  3  2  0
  5  3  1  0
  6 11  1  0
  6  5  1  0
  6  7  1  6
  8  7  1  0
  9 10  2  0
  9  8  1  0
 11 12  2  0
 13  9  1  0
 14 15  1  0
 14 11  1  0
 15 16  1  1
 16 17  1  0
 18 19  1  0
 18 15  1  0
 20 18  2  0
M  END
$$$$
