GEC.pdb
     RDKit          3D

 20 19  0  0  1  0  0  0  0  0999 V2000
   17.0257  -13.3720  -13.8103 N   0  0  0  0  0  0  0  0  0  0  0  0
   16.8757  -12.8615  -12.4610 C   0  0  0  0  0  0  0  0  0  0  0  0
   16.9559  -11.3810  -12.5171 C   0  0  0  0  0  0  0  0  0  0  0  0
   17.1449  -10.7662  -13.6160 O   0  0  0  0  0  0  0  0  0  0  0  0
   16.8283  -10.5611  -11.3596 N   0  0  0  0  0  0  0  0  0  0  0  0
   16.8821   -9.1158  -11.4153 C   0  0  1  0  0  0  0  0  0  0  0  0
   16.1005   -8.4745  -10.2935 C   0  0  0  0  0  0  0  0  0  0  0  0
   14.6218   -8.7578  -10.3893 C   0  0  0  0  0  0  0  0  0  0  0  0
   13.9456   -8.0832   -9.2552 C   0  0  0  0  0  0  0  0  0  0  0  0
   13.8946   -6.8272   -9.1793 O   0  0  0  0  0  0  0  0  0  0  0  0
   18.2917   -8.6266  -11.4700 C   0  0  0  0  0  0  0  0  0  0  0  0
   19.1506   -8.9191  -10.5983 O   0  0  0  0  0  0  0  0  0  0  0  0
   13.3311   -8.7930   -8.2142 O   0  0  0  0  0  0  0  0  0  0  0  0
   18.6912   -7.7975  -12.5439 N   0  0  0  0  0  0  0  0  0  0  0  0
   19.9999   -7.2593  -12.7187 C   0  0  1  0  0  0  0  0  0  0  0  0
   20.8239   -8.2884  -13.4903 C   0  0  0  0  0  0  0  0  0  0  0  0
   22.4434   -7.6227  -13.9153 S   0  0  0  0  0  0  0  0  0  0  0  0
   19.8978   -6.0151  -13.5222 C   0  0  0  0  0  0  0  0  0  0  0  0
   20.7503   -4.9252  -13.3208 O   0  0  0  0  0  0  0  0  0  0  0  0
   19.0312   -5.8921  -14.4247 O   0  0  0  0  0  0  0  0  0  0  0  0
  2  1  1  0
  3  2  1  0
  4  3  2  0
  5  3  1  0
  6 11  1  0
  6  5  1  0
  6  7  1  1
  8  7  1  0
  9 10  2  0
  9  8  1  0
 11 12  2  0
 13  9  1  0
 14 15  1  0
 14 11  1  0
 15 16  1  6
 16 17  1  0
 18 19  1  0
 18 15  1  0
 20 18  2  0
M  END
$$$$
