GEC.pdb
     RDKit          3D

 20 19  0  0  1  0  0  0  0  0999 V2000
   18.5139  -13.6181  -17.3000 N   0  0  0  0  0  0  0  0  0  0  0  0
   17.5175  -12.5976  -17.0364 C   0  0  0  0  0  0  0  0  0  0  0  0
   18.1946  -11.2775  -17.0525 C   0  0  0  0  0  0  0  0  0  0  0  0
   19.3703  -11.1388  -17.5212 O   0  0  0  0  0  0  0  0  0  0  0  0
   17.5813  -10.0941  -16.5511 N   0  0  0  0  0  0  0  0  0  0  0  0
   18.2524   -8.8119  -16.5349 C   0  0  1  0  0  0  0  0  0  0  0  0
   17.2772   -7.6595  -16.5693 C   0  0  0  0  0  0  0  0  0  0  0  0
   17.9707   -6.3236  -16.6716 C   0  0  0  0  0  0  0  0  0  0  0  0
   16.9334   -5.2676  -16.7582 C   0  0  0  0  0  0  0  0  0  0  0  0
   17.0416   -4.3115  -17.5705 O   0  0  0  0  0  0  0  0  0  0  0  0
   19.2024   -8.7108  -15.3874 C   0  0  0  0  0  0  0  0  0  0  0  0
   18.8747   -8.9823  -14.2034 O   0  0  0  0  0  0  0  0  0  0  0  0
   15.7864   -5.2702  -15.9523 O   0  0  0  0  0  0  0  0  0  0  0  0
   20.5316   -8.2927  -15.6293 N   0  0  0  0  0  0  0  0  0  0  0  0
   21.5536   -8.2024  -14.6391 C   0  0  1  0  0  0  0  0  0  0  0  0
   22.8361   -8.7690  -15.2452 C   0  0  0  0  0  0  0  0  0  0  0  0
   22.9539  -10.5427  -14.9505 S   0  0  0  0  0  0  0  0  0  0  0  0
   21.7638   -6.7716  -14.3034 C   0  0  0  0  0  0  0  0  0  0  0  0
   22.2156   -6.3590  -13.0460 O   0  0  0  0  0  0  0  0  0  0  0  0
   21.5413   -5.8656  -15.1462 O   0  0  0  0  0  0  0  0  0  0  0  0
  2  1  1  0
  3  2  1  0
  4  3  2  0
  5  3  1  0
  6 11  1  0
  6  5  1  0
  6  7  1  1
  8  7  1  0
  9 10  2  0
  9  8  1  0
 11 12  2  0
 13  9  1  0
 14 15  1  0
 14 11  1  0
 15 16  1  6
 16 17  1  0
 18 19  1  0
 18 15  1  0
 20 18  2  0
M  END
$$$$
