GEC.pdb
     RDKit          3D

 20 19  0  0  1  0  0  0  0  0999 V2000
   18.8248  -21.3066  -11.7357 N   0  0  0  0  0  0  0  0  0  0  0  0
   19.7128  -20.2397  -12.1565 C   0  0  0  0  0  0  0  0  0  0  0  0
   21.0773  -20.8049  -12.2979 C   0  0  0  0  0  0  0  0  0  0  0  0
   21.5256  -21.6730  -11.4814 O   0  0  0  0  0  0  0  0  0  0  0  0
   21.9638  -20.4181  -13.3432 N   0  0  0  0  0  0  0  0  0  0  0  0
   23.3279  -20.8942  -13.4281 C   0  0  1  0  0  0  0  0  0  0  0  0
   23.8911  -20.7595  -14.8228 C   0  0  0  0  0  0  0  0  0  0  0  0
   25.2915  -21.3098  -14.9319 C   0  0  0  0  0  0  0  0  0  0  0  0
   25.7292  -21.1884  -16.3433 C   0  0  0  0  0  0  0  0  0  0  0  0
   26.9474  -21.2497  -16.6565 O   0  0  0  0  0  0  0  0  0  0  0  0
   24.1962  -20.2394  -12.4051 C   0  0  0  0  0  0  0  0  0  0  0  0
   24.1186  -19.0149  -12.1261 O   0  0  0  0  0  0  0  0  0  0  0  0
   24.8261  -21.0008  -17.3988 O   0  0  0  0  0  0  0  0  0  0  0  0
   25.1516  -21.0190  -11.7126 N   0  0  0  0  0  0  0  0  0  0  0  0
   26.0930  -20.5115  -10.7696 C   0  0  1  0  0  0  0  0  0  0  0  0
   25.7322  -21.0859   -9.4010 C   0  0  0  0  0  0  0  0  0  0  0  0
   26.4994  -20.1272   -8.0823 S   0  0  0  0  0  0  0  0  0  0  0  0
   27.4484  -20.9803  -11.1531 C   0  0  0  0  0  0  0  0  0  0  0  0
   28.6077  -20.2881  -10.7895 O   0  0  0  0  0  0  0  0  0  0  0  0
   27.6079  -22.0295  -11.8272 O   0  0  0  0  0  0  0  0  0  0  0  0
  2  1  1  0
  3  2  1  0
  4  3  2  0
  5  3  1  0
  6 11  1  0
  6  5  1  0
  6  7  1  6
  8  7  1  0
  9 10  2  0
  9  8  1  0
 11 12  2  0
 13  9  1  0
 14 15  1  0
 14 11  1  0
 15 16  1  1
 16 17  1  0
 18 19  1  0
 18 15  1  0
 20 18  2  0
M  END
$$$$
