GEC.pdb
     RDKit          3D

 20 19  0  0  1  0  0  0  0  0999 V2000
   13.8180  -13.2574  -11.8615 N   0  0  0  0  0  0  0  0  0  0  0  0
   14.3747  -12.3005  -12.7986 C   0  0  0  0  0  0  0  0  0  0  0  0
   15.2618  -11.3804  -12.0451 C   0  0  0  0  0  0  0  0  0  0  0  0
   15.3278  -11.4124  -10.7740 O   0  0  0  0  0  0  0  0  0  0  0  0
   16.0872  -10.4132  -12.6866 N   0  0  0  0  0  0  0  0  0  0  0  0
   16.9077   -9.4745  -11.9517 C   0  0  1  0  0  0  0  0  0  0  0  0
   18.1064   -9.0208  -12.7503 C   0  0  0  0  0  0  0  0  0  0  0  0
   19.0309   -8.1396  -11.9474 C   0  0  0  0  0  0  0  0  0  0  0  0
   20.1980   -7.7969  -12.7952 C   0  0  0  0  0  0  0  0  0  0  0  0
   20.7927   -8.6757  -13.4734 O   0  0  0  0  0  0  0  0  0  0  0  0
   16.0991   -8.3245  -11.4486 C   0  0  0  0  0  0  0  0  0  0  0  0
   15.3392   -7.6481  -12.1890 O   0  0  0  0  0  0  0  0  0  0  0  0
   20.7023   -6.4925  -12.8913 O   0  0  0  0  0  0  0  0  0  0  0  0
   16.1823   -7.9703  -10.0820 N   0  0  0  0  0  0  0  0  0  0  0  0
   15.4685   -6.8985   -9.4698 C   0  0  1  0  0  0  0  0  0  0  0  0
   14.7772   -7.4539   -8.2261 C   0  0  0  0  0  0  0  0  0  0  0  0
   13.4571   -8.5922   -8.6824 S   0  0  0  0  0  0  0  0  0  0  0  0
   16.4405   -5.8533   -9.0615 C   0  0  0  0  0  0  0  0  0  0  0  0
   16.0355   -4.5905   -8.6178 O   0  0  0  0  0  0  0  0  0  0  0  0
   17.6791   -6.0655   -9.0993 O   0  0  0  0  0  0  0  0  0  0  0  0
  2  1  1  0
  3  2  1  0
  4  3  2  0
  5  3  1  0
  6 11  1  0
  6  5  1  0
  6  7  1  6
  8  7  1  0
  9 10  2  0
  9  8  1  0
 11 12  2  0
 13  9  1  0
 14 15  1  0
 14 11  1  0
 15 16  1  1
 16 17  1  0
 18 19  1  0
 18 15  1  0
 20 18  2  0
M  END
$$$$
