GEC.pdb
     RDKit          3D

 20 19  0  0  1  0  0  0  0  0999 V2000
   20.1912  -12.9812  -16.7166 N   0  0  0  0  0  0  0  0  0  0  0  0
   19.8611  -11.6071  -17.0431 C   0  0  0  0  0  0  0  0  0  0  0  0
   19.7633  -10.8431  -15.7750 C   0  0  0  0  0  0  0  0  0  0  0  0
   19.5121  -11.4204  -14.6683 O   0  0  0  0  0  0  0  0  0  0  0  0
   19.9417   -9.4314  -15.7137 N   0  0  0  0  0  0  0  0  0  0  0  0
   19.8763   -8.6880  -14.4737 C   0  0  1  0  0  0  0  0  0  0  0  0
   20.7954   -7.4898  -14.4803 C   0  0  0  0  0  0  0  0  0  0  0  0
   20.8134   -6.7730  -13.1530 C   0  0  0  0  0  0  0  0  0  0  0  0
   21.7408   -5.6210  -13.2602 C   0  0  0  0  0  0  0  0  0  0  0  0
   21.5310   -4.5530  -12.6268 O   0  0  0  0  0  0  0  0  0  0  0  0
   18.4700   -8.3164  -14.1370 C   0  0  0  0  0  0  0  0  0  0  0  0
   17.6678   -7.8419  -14.9823 O   0  0  0  0  0  0  0  0  0  0  0  0
   22.8904   -5.6513  -14.0618 O   0  0  0  0  0  0  0  0  0  0  0  0
   18.0074   -8.5011  -12.8133 N   0  0  0  0  0  0  0  0  0  0  0  0
   16.6885   -8.2059  -12.3590 C   0  0  1  0  0  0  0  0  0  0  0  0
   16.5369   -8.8014  -10.9606 C   0  0  0  0  0  0  0  0  0  0  0  0
   16.5037  -10.6015  -11.0318 S   0  0  0  0  0  0  0  0  0  0  0  0
   16.5327   -6.7316  -12.2806 C   0  0  0  0  0  0  0  0  0  0  0  0
   17.6062   -5.8567  -12.4745 O   0  0  0  0  0  0  0  0  0  0  0  0
   15.4172   -6.2069  -12.0339 O   0  0  0  0  0  0  0  0  0  0  0  0
  2  1  1  0
  3  2  1  0
  4  3  2  0
  5  3  1  0
  6 11  1  0
  6  5  1  0
  6  7  1  6
  8  7  1  0
  9 10  2  0
  9  8  1  0
 11 12  2  0
 13  9  1  0
 14 15  1  0
 14 11  1  0
 15 16  1  1
 16 17  1  0
 18 19  1  0
 18 15  1  0
 20 18  2  0
M  END
$$$$
