GEC.pdb
     RDKit          3D

 20 19  0  0  1  0  0  0  0  0999 V2000
   15.2894  -11.4602  -15.5550 N   0  0  0  0  0  0  0  0  0  0  0  0
   15.1639  -10.0154  -15.5720 C   0  0  0  0  0  0  0  0  0  0  0  0
   16.5232   -9.4364  -15.7070 C   0  0  0  0  0  0  0  0  0  0  0  0
   17.5647  -10.1104  -15.4203 O   0  0  0  0  0  0  0  0  0  0  0  0
   16.7490   -8.1054  -16.1606 N   0  0  0  0  0  0  0  0  0  0  0  0
   18.0754   -7.5555  -16.3419 C   0  0  1  0  0  0  0  0  0  0  0  0
   18.1062   -6.4855  -17.4072 C   0  0  0  0  0  0  0  0  0  0  0  0
   17.6889   -7.0093  -18.7590 C   0  0  0  0  0  0  0  0  0  0  0  0
   18.1936   -6.0757  -19.7945 C   0  0  0  0  0  0  0  0  0  0  0  0
   17.7053   -4.9226  -19.9276 O   0  0  0  0  0  0  0  0  0  0  0  0
   18.6466   -7.0775  -15.0479 C   0  0  0  0  0  0  0  0  0  0  0  0
   17.9613   -6.4803  -14.1778 O   0  0  0  0  0  0  0  0  0  0  0  0
   19.2299   -6.4160  -20.6750 O   0  0  0  0  0  0  0  0  0  0  0  0
   20.0167   -7.2997  -14.7765 N   0  0  0  0  0  0  0  0  0  0  0  0
   20.6773   -6.9494  -13.5625 C   0  0  1  0  0  0  0  0  0  0  0  0
   21.2991   -8.2220  -12.9905 C   0  0  0  0  0  0  0  0  0  0  0  0
   22.1259   -7.8828  -11.4259 S   0  0  0  0  0  0  0  0  0  0  0  0
   21.7553   -5.9770  -13.8725 C   0  0  0  0  0  0  0  0  0  0  0  0
   22.1363   -4.9745  -12.9752 O   0  0  0  0  0  0  0  0  0  0  0  0
   22.3742   -6.0177  -14.9661 O   0  0  0  0  0  0  0  0  0  0  0  0
  2  1  1  0
  3  2  1  0
  4  3  2  0
  5  3  1  0
  6 11  1  0
  6  5  1  0
  6  7  1  6
  8  7  1  0
  9 10  2  0
  9  8  1  0
 11 12  2  0
 13  9  1  0
 14 15  1  0
 14 11  1  0
 15 16  1  6
 16 17  1  0
 18 19  1  0
 18 15  1  0
 20 18  2  0
M  END
$$$$
