GEC.pdb
     RDKit          3D

 20 19  0  0  1  0  0  0  0  0999 V2000
   19.2386  -16.0829  -16.4666 N   0  0  0  0  0  0  0  0  0  0  0  0
   19.0881  -15.1719  -15.3480 C   0  0  0  0  0  0  0  0  0  0  0  0
   19.3294  -13.7935  -15.8407 C   0  0  0  0  0  0  0  0  0  0  0  0
   20.3044  -13.5248  -16.6143 O   0  0  0  0  0  0  0  0  0  0  0  0
   18.4965  -12.6944  -15.4850 N   0  0  0  0  0  0  0  0  0  0  0  0
   18.6710  -11.3692  -16.0400 C   0  0  1  0  0  0  0  0  0  0  0  0
   17.3611  -10.7613  -16.4820 C   0  0  0  0  0  0  0  0  0  0  0  0
   16.5458  -11.7076  -17.3279 C   0  0  0  0  0  0  0  0  0  0  0  0
   15.1101  -11.4385  -17.0728 C   0  0  0  0  0  0  0  0  0  0  0  0
   14.4924  -12.0195  -16.1419 O   0  0  0  0  0  0  0  0  0  0  0  0
   19.4146  -10.4799  -15.0990 C   0  0  0  0  0  0  0  0  0  0  0  0
   19.0281  -10.2542  -13.9230 O   0  0  0  0  0  0  0  0  0  0  0  0
   14.3649  -10.5339  -17.8418 O   0  0  0  0  0  0  0  0  0  0  0  0
   20.6071   -9.8583  -15.5369 N   0  0  0  0  0  0  0  0  0  0  0  0
   21.3982   -8.9650  -14.7563 C   0  0  1  0  0  0  0  0  0  0  0  0
   22.7364   -8.7874  -15.4709 C   0  0  0  0  0  0  0  0  0  0  0  0
   23.7382  -10.2788  -15.3332 S   0  0  0  0  0  0  0  0  0  0  0  0
   20.7047   -7.6542  -14.6871 C   0  0  0  0  0  0  0  0  0  0  0  0
   19.6743   -7.3081  -15.5668 O   0  0  0  0  0  0  0  0  0  0  0  0
   21.0207   -6.7951  -13.8253 O   0  0  0  0  0  0  0  0  0  0  0  0
  2  1  1  0
  3  2  1  0
  4  3  2  0
  5  3  1  0
  6 11  1  0
  6  5  1  0
  6  7  1  1
  8  7  1  0
  9 10  2  0
  9  8  1  0
 11 12  2  0
 13  9  1  0
 14 15  1  0
 14 11  1  0
 15 16  1  6
 16 17  1  0
 18 19  1  0
 18 15  1  0
 20 18  2  0
M  END
$$$$
