GEC.pdb
     RDKit          3D

 20 19  0  0  1  0  0  0  0  0999 V2000
   18.8568  -13.2504  -16.1167 N   0  0  0  0  0  0  0  0  0  0  0  0
   18.9424  -11.8840  -16.5957 C   0  0  0  0  0  0  0  0  0  0  0  0
   19.1203  -10.9945  -15.4217 C   0  0  0  0  0  0  0  0  0  0  0  0
   19.0611  -11.4437  -14.2318 O   0  0  0  0  0  0  0  0  0  0  0  0
   19.3660   -9.5974  -15.5475 N   0  0  0  0  0  0  0  0  0  0  0  0
   19.4271   -8.7082  -14.4072 C   0  0  1  0  0  0  0  0  0  0  0  0
   20.3684   -7.5503  -14.6392 C   0  0  0  0  0  0  0  0  0  0  0  0
   20.5458   -6.6991  -13.4064 C   0  0  0  0  0  0  0  0  0  0  0  0
   21.4697   -5.5880  -13.7386 C   0  0  0  0  0  0  0  0  0  0  0  0
   21.0369   -4.4328  -13.9919 O   0  0  0  0  0  0  0  0  0  0  0  0
   18.0646   -8.2527  -14.0002 C   0  0  0  0  0  0  0  0  0  0  0  0
   17.1759   -7.9301  -14.8305 O   0  0  0  0  0  0  0  0  0  0  0  0
   22.8606   -5.7544  -13.7900 O   0  0  0  0  0  0  0  0  0  0  0  0
   17.7470   -8.1764  -12.6242 N   0  0  0  0  0  0  0  0  0  0  0  0
   16.4473   -7.9177  -12.0979 C   0  0  1  0  0  0  0  0  0  0  0  0
   16.4808   -8.2380  -10.6048 C   0  0  0  0  0  0  0  0  0  0  0  0
   16.7755   -9.9948  -10.3337 S   0  0  0  0  0  0  0  0  0  0  0  0
   16.1397   -6.4769  -12.2806 C   0  0  0  0  0  0  0  0  0  0  0  0
   14.8789   -5.9418  -11.9988 O   0  0  0  0  0  0  0  0  0  0  0  0
   17.0107   -5.6732  -12.7004 O   0  0  0  0  0  0  0  0  0  0  0  0
  2  1  1  0
  3  2  1  0
  4  3  2  0
  5  3  1  0
  6 11  1  0
  6  5  1  0
  6  7  1  6
  8  7  1  0
  9 10  2  0
  9  8  1  0
 11 12  2  0
 13  9  1  0
 14 15  1  0
 14 11  1  0
 15 16  1  1
 16 17  1  0
 18 19  1  0
 18 15  1  0
 20 18  2  0
M  END
$$$$
