GEC.pdb
     RDKit          3D

 20 19  0  0  1  0  0  0  0  0999 V2000
   12.0062  -12.8637   -9.9523 N   0  0  0  0  0  0  0  0  0  0  0  0
   12.5056  -12.3837  -11.2266 C   0  0  0  0  0  0  0  0  0  0  0  0
   13.6777  -11.5129  -10.9636 C   0  0  0  0  0  0  0  0  0  0  0  0
   14.1293  -11.3434   -9.7853 O   0  0  0  0  0  0  0  0  0  0  0  0
   14.3656  -10.8183  -11.9993 N   0  0  0  0  0  0  0  0  0  0  0  0
   15.5933  -10.0872  -11.7689 C   0  0  1  0  0  0  0  0  0  0  0  0
   16.5790  -10.2613  -12.8996 C   0  0  0  0  0  0  0  0  0  0  0  0
   17.9346   -9.6855  -12.5729 C   0  0  0  0  0  0  0  0  0  0  0  0
   18.7865   -9.7889  -13.7821 C   0  0  0  0  0  0  0  0  0  0  0  0
   19.9028   -9.2097  -13.8456 O   0  0  0  0  0  0  0  0  0  0  0  0
   15.3216   -8.6485  -11.4760 C   0  0  0  0  0  0  0  0  0  0  0  0
   14.4653   -7.9735  -12.1037 O   0  0  0  0  0  0  0  0  0  0  0  0
   18.4056  -10.5273  -14.9112 O   0  0  0  0  0  0  0  0  0  0  0  0
   16.0525   -8.0052  -10.4502 N   0  0  0  0  0  0  0  0  0  0  0  0
   15.7490   -6.7201   -9.9122 C   0  0  1  0  0  0  0  0  0  0  0  0
   16.3249   -6.6628   -8.4986 C   0  0  0  0  0  0  0  0  0  0  0  0
   15.4303   -7.7737   -7.3976 S   0  0  0  0  0  0  0  0  0  0  0  0
   16.4090   -5.6872  -10.7498 C   0  0  0  0  0  0  0  0  0  0  0  0
   16.1450   -4.3226  -10.5969 O   0  0  0  0  0  0  0  0  0  0  0  0
   17.2400   -6.0032  -11.6387 O   0  0  0  0  0  0  0  0  0  0  0  0
  2  1  1  0
  3  2  1  0
  4  3  2  0
  5  3  1  0
  6 11  1  0
  6  5  1  0
  6  7  1  6
  8  7  1  0
  9 10  2  0
  9  8  1  0
 11 12  2  0
 13  9  1  0
 14 15  1  0
 14 11  1  0
 15 16  1  1
 16 17  1  0
 18 19  1  0
 18 15  1  0
 20 18  2  0
M  END
$$$$
