GEC.pdb
     RDKit          3D

 20 19  0  0  1  0  0  0  0  0999 V2000
   14.6927   -7.7079   -7.7641 N   0  0  0  0  0  0  0  0  0  0  0  0
   15.3407   -6.5981   -8.4366 C   0  0  0  0  0  0  0  0  0  0  0  0
   16.1853   -7.1488   -9.5250 C   0  0  0  0  0  0  0  0  0  0  0  0
   16.9664   -8.1345   -9.3269 O   0  0  0  0  0  0  0  0  0  0  0  0
   16.1775   -6.6172  -10.8463 N   0  0  0  0  0  0  0  0  0  0  0  0
   17.0515   -7.1061  -11.8911 C   0  0  1  0  0  0  0  0  0  0  0  0
   16.2915   -7.4667  -13.1453 C   0  0  0  0  0  0  0  0  0  0  0  0
   17.1783   -8.0907  -14.1942 C   0  0  0  0  0  0  0  0  0  0  0  0
   16.3491   -8.3848  -15.3877 C   0  0  0  0  0  0  0  0  0  0  0  0
   16.8389   -8.9540  -16.3986 O   0  0  0  0  0  0  0  0  0  0  0  0
   18.1624   -6.1462  -12.1630 C   0  0  0  0  0  0  0  0  0  0  0  0
   18.0044   -4.8980  -12.1534 O   0  0  0  0  0  0  0  0  0  0  0  0
   14.9895   -8.0515  -15.4613 O   0  0  0  0  0  0  0  0  0  0  0  0
   19.4536   -6.6499  -12.4448 N   0  0  0  0  0  0  0  0  0  0  0  0
   20.6174   -5.8510  -12.6452 C   0  0  1  0  0  0  0  0  0  0  0  0
   21.8339   -6.7173  -12.3246 C   0  0  0  0  0  0  0  0  0  0  0  0
   22.0670   -6.8591  -10.5435 S   0  0  0  0  0  0  0  0  0  0  0  0
   20.6724   -5.4421  -14.0713 C   0  0  0  0  0  0  0  0  0  0  0  0
   21.3966   -4.3253  -14.4997 O   0  0  0  0  0  0  0  0  0  0  0  0
   20.0631   -6.0915  -14.9588 O   0  0  0  0  0  0  0  0  0  0  0  0
  2  1  1  0
  3  2  1  0
  4  3  2  0
  5  3  1  0
  6 11  1  0
  6  5  1  0
  6  7  1  6
  8  7  1  0
  9 10  2  0
  9  8  1  0
 11 12  2  0
 13  9  1  0
 14 15  1  0
 14 11  1  0
 15 16  1  6
 16 17  1  0
 18 19  1  0
 18 15  1  0
 20 18  2  0
M  END
$$$$
