GEC.pdb
     RDKit          3D

 20 19  0  0  1  0  0  0  0  0999 V2000
   18.8239  -12.0547  -16.6054 N   0  0  0  0  0  0  0  0  0  0  0  0
   18.9150  -11.3328  -17.8602 C   0  0  0  0  0  0  0  0  0  0  0  0
   19.3690   -9.9515  -17.5650 C   0  0  0  0  0  0  0  0  0  0  0  0
   20.5764   -9.5938  -17.7529 O   0  0  0  0  0  0  0  0  0  0  0  0
   18.4947   -8.9480  -17.0584 N   0  0  0  0  0  0  0  0  0  0  0  0
   18.9316   -7.5957  -16.7845 C   0  0  1  0  0  0  0  0  0  0  0  0
   17.7844   -6.6138  -16.7992 C   0  0  0  0  0  0  0  0  0  0  0  0
   17.3107   -6.3055  -18.1979 C   0  0  0  0  0  0  0  0  0  0  0  0
   16.1582   -5.3773  -18.1036 C   0  0  0  0  0  0  0  0  0  0  0  0
   16.2660   -4.1670  -18.4343 O   0  0  0  0  0  0  0  0  0  0  0  0
   19.7164   -7.5250  -15.5162 C   0  0  0  0  0  0  0  0  0  0  0  0
   19.2593   -7.9071  -14.4080 O   0  0  0  0  0  0  0  0  0  0  0  0
   14.8973   -5.7857  -17.6471 O   0  0  0  0  0  0  0  0  0  0  0  0
   21.0323   -7.0079  -15.5492 N   0  0  0  0  0  0  0  0  0  0  0  0
   21.9143   -6.9442  -14.4306 C   0  0  1  0  0  0  0  0  0  0  0  0
   23.2276   -7.6090  -14.8387 C   0  0  0  0  0  0  0  0  0  0  0  0
   23.0741   -9.4040  -14.8035 S   0  0  0  0  0  0  0  0  0  0  0  0
   22.1696   -5.5177  -14.1084 C   0  0  0  0  0  0  0  0  0  0  0  0
   22.6566   -5.1100  -12.8626 O   0  0  0  0  0  0  0  0  0  0  0  0
   21.9553   -4.6110  -14.9526 O   0  0  0  0  0  0  0  0  0  0  0  0
  2  1  1  0
  3  2  1  0
  4  3  2  0
  5  3  1  0
  6 11  1  0
  6  5  1  0
  6  7  1  1
  8  7  1  0
  9 10  2  0
  9  8  1  0
 11 12  2  0
 13  9  1  0
 14 15  1  0
 14 11  1  0
 15 16  1  6
 16 17  1  0
 18 19  1  0
 18 15  1  0
 20 18  2  0
M  END
$$$$
