GEC.pdb
     RDKit          3D

 20 19  0  0  1  0  0  0  0  0999 V2000
   13.2812  -16.0389    4.5918 N   0  0  0  0  0  0  0  0  0  0  0  0
   14.1557  -16.6528    3.6109 C   0  0  0  0  0  0  0  0  0  0  0  0
   15.0527  -17.5977    4.3207 C   0  0  0  0  0  0  0  0  0  0  0  0
   15.1025  -17.6397    5.5923 O   0  0  0  0  0  0  0  0  0  0  0  0
   15.9060  -18.5083    3.6344 N   0  0  0  0  0  0  0  0  0  0  0  0
   16.8039  -19.4098    4.3242 C   0  0  1  0  0  0  0  0  0  0  0  0
   17.0166  -20.6949    3.5601 C   0  0  0  0  0  0  0  0  0  0  0  0
   17.8530  -21.6877    4.3285 C   0  0  0  0  0  0  0  0  0  0  0  0
   18.0438  -22.8888    3.4802 C   0  0  0  0  0  0  0  0  0  0  0  0
   18.6058  -23.9224    3.9291 O   0  0  0  0  0  0  0  0  0  0  0  0
   18.0930  -18.7375    4.6640 C   0  0  0  0  0  0  0  0  0  0  0  0
   18.6819  -17.9518    3.8771 O   0  0  0  0  0  0  0  0  0  0  0  0
   17.6160  -22.9449    2.1464 O   0  0  0  0  0  0  0  0  0  0  0  0
   18.6883  -18.9867    5.9225 N   0  0  0  0  0  0  0  0  0  0  0  0
   19.9033  -18.3997    6.3832 C   0  0  1  0  0  0  0  0  0  0  0  0
   19.5434  -17.1141    7.1254 C   0  0  0  0  0  0  0  0  0  0  0  0
   20.9816  -16.4447    7.9800 S   0  0  0  0  0  0  0  0  0  0  0  0
   20.5568  -19.3409    7.3271 C   0  0  0  0  0  0  0  0  0  0  0  0
   21.9464  -19.4797    7.3997 O   0  0  0  0  0  0  0  0  0  0  0  0
   19.8786  -20.0574    8.1063 O   0  0  0  0  0  0  0  0  0  0  0  0
  2  1  1  0
  3  2  1  0
  4  3  2  0
  5  3  1  0
  6 11  1  0
  6  5  1  0
  6  7  1  6
  8  7  1  0
  9 10  2  0
  9  8  1  0
 11 12  2  0
 13  9  1  0
 14 15  1  0
 14 11  1  0
 15 16  1  1
 16 17  1  0
 18 19  1  0
 18 15  1  0
 20 18  2  0
M  END
$$$$
