GEC.pdb
     RDKit          3D

 20 19  0  0  1  0  0  0  0  0999 V2000
   12.3984  -13.8548  -12.9648 N   0  0  0  0  0  0  0  0  0  0  0  0
   12.9497  -13.7429  -14.3017 C   0  0  0  0  0  0  0  0  0  0  0  0
   14.2120  -12.9680  -14.2160 C   0  0  0  0  0  0  0  0  0  0  0  0
   15.0791  -13.2066  -13.3147 O   0  0  0  0  0  0  0  0  0  0  0  0
   14.5323  -11.9196  -15.1251 N   0  0  0  0  0  0  0  0  0  0  0  0
   15.8051  -11.2310  -15.1078 C   0  0  1  0  0  0  0  0  0  0  0  0
   16.3413  -10.9926  -16.4992 C   0  0  0  0  0  0  0  0  0  0  0  0
   17.7187  -10.3776  -16.4859 C   0  0  0  0  0  0  0  0  0  0  0  0
   18.6960  -11.4194  -16.8838 C   0  0  0  0  0  0  0  0  0  0  0  0
   19.1708  -12.2251  -16.0405 O   0  0  0  0  0  0  0  0  0  0  0  0
   15.7298   -9.9708  -14.3104 C   0  0  0  0  0  0  0  0  0  0  0  0
   14.8167   -9.1189  -14.4639 O   0  0  0  0  0  0  0  0  0  0  0  0
   19.1436  -11.5677  -18.2039 O   0  0  0  0  0  0  0  0  0  0  0  0
   16.7226   -9.7121  -13.3369 N   0  0  0  0  0  0  0  0  0  0  0  0
   16.7954   -8.5349  -12.5358 C   0  0  1  0  0  0  0  0  0  0  0  0
   17.8547   -8.7716  -11.4611 C   0  0  0  0  0  0  0  0  0  0  0  0
   17.2885   -9.9921  -10.2625 S   0  0  0  0  0  0  0  0  0  0  0  0
   17.2185   -7.4012  -13.3958 C   0  0  0  0  0  0  0  0  0  0  0  0
   16.9930   -6.0684  -13.0375 O   0  0  0  0  0  0  0  0  0  0  0  0
   17.8024   -7.5978  -14.4917 O   0  0  0  0  0  0  0  0  0  0  0  0
  2  1  1  0
  3  2  1  0
  4  3  2  0
  5  3  1  0
  6 11  1  0
  6  5  1  0
  6  7  1  6
  8  7  1  0
  9 10  2  0
  9  8  1  0
 11 12  2  0
 13  9  1  0
 14 15  1  0
 14 11  1  0
 15 16  1  1
 16 17  1  0
 18 19  1  0
 18 15  1  0
 20 18  2  0
M  END
$$$$
