NNQ.pdb
     RDKit          3D

 26 25  0  0  1  0  0  0  0  0999 V2000
   30.1100  -23.1099  -17.5934 N   0  0  0  0  0  0  0  0  0  0  0  0
   28.9197  -22.3394  -17.4723 C   0  0  0  0  0  0  0  0  0  0  0  0
   28.7275  -21.3976  -18.2706 O   0  0  0  0  0  0  0  0  0  0  0  0
   27.9691  -22.6943  -16.4065 C   0  0  0  0  0  0  0  0  0  0  0  0
   27.1511  -21.4893  -16.0513 C   0  0  2  0  0  0  0  0  0  0  0  0
   27.9686  -20.3831  -15.6566 N   0  0  0  0  0  0  0  0  0  0  0  0
   26.1772  -21.7839  -14.9498 C   0  0  0  0  0  0  0  0  0  0  0  0
   25.3837  -22.7742  -15.0781 O   0  0  0  0  0  0  0  0  0  0  0  0
   25.1807  -21.3033   -9.0948 N   0  0  0  0  0  0  0  0  0  0  0  0
   24.7881  -20.7849  -10.3364 C   0  0  0  0  0  0  0  0  0  0  0  0
   23.5768  -20.4449  -10.5177 O   0  0  0  0  0  0  0  0  0  0  0  0
   25.7239  -20.6120  -11.4463 C   0  0  0  0  0  0  0  0  0  0  0  0
   25.1991  -21.2537  -12.6944 C   0  0  2  0  0  0  0  0  0  0  0  0
   26.1400  -20.9774  -13.7899 N   0  0  0  0  0  0  0  0  0  0  0  0
   23.9128  -20.6287  -13.1505 C   0  0  0  0  0  0  0  0  0  0  0  0
   23.8722  -19.4204  -13.4056 O   0  0  0  0  0  0  0  0  0  0  0  0
   20.4866  -21.8356  -17.5940 N   0  0  0  0  0  0  0  0  0  0  0  0
   20.6299  -22.8606  -16.6458 C   0  0  0  0  0  0  0  0  0  0  0  0
   20.5259  -24.0635  -16.9806 O   0  0  0  0  0  0  0  0  0  0  0  0
   20.9091  -22.5285  -15.2218 C   0  0  0  0  0  0  0  0  0  0  0  0
   21.1659  -21.0710  -15.0694 C   0  0  0  0  0  0  0  0  0  0  0  0
   21.4761  -20.6890  -13.6455 C   0  0  2  0  0  0  0  0  0  0  0  0
   22.7236  -21.4002  -13.2985 N   0  0  0  0  0  0  0  0  0  0  0  0
   20.3997  -21.1879  -12.7653 C   0  0  0  0  0  0  0  0  0  0  0  0
   20.7062  -22.2971  -11.9459 O   0  0  0  0  0  0  0  0  0  0  0  0
   19.2541  -20.6736  -12.7216 O   0  0  0  0  0  0  0  0  0  0  0  0
  2  1  1  0
  2  3  2  0
  4  2  1  0
  5  7  1  0
  5  4  1  0
  5  6  1  1
  7  8  2  0
 10 11  2  0
 10  9  1  0
 12 10  1  0
 13 12  1  1
 14  7  1  0
 14 13  1  0
 15 16  2  0
 15 13  1  0
 17 18  1  0
 18 20  1  0
 19 18  2  0
 20 21  1  0
 22 21  1  6
 22 23  1  0
 23 15  1  0
 24 22  1  0
 24 25  1  0
 26 24  2  0
M  END
$$$$
