NNQ.pdb
     RDKit          3D

 26 25  0  0  1  0  0  0  0  0999 V2000
   15.3349  -12.7579  -10.9269 N   0  0  0  0  0  0  0  0  0  0  0  0
   16.2867  -12.4199  -11.9295 C   0  0  0  0  0  0  0  0  0  0  0  0
   16.9282  -13.3370  -12.4851 O   0  0  0  0  0  0  0  0  0  0  0  0
   16.4672  -10.9982  -12.2635 C   0  0  0  0  0  0  0  0  0  0  0  0
   15.5457  -10.1705  -11.4191 C   0  0  2  0  0  0  0  0  0  0  0  0
   14.1965  -10.2164  -11.8938 N   0  0  0  0  0  0  0  0  0  0  0  0
   15.9848   -8.7380  -11.3579 C   0  0  0  0  0  0  0  0  0  0  0  0
   15.8517   -8.0083  -12.3956 O   0  0  0  0  0  0  0  0  0  0  0  0
   14.4313   -5.9530   -9.3558 N   0  0  0  0  0  0  0  0  0  0  0  0
   15.4253   -5.9887   -8.3683 C   0  0  0  0  0  0  0  0  0  0  0  0
   15.1243   -5.7022   -7.1671 O   0  0  0  0  0  0  0  0  0  0  0  0
   16.8113   -6.3493   -8.6622 C   0  0  0  0  0  0  0  0  0  0  0  0
   16.9576   -6.8004  -10.0835 C   0  0  2  0  0  0  0  0  0  0  0  0
   16.5365   -8.2065  -10.1704 N   0  0  0  0  0  0  0  0  0  0  0  0
   18.3929   -6.8207  -10.5226 C   0  0  0  0  0  0  0  0  0  0  0  0
   19.1328   -7.7434  -10.1654 O   0  0  0  0  0  0  0  0  0  0  0  0
   20.1739   -9.6028  -14.1170 N   0  0  0  0  0  0  0  0  0  0  0  0
   21.3416   -8.8300  -14.2148 C   0  0  0  0  0  0  0  0  0  0  0  0
   22.3128   -9.2194  -14.9041 O   0  0  0  0  0  0  0  0  0  0  0  0
   21.4407   -7.5300  -13.4962 C   0  0  0  0  0  0  0  0  0  0  0  0
   20.2030   -7.2757  -12.7105 C   0  0  0  0  0  0  0  0  0  0  0  0
   20.2792   -5.9963  -11.9187 C   0  0  2  0  0  0  0  0  0  0  0  0
   18.9312   -5.7921  -11.3495 N   0  0  0  0  0  0  0  0  0  0  0  0
   20.5676   -4.8756  -12.8368 C   0  0  0  0  0  0  0  0  0  0  0  0
   19.4584   -4.2375  -13.4353 O   0  0  0  0  0  0  0  0  0  0  0  0
   21.7323   -4.4816  -13.0954 O   0  0  0  0  0  0  0  0  0  0  0  0
  2  1  1  0
  2  3  2  0
  4  2  1  0
  5  7  1  0
  5  4  1  0
  5  6  1  6
  7  8  2  0
 10 11  2  0
 10  9  1  0
 12 10  1  0
 13 12  1  1
 14  7  1  0
 14 13  1  0
 15 16  2  0
 15 13  1  0
 17 18  1  0
 18 20  1  0
 19 18  2  0
 20 21  1  0
 22 21  1  6
 22 23  1  0
 23 15  1  0
 24 22  1  0
 24 25  1  0
 26 24  2  0
M  END
$$$$
