NNQ.pdb
     RDKit          3D

 26 25  0  0  1  0  0  0  0  0999 V2000
   18.9691  -13.3980  -17.3908 N   0  0  0  0  0  0  0  0  0  0  0  0
   18.1916  -12.3775  -16.7748 C   0  0  0  0  0  0  0  0  0  0  0  0
   17.1027  -12.0529  -17.2948 O   0  0  0  0  0  0  0  0  0  0  0  0
   18.7126  -11.7535  -15.5483 C   0  0  0  0  0  0  0  0  0  0  0  0
   18.3123  -10.3091  -15.5194 C   0  0  2  0  0  0  0  0  0  0  0  0
   18.9315   -9.5594  -16.5693 N   0  0  0  0  0  0  0  0  0  0  0  0
   18.6484   -9.6656  -14.2072 C   0  0  0  0  0  0  0  0  0  0  0  0
   18.2920  -10.2450  -13.1282 O   0  0  0  0  0  0  0  0  0  0  0  0
   20.7847   -6.5234  -10.6892 N   0  0  0  0  0  0  0  0  0  0  0  0
   21.3508   -6.2423  -11.9402 C   0  0  0  0  0  0  0  0  0  0  0  0
   22.3274   -5.4324  -12.0172 O   0  0  0  0  0  0  0  0  0  0  0  0
   20.8632   -6.8506  -13.1770 C   0  0  0  0  0  0  0  0  0  0  0  0
   19.7737   -7.8395  -12.8944 C   0  0  2  0  0  0  0  0  0  0  0  0
   19.3478   -8.4383  -14.1679 N   0  0  0  0  0  0  0  0  0  0  0  0
   18.5337   -7.1761  -12.3694 C   0  0  0  0  0  0  0  0  0  0  0  0
   17.9168   -6.3749  -13.0793 O   0  0  0  0  0  0  0  0  0  0  0  0
   14.2205   -9.7191   -9.0759 N   0  0  0  0  0  0  0  0  0  0  0  0
   13.7817   -8.3875   -9.0057 C   0  0  0  0  0  0  0  0  0  0  0  0
   12.6711   -8.1038   -8.4995 O   0  0  0  0  0  0  0  0  0  0  0  0
   14.6361   -7.2895   -9.5351 C   0  0  0  0  0  0  0  0  0  0  0  0
   15.9231   -7.8338  -10.0462 C   0  0  0  0  0  0  0  0  0  0  0  0
   16.8095   -6.7619  -10.6252 C   0  0  2  0  0  0  0  0  0  0  0  0
   18.0437   -7.4484  -11.0590 N   0  0  0  0  0  0  0  0  0  0  0  0
   17.1649   -5.8010   -9.5611 C   0  0  0  0  0  0  0  0  0  0  0  0
   16.3191   -4.6805   -9.4028 O   0  0  0  0  0  0  0  0  0  0  0  0
   18.1646   -5.9425   -8.8134 O   0  0  0  0  0  0  0  0  0  0  0  0
  2  1  1  0
  2  3  2  0
  4  2  1  0
  5  7  1  0
  5  4  1  0
  5  6  1  6
  7  8  2  0
 10 11  2  0
 10  9  1  0
 12 10  1  0
 13 12  1  6
 14  7  1  0
 14 13  1  0
 15 16  2  0
 15 13  1  0
 17 18  1  0
 18 20  1  0
 19 18  2  0
 20 21  1  0
 22 21  1  1
 22 23  1  0
 23 15  1  0
 24 22  1  0
 24 25  1  0
 26 24  2  0
M  END
$$$$
