NNQ.pdb
     RDKit          3D

 26 25  0  0  1  0  0  0  0  0999 V2000
   18.9179  -22.4420  -16.5532 N   0  0  0  0  0  0  0  0  0  0  0  0
   19.1821  -21.4249  -15.5935 C   0  0  0  0  0  0  0  0  0  0  0  0
   19.0768  -20.2287  -15.9387 O   0  0  0  0  0  0  0  0  0  0  0  0
   19.5674  -21.8368  -14.2344 C   0  0  0  0  0  0  0  0  0  0  0  0
   19.5655  -23.3336  -14.1515 C   0  0  2  0  0  0  0  0  0  0  0  0
   18.3701  -23.8998  -14.6976 N   0  0  0  0  0  0  0  0  0  0  0  0
   19.7217  -23.8121  -12.7390 C   0  0  0  0  0  0  0  0  0  0  0  0
   20.7309  -23.4203  -12.0643 O   0  0  0  0  0  0  0  0  0  0  0  0
   19.3693  -24.6779   -8.1217 N   0  0  0  0  0  0  0  0  0  0  0  0
   18.0612  -24.5402   -8.6060 C   0  0  0  0  0  0  0  0  0  0  0  0
   17.1344  -24.1846   -7.8122 O   0  0  0  0  0  0  0  0  0  0  0  0
   17.7116  -24.7874  -10.0039 C   0  0  0  0  0  0  0  0  0  0  0  0
   18.9186  -25.1905  -10.7948 C   0  0  2  0  0  0  0  0  0  0  0  0
   18.7668  -24.6821  -12.1661 N   0  0  0  0  0  0  0  0  0  0  0  0
   19.0089  -26.6792  -10.9645 C   0  0  0  0  0  0  0  0  0  0  0  0
   18.1444  -27.2782  -11.6129 O   0  0  0  0  0  0  0  0  0  0  0  0
   23.6203  -30.3766   -8.8342 N   0  0  0  0  0  0  0  0  0  0  0  0
   22.6586  -31.3227   -9.2220 C   0  0  0  0  0  0  0  0  0  0  0  0
   22.8431  -32.5453   -9.0192 O   0  0  0  0  0  0  0  0  0  0  0  0
   21.3998  -30.8818   -9.8832 C   0  0  0  0  0  0  0  0  0  0  0  0
   21.3465  -29.3968   -9.9601 C   0  0  0  0  0  0  0  0  0  0  0  0
   20.0466  -28.8987  -10.5362 C   0  0  2  0  0  0  0  0  0  0  0  0
   20.0768  -27.4288  -10.3909 N   0  0  0  0  0  0  0  0  0  0  0  0
   18.9269  -29.4203   -9.7261 C   0  0  0  0  0  0  0  0  0  0  0  0
   18.2973  -30.5975  -10.1882 O   0  0  0  0  0  0  0  0  0  0  0  0
   18.5276  -28.8687   -8.6702 O   0  0  0  0  0  0  0  0  0  0  0  0
  2  1  1  0
  2  3  2  0
  4  2  1  0
  5  7  1  0
  5  4  1  0
  5  6  1  1
  7  8  2  0
 10 11  2  0
 10  9  1  0
 12 10  1  0
 13 12  1  1
 14  7  1  0
 14 13  1  0
 15 16  2  0
 15 13  1  0
 17 18  1  0
 18 20  1  0
 19 18  2  0
 20 21  1  0
 22 21  1  1
 22 23  1  0
 23 15  1  0
 24 22  1  0
 24 25  1  0
 26 24  2  0
M  END
$$$$
