NNQ.pdb
     RDKit          3D

 26 25  0  0  1  0  0  0  0  0999 V2000
   22.9090  -16.0296  -20.0225 N   0  0  0  0  0  0  0  0  0  0  0  0
   24.0254  -15.3664  -20.6049 C   0  0  0  0  0  0  0  0  0  0  0  0
   24.5365  -15.8432  -21.6406 O   0  0  0  0  0  0  0  0  0  0  0  0
   24.5235  -14.1445  -19.9537 C   0  0  0  0  0  0  0  0  0  0  0  0
   23.6877  -13.8524  -18.7440 C   0  0  2  0  0  0  0  0  0  0  0  0
   22.3208  -13.6005  -19.0842 N   0  0  0  0  0  0  0  0  0  0  0  0
   24.2152  -12.6784  -17.9744 C   0  0  0  0  0  0  0  0  0  0  0  0
   25.4591  -12.6338  -17.6956 O   0  0  0  0  0  0  0  0  0  0  0  0
   25.9353   -7.5290  -17.9026 N   0  0  0  0  0  0  0  0  0  0  0  0
   25.4449   -8.6025  -17.1465 C   0  0  0  0  0  0  0  0  0  0  0  0
   25.4589   -8.5318  -15.8774 O   0  0  0  0  0  0  0  0  0  0  0  0
   24.9072   -9.8150  -17.7614 C   0  0  0  0  0  0  0  0  0  0  0  0
   23.8582  -10.4371  -16.8912 C   0  0  2  0  0  0  0  0  0  0  0  0
   23.3483  -11.6400  -17.5657 N   0  0  0  0  0  0  0  0  0  0  0  0
   22.6501   -9.5574  -16.7496 C   0  0  0  0  0  0  0  0  0  0  0  0
   22.0231   -9.2066  -17.7547 O   0  0  0  0  0  0  0  0  0  0  0  0
   18.4393   -9.8364  -12.4684 N   0  0  0  0  0  0  0  0  0  0  0  0
   17.9874   -8.7041  -13.1645 C   0  0  0  0  0  0  0  0  0  0  0  0
   16.8523   -8.2236  -12.9398 O   0  0  0  0  0  0  0  0  0  0  0  0
   18.8572   -8.0567  -14.1844 C   0  0  0  0  0  0  0  0  0  0  0  0
   20.1208   -8.8242  -14.3517 C   0  0  0  0  0  0  0  0  0  0  0  0
   21.0071   -8.2435  -15.4226 C   0  0  2  0  0  0  0  0  0  0  0  0
   22.2024   -9.1104  -15.4724 N   0  0  0  0  0  0  0  0  0  0  0  0
   21.4349   -6.8897  -15.0151 C   0  0  0  0  0  0  0  0  0  0  0  0
   20.6138   -5.8120  -15.4154 O   0  0  0  0  0  0  0  0  0  0  0  0
   22.4739   -6.6705  -14.3434 O   0  0  0  0  0  0  0  0  0  0  0  0
  2  1  1  0
  2  3  2  0
  4  2  1  0
  5  7  1  0
  5  4  1  0
  5  6  1  6
  7  8  2  0
 10 11  2  0
 10  9  1  0
 12 10  1  0
 13 12  1  6
 14  7  1  0
 14 13  1  0
 15 16  2  0
 15 13  1  0
 17 18  1  0
 18 20  1  0
 19 18  2  0
 20 21  1  0
 22 21  1  1
 22 23  1  0
 23 15  1  0
 24 22  1  0
 24 25  1  0
 26 24  2  0
M  END
$$$$
