NNQ.pdb
     RDKit          3D

 26 25  0  0  1  0  0  0  0  0999 V2000
   20.8063  -15.7388  -16.1524 N   0  0  0  0  0  0  0  0  0  0  0  0
   21.3340  -14.6496  -16.9011 C   0  0  0  0  0  0  0  0  0  0  0  0
   20.9527  -14.4877  -18.0799 O   0  0  0  0  0  0  0  0  0  0  0  0
   22.3075  -13.7632  -16.2439 C   0  0  0  0  0  0  0  0  0  0  0  0
   22.0326  -12.3443  -16.6422 C   0  0  2  0  0  0  0  0  0  0  0  0
   22.2051  -12.1384  -18.0477 N   0  0  0  0  0  0  0  0  0  0  0  0
   22.9120  -11.3797  -15.9040 C   0  0  0  0  0  0  0  0  0  0  0  0
   22.8492  -11.3397  -14.6307 O   0  0  0  0  0  0  0  0  0  0  0  0
   26.1954  -11.5354  -15.0184 N   0  0  0  0  0  0  0  0  0  0  0  0
   26.7469  -10.5977  -15.9021 C   0  0  0  0  0  0  0  0  0  0  0  0
   27.9696  -10.6960  -16.2356 O   0  0  0  0  0  0  0  0  0  0  0  0
   25.9664   -9.4986  -16.4680 C   0  0  0  0  0  0  0  0  0  0  0  0
   24.5733   -9.4916  -15.9168 C   0  0  2  0  0  0  0  0  0  0  0  0
   23.7948  -10.5299  -16.6081 N   0  0  0  0  0  0  0  0  0  0  0  0
   23.8479   -8.2169  -16.2366 C   0  0  0  0  0  0  0  0  0  0  0  0
   23.5979   -7.9293  -17.4119 O   0  0  0  0  0  0  0  0  0  0  0  0
   19.0667   -7.8216  -17.3124 N   0  0  0  0  0  0  0  0  0  0  0  0
   19.0436   -6.4533  -17.0000 C   0  0  0  0  0  0  0  0  0  0  0  0
   18.0300   -5.7573  -17.2409 O   0  0  0  0  0  0  0  0  0  0  0  0
   20.2308   -5.8086  -16.3747 C   0  0  0  0  0  0  0  0  0  0  0  0
   21.3058   -6.8115  -16.1460 C   0  0  0  0  0  0  0  0  0  0  0  0
   22.5595   -6.1910  -15.5867 C   0  0  2  0  0  0  0  0  0  0  0  0
   23.4355   -7.3192  -15.2092 N   0  0  0  0  0  0  0  0  0  0  0  0
   22.2217   -5.4383  -14.3614 C   0  0  0  0  0  0  0  0  0  0  0  0
   21.7522   -4.1168  -14.5317 O   0  0  0  0  0  0  0  0  0  0  0  0
   22.3340   -5.9199  -13.2063 O   0  0  0  0  0  0  0  0  0  0  0  0
  2  1  1  0
  2  3  2  0
  4  2  1  0
  5  7  1  0
  5  4  1  0
  5  6  1  6
  7  8  2  0
 10 11  2  0
 10  9  1  0
 12 10  1  0
 13 12  1  6
 14  7  1  0
 14 13  1  0
 15 16  2  0
 15 13  1  0
 17 18  1  0
 18 20  1  0
 19 18  2  0
 20 21  1  0
 22 21  1  1
 22 23  1  0
 23 15  1  0
 24 22  1  0
 24 25  1  0
 26 24  2  0
M  END
$$$$
