NNQ.pdb
     RDKit          3D

 26 25  0  0  1  0  0  0  0  0999 V2000
   27.5752  -13.4921  -17.7118 N   0  0  0  0  0  0  0  0  0  0  0  0
   26.8280  -13.2218  -16.5311 C   0  0  0  0  0  0  0  0  0  0  0  0
   27.3975  -13.3151  -15.4229 O   0  0  0  0  0  0  0  0  0  0  0  0
   25.4136  -12.8429  -16.6769 C   0  0  0  0  0  0  0  0  0  0  0  0
   25.0711  -12.7596  -18.1340 C   0  0  2  0  0  0  0  0  0  0  0  0
   26.2348  -12.8309  -18.9637 N   0  0  0  0  0  0  0  0  0  0  0  0
   24.3265  -11.4990  -18.4585 C   0  0  0  0  0  0  0  0  0  0  0  0
   24.2908  -11.0994  -19.6693 O   0  0  0  0  0  0  0  0  0  0  0  0
   21.1843   -7.7441  -18.9613 N   0  0  0  0  0  0  0  0  0  0  0  0
   20.9229   -9.0889  -19.2573 C   0  0  0  0  0  0  0  0  0  0  0  0
   19.9930   -9.3805  -20.0735 O   0  0  0  0  0  0  0  0  0  0  0  0
   21.6852  -10.1860  -18.6635 C   0  0  0  0  0  0  0  0  0  0  0  0
   22.7570   -9.6639  -17.7560 C   0  0  2  0  0  0  0  0  0  0  0  0
   23.6761  -10.7671  -17.4395 N   0  0  0  0  0  0  0  0  0  0  0  0
   22.2109   -9.2485  -16.4209 C   0  0  0  0  0  0  0  0  0  0  0  0
   21.8681  -10.1077  -15.6018 O   0  0  0  0  0  0  0  0  0  0  0  0
   21.4781   -3.3331  -14.5113 N   0  0  0  0  0  0  0  0  0  0  0  0
   22.7190   -3.9408  -14.7585 C   0  0  0  0  0  0  0  0  0  0  0  0
   23.7571   -3.2509  -14.8869 O   0  0  0  0  0  0  0  0  0  0  0  0
   22.8172   -5.4219  -14.8718 C   0  0  0  0  0  0  0  0  0  0  0  0
   21.4845   -6.0482  -14.6588 C   0  0  0  0  0  0  0  0  0  0  0  0
   21.5396   -7.5521  -14.7302 C   0  0  2  0  0  0  0  0  0  0  0  0
   22.0751   -7.8741  -16.0690 N   0  0  0  0  0  0  0  0  0  0  0  0
   20.1674   -8.0914  -14.6396 C   0  0  0  0  0  0  0  0  0  0  0  0
   19.6274   -8.2512  -13.3439 O   0  0  0  0  0  0  0  0  0  0  0  0
   19.4838   -8.4031  -15.6466 O   0  0  0  0  0  0  0  0  0  0  0  0
  2  1  1  0
  2  3  2  0
  4  2  1  0
  5  7  1  0
  5  4  1  0
  5  6  1  6
  7  8  2  0
 10 11  2  0
 10  9  1  0
 12 10  1  0
 13 12  1  6
 14  7  1  0
 14 13  1  0
 15 16  2  0
 15 13  1  0
 17 18  1  0
 18 20  1  0
 19 18  2  0
 20 21  1  0
 22 21  1  6
 22 23  1  0
 23 15  1  0
 24 22  1  0
 24 25  1  0
 26 24  2  0
M  END
$$$$
