NNQ.pdb
     RDKit          3D

 26 25  0  0  1  0  0  0  0  0999 V2000
   27.8486  -22.4031  -17.7940 N   0  0  0  0  0  0  0  0  0  0  0  0
   28.3620  -22.5147  -16.4713 C   0  0  0  0  0  0  0  0  0  0  0  0
   29.5962  -22.4323  -16.2951 O   0  0  0  0  0  0  0  0  0  0  0  0
   27.4065  -22.7217  -15.3716 C   0  0  0  0  0  0  0  0  0  0  0  0
   26.3305  -21.6806  -15.4481 C   0  0  2  0  0  0  0  0  0  0  0  0
   26.8576  -20.3549  -15.3370 N   0  0  0  0  0  0  0  0  0  0  0  0
   25.2923  -21.8754  -14.3838 C   0  0  0  0  0  0  0  0  0  0  0  0
   24.6217  -22.9604  -14.3690 O   0  0  0  0  0  0  0  0  0  0  0  0
   25.7092  -22.4974  -10.7802 N   0  0  0  0  0  0  0  0  0  0  0  0
   25.4020  -21.1873  -10.3879 C   0  0  0  0  0  0  0  0  0  0  0  0
   25.9415  -20.7043   -9.3432 O   0  0  0  0  0  0  0  0  0  0  0  0
   24.4787  -20.3388  -11.1397 C   0  0  0  0  0  0  0  0  0  0  0  0
   24.0179  -21.0247  -12.3895 C   0  0  2  0  0  0  0  0  0  0  0  0
   25.0615  -20.8735  -13.4143 N   0  0  0  0  0  0  0  0  0  0  0  0
   22.8165  -20.3539  -12.9894 C   0  0  0  0  0  0  0  0  0  0  0  0
   22.9251  -19.2291  -13.4892 O   0  0  0  0  0  0  0  0  0  0  0  0
   22.2115  -21.1775  -17.2573 N   0  0  0  0  0  0  0  0  0  0  0  0
   21.0161  -21.8620  -16.9869 C   0  0  0  0  0  0  0  0  0  0  0  0
   20.6661  -22.8422  -17.6844 O   0  0  0  0  0  0  0  0  0  0  0  0
   20.1444  -21.4286  -15.8606 C   0  0  0  0  0  0  0  0  0  0  0  0
   20.7622  -20.2851  -15.1364 C   0  0  0  0  0  0  0  0  0  0  0  0
   20.4246  -20.2864  -13.6681 C   0  0  2  0  0  0  0  0  0  0  0  0
   21.5393  -20.9865  -12.9974 N   0  0  0  0  0  0  0  0  0  0  0  0
   19.1914  -21.0716  -13.4559 C   0  0  0  0  0  0  0  0  0  0  0  0
   19.3413  -22.3565  -12.8880 O   0  0  0  0  0  0  0  0  0  0  0  0
   18.0470  -20.6475  -13.7542 O   0  0  0  0  0  0  0  0  0  0  0  0
  2  1  1  0
  2  3  2  0
  4  2  1  0
  5  7  1  0
  5  4  1  0
  5  6  1  1
  7  8  2  0
 10 11  2  0
 10  9  1  0
 12 10  1  0
 13 12  1  1
 14  7  1  0
 14 13  1  0
 15 16  2  0
 15 13  1  0
 17 18  1  0
 18 20  1  0
 19 18  2  0
 20 21  1  0
 22 21  1  6
 22 23  1  0
 23 15  1  0
 24 22  1  0
 24 25  1  0
 26 24  2  0
M  END
$$$$
