NNQ.pdb
     RDKit          3D

 26 25  0  0  1  0  0  0  0  0999 V2000
   28.8535  -23.0011  -16.2858 N   0  0  0  0  0  0  0  0  0  0  0  0
   27.7642  -22.7028  -17.1516 C   0  0  0  0  0  0  0  0  0  0  0  0
   28.0001  -22.1584  -18.2513 O   0  0  0  0  0  0  0  0  0  0  0  0
   26.4068  -23.0539  -16.7050 C   0  0  0  0  0  0  0  0  0  0  0  0
   25.5122  -21.8603  -16.8548 C   0  0  2  0  0  0  0  0  0  0  0  0
   26.1467  -20.6556  -16.4147 N   0  0  0  0  0  0  0  0  0  0  0  0
   24.2280  -22.0304  -16.0994 C   0  0  0  0  0  0  0  0  0  0  0  0
   23.6092  -23.1429  -16.1797 O   0  0  0  0  0  0  0  0  0  0  0  0
   20.7296  -21.4972  -12.0576 N   0  0  0  0  0  0  0  0  0  0  0  0
   21.2476  -20.3196  -12.6138 C   0  0  0  0  0  0  0  0  0  0  0  0
   20.6028  -19.2316  -12.4871 O   0  0  0  0  0  0  0  0  0  0  0  0
   22.5161  -20.2863  -13.3399 C   0  0  0  0  0  0  0  0  0  0  0  0
   22.4401  -21.1101  -14.5890 C   0  0  2  0  0  0  0  0  0  0  0  0
   23.7130  -20.9755  -15.3126 N   0  0  0  0  0  0  0  0  0  0  0  0
   21.4154  -20.5817  -15.5503 C   0  0  0  0  0  0  0  0  0  0  0  0
   21.6709  -19.5868  -16.2368 O   0  0  0  0  0  0  0  0  0  0  0  0
   17.4070  -23.8056  -18.7810 N   0  0  0  0  0  0  0  0  0  0  0  0
   17.1699  -22.5080  -19.2612 C   0  0  0  0  0  0  0  0  0  0  0  0
   16.4856  -22.3211  -20.2939 O   0  0  0  0  0  0  0  0  0  0  0  0
   17.7325  -21.3309  -18.5442 C   0  0  0  0  0  0  0  0  0  0  0  0
   18.6280  -21.7739  -17.4418 C   0  0  0  0  0  0  0  0  0  0  0  0
   19.1885  -20.6159  -16.6578 C   0  0  2  0  0  0  0  0  0  0  0  0
   20.1410  -21.2036  -15.6934 N   0  0  0  0  0  0  0  0  0  0  0  0
   18.0975  -19.9736  -15.8967 C   0  0  0  0  0  0  0  0  0  0  0  0
   17.4014  -18.9250  -16.5384 O   0  0  0  0  0  0  0  0  0  0  0  0
   17.7766  -20.3186  -14.7320 O   0  0  0  0  0  0  0  0  0  0  0  0
  2  1  1  0
  2  3  2  0
  4  2  1  0
  5  7  1  0
  5  4  1  0
  5  6  1  1
  7  8  2  0
 10 11  2  0
 10  9  1  0
 12 10  1  0
 13 12  1  1
 14  7  1  0
 14 13  1  0
 15 16  2  0
 15 13  1  0
 17 18  1  0
 18 20  1  0
 19 18  2  0
 20 21  1  0
 22 21  1  6
 22 23  1  0
 23 15  1  0
 24 22  1  0
 24 25  1  0
 26 24  2  0
M  END
$$$$
