NNQ.pdb
     RDKit          3D

 26 25  0  0  1  0  0  0  0  0999 V2000
   29.6964  -19.0365  -17.7667 N   0  0  0  0  0  0  0  0  0  0  0  0
   28.3312  -18.6444  -17.8552 C   0  0  0  0  0  0  0  0  0  0  0  0
   28.0139  -17.7436  -18.6608 O   0  0  0  0  0  0  0  0  0  0  0  0
   27.3564  -19.3252  -16.9882 C   0  0  0  0  0  0  0  0  0  0  0  0
   28.0730  -20.3139  -16.1186 C   0  0  2  0  0  0  0  0  0  0  0  0
   28.6565  -21.3751  -16.8809 N   0  0  0  0  0  0  0  0  0  0  0  0
   27.1623  -20.9086  -15.0864 C   0  0  0  0  0  0  0  0  0  0  0  0
   26.6513  -22.0569  -15.3044 O   0  0  0  0  0  0  0  0  0  0  0  0
   24.7390  -21.8302  -10.6402 N   0  0  0  0  0  0  0  0  0  0  0  0
   25.5603  -20.7089  -10.4595 C   0  0  0  0  0  0  0  0  0  0  0  0
   25.7024  -20.2187   -9.2954 O   0  0  0  0  0  0  0  0  0  0  0  0
   26.2733  -20.0717  -11.5654 C   0  0  0  0  0  0  0  0  0  0  0  0
   26.0068  -20.7843  -12.8561 C   0  0  2  0  0  0  0  0  0  0  0  0
   26.8755  -20.2081  -13.8931 N   0  0  0  0  0  0  0  0  0  0  0  0
   24.6163  -20.5316  -13.3619 C   0  0  0  0  0  0  0  0  0  0  0  0
   24.3200  -19.4229  -13.8197 O   0  0  0  0  0  0  0  0  0  0  0  0
   21.2852  -24.4026  -16.4332 N   0  0  0  0  0  0  0  0  0  0  0  0
   20.2791  -23.4551  -16.1871 C   0  0  0  0  0  0  0  0  0  0  0  0
   19.2167  -23.4603  -16.8512 O   0  0  0  0  0  0  0  0  0  0  0  0
   20.4637  -22.4262  -15.1273 C   0  0  0  0  0  0  0  0  0  0  0  0
   21.8113  -22.5533  -14.5095 C   0  0  0  0  0  0  0  0  0  0  0  0
   22.3059  -21.2496  -13.9391 C   0  0  2  0  0  0  0  0  0  0  0  0
   23.6173  -21.5475  -13.3273 N   0  0  0  0  0  0  0  0  0  0  0  0
   21.3866  -20.8094  -12.8699 C   0  0  0  0  0  0  0  0  0  0  0  0
   21.6839  -21.2344  -11.5558 O   0  0  0  0  0  0  0  0  0  0  0  0
   20.3786  -20.0903  -13.0835 O   0  0  0  0  0  0  0  0  0  0  0  0
  2  1  1  0
  2  3  2  0
  4  2  1  0
  5  7  1  0
  5  4  1  0
  5  6  1  6
  7  8  2  0
 10 11  2  0
 10  9  1  0
 12 10  1  0
 13 12  1  1
 14  7  1  0
 14 13  1  0
 15 16  2  0
 15 13  1  0
 17 18  1  0
 18 20  1  0
 19 18  2  0
 20 21  1  0
 22 21  1  1
 22 23  1  0
 23 15  1  0
 24 22  1  0
 24 25  1  0
 26 24  2  0
M  END
$$$$
