NNQ.pdb
     RDKit          3D

 26 25  0  0  1  0  0  0  0  0999 V2000
   28.9050  -23.6013  -17.8325 N   0  0  0  0  0  0  0  0  0  0  0  0
   28.8772  -22.4009  -17.0687 C   0  0  0  0  0  0  0  0  0  0  0  0
   29.3769  -21.3646  -17.5563 O   0  0  0  0  0  0  0  0  0  0  0  0
   28.2564  -22.4414  -15.7352 C   0  0  0  0  0  0  0  0  0  0  0  0
   27.0422  -21.5621  -15.7275 C   0  0  2  0  0  0  0  0  0  0  0  0
   27.3779  -20.1820  -15.9016 N   0  0  0  0  0  0  0  0  0  0  0  0
   26.2578  -21.7092  -14.4580 C   0  0  0  0  0  0  0  0  0  0  0  0
   25.6704  -22.8165  -14.2219 O   0  0  0  0  0  0  0  0  0  0  0  0
   24.8055  -21.6031   -9.7592 N   0  0  0  0  0  0  0  0  0  0  0  0
   25.7173  -20.5505   -9.9184 C   0  0  0  0  0  0  0  0  0  0  0  0
   26.2953  -20.0637   -8.8963 O   0  0  0  0  0  0  0  0  0  0  0  0
   26.0401  -19.9825  -11.2263 C   0  0  0  0  0  0  0  0  0  0  0  0
   25.3522  -20.7372  -12.3226 C   0  0  2  0  0  0  0  0  0  0  0  0
   26.1714  -20.6386  -13.5396 N   0  0  0  0  0  0  0  0  0  0  0  0
   24.0467  -20.1045  -12.7083 C   0  0  0  0  0  0  0  0  0  0  0  0
   24.0326  -18.9658  -13.1876 O   0  0  0  0  0  0  0  0  0  0  0  0
   22.2161  -20.3241  -17.3049 N   0  0  0  0  0  0  0  0  0  0  0  0
   21.2149  -21.1563  -16.7799 C   0  0  0  0  0  0  0  0  0  0  0  0
   20.5783  -21.9404  -17.5214 O   0  0  0  0  0  0  0  0  0  0  0  0
   20.8956  -21.1169  -15.3265 C   0  0  0  0  0  0  0  0  0  0  0  0
   21.8206  -20.1928  -14.6166 C   0  0  0  0  0  0  0  0  0  0  0  0
   21.5964  -20.1893  -13.1268 C   0  0  2  0  0  0  0  0  0  0  0  0
   22.8091  -20.7895  -12.5339 N   0  0  0  0  0  0  0  0  0  0  0  0
   20.4467  -21.0604  -12.8085 C   0  0  0  0  0  0  0  0  0  0  0  0
   20.7310  -22.4130  -12.5158 O   0  0  0  0  0  0  0  0  0  0  0  0
   19.2590  -20.6510  -12.7894 O   0  0  0  0  0  0  0  0  0  0  0  0
  2  1  1  0
  2  3  2  0
  4  2  1  0
  5  7  1  0
  5  4  1  0
  5  6  1  1
  7  8  2  0
 10 11  2  0
 10  9  1  0
 12 10  1  0
 13 12  1  1
 14  7  1  0
 14 13  1  0
 15 16  2  0
 15 13  1  0
 17 18  1  0
 18 20  1  0
 19 18  2  0
 20 21  1  0
 22 21  1  6
 22 23  1  0
 23 15  1  0
 24 22  1  0
 24 25  1  0
 26 24  2  0
M  END
$$$$
