NNQ.pdb
     RDKit          3D

 26 25  0  0  1  0  0  0  0  0999 V2000
   15.5093  -11.7258  -16.4902 N   0  0  0  0  0  0  0  0  0  0  0  0
   14.6347  -11.0594  -15.5866 C   0  0  0  0  0  0  0  0  0  0  0  0
   13.4168  -11.0005  -15.8596 O   0  0  0  0  0  0  0  0  0  0  0  0
   15.2132  -10.4708  -14.3683 C   0  0  0  0  0  0  0  0  0  0  0  0
   16.6964  -10.6887  -14.3694 C   0  0  2  0  0  0  0  0  0  0  0  0
   17.0383  -12.0547  -14.1152 N   0  0  0  0  0  0  0  0  0  0  0  0
   17.3856   -9.8246  -13.3560 C   0  0  0  0  0  0  0  0  0  0  0  0
   17.3032  -10.1374  -12.1221 O   0  0  0  0  0  0  0  0  0  0  0  0
   20.3592   -6.1290  -11.2591 N   0  0  0  0  0  0  0  0  0  0  0  0
   20.7088   -6.2900  -12.6068 C   0  0  0  0  0  0  0  0  0  0  0  0
   21.7288   -5.6857  -13.0651 O   0  0  0  0  0  0  0  0  0  0  0  0
   19.9437   -7.1370  -13.5205 C   0  0  0  0  0  0  0  0  0  0  0  0
   18.8522   -7.8608  -12.7927 C   0  0  2  0  0  0  0  0  0  0  0  0
   18.1135   -8.6834  -13.7620 N   0  0  0  0  0  0  0  0  0  0  0  0
   17.8177   -6.9189  -12.2488 C   0  0  0  0  0  0  0  0  0  0  0  0
   16.8096   -6.6608  -12.9149 O   0  0  0  0  0  0  0  0  0  0  0  0
   14.1943   -8.6520   -8.2809 N   0  0  0  0  0  0  0  0  0  0  0  0
   14.3374   -7.2608   -8.4026 C   0  0  0  0  0  0  0  0  0  0  0  0
   13.3580   -6.4979   -8.2334 O   0  0  0  0  0  0  0  0  0  0  0  0
   15.6631   -6.6717   -8.7363 C   0  0  0  0  0  0  0  0  0  0  0  0
   15.7232   -6.3123  -10.1789 C   0  0  0  0  0  0  0  0  0  0  0  0
   16.8904   -5.4149  -10.4982 C   0  0  2  0  0  0  0  0  0  0  0  0
   17.9691   -6.3071  -10.9705 N   0  0  0  0  0  0  0  0  0  0  0  0
   17.3466   -4.7547   -9.2580 C   0  0  0  0  0  0  0  0  0  0  0  0
   16.5397   -3.7093   -8.7560 O   0  0  0  0  0  0  0  0  0  0  0  0
   18.3973   -5.0822   -8.6518 O   0  0  0  0  0  0  0  0  0  0  0  0
  2  1  1  0
  2  3  2  0
  4  2  1  0
  5  7  1  0
  5  4  1  0
  5  6  1  1
  7  8  2  0
 10 11  2  0
 10  9  1  0
 12 10  1  0
 13 12  1  6
 14  7  1  0
 14 13  1  0
 15 16  2  0
 15 13  1  0
 17 18  1  0
 18 20  1  0
 19 18  2  0
 20 21  1  0
 22 21  1  1
 22 23  1  0
 23 15  1  0
 24 22  1  0
 24 25  1  0
 26 24  2  0
M  END
$$$$
