NNQ.pdb
     RDKit          3D

 26 25  0  0  1  0  0  0  0  0999 V2000
   15.1951  -14.3285  -15.2010 N   0  0  0  0  0  0  0  0  0  0  0  0
   16.2779  -15.1338  -15.6530 C   0  0  0  0  0  0  0  0  0  0  0  0
   16.2338  -16.3673  -15.4583 O   0  0  0  0  0  0  0  0  0  0  0  0
   17.4009  -14.4684  -16.3321 C   0  0  0  0  0  0  0  0  0  0  0  0
   17.1550  -12.9899  -16.3627 C   0  0  2  0  0  0  0  0  0  0  0  0
   16.0585  -12.6459  -17.2154 N   0  0  0  0  0  0  0  0  0  0  0  0
   18.3692  -12.2339  -16.8132 C   0  0  0  0  0  0  0  0  0  0  0  0
   19.4663  -12.3999  -16.1840 O   0  0  0  0  0  0  0  0  0  0  0  0
   21.5292   -9.1986  -19.5761 N   0  0  0  0  0  0  0  0  0  0  0  0
   20.5522   -9.7661  -20.4056 C   0  0  0  0  0  0  0  0  0  0  0  0
   20.6658   -9.6627  -21.6674 O   0  0  0  0  0  0  0  0  0  0  0  0
   19.3941  -10.4846  -19.8764 C   0  0  0  0  0  0  0  0  0  0  0  0
   19.4810  -10.6174  -18.3865 C   0  0  2  0  0  0  0  0  0  0  0  0
   18.2980  -11.3529  -17.9158 N   0  0  0  0  0  0  0  0  0  0  0  0
   19.3837   -9.2880  -17.6963 C   0  0  0  0  0  0  0  0  0  0  0  0
   18.3384   -8.6331  -17.7667 O   0  0  0  0  0  0  0  0  0  0  0  0
   21.8667   -7.9916  -12.4004 N   0  0  0  0  0  0  0  0  0  0  0  0
   20.4948   -8.2327  -12.5745 C   0  0  0  0  0  0  0  0  0  0  0  0
   19.7684   -8.5382  -11.6003 O   0  0  0  0  0  0  0  0  0  0  0  0
   19.8827   -8.1276  -13.9273 C   0  0  0  0  0  0  0  0  0  0  0  0
   20.8739   -7.6054  -14.9064 C   0  0  0  0  0  0  0  0  0  0  0  0
   20.2898   -7.4501  -16.2865 C   0  0  2  0  0  0  0  0  0  0  0  0
   20.4773   -8.7546  -16.9541 N   0  0  0  0  0  0  0  0  0  0  0  0
   21.0655   -6.4355  -17.0287 C   0  0  0  0  0  0  0  0  0  0  0  0
   20.6272   -5.0962  -16.9285 O   0  0  0  0  0  0  0  0  0  0  0  0
   22.0729   -6.7151  -17.7255 O   0  0  0  0  0  0  0  0  0  0  0  0
  2  1  1  0
  2  3  2  0
  4  2  1  0
  5  7  1  0
  5  4  1  0
  5  6  1  6
  7  8  2  0
 10 11  2  0
 10  9  1  0
 12 10  1  0
 13 12  1  6
 14  7  1  0
 14 13  1  0
 15 16  2  0
 15 13  1  0
 17 18  1  0
 18 20  1  0
 19 18  2  0
 20 21  1  0
 22 21  1  1
 22 23  1  0
 23 15  1  0
 24 22  1  0
 24 25  1  0
 26 24  2  0
M  END
$$$$
