EWF.pdb
     RDKit          3D

 35 37  0  0  1  0  0  0  0  0999 V2000
   10.4335  -17.9930   19.4769 N   0  0  0  0  0  0  0  0  0  0  0  0
   11.3073  -17.9310   20.6536 C   0  0  1  0  0  0  0  0  0  0  0  0
   12.6531  -17.4969   20.1528 C   0  0  0  0  0  0  0  0  0  0  0  0
   13.4415  -18.6022   19.5143 C   0  0  0  0  0  0  0  0  0  0  0  0
   14.8014  -18.0364   19.2221 C   0  0  0  0  0  0  0  0  0  0  0  0
   15.0181  -16.8616   19.5742 O   0  0  0  0  0  0  0  0  0  0  0  0
   10.7983  -16.9199   21.6096 C   0  0  0  0  0  0  0  0  0  0  0  0
   11.0929  -15.7308   21.5043 O   0  0  0  0  0  0  0  0  0  0  0  0
   15.8007  -18.7555   18.5900 O   0  0  0  0  0  0  0  0  0  0  0  0
    9.9491  -17.2993   22.6828 N   0  0  0  0  0  0  0  0  0  0  0  0
    9.3199  -16.3296   23.5886 C   0  0  1  0  0  0  0  0  0  0  0  0
    7.8415  -16.5864   23.5095 C   0  0  0  0  0  0  0  0  0  0  0  0
    7.1778  -16.0622   22.3235 C   0  0  0  0  0  0  0  0  0  0  0  0
    6.2284  -16.6891   21.5491 C   0  0  0  0  0  0  0  0  0  0  0  0
    5.8903  -15.8280   20.5444 N   0  0  0  0  0  0  0  0  0  0  0  0
    6.5980  -14.6933   20.6737 C   0  0  0  0  0  0  0  0  0  0  0  0
    6.5910  -13.5559   19.9002 C   0  0  0  0  0  0  0  0  0  0  0  0
    7.4163  -12.4853   20.2198 C   0  0  0  0  0  0  0  0  0  0  0  0
    8.2291  -12.5917   21.3147 C   0  0  0  0  0  0  0  0  0  0  0  0
    8.2272  -13.7378   22.0833 C   0  0  0  0  0  0  0  0  0  0  0  0
    7.4046  -14.8190   21.7743 C   0  0  0  0  0  0  0  0  0  0  0  0
    9.8828  -16.5322   24.9426 C   0  0  0  0  0  0  0  0  0  0  0  0
   10.2127  -17.6848   25.3031 O   0  0  0  0  0  0  0  0  0  0  0  0
   10.0657  -15.4653   25.8583 N   0  0  0  0  0  0  0  0  0  0  0  0
   10.5510  -15.6497   27.2231 C   0  0  1  0  0  0  0  0  0  0  0  0
   10.6039  -14.3238   27.9254 C   0  0  0  0  0  0  0  0  0  0  0  0
    9.4354  -13.5002   27.6083 C   0  0  0  0  0  0  0  0  0  0  0  0
    8.5758  -13.1237   28.6366 C   0  0  0  0  0  0  0  0  0  0  0  0
    7.4686  -12.3531   28.4201 C   0  0  0  0  0  0  0  0  0  0  0  0
    7.2016  -11.9382   27.1316 C   0  0  0  0  0  0  0  0  0  0  0  0
    8.0229  -12.2851   26.0814 C   0  0  0  0  0  0  0  0  0  0  0  0
    9.1295  -13.0626   26.3378 C   0  0  0  0  0  0  0  0  0  0  0  0
    9.7413  -16.6702   27.8866 C   0  0  0  0  0  0  0  0  0  0  0  0
    8.6165  -17.2667   27.3343 O   0  0  0  0  0  0  0  0  0  0  0  0
   10.0660  -17.0552   29.0472 O   0  0  0  0  0  0  0  0  0  0  0  0
  2  1  1  6
  3  4  1  0
  3  2  1  0
  4  5  1  0
  5  6  2  0
  5  9  1  0
  7  8  2  0
  7  2  1  0
 10  7  1  0
 11 10  1  0
 11 12  1  1
 12 13  1  0
 13 14  2  0
 13 21  1  0
 14 15  1  0
 15 16  1  0
 16 17  2  0
 18 17  1  0
 19 18  2  0
 20 21  2  0
 20 19  1  0
 21 16  1  0
 22 11  1  0
 23 22  2  0
 24 22  1  0
 25 33  1  0
 25 24  1  0
 25 26  1  1
 26 27  1  0
 27 28  2  0
 28 29  1  0
 30 29  2  0
 31 30  1  0
 32 27  1  0
 32 31  2  0
 33 34  1  0
 35 33  2  0
M  END
$$$$
