EWF.pdb
     RDKit          3D

 35 37  0  0  1  0  0  0  0  0999 V2000
    7.3952  -16.5205   18.6529 N   0  0  0  0  0  0  0  0  0  0  0  0
    8.5596  -17.0776   19.3498 C   0  0  1  0  0  0  0  0  0  0  0  0
    9.7411  -16.8204   18.4620 C   0  0  0  0  0  0  0  0  0  0  0  0
    9.7124  -17.6029   17.1823 C   0  0  0  0  0  0  0  0  0  0  0  0
   10.4242  -18.8953   17.4615 C   0  0  0  0  0  0  0  0  0  0  0  0
   10.8806  -19.0587   18.6087 O   0  0  0  0  0  0  0  0  0  0  0  0
    8.7619  -16.3756   20.6389 C   0  0  0  0  0  0  0  0  0  0  0  0
    8.9584  -15.1628   20.6858 O   0  0  0  0  0  0  0  0  0  0  0  0
   10.5888  -19.8893   16.5129 O   0  0  0  0  0  0  0  0  0  0  0  0
    8.7343  -17.0900   21.8659 N   0  0  0  0  0  0  0  0  0  0  0  0
    8.8160  -16.4342   23.1774 C   0  0  1  0  0  0  0  0  0  0  0  0
    7.6712  -16.9772   23.9851 C   0  0  0  0  0  0  0  0  0  0  0  0
    6.8567  -15.9795   24.6656 C   0  0  0  0  0  0  0  0  0  0  0  0
    5.7176  -16.1929   25.4078 C   0  0  0  0  0  0  0  0  0  0  0  0
    5.2893  -14.9752   25.8541 N   0  0  0  0  0  0  0  0  0  0  0  0
    6.1250  -14.0203   25.4128 C   0  0  0  0  0  0  0  0  0  0  0  0
    6.0927  -12.6594   25.6098 C   0  0  0  0  0  0  0  0  0  0  0  0
    7.0718  -11.8466   25.0527 C   0  0  0  0  0  0  0  0  0  0  0  0
    8.0601  -12.4309   24.3093 C   0  0  0  0  0  0  0  0  0  0  0  0
    8.0821  -13.7975   24.1188 C   0  0  0  0  0  0  0  0  0  0  0  0
    7.1067  -14.6245   24.6717 C   0  0  0  0  0  0  0  0  0  0  0  0
   10.1437  -16.7334   23.7595 C   0  0  0  0  0  0  0  0  0  0  0  0
   10.8365  -17.6519   23.2660 O   0  0  0  0  0  0  0  0  0  0  0  0
   10.6694  -16.0168   24.8643 N   0  0  0  0  0  0  0  0  0  0  0  0
   11.9721  -16.2986   25.4608 C   0  0  1  0  0  0  0  0  0  0  0  0
   12.3668  -15.1719   26.3710 C   0  0  0  0  0  0  0  0  0  0  0  0
   11.3970  -14.9895   27.4528 C   0  0  0  0  0  0  0  0  0  0  0  0
   10.3679  -14.0663   27.2882 C   0  0  0  0  0  0  0  0  0  0  0  0
    9.4233  -13.8437   28.2498 C   0  0  0  0  0  0  0  0  0  0  0  0
    9.5009  -14.5655   29.4233 C   0  0  0  0  0  0  0  0  0  0  0  0
   10.5006  -15.4901   29.6320 C   0  0  0  0  0  0  0  0  0  0  0  0
   11.4347  -15.6874   28.6405 C   0  0  0  0  0  0  0  0  0  0  0  0
   11.9372  -17.6186   26.0881 C   0  0  0  0  0  0  0  0  0  0  0  0
   10.7933  -18.3892   26.2413 O   0  0  0  0  0  0  0  0  0  0  0  0
   13.0117  -18.1178   26.5321 O   0  0  0  0  0  0  0  0  0  0  0  0
  2  1  1  6
  3  4  1  0
  3  2  1  0
  4  5  1  0
  5  6  2  0
  5  9  1  0
  7  8  2  0
  7  2  1  0
 10  7  1  0
 11 10  1  0
 11 12  1  1
 12 13  1  0
 13 14  2  0
 13 21  1  0
 14 15  1  0
 15 16  1  0
 16 17  2  0
 18 17  1  0
 19 18  2  0
 20 21  2  0
 20 19  1  0
 21 16  1  0
 22 11  1  0
 23 22  2  0
 24 22  1  0
 25 33  1  0
 25 24  1  0
 25 26  1  1
 26 27  1  0
 27 28  2  0
 28 29  1  0
 30 29  2  0
 31 30  1  0
 32 27  1  0
 32 31  2  0
 33 34  1  0
 35 33  2  0
M  END
$$$$
