EWF.pdb
     RDKit          3D

 35 37  0  0  1  0  0  0  0  0999 V2000
   10.1264  -18.8855   20.1627 N   0  0  0  0  0  0  0  0  0  0  0  0
   11.0524  -17.7510   20.0769 C   0  0  1  0  0  0  0  0  0  0  0  0
   10.9127  -17.2012   18.6881 C   0  0  0  0  0  0  0  0  0  0  0  0
   11.2592  -18.1891   17.6134 C   0  0  0  0  0  0  0  0  0  0  0  0
   12.6841  -17.9122   17.2289 C   0  0  0  0  0  0  0  0  0  0  0  0
   12.9636  -16.7520   16.8725 O   0  0  0  0  0  0  0  0  0  0  0  0
   10.6638  -16.7052   21.0519 C   0  0  0  0  0  0  0  0  0  0  0  0
   11.1194  -15.5651   20.9867 O   0  0  0  0  0  0  0  0  0  0  0  0
   13.6764  -18.8765   17.2549 O   0  0  0  0  0  0  0  0  0  0  0  0
    9.7468  -16.9932   22.0974 N   0  0  0  0  0  0  0  0  0  0  0  0
    9.3022  -15.9895   23.0728 C   0  0  1  0  0  0  0  0  0  0  0  0
    7.8268  -16.2102   23.2526 C   0  0  0  0  0  0  0  0  0  0  0  0
    7.2107  -15.4649   24.3420 C   0  0  0  0  0  0  0  0  0  0  0  0
    6.5879  -15.9746   25.4584 C   0  0  0  0  0  0  0  0  0  0  0  0
    6.1602  -14.9139   26.2049 N   0  0  0  0  0  0  0  0  0  0  0  0
    6.4983  -13.7697   25.5873 C   0  0  0  0  0  0  0  0  0  0  0  0
    6.2768  -12.4652   25.9631 C   0  0  0  0  0  0  0  0  0  0  0  0
    6.7181  -11.4199   25.1619 C   0  0  0  0  0  0  0  0  0  0  0  0
    7.3730  -11.7201   23.9992 C   0  0  0  0  0  0  0  0  0  0  0  0
    7.5896  -13.0327   23.6328 C   0  0  0  0  0  0  0  0  0  0  0  0
    7.1525  -14.0908   24.4268 C   0  0  0  0  0  0  0  0  0  0  0  0
   10.0833  -16.1785   24.3160 C   0  0  0  0  0  0  0  0  0  0  0  0
   10.7357  -15.2172   24.7823 O   0  0  0  0  0  0  0  0  0  0  0  0
   10.1246  -17.4152   25.0082 N   0  0  0  0  0  0  0  0  0  0  0  0
   10.8930  -17.6282   26.2315 C   0  0  1  0  0  0  0  0  0  0  0  0
    9.9893  -17.5103   27.4245 C   0  0  0  0  0  0  0  0  0  0  0  0
    9.8323  -16.1164   27.8446 C   0  0  0  0  0  0  0  0  0  0  0  0
   10.5836  -15.6463   28.9183 C   0  0  0  0  0  0  0  0  0  0  0  0
   10.4955  -14.3582   29.3653 C   0  0  0  0  0  0  0  0  0  0  0  0
    9.6272  -13.5001   28.7223 C   0  0  0  0  0  0  0  0  0  0  0  0
    8.8631  -13.9191   27.6552 C   0  0  0  0  0  0  0  0  0  0  0  0
    8.9787  -15.2240   27.2328 C   0  0  0  0  0  0  0  0  0  0  0  0
   11.6201  -18.8923   26.1276 C   0  0  0  0  0  0  0  0  0  0  0  0
   12.5801  -19.3266   27.0308 O   0  0  0  0  0  0  0  0  0  0  0  0
   11.3769  -19.6642   25.1551 O   0  0  0  0  0  0  0  0  0  0  0  0
  2  1  1  6
  3  4  1  0
  3  2  1  0
  4  5  1  0
  5  6  2  0
  5  9  1  0
  7  8  2  0
  7  2  1  0
 10  7  1  0
 11 10  1  0
 11 12  1  1
 12 13  1  0
 13 14  2  0
 13 21  1  0
 14 15  1  0
 15 16  1  0
 16 17  2  0
 18 17  1  0
 19 18  2  0
 20 21  2  0
 20 19  1  0
 21 16  1  0
 22 11  1  0
 23 22  2  0
 24 22  1  0
 25 33  1  0
 25 24  1  0
 25 26  1  1
 26 27  1  0
 27 28  2  0
 28 29  1  0
 30 29  2  0
 31 30  1  0
 32 27  1  0
 32 31  2  0
 33 34  1  0
 35 33  2  0
M  END
$$$$
