EWF.pdb
     RDKit          3D

 35 37  0  0  1  0  0  0  0  0999 V2000
    9.0322  -18.7057   18.9390 N   0  0  0  0  0  0  0  0  0  0  0  0
    9.6315  -17.3731   18.8078 C   0  0  1  0  0  0  0  0  0  0  0  0
    8.9344  -16.7127   17.6553 C   0  0  0  0  0  0  0  0  0  0  0  0
    9.5587  -17.0121   16.3244 C   0  0  0  0  0  0  0  0  0  0  0  0
    8.7360  -16.2863   15.2992 C   0  0  0  0  0  0  0  0  0  0  0  0
    9.2281  -15.2587   14.7963 O   0  0  0  0  0  0  0  0  0  0  0  0
    9.3856  -16.5841   20.0376 C   0  0  0  0  0  0  0  0  0  0  0  0
    9.0301  -15.4082   19.9860 O   0  0  0  0  0  0  0  0  0  0  0  0
    7.4790  -16.7068   14.9013 O   0  0  0  0  0  0  0  0  0  0  0  0
    9.5553  -17.1689   21.3206 N   0  0  0  0  0  0  0  0  0  0  0  0
    9.0998  -16.5275   22.5606 C   0  0  1  0  0  0  0  0  0  0  0  0
    7.6013  -16.4633   22.4687 C   0  0  0  0  0  0  0  0  0  0  0  0
    6.9229  -15.9553   23.6534 C   0  0  0  0  0  0  0  0  0  0  0  0
    6.2857  -16.6848   24.6310 C   0  0  0  0  0  0  0  0  0  0  0  0
    5.7940  -15.7970   25.5450 N   0  0  0  0  0  0  0  0  0  0  0  0
    6.1066  -14.5470   25.1642 C   0  0  0  0  0  0  0  0  0  0  0  0
    5.8229  -13.3438   25.7673 C   0  0  0  0  0  0  0  0  0  0  0  0
    6.2483  -12.1533   25.1918 C   0  0  0  0  0  0  0  0  0  0  0  0
    6.9504  -12.2093   24.0193 C   0  0  0  0  0  0  0  0  0  0  0  0
    7.2292  -13.4224   23.4237 C   0  0  0  0  0  0  0  0  0  0  0  0
    6.8088  -14.6240   23.9899 C   0  0  0  0  0  0  0  0  0  0  0  0
    9.5873  -17.3344   23.7020 C   0  0  0  0  0  0  0  0  0  0  0  0
    8.8500  -18.2248   24.1823 O   0  0  0  0  0  0  0  0  0  0  0  0
   10.8669  -17.1392   24.2806 N   0  0  0  0  0  0  0  0  0  0  0  0
   11.0725  -16.5479   25.5998 C   0  0  1  0  0  0  0  0  0  0  0  0
   10.4395  -15.1875   25.6495 C   0  0  0  0  0  0  0  0  0  0  0  0
   10.5160  -14.6074   26.9918 C   0  0  0  0  0  0  0  0  0  0  0  0
   11.5595  -14.9858   27.8322 C   0  0  0  0  0  0  0  0  0  0  0  0
   11.7005  -14.4852   29.0955 C   0  0  0  0  0  0  0  0  0  0  0  0
   10.7692  -13.5717   29.5454 C   0  0  0  0  0  0  0  0  0  0  0  0
    9.7196  -13.1665   28.7504 C   0  0  0  0  0  0  0  0  0  0  0  0
    9.6100  -13.6926   27.4831 C   0  0  0  0  0  0  0  0  0  0  0  0
   10.6097  -17.4842   26.6228 C   0  0  0  0  0  0  0  0  0  0  0  0
    9.3390  -18.0405   26.6660 O   0  0  0  0  0  0  0  0  0  0  0  0
   11.4030  -17.8286   27.5463 O   0  0  0  0  0  0  0  0  0  0  0  0
  2  1  1  1
  3  4  1  0
  3  2  1  0
  4  5  1  0
  5  6  2  0
  5  9  1  0
  7  8  2  0
  7  2  1  0
 10  7  1  0
 11 10  1  0
 11 12  1  6
 12 13  1  0
 13 14  2  0
 13 21  1  0
 14 15  1  0
 15 16  1  0
 16 17  2  0
 18 17  1  0
 19 18  2  0
 20 21  2  0
 20 19  1  0
 21 16  1  0
 22 11  1  0
 23 22  2  0
 24 22  1  0
 25 33  1  0
 25 24  1  0
 25 26  1  6
 26 27  1  0
 27 28  2  0
 28 29  1  0
 30 29  2  0
 31 30  1  0
 32 27  1  0
 32 31  2  0
 33 34  1  0
 35 33  2  0
M  END
$$$$
