EWF.pdb
     RDKit          3D

 35 37  0  0  1  0  0  0  0  0999 V2000
   10.8718  -18.2136   20.0739 N   0  0  0  0  0  0  0  0  0  0  0  0
   11.9377  -17.8062   20.9957 C   0  0  1  0  0  0  0  0  0  0  0  0
   12.8552  -16.9183   20.2080 C   0  0  0  0  0  0  0  0  0  0  0  0
   13.7657  -17.6674   19.2803 C   0  0  0  0  0  0  0  0  0  0  0  0
   15.1577  -17.4773   19.8103 C   0  0  0  0  0  0  0  0  0  0  0  0
   15.7007  -18.4584   20.3523 O   0  0  0  0  0  0  0  0  0  0  0  0
   11.3650  -17.0320   22.1217 C   0  0  0  0  0  0  0  0  0  0  0  0
   11.7495  -15.8928   22.3791 O   0  0  0  0  0  0  0  0  0  0  0  0
   15.8446  -16.2792   19.7215 O   0  0  0  0  0  0  0  0  0  0  0  0
   10.3478  -17.5887   22.9415 N   0  0  0  0  0  0  0  0  0  0  0  0
    9.6813  -16.8378   24.0132 C   0  0  1  0  0  0  0  0  0  0  0  0
    8.2075  -17.0593   23.8208 C   0  0  0  0  0  0  0  0  0  0  0  0
    7.5881  -16.2673   22.7667 C   0  0  0  0  0  0  0  0  0  0  0  0
    7.0559  -16.7209   21.5813 C   0  0  0  0  0  0  0  0  0  0  0  0
    6.5881  -15.6317   20.9030 N   0  0  0  0  0  0  0  0  0  0  0  0
    6.8133  -14.5242   21.6295 C   0  0  0  0  0  0  0  0  0  0  0  0
    6.5163  -13.2104   21.3507 C   0  0  0  0  0  0  0  0  0  0  0  0
    6.8441  -12.2099   22.2568 C   0  0  0  0  0  0  0  0  0  0  0  0
    7.4649  -12.5631   23.4232 C   0  0  0  0  0  0  0  0  0  0  0  0
    7.7576  -13.8846   23.6918 C   0  0  0  0  0  0  0  0  0  0  0  0
    7.4345  -14.8983   22.7922 C   0  0  0  0  0  0  0  0  0  0  0  0
   10.1891  -17.3385   25.3103 C   0  0  0  0  0  0  0  0  0  0  0  0
   11.0957  -18.2018   25.3217 O   0  0  0  0  0  0  0  0  0  0  0  0
    9.6869  -16.8774   26.5535 N   0  0  0  0  0  0  0  0  0  0  0  0
   10.1452  -17.3827   27.8446 C   0  0  1  0  0  0  0  0  0  0  0  0
    9.9381  -16.3360   28.9007 C   0  0  0  0  0  0  0  0  0  0  0  0
    9.9293  -14.9884   28.3279 C   0  0  0  0  0  0  0  0  0  0  0  0
   11.1281  -14.2867   28.2350 C   0  0  0  0  0  0  0  0  0  0  0  0
   11.2007  -13.0279   27.7088 C   0  0  0  0  0  0  0  0  0  0  0  0
   10.0377  -12.4397   27.2558 C   0  0  0  0  0  0  0  0  0  0  0  0
    8.8277  -13.0945   27.3265 C   0  0  0  0  0  0  0  0  0  0  0  0
    8.7934  -14.3617   27.8629 C   0  0  0  0  0  0  0  0  0  0  0  0
    9.5028  -18.6683   28.1122 C   0  0  0  0  0  0  0  0  0  0  0  0
    8.5048  -19.2298   27.3282 O   0  0  0  0  0  0  0  0  0  0  0  0
    9.8625  -19.3375   29.1240 O   0  0  0  0  0  0  0  0  0  0  0  0
  2  1  1  6
  3  4  1  0
  3  2  1  0
  4  5  1  0
  5  6  2  0
  5  9  1  0
  7  8  2  0
  7  2  1  0
 10  7  1  0
 11 10  1  0
 11 12  1  1
 12 13  1  0
 13 14  2  0
 13 21  1  0
 14 15  1  0
 15 16  1  0
 16 17  2  0
 18 17  1  0
 19 18  2  0
 20 21  2  0
 20 19  1  0
 21 16  1  0
 22 11  1  0
 23 22  2  0
 24 22  1  0
 25 33  1  0
 25 24  1  0
 25 26  1  1
 26 27  1  0
 27 28  2  0
 28 29  1  0
 30 29  2  0
 31 30  1  0
 32 27  1  0
 32 31  2  0
 33 34  1  0
 35 33  2  0
M  END
$$$$
