EWF.pdb
     RDKit          3D

 35 37  0  0  1  0  0  0  0  0999 V2000
    9.1560  -16.1798   18.6469 N   0  0  0  0  0  0  0  0  0  0  0  0
    9.8440  -17.0886   19.5704 C   0  0  1  0  0  0  0  0  0  0  0  0
   11.2513  -17.2113   19.0656 C   0  0  0  0  0  0  0  0  0  0  0  0
   12.0799  -18.2003   19.8312 C   0  0  0  0  0  0  0  0  0  0  0  0
   13.4422  -18.1881   19.1998 C   0  0  0  0  0  0  0  0  0  0  0  0
   13.6028  -18.8796   18.1765 O   0  0  0  0  0  0  0  0  0  0  0  0
    9.8681  -16.5042   20.9317 C   0  0  0  0  0  0  0  0  0  0  0  0
   10.5417  -15.5090   21.1917 O   0  0  0  0  0  0  0  0  0  0  0  0
   14.5027  -17.4539   19.7013 O   0  0  0  0  0  0  0  0  0  0  0  0
    9.1077  -17.0823   21.9827 N   0  0  0  0  0  0  0  0  0  0  0  0
    9.0537  -16.5178   23.3373 C   0  0  1  0  0  0  0  0  0  0  0  0
    7.7569  -16.9894   23.9322 C   0  0  0  0  0  0  0  0  0  0  0  0
    7.0161  -15.9901   24.6903 C   0  0  0  0  0  0  0  0  0  0  0  0
    5.8538  -16.1726   25.4043 C   0  0  0  0  0  0  0  0  0  0  0  0
    5.5188  -14.9664   25.9504 N   0  0  0  0  0  0  0  0  0  0  0  0
    6.4343  -14.0485   25.5977 C   0  0  0  0  0  0  0  0  0  0  0  0
    6.5086  -12.7110   25.9102 C   0  0  0  0  0  0  0  0  0  0  0  0
    7.5570  -11.9360   25.4308 C   0  0  0  0  0  0  0  0  0  0  0  0
    8.5050  -12.5335   24.6464 C   0  0  0  0  0  0  0  0  0  0  0  0
    8.4198  -13.8762   24.3399 C   0  0  0  0  0  0  0  0  0  0  0  0
    7.3739  -14.6653   24.8138 C   0  0  0  0  0  0  0  0  0  0  0  0
   10.2473  -16.9843   24.0782 C   0  0  0  0  0  0  0  0  0  0  0  0
   10.6905  -18.1354   23.8641 O   0  0  0  0  0  0  0  0  0  0  0  0
   10.9167  -16.1746   25.0303 N   0  0  0  0  0  0  0  0  0  0  0  0
   12.0323  -16.6459   25.8461 C   0  0  1  0  0  0  0  0  0  0  0  0
   12.5706  -15.5131   26.6713 C   0  0  0  0  0  0  0  0  0  0  0  0
   11.5403  -14.9466   27.5440 C   0  0  0  0  0  0  0  0  0  0  0  0
   10.7185  -13.9369   27.0508 C   0  0  0  0  0  0  0  0  0  0  0  0
    9.7328  -13.3624   27.8025 C   0  0  0  0  0  0  0  0  0  0  0  0
    9.5537  -13.8064   29.0966 C   0  0  0  0  0  0  0  0  0  0  0  0
   10.3418  -14.8032   29.6288 C   0  0  0  0  0  0  0  0  0  0  0  0
   11.3249  -15.3584   28.8414 C   0  0  0  0  0  0  0  0  0  0  0  0
   11.6080  -17.8197   26.6072 C   0  0  0  0  0  0  0  0  0  0  0  0
   10.2936  -18.2479   26.7291 O   0  0  0  0  0  0  0  0  0  0  0  0
   12.4801  -18.5124   27.2077 O   0  0  0  0  0  0  0  0  0  0  0  0
  2  1  1  6
  3  4  1  0
  3  2  1  0
  4  5  1  0
  5  6  2  0
  5  9  1  0
  7  8  2  0
  7  2  1  0
 10  7  1  0
 11 10  1  0
 11 12  1  1
 12 13  1  0
 13 14  2  0
 13 21  1  0
 14 15  1  0
 15 16  1  0
 16 17  2  0
 18 17  1  0
 19 18  2  0
 20 21  2  0
 20 19  1  0
 21 16  1  0
 22 11  1  0
 23 22  2  0
 24 22  1  0
 25 33  1  0
 25 24  1  0
 25 26  1  1
 26 27  1  0
 27 28  2  0
 28 29  1  0
 30 29  2  0
 31 30  1  0
 32 27  1  0
 32 31  2  0
 33 34  1  0
 35 33  2  0
M  END
$$$$
