EWF.pdb
     RDKit          3D

 35 37  0  0  1  0  0  0  0  0999 V2000
    9.5833  -18.9136   19.2521 N   0  0  0  0  0  0  0  0  0  0  0  0
   10.6550  -17.9334   19.4579 C   0  0  1  0  0  0  0  0  0  0  0  0
   10.6721  -17.0687   18.2321 C   0  0  0  0  0  0  0  0  0  0  0  0
   11.1791  -17.7723   17.0079 C   0  0  0  0  0  0  0  0  0  0  0  0
   11.1204  -16.7708   15.8906 C   0  0  0  0  0  0  0  0  0  0  0  0
   12.1492  -16.1056   15.6663 O   0  0  0  0  0  0  0  0  0  0  0  0
   10.3513  -17.0916   20.6388 C   0  0  0  0  0  0  0  0  0  0  0  0
   10.9516  -16.0392   20.8489 O   0  0  0  0  0  0  0  0  0  0  0  0
    9.9911  -16.5635   15.1182 O   0  0  0  0  0  0  0  0  0  0  0  0
    9.3505  -17.4801   21.5684 N   0  0  0  0  0  0  0  0  0  0  0  0
    9.0894  -16.7515   22.8165 C   0  0  1  0  0  0  0  0  0  0  0  0
    7.6867  -17.1086   23.2200 C   0  0  0  0  0  0  0  0  0  0  0  0
    7.1003  -16.2684   24.2554 C   0  0  0  0  0  0  0  0  0  0  0  0
    6.2963  -16.6647   25.2997 C   0  0  0  0  0  0  0  0  0  0  0  0
    5.9805  -15.5458   26.0165 N   0  0  0  0  0  0  0  0  0  0  0  0
    6.5623  -14.4754   25.4502 C   0  0  0  0  0  0  0  0  0  0  0  0
    6.5252  -13.1514   25.8211 C   0  0  0  0  0  0  0  0  0  0  0  0
    7.2096  -12.1961   25.0805 C   0  0  0  0  0  0  0  0  0  0  0  0
    7.9151  -12.6040   23.9820 C   0  0  0  0  0  0  0  0  0  0  0  0
    7.9451  -13.9352   23.6198 C   0  0  0  0  0  0  0  0  0  0  0  0
    7.2633  -14.9038   24.3534 C   0  0  0  0  0  0  0  0  0  0  0  0
   10.1105  -17.1574   23.8084 C   0  0  0  0  0  0  0  0  0  0  0  0
   10.4571  -18.3585   23.8750 O   0  0  0  0  0  0  0  0  0  0  0  0
   10.7188  -16.2340   24.6959 N   0  0  0  0  0  0  0  0  0  0  0  0
   11.7369  -16.6078   25.6736 C   0  0  1  0  0  0  0  0  0  0  0  0
   12.2280  -15.3818   26.3875 C   0  0  0  0  0  0  0  0  0  0  0  0
   11.2338  -14.8779   27.3371 C   0  0  0  0  0  0  0  0  0  0  0  0
   10.4605  -13.7755   26.9833 C   0  0  0  0  0  0  0  0  0  0  0  0
    9.5104  -13.2510   27.8132 C   0  0  0  0  0  0  0  0  0  0  0  0
    9.3181  -13.8427   29.0447 C   0  0  0  0  0  0  0  0  0  0  0  0
   10.0586  -14.9354   29.4392 C   0  0  0  0  0  0  0  0  0  0  0  0
   11.0069  -15.4363   28.5764 C   0  0  0  0  0  0  0  0  0  0  0  0
   11.2067  -17.6588   26.5406 C   0  0  0  0  0  0  0  0  0  0  0  0
    9.8642  -17.9954   26.6416 O   0  0  0  0  0  0  0  0  0  0  0  0
   12.0062  -18.3241   27.2610 O   0  0  0  0  0  0  0  0  0  0  0  0
  2  1  1  6
  3  4  1  0
  3  2  1  0
  4  5  1  0
  5  6  2  0
  5  9  1  0
  7  8  2  0
  7  2  1  0
 10  7  1  0
 11 10  1  0
 11 12  1  1
 12 13  1  0
 13 14  2  0
 13 21  1  0
 14 15  1  0
 15 16  1  0
 16 17  2  0
 18 17  1  0
 19 18  2  0
 20 21  2  0
 20 19  1  0
 21 16  1  0
 22 11  1  0
 23 22  2  0
 24 22  1  0
 25 33  1  0
 25 24  1  0
 25 26  1  1
 26 27  1  0
 27 28  2  0
 28 29  1  0
 30 29  2  0
 31 30  1  0
 32 27  1  0
 32 31  2  0
 33 34  1  0
 35 33  2  0
M  END
$$$$
