EWF.pdb
     RDKit          3D

 35 37  0  0  1  0  0  0  0  0999 V2000
    9.9083  -19.0282   19.8602 N   0  0  0  0  0  0  0  0  0  0  0  0
   10.7358  -17.8327   19.6656 C   0  0  1  0  0  0  0  0  0  0  0  0
   10.3055  -17.2343   18.3590 C   0  0  0  0  0  0  0  0  0  0  0  0
   11.4008  -17.1760   17.3354 C   0  0  0  0  0  0  0  0  0  0  0  0
   11.7799  -18.5989   17.0412 C   0  0  0  0  0  0  0  0  0  0  0  0
   12.8610  -19.0086   17.5041 O   0  0  0  0  0  0  0  0  0  0  0  0
   10.4799  -16.8574   20.7513 C   0  0  0  0  0  0  0  0  0  0  0  0
   11.1077  -15.8031   20.8287 O   0  0  0  0  0  0  0  0  0  0  0  0
   10.9905  -19.4531   16.2912 O   0  0  0  0  0  0  0  0  0  0  0  0
    9.4945  -17.1156   21.7408 N   0  0  0  0  0  0  0  0  0  0  0  0
    9.1872  -16.1793   22.8296 C   0  0  1  0  0  0  0  0  0  0  0  0
    7.8431  -16.5888   23.3623 C   0  0  0  0  0  0  0  0  0  0  0  0
    7.3486  -15.8024   24.4843 C   0  0  0  0  0  0  0  0  0  0  0  0
    6.7512  -16.2669   25.6338 C   0  0  0  0  0  0  0  0  0  0  0  0
    6.4497  -15.1793   26.4030 N   0  0  0  0  0  0  0  0  0  0  0  0
    6.8410  -14.0623   25.7674 C   0  0  0  0  0  0  0  0  0  0  0  0
    6.7431  -12.7461   26.1549 C   0  0  0  0  0  0  0  0  0  0  0  0
    7.2193  -11.7349   25.3301 C   0  0  0  0  0  0  0  0  0  0  0  0
    7.7830  -12.0802   24.1327 C   0  0  0  0  0  0  0  0  0  0  0  0
    7.8758  -13.4041   23.7548 C   0  0  0  0  0  0  0  0  0  0  0  0
    7.4025  -14.4284   24.5721 C   0  0  0  0  0  0  0  0  0  0  0  0
   10.2720  -16.2684   23.8329 C   0  0  0  0  0  0  0  0  0  0  0  0
   11.2962  -15.5624   23.6926 O   0  0  0  0  0  0  0  0  0  0  0  0
   10.1996  -17.1286   24.9577 N   0  0  0  0  0  0  0  0  0  0  0  0
   11.2983  -17.3144   25.9014 C   0  0  1  0  0  0  0  0  0  0  0  0
   11.7810  -15.9781   26.3864 C   0  0  0  0  0  0  0  0  0  0  0  0
   10.8022  -15.3408   27.2695 C   0  0  0  0  0  0  0  0  0  0  0  0
   10.2745  -14.1033   26.9108 C   0  0  0  0  0  0  0  0  0  0  0  0
    9.3544  -13.4490   27.6801 C   0  0  0  0  0  0  0  0  0  0  0  0
    8.9395  -14.0450   28.8534 C   0  0  0  0  0  0  0  0  0  0  0  0
    9.4328  -15.2686   29.2501 C   0  0  0  0  0  0  0  0  0  0  0  0
   10.3586  -15.8981   28.4492 C   0  0  0  0  0  0  0  0  0  0  0  0
   10.8772  -18.2395   26.9521 C   0  0  0  0  0  0  0  0  0  0  0  0
   11.7176  -18.7656   27.9232 O   0  0  0  0  0  0  0  0  0  0  0  0
    9.6665  -18.6035   27.0030 O   0  0  0  0  0  0  0  0  0  0  0  0
  2  1  1  1
  3  4  1  0
  3  2  1  0
  4  5  1  0
  5  6  2  0
  5  9  1  0
  7  8  2  0
  7  2  1  0
 10  7  1  0
 11 10  1  0
 11 12  1  1
 12 13  1  0
 13 14  2  0
 13 21  1  0
 14 15  1  0
 15 16  1  0
 16 17  2  0
 18 17  1  0
 19 18  2  0
 20 21  2  0
 20 19  1  0
 21 16  1  0
 22 11  1  0
 23 22  2  0
 24 22  1  0
 25 33  1  0
 25 24  1  0
 25 26  1  1
 26 27  1  0
 27 28  2  0
 28 29  1  0
 30 29  2  0
 31 30  1  0
 32 27  1  0
 32 31  2  0
 33 34  1  0
 35 33  2  0
M  END
$$$$
