EWF.pdb
     RDKit          3D

 35 37  0  0  1  0  0  0  0  0999 V2000
    9.0737  -17.4381   18.0546 N   0  0  0  0  0  0  0  0  0  0  0  0
    9.9763  -17.8977   19.1158 C   0  0  1  0  0  0  0  0  0  0  0  0
   11.3678  -17.7461   18.5761 C   0  0  0  0  0  0  0  0  0  0  0  0
   11.9376  -19.0171   18.0189 C   0  0  0  0  0  0  0  0  0  0  0  0
   13.4180  -18.9590   18.2637 C   0  0  0  0  0  0  0  0  0  0  0  0
   13.9615  -19.9831   18.7185 O   0  0  0  0  0  0  0  0  0  0  0  0
    9.8268  -17.0397   20.3145 C   0  0  0  0  0  0  0  0  0  0  0  0
   10.3406  -15.9243   20.3742 O   0  0  0  0  0  0  0  0  0  0  0  0
   14.1840  -17.8350   18.0089 O   0  0  0  0  0  0  0  0  0  0  0  0
    9.0799  -17.4857   21.4370 N   0  0  0  0  0  0  0  0  0  0  0  0
    8.8562  -16.6598   22.6305 C   0  0  1  0  0  0  0  0  0  0  0  0
    7.5034  -17.0484   23.1568 C   0  0  0  0  0  0  0  0  0  0  0  0
    7.0014  -16.2336   24.2549 C   0  0  0  0  0  0  0  0  0  0  0  0
    6.2366  -16.6459   25.3222 C   0  0  0  0  0  0  0  0  0  0  0  0
    5.9990  -15.5486   26.0998 N   0  0  0  0  0  0  0  0  0  0  0  0
    6.5910  -14.4758   25.5487 C   0  0  0  0  0  0  0  0  0  0  0  0
    6.6218  -13.1685   25.9752 C   0  0  0  0  0  0  0  0  0  0  0  0
    7.3033  -12.2068   25.2402 C   0  0  0  0  0  0  0  0  0  0  0  0
    7.9371  -12.5915   24.0908 C   0  0  0  0  0  0  0  0  0  0  0  0
    7.8993  -13.9061   23.6730 C   0  0  0  0  0  0  0  0  0  0  0  0
    7.2198  -14.8809   24.4004 C   0  0  0  0  0  0  0  0  0  0  0  0
    9.9580  -16.9210   23.5839 C   0  0  0  0  0  0  0  0  0  0  0  0
   10.3752  -18.0919   23.7327 O   0  0  0  0  0  0  0  0  0  0  0  0
   10.5671  -15.8907   24.3441 N   0  0  0  0  0  0  0  0  0  0  0  0
   11.6542  -16.1236   25.2907 C   0  0  1  0  0  0  0  0  0  0  0  0
   12.0039  -14.8399   25.9863 C   0  0  0  0  0  0  0  0  0  0  0  0
   11.1529  -14.6130   27.1561 C   0  0  0  0  0  0  0  0  0  0  0  0
   10.3341  -13.4874   27.1870 C   0  0  0  0  0  0  0  0  0  0  0  0
    9.5097  -13.2104   28.2408 C   0  0  0  0  0  0  0  0  0  0  0  0
    9.4957  -14.0846   29.3083 C   0  0  0  0  0  0  0  0  0  0  0  0
   10.2878  -15.2116   29.3233 C   0  0  0  0  0  0  0  0  0  0  0  0
   11.1056  -15.4579   28.2438 C   0  0  0  0  0  0  0  0  0  0  0  0
   11.2912  -17.2289   26.1760 C   0  0  0  0  0  0  0  0  0  0  0  0
   10.0005  -17.7076   26.3516 O   0  0  0  0  0  0  0  0  0  0  0  0
   12.1981  -17.8079   26.8416 O   0  0  0  0  0  0  0  0  0  0  0  0
  2  1  1  6
  3  4  1  0
  3  2  1  0
  4  5  1  0
  5  6  2  0
  5  9  1  0
  7  8  2  0
  7  2  1  0
 10  7  1  0
 11 10  1  0
 11 12  1  1
 12 13  1  0
 13 14  2  0
 13 21  1  0
 14 15  1  0
 15 16  1  0
 16 17  2  0
 18 17  1  0
 19 18  2  0
 20 21  2  0
 20 19  1  0
 21 16  1  0
 22 11  1  0
 23 22  2  0
 24 22  1  0
 25 33  1  0
 25 24  1  0
 25 26  1  1
 26 27  1  0
 27 28  2  0
 28 29  1  0
 30 29  2  0
 31 30  1  0
 32 27  1  0
 32 31  2  0
 33 34  1  0
 35 33  2  0
M  END
$$$$
