EWF.pdb
     RDKit          3D

 35 37  0  0  1  0  0  0  0  0999 V2000
   10.0401  -16.6832   18.0237 N   0  0  0  0  0  0  0  0  0  0  0  0
   10.4924  -17.4887   19.1632 C   0  0  1  0  0  0  0  0  0  0  0  0
   11.9600  -17.7201   18.9556 C   0  0  0  0  0  0  0  0  0  0  0  0
   12.2903  -19.1111   18.5011 C   0  0  0  0  0  0  0  0  0  0  0  0
   13.7055  -19.0669   18.0009 C   0  0  0  0  0  0  0  0  0  0  0  0
   14.5941  -19.4876   18.7654 O   0  0  0  0  0  0  0  0  0  0  0  0
   10.2953  -16.7369   20.4247 C   0  0  0  0  0  0  0  0  0  0  0  0
   11.0354  -15.8072   20.7406 O   0  0  0  0  0  0  0  0  0  0  0  0
   14.0517  -18.5866   16.7501 O   0  0  0  0  0  0  0  0  0  0  0  0
    9.2378  -17.0722   21.3111 N   0  0  0  0  0  0  0  0  0  0  0  0
    8.9853  -16.3527   22.5663 C   0  0  1  0  0  0  0  0  0  0  0  0
    7.5109  -16.4787   22.8276 C   0  0  0  0  0  0  0  0  0  0  0  0
    7.0195  -15.7640   23.9980 C   0  0  0  0  0  0  0  0  0  0  0  0
    6.4117  -16.2981   25.1113 C   0  0  0  0  0  0  0  0  0  0  0  0
    6.1183  -15.2615   25.9507 N   0  0  0  0  0  0  0  0  0  0  0  0
    6.5247  -14.1086   25.3932 C   0  0  0  0  0  0  0  0  0  0  0  0
    6.4391  -12.8205   25.8680 C   0  0  0  0  0  0  0  0  0  0  0  0
    6.9300  -11.7614   25.1150 C   0  0  0  0  0  0  0  0  0  0  0  0
    7.4957  -12.0316   23.8994 C   0  0  0  0  0  0  0  0  0  0  0  0
    7.5761  -13.3281   23.4337 C   0  0  0  0  0  0  0  0  0  0  0  0
    7.0879  -14.3997   24.1783 C   0  0  0  0  0  0  0  0  0  0  0  0
    9.8261  -16.9605   23.6222 C   0  0  0  0  0  0  0  0  0  0  0  0
   10.0203  -18.1972   23.6151 O   0  0  0  0  0  0  0  0  0  0  0  0
   10.4268  -16.1934   24.6523 N   0  0  0  0  0  0  0  0  0  0  0  0
   11.3588  -16.7479   25.6301 C   0  0  1  0  0  0  0  0  0  0  0  0
   11.9699  -15.6370   26.4341 C   0  0  0  0  0  0  0  0  0  0  0  0
   11.0315  -15.1141   27.4291 C   0  0  0  0  0  0  0  0  0  0  0  0
   10.9154  -15.7642   28.6547 C   0  0  0  0  0  0  0  0  0  0  0  0
   10.0657  -15.3339   29.6342 C   0  0  0  0  0  0  0  0  0  0  0  0
    9.2990  -14.2131   29.3897 C   0  0  0  0  0  0  0  0  0  0  0  0
    9.3792  -13.5360   28.1925 C   0  0  0  0  0  0  0  0  0  0  0  0
   10.2466  -13.9991   27.2293 C   0  0  0  0  0  0  0  0  0  0  0  0
   10.6768  -17.7768   26.4134 C   0  0  0  0  0  0  0  0  0  0  0  0
   11.3161  -18.7037   27.2247 O   0  0  0  0  0  0  0  0  0  0  0  0
    9.4146  -17.8505   26.3665 O   0  0  0  0  0  0  0  0  0  0  0  0
  2  1  1  6
  3  4  1  0
  3  2  1  0
  4  5  1  0
  5  6  2  0
  5  9  1  0
  7  8  2  0
  7  2  1  0
 10  7  1  0
 11 10  1  0
 11 12  1  1
 12 13  1  0
 13 14  2  0
 13 21  1  0
 14 15  1  0
 15 16  1  0
 16 17  2  0
 18 17  1  0
 19 18  2  0
 20 21  2  0
 20 19  1  0
 21 16  1  0
 22 11  1  0
 23 22  2  0
 24 22  1  0
 25 33  1  0
 25 24  1  0
 25 26  1  1
 26 27  1  0
 27 28  2  0
 28 29  1  0
 30 29  2  0
 31 30  1  0
 32 27  1  0
 32 31  2  0
 33 34  1  0
 35 33  2  0
M  END
$$$$
