EWF.pdb
     RDKit          3D

 35 37  0  0  1  0  0  0  0  0999 V2000
    8.4954  -21.1206   22.3579 N   0  0  0  0  0  0  0  0  0  0  0  0
    9.6235  -20.7169   21.5114 C   0  0  1  0  0  0  0  0  0  0  0  0
    9.3407  -21.2701   20.1459 C   0  0  0  0  0  0  0  0  0  0  0  0
    8.3713  -22.4151   20.1506 C   0  0  0  0  0  0  0  0  0  0  0  0
    7.7056  -22.4103   18.8046 C   0  0  0  0  0  0  0  0  0  0  0  0
    6.8295  -23.2711   18.5985 O   0  0  0  0  0  0  0  0  0  0  0  0
    9.6917  -19.2391   21.4295 C   0  0  0  0  0  0  0  0  0  0  0  0
   10.5134  -18.6729   20.7112 O   0  0  0  0  0  0  0  0  0  0  0  0
    8.0223  -21.5055   17.8066 O   0  0  0  0  0  0  0  0  0  0  0  0
    8.8027  -18.4291   22.1847 N   0  0  0  0  0  0  0  0  0  0  0  0
    8.9248  -16.9680   22.2688 C   0  0  1  0  0  0  0  0  0  0  0  0
    7.5379  -16.4236   22.0732 C   0  0  0  0  0  0  0  0  0  0  0  0
    7.4652  -15.0933   21.4841 C   0  0  0  0  0  0  0  0  0  0  0  0
    7.5501  -14.7620   20.1510 C   0  0  0  0  0  0  0  0  0  0  0  0
    7.4328  -13.4042   20.0616 N   0  0  0  0  0  0  0  0  0  0  0  0
    7.2784  -12.8887   21.2926 C   0  0  0  0  0  0  0  0  0  0  0  0
    7.1238  -11.5805   21.6885 C   0  0  0  0  0  0  0  0  0  0  0  0
    6.9787  -11.2674   23.0340 C   0  0  0  0  0  0  0  0  0  0  0  0
    6.9937  -12.2861   23.9467 C   0  0  0  0  0  0  0  0  0  0  0  0
    7.1493  -13.5947   23.5375 C   0  0  0  0  0  0  0  0  0  0  0  0
    7.2958  -13.9230   22.1914 C   0  0  0  0  0  0  0  0  0  0  0  0
    9.5114  -16.6303   23.5852 C   0  0  0  0  0  0  0  0  0  0  0  0
    8.7713  -16.5903   24.5941 O   0  0  0  0  0  0  0  0  0  0  0  0
   10.8904  -16.3468   23.7538 N   0  0  0  0  0  0  0  0  0  0  0  0
   11.4734  -15.9069   25.0183 C   0  0  1  0  0  0  0  0  0  0  0  0
   10.6402  -16.4085   26.1620 C   0  0  0  0  0  0  0  0  0  0  0  0
   10.0134  -15.3064   26.8946 C   0  0  0  0  0  0  0  0  0  0  0  0
   10.3307  -15.1219   28.2375 C   0  0  0  0  0  0  0  0  0  0  0  0
    9.7907  -14.1143   28.9857 C   0  0  0  0  0  0  0  0  0  0  0  0
    8.8994  -13.2536   28.3785 C   0  0  0  0  0  0  0  0  0  0  0  0
    8.5547  -13.3958   27.0523 C   0  0  0  0  0  0  0  0  0  0  0  0
    9.1191  -14.4228   26.3302 C   0  0  0  0  0  0  0  0  0  0  0  0
   12.8814  -16.2982   25.0594 C   0  0  0  0  0  0  0  0  0  0  0  0
   13.8778  -15.5910   25.7174 O   0  0  0  0  0  0  0  0  0  0  0  0
   13.2453  -17.3518   24.4607 O   0  0  0  0  0  0  0  0  0  0  0  0
  2  1  1  1
  3  4  1  0
  3  2  1  0
  4  5  1  0
  5  6  2  0
  5  9  1  0
  7  8  2  0
  7  2  1  0
 10  7  1  0
 11 10  1  0
 11 12  1  1
 12 13  1  0
 13 14  2  0
 13 21  1  0
 14 15  1  0
 15 16  1  0
 16 17  2  0
 18 17  1  0
 19 18  2  0
 20 21  2  0
 20 19  1  0
 21 16  1  0
 22 11  1  0
 23 22  2  0
 24 22  1  0
 25 33  1  0
 25 24  1  0
 25 26  1  1
 26 27  1  0
 27 28  2  0
 28 29  1  0
 30 29  2  0
 31 30  1  0
 32 27  1  0
 32 31  2  0
 33 34  1  0
 35 33  2  0
M  END
$$$$
