IVR.pdb
     RDKit          3D

 27 26  0  0  1  0  0  0  0  0999 V2000
    7.3729  -12.8812   18.4350 C   0  0  0  0  0  0  0  0  0  0  0  0
    7.0731  -13.9362   19.4570 C   0  0  0  0  0  0  0  0  0  0  0  0
    7.9648  -13.8508   20.6812 C   0  0  2  0  0  0  0  0  0  0  0  0
    9.4311  -13.9514   20.3000 C   0  0  0  0  0  0  0  0  0  0  0  0
    7.6847  -14.9157   21.6806 C   0  0  2  0  0  0  0  0  0  0  0  0
    6.2969  -15.2483   21.6980 N   0  0  0  0  0  0  0  0  0  0  0  0
    8.2457  -14.6638   23.0231 C   0  0  0  0  0  0  0  0  0  0  0  0
    9.4985  -14.6215   23.1310 O   0  0  0  0  0  0  0  0  0  0  0  0
    7.7299  -12.9211   27.6100 C   0  0  0  0  0  0  0  0  0  0  0  0
    7.0698  -13.3749   26.3225 C   0  0  1  0  0  0  0  0  0  0  0  0
    6.5739  -12.1841   25.5660 C   0  0  0  0  0  0  0  0  0  0  0  0
    8.0279  -14.2099   25.4907 C   0  0  2  0  0  0  0  0  0  0  0  0
    7.4711  -14.4695   24.1831 N   0  0  0  0  0  0  0  0  0  0  0  0
    8.2579  -15.4767   26.2488 C   0  0  0  0  0  0  0  0  0  0  0  0
    7.2556  -16.1635   26.5783 O   0  0  0  0  0  0  0  0  0  0  0  0
   12.9707  -17.1681   22.4787 N   0  0  0  0  0  0  0  0  0  0  0  0
   11.8086  -17.7865   21.9483 C   0  0  0  0  0  0  0  0  0  0  0  0
   11.4896  -17.5650   20.7236 N   0  0  0  0  0  0  0  0  0  0  0  0
   10.9972  -18.6360   22.7373 N   0  0  0  0  0  0  0  0  0  0  0  0
   11.2801  -18.8615   24.1366 C   0  0  0  0  0  0  0  0  0  0  0  0
   10.2681  -18.1969   25.0277 C   0  0  0  0  0  0  0  0  0  0  0  0
   10.7532  -17.9407   26.4099 C   0  0  0  0  0  0  0  0  0  0  0  0
    9.7883  -17.1999   27.3022 C   0  0  2  0  0  0  0  0  0  0  0  0
    9.5225  -15.9477   26.6149 N   0  0  0  0  0  0  0  0  0  0  0  0
   10.3481  -16.9490   28.6677 C   0  0  0  0  0  0  0  0  0  0  0  0
   10.7418  -15.7744   28.9278 O   0  0  0  0  0  0  0  0  0  0  0  0
   10.4318  -17.9629   29.6104 O   0  0  0  0  0  0  0  0  0  0  0  0
  2  1  1  0
  2  3  1  0
  3  4  1  6
  3  5  1  0
  5  7  1  0
  5  6  1  1
  7  8  2  0
  7 13  1  0
 10  9  1  1
 10 12  1  0
 10 11  1  0
 12 14  1  0
 12 13  1  6
 14 24  1  0
 15 14  2  0
 17 19  1  0
 17 16  1  0
 18 17  2  0
 20 19  1  0
 21 20  1  0
 22 21  1  0
 23 25  1  0
 23 22  1  6
 24 23  1  0
 25 27  1  0
 26 25  2  0
M  END
$$$$
