IVR.pdb
     RDKit          3D

 27 26  0  0  1  0  0  0  0  0999 V2000
    7.7323  -11.4792   19.2001 C   0  0  0  0  0  0  0  0  0  0  0  0
    7.6563  -12.8941   18.7107 C   0  0  0  0  0  0  0  0  0  0  0  0
    8.0264  -13.9127   19.7722 C   0  0  2  0  0  0  0  0  0  0  0  0
    9.4359  -13.6810   20.2871 C   0  0  0  0  0  0  0  0  0  0  0  0
    7.9495  -15.3155   19.2847 C   0  0  2  0  0  0  0  0  0  0  0  0
    6.6631  -15.5954   18.7336 N   0  0  0  0  0  0  0  0  0  0  0  0
    8.4071  -16.3308   20.2543 C   0  0  0  0  0  0  0  0  0  0  0  0
    7.6769  -16.5494   21.2552 O   0  0  0  0  0  0  0  0  0  0  0  0
   11.5195  -18.8590   19.2718 C   0  0  0  0  0  0  0  0  0  0  0  0
   10.6619  -19.2331   20.4651 C   0  0  1  0  0  0  0  0  0  0  0  0
   11.4669  -20.0490   21.4256 C   0  0  0  0  0  0  0  0  0  0  0  0
   10.0870  -17.9923   21.1261 C   0  0  2  0  0  0  0  0  0  0  0  0
    9.6026  -17.0648   20.1299 N   0  0  0  0  0  0  0  0  0  0  0  0
   11.1876  -17.3945   21.9408 C   0  0  0  0  0  0  0  0  0  0  0  0
   12.0955  -16.7611   21.3412 O   0  0  0  0  0  0  0  0  0  0  0  0
    9.5251  -15.5500   29.4871 N   0  0  0  0  0  0  0  0  0  0  0  0
   10.8409  -15.9674   29.1574 C   0  0  0  0  0  0  0  0  0  0  0  0
   11.1633  -17.1997   29.3250 N   0  0  0  0  0  0  0  0  0  0  0  0
   11.8005  -15.0581   28.6522 N   0  0  0  0  0  0  0  0  0  0  0  0
   11.8755  -14.7479   27.2426 C   0  0  0  0  0  0  0  0  0  0  0  0
   12.4962  -15.8672   26.4541 C   0  0  0  0  0  0  0  0  0  0  0  0
   11.6096  -16.4318   25.4022 C   0  0  0  0  0  0  0  0  0  0  0  0
   12.3148  -16.9140   24.1588 C   0  0  2  0  0  0  0  0  0  0  0  0
   11.2704  -17.4955   23.3329 N   0  0  0  0  0  0  0  0  0  0  0  0
   13.3794  -17.9228   24.4588 C   0  0  0  0  0  0  0  0  0  0  0  0
   13.0257  -19.1357   24.5364 O   0  0  0  0  0  0  0  0  0  0  0  0
   14.7007  -17.5437   24.6441 O   0  0  0  0  0  0  0  0  0  0  0  0
  2  1  1  0
  2  3  1  0
  3  4  1  6
  3  5  1  0
  5  7  1  0
  5  6  1  1
  7  8  2  0
  7 13  1  0
 10  9  1  6
 10 12  1  0
 10 11  1  0
 12 14  1  0
 12 13  1  6
 14 24  1  0
 15 14  2  0
 17 19  1  0
 17 16  1  0
 18 17  2  0
 20 19  1  0
 21 20  1  0
 22 21  1  0
 23 25  1  0
 23 22  1  1
 24 23  1  0
 25 27  1  0
 26 25  2  0
M  END
$$$$
