IVR.pdb
     RDKit          3D

 27 26  0  0  1  0  0  0  0  0999 V2000
    6.6214  -10.7011   27.4847 C   0  0  0  0  0  0  0  0  0  0  0  0
    5.9066  -11.8407   26.8230 C   0  0  0  0  0  0  0  0  0  0  0  0
    6.8467  -12.8299   26.1605 C   0  0  2  0  0  0  0  0  0  0  0  0
    7.7860  -12.1310   25.1937 C   0  0  0  0  0  0  0  0  0  0  0  0
    6.1336  -13.8947   25.4061 C   0  0  2  0  0  0  0  0  0  0  0  0
    5.2813  -14.6484   26.2677 N   0  0  0  0  0  0  0  0  0  0  0  0
    7.0016  -14.7344   24.5564 C   0  0  0  0  0  0  0  0  0  0  0  0
    7.5439  -15.7363   25.0903 O   0  0  0  0  0  0  0  0  0  0  0  0
    9.0781  -15.6222   20.0884 C   0  0  0  0  0  0  0  0  0  0  0  0
    8.2629  -14.7115   20.9859 C   0  0  1  0  0  0  0  0  0  0  0  0
    6.9470  -14.4168   20.3394 C   0  0  0  0  0  0  0  0  0  0  0  0
    8.0869  -15.3283   22.3627 C   0  0  2  0  0  0  0  0  0  0  0  0
    7.2592  -14.4854   23.1944 N   0  0  0  0  0  0  0  0  0  0  0  0
    9.4570  -15.4872   22.9370 C   0  0  0  0  0  0  0  0  0  0  0  0
   10.1117  -14.4475   23.2112 O   0  0  0  0  0  0  0  0  0  0  0  0
    7.2800  -19.1959   26.9790 N   0  0  0  0  0  0  0  0  0  0  0  0
    7.9306  -20.4090   26.6337 C   0  0  0  0  0  0  0  0  0  0  0  0
    7.2184  -21.4521   26.3986 N   0  0  0  0  0  0  0  0  0  0  0  0
    9.3406  -20.4930   26.5454 N   0  0  0  0  0  0  0  0  0  0  0  0
   10.1678  -19.3078   26.5537 C   0  0  0  0  0  0  0  0  0  0  0  0
   10.3052  -18.7101   25.1812 C   0  0  0  0  0  0  0  0  0  0  0  0
   11.1386  -17.4793   25.1368 C   0  0  0  0  0  0  0  0  0  0  0  0
   11.3811  -16.9173   23.7580 C   0  0  2  0  0  0  0  0  0  0  0  0
   10.0577  -16.7242   23.1899 N   0  0  0  0  0  0  0  0  0  0  0  0
   12.1991  -17.8332   22.9018 C   0  0  0  0  0  0  0  0  0  0  0  0
   11.5897  -18.4961   22.0122 O   0  0  0  0  0  0  0  0  0  0  0  0
   13.5701  -17.9506   23.0761 O   0  0  0  0  0  0  0  0  0  0  0  0
  2  1  1  0
  2  3  1  0
  3  4  1  6
  3  5  1  0
  5  7  1  0
  5  6  1  1
  7  8  2  0
  7 13  1  0
 10  9  1  6
 10 12  1  0
 10 11  1  0
 12 14  1  0
 12 13  1  1
 14 24  1  0
 15 14  2  0
 17 19  1  0
 17 16  1  0
 18 17  2  0
 20 19  1  0
 21 20  1  0
 22 21  1  0
 23 25  1  0
 23 22  1  1
 24 23  1  0
 25 27  1  0
 26 25  2  0
M  END
$$$$
