IVR.pdb
     RDKit          3D

 27 26  0  0  1  0  0  0  0  0999 V2000
    7.9852  -11.6885   28.0066 C   0  0  0  0  0  0  0  0  0  0  0  0
    6.9214  -12.4123   27.2374 C   0  0  0  0  0  0  0  0  0  0  0  0
    7.4803  -13.4200   26.2509 C   0  0  2  0  0  0  0  0  0  0  0  0
    8.4590  -12.7648   25.2927 C   0  0  0  0  0  0  0  0  0  0  0  0
    6.4273  -14.0829   25.4365 C   0  0  2  0  0  0  0  0  0  0  0  0
    5.5817  -14.8911   26.2542 N   0  0  0  0  0  0  0  0  0  0  0  0
    6.9262  -14.7820   24.2354 C   0  0  0  0  0  0  0  0  0  0  0  0
    7.2111  -16.0022   24.3494 O   0  0  0  0  0  0  0  0  0  0  0  0
    8.7107  -12.9094   20.9100 C   0  0  0  0  0  0  0  0  0  0  0  0
    7.6299  -13.9302   20.6119 C   0  0  1  0  0  0  0  0  0  0  0  0
    7.9570  -14.6516   19.3435 C   0  0  0  0  0  0  0  0  0  0  0  0
    7.4593  -14.8904   21.7764 C   0  0  2  0  0  0  0  0  0  0  0  0
    7.1024  -14.1724   22.9782 N   0  0  0  0  0  0  0  0  0  0  0  0
    8.7613  -15.6062   21.9330 C   0  0  0  0  0  0  0  0  0  0  0  0
    9.6752  -15.0424   22.5901 O   0  0  0  0  0  0  0  0  0  0  0  0
   13.8807  -18.4081   18.6034 N   0  0  0  0  0  0  0  0  0  0  0  0
   14.0522  -19.8161   18.5565 C   0  0  0  0  0  0  0  0  0  0  0  0
   15.2137  -20.2928   18.2836 N   0  0  0  0  0  0  0  0  0  0  0  0
   12.9753  -20.7010   18.8012 N   0  0  0  0  0  0  0  0  0  0  0  0
   11.6350  -20.2112   19.0309 C   0  0  0  0  0  0  0  0  0  0  0  0
   11.5481  -19.3803   20.2808 C   0  0  0  0  0  0  0  0  0  0  0  0
   10.3306  -18.5302   20.3598 C   0  0  0  0  0  0  0  0  0  0  0  0
   10.2675  -17.6081   21.5522 C   0  0  2  0  0  0  0  0  0  0  0  0
    9.0271  -16.8684   21.3933 N   0  0  0  0  0  0  0  0  0  0  0  0
   11.4377  -16.6768   21.6185 C   0  0  0  0  0  0  0  0  0  0  0  0
   12.2860  -16.8736   22.5372 O   0  0  0  0  0  0  0  0  0  0  0  0
   11.5866  -15.6398   20.7095 O   0  0  0  0  0  0  0  0  0  0  0  0
  2  1  1  0
  2  3  1  0
  3  4  1  6
  3  5  1  0
  5  7  1  0
  5  6  1  1
  7  8  2  0
  7 13  1  0
 10  9  1  1
 10 12  1  0
 10 11  1  0
 12 14  1  0
 12 13  1  1
 14 24  1  0
 15 14  2  0
 17 19  1  0
 17 16  1  0
 18 17  2  0
 20 19  1  0
 21 20  1  0
 22 21  1  0
 23 25  1  0
 23 22  1  6
 24 23  1  0
 25 27  1  0
 26 25  2  0
M  END
$$$$
