IVR.pdb
     RDKit          3D

 27 26  0  0  1  0  0  0  0  0999 V2000
    6.3883  -11.0266   27.1759 C   0  0  0  0  0  0  0  0  0  0  0  0
    5.9324  -12.3703   26.6925 C   0  0  0  0  0  0  0  0  0  0  0  0
    6.9576  -13.0691   25.8195 C   0  0  2  0  0  0  0  0  0  0  0  0
    7.3687  -12.1942   24.6487 C   0  0  0  0  0  0  0  0  0  0  0  0
    6.4685  -14.3604   25.2675 C   0  0  2  0  0  0  0  0  0  0  0  0
    6.0584  -15.2409   26.3132 N   0  0  0  0  0  0  0  0  0  0  0  0
    7.3731  -14.9934   24.2870 C   0  0  0  0  0  0  0  0  0  0  0  0
    8.2820  -15.7406   24.7325 O   0  0  0  0  0  0  0  0  0  0  0  0
    6.4328  -15.1506   20.0953 C   0  0  0  0  0  0  0  0  0  0  0  0
    7.8742  -14.9836   20.5355 C   0  0  1  0  0  0  0  0  0  0  0  0
    8.2596  -13.5410   20.4550 C   0  0  0  0  0  0  0  0  0  0  0  0
    8.0793  -15.5428   21.9328 C   0  0  2  0  0  0  0  0  0  0  0  0
    7.2831  -14.8139   22.8931 N   0  0  0  0  0  0  0  0  0  0  0  0
    9.5388  -15.4239   22.2296 C   0  0  0  0  0  0  0  0  0  0  0  0
   10.0762  -14.2899   22.1290 O   0  0  0  0  0  0  0  0  0  0  0  0
   11.8848  -15.2548   27.7920 N   0  0  0  0  0  0  0  0  0  0  0  0
   10.8599  -16.1127   28.2691 C   0  0  0  0  0  0  0  0  0  0  0  0
   10.1387  -15.7291   29.2608 N   0  0  0  0  0  0  0  0  0  0  0  0
   10.6187  -17.3763   27.6792 N   0  0  0  0  0  0  0  0  0  0  0  0
   11.3643  -17.8233   26.5245 C   0  0  0  0  0  0  0  0  0  0  0  0
   11.2212  -16.8782   25.3642 C   0  0  0  0  0  0  0  0  0  0  0  0
   11.9426  -17.3106   24.1378 C   0  0  0  0  0  0  0  0  0  0  0  0
   11.7606  -16.4162   22.9367 C   0  0  2  0  0  0  0  0  0  0  0  0
   10.3462  -16.4986   22.6143 N   0  0  0  0  0  0  0  0  0  0  0  0
   12.5977  -16.8443   21.7718 C   0  0  0  0  0  0  0  0  0  0  0  0
   12.0675  -17.6293   20.9322 O   0  0  0  0  0  0  0  0  0  0  0  0
   13.9021  -16.3984   21.6182 O   0  0  0  0  0  0  0  0  0  0  0  0
  2  1  1  0
  2  3  1  0
  3  4  1  6
  3  5  1  0
  5  7  1  0
  5  6  1  1
  7  8  2  0
  7 13  1  0
 10  9  1  1
 10 12  1  0
 10 11  1  0
 12 14  1  0
 12 13  1  1
 14 24  1  0
 15 14  2  0
 17 19  1  0
 17 16  1  0
 18 17  2  0
 20 19  1  0
 21 20  1  0
 22 21  1  0
 23 25  1  0
 23 22  1  1
 24 23  1  0
 25 27  1  0
 26 25  2  0
M  END
$$$$
