IVR.pdb
     RDKit          3D

 27 26  0  0  1  0  0  0  0  0999 V2000
    7.5906  -11.4531   28.2885 C   0  0  0  0  0  0  0  0  0  0  0  0
    6.6474  -11.7456   27.1606 C   0  0  0  0  0  0  0  0  0  0  0  0
    7.1382  -12.8505   26.2443 C   0  0  2  0  0  0  0  0  0  0  0  0
    8.5309  -12.5498   25.7196 C   0  0  0  0  0  0  0  0  0  0  0  0
    6.2518  -13.0699   25.0706 C   0  0  2  0  0  0  0  0  0  0  0  0
    4.8954  -13.2425   25.4795 N   0  0  0  0  0  0  0  0  0  0  0  0
    6.7193  -14.1088   24.1312 C   0  0  0  0  0  0  0  0  0  0  0  0
    6.5790  -15.3105   24.4766 O   0  0  0  0  0  0  0  0  0  0  0  0
    6.7161  -13.7423   19.9794 C   0  0  0  0  0  0  0  0  0  0  0  0
    8.0023  -14.2699   20.5848 C   0  0  1  0  0  0  0  0  0  0  0  0
    9.0194  -13.1748   20.6353 C   0  0  0  0  0  0  0  0  0  0  0  0
    7.7473  -14.8636   21.9595 C   0  0  2  0  0  0  0  0  0  0  0  0
    7.3092  -13.8406   22.8808 N   0  0  0  0  0  0  0  0  0  0  0  0
    9.0328  -15.4836   22.4013 C   0  0  0  0  0  0  0  0  0  0  0  0
    9.8456  -14.7721   23.0477 O   0  0  0  0  0  0  0  0  0  0  0  0
   13.4271  -22.1287   20.7672 N   0  0  0  0  0  0  0  0  0  0  0  0
   12.1176  -21.9980   20.2359 C   0  0  0  0  0  0  0  0  0  0  0  0
   11.9165  -22.2825   18.9992 N   0  0  0  0  0  0  0  0  0  0  0  0
   11.0349  -21.5612   21.0357 N   0  0  0  0  0  0  0  0  0  0  0  0
   11.1975  -21.3053   22.4489 C   0  0  0  0  0  0  0  0  0  0  0  0
   11.4608  -19.8519   22.7290 C   0  0  0  0  0  0  0  0  0  0  0  0
   10.3341  -18.9513   22.3678 C   0  0  0  0  0  0  0  0  0  0  0  0
   10.5530  -17.4917   22.6803 C   0  0  2  0  0  0  0  0  0  0  0  0
    9.3887  -16.8104   22.1405 N   0  0  0  0  0  0  0  0  0  0  0  0
   11.8119  -16.9580   22.0708 C   0  0  0  0  0  0  0  0  0  0  0  0
   11.7253  -16.4367   20.9206 O   0  0  0  0  0  0  0  0  0  0  0  0
   13.0246  -17.0315   22.7398 O   0  0  0  0  0  0  0  0  0  0  0  0
  2  1  1  0
  2  3  1  0
  3  4  1  6
  3  5  1  0
  5  7  1  0
  5  6  1  1
  7  8  2  0
  7 13  1  0
 10  9  1  1
 10 12  1  0
 10 11  1  0
 12 14  1  0
 12 13  1  1
 14 24  1  0
 15 14  2  0
 17 19  1  0
 17 16  1  0
 18 17  2  0
 20 19  1  0
 21 20  1  0
 22 21  1  0
 23 25  1  0
 23 22  1  6
 24 23  1  0
 25 27  1  0
 26 25  2  0
M  END
$$$$
