IVR.pdb
     RDKit          3D

 27 26  0  0  1  0  0  0  0  0999 V2000
    6.5046  -18.2316   19.9444 C   0  0  0  0  0  0  0  0  0  0  0  0
    6.0741  -16.8546   20.3516 C   0  0  0  0  0  0  0  0  0  0  0  0
    7.0054  -16.2135   21.3631 C   0  0  2  0  0  0  0  0  0  0  0  0
    7.1314  -17.0684   22.6115 C   0  0  0  0  0  0  0  0  0  0  0  0
    6.5608  -14.8593   21.7869 C   0  0  2  0  0  0  0  0  0  0  0  0
    6.3597  -14.0104   20.6574 N   0  0  0  0  0  0  0  0  0  0  0  0
    7.3854  -14.2434   22.8457 C   0  0  0  0  0  0  0  0  0  0  0  0
    8.5813  -13.9703   22.5661 O   0  0  0  0  0  0  0  0  0  0  0  0
    6.3736  -11.5184   25.8476 C   0  0  0  0  0  0  0  0  0  0  0  0
    6.9412  -12.8446   26.3148 C   0  0  1  0  0  0  0  0  0  0  0  0
    5.8284  -13.7353   26.7671 C   0  0  0  0  0  0  0  0  0  0  0  0
    7.7694  -13.4926   25.2188 C   0  0  2  0  0  0  0  0  0  0  0  0
    6.9202  -13.9448   24.1410 N   0  0  0  0  0  0  0  0  0  0  0  0
    8.5008  -14.6305   25.8533 C   0  0  0  0  0  0  0  0  0  0  0  0
    7.8689  -15.6977   26.0693 O   0  0  0  0  0  0  0  0  0  0  0  0
   16.8813  -17.3873   23.7107 N   0  0  0  0  0  0  0  0  0  0  0  0
   16.6166  -17.2044   25.0929 C   0  0  0  0  0  0  0  0  0  0  0  0
   17.5969  -16.9633   25.8877 N   0  0  0  0  0  0  0  0  0  0  0  0
   15.3021  -17.2837   25.6112 N   0  0  0  0  0  0  0  0  0  0  0  0
   14.3581  -16.2028   25.4393 C   0  0  0  0  0  0  0  0  0  0  0  0
   13.0611  -16.4725   26.1499 C   0  0  0  0  0  0  0  0  0  0  0  0
   12.0086  -15.4527   25.8981 C   0  0  0  0  0  0  0  0  0  0  0  0
   10.6750  -15.7328   26.5453 C   0  0  2  0  0  0  0  0  0  0  0  0
    9.8485  -14.5822   26.2223 N   0  0  0  0  0  0  0  0  0  0  0  0
   10.7839  -15.9104   28.0278 C   0  0  0  0  0  0  0  0  0  0  0  0
   10.4426  -14.9336   28.7569 O   0  0  0  0  0  0  0  0  0  0  0  0
   11.2401  -17.0980   28.5804 O   0  0  0  0  0  0  0  0  0  0  0  0
  2  1  1  0
  2  3  1  0
  3  4  1  1
  3  5  1  0
  5  7  1  0
  5  6  1  6
  7  8  2  0
  7 13  1  0
 10  9  1  6
 10 12  1  0
 10 11  1  0
 12 14  1  0
 12 13  1  6
 14 24  1  0
 15 14  2  0
 17 19  1  0
 17 16  1  0
 18 17  2  0
 20 19  1  0
 21 20  1  0
 22 21  1  0
 23 25  1  0
 23 22  1  1
 24 23  1  0
 25 27  1  0
 26 25  2  0
M  END
$$$$
