IVR.pdb
     RDKit          3D

 27 26  0  0  1  0  0  0  0  0999 V2000
    6.6648  -10.7296   26.7920 C   0  0  0  0  0  0  0  0  0  0  0  0
    7.2494  -12.1016   26.6393 C   0  0  0  0  0  0  0  0  0  0  0  0
    6.6728  -12.8679   25.4639 C   0  0  2  0  0  0  0  0  0  0  0  0
    5.1788  -13.0823   25.6287 C   0  0  0  0  0  0  0  0  0  0  0  0
    7.3016  -14.2021   25.2742 C   0  0  2  0  0  0  0  0  0  0  0  0
    8.6160  -14.2314   25.8296 N   0  0  0  0  0  0  0  0  0  0  0  0
    7.2346  -14.7242   23.8946 C   0  0  0  0  0  0  0  0  0  0  0  0
    6.2956  -15.5143   23.6171 O   0  0  0  0  0  0  0  0  0  0  0  0
    6.6324  -13.2357   20.5697 C   0  0  0  0  0  0  0  0  0  0  0  0
    7.9964  -13.8941   20.4972 C   0  0  1  0  0  0  0  0  0  0  0  0
    9.0631  -12.8549   20.6330 C   0  0  0  0  0  0  0  0  0  0  0  0
    8.1291  -14.9770   21.5540 C   0  0  2  0  0  0  0  0  0  0  0  0
    8.1504  -14.3957   22.8765 N   0  0  0  0  0  0  0  0  0  0  0  0
    9.3975  -15.7088   21.2576 C   0  0  0  0  0  0  0  0  0  0  0  0
   10.4571  -15.3107   21.8087 O   0  0  0  0  0  0  0  0  0  0  0  0
    6.9899  -19.6044   26.2349 N   0  0  0  0  0  0  0  0  0  0  0  0
    8.2767  -20.1472   25.9828 C   0  0  0  0  0  0  0  0  0  0  0  0
    8.8189  -20.9015   26.8704 N   0  0  0  0  0  0  0  0  0  0  0  0
    8.9720  -19.8744   24.7807 N   0  0  0  0  0  0  0  0  0  0  0  0
    8.5291  -20.4140   23.5152 C   0  0  0  0  0  0  0  0  0  0  0  0
    9.4081  -19.9720   22.3785 C   0  0  0  0  0  0  0  0  0  0  0  0
    9.1415  -18.5863   21.9096 C   0  0  0  0  0  0  0  0  0  0  0  0
   10.0038  -18.1191   20.7633 C   0  0  2  0  0  0  0  0  0  0  0  0
    9.4795  -16.8127   20.4034 N   0  0  0  0  0  0  0  0  0  0  0  0
    9.9564  -19.0522   19.5937 C   0  0  0  0  0  0  0  0  0  0  0  0
    8.9950  -18.9178   18.7813 O   0  0  0  0  0  0  0  0  0  0  0  0
   10.9275  -20.0249   19.4072 O   0  0  0  0  0  0  0  0  0  0  0  0
  2  1  1  0
  2  3  1  0
  3  4  1  1
  3  5  1  0
  5  7  1  0
  5  6  1  6
  7  8  2  0
  7 13  1  0
 10  9  1  1
 10 12  1  0
 10 11  1  0
 12 14  1  0
 12 13  1  1
 14 24  1  0
 15 14  2  0
 17 19  1  0
 17 16  1  0
 18 17  2  0
 20 19  1  0
 21 20  1  0
 22 21  1  0
 23 25  1  0
 23 22  1  1
 24 23  1  0
 25 27  1  0
 26 25  2  0
M  END
$$$$
