IDR.pdb
     RDKit          3D

 28 27  0  0  1  0  0  0  0  0999 V2000
   28.1307  -19.8821   -7.9066 C   0  0  0  0  0  0  0  0  0  0  0  0
   27.5815  -20.9953   -8.7382 C   0  0  0  0  0  0  0  0  0  0  0  0
   26.4597  -20.4920   -9.6130 C   0  0  2  0  0  0  0  0  0  0  0  0
   25.3153  -19.9011   -8.8588 C   0  0  0  0  0  0  0  0  0  0  0  0
   25.9555  -21.5814  -10.5315 C   0  0  2  0  0  0  0  0  0  0  0  0
   27.0295  -22.3640  -11.0660 N   0  0  0  0  0  0  0  0  0  0  0  0
   25.0596  -21.0174  -11.5508 C   0  0  0  0  0  0  0  0  0  0  0  0
   24.0955  -20.2856  -11.1765 O   0  0  0  0  0  0  0  0  0  0  0  0
   25.2207  -21.2515  -12.9263 N   0  0  0  0  0  0  0  0  0  0  0  0
   24.3016  -20.6792  -13.9194 C   0  0  1  0  0  0  0  0  0  0  0  0
   25.0079  -20.7605  -15.2556 C   0  0  0  0  0  0  0  0  0  0  0  0
   26.1213  -19.7825  -15.2830 C   0  0  0  0  0  0  0  0  0  0  0  0
   26.0975  -18.6740  -14.6970 O   0  0  0  0  0  0  0  0  0  0  0  0
   23.0858  -21.5300  -13.9623 C   0  0  0  0  0  0  0  0  0  0  0  0
   23.1675  -22.7839  -13.7241 O   0  0  0  0  0  0  0  0  0  0  0  0
   27.2955  -20.0803  -16.0016 O   0  0  0  0  0  0  0  0  0  0  0  0
   17.2915  -24.0398   -8.8890 N   0  0  0  0  0  0  0  0  0  0  0  0
   18.7018  -24.1032   -8.6410 C   0  0  0  0  0  0  0  0  0  0  0  0
   19.1332  -24.9552   -7.8170 N   0  0  0  0  0  0  0  0  0  0  0  0
   19.6313  -23.2699   -9.2742 N   0  0  0  0  0  0  0  0  0  0  0  0
   19.3784  -22.2182  -10.1416 C   0  0  0  0  0  0  0  0  0  0  0  0
   19.4824  -22.2253  -11.5811 C   0  0  0  0  0  0  0  0  0  0  0  0
   20.5860  -21.7210  -12.3815 C   0  0  0  0  0  0  0  0  0  0  0  0
   20.5641  -21.7169  -13.8744 C   0  0  2  0  0  0  0  0  0  0  0  0
   21.8245  -20.9752  -14.2644 N   0  0  0  0  0  0  0  0  0  0  0  0
   19.5000  -21.0089  -14.5712 C   0  0  0  0  0  0  0  0  0  0  0  0
   19.5650  -19.7410  -14.8016 O   0  0  0  0  0  0  0  0  0  0  0  0
   18.3611  -21.6067  -15.0404 O   0  0  0  0  0  0  0  0  0  0  0  0
  2  1  1  0
  3  2  1  0
  3  4  1  1
  5  3  1  0
  5  6  1  6
  7  5  1  0
  8  7  2  0
  9  7  1  0
 10  9  1  0
 11 12  1  0
 10 11  1  6
 12 13  2  0
 14 10  1  0
 14 15  2  0
 16 12  1  0
 18 17  1  0
 19 18  2  0
 20 18  1  0
 21 20  1  0
 22 21  1  0
 23 22  1  0
 24 23  1  1
 24 25  1  0
 25 14  1  0
 26 24  1  0
 27 26  2  0
 28 26  1  0
M  END
$$$$
