IDR.pdb
     RDKit          3D

 28 27  0  0  1  0  0  0  0  0999 V2000
   23.4423  -18.6536  -17.6573 C   0  0  0  0  0  0  0  0  0  0  0  0
   23.2619  -19.9477  -16.9325 C   0  0  0  0  0  0  0  0  0  0  0  0
   22.2390  -19.7950  -15.8338 C   0  0  2  0  0  0  0  0  0  0  0  0
   22.6016  -18.7832  -14.7982 C   0  0  0  0  0  0  0  0  0  0  0  0
   21.9516  -21.1222  -15.1699 C   0  0  2  0  0  0  0  0  0  0  0  0
   21.8738  -22.1872  -16.1245 N   0  0  0  0  0  0  0  0  0  0  0  0
   20.7751  -21.0132  -14.2961 C   0  0  0  0  0  0  0  0  0  0  0  0
   20.8002  -20.1799  -13.3419 O   0  0  0  0  0  0  0  0  0  0  0  0
   19.6186  -21.7916  -14.4677 N   0  0  0  0  0  0  0  0  0  0  0  0
   18.5376  -21.7975  -13.4729 C   0  0  1  0  0  0  0  0  0  0  0  0
   17.2579  -21.5070  -14.2272 C   0  0  0  0  0  0  0  0  0  0  0  0
   16.1152  -21.5308  -13.2835 C   0  0  0  0  0  0  0  0  0  0  0  0
   16.0292  -20.8034  -12.2656 O   0  0  0  0  0  0  0  0  0  0  0  0
   18.4575  -23.1610  -12.8913 C   0  0  0  0  0  0  0  0  0  0  0  0
   18.8216  -24.1770  -13.5774 O   0  0  0  0  0  0  0  0  0  0  0  0
   15.0402  -22.4122  -13.5099 O   0  0  0  0  0  0  0  0  0  0  0  0
   17.4757  -25.2198   -4.1136 N   0  0  0  0  0  0  0  0  0  0  0  0
   17.5870  -26.4660   -4.8129 C   0  0  0  0  0  0  0  0  0  0  0  0
   17.6041  -27.5353   -4.1441 N   0  0  0  0  0  0  0  0  0  0  0  0
   17.6706  -26.5598   -6.2070 N   0  0  0  0  0  0  0  0  0  0  0  0
   17.6580  -25.5263   -7.1313 C   0  0  0  0  0  0  0  0  0  0  0  0
   17.8206  -25.6281   -8.5617 C   0  0  0  0  0  0  0  0  0  0  0  0
   17.8377  -24.5359   -9.5207 C   0  0  0  0  0  0  0  0  0  0  0  0
   17.9560  -24.7564  -10.9927 C   0  0  2  0  0  0  0  0  0  0  0  0
   17.9815  -23.3611  -11.5785 N   0  0  0  0  0  0  0  0  0  0  0  0
   16.8762  -25.4253  -11.7038 C   0  0  0  0  0  0  0  0  0  0  0  0
   15.8891  -24.7689  -12.2133 O   0  0  0  0  0  0  0  0  0  0  0  0
   16.8100  -26.7790  -11.8987 O   0  0  0  0  0  0  0  0  0  0  0  0
  2  1  1  0
  3  2  1  0
  3  4  1  1
  5  3  1  0
  5  6  1  6
  7  5  1  0
  8  7  2  0
  9  7  1  0
 10  9  1  0
 11 12  1  0
 10 11  1  6
 12 13  2  0
 14 10  1  0
 14 15  2  0
 16 12  1  0
 18 17  1  0
 19 18  2  0
 20 18  1  0
 21 20  1  0
 22 21  1  0
 23 22  1  0
 24 23  1  1
 24 25  1  0
 25 14  1  0
 26 24  1  0
 27 26  2  0
 28 26  1  0
M  END
$$$$
