IDR.pdb
     RDKit          3D

 28 27  0  0  1  0  0  0  0  0999 V2000
   28.0851  -18.2247  -18.1305 C   0  0  0  0  0  0  0  0  0  0  0  0
   28.4833  -19.3091  -17.1828 C   0  0  0  0  0  0  0  0  0  0  0  0
   27.3298  -19.6632  -16.2768 C   0  0  2  0  0  0  0  0  0  0  0  0
   26.7920  -18.5116  -15.4943 C   0  0  0  0  0  0  0  0  0  0  0  0
   27.7014  -20.7875  -15.3373 C   0  0  2  0  0  0  0  0  0  0  0  0
   28.1627  -21.9423  -16.0480 N   0  0  0  0  0  0  0  0  0  0  0  0
   26.6000  -21.0589  -14.4031 C   0  0  0  0  0  0  0  0  0  0  0  0
   25.6602  -21.8230  -14.7750 O   0  0  0  0  0  0  0  0  0  0  0  0
   26.5377  -20.5097  -13.1119 N   0  0  0  0  0  0  0  0  0  0  0  0
   25.4623  -20.8611  -12.1747 C   0  0  1  0  0  0  0  0  0  0  0  0
   25.9411  -20.4521  -10.7983 C   0  0  0  0  0  0  0  0  0  0  0  0
   24.9237  -20.8344   -9.7906 C   0  0  0  0  0  0  0  0  0  0  0  0
   23.8591  -21.4393  -10.0614 O   0  0  0  0  0  0  0  0  0  0  0  0
   24.2651  -20.0579  -12.5290 C   0  0  0  0  0  0  0  0  0  0  0  0
   24.3644  -18.7947  -12.7024 O   0  0  0  0  0  0  0  0  0  0  0  0
   25.1292  -20.5154   -8.4342 O   0  0  0  0  0  0  0  0  0  0  0  0
   22.6874  -20.6024  -19.4281 N   0  0  0  0  0  0  0  0  0  0  0  0
   22.4336  -21.8720  -18.8131 C   0  0  0  0  0  0  0  0  0  0  0  0
   22.1561  -22.8567  -19.5509 N   0  0  0  0  0  0  0  0  0  0  0  0
   22.4853  -22.0795  -17.4298 N   0  0  0  0  0  0  0  0  0  0  0  0
   22.7312  -21.1426  -16.4377 C   0  0  0  0  0  0  0  0  0  0  0  0
   21.7645  -20.5007  -15.5797 C   0  0  0  0  0  0  0  0  0  0  0  0
   22.0331  -19.5349  -14.5271 C   0  0  0  0  0  0  0  0  0  0  0  0
   21.8064  -19.8328  -13.0816 C   0  0  2  0  0  0  0  0  0  0  0  0
   23.0027  -20.6688  -12.6806 N   0  0  0  0  0  0  0  0  0  0  0  0
   20.6580  -20.6369  -12.6896 C   0  0  0  0  0  0  0  0  0  0  0  0
   20.7946  -21.8207  -12.1947 O   0  0  0  0  0  0  0  0  0  0  0  0
   19.3580  -20.2220  -12.8012 O   0  0  0  0  0  0  0  0  0  0  0  0
  2  1  1  0
  3  2  1  0
  3  4  1  1
  5  3  1  0
  5  6  1  6
  7  5  1  0
  8  7  2  0
  9  7  1  0
 10  9  1  0
 11 12  1  0
 10 11  1  1
 12 13  2  0
 14 10  1  0
 14 15  2  0
 16 12  1  0
 18 17  1  0
 19 18  2  0
 20 18  1  0
 21 20  1  0
 22 21  1  0
 23 22  1  0
 24 23  1  6
 24 25  1  0
 25 14  1  0
 26 24  1  0
 27 26  2  0
 28 26  1  0
M  END
$$$$
