IDR.pdb
     RDKit          3D

 28 27  0  0  1  0  0  0  0  0999 V2000
   23.9459  -27.8321  -17.7902 C   0  0  0  0  0  0  0  0  0  0  0  0
   22.5121  -27.4388  -17.6418 C   0  0  0  0  0  0  0  0  0  0  0  0
   22.3298  -26.5729  -16.4196 C   0  0  2  0  0  0  0  0  0  0  0  0
   22.7920  -27.2051  -15.1489 C   0  0  0  0  0  0  0  0  0  0  0  0
   20.8912  -26.1323  -16.2748 C   0  0  2  0  0  0  0  0  0  0  0  0
   20.4392  -25.4097  -17.4259 N   0  0  0  0  0  0  0  0  0  0  0  0
   20.7002  -25.4175  -15.0051 C   0  0  0  0  0  0  0  0  0  0  0  0
   21.1314  -25.9464  -13.9376 O   0  0  0  0  0  0  0  0  0  0  0  0
   20.0597  -24.1706  -14.9167 N   0  0  0  0  0  0  0  0  0  0  0  0
   19.9387  -23.4538  -13.6401 C   0  0  1  0  0  0  0  0  0  0  0  0
   19.4860  -22.0494  -13.9770 C   0  0  0  0  0  0  0  0  0  0  0  0
   20.6650  -21.2261  -14.3361 C   0  0  0  0  0  0  0  0  0  0  0  0
   21.8512  -21.6252  -14.2568 O   0  0  0  0  0  0  0  0  0  0  0  0
   18.8841  -24.1226  -12.8373 C   0  0  0  0  0  0  0  0  0  0  0  0
   17.8269  -24.5666  -13.4037 O   0  0  0  0  0  0  0  0  0  0  0  0
   20.4824  -19.9083  -14.7986 O   0  0  0  0  0  0  0  0  0  0  0  0
   17.0239  -24.9746   -5.0659 N   0  0  0  0  0  0  0  0  0  0  0  0
   17.1188  -26.4044   -5.1013 C   0  0  0  0  0  0  0  0  0  0  0  0
   16.4154  -27.0772   -4.2990 N   0  0  0  0  0  0  0  0  0  0  0  0
   17.9498  -27.0974   -5.9893 N   0  0  0  0  0  0  0  0  0  0  0  0
   18.5933  -26.6030   -7.1135 C   0  0  0  0  0  0  0  0  0  0  0  0
   17.9851  -26.0314   -8.2909 C   0  0  0  0  0  0  0  0  0  0  0  0
   18.6607  -25.5995   -9.5034 C   0  0  0  0  0  0  0  0  0  0  0  0
   17.9387  -24.9710  -10.6492 C   0  0  2  0  0  0  0  0  0  0  0  0
   19.0269  -24.2806  -11.4428 N   0  0  0  0  0  0  0  0  0  0  0  0
   16.9625  -23.9228  -10.3898 C   0  0  0  0  0  0  0  0  0  0  0  0
   17.2749  -22.6725  -10.4541 O   0  0  0  0  0  0  0  0  0  0  0  0
   15.6530  -24.1580  -10.0664 O   0  0  0  0  0  0  0  0  0  0  0  0
  2  1  1  0
  3  2  1  0
  3  4  1  1
  5  3  1  0
  5  6  1  6
  7  5  1  0
  8  7  2  0
  9  7  1  0
 10  9  1  0
 11 12  1  0
 10 11  1  6
 12 13  2  0
 14 10  1  0
 14 15  2  0
 16 12  1  0
 18 17  1  0
 19 18  2  0
 20 18  1  0
 21 20  1  0
 22 21  1  0
 23 22  1  0
 24 23  1  1
 24 25  1  0
 25 14  1  0
 26 24  1  0
 27 26  2  0
 28 26  1  0
M  END
$$$$
