IDR.pdb
     RDKit          3D

 28 27  0  0  1  0  0  0  0  0999 V2000
   33.3857  -28.3729  -20.4412 C   0  0  0  0  0  0  0  0  0  0  0  0
   33.2795  -29.1604  -19.1758 C   0  0  0  0  0  0  0  0  0  0  0  0
   31.9517  -29.8744  -19.1125 C   0  0  2  0  0  0  0  0  0  0  0  0
   30.7686  -28.9790  -19.2747 C   0  0  0  0  0  0  0  0  0  0  0  0
   31.8197  -30.6649  -17.8309 C   0  0  2  0  0  0  0  0  0  0  0  0
   32.9172  -31.5670  -17.6486 N   0  0  0  0  0  0  0  0  0  0  0  0
   30.4989  -31.3050  -17.7583 C   0  0  0  0  0  0  0  0  0  0  0  0
   30.2783  -32.3289  -18.4712 O   0  0  0  0  0  0  0  0  0  0  0  0
   29.4641  -30.8348  -16.9332 N   0  0  0  0  0  0  0  0  0  0  0  0
   28.1808  -31.5419  -16.8259 C   0  0  1  0  0  0  0  0  0  0  0  0
   27.8984  -31.6979  -15.3471 C   0  0  0  0  0  0  0  0  0  0  0  0
   28.8408  -32.6847  -14.7685 C   0  0  0  0  0  0  0  0  0  0  0  0
   29.1080  -33.7923  -15.2925 O   0  0  0  0  0  0  0  0  0  0  0  0
   27.1321  -30.6826  -17.4307 C   0  0  0  0  0  0  0  0  0  0  0  0
   27.4219  -29.5091  -17.8487 O   0  0  0  0  0  0  0  0  0  0  0  0
   29.4963  -32.3971  -13.5554 O   0  0  0  0  0  0  0  0  0  0  0  0
   22.3865  -25.2919  -19.3908 N   0  0  0  0  0  0  0  0  0  0  0  0
   21.9851  -26.1958  -20.4283 C   0  0  0  0  0  0  0  0  0  0  0  0
   20.9900  -25.8937  -21.1420 N   0  0  0  0  0  0  0  0  0  0  0  0
   22.6477  -27.3990  -20.6976 N   0  0  0  0  0  0  0  0  0  0  0  0
   23.8553  -27.8398  -20.1778 C   0  0  0  0  0  0  0  0  0  0  0  0
   24.5260  -29.0870  -20.4564 C   0  0  0  0  0  0  0  0  0  0  0  0
   25.2608  -29.9152  -19.5146 C   0  0  0  0  0  0  0  0  0  0  0  0
   24.7481  -30.2332  -18.1488 C   0  0  2  0  0  0  0  0  0  0  0  0
   25.8039  -31.1410  -17.5556 N   0  0  0  0  0  0  0  0  0  0  0  0
   23.5085  -30.9833  -18.0080 C   0  0  0  0  0  0  0  0  0  0  0  0
   22.3549  -30.4123  -18.0982 O   0  0  0  0  0  0  0  0  0  0  0  0
   23.4506  -32.3317  -17.7777 O   0  0  0  0  0  0  0  0  0  0  0  0
  2  1  1  0
  3  2  1  0
  3  4  1  1
  5  3  1  0
  5  6  1  6
  7  5  1  0
  8  7  2  0
  9  7  1  0
 10  9  1  0
 11 12  1  0
 10 11  1  1
 12 13  2  0
 14 10  1  0
 14 15  2  0
 16 12  1  0
 18 17  1  0
 19 18  2  0
 20 18  1  0
 21 20  1  0
 22 21  1  0
 23 22  1  0
 24 23  1  6
 24 25  1  0
 25 14  1  0
 26 24  1  0
 27 26  2  0
 28 26  1  0
M  END
$$$$
