IDR.pdb
     RDKit          3D

 28 27  0  0  1  0  0  0  0  0999 V2000
   14.6999   -5.3210   -6.2031 C   0  0  0  0  0  0  0  0  0  0  0  0
   13.9195   -4.8700   -7.3948 C   0  0  0  0  0  0  0  0  0  0  0  0
   14.5851   -5.3386   -8.6653 C   0  0  2  0  0  0  0  0  0  0  0  0
   14.8034   -6.8137   -8.7321 C   0  0  0  0  0  0  0  0  0  0  0  0
   15.8956   -4.6197   -8.8900 C   0  0  2  0  0  0  0  0  0  0  0  0
   15.7538   -3.2015   -8.7480 N   0  0  0  0  0  0  0  0  0  0  0  0
   16.4966   -5.0375  -10.1643 C   0  0  0  0  0  0  0  0  0  0  0  0
   15.8673   -4.8060  -11.2394 O   0  0  0  0  0  0  0  0  0  0  0  0
   17.7405   -5.6843  -10.2490 N   0  0  0  0  0  0  0  0  0  0  0  0
   18.2882   -6.1386  -11.5343 C   0  0  1  0  0  0  0  0  0  0  0  0
   19.7218   -5.6558  -11.5852 C   0  0  0  0  0  0  0  0  0  0  0  0
   19.7496   -4.2466  -12.0437 C   0  0  0  0  0  0  0  0  0  0  0  0
   18.9439   -3.7616  -12.8733 O   0  0  0  0  0  0  0  0  0  0  0  0
   18.2772   -7.6231  -11.5380 C   0  0  0  0  0  0  0  0  0  0  0  0
   18.1631   -8.2698  -10.4406 O   0  0  0  0  0  0  0  0  0  0  0  0
   20.7272   -3.3668  -11.5395 O   0  0  0  0  0  0  0  0  0  0  0  0
   11.6237  -11.7766  -10.8296 N   0  0  0  0  0  0  0  0  0  0  0  0
   12.3459  -11.0426   -9.8326 C   0  0  0  0  0  0  0  0  0  0  0  0
   11.7734  -10.7843   -8.7387 N   0  0  0  0  0  0  0  0  0  0  0  0
   13.6628  -10.6015  -10.0069 N   0  0  0  0  0  0  0  0  0  0  0  0
   14.2931  -10.2525  -11.1916 C   0  0  0  0  0  0  0  0  0  0  0  0
   15.6729   -9.8688  -11.3699 C   0  0  0  0  0  0  0  0  0  0  0  0
   16.3280   -9.5113  -12.6173 C   0  0  0  0  0  0  0  0  0  0  0  0
   17.7863   -9.7277  -12.8537 C   0  0  2  0  0  0  0  0  0  0  0  0
   18.3914   -8.3447  -12.7447 N   0  0  0  0  0  0  0  0  0  0  0  0
   18.2350  -10.2155  -14.1497 C   0  0  0  0  0  0  0  0  0  0  0  0
   18.1271   -9.5015  -15.2190 O   0  0  0  0  0  0  0  0  0  0  0  0
   18.8042  -11.4445  -14.3508 O   0  0  0  0  0  0  0  0  0  0  0  0
  2  1  1  0
  3  2  1  0
  3  4  1  1
  5  3  1  0
  5  6  1  6
  7  5  1  0
  8  7  2  0
  9  7  1  0
 10  9  1  0
 11 12  1  0
 10 11  1  1
 12 13  2  0
 14 10  1  0
 14 15  2  0
 16 12  1  0
 18 17  1  0
 19 18  2  0
 20 18  1  0
 21 20  1  0
 22 21  1  0
 23 22  1  0
 24 23  1  6
 24 25  1  0
 25 14  1  0
 26 24  1  0
 27 26  2  0
 28 26  1  0
M  END
$$$$
