IDR.pdb
     RDKit          3D

 28 27  0  0  1  0  0  0  0  0999 V2000
   24.0475  -30.0355  -16.8425 C   0  0  0  0  0  0  0  0  0  0  0  0
   24.2896  -31.3436  -17.5229 C   0  0  0  0  0  0  0  0  0  0  0  0
   25.7598  -31.5191  -17.8136 C   0  0  2  0  0  0  0  0  0  0  0  0
   26.6497  -31.2470  -16.6466 C   0  0  0  0  0  0  0  0  0  0  0  0
   26.1872  -30.6694  -18.9884 C   0  0  2  0  0  0  0  0  0  0  0  0
   25.4296  -30.9722  -20.1656 N   0  0  0  0  0  0  0  0  0  0  0  0
   27.6426  -30.7493  -19.1751 C   0  0  0  0  0  0  0  0  0  0  0  0
   28.1405  -31.8224  -19.6290 O   0  0  0  0  0  0  0  0  0  0  0  0
   28.5130  -29.6891  -18.8731 N   0  0  0  0  0  0  0  0  0  0  0  0
   29.9646  -29.8026  -19.0688 C   0  0  1  0  0  0  0  0  0  0  0  0
   30.5073  -28.3898  -19.0890 C   0  0  0  0  0  0  0  0  0  0  0  0
   31.9186  -28.4121  -19.5411 C   0  0  0  0  0  0  0  0  0  0  0  0
   32.5573  -29.4600  -19.7994 O   0  0  0  0  0  0  0  0  0  0  0  0
   30.5298  -30.5213  -17.8992 C   0  0  0  0  0  0  0  0  0  0  0  0
   30.3776  -30.0524  -16.7191 O   0  0  0  0  0  0  0  0  0  0  0  0
   32.6201  -27.2013  -19.7020 O   0  0  0  0  0  0  0  0  0  0  0  0
   28.8778  -37.5800  -13.9201 N   0  0  0  0  0  0  0  0  0  0  0  0
   29.9805  -37.7731  -14.8152 C   0  0  0  0  0  0  0  0  0  0  0  0
   30.5368  -38.9045  -14.8542 N   0  0  0  0  0  0  0  0  0  0  0  0
   30.4703  -36.7690  -15.6585 N   0  0  0  0  0  0  0  0  0  0  0  0
   31.2664  -35.6860  -15.3183 C   0  0  0  0  0  0  0  0  0  0  0  0
   30.8937  -34.2917  -15.3138 C   0  0  0  0  0  0  0  0  0  0  0  0
   30.7635  -33.4166  -16.4672 C   0  0  0  0  0  0  0  0  0  0  0  0
   31.8176  -32.4337  -16.8573 C   0  0  2  0  0  0  0  0  0  0  0  0
   31.2412  -31.7280  -18.0658 N   0  0  0  0  0  0  0  0  0  0  0  0
   33.1142  -32.9182  -17.3082 C   0  0  0  0  0  0  0  0  0  0  0  0
   33.9215  -33.5375  -16.5147 O   0  0  0  0  0  0  0  0  0  0  0  0
   33.5855  -32.7710  -18.5852 O   0  0  0  0  0  0  0  0  0  0  0  0
  2  1  1  0
  3  2  1  0
  3  4  1  1
  5  3  1  0
  5  6  1  6
  7  5  1  0
  8  7  2  0
  9  7  1  0
 10  9  1  0
 11 12  1  0
 10 11  1  1
 12 13  2  0
 14 10  1  0
 14 15  2  0
 16 12  1  0
 18 17  1  0
 19 18  2  0
 20 18  1  0
 21 20  1  0
 22 21  1  0
 23 22  1  0
 24 23  1  6
 24 25  1  0
 25 14  1  0
 26 24  1  0
 27 26  2  0
 28 26  1  0
M  END
$$$$
