IDR.pdb
     RDKit          3D

 28 27  0  0  1  0  0  0  0  0999 V2000
   13.7304  -13.4343  -14.5328 C   0  0  0  0  0  0  0  0  0  0  0  0
   14.8500  -12.8667  -15.3432 C   0  0  0  0  0  0  0  0  0  0  0  0
   15.7744  -12.0583  -14.4664 C   0  0  2  0  0  0  0  0  0  0  0  0
   15.0939  -10.9766  -13.6953 C   0  0  0  0  0  0  0  0  0  0  0  0
   16.9119  -11.4714  -15.2706 C   0  0  2  0  0  0  0  0  0  0  0  0
   17.8160  -12.4838  -15.7278 N   0  0  0  0  0  0  0  0  0  0  0  0
   17.5582  -10.3831  -14.5241 C   0  0  0  0  0  0  0  0  0  0  0  0
   18.7400  -10.5533  -14.1002 O   0  0  0  0  0  0  0  0  0  0  0  0
   16.9266   -9.1575  -14.2561 N   0  0  0  0  0  0  0  0  0  0  0  0
   17.6550   -8.0269  -13.6649 C   0  0  1  0  0  0  0  0  0  0  0  0
   18.2591   -7.2548  -14.8181 C   0  0  0  0  0  0  0  0  0  0  0  0
   19.0765   -6.1382  -14.2871 C   0  0  0  0  0  0  0  0  0  0  0  0
   19.2355   -5.9027  -13.0656 O   0  0  0  0  0  0  0  0  0  0  0  0
   16.6707   -7.1624  -12.9667 C   0  0  0  0  0  0  0  0  0  0  0  0
   15.6508   -6.7109  -13.5925 O   0  0  0  0  0  0  0  0  0  0  0  0
   19.7307   -5.2656  -15.1784 O   0  0  0  0  0  0  0  0  0  0  0  0
   12.6651   -9.7568   -9.4344 N   0  0  0  0  0  0  0  0  0  0  0  0
   12.4157   -9.3056   -8.0970 C   0  0  0  0  0  0  0  0  0  0  0  0
   11.2896   -9.5406   -7.5795 N   0  0  0  0  0  0  0  0  0  0  0  0
   13.3639   -8.6209   -7.3279 N   0  0  0  0  0  0  0  0  0  0  0  0
   14.4398   -7.8694   -7.7754 C   0  0  0  0  0  0  0  0  0  0  0  0
   14.6230   -7.2961   -9.0872 C   0  0  0  0  0  0  0  0  0  0  0  0
   15.7348   -6.4745   -9.5360 C   0  0  0  0  0  0  0  0  0  0  0  0
   15.8279   -5.9308  -10.9235 C   0  0  2  0  0  0  0  0  0  0  0  0
   16.8400   -6.8244  -11.6076 N   0  0  0  0  0  0  0  0  0  0  0  0
   16.3398   -4.5838  -11.1300 C   0  0  0  0  0  0  0  0  0  0  0  0
   15.5833   -3.5447  -11.0161 O   0  0  0  0  0  0  0  0  0  0  0  0
   17.6399   -4.2988  -11.4513 O   0  0  0  0  0  0  0  0  0  0  0  0
  2  1  1  0
  3  2  1  0
  3  4  1  6
  5  3  1  0
  5  6  1  1
  7  5  1  0
  8  7  2  0
  9  7  1  0
 10  9  1  0
 11 12  1  0
 10 11  1  6
 12 13  2  0
 14 10  1  0
 14 15  2  0
 16 12  1  0
 18 17  1  0
 19 18  2  0
 20 18  1  0
 21 20  1  0
 22 21  1  0
 23 22  1  0
 24 23  1  1
 24 25  1  0
 25 14  1  0
 26 24  1  0
 27 26  2  0
 28 26  1  0
M  END
$$$$
