IDR.pdb
     RDKit          3D

 28 27  0  0  1  0  0  0  0  0999 V2000
   19.5755  -17.1309  -19.0643 C   0  0  0  0  0  0  0  0  0  0  0  0
   20.6192  -16.7693  -18.0581 C   0  0  0  0  0  0  0  0  0  0  0  0
   21.8442  -17.6312  -18.2405 C   0  0  2  0  0  0  0  0  0  0  0  0
   21.5687  -19.0978  -18.2120 C   0  0  0  0  0  0  0  0  0  0  0  0
   22.9047  -17.2928  -17.2178 C   0  0  2  0  0  0  0  0  0  0  0  0
   23.1356  -15.8814  -17.1402 N   0  0  0  0  0  0  0  0  0  0  0  0
   24.1180  -18.0866  -17.4570 C   0  0  0  0  0  0  0  0  0  0  0  0
   24.0362  -19.3504  -17.4200 O   0  0  0  0  0  0  0  0  0  0  0  0
   25.3702  -17.5098  -17.7257 N   0  0  0  0  0  0  0  0  0  0  0  0
   26.5879  -18.3244  -17.8342 C   0  0  1  0  0  0  0  0  0  0  0  0
   27.6128  -17.4719  -18.5509 C   0  0  0  0  0  0  0  0  0  0  0  0
   27.2690  -17.3968  -19.9907 C   0  0  0  0  0  0  0  0  0  0  0  0
   26.8667  -16.3564  -20.5637 O   0  0  0  0  0  0  0  0  0  0  0  0
   27.0720  -18.6102  -16.4602 C   0  0  0  0  0  0  0  0  0  0  0  0
   26.9977  -17.7139  -15.5509 O   0  0  0  0  0  0  0  0  0  0  0  0
   27.3881  -18.5445  -20.7984 O   0  0  0  0  0  0  0  0  0  0  0  0
   22.7045  -20.3330  -10.2477 N   0  0  0  0  0  0  0  0  0  0  0  0
   23.9769  -20.7179   -9.7116 C   0  0  0  0  0  0  0  0  0  0  0  0
   24.0351  -21.1092   -8.5139 N   0  0  0  0  0  0  0  0  0  0  0  0
   25.1635  -20.6893  -10.4535 N   0  0  0  0  0  0  0  0  0  0  0  0
   25.3231  -20.3568  -11.7901 C   0  0  0  0  0  0  0  0  0  0  0  0
   26.5457  -20.3728  -12.5569 C   0  0  0  0  0  0  0  0  0  0  0  0
   26.7179  -19.9553  -13.9385 C   0  0  0  0  0  0  0  0  0  0  0  0
   27.9844  -20.1787  -14.6971 C   0  0  2  0  0  0  0  0  0  0  0  0
   27.6196  -19.8683  -16.1328 N   0  0  0  0  0  0  0  0  0  0  0  0
   28.5573  -21.5158  -14.7526 C   0  0  0  0  0  0  0  0  0  0  0  0
   29.3404  -21.9584  -13.8275 O   0  0  0  0  0  0  0  0  0  0  0  0
   28.3214  -22.4093  -15.7629 O   0  0  0  0  0  0  0  0  0  0  0  0
  2  1  1  0
  3  2  1  0
  3  4  1  1
  5  3  1  0
  5  6  1  6
  7  5  1  0
  8  7  2  0
  9  7  1  0
 10  9  1  0
 11 12  1  0
 10 11  1  6
 12 13  2  0
 14 10  1  0
 14 15  2  0
 16 12  1  0
 18 17  1  0
 19 18  2  0
 20 18  1  0
 21 20  1  0
 22 21  1  0
 23 22  1  0
 24 23  1  1
 24 25  1  0
 25 14  1  0
 26 24  1  0
 27 26  2  0
 28 26  1  0
M  END
$$$$
