IDR.pdb
     RDKit          3D

 28 27  0  0  1  0  0  0  0  0999 V2000
   28.2628  -19.4275   -6.1874 C   0  0  0  0  0  0  0  0  0  0  0  0
   28.4962  -20.4837   -7.2182 C   0  0  0  0  0  0  0  0  0  0  0  0
   27.6162  -20.2461   -8.4207 C   0  0  2  0  0  0  0  0  0  0  0  0
   26.1555  -20.2279   -8.1145 C   0  0  0  0  0  0  0  0  0  0  0  0
   27.8956  -21.2587   -9.5077 C   0  0  2  0  0  0  0  0  0  0  0  0
   29.2935  -21.3422   -9.8084 N   0  0  0  0  0  0  0  0  0  0  0  0
   27.0450  -21.0010  -10.6780 C   0  0  0  0  0  0  0  0  0  0  0  0
   27.2820  -19.9804  -11.3903 O   0  0  0  0  0  0  0  0  0  0  0  0
   25.9766  -21.8348  -11.0470 N   0  0  0  0  0  0  0  0  0  0  0  0
   25.1827  -21.5823  -12.2570 C   0  0  1  0  0  0  0  0  0  0  0  0
   25.0247  -22.9168  -12.9536 C   0  0  0  0  0  0  0  0  0  0  0  0
   24.3196  -22.7180  -14.2420 C   0  0  0  0  0  0  0  0  0  0  0  0
   23.9610  -21.5995  -14.6815 O   0  0  0  0  0  0  0  0  0  0  0  0
   23.8454  -21.0957  -11.8345 C   0  0  0  0  0  0  0  0  0  0  0  0
   23.3388  -21.4834  -10.7260 O   0  0  0  0  0  0  0  0  0  0  0  0
   24.0153  -23.8301  -15.0510 O   0  0  0  0  0  0  0  0  0  0  0  0
   21.0642  -15.2276  -17.4108 N   0  0  0  0  0  0  0  0  0  0  0  0
   19.9577  -15.8479  -16.7434 C   0  0  0  0  0  0  0  0  0  0  0  0
   18.7950  -15.4138  -16.9687 N   0  0  0  0  0  0  0  0  0  0  0  0
   20.0995  -16.9209  -15.8559 N   0  0  0  0  0  0  0  0  0  0  0  0
   21.2736  -17.5240  -15.4312 C   0  0  0  0  0  0  0  0  0  0  0  0
   21.4090  -18.6227  -14.5051 C   0  0  0  0  0  0  0  0  0  0  0  0
   21.4642  -18.5433  -13.0548 C   0  0  0  0  0  0  0  0  0  0  0  0
   21.7466  -19.7287  -12.1920 C   0  0  2  0  0  0  0  0  0  0  0  0
   23.1120  -20.2016  -12.6423 N   0  0  0  0  0  0  0  0  0  0  0  0
   20.9026  -20.9096  -12.3022 C   0  0  0  0  0  0  0  0  0  0  0  0
   19.7371  -20.9656  -11.7513 O   0  0  0  0  0  0  0  0  0  0  0  0
   21.2542  -22.0417  -12.9875 O   0  0  0  0  0  0  0  0  0  0  0  0
  2  1  1  0
  3  2  1  0
  3  4  1  1
  5  3  1  0
  5  6  1  6
  7  5  1  0
  8  7  2  0
  9  7  1  0
 10  9  1  0
 11 12  1  0
 10 11  1  1
 12 13  2  0
 14 10  1  0
 14 15  2  0
 16 12  1  0
 18 17  1  0
 19 18  2  0
 20 18  1  0
 21 20  1  0
 22 21  1  0
 23 22  1  0
 24 23  1  6
 24 25  1  0
 25 14  1  0
 26 24  1  0
 27 26  2  0
 28 26  1  0
M  END
$$$$
