IDR.pdb
     RDKit          3D

 28 27  0  0  1  0  0  0  0  0999 V2000
   29.2950  -21.2550  -10.7017 C   0  0  0  0  0  0  0  0  0  0  0  0
   28.7443  -20.9619  -12.0594 C   0  0  0  0  0  0  0  0  0  0  0  0
   27.2492  -20.7710  -11.9886 C   0  0  2  0  0  0  0  0  0  0  0  0
   26.5026  -21.9701  -11.5064 C   0  0  0  0  0  0  0  0  0  0  0  0
   26.6935  -20.3283  -13.3228 C   0  0  2  0  0  0  0  0  0  0  0  0
   27.4835  -19.2860  -13.9069 N   0  0  0  0  0  0  0  0  0  0  0  0
   25.2661  -20.0013  -13.1996 C   0  0  0  0  0  0  0  0  0  0  0  0
   24.9095  -19.1460  -12.3355 O   0  0  0  0  0  0  0  0  0  0  0  0
   24.2730  -20.5938  -13.9968 N   0  0  0  0  0  0  0  0  0  0  0  0
   22.8547  -20.2384  -13.8538 C   0  0  1  0  0  0  0  0  0  0  0  0
   22.3965  -19.7453  -15.2095 C   0  0  0  0  0  0  0  0  0  0  0  0
   21.0403  -19.1602  -15.0867 C   0  0  0  0  0  0  0  0  0  0  0  0
   20.3896  -18.6865  -16.0485 O   0  0  0  0  0  0  0  0  0  0  0  0
   22.1054  -21.4729  -13.5095 C   0  0  0  0  0  0  0  0  0  0  0  0
   22.6642  -22.6180  -13.6190 O   0  0  0  0  0  0  0  0  0  0  0  0
   20.4100  -19.1150  -13.8279 O   0  0  0  0  0  0  0  0  0  0  0  0
   18.3525  -25.9098   -8.1996 N   0  0  0  0  0  0  0  0  0  0  0  0
   18.5899  -24.7427   -7.4021 C   0  0  0  0  0  0  0  0  0  0  0  0
   18.6423  -24.8675   -6.1481 N   0  0  0  0  0  0  0  0  0  0  0  0
   18.7752  -23.4660   -7.9452 N   0  0  0  0  0  0  0  0  0  0  0  0
   18.5548  -23.0572   -9.2517 C   0  0  0  0  0  0  0  0  0  0  0  0
   19.2029  -23.5475  -10.4443 C   0  0  0  0  0  0  0  0  0  0  0  0
   20.1758  -22.8444  -11.2641 C   0  0  0  0  0  0  0  0  0  0  0  0
   20.0208  -22.6829  -12.7403 C   0  0  2  0  0  0  0  0  0  0  0  0
   20.7708  -21.4071  -13.0572 N   0  0  0  0  0  0  0  0  0  0  0  0
   18.6942  -22.4687  -13.2999 C   0  0  0  0  0  0  0  0  0  0  0  0
   18.3446  -21.3335  -13.8041 O   0  0  0  0  0  0  0  0  0  0  0  0
   17.7185  -23.4281  -13.3478 O   0  0  0  0  0  0  0  0  0  0  0  0
  2  1  1  0
  3  2  1  0
  3  4  1  6
  5  3  1  0
  5  6  1  1
  7  5  1  0
  8  7  2  0
  9  7  1  0
 10  9  1  0
 11 12  1  0
 10 11  1  6
 12 13  2  0
 14 10  1  0
 14 15  2  0
 16 12  1  0
 18 17  1  0
 19 18  2  0
 20 18  1  0
 21 20  1  0
 22 21  1  0
 23 22  1  0
 24 23  1  1
 24 25  1  0
 25 14  1  0
 26 24  1  0
 27 26  2  0
 28 26  1  0
M  END
$$$$
