IDR.pdb
     RDKit          3D

 28 27  0  0  1  0  0  0  0  0999 V2000
   28.3733  -19.5737  -19.4394 C   0  0  0  0  0  0  0  0  0  0  0  0
   27.5397  -18.3361  -19.3613 C   0  0  0  0  0  0  0  0  0  0  0  0
   26.5778  -18.4242  -18.2021 C   0  0  2  0  0  0  0  0  0  0  0  0
   25.7567  -19.6704  -18.1834 C   0  0  0  0  0  0  0  0  0  0  0  0
   25.6704  -17.2162  -18.1553 C   0  0  2  0  0  0  0  0  0  0  0  0
   26.4140  -15.9985  -18.0300 N   0  0  0  0  0  0  0  0  0  0  0  0
   24.6340  -17.3941  -17.1288 C   0  0  0  0  0  0  0  0  0  0  0  0
   24.9388  -17.1968  -15.9149 O   0  0  0  0  0  0  0  0  0  0  0  0
   23.3156  -17.7744  -17.4291 N   0  0  0  0  0  0  0  0  0  0  0  0
   22.2586  -17.7663  -16.4088 C   0  0  1  0  0  0  0  0  0  0  0  0
   20.9681  -17.4410  -17.1296 C   0  0  0  0  0  0  0  0  0  0  0  0
   19.8930  -17.2155  -16.1345 C   0  0  0  0  0  0  0  0  0  0  0  0
   20.0481  -17.3266  -14.8951 O   0  0  0  0  0  0  0  0  0  0  0  0
   22.1625  -19.1332  -15.8376 C   0  0  0  0  0  0  0  0  0  0  0  0
   22.0001  -20.1429  -16.6056 O   0  0  0  0  0  0  0  0  0  0  0  0
   18.6032  -16.8529  -16.5693 O   0  0  0  0  0  0  0  0  0  0  0  0
   28.1045  -21.1033  -10.4954 N   0  0  0  0  0  0  0  0  0  0  0  0
   26.7457  -20.9513  -10.0653 C   0  0  0  0  0  0  0  0  0  0  0  0
   26.5183  -20.7413   -8.8425 N   0  0  0  0  0  0  0  0  0  0  0  0
   25.6523  -21.0165  -10.9368 N   0  0  0  0  0  0  0  0  0  0  0  0
   25.6716  -21.1250  -12.3190 C   0  0  0  0  0  0  0  0  0  0  0  0
   24.5426  -21.0822  -13.2170 C   0  0  0  0  0  0  0  0  0  0  0  0
   23.1496  -20.8657  -12.8624 C   0  0  0  0  0  0  0  0  0  0  0  0
   22.0677  -20.7371  -13.8833 C   0  0  2  0  0  0  0  0  0  0  0  0
   22.2482  -19.3436  -14.4454 N   0  0  0  0  0  0  0  0  0  0  0  0
   20.6761  -20.7759  -13.4578 C   0  0  0  0  0  0  0  0  0  0  0  0
   20.1077  -19.7608  -12.8996 O   0  0  0  0  0  0  0  0  0  0  0  0
   19.8580  -21.8631  -13.6104 O   0  0  0  0  0  0  0  0  0  0  0  0
  2  1  1  0
  3  2  1  0
  3  4  1  6
  5  3  1  0
  5  6  1  1
  7  5  1  0
  8  7  2  0
  9  7  1  0
 10  9  1  0
 11 12  1  0
 10 11  1  6
 12 13  2  0
 14 10  1  0
 14 15  2  0
 16 12  1  0
 18 17  1  0
 19 18  2  0
 20 18  1  0
 21 20  1  0
 22 21  1  0
 23 22  1  0
 24 23  1  1
 24 25  1  0
 25 14  1  0
 26 24  1  0
 27 26  2  0
 28 26  1  0
M  END
$$$$
