IDR.pdb
     RDKit          3D

 28 27  0  0  1  0  0  0  0  0999 V2000
   11.8124  -11.4320  -10.3374 C   0  0  0  0  0  0  0  0  0  0  0  0
   13.2686  -11.2076  -10.0892 C   0  0  0  0  0  0  0  0  0  0  0  0
   13.7478   -9.9922  -10.8442 C   0  0  2  0  0  0  0  0  0  0  0  0
   13.4232  -10.0109  -12.3009 C   0  0  0  0  0  0  0  0  0  0  0  0
   15.2335   -9.7862  -10.6566 C   0  0  2  0  0  0  0  0  0  0  0  0
   15.6743  -10.2418   -9.3723 N   0  0  0  0  0  0  0  0  0  0  0  0
   15.5992   -8.3950  -10.9572 C   0  0  0  0  0  0  0  0  0  0  0  0
   15.4621   -7.9720  -12.1437 O   0  0  0  0  0  0  0  0  0  0  0  0
   16.0959   -7.5071   -9.9889 N   0  0  0  0  0  0  0  0  0  0  0  0
   16.4559   -6.1227  -10.3235 C   0  0  1  0  0  0  0  0  0  0  0  0
   16.3231   -5.3232   -9.0451 C   0  0  0  0  0  0  0  0  0  0  0  0
   16.6757   -3.9085   -9.3116 C   0  0  0  0  0  0  0  0  0  0  0  0
   16.9653   -3.4581  -10.4456 O   0  0  0  0  0  0  0  0  0  0  0  0
   17.8759   -6.1103  -10.7565 C   0  0  0  0  0  0  0  0  0  0  0  0
   18.7417   -6.8288  -10.1484 O   0  0  0  0  0  0  0  0  0  0  0  0
   16.6981   -2.9821   -8.2508 O   0  0  0  0  0  0  0  0  0  0  0  0
   21.6591  -11.5434  -15.0999 N   0  0  0  0  0  0  0  0  0  0  0  0
   22.0329  -10.3670  -15.8285 C   0  0  0  0  0  0  0  0  0  0  0  0
   22.5589  -10.5024  -16.9670 N   0  0  0  0  0  0  0  0  0  0  0  0
   21.8370   -9.0686  -15.3438 N   0  0  0  0  0  0  0  0  0  0  0  0
   20.8970   -8.6385  -14.4197 C   0  0  0  0  0  0  0  0  0  0  0  0
   20.7284   -7.3034  -13.8979 C   0  0  0  0  0  0  0  0  0  0  0  0
   19.7094   -6.8500  -12.9658 C   0  0  0  0  0  0  0  0  0  0  0  0
   19.6941   -5.4703  -12.3953 C   0  0  2  0  0  0  0  0  0  0  0  0
   18.2950   -5.3110  -11.8406 N   0  0  0  0  0  0  0  0  0  0  0  0
   19.8614   -4.3286  -13.2827 C   0  0  0  0  0  0  0  0  0  0  0  0
   21.0113   -3.7723  -13.4647 O   0  0  0  0  0  0  0  0  0  0  0  0
   18.8418   -3.7549  -13.9940 O   0  0  0  0  0  0  0  0  0  0  0  0
  2  1  1  0
  3  2  1  0
  3  4  1  6
  5  3  1  0
  5  6  1  1
  7  5  1  0
  8  7  2  0
  9  7  1  0
 10  9  1  0
 11 12  1  0
 10 11  1  1
 12 13  2  0
 14 10  1  0
 14 15  2  0
 16 12  1  0
 18 17  1  0
 19 18  2  0
 20 18  1  0
 21 20  1  0
 22 21  1  0
 23 22  1  0
 24 23  1  6
 24 25  1  0
 25 14  1  0
 26 24  1  0
 27 26  2  0
 28 26  1  0
M  END
$$$$
