IDR.pdb
     RDKit          3D

 28 27  0  0  1  0  0  0  0  0999 V2000
   27.5834  -14.2325  -25.6094 C   0  0  0  0  0  0  0  0  0  0  0  0
   28.5003  -13.7854  -24.5177 C   0  0  0  0  0  0  0  0  0  0  0  0
   27.7544  -12.9283  -23.5248 C   0  0  2  0  0  0  0  0  0  0  0  0
   27.1061  -11.7244  -24.1232 C   0  0  0  0  0  0  0  0  0  0  0  0
   28.6541  -12.5081  -22.3851 C   0  0  2  0  0  0  0  0  0  0  0  0
   29.2219  -13.6383  -21.7131 N   0  0  0  0  0  0  0  0  0  0  0  0
   27.9507  -11.5730  -21.4960 C   0  0  0  0  0  0  0  0  0  0  0  0
   27.1739  -12.0413  -20.6113 O   0  0  0  0  0  0  0  0  0  0  0  0
   28.0981  -10.1787  -21.5796 N   0  0  0  0  0  0  0  0  0  0  0  0
   27.3701   -9.2705  -20.6832 C   0  0  1  0  0  0  0  0  0  0  0  0
   28.2575   -8.0605  -20.4843 C   0  0  0  0  0  0  0  0  0  0  0  0
   27.5822   -7.0994  -19.5804 C   0  0  0  0  0  0  0  0  0  0  0  0
   27.9630   -5.9184  -19.3994 O   0  0  0  0  0  0  0  0  0  0  0  0
   26.1242   -8.8488  -21.3714 C   0  0  0  0  0  0  0  0  0  0  0  0
   26.1460   -8.5388  -22.6120 O   0  0  0  0  0  0  0  0  0  0  0  0
   26.4386   -7.5005  -18.8625 O   0  0  0  0  0  0  0  0  0  0  0  0
   17.9750  -12.0889  -19.8422 N   0  0  0  0  0  0  0  0  0  0  0  0
   19.1569  -11.7780  -19.0932 C   0  0  0  0  0  0  0  0  0  0  0  0
   19.3422  -12.3570  -17.9880 N   0  0  0  0  0  0  0  0  0  0  0  0
   20.1253  -10.8665  -19.5296 N   0  0  0  0  0  0  0  0  0  0  0  0
   20.1274  -10.1229  -20.6999 C   0  0  0  0  0  0  0  0  0  0  0  0
   21.1973   -9.3025  -21.2148 C   0  0  0  0  0  0  0  0  0  0  0  0
   22.5901   -9.3180  -20.7992 C   0  0  0  0  0  0  0  0  0  0  0  0
   23.6274   -8.4423  -21.4209 C   0  0  2  0  0  0  0  0  0  0  0  0
   24.8994   -8.7826  -20.6746 N   0  0  0  0  0  0  0  0  0  0  0  0
   23.5115   -6.9969  -21.2937 C   0  0  0  0  0  0  0  0  0  0  0  0
   22.9213   -6.2811  -22.1905 O   0  0  0  0  0  0  0  0  0  0  0  0
   24.0006   -6.2789  -20.2354 O   0  0  0  0  0  0  0  0  0  0  0  0
  2  1  1  0
  3  2  1  0
  3  4  1  6
  5  3  1  0
  5  6  1  1
  7  5  1  0
  8  7  2  0
  9  7  1  0
 10  9  1  0
 11 12  1  0
 10 11  1  6
 12 13  2  0
 14 10  1  0
 14 15  2  0
 16 12  1  0
 18 17  1  0
 19 18  2  0
 20 18  1  0
 21 20  1  0
 22 21  1  0
 23 22  1  0
 24 23  1  1
 24 25  1  0
 25 14  1  0
 26 24  1  0
 27 26  2  0
 28 26  1  0
M  END
$$$$
