IDR.pdb
     RDKit          3D

 28 27  0  0  1  0  0  0  0  0999 V2000
   15.8171  -15.2344  -15.8869 C   0  0  0  0  0  0  0  0  0  0  0  0
   17.2145  -14.8226  -16.2193 C   0  0  0  0  0  0  0  0  0  0  0  0
   17.6046  -13.6018  -15.4230 C   0  0  2  0  0  0  0  0  0  0  0  0
   17.3572  -13.7247  -13.9562 C   0  0  0  0  0  0  0  0  0  0  0  0
   16.9174  -12.3642  -15.9530 C   0  0  2  0  0  0  0  0  0  0  0  0
   17.0179  -12.2709  -17.3787 N   0  0  0  0  0  0  0  0  0  0  0  0
   17.3913  -11.1703  -15.2391 C   0  0  0  0  0  0  0  0  0  0  0  0
   17.3314  -11.1534  -13.9737 O   0  0  0  0  0  0  0  0  0  0  0  0
   17.9099  -10.0414  -15.8945 N   0  0  0  0  0  0  0  0  0  0  0  0
   18.2882   -8.8276  -15.1584 C   0  0  1  0  0  0  0  0  0  0  0  0
   19.2260   -8.0533  -16.0595 C   0  0  0  0  0  0  0  0  0  0  0  0
   19.6504   -6.8095  -15.3742 C   0  0  0  0  0  0  0  0  0  0  0  0
   19.7080   -5.6862  -15.9288 O   0  0  0  0  0  0  0  0  0  0  0  0
   17.0593   -8.0252  -14.9353 C   0  0  0  0  0  0  0  0  0  0  0  0
   16.1830   -7.9172  -15.8605 O   0  0  0  0  0  0  0  0  0  0  0  0
   20.0202   -6.8514  -14.0158 O   0  0  0  0  0  0  0  0  0  0  0  0
   11.4036   -8.1228   -8.1226 N   0  0  0  0  0  0  0  0  0  0  0  0
   11.8409   -8.9577   -9.2024 C   0  0  0  0  0  0  0  0  0  0  0  0
   11.5341  -10.1811   -9.1835 N   0  0  0  0  0  0  0  0  0  0  0  0
   12.5882   -8.4828  -10.2866 N   0  0  0  0  0  0  0  0  0  0  0  0
   13.0745   -7.2000  -10.4877 C   0  0  0  0  0  0  0  0  0  0  0  0
   13.7352   -6.6879  -11.6641 C   0  0  0  0  0  0  0  0  0  0  0  0
   14.9289   -7.2209  -12.2997 C   0  0  0  0  0  0  0  0  0  0  0  0
   15.5597   -6.5846  -13.4941 C   0  0  2  0  0  0  0  0  0  0  0  0
   16.8356   -7.3707  -13.7059 N   0  0  0  0  0  0  0  0  0  0  0  0
   15.9995   -5.1991  -13.4165 C   0  0  0  0  0  0  0  0  0  0  0  0
   17.2406   -4.8886  -13.2488 O   0  0  0  0  0  0  0  0  0  0  0  0
   15.1603   -4.1219  -13.5167 O   0  0  0  0  0  0  0  0  0  0  0  0
  2  1  1  0
  3  2  1  0
  3  4  1  1
  5  3  1  0
  5  6  1  6
  7  5  1  0
  8  7  2  0
  9  7  1  0
 10  9  1  0
 11 12  1  0
 10 11  1  6
 12 13  2  0
 14 10  1  0
 14 15  2  0
 16 12  1  0
 18 17  1  0
 19 18  2  0
 20 18  1  0
 21 20  1  0
 22 21  1  0
 23 22  1  0
 24 23  1  1
 24 25  1  0
 25 14  1  0
 26 24  1  0
 27 26  2  0
 28 26  1  0
M  END
$$$$
