IDR.pdb
     RDKit          3D

 28 27  0  0  1  0  0  0  0  0999 V2000
   29.0895  -19.9879   -4.5886 C   0  0  0  0  0  0  0  0  0  0  0  0
   27.8061  -19.4914   -5.1708 C   0  0  0  0  0  0  0  0  0  0  0  0
   27.4138  -20.3274   -6.3641 C   0  0  2  0  0  0  0  0  0  0  0  0
   28.4329  -20.3517   -7.4543 C   0  0  0  0  0  0  0  0  0  0  0  0
   26.0809  -19.8852   -6.9233 C   0  0  2  0  0  0  0  0  0  0  0  0
   25.0857  -19.7759   -5.8990 N   0  0  0  0  0  0  0  0  0  0  0  0
   25.6892  -20.7426   -8.0507 C   0  0  0  0  0  0  0  0  0  0  0  0
   25.2342  -21.8996   -7.8067 O   0  0  0  0  0  0  0  0  0  0  0  0
   25.7953  -20.3401   -9.3922 N   0  0  0  0  0  0  0  0  0  0  0  0
   25.0138  -20.9855  -10.4558 C   0  0  1  0  0  0  0  0  0  0  0  0
   23.5566  -20.7455  -10.1242 C   0  0  0  0  0  0  0  0  0  0  0  0
   22.7059  -21.4081  -11.1411 C   0  0  0  0  0  0  0  0  0  0  0  0
   23.1513  -22.1040  -12.0845 O   0  0  0  0  0  0  0  0  0  0  0  0
   25.3364  -20.3081  -11.7368 C   0  0  0  0  0  0  0  0  0  0  0  0
   25.0943  -19.0612  -11.8857 O   0  0  0  0  0  0  0  0  0  0  0  0
   21.3056  -21.2707  -11.0777 O   0  0  0  0  0  0  0  0  0  0  0  0
   28.4501  -17.6064  -18.1917 N   0  0  0  0  0  0  0  0  0  0  0  0
   28.5819  -17.1127  -16.8525 C   0  0  0  0  0  0  0  0  0  0  0  0
   28.3202  -15.8996  -16.6266 N   0  0  0  0  0  0  0  0  0  0  0  0
   28.9805  -17.9121  -15.7749 N   0  0  0  0  0  0  0  0  0  0  0  0
   29.2250  -19.2769  -15.7730 C   0  0  0  0  0  0  0  0  0  0  0  0
   28.2532  -20.3410  -15.6934 C   0  0  0  0  0  0  0  0  0  0  0  0
   27.5606  -20.8069  -14.5034 C   0  0  0  0  0  0  0  0  0  0  0  0
   26.2068  -20.3132  -14.1124 C   0  0  2  0  0  0  0  0  0  0  0  0
   25.9130  -21.0223  -12.8080 N   0  0  0  0  0  0  0  0  0  0  0  0
   25.0621  -20.6240  -14.9564 C   0  0  0  0  0  0  0  0  0  0  0  0
   24.3430  -21.6780  -14.7649 O   0  0  0  0  0  0  0  0  0  0  0  0
   24.6477  -19.8447  -16.0031 O   0  0  0  0  0  0  0  0  0  0  0  0
  2  1  1  0
  3  2  1  0
  3  4  1  6
  5  3  1  0
  5  6  1  1
  7  5  1  0
  8  7  2  0
  9  7  1  0
 10  9  1  0
 11 12  1  0
 10 11  1  1
 12 13  2  0
 14 10  1  0
 14 15  2  0
 16 12  1  0
 18 17  1  0
 19 18  2  0
 20 18  1  0
 21 20  1  0
 22 21  1  0
 23 22  1  0
 24 23  1  6
 24 25  1  0
 25 14  1  0
 26 24  1  0
 27 26  2  0
 28 26  1  0
M  END
$$$$
