SGS.pdb
     RDKit          3D

 17 16  0  0  1  0  0  0  0  0999 V2000
   28.5668  -17.9598  -20.1767 O   0  0  0  0  0  0  0  0  0  0  0  0
   28.7512  -17.9005  -18.7844 C   0  0  0  0  0  0  0  0  0  0  0  0
   27.6548  -18.7348  -18.1698 C   0  0  2  0  0  0  0  0  0  0  0  0
   26.4064  -18.0774  -18.4045 N   0  0  0  0  0  0  0  0  0  0  0  0
   27.8987  -19.0393  -16.7417 C   0  0  0  0  0  0  0  0  0  0  0  0
   28.9053  -19.7223  -16.4285 O   0  0  0  0  0  0  0  0  0  0  0  0
   27.0459  -18.5957  -15.6948 N   0  0  0  0  0  0  0  0  0  0  0  0
   27.2816  -18.8378  -14.2898 C   0  0  0  0  0  0  0  0  0  0  0  0
   26.4144  -19.8349  -13.6714 C   0  0  0  0  0  0  0  0  0  0  0  0
   25.6015  -20.4744  -14.3938 O   0  0  0  0  0  0  0  0  0  0  0  0
   25.9004  -20.3829   -9.5231 O   0  0  0  0  0  0  0  0  0  0  0  0
   25.9725  -21.5130  -10.3400 C   0  0  0  0  0  0  0  0  0  0  0  0
   25.5423  -21.2053  -11.7547 C   0  0  2  0  0  0  0  0  0  0  0  0
   26.4113  -20.1459  -12.2955 N   0  0  0  0  0  0  0  0  0  0  0  0
   24.1204  -20.7878  -11.8200 C   0  0  0  0  0  0  0  0  0  0  0  0
   23.7445  -19.6063  -12.0253 O   0  0  0  0  0  0  0  0  0  0  0  0
   23.1489  -21.7604  -11.6439 O   0  0  0  0  0  0  0  0  0  0  0  0
  2  3  1  0
  2  1  1  0
  3  4  1  1
  5  7  1  0
  5  3  1  0
  6  5  2  0
  8  9  1  0
  8  7  1  0
  9 10  2  0
 11 12  1  0
 13 12  1  1
 14 13  1  0
 14  9  1  0
 15 13  1  0
 15 17  1  0
 16 15  2  0
M  END
$$$$
