SGS.pdb
     RDKit          3D

 17 16  0  0  1  0  0  0  0  0999 V2000
   15.5631  -11.5396  -18.9571 O   0  0  0  0  0  0  0  0  0  0  0  0
   16.2209  -10.3491  -19.3119 C   0  0  0  0  0  0  0  0  0  0  0  0
   16.7588   -9.7577  -18.0326 C   0  0  2  0  0  0  0  0  0  0  0  0
   15.6503   -9.4197  -17.1943 N   0  0  0  0  0  0  0  0  0  0  0  0
   17.6829   -8.6254  -18.2689 C   0  0  0  0  0  0  0  0  0  0  0  0
   17.3212   -7.6932  -19.0290 O   0  0  0  0  0  0  0  0  0  0  0  0
   18.9712   -8.5355  -17.6754 N   0  0  0  0  0  0  0  0  0  0  0  0
   19.8663   -7.4116  -17.8297 C   0  0  0  0  0  0  0  0  0  0  0  0
   20.0810   -6.6116  -16.6286 C   0  0  0  0  0  0  0  0  0  0  0  0
   19.1009   -6.3602  -15.8751 O   0  0  0  0  0  0  0  0  0  0  0  0
   22.3957   -5.6080  -12.7531 O   0  0  0  0  0  0  0  0  0  0  0  0
   22.1503   -6.2652  -13.9604 C   0  0  0  0  0  0  0  0  0  0  0  0
   21.4812   -5.3554  -14.9632 C   0  0  2  0  0  0  0  0  0  0  0  0
   21.3279   -6.0820  -16.2354 N   0  0  0  0  0  0  0  0  0  0  0  0
   22.2521   -4.1057  -15.1740 C   0  0  0  0  0  0  0  0  0  0  0  0
   22.9479   -3.8739  -16.1946 O   0  0  0  0  0  0  0  0  0  0  0  0
   22.2010   -3.1361  -14.1851 O   0  0  0  0  0  0  0  0  0  0  0  0
  2  3  1  0
  2  1  1  0
  3  4  1  1
  5  7  1  0
  5  3  1  0
  6  5  2  0
  8  9  1  0
  8  7  1  0
  9 10  2  0
 11 12  1  0
 13 12  1  1
 14 13  1  0
 14  9  1  0
 15 13  1  0
 15 17  1  0
 16 15  2  0
M  END
$$$$
