SGS.pdb
     RDKit          3D

 17 16  0  0  1  0  0  0  0  0999 V2000
   14.1508  -12.2545  -12.4160 O   0  0  0  0  0  0  0  0  0  0  0  0
   14.3760  -10.8728  -12.5421 C   0  0  0  0  0  0  0  0  0  0  0  0
   15.5120  -10.5356  -11.6085 C   0  0  2  0  0  0  0  0  0  0  0  0
   15.0974  -10.8335  -10.2724 N   0  0  0  0  0  0  0  0  0  0  0  0
   15.9991   -9.1477  -11.7765 C   0  0  0  0  0  0  0  0  0  0  0  0
   15.3362   -8.2054  -11.2763 O   0  0  0  0  0  0  0  0  0  0  0  0
   17.1893   -8.8207  -12.4811 N   0  0  0  0  0  0  0  0  0  0  0  0
   17.6807   -7.4759  -12.6770 C   0  0  0  0  0  0  0  0  0  0  0  0
   18.9204   -7.3661  -13.4384 C   0  0  0  0  0  0  0  0  0  0  0  0
   19.6561   -8.3833  -13.5637 O   0  0  0  0  0  0  0  0  0  0  0  0
   20.3214   -3.8050  -15.2013 O   0  0  0  0  0  0  0  0  0  0  0  0
   20.4998   -5.0203  -15.8653 C   0  0  0  0  0  0  0  0  0  0  0  0
   20.5845   -6.1762  -14.8969 C   0  0  2  0  0  0  0  0  0  0  0  0
   19.3735   -6.1828  -14.0582 N   0  0  0  0  0  0  0  0  0  0  0  0
   21.7982   -6.0964  -14.0478 C   0  0  0  0  0  0  0  0  0  0  0  0
   21.7825   -5.7959  -12.8276 O   0  0  0  0  0  0  0  0  0  0  0  0
   23.0225   -6.3698  -14.6369 O   0  0  0  0  0  0  0  0  0  0  0  0
  2  3  1  0
  2  1  1  0
  3  4  1  1
  5  7  1  0
  5  3  1  0
  6  5  2  0
  8  9  1  0
  8  7  1  0
  9 10  2  0
 11 12  1  0
 13 12  1  6
 14 13  1  0
 14  9  1  0
 15 13  1  0
 15 17  1  0
 16 15  2  0
M  END
$$$$
