SGS.pdb
     RDKit          3D

 17 16  0  0  1  0  0  0  0  0999 V2000
   20.2779  -14.2713  -17.9267 O   0  0  0  0  0  0  0  0  0  0  0  0
   20.3199  -13.5947  -16.6954 C   0  0  0  0  0  0  0  0  0  0  0  0
   20.2849  -12.1205  -17.0138 C   0  0  2  0  0  0  0  0  0  0  0  0
   21.4476  -11.8004  -17.7829 N   0  0  0  0  0  0  0  0  0  0  0  0
   20.1288  -11.2772  -15.8070 C   0  0  0  0  0  0  0  0  0  0  0  0
   19.1896  -11.5232  -15.0102 O   0  0  0  0  0  0  0  0  0  0  0  0
   20.9938  -10.1925  -15.4985 N   0  0  0  0  0  0  0  0  0  0  0  0
   20.8672   -9.3521  -14.3297 C   0  0  0  0  0  0  0  0  0  0  0  0
   21.7801   -8.2155  -14.2728 C   0  0  0  0  0  0  0  0  0  0  0  0
   22.9848   -8.3781  -14.6102 O   0  0  0  0  0  0  0  0  0  0  0  0
   22.9165   -4.5409  -16.2183 O   0  0  0  0  0  0  0  0  0  0  0  0
   22.2832   -5.7008  -15.7674 C   0  0  0  0  0  0  0  0  0  0  0  0
   22.1983   -5.7382  -14.2599 C   0  0  2  0  0  0  0  0  0  0  0  0
   21.4136   -6.9182  -13.8576 N   0  0  0  0  0  0  0  0  0  0  0  0
   21.5876   -4.5026  -13.7114 C   0  0  0  0  0  0  0  0  0  0  0  0
   20.3545   -4.3550  -13.5188 O   0  0  0  0  0  0  0  0  0  0  0  0
   22.4288   -3.4484  -13.3924 O   0  0  0  0  0  0  0  0  0  0  0  0
  2  3  1  0
  2  1  1  0
  3  4  1  1
  5  7  1  0
  5  3  1  0
  6  5  2  0
  8  9  1  0
  8  7  1  0
  9 10  2  0
 11 12  1  0
 13 12  1  6
 14 13  1  0
 14  9  1  0
 15 13  1  0
 15 17  1  0
 16 15  2  0
M  END
$$$$
