SGS.pdb
     RDKit          3D

 17 16  0  0  1  0  0  0  0  0999 V2000
   26.4343  -17.0563  -18.0511 O   0  0  0  0  0  0  0  0  0  0  0  0
   26.6310  -18.3986  -17.6832 C   0  0  0  0  0  0  0  0  0  0  0  0
   26.3076  -18.4928  -16.2127 C   0  0  2  0  0  0  0  0  0  0  0  0
   27.1031  -17.5296  -15.5162 N   0  0  0  0  0  0  0  0  0  0  0  0
   26.4510  -19.8673  -15.6814 C   0  0  0  0  0  0  0  0  0  0  0  0
   25.6622  -20.7594  -16.0807 O   0  0  0  0  0  0  0  0  0  0  0  0
   27.4441  -20.2354  -14.7336 N   0  0  0  0  0  0  0  0  0  0  0  0
   27.5525  -21.5433  -14.1287 C   0  0  0  0  0  0  0  0  0  0  0  0
   26.5107  -21.8758  -13.1629 C   0  0  0  0  0  0  0  0  0  0  0  0
   25.8483  -22.9386  -13.3158 O   0  0  0  0  0  0  0  0  0  0  0  0
   25.8949  -19.8769   -9.5210 O   0  0  0  0  0  0  0  0  0  0  0  0
   25.5326  -21.2121   -9.7105 C   0  0  0  0  0  0  0  0  0  0  0  0
   25.0895  -21.4721  -11.1308 C   0  0  2  0  0  0  0  0  0  0  0  0
   26.1757  -21.0819  -12.0461 N   0  0  0  0  0  0  0  0  0  0  0  0
   23.8461  -20.7352  -11.4641 C   0  0  0  0  0  0  0  0  0  0  0  0
   23.7834  -19.8134  -12.3161 O   0  0  0  0  0  0  0  0  0  0  0  0
   22.6841  -21.0853  -10.7948 O   0  0  0  0  0  0  0  0  0  0  0  0
  2  3  1  0
  2  1  1  0
  3  4  1  1
  5  7  1  0
  5  3  1  0
  6  5  2  0
  8  9  1  0
  8  7  1  0
  9 10  2  0
 11 12  1  0
 13 12  1  1
 14 13  1  0
 14  9  1  0
 15 13  1  0
 15 17  1  0
 16 15  2  0
M  END
$$$$
