SGS.pdb
     RDKit          3D

 17 16  0  0  1  0  0  0  0  0999 V2000
   24.5923  -21.4860  -18.6774 O   0  0  0  0  0  0  0  0  0  0  0  0
   24.7297  -20.3034  -17.9301 C   0  0  0  0  0  0  0  0  0  0  0  0
   26.1741  -20.2317  -17.5009 C   0  0  2  0  0  0  0  0  0  0  0  0
   26.7858  -21.4956  -17.7732 N   0  0  0  0  0  0  0  0  0  0  0  0
   26.3333  -19.7930  -16.0959 C   0  0  0  0  0  0  0  0  0  0  0  0
   25.8044  -18.7135  -15.7319 O   0  0  0  0  0  0  0  0  0  0  0  0
   27.0603  -20.5357  -15.1264 N   0  0  0  0  0  0  0  0  0  0  0  0
   27.1843  -20.1639  -13.7355 C   0  0  0  0  0  0  0  0  0  0  0  0
   26.1970  -20.7546  -12.8382 C   0  0  0  0  0  0  0  0  0  0  0  0
   25.2155  -21.3767  -13.3295 O   0  0  0  0  0  0  0  0  0  0  0  0
   25.9216  -19.8596   -8.8178 O   0  0  0  0  0  0  0  0  0  0  0  0
   25.6302  -21.1863   -9.1413 C   0  0  0  0  0  0  0  0  0  0  0  0
   25.2325  -21.3310  -10.5911 C   0  0  2  0  0  0  0  0  0  0  0  0
   26.2533  -20.6808  -11.4307 N   0  0  0  0  0  0  0  0  0  0  0  0
   23.8967  -20.7436  -10.8576 C   0  0  0  0  0  0  0  0  0  0  0  0
   22.8117  -21.3015  -10.5559 O   0  0  0  0  0  0  0  0  0  0  0  0
   23.8434  -19.5048  -11.4767 O   0  0  0  0  0  0  0  0  0  0  0  0
  2  3  1  0
  2  1  1  0
  3  4  1  1
  5  7  1  0
  5  3  1  0
  6  5  2  0
  8  9  1  0
  8  7  1  0
  9 10  2  0
 11 12  1  0
 13 12  1  1
 14 13  1  0
 14  9  1  0
 15 13  1  0
 15 17  1  0
 16 15  2  0
M  END
$$$$
