SGS.pdb
     RDKit          3D

 17 16  0  0  1  0  0  0  0  0999 V2000
   17.1707  -14.0217  -15.8698 O   0  0  0  0  0  0  0  0  0  0  0  0
   17.3051  -12.7256  -16.3970 C   0  0  0  0  0  0  0  0  0  0  0  0
   18.7166  -12.2846  -16.0986 C   0  0  2  0  0  0  0  0  0  0  0  0
   19.0511  -12.7167  -14.7768 N   0  0  0  0  0  0  0  0  0  0  0  0
   18.9206  -10.8337  -16.3112 C   0  0  0  0  0  0  0  0  0  0  0  0
   19.0950  -10.4087  -17.4802 O   0  0  0  0  0  0  0  0  0  0  0  0
   18.9298   -9.8858  -15.2522 N   0  0  0  0  0  0  0  0  0  0  0  0
   19.0437   -8.4568  -15.4345 C   0  0  0  0  0  0  0  0  0  0  0  0
   20.2363   -7.8444  -14.8589 C   0  0  0  0  0  0  0  0  0  0  0  0
   21.2601   -8.5561  -14.6668 O   0  0  0  0  0  0  0  0  0  0  0  0
   23.6378   -5.1497  -15.3823 O   0  0  0  0  0  0  0  0  0  0  0  0
   22.4247   -5.8251  -15.5308 C   0  0  0  0  0  0  0  0  0  0  0  0
   21.6449   -5.8589  -14.2377 C   0  0  2  0  0  0  0  0  0  0  0  0
   20.3363   -6.4869  -14.4887 N   0  0  0  0  0  0  0  0  0  0  0  0
   21.4634   -4.5015  -13.6677 C   0  0  0  0  0  0  0  0  0  0  0  0
   20.5161   -3.7336  -13.9715 O   0  0  0  0  0  0  0  0  0  0  0  0
   22.3955   -4.0546  -12.7445 O   0  0  0  0  0  0  0  0  0  0  0  0
  2  3  1  0
  2  1  1  0
  3  4  1  1
  5  7  1  0
  5  3  1  0
  6  5  2  0
  8  9  1  0
  8  7  1  0
  9 10  2  0
 11 12  1  0
 13 12  1  6
 14 13  1  0
 14  9  1  0
 15 13  1  0
 15 17  1  0
 16 15  2  0
M  END
$$$$
