SGS.pdb
     RDKit          3D

 17 16  0  0  1  0  0  0  0  0999 V2000
   11.3440  -11.6501  -13.3642 O   0  0  0  0  0  0  0  0  0  0  0  0
   12.4115  -11.3198  -14.2170 C   0  0  0  0  0  0  0  0  0  0  0  0
   13.5392  -10.8501  -13.3318 C   0  0  2  0  0  0  0  0  0  0  0  0
   13.1510   -9.6117  -12.7307 N   0  0  0  0  0  0  0  0  0  0  0  0
   14.8345  -10.7761  -14.0449 C   0  0  0  0  0  0  0  0  0  0  0  0
   15.3487  -11.8346  -14.4841 O   0  0  0  0  0  0  0  0  0  0  0  0
   15.5351   -9.5585  -14.2614 N   0  0  0  0  0  0  0  0  0  0  0  0
   16.7690   -9.4459  -15.0050 C   0  0  0  0  0  0  0  0  0  0  0  0
   17.8358   -8.7045  -14.3409 C   0  0  0  0  0  0  0  0  0  0  0  0
   17.6554   -8.2925  -13.1622 O   0  0  0  0  0  0  0  0  0  0  0  0
   21.4171   -9.6285  -13.6576 O   0  0  0  0  0  0  0  0  0  0  0  0
   21.4330   -8.4042  -14.3289 C   0  0  0  0  0  0  0  0  0  0  0  0
   20.1205   -7.6717  -14.1813 C   0  0  2  0  0  0  0  0  0  0  0  0
   19.0822   -8.4023  -14.9282 N   0  0  0  0  0  0  0  0  0  0  0  0
   20.2129   -6.2721  -14.6640 C   0  0  0  0  0  0  0  0  0  0  0  0
   19.8452   -5.8978  -15.8059 O   0  0  0  0  0  0  0  0  0  0  0  0
   20.7365   -5.3210  -13.8026 O   0  0  0  0  0  0  0  0  0  0  0  0
  2  3  1  0
  2  1  1  0
  3  4  1  6
  5  7  1  0
  5  3  1  0
  6  5  2  0
  8  9  1  0
  8  7  1  0
  9 10  2  0
 11 12  1  0
 13 12  1  6
 14 13  1  0
 14  9  1  0
 15 13  1  0
 15 17  1  0
 16 15  2  0
M  END
$$$$
