SGS.pdb
     RDKit          3D

 17 16  0  0  1  0  0  0  0  0999 V2000
   16.1453  -16.0811  -15.8767 O   0  0  0  0  0  0  0  0  0  0  0  0
   16.5167  -14.8983  -16.5392 C   0  0  0  0  0  0  0  0  0  0  0  0
   17.9405  -14.6076  -16.1339 C   0  0  2  0  0  0  0  0  0  0  0  0
   18.0107  -14.6177  -14.7054 N   0  0  0  0  0  0  0  0  0  0  0  0
   18.4656  -13.3626  -16.7388 C   0  0  0  0  0  0  0  0  0  0  0  0
   18.7906  -13.3656  -17.9520 O   0  0  0  0  0  0  0  0  0  0  0  0
   18.6235  -12.1511  -16.0125 N   0  0  0  0  0  0  0  0  0  0  0  0
   19.1330  -10.9210  -16.5744 C   0  0  0  0  0  0  0  0  0  0  0  0
   19.1218   -9.7702  -15.6777 C   0  0  0  0  0  0  0  0  0  0  0  0
   18.0636   -9.4910  -15.0502 O   0  0  0  0  0  0  0  0  0  0  0  0
   22.0074   -8.6287  -13.2617 O   0  0  0  0  0  0  0  0  0  0  0  0
   21.5122   -7.5189  -13.9495 C   0  0  0  0  0  0  0  0  0  0  0  0
   20.1401   -7.7856  -14.5216 C   0  0  2  0  0  0  0  0  0  0  0  0
   20.2271   -8.9230  -15.4537 N   0  0  0  0  0  0  0  0  0  0  0  0
   19.5901   -6.5943  -15.2133 C   0  0  0  0  0  0  0  0  0  0  0  0
   18.9930   -5.6561  -14.6279 O   0  0  0  0  0  0  0  0  0  0  0  0
   19.7447   -6.5122  -16.5881 O   0  0  0  0  0  0  0  0  0  0  0  0
  2  3  1  0
  2  1  1  0
  3  4  1  1
  5  7  1  0
  5  3  1  0
  6  5  2  0
  8  9  1  0
  8  7  1  0
  9 10  2  0
 11 12  1  0
 13 12  1  6
 14 13  1  0
 14  9  1  0
 15 13  1  0
 15 17  1  0
 16 15  2  0
M  END
$$$$
