SGS.pdb
     RDKit          3D

 17 16  0  0  1  0  0  0  0  0999 V2000
   11.0668  -10.0218   -8.1279 O   0  0  0  0  0  0  0  0  0  0  0  0
   12.0055   -8.9873   -8.2837 C   0  0  0  0  0  0  0  0  0  0  0  0
   12.8371   -9.3400   -9.4920 C   0  0  2  0  0  0  0  0  0  0  0  0
   13.4952  -10.5837   -9.2355 N   0  0  0  0  0  0  0  0  0  0  0  0
   13.7645   -8.2552   -9.8858 C   0  0  0  0  0  0  0  0  0  0  0  0
   13.3801   -7.0629   -9.7944 O   0  0  0  0  0  0  0  0  0  0  0  0
   15.0806   -8.4930  -10.3669 N   0  0  0  0  0  0  0  0  0  0  0  0
   16.0138   -7.4558  -10.7432 C   0  0  0  0  0  0  0  0  0  0  0  0
   17.3222   -7.9218  -11.1902 C   0  0  0  0  0  0  0  0  0  0  0  0
   17.9506   -8.7572  -10.4840 O   0  0  0  0  0  0  0  0  0  0  0  0
   20.3218   -9.4529  -14.3985 O   0  0  0  0  0  0  0  0  0  0  0  0
   19.1018   -8.9251  -13.9711 C   0  0  0  0  0  0  0  0  0  0  0  0
   19.2744   -8.0285  -12.7680 C   0  0  2  0  0  0  0  0  0  0  0  0
   17.9565   -7.4993  -12.3772 N   0  0  0  0  0  0  0  0  0  0  0  0
   20.2158   -6.9151  -13.0407 C   0  0  0  0  0  0  0  0  0  0  0  0
   19.8622   -5.7823  -13.4544 O   0  0  0  0  0  0  0  0  0  0  0  0
   21.5666   -7.1390  -12.8260 O   0  0  0  0  0  0  0  0  0  0  0  0
  2  3  1  0
  2  1  1  0
  3  4  1  1
  5  7  1  0
  5  3  1  0
  6  5  2  0
  8  9  1  0
  8  7  1  0
  9 10  2  0
 11 12  1  0
 13 12  1  6
 14 13  1  0
 14  9  1  0
 15 13  1  0
 15 17  1  0
 16 15  2  0
M  END
$$$$
