SGS.pdb
     RDKit          3D

 17 16  0  0  1  0  0  0  0  0999 V2000
   20.8270  -12.2826  -18.1558 O   0  0  0  0  0  0  0  0  0  0  0  0
   20.2755  -11.4014  -17.2097 C   0  0  0  0  0  0  0  0  0  0  0  0
   21.3355  -10.3694  -16.9144 C   0  0  2  0  0  0  0  0  0  0  0  0
   22.4582  -11.0350  -16.3293 N   0  0  0  0  0  0  0  0  0  0  0  0
   20.8280   -9.2445  -16.0965 C   0  0  0  0  0  0  0  0  0  0  0  0
   19.8919   -8.5386  -16.5469 O   0  0  0  0  0  0  0  0  0  0  0  0
   21.3489   -8.9170  -14.8153 N   0  0  0  0  0  0  0  0  0  0  0  0
   20.9662   -7.7525  -14.0500 C   0  0  0  0  0  0  0  0  0  0  0  0
   21.4811   -6.4802  -14.5446 C   0  0  0  0  0  0  0  0  0  0  0  0
   22.4858   -6.4794  -15.3076 O   0  0  0  0  0  0  0  0  0  0  0  0
   19.5419   -3.8284  -16.2574 O   0  0  0  0  0  0  0  0  0  0  0  0
   20.3123   -3.1428  -15.3161 C   0  0  0  0  0  0  0  0  0  0  0  0
   21.4662   -3.9833  -14.8231 C   0  0  2  0  0  0  0  0  0  0  0  0
   20.9324   -5.2201  -14.2271 N   0  0  0  0  0  0  0  0  0  0  0  0
   22.2976   -3.2531  -13.8351 C   0  0  0  0  0  0  0  0  0  0  0  0
   22.3503   -3.5411  -12.6129 O   0  0  0  0  0  0  0  0  0  0  0  0
   23.0617   -2.1895  -14.2885 O   0  0  0  0  0  0  0  0  0  0  0  0
  2  3  1  0
  2  1  1  0
  3  4  1  1
  5  7  1  0
  5  3  1  0
  6  5  2  0
  8  9  1  0
  8  7  1  0
  9 10  2  0
 11 12  1  0
 13 12  1  1
 14 13  1  0
 14  9  1  0
 15 13  1  0
 15 17  1  0
 16 15  2  0
M  END
$$$$
