SGS.pdb
     RDKit          3D

 17 16  0  0  1  0  0  0  0  0999 V2000
   16.1375  -13.8946  -16.1346 O   0  0  0  0  0  0  0  0  0  0  0  0
   16.8636  -12.8313  -16.6986 C   0  0  0  0  0  0  0  0  0  0  0  0
   18.1803  -12.7731  -15.9647 C   0  0  2  0  0  0  0  0  0  0  0  0
   17.9100  -12.7492  -14.5604 N   0  0  0  0  0  0  0  0  0  0  0  0
   19.0391  -11.6550  -16.4165 C   0  0  0  0  0  0  0  0  0  0  0  0
   19.4751  -11.6601  -17.5944 O   0  0  0  0  0  0  0  0  0  0  0  0
   19.4006  -10.5643  -15.5798 N   0  0  0  0  0  0  0  0  0  0  0  0
   20.2956   -9.4979  -15.9671 C   0  0  0  0  0  0  0  0  0  0  0  0
   20.3646   -8.3707  -15.0433 C   0  0  0  0  0  0  0  0  0  0  0  0
   19.5531   -8.3167  -14.0789 O   0  0  0  0  0  0  0  0  0  0  0  0
   22.6653   -4.3989  -13.3789 O   0  0  0  0  0  0  0  0  0  0  0  0
   22.6117   -5.4801  -14.2608 C   0  0  0  0  0  0  0  0  0  0  0  0
   21.2854   -6.1981  -14.1808 C   0  0  2  0  0  0  0  0  0  0  0  0
   21.2879   -7.3094  -15.1477 N   0  0  0  0  0  0  0  0  0  0  0  0
   20.1473   -5.2853  -14.4487 C   0  0  0  0  0  0  0  0  0  0  0  0
   19.7473   -4.9817  -15.6008 O   0  0  0  0  0  0  0  0  0  0  0  0
   19.4861   -4.7349  -13.3622 O   0  0  0  0  0  0  0  0  0  0  0  0
  2  3  1  0
  2  1  1  0
  3  4  1  1
  5  7  1  0
  5  3  1  0
  6  5  2  0
  8  9  1  0
  8  7  1  0
  9 10  2  0
 11 12  1  0
 13 12  1  6
 14 13  1  0
 14  9  1  0
 15 13  1  0
 15 17  1  0
 16 15  2  0
M  END
$$$$
