SGS.pdb
     RDKit          3D

 17 16  0  0  1  0  0  0  0  0999 V2000
   20.6021  -12.0781  -18.8403 O   0  0  0  0  0  0  0  0  0  0  0  0
   20.1593  -11.0251  -18.0211 C   0  0  0  0  0  0  0  0  0  0  0  0
   20.5762  -11.3715  -16.6132 C   0  0  2  0  0  0  0  0  0  0  0  0
   19.8617  -12.5429  -16.2096 N   0  0  0  0  0  0  0  0  0  0  0  0
   20.4221  -10.2371  -15.6745 C   0  0  0  0  0  0  0  0  0  0  0  0
   19.2752   -9.9496  -15.2505 O   0  0  0  0  0  0  0  0  0  0  0  0
   21.5139   -9.4473  -15.2224 N   0  0  0  0  0  0  0  0  0  0  0  0
   21.3876   -8.2936  -14.3615 C   0  0  0  0  0  0  0  0  0  0  0  0
   20.9860   -7.0575  -15.0245 C   0  0  0  0  0  0  0  0  0  0  0  0
   21.1338   -6.9546  -16.2731 O   0  0  0  0  0  0  0  0  0  0  0  0
   18.2466   -3.0832  -15.0835 O   0  0  0  0  0  0  0  0  0  0  0  0
   18.6628   -4.2905  -14.5188 C   0  0  0  0  0  0  0  0  0  0  0  0
   19.9683   -4.7623  -15.1141 C   0  0  2  0  0  0  0  0  0  0  0  0
   20.4345   -5.9404  -14.3629 N   0  0  0  0  0  0  0  0  0  0  0  0
   21.0005   -3.6972  -15.0934 C   0  0  0  0  0  0  0  0  0  0  0  0
   21.9186   -3.6261  -14.2380 O   0  0  0  0  0  0  0  0  0  0  0  0
   20.9482   -2.7223  -16.0771 O   0  0  0  0  0  0  0  0  0  0  0  0
  2  3  1  0
  2  1  1  0
  3  4  1  1
  5  7  1  0
  5  3  1  0
  6  5  2  0
  8  9  1  0
  8  7  1  0
  9 10  2  0
 11 12  1  0
 13 12  1  1
 14 13  1  0
 14  9  1  0
 15 13  1  0
 15 17  1  0
 16 15  2  0
M  END
$$$$
