SGS.pdb
     RDKit          3D

 17 16  0  0  1  0  0  0  0  0999 V2000
   16.8564  -12.0288  -18.3022 O   0  0  0  0  0  0  0  0  0  0  0  0
   17.1404  -11.5451  -17.0134 C   0  0  0  0  0  0  0  0  0  0  0  0
   18.6240  -11.7228  -16.8049 C   0  0  2  0  0  0  0  0  0  0  0  0
   18.8841  -13.1141  -16.5995 N   0  0  0  0  0  0  0  0  0  0  0  0
   19.1585  -10.8600  -15.7271 C   0  0  0  0  0  0  0  0  0  0  0  0
   19.1442  -11.2840  -14.5448 O   0  0  0  0  0  0  0  0  0  0  0  0
   19.6928   -9.5638  -15.9608 N   0  0  0  0  0  0  0  0  0  0  0  0
   20.1047   -8.6492  -14.9206 C   0  0  0  0  0  0  0  0  0  0  0  0
   20.6679   -7.3855  -15.3839 C   0  0  0  0  0  0  0  0  0  0  0  0
   21.0823   -7.2969  -16.5721 O   0  0  0  0  0  0  0  0  0  0  0  0
   19.1052   -4.1916  -15.5700 O   0  0  0  0  0  0  0  0  0  0  0  0
   20.3190   -3.8766  -14.9558 C   0  0  0  0  0  0  0  0  0  0  0  0
   21.3377   -4.9763  -15.1401 C   0  0  2  0  0  0  0  0  0  0  0  0
   20.7909   -6.2276  -14.5876 N   0  0  0  0  0  0  0  0  0  0  0  0
   22.6287   -4.6468  -14.4881 C   0  0  0  0  0  0  0  0  0  0  0  0
   22.9570   -5.0424  -13.3412 O   0  0  0  0  0  0  0  0  0  0  0  0
   23.5261   -3.8550  -15.1870 O   0  0  0  0  0  0  0  0  0  0  0  0
  2  3  1  0
  2  1  1  0
  3  4  1  1
  5  7  1  0
  5  3  1  0
  6  5  2  0
  8  9  1  0
  8  7  1  0
  9 10  2  0
 11 12  1  0
 13 12  1  1
 14 13  1  0
 14  9  1  0
 15 13  1  0
 15 17  1  0
 16 15  2  0
M  END
$$$$
