CTI.pdb
     RDKit          3D

 22 21  0  0  1  0  0  0  0  0999 V2000
   12.3793  -16.7890   19.5049 N   0  0  0  0  0  0  0  0  0  0  0  0
   11.3833  -17.2506   20.4143 C   0  0  1  0  0  0  0  0  0  0  0  0
   12.0126  -18.2452   21.3604 C   0  0  0  0  0  0  0  0  0  0  0  0
   13.5161  -18.9870   20.6979 S   0  0  0  0  0  0  0  0  0  0  0  0
   10.6479  -16.1589   21.1012 C   0  0  0  0  0  0  0  0  0  0  0  0
   11.1563  -15.0086   21.2518 O   0  0  0  0  0  0  0  0  0  0  0  0
    7.2867  -14.5739   20.2256 C   0  0  0  0  0  0  0  0  0  0  0  0
    7.2265  -15.2151   21.5942 C   0  0  1  0  0  0  0  0  0  0  0  0
    6.4189  -16.3184   21.6191 O   0  0  0  0  0  0  0  0  0  0  0  0
    8.5165  -15.3905   22.2763 C   0  0  2  0  0  0  0  0  0  0  0  0
    9.3484  -16.3899   21.6037 N   0  0  0  0  0  0  0  0  0  0  0  0
    8.5541  -15.5203   23.7266 C   0  0  0  0  0  0  0  0  0  0  0  0
    9.0847  -16.5644   24.2192 O   0  0  0  0  0  0  0  0  0  0  0  0
    5.8140  -11.8042   27.2092 C   0  0  0  0  0  0  0  0  0  0  0  0
    6.1781  -13.0331   26.4074 C   0  0  0  0  0  0  0  0  0  0  0  0
    7.5833  -13.4298   26.7440 C   0  0  2  0  0  0  0  0  0  0  0  0
    8.4942  -12.2736   26.3928 C   0  0  0  0  0  0  0  0  0  0  0  0
    8.0169  -14.7023   26.0505 C   0  0  2  0  0  0  0  0  0  0  0  0
    8.0361  -14.5511   24.6068 N   0  0  0  0  0  0  0  0  0  0  0  0
    7.1492  -15.8355   26.4646 C   0  0  0  0  0  0  0  0  0  0  0  0
    6.2221  -16.2701   25.7189 O   0  0  0  0  0  0  0  0  0  0  0  0
    7.2992  -16.4816   27.6822 O   0  0  0  0  0  0  0  0  0  0  0  0
  2  1  1  1
  2  5  1  0
  3  2  1  0
  4  3  1  0
  5 11  1  0
  5  6  2  0
  8  7  1  6
  8 10  1  0
  8  9  1  0
 10 12  1  0
 10 11  1  6
 12 13  2  0
 14 15  1  0
 16 18  1  0
 16 15  1  0
 16 17  1  6
 18 20  1  0
 19 12  1  0
 18 19  1  6
 20 22  1  0
 21 20  2  0
M  END
$$$$
