CTI.pdb
     RDKit          3D

 22 21  0  0  1  0  0  0  0  0999 V2000
    8.1358  -14.9471   17.1396 N   0  0  0  0  0  0  0  0  0  0  0  0
    8.6476  -14.4234   18.3626 C   0  0  1  0  0  0  0  0  0  0  0  0
    8.5615  -12.9164   18.3198 C   0  0  0  0  0  0  0  0  0  0  0  0
    9.1587  -12.1379   19.8321 S   0  0  0  0  0  0  0  0  0  0  0  0
    8.0309  -15.0206   19.5739 C   0  0  0  0  0  0  0  0  0  0  0  0
    6.7742  -15.1188   19.6991 O   0  0  0  0  0  0  0  0  0  0  0  0
    7.8788  -18.3021   20.8275 C   0  0  0  0  0  0  0  0  0  0  0  0
    8.5455  -17.5146   21.9334 C   0  0  1  0  0  0  0  0  0  0  0  0
    9.8345  -17.9140   22.1553 O   0  0  0  0  0  0  0  0  0  0  0  0
    8.3609  -16.0575   21.8827 C   0  0  2  0  0  0  0  0  0  0  0  0
    8.8495  -15.4975   20.6214 N   0  0  0  0  0  0  0  0  0  0  0  0
    8.7294  -15.2430   23.0327 C   0  0  0  0  0  0  0  0  0  0  0  0
    9.8542  -14.6525   23.0105 O   0  0  0  0  0  0  0  0  0  0  0  0
    6.2992  -11.4648   27.0524 C   0  0  0  0  0  0  0  0  0  0  0  0
    7.4553  -12.4114   26.8225 C   0  0  0  0  0  0  0  0  0  0  0  0
    7.0981  -13.3479   25.7088 C   0  0  2  0  0  0  0  0  0  0  0  0
    5.9042  -14.1669   26.1491 C   0  0  0  0  0  0  0  0  0  0  0  0
    8.2510  -14.2349   25.2940 C   0  0  2  0  0  0  0  0  0  0  0  0
    7.9055  -15.0758   24.1621 N   0  0  0  0  0  0  0  0  0  0  0  0
    8.7175  -15.0461   26.4485 C   0  0  0  0  0  0  0  0  0  0  0  0
    9.2498  -14.5107   27.4655 O   0  0  0  0  0  0  0  0  0  0  0  0
    8.6000  -16.4273   26.4836 O   0  0  0  0  0  0  0  0  0  0  0  0
  2  1  1  6
  2  5  1  0
  3  2  1  0
  4  3  1  0
  5 11  1  0
  5  6  2  0
  8  7  1  6
  8 10  1  0
  8  9  1  0
 10 12  1  0
 10 11  1  6
 12 13  2  0
 14 15  1  0
 16 18  1  0
 16 15  1  0
 16 17  1  1
 18 20  1  0
 19 12  1  0
 18 19  1  6
 20 22  1  0
 21 20  2  0
M  END
$$$$
