CTI.pdb
     RDKit          3D

 22 21  0  0  1  0  0  0  0  0999 V2000
    4.9622  -19.5620   21.0463 N   0  0  0  0  0  0  0  0  0  0  0  0
    5.2569  -18.3801   21.7866 C   0  0  1  0  0  0  0  0  0  0  0  0
    4.2909  -18.2773   22.9429 C   0  0  0  0  0  0  0  0  0  0  0  0
    2.5713  -18.4703   22.4376 S   0  0  0  0  0  0  0  0  0  0  0  0
    6.6813  -18.2658   22.1893 C   0  0  0  0  0  0  0  0  0  0  0  0
    7.2942  -19.2270   22.7416 O   0  0  0  0  0  0  0  0  0  0  0  0
    9.5251  -17.9404   20.1723 C   0  0  0  0  0  0  0  0  0  0  0  0
    9.6470  -16.7736   21.1271 C   0  0  1  0  0  0  0  0  0  0  0  0
    9.6452  -15.5680   20.4816 O   0  0  0  0  0  0  0  0  0  0  0  0
    8.7859  -16.8273   22.3169 C   0  0  2  0  0  0  0  0  0  0  0  0
    7.3867  -17.0644   21.9573 N   0  0  0  0  0  0  0  0  0  0  0  0
    8.9296  -15.8185   23.3577 C   0  0  0  0  0  0  0  0  0  0  0  0
    8.9923  -14.5999   23.0036 O   0  0  0  0  0  0  0  0  0  0  0  0
    7.6044  -12.3471   27.5271 C   0  0  0  0  0  0  0  0  0  0  0  0
    8.7690  -13.2537   27.1996 C   0  0  0  0  0  0  0  0  0  0  0  0
    8.3429  -14.2224   26.1389 C   0  0  2  0  0  0  0  0  0  0  0  0
    7.1222  -14.9619   26.6417 C   0  0  0  0  0  0  0  0  0  0  0  0
    9.4432  -15.1819   25.7429 C   0  0  2  0  0  0  0  0  0  0  0  0
    9.0004  -16.1234   24.7304 N   0  0  0  0  0  0  0  0  0  0  0  0
    9.9696  -15.8845   26.9420 C   0  0  0  0  0  0  0  0  0  0  0  0
    9.7790  -17.1234   27.1239 O   0  0  0  0  0  0  0  0  0  0  0  0
   10.6956  -15.2331   27.9275 O   0  0  0  0  0  0  0  0  0  0  0  0
  2  1  1  1
  2  5  1  0
  3  2  1  0
  4  3  1  0
  5 11  1  0
  5  6  2  0
  8  7  1  6
  8 10  1  0
  8  9  1  0
 10 12  1  0
 10 11  1  6
 12 13  2  0
 14 15  1  0
 16 18  1  0
 16 15  1  0
 16 17  1  1
 18 20  1  0
 19 12  1  0
 18 19  1  6
 20 22  1  0
 21 20  2  0
M  END
$$$$
