CTI.pdb
     RDKit          3D

 22 21  0  0  1  0  0  0  0  0999 V2000
    8.4330  -15.3947   17.7010 N   0  0  0  0  0  0  0  0  0  0  0  0
    8.4546  -14.6738   18.9305 C   0  0  1  0  0  0  0  0  0  0  0  0
    7.7340  -13.3610   18.7370 C   0  0  0  0  0  0  0  0  0  0  0  0
    8.6892  -12.1734   17.7743 S   0  0  0  0  0  0  0  0  0  0  0  0
    7.9630  -15.4570   20.0921 C   0  0  0  0  0  0  0  0  0  0  0  0
    7.1103  -16.3835   19.9548 O   0  0  0  0  0  0  0  0  0  0  0  0
    7.6234  -17.9294   21.0997 C   0  0  0  0  0  0  0  0  0  0  0  0
    8.2829  -17.3969   22.3524 C   0  0  1  0  0  0  0  0  0  0  0  0
    9.5560  -17.8693   22.5138 O   0  0  0  0  0  0  0  0  0  0  0  0
    8.1353  -15.9540   22.5897 C   0  0  2  0  0  0  0  0  0  0  0  0
    8.4478  -15.1772   21.3888 N   0  0  0  0  0  0  0  0  0  0  0  0
    8.6936  -15.3605   23.7971 C   0  0  0  0  0  0  0  0  0  0  0  0
    9.9071  -14.9851   23.7719 O   0  0  0  0  0  0  0  0  0  0  0  0
    5.6772  -11.9248   26.4323 C   0  0  0  0  0  0  0  0  0  0  0  0
    6.6849  -12.8076   25.7318 C   0  0  0  0  0  0  0  0  0  0  0  0
    7.4654  -13.5623   26.7645 C   0  0  2  0  0  0  0  0  0  0  0  0
    8.1262  -12.5559   27.6813 C   0  0  0  0  0  0  0  0  0  0  0  0
    8.4813  -14.5060   26.1599 C   0  0  2  0  0  0  0  0  0  0  0  0
    7.9597  -15.1807   24.9851 N   0  0  0  0  0  0  0  0  0  0  0  0
    8.9499  -15.4799   27.1800 C   0  0  0  0  0  0  0  0  0  0  0  0
    9.6295  -15.1152   28.1847 O   0  0  0  0  0  0  0  0  0  0  0  0
    8.6746  -16.8362   27.0959 O   0  0  0  0  0  0  0  0  0  0  0  0
  2  1  1  6
  2  5  1  0
  3  2  1  0
  4  3  1  0
  5 11  1  0
  5  6  2  0
  8  7  1  6
  8 10  1  0
  8  9  1  0
 10 12  1  0
 10 11  1  6
 12 13  2  0
 14 15  1  0
 16 18  1  0
 16 15  1  0
 16 17  1  1
 18 20  1  0
 19 12  1  0
 18 19  1  6
 20 22  1  0
 21 20  2  0
M  END
$$$$
