CTI.pdb
     RDKit          3D

 22 21  0  0  1  0  0  0  0  0999 V2000
    8.2162  -15.3441   17.1240 N   0  0  0  0  0  0  0  0  0  0  0  0
    8.5430  -14.6378   18.3183 C   0  0  1  0  0  0  0  0  0  0  0  0
    8.3579  -13.1590   18.0745 C   0  0  0  0  0  0  0  0  0  0  0  0
    8.6883  -12.1614   19.5392 S   0  0  0  0  0  0  0  0  0  0  0  0
    7.8311  -15.1362   19.5221 C   0  0  0  0  0  0  0  0  0  0  0  0
    6.5951  -15.4121   19.4956 O   0  0  0  0  0  0  0  0  0  0  0  0
    6.9369  -17.8118   20.6749 C   0  0  0  0  0  0  0  0  0  0  0  0
    7.7947  -17.3481   21.8311 C   0  0  1  0  0  0  0  0  0  0  0  0
    8.9510  -18.0692   21.9459 O   0  0  0  0  0  0  0  0  0  0  0  0
    7.9702  -15.8942   21.9553 C   0  0  2  0  0  0  0  0  0  0  0  0
    8.5332  -15.3147   20.7345 N   0  0  0  0  0  0  0  0  0  0  0  0
    8.5695  -15.3402   23.1618 C   0  0  0  0  0  0  0  0  0  0  0  0
    9.7904  -14.9915   23.1162 O   0  0  0  0  0  0  0  0  0  0  0  0
    5.7743  -12.0686   26.4319 C   0  0  0  0  0  0  0  0  0  0  0  0
    6.8135  -12.7542   25.5741 C   0  0  0  0  0  0  0  0  0  0  0  0
    7.4809  -13.8221   26.3859 C   0  0  2  0  0  0  0  0  0  0  0  0
    8.1516  -13.1610   27.5704 C   0  0  0  0  0  0  0  0  0  0  0  0
    8.4663  -14.6417   25.5825 C   0  0  2  0  0  0  0  0  0  0  0  0
    7.8674  -15.1705   24.3703 N   0  0  0  0  0  0  0  0  0  0  0  0
    9.0379  -15.7269   26.4217 C   0  0  0  0  0  0  0  0  0  0  0  0
    8.5172  -16.8809   26.4616 O   0  0  0  0  0  0  0  0  0  0  0  0
   10.1667  -15.5451   27.2060 O   0  0  0  0  0  0  0  0  0  0  0  0
  2  1  1  6
  2  5  1  0
  3  2  1  0
  4  3  1  0
  5 11  1  0
  5  6  2  0
  8  7  1  6
  8 10  1  0
  8  9  1  0
 10 12  1  0
 10 11  1  6
 12 13  2  0
 14 15  1  0
 16 18  1  0
 16 15  1  0
 16 17  1  1
 18 20  1  0
 19 12  1  0
 18 19  1  6
 20 22  1  0
 21 20  2  0
M  END
$$$$
