CTI.pdb
     RDKit          3D

 22 21  0  0  1  0  0  0  0  0999 V2000
    9.7888  -17.3226   17.8647 N   0  0  0  0  0  0  0  0  0  0  0  0
   10.0247  -17.4355   19.2660 C   0  0  1  0  0  0  0  0  0  0  0  0
   11.5031  -17.2690   19.5250 C   0  0  0  0  0  0  0  0  0  0  0  0
   12.1791  -18.5645   20.5806 S   0  0  0  0  0  0  0  0  0  0  0  0
    9.1718  -16.5424   20.0903 C   0  0  0  0  0  0  0  0  0  0  0  0
    8.9149  -15.3546   19.7330 O   0  0  0  0  0  0  0  0  0  0  0  0
    5.6616  -16.9889   20.8490 C   0  0  0  0  0  0  0  0  0  0  0  0
    6.3667  -16.8830   22.1829 C   0  0  1  0  0  0  0  0  0  0  0  0
    6.2984  -18.0432   22.9036 O   0  0  0  0  0  0  0  0  0  0  0  0
    7.6985  -16.2620   22.1555 C   0  0  2  0  0  0  0  0  0  0  0  0
    8.6237  -17.0120   21.3043 N   0  0  0  0  0  0  0  0  0  0  0  0
    8.3170  -15.8257   23.4000 C   0  0  0  0  0  0  0  0  0  0  0  0
    9.4432  -16.3232   23.7137 O   0  0  0  0  0  0  0  0  0  0  0  0
    5.7686  -12.1700   27.1691 C   0  0  0  0  0  0  0  0  0  0  0  0
    6.2992  -13.4379   26.5394 C   0  0  0  0  0  0  0  0  0  0  0  0
    7.6889  -13.1838   26.0403 C   0  0  2  0  0  0  0  0  0  0  0  0
    7.6189  -12.0961   24.9905 C   0  0  0  0  0  0  0  0  0  0  0  0
    8.3559  -14.4289   25.4990 C   0  0  2  0  0  0  0  0  0  0  0  0
    7.7338  -14.8835   24.2687 N   0  0  0  0  0  0  0  0  0  0  0  0
    8.3620  -15.4991   26.5301 C   0  0  0  0  0  0  0  0  0  0  0  0
    7.6235  -16.5233   26.4298 O   0  0  0  0  0  0  0  0  0  0  0  0
    9.1693  -15.4433   27.6560 O   0  0  0  0  0  0  0  0  0  0  0  0
  2  1  1  6
  2  5  1  0
  3  2  1  0
  4  3  1  0
  5 11  1  0
  5  6  2  0
  8  7  1  6
  8 10  1  0
  8  9  1  0
 10 12  1  0
 10 11  1  1
 12 13  2  0
 14 15  1  0
 16 18  1  0
 16 15  1  0
 16 17  1  6
 18 20  1  0
 19 12  1  0
 18 19  1  6
 20 22  1  0
 21 20  2  0
M  END
$$$$
