CTI.pdb
     RDKit          3D

 22 21  0  0  1  0  0  0  0  0999 V2000
    8.0395  -15.5044   17.6935 N   0  0  0  0  0  0  0  0  0  0  0  0
    8.3644  -14.7439   18.8546 C   0  0  1  0  0  0  0  0  0  0  0  0
    7.8880  -13.3249   18.6551 C   0  0  0  0  0  0  0  0  0  0  0  0
    8.8442  -12.4333   17.4140 S   0  0  0  0  0  0  0  0  0  0  0  0
    7.8942  -15.3569   20.1224 C   0  0  0  0  0  0  0  0  0  0  0  0
    6.7432  -15.8764   20.2216 O   0  0  0  0  0  0  0  0  0  0  0  0
    7.8319  -18.2087   21.4416 C   0  0  0  0  0  0  0  0  0  0  0  0
    8.6318  -17.4600   22.4844 C   0  0  1  0  0  0  0  0  0  0  0  0
    9.9457  -17.8385   22.5060 O   0  0  0  0  0  0  0  0  0  0  0  0
    8.4169  -16.0070   22.5346 C   0  0  2  0  0  0  0  0  0  0  0  0
    8.7376  -15.3718   21.2552 N   0  0  0  0  0  0  0  0  0  0  0  0
    8.9091  -15.2438   23.6734 C   0  0  0  0  0  0  0  0  0  0  0  0
   10.0831  -14.7625   23.6074 O   0  0  0  0  0  0  0  0  0  0  0  0
    5.7634  -12.2067   27.3099 C   0  0  0  0  0  0  0  0  0  0  0  0
    6.4168  -13.4293   26.7066 C   0  0  0  0  0  0  0  0  0  0  0  0
    7.8245  -13.0856   26.3256 C   0  0  2  0  0  0  0  0  0  0  0  0
    7.7733  -12.1251   25.1574 C   0  0  0  0  0  0  0  0  0  0  0  0
    8.6596  -14.3041   26.0000 C   0  0  2  0  0  0  0  0  0  0  0  0
    8.1527  -15.0115   24.8381 N   0  0  0  0  0  0  0  0  0  0  0  0
    8.7470  -15.1992   27.1831 C   0  0  0  0  0  0  0  0  0  0  0  0
    8.2966  -16.3828   27.1562 O   0  0  0  0  0  0  0  0  0  0  0  0
    9.3219  -14.7978   28.3793 O   0  0  0  0  0  0  0  0  0  0  0  0
  2  1  1  6
  2  5  1  0
  3  2  1  0
  4  3  1  0
  5 11  1  0
  5  6  2  0
  8  7  1  6
  8 10  1  0
  8  9  1  0
 10 12  1  0
 10 11  1  6
 12 13  2  0
 14 15  1  0
 16 18  1  0
 16 15  1  0
 16 17  1  6
 18 20  1  0
 19 12  1  0
 18 19  1  6
 20 22  1  0
 21 20  2  0
M  END
$$$$
