CTI.pdb
     RDKit          3D

 22 21  0  0  1  0  0  0  0  0999 V2000
    9.5668  -16.7848   17.7253 N   0  0  0  0  0  0  0  0  0  0  0  0
    9.8888  -17.0127   19.0950 C   0  0  1  0  0  0  0  0  0  0  0  0
   11.3438  -16.6735   19.3152 C   0  0  0  0  0  0  0  0  0  0  0  0
   11.9013  -17.0358   20.9908 S   0  0  0  0  0  0  0  0  0  0  0  0
    8.9699  -16.3380   20.0462 C   0  0  0  0  0  0  0  0  0  0  0  0
    8.5030  -15.1839   19.8124 O   0  0  0  0  0  0  0  0  0  0  0  0
    5.7739  -18.0054   21.4013 C   0  0  0  0  0  0  0  0  0  0  0  0
    6.6147  -17.4930   22.5495 C   0  0  1  0  0  0  0  0  0  0  0  0
    7.0858  -18.5022   23.3430 O   0  0  0  0  0  0  0  0  0  0  0  0
    7.6152  -16.4731   22.2051 C   0  0  2  0  0  0  0  0  0  0  0  0
    8.5949  -16.9841   21.2448 N   0  0  0  0  0  0  0  0  0  0  0  0
    8.2318  -15.6817   23.2611 C   0  0  0  0  0  0  0  0  0  0  0  0
    9.4925  -15.7523   23.4016 O   0  0  0  0  0  0  0  0  0  0  0  0
    6.9884  -10.8918   26.9742 C   0  0  0  0  0  0  0  0  0  0  0  0
    7.8717  -12.0899   26.7095 C   0  0  0  0  0  0  0  0  0  0  0  0
    7.2351  -12.9332   25.6472 C   0  0  2  0  0  0  0  0  0  0  0  0
    5.9005  -13.4183   26.1700 C   0  0  0  0  0  0  0  0  0  0  0  0
    8.1087  -14.0891   25.2122 C   0  0  2  0  0  0  0  0  0  0  0  0
    7.5053  -14.8445   24.1293 N   0  0  0  0  0  0  0  0  0  0  0  0
    8.4217  -14.9628   26.3729 C   0  0  0  0  0  0  0  0  0  0  0  0
    9.1524  -14.5639   27.3275 O   0  0  0  0  0  0  0  0  0  0  0  0
    7.9375  -16.2575   26.4819 O   0  0  0  0  0  0  0  0  0  0  0  0
  2  1  1  6
  2  5  1  0
  3  2  1  0
  4  3  1  0
  5 11  1  0
  5  6  2  0
  8  7  1  6
  8 10  1  0
  8  9  1  0
 10 12  1  0
 10 11  1  1
 12 13  2  0
 14 15  1  0
 16 18  1  0
 16 15  1  0
 16 17  1  1
 18 20  1  0
 19 12  1  0
 18 19  1  6
 20 22  1  0
 21 20  2  0
M  END
$$$$
