CTI.pdb
     RDKit          3D

 22 21  0  0  1  0  0  0  0  0999 V2000
    4.2247  -19.4832   20.3554 N   0  0  0  0  0  0  0  0  0  0  0  0
    4.4782  -18.2586   21.0396 C   0  0  1  0  0  0  0  0  0  0  0  0
    3.2213  -17.8364   21.7622 C   0  0  0  0  0  0  0  0  0  0  0  0
    3.0942  -18.5418   23.4162 S   0  0  0  0  0  0  0  0  0  0  0  0
    5.6805  -18.2972   21.9098 C   0  0  0  0  0  0  0  0  0  0  0  0
    5.8836  -19.2500   22.7194 O   0  0  0  0  0  0  0  0  0  0  0  0
    8.8331  -19.1949   21.2932 C   0  0  0  0  0  0  0  0  0  0  0  0
    9.0017  -17.7686   21.7676 C   0  0  1  0  0  0  0  0  0  0  0  0
    9.4341  -16.9350   20.7734 O   0  0  0  0  0  0  0  0  0  0  0  0
    7.9004  -17.2288   22.5773 C   0  0  2  0  0  0  0  0  0  0  0  0
    6.6325  -17.2558   21.8460 N   0  0  0  0  0  0  0  0  0  0  0  0
    8.0894  -15.9886   23.3173 C   0  0  0  0  0  0  0  0  0  0  0  0
    8.0906  -14.8982   22.6651 O   0  0  0  0  0  0  0  0  0  0  0  0
    5.4859  -13.1344   26.5964 C   0  0  0  0  0  0  0  0  0  0  0  0
    6.5146  -13.6099   25.5958 C   0  0  0  0  0  0  0  0  0  0  0  0
    7.6766  -14.1945   26.3395 C   0  0  2  0  0  0  0  0  0  0  0  0
    8.2444  -13.1208   27.2420 C   0  0  0  0  0  0  0  0  0  0  0  0
    8.7379  -14.7595   25.4214 C   0  0  2  0  0  0  0  0  0  0  0  0
    8.2684  -15.9364   24.7129 N   0  0  0  0  0  0  0  0  0  0  0  0
    9.9795  -15.0473   26.1858 C   0  0  0  0  0  0  0  0  0  0  0  0
   10.2861  -16.2249   26.5371 O   0  0  0  0  0  0  0  0  0  0  0  0
   10.8713  -14.0532   26.5586 O   0  0  0  0  0  0  0  0  0  0  0  0
  2  1  1  1
  2  5  1  0
  3  2  1  0
  4  3  1  0
  5 11  1  0
  5  6  2  0
  8  7  1  6
  8 10  1  0
  8  9  1  0
 10 12  1  0
 10 11  1  6
 12 13  2  0
 14 15  1  0
 16 18  1  0
 16 15  1  0
 16 17  1  6
 18 20  1  0
 19 12  1  0
 18 19  1  1
 20 22  1  0
 21 20  2  0
M  END
$$$$
