CTI.pdb
     RDKit          3D

 22 21  0  0  1  0  0  0  0  0999 V2000
    7.8256  -15.1034   17.8228 N   0  0  0  0  0  0  0  0  0  0  0  0
    8.2698  -14.4966   19.0338 C   0  0  1  0  0  0  0  0  0  0  0  0
    7.8953  -13.0339   19.0104 C   0  0  0  0  0  0  0  0  0  0  0  0
    9.0844  -12.0212   18.1102 S   0  0  0  0  0  0  0  0  0  0  0  0
    7.8211  -15.2062   20.2584 C   0  0  0  0  0  0  0  0  0  0  0  0
    6.6063  -15.5166   20.4381 O   0  0  0  0  0  0  0  0  0  0  0  0
    7.8600  -18.3688   21.4264 C   0  0  0  0  0  0  0  0  0  0  0  0
    8.6230  -17.6296   22.5030 C   0  0  1  0  0  0  0  0  0  0  0  0
    9.9289  -18.0273   22.5845 O   0  0  0  0  0  0  0  0  0  0  0  0
    8.4275  -16.1735   22.5412 C   0  0  2  0  0  0  0  0  0  0  0  0
    8.7578  -15.5531   21.2569 N   0  0  0  0  0  0  0  0  0  0  0  0
    8.9289  -15.4076   23.6742 C   0  0  0  0  0  0  0  0  0  0  0  0
   10.1001  -14.9215   23.5951 O   0  0  0  0  0  0  0  0  0  0  0  0
    5.7286  -12.0692   26.4277 C   0  0  0  0  0  0  0  0  0  0  0  0
    6.8705  -12.7381   25.6967 C   0  0  0  0  0  0  0  0  0  0  0  0
    7.6059  -13.6225   26.6570 C   0  0  2  0  0  0  0  0  0  0  0  0
    8.1715  -12.7518   27.7579 C   0  0  0  0  0  0  0  0  0  0  0  0
    8.6899  -14.4404   25.9906 C   0  0  2  0  0  0  0  0  0  0  0  0
    8.1843  -15.1777   24.8469 N   0  0  0  0  0  0  0  0  0  0  0  0
    9.3313  -15.3468   26.9784 C   0  0  0  0  0  0  0  0  0  0  0  0
   10.0331  -14.8998   27.9334 O   0  0  0  0  0  0  0  0  0  0  0  0
    9.2024  -16.7260   26.9164 O   0  0  0  0  0  0  0  0  0  0  0  0
  2  1  1  6
  2  5  1  0
  3  2  1  0
  4  3  1  0
  5 11  1  0
  5  6  2  0
  8  7  1  6
  8 10  1  0
  8  9  1  0
 10 12  1  0
 10 11  1  6
 12 13  2  0
 14 15  1  0
 16 18  1  0
 16 15  1  0
 16 17  1  1
 18 20  1  0
 19 12  1  0
 18 19  1  6
 20 22  1  0
 21 20  2  0
M  END
$$$$
