CTI.pdb
     RDKit          3D

 22 21  0  0  1  0  0  0  0  0999 V2000
    7.8433  -15.2132   17.9212 N   0  0  0  0  0  0  0  0  0  0  0  0
    8.3023  -14.5851   19.1156 C   0  0  1  0  0  0  0  0  0  0  0  0
    7.8567  -13.1422   19.1080 C   0  0  0  0  0  0  0  0  0  0  0  0
    8.9657  -12.0721   18.1728 S   0  0  0  0  0  0  0  0  0  0  0  0
    7.9344  -15.3150   20.3551 C   0  0  0  0  0  0  0  0  0  0  0  0
    6.7476  -15.7020   20.5700 O   0  0  0  0  0  0  0  0  0  0  0  0
    8.3059  -18.4913   21.5267 C   0  0  0  0  0  0  0  0  0  0  0  0
    9.0121  -17.6693   22.5819 C   0  0  1  0  0  0  0  0  0  0  0  0
   10.3537  -17.9287   22.6350 O   0  0  0  0  0  0  0  0  0  0  0  0
    8.6671  -16.2411   22.6178 C   0  0  2  0  0  0  0  0  0  0  0  0
    8.9187  -15.5950   21.3285 N   0  0  0  0  0  0  0  0  0  0  0  0
    9.0975  -15.4230   23.7434 C   0  0  0  0  0  0  0  0  0  0  0  0
   10.1598  -14.7383   23.6125 O   0  0  0  0  0  0  0  0  0  0  0  0
    5.8745  -12.0874   26.0963 C   0  0  0  0  0  0  0  0  0  0  0  0
    7.0586  -12.8257   25.5147 C   0  0  0  0  0  0  0  0  0  0  0  0
    7.6854  -13.6572   26.5921 C   0  0  2  0  0  0  0  0  0  0  0  0
    8.1579  -12.7266   27.6879 C   0  0  0  0  0  0  0  0  0  0  0  0
    8.8145  -14.5254   26.0828 C   0  0  2  0  0  0  0  0  0  0  0  0
    8.3984  -15.3509   24.9635 N   0  0  0  0  0  0  0  0  0  0  0  0
    9.3678  -15.3508   27.1879 C   0  0  0  0  0  0  0  0  0  0  0  0
    9.0693  -16.5750   27.3172 O   0  0  0  0  0  0  0  0  0  0  0  0
   10.2374  -14.8366   28.1376 O   0  0  0  0  0  0  0  0  0  0  0  0
  2  1  1  6
  2  5  1  0
  3  2  1  0
  4  3  1  0
  5 11  1  0
  5  6  2  0
  8  7  1  6
  8 10  1  0
  8  9  1  0
 10 12  1  0
 10 11  1  6
 12 13  2  0
 14 15  1  0
 16 18  1  0
 16 15  1  0
 16 17  1  1
 18 20  1  0
 19 12  1  0
 18 19  1  6
 20 22  1  0
 21 20  2  0
M  END
$$$$
