CTI.pdb
     RDKit          3D

 22 21  0  0  1  0  0  0  0  0999 V2000
    8.2735  -15.3790   17.3202 N   0  0  0  0  0  0  0  0  0  0  0  0
    8.6219  -14.6625   18.5022 C   0  0  1  0  0  0  0  0  0  0  0  0
    8.4846  -13.1831   18.2321 C   0  0  0  0  0  0  0  0  0  0  0  0
    8.8114  -12.1723   19.6885 S   0  0  0  0  0  0  0  0  0  0  0  0
    7.8935  -15.1164   19.7137 C   0  0  0  0  0  0  0  0  0  0  0  0
    6.6434  -15.3202   19.6991 O   0  0  0  0  0  0  0  0  0  0  0  0
    7.2293  -17.8900   20.8571 C   0  0  0  0  0  0  0  0  0  0  0  0
    7.8813  -17.3277   22.1007 C   0  0  1  0  0  0  0  0  0  0  0  0
    9.0170  -18.0060   22.4474 O   0  0  0  0  0  0  0  0  0  0  0  0
    8.0079  -15.8644   22.1513 C   0  0  2  0  0  0  0  0  0  0  0  0
    8.5952  -15.3329   20.9202 N   0  0  0  0  0  0  0  0  0  0  0  0
    8.5476  -15.2277   23.3451 C   0  0  0  0  0  0  0  0  0  0  0  0
    9.7533  -14.8280   23.3155 O   0  0  0  0  0  0  0  0  0  0  0  0
    5.3304  -12.0943   26.3856 C   0  0  0  0  0  0  0  0  0  0  0  0
    6.4377  -12.7184   25.5672 C   0  0  0  0  0  0  0  0  0  0  0  0
    7.2438  -13.6187   26.4530 C   0  0  2  0  0  0  0  0  0  0  0  0
    7.8263  -12.7795   27.5695 C   0  0  0  0  0  0  0  0  0  0  0  0
    8.3254  -14.3654   25.7042 C   0  0  2  0  0  0  0  0  0  0  0  0
    7.8041  -15.0318   24.5245 N   0  0  0  0  0  0  0  0  0  0  0  0
    9.0098  -15.3247   26.6097 C   0  0  0  0  0  0  0  0  0  0  0  0
    8.6264  -16.5271   26.7170 O   0  0  0  0  0  0  0  0  0  0  0  0
   10.1009  -14.9660   27.3865 O   0  0  0  0  0  0  0  0  0  0  0  0
  2  1  1  6
  2  5  1  0
  3  2  1  0
  4  3  1  0
  5 11  1  0
  5  6  2  0
  8  7  1  6
  8 10  1  0
  8  9  1  0
 10 12  1  0
 10 11  1  6
 12 13  2  0
 14 15  1  0
 16 18  1  0
 16 15  1  0
 16 17  1  1
 18 20  1  0
 19 12  1  0
 18 19  1  6
 20 22  1  0
 21 20  2  0
M  END
$$$$
