CTI.pdb
     RDKit          3D

 22 21  0  0  1  0  0  0  0  0999 V2000
    7.7623  -15.4593   17.7550 N   0  0  0  0  0  0  0  0  0  0  0  0
    8.2524  -14.7458   18.8875 C   0  0  1  0  0  0  0  0  0  0  0  0
    7.7159  -13.3350   18.8427 C   0  0  0  0  0  0  0  0  0  0  0  0
    8.7731  -12.2135   17.9076 S   0  0  0  0  0  0  0  0  0  0  0  0
    8.0086  -15.4344   20.1801 C   0  0  0  0  0  0  0  0  0  0  0  0
    6.8671  -15.8923   20.4832 O   0  0  0  0  0  0  0  0  0  0  0  0
    9.1063  -18.5697   21.3373 C   0  0  0  0  0  0  0  0  0  0  0  0
    9.6233  -17.5886   22.3659 C   0  0  1  0  0  0  0  0  0  0  0  0
   10.9893  -17.5274   22.3891 O   0  0  0  0  0  0  0  0  0  0  0  0
    8.9557  -16.2797   22.3944 C   0  0  2  0  0  0  0  0  0  0  0  0
    9.0634  -15.5934   21.1058 N   0  0  0  0  0  0  0  0  0  0  0  0
    9.1726  -15.3835   23.5219 C   0  0  0  0  0  0  0  0  0  0  0  0
   10.1709  -14.5987   23.4775 O   0  0  0  0  0  0  0  0  0  0  0  0
    6.5217  -11.5876   27.2267 C   0  0  0  0  0  0  0  0  0  0  0  0
    7.6763  -12.5602   27.1452 C   0  0  0  0  0  0  0  0  0  0  0  0
    7.4234  -13.5161   26.0194 C   0  0  2  0  0  0  0  0  0  0  0  0
    6.1340  -14.2529   26.3102 C   0  0  0  0  0  0  0  0  0  0  0  0
    8.5690  -14.4784   25.7967 C   0  0  2  0  0  0  0  0  0  0  0  0
    8.3351  -15.3412   24.6529 N   0  0  0  0  0  0  0  0  0  0  0  0
    8.8232  -15.2697   27.0287 C   0  0  0  0  0  0  0  0  0  0  0  0
    8.5066  -16.4935   27.1101 O   0  0  0  0  0  0  0  0  0  0  0  0
    9.4174  -14.7224   28.1556 O   0  0  0  0  0  0  0  0  0  0  0  0
  2  1  1  6
  2  5  1  0
  3  2  1  0
  4  3  1  0
  5 11  1  0
  5  6  2  0
  8  7  1  6
  8 10  1  0
  8  9  1  0
 10 12  1  0
 10 11  1  6
 12 13  2  0
 14 15  1  0
 16 18  1  0
 16 15  1  0
 16 17  1  1
 18 20  1  0
 19 12  1  0
 18 19  1  6
 20 22  1  0
 21 20  2  0
M  END
$$$$
