CTI.pdb
     RDKit          3D

 22 21  0  0  1  0  0  0  0  0999 V2000
    7.8924  -14.9103   17.7542 N   0  0  0  0  0  0  0  0  0  0  0  0
    8.3275  -14.3931   19.0093 C   0  0  1  0  0  0  0  0  0  0  0  0
    7.7685  -13.0009   19.1813 C   0  0  0  0  0  0  0  0  0  0  0  0
    8.7301  -11.7482   18.3119 S   0  0  0  0  0  0  0  0  0  0  0  0
    8.0475  -15.2928   20.1567 C   0  0  0  0  0  0  0  0  0  0  0  0
    6.8987  -15.7926   20.3433 O   0  0  0  0  0  0  0  0  0  0  0  0
   10.8326  -17.7948   21.7541 C   0  0  0  0  0  0  0  0  0  0  0  0
    9.4326  -17.6649   22.3119 C   0  0  1  0  0  0  0  0  0  0  0  0
    9.2634  -18.3738   23.4690 O   0  0  0  0  0  0  0  0  0  0  0  0
    8.8815  -16.3029   22.3473 C   0  0  2  0  0  0  0  0  0  0  0  0
    9.0752  -15.6115   21.0716 N   0  0  0  0  0  0  0  0  0  0  0  0
    9.1527  -15.4443   23.4923 C   0  0  0  0  0  0  0  0  0  0  0  0
   10.2002  -14.7259   23.4652 O   0  0  0  0  0  0  0  0  0  0  0  0
    6.5874  -11.5565   27.1564 C   0  0  0  0  0  0  0  0  0  0  0  0
    7.7554  -12.5094   27.0408 C   0  0  0  0  0  0  0  0  0  0  0  0
    7.4292  -13.5501   26.0133 C   0  0  2  0  0  0  0  0  0  0  0  0
    6.1885  -14.2868   26.4692 C   0  0  0  0  0  0  0  0  0  0  0  0
    8.5744  -14.5052   25.7599 C   0  0  2  0  0  0  0  0  0  0  0  0
    8.3158  -15.3689   24.6220 N   0  0  0  0  0  0  0  0  0  0  0  0
    8.8659  -15.2956   26.9842 C   0  0  0  0  0  0  0  0  0  0  0  0
    8.5875  -16.5289   27.0614 O   0  0  0  0  0  0  0  0  0  0  0  0
    9.4554  -14.7370   28.1080 O   0  0  0  0  0  0  0  0  0  0  0  0
  2  1  1  6
  2  5  1  0
  3  2  1  0
  4  3  1  0
  5 11  1  0
  5  6  2  0
  8  7  1  1
  8 10  1  0
  8  9  1  0
 10 12  1  0
 10 11  1  6
 12 13  2  0
 14 15  1  0
 16 18  1  0
 16 15  1  0
 16 17  1  1
 18 20  1  0
 19 12  1  0
 18 19  1  6
 20 22  1  0
 21 20  2  0
M  END
$$$$
