CTI.pdb
     RDKit          3D

 22 21  0  0  1  0  0  0  0  0999 V2000
    7.6351  -15.1205   17.6954 N   0  0  0  0  0  0  0  0  0  0  0  0
    8.2162  -14.5619   18.8711 C   0  0  1  0  0  0  0  0  0  0  0  0
    7.9197  -13.0816   18.9037 C   0  0  0  0  0  0  0  0  0  0  0  0
    8.8329  -12.1571   17.6543 S   0  0  0  0  0  0  0  0  0  0  0  0
    7.8403  -15.2718   20.1197 C   0  0  0  0  0  0  0  0  0  0  0  0
    6.6460  -15.6273   20.3472 O   0  0  0  0  0  0  0  0  0  0  0  0
    8.9635  -18.2939   23.7448 C   0  0  0  0  0  0  0  0  0  0  0  0
    9.0762  -17.5824   22.4148 C   0  0  1  0  0  0  0  0  0  0  0  0
    8.6651  -18.3617   21.3690 O   0  0  0  0  0  0  0  0  0  0  0  0
    8.5689  -16.2034   22.3815 C   0  0  2  0  0  0  0  0  0  0  0  0
    8.8251  -15.5678   21.0879 N   0  0  0  0  0  0  0  0  0  0  0  0
    8.8320  -15.3105   23.5019 C   0  0  0  0  0  0  0  0  0  0  0  0
    9.8874  -14.6040   23.4674 O   0  0  0  0  0  0  0  0  0  0  0  0
    7.2284  -11.1861   26.9383 C   0  0  0  0  0  0  0  0  0  0  0  0
    7.4812  -12.6170   27.3556 C   0  0  0  0  0  0  0  0  0  0  0  0
    7.1409  -13.5210   26.2102 C   0  0  2  0  0  0  0  0  0  0  0  0
    5.9358  -14.3463   26.6058 C   0  0  0  0  0  0  0  0  0  0  0  0
    8.2977  -14.4014   25.7924 C   0  0  2  0  0  0  0  0  0  0  0  0
    7.9791  -15.1896   24.6156 N   0  0  0  0  0  0  0  0  0  0  0  0
    8.7215  -15.2660   26.9244 C   0  0  0  0  0  0  0  0  0  0  0  0
    9.2320  -14.7805   27.9770 O   0  0  0  0  0  0  0  0  0  0  0  0
    8.5855  -16.6457   26.8988 O   0  0  0  0  0  0  0  0  0  0  0  0
  2  1  1  6
  2  5  1  0
  3  2  1  0
  4  3  1  0
  5 11  1  0
  5  6  2  0
  8  7  1  1
  8 10  1  0
  8  9  1  0
 10 12  1  0
 10 11  1  6
 12 13  2  0
 14 15  1  0
 16 18  1  0
 16 15  1  0
 16 17  1  1
 18 20  1  0
 19 12  1  0
 18 19  1  6
 20 22  1  0
 21 20  2  0
M  END
$$$$
