CTI.pdb
     RDKit          3D

 22 21  0  0  1  0  0  0  0  0999 V2000
    8.1113  -15.1228   17.5445 N   0  0  0  0  0  0  0  0  0  0  0  0
    8.4562  -14.4508   18.7534 C   0  0  1  0  0  0  0  0  0  0  0  0
    8.0248  -13.0075   18.6473 C   0  0  0  0  0  0  0  0  0  0  0  0
    9.2797  -11.8566   19.2390 S   0  0  0  0  0  0  0  0  0  0  0  0
    7.9632  -15.1308   19.9777 C   0  0  0  0  0  0  0  0  0  0  0  0
    6.7426  -15.4378   20.1205 O   0  0  0  0  0  0  0  0  0  0  0  0
    8.0296  -18.2920   21.0891 C   0  0  0  0  0  0  0  0  0  0  0  0
    8.7296  -17.5593   22.2120 C   0  0  1  0  0  0  0  0  0  0  0  0
   10.0407  -17.9273   22.3385 O   0  0  0  0  0  0  0  0  0  0  0  0
    8.4966  -16.1096   22.2738 C   0  0  2  0  0  0  0  0  0  0  0  0
    8.8628  -15.4525   21.0179 N   0  0  0  0  0  0  0  0  0  0  0  0
    8.9326  -15.3578   23.4427 C   0  0  0  0  0  0  0  0  0  0  0  0
   10.0131  -14.6948   23.3574 O   0  0  0  0  0  0  0  0  0  0  0  0
    5.7728  -12.2348   26.3443 C   0  0  0  0  0  0  0  0  0  0  0  0
    6.9214  -12.8874   25.6091 C   0  0  0  0  0  0  0  0  0  0  0  0
    7.5873  -13.8669   26.5268 C   0  0  2  0  0  0  0  0  0  0  0  0
    8.1071  -13.1065   27.7274 C   0  0  0  0  0  0  0  0  0  0  0  0
    8.6914  -14.6490   25.8506 C   0  0  2  0  0  0  0  0  0  0  0  0
    8.2200  -15.3270   24.6566 N   0  0  0  0  0  0  0  0  0  0  0  0
    9.3063  -15.6045   26.8085 C   0  0  0  0  0  0  0  0  0  0  0  0
   10.0084  -15.2077   27.7852 O   0  0  0  0  0  0  0  0  0  0  0  0
    9.1510  -16.9775   26.6934 O   0  0  0  0  0  0  0  0  0  0  0  0
  2  1  1  6
  2  5  1  0
  3  2  1  0
  4  3  1  0
  5 11  1  0
  5  6  2  0
  8  7  1  6
  8 10  1  0
  8  9  1  0
 10 12  1  0
 10 11  1  6
 12 13  2  0
 14 15  1  0
 16 18  1  0
 16 15  1  0
 16 17  1  1
 18 20  1  0
 19 12  1  0
 18 19  1  6
 20 22  1  0
 21 20  2  0
M  END
$$$$
