ADG.pdb
     RDKit          3D

 18 17  0  0  1  0  0  0  0  0999 V2000
   16.0093  -10.2412  -16.4306 C   0  0  0  0  0  0  0  0  0  0  0  0
   16.1141   -9.5910  -15.0661 C   0  0  2  0  0  0  0  0  0  0  0  0
   15.3844   -8.3433  -15.0635 N   0  0  0  0  0  0  0  0  0  0  0  0
   17.5553   -9.3273  -14.8513 C   0  0  0  0  0  0  0  0  0  0  0  0
   17.9847   -9.1875  -13.6909 O   0  0  0  0  0  0  0  0  0  0  0  0
   18.4518   -9.2296  -15.9396 N   0  0  0  0  0  0  0  0  0  0  0  0
   19.8525   -8.9852  -15.6889 C   0  0  1  0  0  0  0  0  0  0  0  0
   20.6269   -9.6859  -16.7889 C   0  0  0  0  0  0  0  0  0  0  0  0
   20.6272  -11.1514  -16.5307 C   0  0  0  0  0  0  0  0  0  0  0  0
   21.2004  -11.6617  -15.5430 O   0  0  0  0  0  0  0  0  0  0  0  0
   20.1733   -7.5638  -15.6210 C   0  0  0  0  0  0  0  0  0  0  0  0
   19.7782   -6.7617  -16.5125 O   0  0  0  0  0  0  0  0  0  0  0  0
   19.9261  -11.9073  -17.4949 O   0  0  0  0  0  0  0  0  0  0  0  0
   20.9466   -6.9922  -14.5589 N   0  0  0  0  0  0  0  0  0  0  0  0
   21.1266   -5.5645  -14.4863 C   0  0  0  0  0  0  0  0  0  0  0  0
   21.9752   -5.1925  -13.3520 C   0  0  0  0  0  0  0  0  0  0  0  0
   22.3761   -6.0241  -12.4734 O   0  0  0  0  0  0  0  0  0  0  0  0
   22.4033   -3.8762  -13.1625 O   0  0  0  0  0  0  0  0  0  0  0  0
  2  1  1  6
  3  2  1  0
  4  2  1  0
  4  5  2  0
  6  4  1  0
  7  6  1  0
  7  8  1  6
  9 10  2  0
  9  8  1  0
 11  7  1  0
 12 11  2  0
 13  9  1  0
 14 11  1  0
 15 14  1  0
 16 15  1  0
 16 18  1  0
 17 16  2  0
M  END
$$$$
