ADG.pdb
     RDKit          3D

 18 17  0  0  1  0  0  0  0  0999 V2000
   17.1526  -11.9169  -16.1078 C   0  0  0  0  0  0  0  0  0  0  0  0
   17.5647  -11.1402  -14.8740 C   0  0  2  0  0  0  0  0  0  0  0  0
   16.4512  -10.3486  -14.4020 N   0  0  0  0  0  0  0  0  0  0  0  0
   18.6651  -10.2478  -15.3043 C   0  0  0  0  0  0  0  0  0  0  0  0
   19.7530  -10.7431  -15.6530 O   0  0  0  0  0  0  0  0  0  0  0  0
   18.5035   -8.8437  -15.3247 N   0  0  0  0  0  0  0  0  0  0  0  0
   19.5667   -8.0118  -15.8369 C   0  0  1  0  0  0  0  0  0  0  0  0
   18.9987   -7.2457  -17.0163 C   0  0  0  0  0  0  0  0  0  0  0  0
   20.0893   -6.4713  -17.6686 C   0  0  0  0  0  0  0  0  0  0  0  0
   20.1797   -5.2271  -17.5783 O   0  0  0  0  0  0  0  0  0  0  0  0
   20.1198   -7.1179  -14.8255 C   0  0  0  0  0  0  0  0  0  0  0  0
   19.3678   -6.4603  -14.0533 O   0  0  0  0  0  0  0  0  0  0  0  0
   21.0061   -7.2637  -18.3926 O   0  0  0  0  0  0  0  0  0  0  0  0
   21.5282   -6.9270  -14.6447 N   0  0  0  0  0  0  0  0  0  0  0  0
   22.0112   -6.1091  -13.5612 C   0  0  0  0  0  0  0  0  0  0  0  0
   21.8140   -4.6849  -13.8413 C   0  0  0  0  0  0  0  0  0  0  0  0
   21.1625   -4.2516  -14.8473 O   0  0  0  0  0  0  0  0  0  0  0  0
   22.3402   -3.6977  -13.0046 O   0  0  0  0  0  0  0  0  0  0  0  0
  2  1  1  6
  3  2  1  0
  4  2  1  0
  4  5  2  0
  6  4  1  0
  7  6  1  0
  7  8  1  6
  9 10  2  0
  9  8  1  0
 11  7  1  0
 12 11  2  0
 13  9  1  0
 14 11  1  0
 15 14  1  0
 16 15  1  0
 16 18  1  0
 17 16  2  0
M  END
$$$$
