ADG.pdb
     RDKit          3D

 18 17  0  0  1  0  0  0  0  0999 V2000
   17.7614  -12.3321  -17.0976 C   0  0  0  0  0  0  0  0  0  0  0  0
   18.3268  -11.7980  -15.7974 C   0  0  2  0  0  0  0  0  0  0  0  0
   17.2641  -11.6472  -14.8294 N   0  0  0  0  0  0  0  0  0  0  0  0
   18.9018  -10.4718  -16.1187 C   0  0  0  0  0  0  0  0  0  0  0  0
   19.8760  -10.3987  -16.8908 O   0  0  0  0  0  0  0  0  0  0  0  0
   18.3659   -9.2876  -15.5634 N   0  0  0  0  0  0  0  0  0  0  0  0
   18.9581   -8.0135  -15.8960 C   0  0  1  0  0  0  0  0  0  0  0  0
   17.8169   -7.0335  -16.0909 C   0  0  0  0  0  0  0  0  0  0  0  0
   16.9955   -7.4632  -17.2550 C   0  0  0  0  0  0  0  0  0  0  0  0
   17.4590   -7.5442  -18.4138 O   0  0  0  0  0  0  0  0  0  0  0  0
   19.9036   -7.5507  -14.8862 C   0  0  0  0  0  0  0  0  0  0  0  0
   19.6216   -7.5990  -13.6564 O   0  0  0  0  0  0  0  0  0  0  0  0
   15.6554   -7.7694  -16.9339 O   0  0  0  0  0  0  0  0  0  0  0  0
   21.1919   -7.0172  -15.2154 N   0  0  0  0  0  0  0  0  0  0  0  0
   22.1328   -6.7085  -14.1687 C   0  0  0  0  0  0  0  0  0  0  0  0
   21.8458   -5.4062  -13.5628 C   0  0  0  0  0  0  0  0  0  0  0  0
   20.8575   -4.6770  -13.9026 O   0  0  0  0  0  0  0  0  0  0  0  0
   22.6565   -4.8760  -12.5562 O   0  0  0  0  0  0  0  0  0  0  0  0
  2  1  1  6
  3  2  1  0
  4  2  1  0
  4  5  2  0
  6  4  1  0
  7  6  1  0
  7  8  1  1
  9 10  2  0
  9  8  1  0
 11  7  1  0
 12 11  2  0
 13  9  1  0
 14 11  1  0
 15 14  1  0
 16 15  1  0
 16 18  1  0
 17 16  2  0
M  END
$$$$
