ADG.pdb
     RDKit          3D

 18 17  0  0  1  0  0  0  0  0999 V2000
   27.3011  -19.8732  -15.7867 C   0  0  0  0  0  0  0  0  0  0  0  0
   26.6237  -21.0523  -15.1188 C   0  0  2  0  0  0  0  0  0  0  0  0
   27.0299  -22.2789  -15.7667 N   0  0  0  0  0  0  0  0  0  0  0  0
   25.1695  -20.8458  -15.3072 C   0  0  0  0  0  0  0  0  0  0  0  0
   24.6439  -21.1546  -16.3930 O   0  0  0  0  0  0  0  0  0  0  0  0
   24.3678  -20.3027  -14.2776 N   0  0  0  0  0  0  0  0  0  0  0  0
   22.9462  -20.1570  -14.4837 C   0  0  1  0  0  0  0  0  0  0  0  0
   22.2898  -20.2560  -13.1199 C   0  0  0  0  0  0  0  0  0  0  0  0
   20.8178  -20.3889  -13.2931 C   0  0  0  0  0  0  0  0  0  0  0  0
   20.2704  -20.4086  -14.4176 O   0  0  0  0  0  0  0  0  0  0  0  0
   22.5997  -18.9134  -15.1630 C   0  0  0  0  0  0  0  0  0  0  0  0
   23.0455  -17.8029  -14.7602 O   0  0  0  0  0  0  0  0  0  0  0  0
   20.1011  -20.4907  -12.0813 O   0  0  0  0  0  0  0  0  0  0  0  0
   21.7437  -18.8683  -16.3109 N   0  0  0  0  0  0  0  0  0  0  0  0
   21.5733  -17.6340  -17.0346 C   0  0  0  0  0  0  0  0  0  0  0  0
   20.3631  -16.9289  -16.6059 C   0  0  0  0  0  0  0  0  0  0  0  0
   19.6208  -17.3273  -15.6496 O   0  0  0  0  0  0  0  0  0  0  0  0
   19.9428  -15.7540  -17.2340 O   0  0  0  0  0  0  0  0  0  0  0  0
  2  1  1  6
  3  2  1  0
  4  2  1  0
  4  5  2  0
  6  4  1  0
  7  6  1  0
  7  8  1  1
  9 10  2  0
  9  8  1  0
 11  7  1  0
 12 11  2  0
 13  9  1  0
 14 11  1  0
 15 14  1  0
 16 15  1  0
 16 18  1  0
 17 16  2  0
M  END
$$$$
