ADG.pdb
     RDKit          3D

 18 17  0  0  1  0  0  0  0  0999 V2000
   18.2022  -10.5747  -17.0726 C   0  0  0  0  0  0  0  0  0  0  0  0
   18.1444   -9.1520  -17.5902 C   0  0  2  0  0  0  0  0  0  0  0  0
   18.8617   -9.0593  -18.8417 N   0  0  0  0  0  0  0  0  0  0  0  0
   18.8164   -8.3195  -16.5664 C   0  0  0  0  0  0  0  0  0  0  0  0
   18.3196   -8.2311  -15.4281 O   0  0  0  0  0  0  0  0  0  0  0  0
   20.0105   -7.6220  -16.8586 N   0  0  0  0  0  0  0  0  0  0  0  0
   20.6192   -6.7954  -15.8433 C   0  0  1  0  0  0  0  0  0  0  0  0
   22.0416   -7.2909  -15.6646 C   0  0  0  0  0  0  0  0  0  0  0  0
   22.0166   -8.6255  -15.0069 C   0  0  0  0  0  0  0  0  0  0  0  0
   21.4603   -8.8232  -13.9042 O   0  0  0  0  0  0  0  0  0  0  0  0
   20.5774   -5.3750  -16.1731 C   0  0  0  0  0  0  0  0  0  0  0  0
   20.8111   -4.9696  -17.3457 O   0  0  0  0  0  0  0  0  0  0  0  0
   22.6725   -9.6406  -15.7362 O   0  0  0  0  0  0  0  0  0  0  0  0
   20.2763   -4.3620  -15.2057 N   0  0  0  0  0  0  0  0  0  0  0  0
   20.3077   -2.9721  -15.5844 C   0  0  0  0  0  0  0  0  0  0  0  0
   19.9690   -2.1050  -14.4535 C   0  0  0  0  0  0  0  0  0  0  0  0
   20.0326   -0.8331  -14.5012 O   0  0  0  0  0  0  0  0  0  0  0  0
   19.5481   -2.6330  -13.2305 O   0  0  0  0  0  0  0  0  0  0  0  0
  2  1  1  1
  3  2  1  0
  4  2  1  0
  4  5  2  0
  6  4  1  0
  7  6  1  0
  7  8  1  6
  9 10  2  0
  9  8  1  0
 11  7  1  0
 12 11  2  0
 13  9  1  0
 14 11  1  0
 15 14  1  0
 16 15  1  0
 16 18  1  0
 17 16  2  0
M  END
$$$$
