ADG.pdb
     RDKit          3D

 18 17  0  0  1  0  0  0  0  0999 V2000
   17.2237  -11.8587  -17.3354 C   0  0  0  0  0  0  0  0  0  0  0  0
   17.7883  -11.4584  -15.9876 C   0  0  2  0  0  0  0  0  0  0  0  0
   16.7111  -11.2905  -15.0385 N   0  0  0  0  0  0  0  0  0  0  0  0
   18.4716  -10.1623  -16.2020 C   0  0  0  0  0  0  0  0  0  0  0  0
   19.4952  -10.1207  -16.9098 O   0  0  0  0  0  0  0  0  0  0  0  0
   17.9839   -8.9720  -15.6164 N   0  0  0  0  0  0  0  0  0  0  0  0
   18.6750   -7.7266  -15.8532 C   0  0  1  0  0  0  0  0  0  0  0  0
   17.6133   -6.6533  -15.9999 C   0  0  0  0  0  0  0  0  0  0  0  0
   18.2686   -5.3570  -16.3236 C   0  0  0  0  0  0  0  0  0  0  0  0
   19.1571   -5.2505  -17.1974 O   0  0  0  0  0  0  0  0  0  0  0  0
   19.6307   -7.4033  -14.7995 C   0  0  0  0  0  0  0  0  0  0  0  0
   19.3292   -7.5367  -13.5808 O   0  0  0  0  0  0  0  0  0  0  0  0
   17.7986   -4.2665  -15.5604 O   0  0  0  0  0  0  0  0  0  0  0  0
   20.9513   -6.9187  -15.0712 N   0  0  0  0  0  0  0  0  0  0  0  0
   21.8829   -6.7211  -13.9899 C   0  0  0  0  0  0  0  0  0  0  0  0
   21.8158   -5.3519  -13.4737 C   0  0  0  0  0  0  0  0  0  0  0  0
   21.0149   -4.4700  -13.9267 O   0  0  0  0  0  0  0  0  0  0  0  0
   22.6437   -4.9237  -12.4332 O   0  0  0  0  0  0  0  0  0  0  0  0
  2  1  1  6
  3  2  1  0
  4  2  1  0
  4  5  2  0
  6  4  1  0
  7  6  1  0
  7  8  1  1
  9 10  2  0
  9  8  1  0
 11  7  1  0
 12 11  2  0
 13  9  1  0
 14 11  1  0
 15 14  1  0
 16 15  1  0
 16 18  1  0
 17 16  2  0
M  END
$$$$
