ADG.pdb
     RDKit          3D

 18 17  0  0  1  0  0  0  0  0999 V2000
   17.2005  -11.4262  -15.8507 C   0  0  0  0  0  0  0  0  0  0  0  0
   16.7994  -10.0097  -15.4930 C   0  0  2  0  0  0  0  0  0  0  0  0
   16.3962   -9.3012  -16.6867 N   0  0  0  0  0  0  0  0  0  0  0  0
   18.0099   -9.3766  -14.9213 C   0  0  0  0  0  0  0  0  0  0  0  0
   18.4458   -9.7714  -13.8238 O   0  0  0  0  0  0  0  0  0  0  0  0
   18.6783   -8.3312  -15.5982 N   0  0  0  0  0  0  0  0  0  0  0  0
   19.8343   -7.7146  -14.9914 C   0  0  1  0  0  0  0  0  0  0  0  0
   21.0466   -8.1843  -15.7728 C   0  0  0  0  0  0  0  0  0  0  0  0
   22.2795   -7.6558  -15.1286 C   0  0  0  0  0  0  0  0  0  0  0  0
   22.8990   -6.6635  -15.5712 O   0  0  0  0  0  0  0  0  0  0  0  0
   19.7431   -6.2591  -14.9557 C   0  0  0  0  0  0  0  0  0  0  0  0
   19.4238   -5.5992  -15.9836 O   0  0  0  0  0  0  0  0  0  0  0  0
   22.6827   -8.3712  -13.9804 O   0  0  0  0  0  0  0  0  0  0  0  0
   20.0073   -5.4935  -13.7739 N   0  0  0  0  0  0  0  0  0  0  0  0
   19.7375   -4.0782  -13.7570 C   0  0  0  0  0  0  0  0  0  0  0  0
   20.9701   -3.3001  -13.9011 C   0  0  0  0  0  0  0  0  0  0  0  0
   22.1247   -3.8287  -14.0090 O   0  0  0  0  0  0  0  0  0  0  0  0
   20.9516   -1.9035  -13.9287 O   0  0  0  0  0  0  0  0  0  0  0  0
  2  1  1  6
  3  2  1  0
  4  2  1  0
  4  5  2  0
  6  4  1  0
  7  6  1  0
  7  8  1  6
  9 10  2  0
  9  8  1  0
 11  7  1  0
 12 11  2  0
 13  9  1  0
 14 11  1  0
 15 14  1  0
 16 15  1  0
 16 18  1  0
 17 16  2  0
M  END
$$$$
