ADG.pdb
     RDKit          3D

 18 17  0  0  1  0  0  0  0  0999 V2000
   15.5187   -7.6523  -11.8506 C   0  0  0  0  0  0  0  0  0  0  0  0
   16.1071   -9.0461  -11.9305 C   0  0  2  0  0  0  0  0  0  0  0  0
   15.9822   -9.7020  -10.6485 N   0  0  0  0  0  0  0  0  0  0  0  0
   17.5390   -8.8644  -12.2612 C   0  0  0  0  0  0  0  0  0  0  0  0
   18.3634   -8.7060  -11.3416 O   0  0  0  0  0  0  0  0  0  0  0  0
   17.9865   -8.8655  -13.6019 N   0  0  0  0  0  0  0  0  0  0  0  0
   19.4013   -8.7927  -13.8806 C   0  0  1  0  0  0  0  0  0  0  0  0
   19.5957   -9.2708  -15.3069 C   0  0  0  0  0  0  0  0  0  0  0  0
   19.0909  -10.6653  -15.4293 C   0  0  0  0  0  0  0  0  0  0  0  0
   19.5542  -11.6116  -14.7552 O   0  0  0  0  0  0  0  0  0  0  0  0
   19.9476   -7.4554  -13.6780 C   0  0  0  0  0  0  0  0  0  0  0  0
   19.2694   -6.4250  -13.9474 O   0  0  0  0  0  0  0  0  0  0  0  0
   18.0485  -10.8212  -16.3683 O   0  0  0  0  0  0  0  0  0  0  0  0
   21.2677   -7.2245  -13.1713 N   0  0  0  0  0  0  0  0  0  0  0  0
   21.7239   -5.8782  -12.9361 C   0  0  0  0  0  0  0  0  0  0  0  0
   22.0703   -5.2072  -14.1912 C   0  0  0  0  0  0  0  0  0  0  0  0
   21.8983   -5.7340  -15.3388 O   0  0  0  0  0  0  0  0  0  0  0  0
   22.6217   -3.9237  -14.2037 O   0  0  0  0  0  0  0  0  0  0  0  0
  2  1  1  1
  3  2  1  0
  4  2  1  0
  4  5  2  0
  6  4  1  0
  7  6  1  0
  7  8  1  6
  9 10  2  0
  9  8  1  0
 11  7  1  0
 12 11  2  0
 13  9  1  0
 14 11  1  0
 15 14  1  0
 16 15  1  0
 16 18  1  0
 17 16  2  0
M  END
$$$$
