ADG.pdb
     RDKit          3D

 18 17  0  0  1  0  0  0  0  0999 V2000
   21.6914   -9.2106  -20.7151 C   0  0  0  0  0  0  0  0  0  0  0  0
   22.6329   -8.8481  -19.5848 C   0  0  2  0  0  0  0  0  0  0  0  0
   23.1262  -10.0526  -18.9562 N   0  0  0  0  0  0  0  0  0  0  0  0
   21.8246   -8.0738  -18.6153 C   0  0  0  0  0  0  0  0  0  0  0  0
   21.3482   -6.9751  -18.9563 O   0  0  0  0  0  0  0  0  0  0  0  0
   21.5856   -8.5586  -17.3093 N   0  0  0  0  0  0  0  0  0  0  0  0
   20.7836   -7.7794  -16.3960 C   0  0  1  0  0  0  0  0  0  0  0  0
   19.8590   -8.7480  -15.6834 C   0  0  0  0  0  0  0  0  0  0  0  0
   18.7357   -9.1099  -16.5899 C   0  0  0  0  0  0  0  0  0  0  0  0
   18.1264   -8.2628  -17.2795 O   0  0  0  0  0  0  0  0  0  0  0  0
   21.5891   -7.0079  -15.4558 C   0  0  0  0  0  0  0  0  0  0  0  0
   22.6975   -7.4423  -15.0355 O   0  0  0  0  0  0  0  0  0  0  0  0
   18.4236  -10.4865  -16.6007 O   0  0  0  0  0  0  0  0  0  0  0  0
   21.1832   -5.7292  -14.9529 N   0  0  0  0  0  0  0  0  0  0  0  0
   22.0262   -5.0195  -14.0245 C   0  0  0  0  0  0  0  0  0  0  0  0
   21.4248   -3.7442  -13.6280 C   0  0  0  0  0  0  0  0  0  0  0  0
   20.3683   -3.2710  -14.1612 O   0  0  0  0  0  0  0  0  0  0  0  0
   21.9864   -2.9550  -12.6213 O   0  0  0  0  0  0  0  0  0  0  0  0
  2  1  1  6
  3  2  1  0
  4  2  1  0
  4  5  2  0
  6  4  1  0
  7  6  1  0
  7  8  1  1
  9 10  2  0
  9  8  1  0
 11  7  1  0
 12 11  2  0
 13  9  1  0
 14 11  1  0
 15 14  1  0
 16 15  1  0
 16 18  1  0
 17 16  2  0
M  END
$$$$
