ADG.pdb
     RDKit          3D

 18 17  0  0  1  0  0  0  0  0999 V2000
   19.2134  -12.9675  -14.8877 C   0  0  0  0  0  0  0  0  0  0  0  0
   19.0405  -12.6278  -16.3541 C   0  0  2  0  0  0  0  0  0  0  0  0
   19.8864  -13.4832  -17.1554 N   0  0  0  0  0  0  0  0  0  0  0  0
   19.4742  -11.2193  -16.4988 C   0  0  0  0  0  0  0  0  0  0  0  0
   20.6392  -10.9728  -16.8625 O   0  0  0  0  0  0  0  0  0  0  0  0
   18.5900  -10.1498  -16.2298 N   0  0  0  0  0  0  0  0  0  0  0  0
   19.0333   -8.7909  -16.4336 C   0  0  1  0  0  0  0  0  0  0  0  0
   17.7890   -7.9261  -16.5018 C   0  0  0  0  0  0  0  0  0  0  0  0
   16.8800   -8.4576  -17.5534 C   0  0  0  0  0  0  0  0  0  0  0  0
   15.7857   -9.0014  -17.2865 O   0  0  0  0  0  0  0  0  0  0  0  0
   19.9530   -8.3365  -15.3965 C   0  0  0  0  0  0  0  0  0  0  0  0
   19.6954   -8.5109  -14.1728 O   0  0  0  0  0  0  0  0  0  0  0  0
   17.3618   -8.2923  -18.8699 O   0  0  0  0  0  0  0  0  0  0  0  0
   21.1874   -7.6713  -15.6906 N   0  0  0  0  0  0  0  0  0  0  0  0
   22.1396   -7.4212  -14.6384 C   0  0  0  0  0  0  0  0  0  0  0  0
   21.8440   -6.1677  -13.9407 C   0  0  0  0  0  0  0  0  0  0  0  0
   22.5815   -5.6873  -13.0190 O   0  0  0  0  0  0  0  0  0  0  0  0
   20.7122   -5.4099  -14.2511 O   0  0  0  0  0  0  0  0  0  0  0  0
  2  1  1  1
  3  2  1  0
  4  2  1  0
  4  5  2  0
  6  4  1  0
  7  6  1  0
  7  8  1  1
  9 10  2  0
  9  8  1  0
 11  7  1  0
 12 11  2  0
 13  9  1  0
 14 11  1  0
 15 14  1  0
 16 15  1  0
 16 18  1  0
 17 16  2  0
M  END
$$$$
