ADG.pdb
     RDKit          3D

 18 17  0  0  1  0  0  0  0  0999 V2000
   17.8920   -9.2135  -18.2963 C   0  0  0  0  0  0  0  0  0  0  0  0
   19.0157   -9.5925  -17.3535 C   0  0  2  0  0  0  0  0  0  0  0  0
   18.6601  -10.7914  -16.6286 N   0  0  0  0  0  0  0  0  0  0  0  0
   19.1532   -8.4602  -16.4092 C   0  0  0  0  0  0  0  0  0  0  0  0
   18.2639   -8.2603  -15.5608 O   0  0  0  0  0  0  0  0  0  0  0  0
   20.2747   -7.6011  -16.4547 N   0  0  0  0  0  0  0  0  0  0  0  0
   20.4240   -6.5713  -15.4538 C   0  0  1  0  0  0  0  0  0  0  0  0
   21.8421   -6.6716  -14.9251 C   0  0  0  0  0  0  0  0  0  0  0  0
   21.9932   -5.7673  -13.7530 C   0  0  0  0  0  0  0  0  0  0  0  0
   21.3466   -5.9230  -12.6937 O   0  0  0  0  0  0  0  0  0  0  0  0
   20.1304   -5.2383  -15.9684 C   0  0  0  0  0  0  0  0  0  0  0  0
   20.5074   -4.8852  -17.1205 O   0  0  0  0  0  0  0  0  0  0  0  0
   22.9266   -4.7258  -13.9443 O   0  0  0  0  0  0  0  0  0  0  0  0
   19.4096   -4.2562  -15.2143 N   0  0  0  0  0  0  0  0  0  0  0  0
   19.1284   -2.9670  -15.7931 C   0  0  0  0  0  0  0  0  0  0  0  0
   18.3378   -2.1361  -14.8820 C   0  0  0  0  0  0  0  0  0  0  0  0
   18.0200   -0.9276  -15.1323 O   0  0  0  0  0  0  0  0  0  0  0  0
   17.8770   -2.6302  -13.6592 O   0  0  0  0  0  0  0  0  0  0  0  0
  2  1  1  6
  3  2  1  0
  4  2  1  0
  4  5  2  0
  6  4  1  0
  7  6  1  0
  7  8  1  6
  9 10  2  0
  9  8  1  0
 11  7  1  0
 12 11  2  0
 13  9  1  0
 14 11  1  0
 15 14  1  0
 16 15  1  0
 16 18  1  0
 17 16  2  0
M  END
$$$$
