ADG.pdb
     RDKit          3D

 18 17  0  0  1  0  0  0  0  0999 V2000
   17.0699  -11.2107  -15.4599 C   0  0  0  0  0  0  0  0  0  0  0  0
   18.2385  -11.2332  -16.4238 C   0  0  2  0  0  0  0  0  0  0  0  0
   18.7012  -12.5916  -16.5971 N   0  0  0  0  0  0  0  0  0  0  0  0
   19.3024  -10.4200  -15.7917 C   0  0  0  0  0  0  0  0  0  0  0  0
   19.6021  -10.6249  -14.6007 O   0  0  0  0  0  0  0  0  0  0  0  0
   19.9824   -9.4141  -16.5154 N   0  0  0  0  0  0  0  0  0  0  0  0
   21.0825   -8.7124  -15.8973 C   0  0  1  0  0  0  0  0  0  0  0  0
   22.2946   -8.9224  -16.7847 C   0  0  0  0  0  0  0  0  0  0  0  0
   23.4871   -8.3106  -16.1381 C   0  0  0  0  0  0  0  0  0  0  0  0
   23.6093   -8.2214  -14.8965 O   0  0  0  0  0  0  0  0  0  0  0  0
   20.8019   -7.2961  -15.6893 C   0  0  0  0  0  0  0  0  0  0  0  0
   20.3773   -6.5692  -16.6303 O   0  0  0  0  0  0  0  0  0  0  0  0
   24.4609   -7.8443  -17.0474 O   0  0  0  0  0  0  0  0  0  0  0  0
   20.9881   -6.6450  -14.4267 N   0  0  0  0  0  0  0  0  0  0  0  0
   20.5477   -5.2851  -14.2454 C   0  0  0  0  0  0  0  0  0  0  0  0
   21.6845   -4.3713  -14.1113 C   0  0  0  0  0  0  0  0  0  0  0  0
   22.7748   -4.6884  -13.5325 O   0  0  0  0  0  0  0  0  0  0  0  0
   21.6387   -3.0711  -14.6201 O   0  0  0  0  0  0  0  0  0  0  0  0
  2  1  1  1
  3  2  1  0
  4  2  1  0
  4  5  2  0
  6  4  1  0
  7  6  1  0
  7  8  1  6
  9 10  2  0
  9  8  1  0
 11  7  1  0
 12 11  2  0
 13  9  1  0
 14 11  1  0
 15 14  1  0
 16 15  1  0
 16 18  1  0
 17 16  2  0
M  END
$$$$
