ADG.pdb
     RDKit          3D

 18 17  0  0  1  0  0  0  0  0999 V2000
   20.0698  -12.9012  -18.8781 C   0  0  0  0  0  0  0  0  0  0  0  0
   20.7353  -12.5017  -17.5769 C   0  0  2  0  0  0  0  0  0  0  0  0
   20.2062  -13.2996  -16.4940 N   0  0  0  0  0  0  0  0  0  0  0  0
   20.3890  -11.0779  -17.3639 C   0  0  0  0  0  0  0  0  0  0  0  0
   20.8601  -10.2135  -18.1263 O   0  0  0  0  0  0  0  0  0  0  0  0
   19.5347  -10.6821  -16.3095 N   0  0  0  0  0  0  0  0  0  0  0  0
   19.2569   -9.2800  -16.1062 C   0  0  1  0  0  0  0  0  0  0  0  0
   17.7539   -9.1454  -15.9523 C   0  0  0  0  0  0  0  0  0  0  0  0
   17.4041   -7.7074  -15.7970 C   0  0  0  0  0  0  0  0  0  0  0  0
   17.9184   -6.8089  -16.4990 O   0  0  0  0  0  0  0  0  0  0  0  0
   19.9708   -8.7240  -14.9620 C   0  0  0  0  0  0  0  0  0  0  0  0
   20.0091   -9.3335  -13.8570 O   0  0  0  0  0  0  0  0  0  0  0  0
   16.4453   -7.4520  -14.7930 O   0  0  0  0  0  0  0  0  0  0  0  0
   20.6623   -7.4703  -15.0129 N   0  0  0  0  0  0  0  0  0  0  0  0
   21.3167   -6.9601  -13.8349 C   0  0  0  0  0  0  0  0  0  0  0  0
   21.9706   -5.6772  -14.1033 C   0  0  0  0  0  0  0  0  0  0  0  0
   22.0645   -5.1679  -15.2678 O   0  0  0  0  0  0  0  0  0  0  0  0
   22.5421   -4.9213  -13.0768 O   0  0  0  0  0  0  0  0  0  0  0  0
  2  1  1  6
  3  2  1  0
  4  2  1  0
  4  5  2  0
  6  4  1  0
  7  6  1  0
  7  8  1  1
  9 10  2  0
  9  8  1  0
 11  7  1  0
 12 11  2  0
 13  9  1  0
 14 11  1  0
 15 14  1  0
 16 15  1  0
 16 18  1  0
 17 16  2  0
M  END
$$$$
