ADG.pdb
     RDKit          3D

 18 17  0  0  1  0  0  0  0  0999 V2000
   25.3586  -12.0170  -17.5066 C   0  0  0  0  0  0  0  0  0  0  0  0
   24.6836  -11.6920  -16.1898 C   0  0  2  0  0  0  0  0  0  0  0  0
   24.0658  -12.8829  -15.6519 N   0  0  0  0  0  0  0  0  0  0  0  0
   23.6422  -10.6873  -16.5040 C   0  0  0  0  0  0  0  0  0  0  0  0
   23.0868  -10.7107  -17.6183 O   0  0  0  0  0  0  0  0  0  0  0  0
   23.2684   -9.7013  -15.5628 N   0  0  0  0  0  0  0  0  0  0  0  0
   22.2030   -8.7804  -15.8811 C   0  0  1  0  0  0  0  0  0  0  0  0
   20.8979   -9.5024  -15.6047 C   0  0  0  0  0  0  0  0  0  0  0  0
   19.7611   -8.6322  -16.0107 C   0  0  0  0  0  0  0  0  0  0  0  0
   19.6464   -8.1687  -17.1667 O   0  0  0  0  0  0  0  0  0  0  0  0
   22.2983   -7.5293  -15.1370 C   0  0  0  0  0  0  0  0  0  0  0  0
   22.4309   -7.5245  -13.8814 O   0  0  0  0  0  0  0  0  0  0  0  0
   18.8305   -8.3802  -14.9796 O   0  0  0  0  0  0  0  0  0  0  0  0
   22.2464   -6.2444  -15.7688 N   0  0  0  0  0  0  0  0  0  0  0  0
   22.4948   -5.0523  -14.9986 C   0  0  0  0  0  0  0  0  0  0  0  0
   21.2546   -4.5173  -14.4317 C   0  0  0  0  0  0  0  0  0  0  0  0
   21.2101   -3.4740  -13.7012 O   0  0  0  0  0  0  0  0  0  0  0  0
   20.0222   -5.1331  -14.6631 O   0  0  0  0  0  0  0  0  0  0  0  0
  2  1  1  6
  3  2  1  0
  4  2  1  0
  4  5  2  0
  6  4  1  0
  7  6  1  0
  7  8  1  1
  9 10  2  0
  9  8  1  0
 11  7  1  0
 12 11  2  0
 13  9  1  0
 14 11  1  0
 15 14  1  0
 16 15  1  0
 16 18  1  0
 17 16  2  0
M  END
$$$$
