ADG.pdb
     RDKit          3D

 18 17  0  0  1  0  0  0  0  0999 V2000
   16.8524  -12.0370  -16.1387 C   0  0  0  0  0  0  0  0  0  0  0  0
   17.2864  -11.2863  -14.8963 C   0  0  2  0  0  0  0  0  0  0  0  0
   16.1946  -10.4714  -14.4132 N   0  0  0  0  0  0  0  0  0  0  0  0
   18.4093  -10.4179  -15.3178 C   0  0  0  0  0  0  0  0  0  0  0  0
   19.4994  -10.9348  -15.6259 O   0  0  0  0  0  0  0  0  0  0  0  0
   18.2666   -9.0128  -15.3748 N   0  0  0  0  0  0  0  0  0  0  0  0
   19.3584   -8.2055  -15.8656 C   0  0  1  0  0  0  0  0  0  0  0  0
   18.7703   -7.2290  -16.8663 C   0  0  0  0  0  0  0  0  0  0  0  0
   18.2168   -7.9856  -18.0220 C   0  0  0  0  0  0  0  0  0  0  0  0
   16.9890   -8.0753  -18.2431 O   0  0  0  0  0  0  0  0  0  0  0  0
   20.0770   -7.5198  -14.7973 C   0  0  0  0  0  0  0  0  0  0  0  0
   19.4608   -6.9890  -13.8315 O   0  0  0  0  0  0  0  0  0  0  0  0
   19.1968   -8.5876  -18.8402 O   0  0  0  0  0  0  0  0  0  0  0  0
   21.5047   -7.4021  -14.7731 N   0  0  0  0  0  0  0  0  0  0  0  0
   22.1646   -6.8754  -13.6055 C   0  0  0  0  0  0  0  0  0  0  0  0
   22.0385   -5.4178  -13.5355 C   0  0  0  0  0  0  0  0  0  0  0  0
   21.3090   -4.7380  -14.3292 O   0  0  0  0  0  0  0  0  0  0  0  0
   22.7257   -4.6719  -12.5748 O   0  0  0  0  0  0  0  0  0  0  0  0
  2  1  1  6
  3  2  1  0
  4  2  1  0
  4  5  2  0
  6  4  1  0
  7  6  1  0
  7  8  1  6
  9 10  2  0
  9  8  1  0
 11  7  1  0
 12 11  2  0
 13  9  1  0
 14 11  1  0
 15 14  1  0
 16 15  1  0
 16 18  1  0
 17 16  2  0
M  END
$$$$
