IMH.pdb
     RDKit          3D

 27 27  0  0  1  0  0  0  0  0999 V2000
    8.3606  -18.5025   17.7185 C   0  0  0  0  0  0  0  0  0  0  0  0
    7.5397  -17.6512   18.6263 C   0  0  0  0  0  0  0  0  0  0  0  0
    8.2890  -17.2859   19.9146 C   0  0  2  0  0  0  0  0  0  0  0  0
    7.7987  -18.2966   20.9332 C   0  0  0  0  0  0  0  0  0  0  0  0
    7.8835  -15.9006   20.2668 C   0  0  2  0  0  0  0  0  0  0  0  0
    8.3301  -14.9722   19.2195 N   0  0  0  0  0  0  0  0  0  0  0  0
    8.3035  -15.3667   21.5536 C   0  0  0  0  0  0  0  0  0  0  0  0
    9.5617  -15.1633   21.7717 O   0  0  0  0  0  0  0  0  0  0  0  0
    6.9290  -11.0581   27.5818 C   0  0  0  0  0  0  0  0  0  0  0  0
    6.1535  -12.6238   27.0337 S   0  0  0  0  0  0  0  0  0  0  0  0
    7.4394  -13.5474   26.1240 C   0  0  0  0  0  0  0  0  0  0  0  0
    6.9839  -13.9009   24.7503 C   0  0  0  0  0  0  0  0  0  0  0  0
    8.0350  -14.6197   23.9702 C   0  0  2  0  0  0  0  0  0  0  0  0
    7.4848  -15.0190   22.6567 N   0  0  0  0  0  0  0  0  0  0  0  0
    8.6162  -15.8139   24.6378 C   0  0  0  0  0  0  0  0  0  0  0  0
    7.9456  -16.8582   24.8356 O   0  0  0  0  0  0  0  0  0  0  0  0
    9.9686  -15.8095   25.0791 N   0  0  0  0  0  0  0  0  0  0  0  0
   10.5841  -16.9729   25.7534 C   0  0  1  0  0  0  0  0  0  0  0  0
   12.0323  -17.0155   25.3920 C   0  0  0  0  0  0  0  0  0  0  0  0
   12.3037  -17.4792   24.0315 C   0  0  0  0  0  0  0  0  0  0  0  0
   11.5186  -18.1566   23.1499 C   0  0  0  0  0  0  0  0  0  0  0  0
   12.2184  -18.2756   21.9866 N   0  0  0  0  0  0  0  0  0  0  0  0
   13.4005  -17.6943   22.1267 C   0  0  0  0  0  0  0  0  0  0  0  0
   13.4562  -17.2125   23.3576 N   0  0  0  0  0  0  0  0  0  0  0  0
   10.3787  -16.7515   27.2338 C   0  0  0  0  0  0  0  0  0  0  0  0
   10.5972  -17.7087   28.0042 O   0  0  0  0  0  0  0  0  0  0  0  0
    9.9674  -15.5702   27.7618 O   0  0  0  0  0  0  0  0  0  0  0  0
  2  1  1  0
  3  2  1  0
  3  4  1  1
  5  3  1  0
  5  7  1  0
  5  6  1  6
  7  8  2  0
  9 10  1  0
 10 11  1  0
 11 12  1  0
 13 12  1  1
 13 15  1  0
 14 13  1  0
 14  7  1  0
 15 17  1  0
 15 16  2  0
 17 18  1  0
 18 25  1  0
 18 19  1  1
 20 24  1  0
 20 19  1  0
 21 20  2  0
 22 21  1  0
 22 23  1  0
 23 24  2  0
 25 26  2  0
 25 27  1  0
M  END
$$$$
