IMH.pdb
     RDKit          3D

 27 27  0  0  1  0  0  0  0  0999 V2000
    7.9133  -18.7572   18.6675 C   0  0  0  0  0  0  0  0  0  0  0  0
    7.4451  -17.4136   19.1127 C   0  0  0  0  0  0  0  0  0  0  0  0
    8.2219  -16.9035   20.3339 C   0  0  2  0  0  0  0  0  0  0  0  0
    8.0287  -17.9844   21.3797 C   0  0  0  0  0  0  0  0  0  0  0  0
    7.5901  -15.6208   20.7373 C   0  0  2  0  0  0  0  0  0  0  0  0
    7.6593  -14.6631   19.6253 N   0  0  0  0  0  0  0  0  0  0  0  0
    8.0818  -14.9584   21.9360 C   0  0  0  0  0  0  0  0  0  0  0  0
    9.1670  -14.2585   21.8696 O   0  0  0  0  0  0  0  0  0  0  0  0
    5.9386  -10.4253   26.5548 C   0  0  0  0  0  0  0  0  0  0  0  0
    6.1392  -12.0895   27.2919 S   0  0  0  0  0  0  0  0  0  0  0  0
    7.4966  -12.8999   26.3778 C   0  0  0  0  0  0  0  0  0  0  0  0
    6.9885  -13.6147   25.1735 C   0  0  0  0  0  0  0  0  0  0  0  0
    8.0874  -14.2339   24.3742 C   0  0  2  0  0  0  0  0  0  0  0  0
    7.5075  -14.9721   23.2313 N   0  0  0  0  0  0  0  0  0  0  0  0
    8.9906  -15.1400   25.1312 C   0  0  0  0  0  0  0  0  0  0  0  0
    9.4261  -14.8444   26.2724 O   0  0  0  0  0  0  0  0  0  0  0  0
    9.3945  -16.3866   24.5776 N   0  0  0  0  0  0  0  0  0  0  0  0
   10.3563  -17.2798   25.2590 C   0  0  1  0  0  0  0  0  0  0  0  0
    9.8389  -18.6782   25.1794 C   0  0  0  0  0  0  0  0  0  0  0  0
    8.7585  -18.9788   26.1187 C   0  0  0  0  0  0  0  0  0  0  0  0
    8.7079  -18.8833   27.4755 C   0  0  0  0  0  0  0  0  0  0  0  0
    7.4420  -19.2085   27.8614 N   0  0  0  0  0  0  0  0  0  0  0  0
    6.7192  -19.4972   26.7895 C   0  0  0  0  0  0  0  0  0  0  0  0
    7.5085  -19.3596   25.7367 N   0  0  0  0  0  0  0  0  0  0  0  0
   11.6654  -17.1203   24.5218 C   0  0  0  0  0  0  0  0  0  0  0  0
   11.6698  -16.4347   23.4790 O   0  0  0  0  0  0  0  0  0  0  0  0
   12.8284  -17.6860   24.9351 O   0  0  0  0  0  0  0  0  0  0  0  0
  2  1  1  0
  3  2  1  0
  3  4  1  1
  5  3  1  0
  5  7  1  0
  5  6  1  6
  7  8  2  0
  9 10  1  0
 10 11  1  0
 11 12  1  0
 13 12  1  1
 13 15  1  0
 14 13  1  0
 14  7  1  0
 15 17  1  0
 15 16  2  0
 17 18  1  0
 18 25  1  0
 18 19  1  6
 20 24  1  0
 20 19  1  0
 21 20  2  0
 22 21  1  0
 22 23  1  0
 23 24  2  0
 25 26  2  0
 25 27  1  0
M  END
$$$$
