IMH.pdb
     RDKit          3D

 27 27  0  0  1  0  0  0  0  0999 V2000
    7.8925  -12.0405   19.8542 C   0  0  0  0  0  0  0  0  0  0  0  0
    7.7027  -13.2875   20.6490 C   0  0  0  0  0  0  0  0  0  0  0  0
    8.4866  -14.4716   20.0673 C   0  0  2  0  0  0  0  0  0  0  0  0
    7.8633  -14.7006   18.7039 C   0  0  0  0  0  0  0  0  0  0  0  0
    8.2635  -15.6220   20.9805 C   0  0  2  0  0  0  0  0  0  0  0  0
    6.8622  -16.0557   20.8978 N   0  0  0  0  0  0  0  0  0  0  0  0
    8.6051  -15.4616   22.3858 C   0  0  0  0  0  0  0  0  0  0  0  0
    9.8465  -15.3278   22.7218 O   0  0  0  0  0  0  0  0  0  0  0  0
    7.4698  -11.6912   27.4762 C   0  0  0  0  0  0  0  0  0  0  0  0
    6.0790  -12.1067   26.3599 S   0  0  0  0  0  0  0  0  0  0  0  0
    6.7536  -13.2318   25.0895 C   0  0  0  0  0  0  0  0  0  0  0  0
    7.1271  -14.5496   25.6753 C   0  0  0  0  0  0  0  0  0  0  0  0
    8.1882  -15.2426   24.8855 C   0  0  2  0  0  0  0  0  0  0  0  0
    7.7225  -15.4278   23.4939 N   0  0  0  0  0  0  0  0  0  0  0  0
    8.6309  -16.5533   25.4292 C   0  0  0  0  0  0  0  0  0  0  0  0
    7.8798  -17.5609   25.4314 O   0  0  0  0  0  0  0  0  0  0  0  0
    9.9370  -16.7077   25.9713 N   0  0  0  0  0  0  0  0  0  0  0  0
   10.4377  -18.0068   26.4699 C   0  0  1  0  0  0  0  0  0  0  0  0
   11.8437  -18.1825   25.9986 C   0  0  0  0  0  0  0  0  0  0  0  0
   11.9784  -18.3844   24.5561 C   0  0  0  0  0  0  0  0  0  0  0  0
   11.0363  -18.5892   23.5953 C   0  0  0  0  0  0  0  0  0  0  0  0
   11.6800  -18.6384   22.3952 N   0  0  0  0  0  0  0  0  0  0  0  0
   12.9796  -18.4697   22.5895 C   0  0  0  0  0  0  0  0  0  0  0  0
   13.1640  -18.3158   23.8904 N   0  0  0  0  0  0  0  0  0  0  0  0
   10.3530  -17.9341   27.9765 C   0  0  0  0  0  0  0  0  0  0  0  0
   10.0567  -16.8375   28.4936 O   0  0  0  0  0  0  0  0  0  0  0  0
   10.5856  -18.9965   28.7893 O   0  0  0  0  0  0  0  0  0  0  0  0
  2  1  1  0
  3  2  1  0
  3  4  1  6
  5  3  1  0
  5  7  1  0
  5  6  1  1
  7  8  2  0
  9 10  1  0
 10 11  1  0
 11 12  1  0
 13 12  1  1
 13 15  1  0
 14 13  1  0
 14  7  1  0
 15 17  1  0
 15 16  2  0
 17 18  1  0
 18 25  1  0
 18 19  1  1
 20 24  1  0
 20 19  1  0
 21 20  2  0
 22 21  1  0
 22 23  1  0
 23 24  2  0
 25 26  2  0
 25 27  1  0
M  END
$$$$
