IMH.pdb
     RDKit          3D

 27 27  0  0  1  0  0  0  0  0999 V2000
    6.7888  -13.0189   20.7263 C   0  0  0  0  0  0  0  0  0  0  0  0
    8.1521  -12.8993   20.1347 C   0  0  0  0  0  0  0  0  0  0  0  0
    8.6887  -14.2476   19.6358 C   0  0  2  0  0  0  0  0  0  0  0  0
    7.9538  -14.4840   18.3306 C   0  0  0  0  0  0  0  0  0  0  0  0
    8.3312  -15.2574   20.6654 C   0  0  2  0  0  0  0  0  0  0  0  0
    6.8931  -15.5498   20.5942 N   0  0  0  0  0  0  0  0  0  0  0  0
    8.6671  -14.9745   22.0526 C   0  0  0  0  0  0  0  0  0  0  0  0
    9.8874  -14.6749   22.3576 O   0  0  0  0  0  0  0  0  0  0  0  0
    6.1643  -11.4569   26.3752 C   0  0  0  0  0  0  0  0  0  0  0  0
    7.5322  -12.2136   27.3288 S   0  0  0  0  0  0  0  0  0  0  0  0
    7.6323  -13.9571   26.7952 C   0  0  0  0  0  0  0  0  0  0  0  0
    7.2378  -14.1107   25.3669 C   0  0  0  0  0  0  0  0  0  0  0  0
    8.2807  -14.8135   24.5615 C   0  0  2  0  0  0  0  0  0  0  0  0
    7.7994  -14.9798   23.1729 N   0  0  0  0  0  0  0  0  0  0  0  0
    8.7077  -16.1355   25.0904 C   0  0  0  0  0  0  0  0  0  0  0  0
    7.9247  -17.1173   25.1392 O   0  0  0  0  0  0  0  0  0  0  0  0
   10.0348  -16.3308   25.5639 N   0  0  0  0  0  0  0  0  0  0  0  0
   10.4945  -17.6225   26.1182 C   0  0  1  0  0  0  0  0  0  0  0  0
   11.8542  -17.9123   25.5734 C   0  0  0  0  0  0  0  0  0  0  0  0
   11.8789  -18.2371   24.1473 C   0  0  0  0  0  0  0  0  0  0  0  0
   10.9276  -18.7874   23.3442 C   0  0  0  0  0  0  0  0  0  0  0  0
   11.4245  -18.8063   22.0755 N   0  0  0  0  0  0  0  0  0  0  0  0
   12.6430  -18.2866   22.0758 C   0  0  0  0  0  0  0  0  0  0  0  0
   12.9209  -17.9416   23.3224 N   0  0  0  0  0  0  0  0  0  0  0  0
   10.5139  -17.4473   27.6187 C   0  0  0  0  0  0  0  0  0  0  0  0
   10.2560  -16.3163   28.0789 O   0  0  0  0  0  0  0  0  0  0  0  0
   10.7998  -18.4537   28.4840 O   0  0  0  0  0  0  0  0  0  0  0  0
  2  1  1  0
  3  2  1  0
  3  4  1  6
  5  3  1  0
  5  7  1  0
  5  6  1  1
  7  8  2  0
  9 10  1  0
 10 11  1  0
 11 12  1  0
 13 12  1  1
 13 15  1  0
 14 13  1  0
 14  7  1  0
 15 17  1  0
 15 16  2  0
 17 18  1  0
 18 25  1  0
 18 19  1  6
 20 24  1  0
 20 19  1  0
 21 20  2  0
 22 21  1  0
 22 23  1  0
 23 24  2  0
 25 26  2  0
 25 27  1  0
M  END
$$$$
