IMH.pdb
     RDKit          3D

 27 27  0  0  1  0  0  0  0  0999 V2000
    6.5972  -17.8981   18.3376 C   0  0  0  0  0  0  0  0  0  0  0  0
    6.5688  -16.5968   19.0647 C   0  0  0  0  0  0  0  0  0  0  0  0
    7.5220  -16.5829   20.2672 C   0  0  2  0  0  0  0  0  0  0  0  0
    7.0171  -17.7007   21.1590 C   0  0  0  0  0  0  0  0  0  0  0  0
    7.3791  -15.2514   20.9106 C   0  0  2  0  0  0  0  0  0  0  0  0
    7.7341  -14.1968   19.9512 N   0  0  0  0  0  0  0  0  0  0  0  0
    8.1064  -15.0024   22.1461 C   0  0  0  0  0  0  0  0  0  0  0  0
    9.3909  -14.8601   22.1040 O   0  0  0  0  0  0  0  0  0  0  0  0
    5.5173  -11.0605   26.5497 C   0  0  0  0  0  0  0  0  0  0  0  0
    7.2788  -11.5166   26.7546 S   0  0  0  0  0  0  0  0  0  0  0  0
    7.7106  -12.5680   25.3254 C   0  0  0  0  0  0  0  0  0  0  0  0
    7.7674  -14.0067   25.7079 C   0  0  0  0  0  0  0  0  0  0  0  0
    8.4274  -14.8468   24.6645 C   0  0  2  0  0  0  0  0  0  0  0  0
    7.5768  -14.8861   23.4553 N   0  0  0  0  0  0  0  0  0  0  0  0
    8.7492  -16.2376   25.0788 C   0  0  0  0  0  0  0  0  0  0  0  0
    7.8608  -17.1180   25.2012 O   0  0  0  0  0  0  0  0  0  0  0  0
   10.0922  -16.6183   25.3531 N   0  0  0  0  0  0  0  0  0  0  0  0
   10.4589  -17.9960   25.7462 C   0  0  1  0  0  0  0  0  0  0  0  0
   11.7969  -18.3122   25.1637 C   0  0  0  0  0  0  0  0  0  0  0  0
   11.8201  -18.3839   23.7029 C   0  0  0  0  0  0  0  0  0  0  0  0
   10.9023  -18.8677   22.8219 C   0  0  0  0  0  0  0  0  0  0  0  0
   11.3734  -18.6257   21.5663 N   0  0  0  0  0  0  0  0  0  0  0  0
   12.5439  -18.0109   21.6500 C   0  0  0  0  0  0  0  0  0  0  0  0
   12.8169  -17.8626   22.9359 N   0  0  0  0  0  0  0  0  0  0  0  0
   10.4855  -18.0037   27.2568 C   0  0  0  0  0  0  0  0  0  0  0  0
   10.2797  -16.9257   27.8510 O   0  0  0  0  0  0  0  0  0  0  0  0
   10.7243  -19.1190   27.9934 O   0  0  0  0  0  0  0  0  0  0  0  0
  2  1  1  0
  3  2  1  0
  3  4  1  1
  5  3  1  0
  5  7  1  0
  5  6  1  6
  7  8  2  0
  9 10  1  0
 10 11  1  0
 11 12  1  0
 13 12  1  1
 13 15  1  0
 14 13  1  0
 14  7  1  0
 15 17  1  0
 15 16  2  0
 17 18  1  0
 18 25  1  0
 18 19  1  6
 20 24  1  0
 20 19  1  0
 21 20  2  0
 22 21  1  0
 22 23  1  0
 23 24  2  0
 25 26  2  0
 25 27  1  0
M  END
$$$$
