IMH.pdb
     RDKit          3D

 27 27  0  0  1  0  0  0  0  0999 V2000
    6.8352  -13.2326   18.3080 C   0  0  0  0  0  0  0  0  0  0  0  0
    7.5768  -14.1918   19.1756 C   0  0  0  0  0  0  0  0  0  0  0  0
    7.6550  -13.7159   20.6324 C   0  0  2  0  0  0  0  0  0  0  0  0
    8.4696  -12.4385   20.5665 C   0  0  0  0  0  0  0  0  0  0  0  0
    8.3551  -14.7826   21.3936 C   0  0  2  0  0  0  0  0  0  0  0  0
    7.5949  -16.0365   21.3027 N   0  0  0  0  0  0  0  0  0  0  0  0
    8.6614  -14.5400   22.7952 C   0  0  0  0  0  0  0  0  0  0  0  0
    9.6412  -13.7531   23.0997 O   0  0  0  0  0  0  0  0  0  0  0  0
    7.0605  -11.9859   28.0924 C   0  0  0  0  0  0  0  0  0  0  0  0
    6.9185  -11.6997   26.2893 S   0  0  0  0  0  0  0  0  0  0  0  0
    6.4646  -13.3042   25.5449 C   0  0  0  0  0  0  0  0  0  0  0  0
    7.2482  -14.4209   26.1436 C   0  0  0  0  0  0  0  0  0  0  0  0
    8.4358  -14.7892   25.3166 C   0  0  2  0  0  0  0  0  0  0  0  0
    8.0012  -15.0709   23.9312 N   0  0  0  0  0  0  0  0  0  0  0  0
    9.2290  -15.9406   25.8215 C   0  0  0  0  0  0  0  0  0  0  0  0
    9.5165  -16.0682   27.0382 O   0  0  0  0  0  0  0  0  0  0  0  0
    9.6929  -16.9464   24.9289 N   0  0  0  0  0  0  0  0  0  0  0  0
   10.4450  -18.1314   25.3950 C   0  0  1  0  0  0  0  0  0  0  0  0
    9.8218  -19.3501   24.7984 C   0  0  0  0  0  0  0  0  0  0  0  0
    8.4505  -19.6064   25.2384 C   0  0  0  0  0  0  0  0  0  0  0  0
    7.9081  -19.6362   26.4864 C   0  0  0  0  0  0  0  0  0  0  0  0
    6.5683  -19.8412   26.3453 N   0  0  0  0  0  0  0  0  0  0  0  0
    6.2742  -19.9359   25.0571 C   0  0  0  0  0  0  0  0  0  0  0  0
    7.4056  -19.7946   24.3861 N   0  0  0  0  0  0  0  0  0  0  0  0
   11.8657  -17.9348   24.9202 C   0  0  0  0  0  0  0  0  0  0  0  0
   12.7226  -18.7688   25.2774 O   0  0  0  0  0  0  0  0  0  0  0  0
   12.2527  -16.8993   24.1317 O   0  0  0  0  0  0  0  0  0  0  0  0
  2  1  1  0
  3  2  1  0
  3  4  1  6
  5  3  1  0
  5  7  1  0
  5  6  1  1
  7  8  2  0
  9 10  1  0
 10 11  1  0
 11 12  1  0
 13 12  1  1
 13 15  1  0
 14 13  1  0
 14  7  1  0
 15 17  1  0
 15 16  2  0
 17 18  1  0
 18 25  1  0
 18 19  1  6
 20 24  1  0
 20 19  1  0
 21 20  2  0
 22 21  1  0
 22 23  1  0
 23 24  2  0
 25 26  2  0
 25 27  1  0
M  END
$$$$
