IMH.pdb
     RDKit          3D

 27 27  0  0  1  0  0  0  0  0999 V2000
    7.3822  -12.3566   19.4257 C   0  0  0  0  0  0  0  0  0  0  0  0
    7.4422  -13.3937   20.4952 C   0  0  0  0  0  0  0  0  0  0  0  0
    8.5270  -14.4448   20.2242 C   0  0  2  0  0  0  0  0  0  0  0  0
    8.0515  -15.1611   18.9751 C   0  0  0  0  0  0  0  0  0  0  0  0
    8.5537  -15.3458   21.4052 C   0  0  2  0  0  0  0  0  0  0  0  0
    7.3799  -16.2292   21.3811 N   0  0  0  0  0  0  0  0  0  0  0  0
    8.6403  -14.7449   22.7276 C   0  0  0  0  0  0  0  0  0  0  0  0
    9.0030  -13.5085   22.8360 O   0  0  0  0  0  0  0  0  0  0  0  0
    6.8117  -11.4361   27.5558 C   0  0  0  0  0  0  0  0  0  0  0  0
    5.5864  -12.0956   26.3655 S   0  0  0  0  0  0  0  0  0  0  0  0
    6.5271  -13.0718   25.1421 C   0  0  0  0  0  0  0  0  0  0  0  0
    7.0751  -14.3175   25.7480 C   0  0  0  0  0  0  0  0  0  0  0  0
    8.4525  -14.6280   25.2616 C   0  0  2  0  0  0  0  0  0  0  0  0
    8.3671  -15.3556   23.9768 N   0  0  0  0  0  0  0  0  0  0  0  0
    9.2995  -15.4038   26.2051 C   0  0  0  0  0  0  0  0  0  0  0  0
    9.5221  -15.0100   27.3776 O   0  0  0  0  0  0  0  0  0  0  0  0
    9.8919  -16.6328   25.8024 N   0  0  0  0  0  0  0  0  0  0  0  0
    9.5789  -17.9165   26.4666 C   0  0  1  0  0  0  0  0  0  0  0  0
    8.1203  -18.1897   26.3010 C   0  0  0  0  0  0  0  0  0  0  0  0
    7.6788  -19.4736   26.8454 C   0  0  0  0  0  0  0  0  0  0  0  0
    8.3405  -20.3951   27.5975 C   0  0  0  0  0  0  0  0  0  0  0  0
    7.4531  -21.3807   27.9107 N   0  0  0  0  0  0  0  0  0  0  0  0
    6.2747  -21.0928   27.3783 C   0  0  0  0  0  0  0  0  0  0  0  0
    6.4059  -19.9440   26.7356 N   0  0  0  0  0  0  0  0  0  0  0  0
   10.4293  -18.9585   25.7784 C   0  0  0  0  0  0  0  0  0  0  0  0
   10.6811  -18.8006   24.5662 O   0  0  0  0  0  0  0  0  0  0  0  0
   10.9264  -20.0525   26.4104 O   0  0  0  0  0  0  0  0  0  0  0  0
  2  1  1  0
  3  2  1  0
  3  4  1  6
  5  3  1  0
  5  7  1  0
  5  6  1  1
  7  8  2  0
  9 10  1  0
 10 11  1  0
 11 12  1  0
 13 12  1  1
 13 15  1  0
 14 13  1  0
 14  7  1  0
 15 17  1  0
 15 16  2  0
 17 18  1  0
 18 25  1  0
 18 19  1  6
 20 24  1  0
 20 19  1  0
 21 20  2  0
 22 21  1  0
 22 23  1  0
 23 24  2  0
 25 26  2  0
 25 27  1  0
M  END
$$$$
