IMH.pdb
     RDKit          3D

 27 27  0  0  1  0  0  0  0  0999 V2000
    7.2947  -11.9957   20.0245 C   0  0  0  0  0  0  0  0  0  0  0  0
    7.4253  -13.2527   20.8155 C   0  0  0  0  0  0  0  0  0  0  0  0
    8.4212  -14.2349   20.1844 C   0  0  2  0  0  0  0  0  0  0  0  0
    7.8190  -14.5625   18.8318 C   0  0  0  0  0  0  0  0  0  0  0  0
    8.4703  -15.4242   21.0734 C   0  0  2  0  0  0  0  0  0  0  0  0
    7.1927  -16.1465   21.0058 N   0  0  0  0  0  0  0  0  0  0  0  0
    8.8020  -15.2221   22.4757 C   0  0  0  0  0  0  0  0  0  0  0  0
    9.9855  -14.8073   22.7905 O   0  0  0  0  0  0  0  0  0  0  0  0
    7.1208  -11.8229   27.7935 C   0  0  0  0  0  0  0  0  0  0  0  0
    5.8760  -12.5119   26.6407 S   0  0  0  0  0  0  0  0  0  0  0  0
    6.8072  -13.3903   25.3384 C   0  0  0  0  0  0  0  0  0  0  0  0
    7.3063  -14.7076   25.8233 C   0  0  0  0  0  0  0  0  0  0  0  0
    8.4316  -15.2300   24.9922 C   0  0  2  0  0  0  0  0  0  0  0  0
    7.9661  -15.4248   23.6019 N   0  0  0  0  0  0  0  0  0  0  0  0
    9.0493  -16.4911   25.4799 C   0  0  0  0  0  0  0  0  0  0  0  0
    8.4329  -17.5861   25.4577 O   0  0  0  0  0  0  0  0  0  0  0  0
   10.3757  -16.4954   25.9939 N   0  0  0  0  0  0  0  0  0  0  0  0
   11.0287  -17.7273   26.4869 C   0  0  1  0  0  0  0  0  0  0  0  0
   12.4747  -17.6744   26.1183 C   0  0  0  0  0  0  0  0  0  0  0  0
   12.7303  -17.5741   24.6815 C   0  0  0  0  0  0  0  0  0  0  0  0
   12.1140  -18.1714   23.6250 C   0  0  0  0  0  0  0  0  0  0  0  0
   12.6829  -17.6799   22.4884 N   0  0  0  0  0  0  0  0  0  0  0  0
   13.6222  -16.8042   22.8135 C   0  0  0  0  0  0  0  0  0  0  0  0
   13.6541  -16.7369   24.1344 N   0  0  0  0  0  0  0  0  0  0  0  0
   10.8284  -17.7328   27.9843 C   0  0  0  0  0  0  0  0  0  0  0  0
   10.2361  -16.7623   28.4989 O   0  0  0  0  0  0  0  0  0  0  0  0
   11.2621  -18.7346   28.7917 O   0  0  0  0  0  0  0  0  0  0  0  0
  2  1  1  0
  3  2  1  0
  3  4  1  6
  5  3  1  0
  5  7  1  0
  5  6  1  1
  7  8  2  0
  9 10  1  0
 10 11  1  0
 11 12  1  0
 13 12  1  1
 13 15  1  0
 14 13  1  0
 14  7  1  0
 15 17  1  0
 15 16  2  0
 17 18  1  0
 18 25  1  0
 18 19  1  1
 20 24  1  0
 20 19  1  0
 21 20  2  0
 22 21  1  0
 22 23  1  0
 23 24  2  0
 25 26  2  0
 25 27  1  0
M  END
$$$$
