IMH.pdb
     RDKit          3D

 27 27  0  0  1  0  0  0  0  0999 V2000
    5.9210  -14.7889   18.7270 C   0  0  0  0  0  0  0  0  0  0  0  0
    7.3123  -15.2499   18.4542 C   0  0  0  0  0  0  0  0  0  0  0  0
    8.0853  -15.5572   19.7437 C   0  0  2  0  0  0  0  0  0  0  0  0
    7.4705  -16.8471   20.2513 C   0  0  0  0  0  0  0  0  0  0  0  0
    7.8392  -14.4222   20.6704 C   0  0  2  0  0  0  0  0  0  0  0  0
    8.3322  -13.1757   20.0689 N   0  0  0  0  0  0  0  0  0  0  0  0
    8.3675  -14.5114   22.0233 C   0  0  0  0  0  0  0  0  0  0  0  0
    9.6478  -14.4941   22.2029 O   0  0  0  0  0  0  0  0  0  0  0  0
    6.4692  -10.1218   26.6253 C   0  0  0  0  0  0  0  0  0  0  0  0
    6.5150  -11.9269   26.9298 S   0  0  0  0  0  0  0  0  0  0  0  0
    7.2601  -12.6835   25.4442 C   0  0  0  0  0  0  0  0  0  0  0  0
    7.4123  -14.1568   25.6042 C   0  0  0  0  0  0  0  0  0  0  0  0
    8.2894  -14.7550   24.5540 C   0  0  2  0  0  0  0  0  0  0  0  0
    7.6378  -14.6179   23.2334 N   0  0  0  0  0  0  0  0  0  0  0  0
    8.6578  -16.1789   24.7696 C   0  0  0  0  0  0  0  0  0  0  0  0
    7.8348  -17.1128   24.5970 O   0  0  0  0  0  0  0  0  0  0  0  0
    9.9723  -16.5312   25.1840 N   0  0  0  0  0  0  0  0  0  0  0  0
   10.3573  -17.9256   25.4913 C   0  0  1  0  0  0  0  0  0  0  0  0
   11.7841  -18.1188   25.0956 C   0  0  0  0  0  0  0  0  0  0  0  0
   12.0375  -17.9904   23.6607 C   0  0  0  0  0  0  0  0  0  0  0  0
   11.2128  -18.1693   22.5927 C   0  0  0  0  0  0  0  0  0  0  0  0
   11.9186  -17.8469   21.4724 N   0  0  0  0  0  0  0  0  0  0  0  0
   13.1426  -17.4769   21.8187 C   0  0  0  0  0  0  0  0  0  0  0  0
   13.2187  -17.5614   23.1368 N   0  0  0  0  0  0  0  0  0  0  0  0
   10.1573  -18.0934   26.9794 C   0  0  0  0  0  0  0  0  0  0  0  0
    9.8111  -17.0926   27.6396 O   0  0  0  0  0  0  0  0  0  0  0  0
   10.3383  -19.2721   27.6285 O   0  0  0  0  0  0  0  0  0  0  0  0
  2  1  1  0
  3  2  1  0
  3  4  1  1
  5  3  1  0
  5  7  1  0
  5  6  1  6
  7  8  2  0
  9 10  1  0
 10 11  1  0
 11 12  1  0
 13 12  1  1
 13 15  1  0
 14 13  1  0
 14  7  1  0
 15 17  1  0
 15 16  2  0
 17 18  1  0
 18 25  1  0
 18 19  1  1
 20 24  1  0
 20 19  1  0
 21 20  2  0
 22 21  1  0
 22 23  1  0
 23 24  2  0
 25 26  2  0
 25 27  1  0
M  END
$$$$
