IMH.pdb
     RDKit          3D

 27 27  0  0  1  0  0  0  0  0999 V2000
    7.4722  -18.4940   18.1890 C   0  0  0  0  0  0  0  0  0  0  0  0
    7.6023  -17.0828   18.6522 C   0  0  0  0  0  0  0  0  0  0  0  0
    8.2059  -16.9873   20.0598 C   0  0  2  0  0  0  0  0  0  0  0  0
    7.2757  -17.8166   20.9239 C   0  0  0  0  0  0  0  0  0  0  0  0
    8.1825  -15.5508   20.4384 C   0  0  2  0  0  0  0  0  0  0  0  0
    9.0149  -14.7790   19.5057 N   0  0  0  0  0  0  0  0  0  0  0  0
    8.5687  -15.1900   21.7941 C   0  0  0  0  0  0  0  0  0  0  0  0
    9.8119  -15.2749   22.1395 O   0  0  0  0  0  0  0  0  0  0  0  0
    6.7861  -10.7914   26.9024 C   0  0  0  0  0  0  0  0  0  0  0  0
    6.3691  -12.5277   27.3076 S   0  0  0  0  0  0  0  0  0  0  0  0
    7.5773  -13.5705   26.4201 C   0  0  0  0  0  0  0  0  0  0  0  0
    7.2178  -13.7124   24.9814 C   0  0  0  0  0  0  0  0  0  0  0  0
    8.2142  -14.5271   24.2241 C   0  0  2  0  0  0  0  0  0  0  0  0
    7.7307  -14.7335   22.8417 N   0  0  0  0  0  0  0  0  0  0  0  0
    8.5456  -15.8453   24.8258 C   0  0  0  0  0  0  0  0  0  0  0  0
    7.7067  -16.7790   24.8867 O   0  0  0  0  0  0  0  0  0  0  0  0
    9.8414  -16.0921   25.3585 N   0  0  0  0  0  0  0  0  0  0  0  0
   10.1957  -17.3678   26.0173 C   0  0  1  0  0  0  0  0  0  0  0  0
   11.5484  -17.7844   25.5416 C   0  0  0  0  0  0  0  0  0  0  0  0
   11.5436  -18.5442   24.2917 C   0  0  0  0  0  0  0  0  0  0  0  0
   10.5141  -18.9263   23.4875 C   0  0  0  0  0  0  0  0  0  0  0  0
   11.0528  -19.5476   22.4008 N   0  0  0  0  0  0  0  0  0  0  0  0
   12.3727  -19.5567   22.5127 C   0  0  0  0  0  0  0  0  0  0  0  0
   12.6732  -18.9526   23.6507 N   0  0  0  0  0  0  0  0  0  0  0  0
   10.1819  -17.0866   27.5016 C   0  0  0  0  0  0  0  0  0  0  0  0
   10.0684  -15.9000   27.8712 O   0  0  0  0  0  0  0  0  0  0  0  0
   10.2897  -18.0562   28.4460 O   0  0  0  0  0  0  0  0  0  0  0  0
  2  1  1  0
  3  2  1  0
  3  4  1  1
  5  3  1  0
  5  7  1  0
  5  6  1  6
  7  8  2  0
  9 10  1  0
 10 11  1  0
 11 12  1  0
 13 12  1  1
 13 15  1  0
 14 13  1  0
 14  7  1  0
 15 17  1  0
 15 16  2  0
 17 18  1  0
 18 25  1  0
 18 19  1  6
 20 24  1  0
 20 19  1  0
 21 20  2  0
 22 21  1  0
 22 23  1  0
 23 24  2  0
 25 26  2  0
 25 27  1  0
M  END
$$$$
