IMH.pdb
     RDKit          3D

 27 27  0  0  1  0  0  0  0  0999 V2000
    7.2905  -11.9145   19.8077 C   0  0  0  0  0  0  0  0  0  0  0  0
    7.4431  -13.1145   20.6792 C   0  0  0  0  0  0  0  0  0  0  0  0
    8.4943  -14.0938   20.1399 C   0  0  2  0  0  0  0  0  0  0  0  0
    7.9626  -14.5034   18.7801 C   0  0  0  0  0  0  0  0  0  0  0  0
    8.5385  -15.2377   21.0868 C   0  0  2  0  0  0  0  0  0  0  0  0
    7.2914  -16.0085   20.9913 N   0  0  0  0  0  0  0  0  0  0  0  0
    8.7909  -14.9584   22.4924 C   0  0  0  0  0  0  0  0  0  0  0  0
    9.9262  -14.4461   22.8396 O   0  0  0  0  0  0  0  0  0  0  0  0
    6.9818  -12.3345   27.9701 C   0  0  0  0  0  0  0  0  0  0  0  0
    6.9750  -11.7043   26.2508 S   0  0  0  0  0  0  0  0  0  0  0  0
    6.5562  -13.1238   25.1811 C   0  0  0  0  0  0  0  0  0  0  0  0
    7.0976  -14.3972   25.7330 C   0  0  0  0  0  0  0  0  0  0  0  0
    8.2998  -14.8746   24.9867 C   0  0  2  0  0  0  0  0  0  0  0  0
    7.9216  -15.1787   23.5896 N   0  0  0  0  0  0  0  0  0  0  0  0
    8.9842  -16.0562   25.5740 C   0  0  0  0  0  0  0  0  0  0  0  0
    9.3885  -16.0678   26.7639 O   0  0  0  0  0  0  0  0  0  0  0  0
    9.2050  -17.2257   24.7948 N   0  0  0  0  0  0  0  0  0  0  0  0
    9.9133  -18.4092   25.3283 C   0  0  1  0  0  0  0  0  0  0  0  0
   11.0033  -18.7755   24.3758 C   0  0  0  0  0  0  0  0  0  0  0  0
   11.8876  -19.8408   24.8477 C   0  0  0  0  0  0  0  0  0  0  0  0
   11.8318  -20.6114   25.9683 C   0  0  0  0  0  0  0  0  0  0  0  0
   12.8517  -21.5123   25.8964 N   0  0  0  0  0  0  0  0  0  0  0  0
   13.5260  -21.3197   24.7725 C   0  0  0  0  0  0  0  0  0  0  0  0
   12.9482  -20.3135   24.1370 N   0  0  0  0  0  0  0  0  0  0  0  0
   10.4573  -17.9953   26.6756 C   0  0  0  0  0  0  0  0  0  0  0  0
    9.8795  -18.4223   27.6961 O   0  0  0  0  0  0  0  0  0  0  0  0
   11.5352  -17.1840   26.8281 O   0  0  0  0  0  0  0  0  0  0  0  0
  2  1  1  0
  3  2  1  0
  3  4  1  6
  5  3  1  0
  5  7  1  0
  5  6  1  1
  7  8  2  0
  9 10  1  0
 10 11  1  0
 11 12  1  0
 13 12  1  1
 13 15  1  0
 14 13  1  0
 14  7  1  0
 15 17  1  0
 15 16  2  0
 17 18  1  0
 18 25  1  0
 18 19  1  6
 20 24  1  0
 20 19  1  0
 21 20  2  0
 22 21  1  0
 22 23  1  0
 23 24  2  0
 25 26  2  0
 25 27  1  0
M  END
$$$$
