IMH.pdb
     RDKit          3D

 27 27  0  0  1  0  0  0  0  0999 V2000
    7.9972  -11.6443   19.6144 C   0  0  0  0  0  0  0  0  0  0  0  0
    7.5415  -12.8003   20.4383 C   0  0  0  0  0  0  0  0  0  0  0  0
    8.2852  -14.0949   20.0835 C   0  0  2  0  0  0  0  0  0  0  0  0
    7.9494  -14.3324   18.6239 C   0  0  0  0  0  0  0  0  0  0  0  0
    7.7332  -15.1592   20.9609 C   0  0  2  0  0  0  0  0  0  0  0  0
    6.3041  -15.3452   20.6752 N   0  0  0  0  0  0  0  0  0  0  0  0
    7.8918  -15.0157   22.4001 C   0  0  0  0  0  0  0  0  0  0  0  0
    7.5778  -13.8935   22.9604 O   0  0  0  0  0  0  0  0  0  0  0  0
    6.6007  -11.2507   26.8040 C   0  0  0  0  0  0  0  0  0  0  0  0
    6.5573  -13.0783   26.9101 S   0  0  0  0  0  0  0  0  0  0  0  0
    7.1200  -13.7041   25.2895 C   0  0  0  0  0  0  0  0  0  0  0  0
    7.1412  -15.1934   25.2608 C   0  0  0  0  0  0  0  0  0  0  0  0
    8.4462  -15.7342   24.7764 C   0  0  2  0  0  0  0  0  0  0  0  0
    8.3644  -15.9837   23.3209 N   0  0  0  0  0  0  0  0  0  0  0  0
    8.9134  -16.9705   25.4568 C   0  0  0  0  0  0  0  0  0  0  0  0
    8.1112  -17.8362   25.8886 O   0  0  0  0  0  0  0  0  0  0  0  0
   10.3027  -17.2134   25.6419 N   0  0  0  0  0  0  0  0  0  0  0  0
   10.8121  -18.4509   26.2712 C   0  0  1  0  0  0  0  0  0  0  0  0
   12.2229  -18.6588   25.8284 C   0  0  0  0  0  0  0  0  0  0  0  0
   12.4027  -18.6989   24.3773 C   0  0  0  0  0  0  0  0  0  0  0  0
   11.6920  -19.3418   23.4108 C   0  0  0  0  0  0  0  0  0  0  0  0
   12.2251  -18.9881   22.2076 N   0  0  0  0  0  0  0  0  0  0  0  0
   13.2336  -18.1523   22.4055 C   0  0  0  0  0  0  0  0  0  0  0  0
   13.3441  -17.9747   23.7118 N   0  0  0  0  0  0  0  0  0  0  0  0
   10.7162  -18.2284   27.7625 C   0  0  0  0  0  0  0  0  0  0  0  0
   11.0649  -19.1597   28.5165 O   0  0  0  0  0  0  0  0  0  0  0  0
   10.2686  -17.0729   28.3174 O   0  0  0  0  0  0  0  0  0  0  0  0
  2  1  1  0
  3  2  1  0
  3  4  1  6
  5  3  1  0
  5  7  1  0
  5  6  1  1
  7  8  2  0
  9 10  1  0
 10 11  1  0
 11 12  1  0
 13 12  1  1
 13 15  1  0
 14 13  1  0
 14  7  1  0
 15 17  1  0
 15 16  2  0
 17 18  1  0
 18 25  1  0
 18 19  1  1
 20 24  1  0
 20 19  1  0
 21 20  2  0
 22 21  1  0
 22 23  1  0
 23 24  2  0
 25 26  2  0
 25 27  1  0
M  END
$$$$
