IMH.pdb
     RDKit          3D

 27 27  0  0  1  0  0  0  0  0999 V2000
    5.8649  -21.9228   24.7383 C   0  0  0  0  0  0  0  0  0  0  0  0
    5.6504  -20.7023   23.9094 C   0  0  0  0  0  0  0  0  0  0  0  0
    6.8185  -19.7132   24.0196 C   0  0  2  0  0  0  0  0  0  0  0  0
    6.7920  -19.2612   25.4669 C   0  0  0  0  0  0  0  0  0  0  0  0
    6.5238  -18.5976   23.0837 C   0  0  2  0  0  0  0  0  0  0  0  0
    6.3642  -19.1231   21.7210 N   0  0  0  0  0  0  0  0  0  0  0  0
    7.4534  -17.4795   23.0312 C   0  0  0  0  0  0  0  0  0  0  0  0
    8.4995  -17.5639   22.2759 O   0  0  0  0  0  0  0  0  0  0  0  0
    6.5779  -11.5352   26.1778 C   0  0  0  0  0  0  0  0  0  0  0  0
    6.3857  -13.3394   26.4246 S   0  0  0  0  0  0  0  0  0  0  0  0
    6.4637  -14.0997   24.7662 C   0  0  0  0  0  0  0  0  0  0  0  0
    7.7995  -13.8964   24.1387 C   0  0  0  0  0  0  0  0  0  0  0  0
    8.3441  -15.1522   23.5415 C   0  0  2  0  0  0  0  0  0  0  0  0
    7.3674  -16.2474   23.7259 N   0  0  0  0  0  0  0  0  0  0  0  0
    9.6655  -15.5846   24.0675 C   0  0  0  0  0  0  0  0  0  0  0  0
   10.7441  -15.1186   23.6217 O   0  0  0  0  0  0  0  0  0  0  0  0
    9.7489  -16.5530   25.1062 N   0  0  0  0  0  0  0  0  0  0  0  0
   11.0406  -17.0967   25.5783 C   0  0  1  0  0  0  0  0  0  0  0  0
   11.7301  -16.0436   26.3815 C   0  0  0  0  0  0  0  0  0  0  0  0
   10.8933  -15.4171   27.4047 C   0  0  0  0  0  0  0  0  0  0  0  0
    9.5998  -15.6485   27.7596 C   0  0  0  0  0  0  0  0  0  0  0  0
    9.3194  -14.8494   28.8272 N   0  0  0  0  0  0  0  0  0  0  0  0
   10.3949  -14.1407   29.1367 C   0  0  0  0  0  0  0  0  0  0  0  0
   11.3463  -14.4799   28.2823 N   0  0  0  0  0  0  0  0  0  0  0  0
   10.7006  -18.3096   26.4125 C   0  0  0  0  0  0  0  0  0  0  0  0
    9.4957  -18.5990   26.5602 O   0  0  0  0  0  0  0  0  0  0  0  0
   11.6369  -19.0924   27.0076 O   0  0  0  0  0  0  0  0  0  0  0  0
  2  1  1  0
  3  2  1  0
  3  4  1  1
  5  3  1  0
  5  7  1  0
  5  6  1  6
  7  8  2  0
  9 10  1  0
 10 11  1  0
 11 12  1  0
 13 12  1  1
 13 15  1  0
 14 13  1  0
 14  7  1  0
 15 17  1  0
 15 16  2  0
 17 18  1  0
 18 25  1  0
 18 19  1  1
 20 24  1  0
 20 19  1  0
 21 20  2  0
 22 21  1  0
 22 23  1  0
 23 24  2  0
 25 26  2  0
 25 27  1  0
M  END
$$$$
