IMH.pdb
     RDKit          3D

 27 27  0  0  1  0  0  0  0  0999 V2000
    7.4885  -17.2601   17.0574 C   0  0  0  0  0  0  0  0  0  0  0  0
    7.2103  -16.0139   17.8270 C   0  0  0  0  0  0  0  0  0  0  0  0
    8.0109  -15.9484   19.1346 C   0  0  2  0  0  0  0  0  0  0  0  0
    7.5665  -17.1745   19.9083 C   0  0  0  0  0  0  0  0  0  0  0  0
    7.6154  -14.6884   19.8154 C   0  0  2  0  0  0  0  0  0  0  0  0
    7.9803  -13.5374   18.9783 N   0  0  0  0  0  0  0  0  0  0  0  0
    8.1157  -14.4464   21.1601 C   0  0  0  0  0  0  0  0  0  0  0  0
    9.3750  -14.2081   21.3311 O   0  0  0  0  0  0  0  0  0  0  0  0
    7.7257  -10.8136   27.6339 C   0  0  0  0  0  0  0  0  0  0  0  0
    6.6411  -12.1045   26.9196 S   0  0  0  0  0  0  0  0  0  0  0  0
    7.7148  -13.1806   25.9078 C   0  0  0  0  0  0  0  0  0  0  0  0
    7.1286  -13.4176   24.5589 C   0  0  0  0  0  0  0  0  0  0  0  0
    8.0120  -14.2557   23.6944 C   0  0  2  0  0  0  0  0  0  0  0  0
    7.3781  -14.4326   22.3699 N   0  0  0  0  0  0  0  0  0  0  0  0
    8.3623  -15.5898   24.2486 C   0  0  0  0  0  0  0  0  0  0  0  0
    7.4967  -16.4822   24.4326 O   0  0  0  0  0  0  0  0  0  0  0  0
    9.7074  -15.9000   24.5921 N   0  0  0  0  0  0  0  0  0  0  0  0
   10.1152  -17.2435   25.0565 C   0  0  1  0  0  0  0  0  0  0  0  0
   11.5478  -17.4538   24.6916 C   0  0  0  0  0  0  0  0  0  0  0  0
   11.7837  -17.6720   23.2646 C   0  0  0  0  0  0  0  0  0  0  0  0
   10.9137  -17.7414   22.2201 C   0  0  0  0  0  0  0  0  0  0  0  0
   11.6509  -17.8804   21.0824 N   0  0  0  0  0  0  0  0  0  0  0  0
   12.9380  -17.8968   21.3953 C   0  0  0  0  0  0  0  0  0  0  0  0
   13.0229  -17.7711   22.7095 N   0  0  0  0  0  0  0  0  0  0  0  0
    9.9084  -17.2462   26.5531 C   0  0  0  0  0  0  0  0  0  0  0  0
    9.6733  -16.1559   27.1131 O   0  0  0  0  0  0  0  0  0  0  0  0
    9.9690  -18.3697   27.3129 O   0  0  0  0  0  0  0  0  0  0  0  0
  2  1  1  0
  3  2  1  0
  3  4  1  1
  5  3  1  0
  5  7  1  0
  5  6  1  6
  7  8  2  0
  9 10  1  0
 10 11  1  0
 11 12  1  0
 13 12  1  1
 13 15  1  0
 14 13  1  0
 14  7  1  0
 15 17  1  0
 15 16  2  0
 17 18  1  0
 18 25  1  0
 18 19  1  1
 20 24  1  0
 20 19  1  0
 21 20  2  0
 22 21  1  0
 22 23  1  0
 23 24  2  0
 25 26  2  0
 25 27  1  0
M  END
$$$$
