IMH.pdb
     RDKit          3D

 27 27  0  0  1  0  0  0  0  0999 V2000
    8.2482  -17.2953   18.6768 C   0  0  0  0  0  0  0  0  0  0  0  0
    8.5641  -15.9806   19.3048 C   0  0  0  0  0  0  0  0  0  0  0  0
    7.3137  -15.1107   19.4908 C   0  0  2  0  0  0  0  0  0  0  0  0
    6.7898  -14.9011   18.0832 C   0  0  0  0  0  0  0  0  0  0  0  0
    7.7662  -13.8384   20.1103 C   0  0  2  0  0  0  0  0  0  0  0  0
    8.8207  -13.2332   19.2855 N   0  0  0  0  0  0  0  0  0  0  0  0
    8.2330  -13.8717   21.4881 C   0  0  0  0  0  0  0  0  0  0  0  0
    9.5044  -13.8751   21.7234 O   0  0  0  0  0  0  0  0  0  0  0  0
    6.5291  -10.6059   26.8886 C   0  0  0  0  0  0  0  0  0  0  0  0
    6.5916  -12.3268   27.5113 S   0  0  0  0  0  0  0  0  0  0  0  0
    7.6804  -13.2498   26.3722 C   0  0  0  0  0  0  0  0  0  0  0  0
    7.1696  -13.1996   24.9737 C   0  0  0  0  0  0  0  0  0  0  0  0
    8.0401  -13.9535   24.0231 C   0  0  2  0  0  0  0  0  0  0  0  0
    7.4492  -13.9004   22.6683 N   0  0  0  0  0  0  0  0  0  0  0  0
    8.2981  -15.3717   24.3864 C   0  0  0  0  0  0  0  0  0  0  0  0
    7.4456  -16.2743   24.1917 O   0  0  0  0  0  0  0  0  0  0  0  0
    9.5359  -15.7543   24.9739 N   0  0  0  0  0  0  0  0  0  0  0  0
    9.8623  -17.1630   25.2833 C   0  0  1  0  0  0  0  0  0  0  0  0
   11.2572  -17.4354   24.8254 C   0  0  0  0  0  0  0  0  0  0  0  0
   11.3818  -17.7127   23.3946 C   0  0  0  0  0  0  0  0  0  0  0  0
   10.4365  -17.7899   22.4183 C   0  0  0  0  0  0  0  0  0  0  0  0
   11.0843  -17.9948   21.2370 N   0  0  0  0  0  0  0  0  0  0  0  0
   12.3896  -18.0439   21.4575 C   0  0  0  0  0  0  0  0  0  0  0  0
   12.5737  -17.8740   22.7566 N   0  0  0  0  0  0  0  0  0  0  0  0
    9.7234  -17.3022   26.7813 C   0  0  0  0  0  0  0  0  0  0  0  0
    9.6931  -16.2588   27.4654 O   0  0  0  0  0  0  0  0  0  0  0  0
    9.6340  -18.4999   27.4145 O   0  0  0  0  0  0  0  0  0  0  0  0
  2  1  1  0
  3  2  1  0
  3  4  1  6
  5  3  1  0
  5  7  1  0
  5  6  1  6
  7  8  2  0
  9 10  1  0
 10 11  1  0
 11 12  1  0
 13 12  1  1
 13 15  1  0
 14 13  1  0
 14  7  1  0
 15 17  1  0
 15 16  2  0
 17 18  1  0
 18 25  1  0
 18 19  1  1
 20 24  1  0
 20 19  1  0
 21 20  2  0
 22 21  1  0
 22 23  1  0
 23 24  2  0
 25 26  2  0
 25 27  1  0
M  END
$$$$
