LPD.pdb
     RDKit          3D

 24 24  0  0  1  0  0  0  0  0999 V2000
   24.0272  -24.9436  -18.6037 C   0  0  0  0  0  0  0  0  0  0  0  0
   22.6322  -25.3929  -18.1917 C   0  0  2  0  0  0  0  0  0  0  0  0
   21.6931  -25.0117  -19.3199 C   0  0  0  0  0  0  0  0  0  0  0  0
   22.2148  -24.7696  -16.8875 C   0  0  0  0  0  0  0  0  0  0  0  0
   23.1667  -25.1678  -15.7800 C   0  0  2  0  0  0  0  0  0  0  0  0
   22.9964  -26.5472  -15.4748 N   0  0  0  0  0  0  0  0  0  0  0  0
   23.0931  -24.2815  -14.6304 C   0  0  0  0  0  0  0  0  0  0  0  0
   22.0472  -24.3554  -13.9167 O   0  0  0  0  0  0  0  0  0  0  0  0
   24.1264  -23.3458  -14.2749 N   0  0  0  0  0  0  0  0  0  0  0  0
   25.3955  -23.3023  -14.9488 C   0  0  0  0  0  0  0  0  0  0  0  0
   26.2403  -22.3534  -14.1556 C   0  0  0  0  0  0  0  0  0  0  0  0
   25.2590  -21.4734  -13.4237 C   0  0  0  0  0  0  0  0  0  0  0  0
   24.0927  -22.3773  -13.2382 C   0  0  1  0  0  0  0  0  0  0  0  0
   22.8220  -21.6020  -13.1448 C   0  0  0  0  0  0  0  0  0  0  0  0
   22.6497  -20.8559  -12.1623 O   0  0  0  0  0  0  0  0  0  0  0  0
   21.8211  -21.6912  -14.1299 N   0  0  0  0  0  0  0  0  0  0  0  0
   20.7044  -20.7305  -14.2151 C   0  0  1  0  0  0  0  0  0  0  0  0
   20.7690  -19.9779  -15.4935 C   0  0  0  0  0  0  0  0  0  0  0  0
   19.6129  -19.1021  -15.7384 C   0  0  0  0  0  0  0  0  0  0  0  0
   19.0691  -19.0509  -16.8475 O   0  0  0  0  0  0  0  0  0  0  0  0
   19.4287  -21.4615  -14.1131 C   0  0  0  0  0  0  0  0  0  0  0  0
   18.3000  -20.9649  -14.0462 O   0  0  0  0  0  0  0  0  0  0  0  0
   19.0872  -18.2899  -14.7086 O   0  0  0  0  0  0  0  0  0  0  0  0
   19.4882  -22.8694  -14.0888 O   0  0  0  0  0  0  0  0  0  0  0  0
  2  1  1  6
  2  3  1  0
  4  2  1  0
  5  4  1  0
  5  7  1  0
  5  6  1  1
  7  8  2  0
  7  9  1  0
  9 13  1  0
  9 10  1  0
 11 10  1  0
 12 13  1  0
 12 11  1  0
 13 14  1  6
 15 14  2  0
 16 14  1  0
 17 16  1  0
 17 21  1  0
 17 18  1  6
 19 18  1  0
 20 19  2  0
 21 24  1  0
 22 21  2  0
 23 19  1  0
M  END
$$$$
