LPD.pdb
     RDKit          3D

 24 24  0  0  1  0  0  0  0  0999 V2000
   28.2365  -16.5206  -15.2626 C   0  0  0  0  0  0  0  0  0  0  0  0
   27.0570  -16.9486  -16.1246 C   0  0  2  0  0  0  0  0  0  0  0  0
   26.3642  -15.6815  -16.5878 C   0  0  0  0  0  0  0  0  0  0  0  0
   26.1189  -17.8492  -15.3678 C   0  0  0  0  0  0  0  0  0  0  0  0
   26.6263  -19.2752  -15.3803 C   0  0  2  0  0  0  0  0  0  0  0  0
   26.9960  -19.6407  -16.7048 N   0  0  0  0  0  0  0  0  0  0  0  0
   25.7141  -20.2016  -14.7306 C   0  0  0  0  0  0  0  0  0  0  0  0
   24.7454  -20.6335  -15.4262 O   0  0  0  0  0  0  0  0  0  0  0  0
   25.8553  -20.6389  -13.3673 N   0  0  0  0  0  0  0  0  0  0  0  0
   27.0911  -20.5229  -12.6420 C   0  0  0  0  0  0  0  0  0  0  0  0
   26.8772  -21.2677  -11.3603 C   0  0  0  0  0  0  0  0  0  0  0  0
   25.3833  -21.2775  -11.1577 C   0  0  0  0  0  0  0  0  0  0  0  0
   24.8693  -21.2542  -12.5530 C   0  0  1  0  0  0  0  0  0  0  0  0
   23.5193  -20.6235  -12.6175 C   0  0  0  0  0  0  0  0  0  0  0  0
   23.4358  -19.3837  -12.5304 O   0  0  0  0  0  0  0  0  0  0  0  0
   22.3473  -21.3867  -12.7727 N   0  0  0  0  0  0  0  0  0  0  0  0
   21.0209  -20.7716  -12.9709 C   0  0  1  0  0  0  0  0  0  0  0  0
   21.0305  -19.9039  -14.1758 C   0  0  0  0  0  0  0  0  0  0  0  0
   19.7317  -19.2875  -14.4872 C   0  0  0  0  0  0  0  0  0  0  0  0
   18.8402  -19.2019  -13.6348 O   0  0  0  0  0  0  0  0  0  0  0  0
   20.0107  -21.8355  -13.1120 C   0  0  0  0  0  0  0  0  0  0  0  0
   20.0568  -22.7949  -13.8883 O   0  0  0  0  0  0  0  0  0  0  0  0
   19.4635  -18.7725  -15.7753 O   0  0  0  0  0  0  0  0  0  0  0  0
   18.8726  -21.7632  -12.2839 O   0  0  0  0  0  0  0  0  0  0  0  0
  2  1  1  1
  2  3  1  0
  4  2  1  0
  5  4  1  0
  5  7  1  0
  5  6  1  6
  7  8  2  0
  7  9  1  0
  9 13  1  0
  9 10  1  0
 11 10  1  0
 12 13  1  0
 12 11  1  0
 13 14  1  1
 15 14  2  0
 16 14  1  0
 17 16  1  0
 17 21  1  0
 17 18  1  6
 19 18  1  0
 20 19  2  0
 21 24  1  0
 22 21  2  0
 23 19  1  0
M  END
$$$$
