LPD.pdb
     RDKit          3D

 24 24  0  0  1  0  0  0  0  0999 V2000
   29.2578  -17.7717  -15.9833 C   0  0  0  0  0  0  0  0  0  0  0  0
   27.8792  -17.7667  -16.6291 C   0  0  2  0  0  0  0  0  0  0  0  0
   27.5270  -16.3186  -16.9100 C   0  0  0  0  0  0  0  0  0  0  0  0
   26.8544  -18.4260  -15.7465 C   0  0  0  0  0  0  0  0  0  0  0  0
   27.1477  -19.9042  -15.6050 C   0  0  2  0  0  0  0  0  0  0  0  0
   27.2735  -20.4932  -16.8941 N   0  0  0  0  0  0  0  0  0  0  0  0
   26.2129  -20.5801  -14.7209 C   0  0  0  0  0  0  0  0  0  0  0  0
   25.1341  -20.9984  -15.2404 O   0  0  0  0  0  0  0  0  0  0  0  0
   26.4488  -20.7896  -13.3172 N   0  0  0  0  0  0  0  0  0  0  0  0
   27.7576  -20.6935  -12.7303 C   0  0  0  0  0  0  0  0  0  0  0  0
   27.6035  -21.1769  -11.3211 C   0  0  0  0  0  0  0  0  0  0  0  0
   26.1444  -20.9796  -10.9968 C   0  0  0  0  0  0  0  0  0  0  0  0
   25.4954  -21.1379  -12.3255 C   0  0  1  0  0  0  0  0  0  0  0  0
   24.2146  -20.3764  -12.3915 C   0  0  0  0  0  0  0  0  0  0  0  0
   24.2538  -19.1694  -12.6966 O   0  0  0  0  0  0  0  0  0  0  0  0
   22.9736  -20.9817  -12.1201 N   0  0  0  0  0  0  0  0  0  0  0  0
   21.6961  -20.2500  -12.2187 C   0  0  1  0  0  0  0  0  0  0  0  0
   21.0979  -20.4375  -13.5648 C   0  0  0  0  0  0  0  0  0  0  0  0
   19.7963  -19.7765  -13.7453 C   0  0  0  0  0  0  0  0  0  0  0  0
   19.4407  -18.8466  -13.0122 O   0  0  0  0  0  0  0  0  0  0  0  0
   20.7770  -20.7390  -11.1755 C   0  0  0  0  0  0  0  0  0  0  0  0
   20.9399  -21.7309  -10.4581 O   0  0  0  0  0  0  0  0  0  0  0  0
   18.9100  -20.1865  -14.7664 O   0  0  0  0  0  0  0  0  0  0  0  0
   19.5888  -20.0109  -10.9647 O   0  0  0  0  0  0  0  0  0  0  0  0
  2  1  1  1
  2  3  1  0
  4  2  1  0
  5  4  1  0
  5  7  1  0
  5  6  1  6
  7  8  2  0
  7  9  1  0
  9 13  1  0
  9 10  1  0
 11 10  1  0
 12 13  1  0
 12 11  1  0
 13 14  1  1
 15 14  2  0
 16 14  1  0
 17 16  1  0
 17 21  1  0
 17 18  1  6
 19 18  1  0
 20 19  2  0
 21 24  1  0
 22 21  2  0
 23 19  1  0
M  END
$$$$
