LPD.pdb
     RDKit          3D

 24 24  0  0  1  0  0  0  0  0999 V2000
   19.7105  -13.0112  -19.3464 C   0  0  0  0  0  0  0  0  0  0  0  0
   18.5222  -12.0977  -19.0796 C   0  0  2  0  0  0  0  0  0  0  0  0
   18.0748  -11.5501  -20.4213 C   0  0  0  0  0  0  0  0  0  0  0  0
   18.8791  -10.9944  -18.1209 C   0  0  0  0  0  0  0  0  0  0  0  0
   19.0614  -11.5445  -16.7226 C   0  0  2  0  0  0  0  0  0  0  0  0
   17.8574  -12.1693  -16.2928 N   0  0  0  0  0  0  0  0  0  0  0  0
   19.5941  -10.5591  -15.7964 C   0  0  0  0  0  0  0  0  0  0  0  0
   18.7888   -9.6735  -15.3771 O   0  0  0  0  0  0  0  0  0  0  0  0
   20.9603  -10.5418  -15.3461 N   0  0  0  0  0  0  0  0  0  0  0  0
   21.8911  -11.5918  -15.6591 C   0  0  0  0  0  0  0  0  0  0  0  0
   23.1144  -11.3014  -14.8452 C   0  0  0  0  0  0  0  0  0  0  0  0
   23.0522   -9.8226  -14.5585 C   0  0  0  0  0  0  0  0  0  0  0  0
   21.5884   -9.5607  -14.5356 C   0  0  1  0  0  0  0  0  0  0  0  0
   21.2894   -8.1493  -14.9137 C   0  0  0  0  0  0  0  0  0  0  0  0
   20.7901   -7.9249  -16.0326 O   0  0  0  0  0  0  0  0  0  0  0  0
   21.5549   -7.0737  -14.0461 N   0  0  0  0  0  0  0  0  0  0  0  0
   21.2920   -5.6706  -14.4191 C   0  0  1  0  0  0  0  0  0  0  0  0
   19.8418   -5.3713  -14.3082 C   0  0  0  0  0  0  0  0  0  0  0  0
   19.4856   -3.9801  -14.6265 C   0  0  0  0  0  0  0  0  0  0  0  0
   20.3421   -3.1631  -14.9835 O   0  0  0  0  0  0  0  0  0  0  0  0
   22.0688   -4.7819  -13.5365 C   0  0  0  0  0  0  0  0  0  0  0  0
   22.3433   -3.5959  -13.7443 O   0  0  0  0  0  0  0  0  0  0  0  0
   18.1480   -3.5345  -14.5337 O   0  0  0  0  0  0  0  0  0  0  0  0
   22.5530   -5.3273  -12.3305 O   0  0  0  0  0  0  0  0  0  0  0  0
  2  1  1  6
  2  3  1  0
  4  2  1  0
  5  4  1  0
  5  7  1  0
  5  6  1  1
  7  8  2  0
  7  9  1  0
  9 13  1  0
  9 10  1  0
 11 10  1  0
 12 13  1  0
 12 11  1  0
 13 14  1  6
 15 14  2  0
 16 14  1  0
 17 16  1  0
 17 21  1  0
 17 18  1  1
 19 18  1  0
 20 19  2  0
 21 24  1  0
 22 21  2  0
 23 19  1  0
M  END
$$$$
