LPD.pdb
     RDKit          3D

 24 24  0  0  1  0  0  0  0  0999 V2000
   15.5087  -13.0090  -17.2606 C   0  0  0  0  0  0  0  0  0  0  0  0
   15.9946  -13.1252  -15.8225 C   0  0  2  0  0  0  0  0  0  0  0  0
   14.8010  -12.8497  -14.9283 C   0  0  0  0  0  0  0  0  0  0  0  0
   17.1274  -12.1747  -15.5446 C   0  0  0  0  0  0  0  0  0  0  0  0
   18.3583  -12.5714  -16.3312 C   0  0  2  0  0  0  0  0  0  0  0  0
   18.7954  -13.8611  -15.9188 N   0  0  0  0  0  0  0  0  0  0  0  0
   19.3910  -11.5489  -16.3114 C   0  0  0  0  0  0  0  0  0  0  0  0
   20.1286  -11.5001  -15.2807 O   0  0  0  0  0  0  0  0  0  0  0  0
   19.6084  -10.6113  -17.3807 N   0  0  0  0  0  0  0  0  0  0  0  0
   18.8895  -10.6760  -18.6240 C   0  0  0  0  0  0  0  0  0  0  0  0
   19.5470   -9.6736  -19.5220 C   0  0  0  0  0  0  0  0  0  0  0  0
   20.2151   -8.6932  -18.5916 C   0  0  0  0  0  0  0  0  0  0  0  0
   20.5366   -9.5383  -17.4108 C   0  0  1  0  0  0  0  0  0  0  0  0
   20.5915   -8.7209  -16.1645 C   0  0  0  0  0  0  0  0  0  0  0  0
   20.8673   -9.2889  -15.0908 O   0  0  0  0  0  0  0  0  0  0  0  0
   20.3416   -7.3361  -16.1706 N   0  0  0  0  0  0  0  0  0  0  0  0
   20.4851   -6.4992  -14.9638 C   0  0  1  0  0  0  0  0  0  0  0  0
   21.8981   -6.4912  -14.5077 C   0  0  0  0  0  0  0  0  0  0  0  0
   22.1813   -5.5265  -13.4341 C   0  0  0  0  0  0  0  0  0  0  0  0
   21.4988   -5.4931  -12.4037 O   0  0  0  0  0  0  0  0  0  0  0  0
   20.0362   -5.1290  -15.2695 C   0  0  0  0  0  0  0  0  0  0  0  0
   19.4558   -4.3566  -14.5002 O   0  0  0  0  0  0  0  0  0  0  0  0
   23.2467   -4.6055  -13.5489 O   0  0  0  0  0  0  0  0  0  0  0  0
   20.2884   -4.6381  -16.5663 O   0  0  0  0  0  0  0  0  0  0  0  0
  2  1  1  6
  2  3  1  0
  4  2  1  0
  5  4  1  0
  5  7  1  0
  5  6  1  1
  7  8  2  0
  7  9  1  0
  9 13  1  0
  9 10  1  0
 11 10  1  0
 12 13  1  0
 12 11  1  0
 13 14  1  1
 15 14  2  0
 16 14  1  0
 17 16  1  0
 17 21  1  0
 17 18  1  6
 19 18  1  0
 20 19  2  0
 21 24  1  0
 22 21  2  0
 23 19  1  0
M  END
$$$$
