LPD.pdb
     RDKit          3D

 24 24  0  0  1  0  0  0  0  0999 V2000
   19.1247  -11.6653  -19.3342 C   0  0  0  0  0  0  0  0  0  0  0  0
   17.8869  -10.9465  -18.8160 C   0  0  2  0  0  0  0  0  0  0  0  0
   17.1968  -10.3305  -20.0178 C   0  0  0  0  0  0  0  0  0  0  0  0
   18.2426   -9.9076  -17.7874 C   0  0  0  0  0  0  0  0  0  0  0  0
   18.7918  -10.5633  -16.5385 C   0  0  2  0  0  0  0  0  0  0  0  0
   17.8023  -11.4120  -15.9682 N   0  0  0  0  0  0  0  0  0  0  0  0
   19.3739   -9.6068  -15.6117 C   0  0  0  0  0  0  0  0  0  0  0  0
   18.5763   -8.7973  -15.0485 O   0  0  0  0  0  0  0  0  0  0  0  0
   20.7794   -9.5371  -15.3127 N   0  0  0  0  0  0  0  0  0  0  0  0
   21.7143  -10.5363  -15.7535 C   0  0  0  0  0  0  0  0  0  0  0  0
   23.0062  -10.2084  -15.0701 C   0  0  0  0  0  0  0  0  0  0  0  0
   22.9124   -8.7406  -14.7388 C   0  0  0  0  0  0  0  0  0  0  0  0
   21.4501   -8.5465  -14.5493 C   0  0  1  0  0  0  0  0  0  0  0  0
   21.0509   -7.1422  -14.8545 C   0  0  0  0  0  0  0  0  0  0  0  0
   20.2418   -6.9402  -15.7798 O   0  0  0  0  0  0  0  0  0  0  0  0
   21.5608   -6.0489  -14.1301 N   0  0  0  0  0  0  0  0  0  0  0  0
   21.2088   -4.6522  -14.4500 C   0  0  1  0  0  0  0  0  0  0  0  0
   19.7405   -4.4553  -14.3499 C   0  0  0  0  0  0  0  0  0  0  0  0
   19.3013   -3.0667  -14.5562 C   0  0  0  0  0  0  0  0  0  0  0  0
   20.0063   -2.2535  -15.1646 O   0  0  0  0  0  0  0  0  0  0  0  0
   21.9125   -3.7510  -13.5200 C   0  0  0  0  0  0  0  0  0  0  0  0
   22.0007   -2.5226  -13.6117 O   0  0  0  0  0  0  0  0  0  0  0  0
   18.0550   -2.6193  -14.0632 O   0  0  0  0  0  0  0  0  0  0  0  0
   22.5536   -4.3366  -12.4098 O   0  0  0  0  0  0  0  0  0  0  0  0
  2  1  1  6
  2  3  1  0
  4  2  1  0
  5  4  1  0
  5  7  1  0
  5  6  1  1
  7  8  2  0
  7  9  1  0
  9 13  1  0
  9 10  1  0
 11 10  1  0
 12 13  1  0
 12 11  1  0
 13 14  1  6
 15 14  2  0
 16 14  1  0
 17 16  1  0
 17 21  1  0
 17 18  1  1
 19 18  1  0
 20 19  2  0
 21 24  1  0
 22 21  2  0
 23 19  1  0
M  END
$$$$
