LPD.pdb
     RDKit          3D

 24 24  0  0  1  0  0  0  0  0999 V2000
   22.4158  -13.2041  -20.0709 C   0  0  0  0  0  0  0  0  0  0  0  0
   21.4053  -12.0970  -20.3369 C   0  0  2  0  0  0  0  0  0  0  0  0
   21.7579  -11.4892  -21.6809 C   0  0  0  0  0  0  0  0  0  0  0  0
   21.4160  -11.0657  -19.2414 C   0  0  0  0  0  0  0  0  0  0  0  0
   20.9318  -11.6685  -17.9401 C   0  0  2  0  0  0  0  0  0  0  0  0
   19.6233  -12.1993  -18.1154 N   0  0  0  0  0  0  0  0  0  0  0  0
   21.0687  -10.7590  -16.8147 C   0  0  0  0  0  0  0  0  0  0  0  0
   20.1628   -9.8825  -16.6736 O   0  0  0  0  0  0  0  0  0  0  0  0
   22.1591  -10.8052  -15.8774 N   0  0  0  0  0  0  0  0  0  0  0  0
   23.0987  -11.8925  -15.8372 C   0  0  0  0  0  0  0  0  0  0  0  0
   23.9285  -11.6626  -14.6117 C   0  0  0  0  0  0  0  0  0  0  0  0
   23.8172  -10.1848  -14.3349 C   0  0  0  0  0  0  0  0  0  0  0  0
   22.4664   -9.8591  -14.8653 C   0  0  1  0  0  0  0  0  0  0  0  0
   22.3877   -8.4330  -15.2948 C   0  0  0  0  0  0  0  0  0  0  0  0
   22.3937   -8.1763  -16.5137 O   0  0  0  0  0  0  0  0  0  0  0  0
   22.3078   -7.3789  -14.3660 N   0  0  0  0  0  0  0  0  0  0  0  0
   22.1735   -5.9682  -14.7772 C   0  0  1  0  0  0  0  0  0  0  0  0
   20.9056   -5.7679  -15.5237 C   0  0  0  0  0  0  0  0  0  0  0  0
   20.6646   -4.3791  -15.9442 C   0  0  0  0  0  0  0  0  0  0  0  0
   19.9185   -3.6330  -15.2999 O   0  0  0  0  0  0  0  0  0  0  0  0
   22.2053   -5.1102  -13.5792 C   0  0  0  0  0  0  0  0  0  0  0  0
   22.3371   -3.8825  -13.5574 O   0  0  0  0  0  0  0  0  0  0  0  0
   21.2816   -3.8543  -17.1018 O   0  0  0  0  0  0  0  0  0  0  0  0
   22.0729   -5.7411  -12.3260 O   0  0  0  0  0  0  0  0  0  0  0  0
  2  1  1  1
  2  3  1  0
  4  2  1  0
  5  4  1  0
  5  7  1  0
  5  6  1  6
  7  8  2  0
  7  9  1  0
  9 13  1  0
  9 10  1  0
 11 10  1  0
 12 13  1  0
 12 11  1  0
 13 14  1  6
 15 14  2  0
 16 14  1  0
 17 16  1  0
 17 21  1  0
 17 18  1  1
 19 18  1  0
 20 19  2  0
 21 24  1  0
 22 21  2  0
 23 19  1  0
M  END
$$$$
