LPD.pdb
     RDKit          3D

 24 24  0  0  1  0  0  0  0  0999 V2000
   19.6160  -18.7591  -15.3543 C   0  0  0  0  0  0  0  0  0  0  0  0
   20.1344  -20.1587  -15.6545 C   0  0  2  0  0  0  0  0  0  0  0  0
   19.3190  -20.6932  -16.8162 C   0  0  0  0  0  0  0  0  0  0  0  0
   20.0358  -21.0536  -14.4490 C   0  0  0  0  0  0  0  0  0  0  0  0
   21.3497  -21.0790  -13.6978 C   0  0  2  0  0  0  0  0  0  0  0  0
   22.3694  -21.6135  -14.5340 N   0  0  0  0  0  0  0  0  0  0  0  0
   21.2402  -21.7166  -12.3962 C   0  0  0  0  0  0  0  0  0  0  0  0
   21.2947  -22.9835  -12.3731 O   0  0  0  0  0  0  0  0  0  0  0  0
   21.0751  -20.9938  -11.1633 N   0  0  0  0  0  0  0  0  0  0  0  0
   21.2042  -19.5644  -11.0817 C   0  0  0  0  0  0  0  0  0  0  0  0
   21.1677  -19.2395   -9.6200 C   0  0  0  0  0  0  0  0  0  0  0  0
   20.4519  -20.4011   -8.9785 C   0  0  0  0  0  0  0  0  0  0  0  0
   20.8024  -21.5318   -9.8788 C   0  0  1  0  0  0  0  0  0  0  0  0
   19.7485  -22.5867   -9.8511 C   0  0  0  0  0  0  0  0  0  0  0  0
   18.9508  -22.6576  -10.8052 O   0  0  0  0  0  0  0  0  0  0  0  0
   19.6332  -23.4963   -8.7836 N   0  0  0  0  0  0  0  0  0  0  0  0
   18.5762  -24.5244   -8.7286 C   0  0  1  0  0  0  0  0  0  0  0  0
   18.8949  -25.5355   -7.6889 C   0  0  0  0  0  0  0  0  0  0  0  0
   17.8983  -26.6103   -7.5653 C   0  0  0  0  0  0  0  0  0  0  0  0
   16.9664  -26.7181   -8.3706 O   0  0  0  0  0  0  0  0  0  0  0  0
   17.2855  -23.8757   -8.4357 C   0  0  0  0  0  0  0  0  0  0  0  0
   17.1052  -22.8893   -7.7147 O   0  0  0  0  0  0  0  0  0  0  0  0
   17.9771  -27.5556   -6.5182 O   0  0  0  0  0  0  0  0  0  0  0  0
   16.1331  -24.4259   -9.0319 O   0  0  0  0  0  0  0  0  0  0  0  0
  2  1  1  1
  2  3  1  0
  4  2  1  0
  5  4  1  0
  5  7  1  0
  5  6  1  6
  7  8  2  0
  7  9  1  0
  9 13  1  0
  9 10  1  0
 11 10  1  0
 12 13  1  0
 12 11  1  0
 13 14  1  6
 15 14  2  0
 16 14  1  0
 17 16  1  0
 17 21  1  0
 17 18  1  1
 19 18  1  0
 20 19  2  0
 21 24  1  0
 22 21  2  0
 23 19  1  0
M  END
$$$$
