LPD.pdb
     RDKit          3D

 24 24  0  0  1  0  0  0  0  0999 V2000
   16.0608  -13.3359  -16.8422 C   0  0  0  0  0  0  0  0  0  0  0  0
   17.2010  -13.6216  -15.8747 C   0  0  2  0  0  0  0  0  0  0  0  0
   16.5735  -14.1017  -14.5802 C   0  0  0  0  0  0  0  0  0  0  0  0
   18.0583  -12.4043  -15.6580 C   0  0  0  0  0  0  0  0  0  0  0  0
   19.0984  -12.2859  -16.7513 C   0  0  2  0  0  0  0  0  0  0  0  0
   20.0247  -13.3613  -16.6498 N   0  0  0  0  0  0  0  0  0  0  0  0
   19.7076  -10.9675  -16.8065 C   0  0  0  0  0  0  0  0  0  0  0  0
   20.6549  -10.7401  -15.9943 O   0  0  0  0  0  0  0  0  0  0  0  0
   19.2940   -9.9332  -17.7170 N   0  0  0  0  0  0  0  0  0  0  0  0
   18.3386  -10.1634  -18.7663 C   0  0  0  0  0  0  0  0  0  0  0  0
   18.3442   -8.9168  -19.5966 C   0  0  0  0  0  0  0  0  0  0  0  0
   18.8537   -7.8361  -18.6770 C   0  0  0  0  0  0  0  0  0  0  0  0
   19.7498   -8.5900  -17.7602 C   0  0  1  0  0  0  0  0  0  0  0  0
   19.8481   -7.9178  -16.4325 C   0  0  0  0  0  0  0  0  0  0  0  0
   19.0829   -8.2845  -15.5205 O   0  0  0  0  0  0  0  0  0  0  0  0
   20.7753   -6.8884  -16.1858 N   0  0  0  0  0  0  0  0  0  0  0  0
   20.8969   -6.2289  -14.8714 C   0  0  1  0  0  0  0  0  0  0  0  0
   22.3273   -6.0524  -14.5142 C   0  0  0  0  0  0  0  0  0  0  0  0
   22.5503   -5.3408  -13.2464 C   0  0  0  0  0  0  0  0  0  0  0  0
   22.7891   -4.1279  -13.2237 O   0  0  0  0  0  0  0  0  0  0  0  0
   20.2149   -4.9233  -14.9207 C   0  0  0  0  0  0  0  0  0  0  0  0
   19.7645   -4.2922  -13.9593 O   0  0  0  0  0  0  0  0  0  0  0  0
   22.4979   -6.0252  -12.0114 O   0  0  0  0  0  0  0  0  0  0  0  0
   20.0538   -4.3230  -16.1856 O   0  0  0  0  0  0  0  0  0  0  0  0
  2  1  1  6
  2  3  1  0
  4  2  1  0
  5  4  1  0
  5  7  1  0
  5  6  1  1
  7  8  2  0
  7  9  1  0
  9 13  1  0
  9 10  1  0
 11 10  1  0
 12 13  1  0
 12 11  1  0
 13 14  1  1
 15 14  2  0
 16 14  1  0
 17 16  1  0
 17 21  1  0
 17 18  1  6
 19 18  1  0
 20 19  2  0
 21 24  1  0
 22 21  2  0
 23 19  1  0
M  END
$$$$
