LPD.pdb
     RDKit          3D

 24 24  0  0  1  0  0  0  0  0999 V2000
   18.7608  -12.9336  -20.6183 C   0  0  0  0  0  0  0  0  0  0  0  0
   18.2165  -12.7311  -19.2111 C   0  0  2  0  0  0  0  0  0  0  0  0
   16.7414  -12.4072  -19.3492 C   0  0  0  0  0  0  0  0  0  0  0  0
   18.9582  -11.6423  -18.4843 C   0  0  0  0  0  0  0  0  0  0  0  0
   20.3375  -12.1176  -18.0807 C   0  0  2  0  0  0  0  0  0  0  0  0
   20.2259  -13.2933  -17.2870 N   0  0  0  0  0  0  0  0  0  0  0  0
   21.1437  -11.0634  -17.4881 C   0  0  0  0  0  0  0  0  0  0  0  0
   20.8820  -10.7489  -16.2876 O   0  0  0  0  0  0  0  0  0  0  0  0
   22.1981  -10.3759  -18.1848 N   0  0  0  0  0  0  0  0  0  0  0  0
   22.6751  -10.7960  -19.4743 C   0  0  0  0  0  0  0  0  0  0  0  0
   23.8884   -9.9610  -19.7465 C   0  0  0  0  0  0  0  0  0  0  0  0
   23.7168   -8.7307  -18.8921 C   0  0  0  0  0  0  0  0  0  0  0  0
   22.9332   -9.2471  -17.7384 C   0  0  1  0  0  0  0  0  0  0  0  0
   22.1107   -8.1667  -17.1213 C   0  0  0  0  0  0  0  0  0  0  0  0
   20.8791   -8.1747  -17.3080 O   0  0  0  0  0  0  0  0  0  0  0  0
   22.6856   -7.1471  -16.3404 N   0  0  0  0  0  0  0  0  0  0  0  0
   21.8767   -6.1161  -15.6623 C   0  0  1  0  0  0  0  0  0  0  0  0
   21.0002   -6.7399  -14.6388 C   0  0  0  0  0  0  0  0  0  0  0  0
   20.2248   -5.7786  -13.8399 C   0  0  0  0  0  0  0  0  0  0  0  0
   20.2506   -4.5678  -14.0886 O   0  0  0  0  0  0  0  0  0  0  0  0
   22.7759   -5.1301  -15.0365 C   0  0  0  0  0  0  0  0  0  0  0  0
   23.9794   -5.2775  -14.8017 O   0  0  0  0  0  0  0  0  0  0  0  0
   19.4238   -6.2125  -12.7599 O   0  0  0  0  0  0  0  0  0  0  0  0
   22.2197   -3.8900  -14.6636 O   0  0  0  0  0  0  0  0  0  0  0  0
  2  1  1  6
  2  3  1  0
  4  2  1  0
  5  4  1  0
  5  7  1  0
  5  6  1  1
  7  8  2  0
  7  9  1  0
  9 13  1  0
  9 10  1  0
 11 10  1  0
 12 13  1  0
 12 11  1  0
 13 14  1  6
 15 14  2  0
 16 14  1  0
 17 16  1  0
 17 21  1  0
 17 18  1  1
 19 18  1  0
 20 19  2  0
 21 24  1  0
 22 21  2  0
 23 19  1  0
M  END
$$$$
