LPD.pdb
     RDKit          3D

 24 24  0  0  1  0  0  0  0  0999 V2000
   25.4134  -14.8518  -20.1987 C   0  0  0  0  0  0  0  0  0  0  0  0
   23.9153  -14.7325  -19.9554 C   0  0  2  0  0  0  0  0  0  0  0  0
   23.2566  -14.5838  -21.3133 C   0  0  0  0  0  0  0  0  0  0  0  0
   23.5939  -13.5726  -19.0525 C   0  0  0  0  0  0  0  0  0  0  0  0
   24.1106  -13.8299  -17.6532 C   0  0  2  0  0  0  0  0  0  0  0  0
   23.6216  -15.0813  -17.1845 N   0  0  0  0  0  0  0  0  0  0  0  0
   23.8738  -12.7137  -16.7530 C   0  0  0  0  0  0  0  0  0  0  0  0
   22.6827  -12.5451  -16.3511 O   0  0  0  0  0  0  0  0  0  0  0  0
   24.9034  -11.8122  -16.3093 N   0  0  0  0  0  0  0  0  0  0  0  0
   26.3017  -12.0721  -16.5187 C   0  0  0  0  0  0  0  0  0  0  0  0
   27.0281  -11.0190  -15.7398 C   0  0  0  0  0  0  0  0  0  0  0  0
   26.0436   -9.8857  -15.6008 C   0  0  0  0  0  0  0  0  0  0  0  0
   24.7358  -10.5940  -15.6009 C   0  0  1  0  0  0  0  0  0  0  0  0
   23.6482   -9.7130  -16.1162 C   0  0  0  0  0  0  0  0  0  0  0  0
   23.3058   -9.8241  -17.3087 O   0  0  0  0  0  0  0  0  0  0  0  0
   23.0045   -8.7675  -15.2966 N   0  0  0  0  0  0  0  0  0  0  0  0
   21.8468   -7.9767  -15.7566 C   0  0  1  0  0  0  0  0  0  0  0  0
   20.6946   -8.8687  -16.0419 C   0  0  0  0  0  0  0  0  0  0  0  0
   19.4514   -8.1602  -16.3828 C   0  0  0  0  0  0  0  0  0  0  0  0
   19.4722   -7.0722  -16.9697 O   0  0  0  0  0  0  0  0  0  0  0  0
   21.4902   -6.9929  -14.7188 C   0  0  0  0  0  0  0  0  0  0  0  0
   20.6080   -6.1319  -14.7939 O   0  0  0  0  0  0  0  0  0  0  0  0
   18.1912   -8.7044  -16.0483 O   0  0  0  0  0  0  0  0  0  0  0  0
   22.2213   -7.0268  -13.5143 O   0  0  0  0  0  0  0  0  0  0  0  0
  2  1  1  6
  2  3  1  0
  4  2  1  0
  5  4  1  0
  5  7  1  0
  5  6  1  1
  7  8  2  0
  7  9  1  0
  9 13  1  0
  9 10  1  0
 11 10  1  0
 12 13  1  0
 12 11  1  0
 13 14  1  6
 15 14  2  0
 16 14  1  0
 17 16  1  0
 17 21  1  0
 17 18  1  1
 19 18  1  0
 20 19  2  0
 21 24  1  0
 22 21  2  0
 23 19  1  0
M  END
$$$$
