LPD.pdb
     RDKit          3D

 24 24  0  0  1  0  0  0  0  0999 V2000
   19.5849  -27.1208   -2.0283 C   0  0  0  0  0  0  0  0  0  0  0  0
   18.0807  -27.0648   -1.8012 C   0  0  2  0  0  0  0  0  0  0  0  0
   17.4841  -26.3063   -2.9712 C   0  0  0  0  0  0  0  0  0  0  0  0
   17.7452  -26.4122   -0.4876 C   0  0  0  0  0  0  0  0  0  0  0  0
   18.2435  -27.2552    0.6666 C   0  0  2  0  0  0  0  0  0  0  0  0
   17.5906  -28.5194    0.6534 N   0  0  0  0  0  0  0  0  0  0  0  0
   18.1817  -26.5569    1.9398 C   0  0  0  0  0  0  0  0  0  0  0  0
   17.0642  -26.5582    2.5396 O   0  0  0  0  0  0  0  0  0  0  0  0
   19.3024  -25.8794    2.5353 N   0  0  0  0  0  0  0  0  0  0  0  0
   20.6306  -25.9554    1.9904 C   0  0  0  0  0  0  0  0  0  0  0  0
   21.5189  -25.2984    3.0015 C   0  0  0  0  0  0  0  0  0  0  0  0
   20.6119  -24.3824    3.7833 C   0  0  0  0  0  0  0  0  0  0  0  0
   19.3045  -25.0877    3.7130 C   0  0  1  0  0  0  0  0  0  0  0  0
   18.1693  -24.1268    3.8252 C   0  0  0  0  0  0  0  0  0  0  0  0
   17.3941  -24.0045    2.8579 O   0  0  0  0  0  0  0  0  0  0  0  0
   17.9536  -23.3612    4.9860 N   0  0  0  0  0  0  0  0  0  0  0  0
   16.8453  -22.3942    5.1036 C   0  0  1  0  0  0  0  0  0  0  0  0
   15.5415  -23.0806    4.9200 C   0  0  0  0  0  0  0  0  0  0  0  0
   14.3701  -22.2042    5.0736 C   0  0  0  0  0  0  0  0  0  0  0  0
   14.4973  -20.9956    5.3007 O   0  0  0  0  0  0  0  0  0  0  0  0
   16.9045  -21.7495    6.4276 C   0  0  0  0  0  0  0  0  0  0  0  0
   16.2894  -20.7388    6.7815 O   0  0  0  0  0  0  0  0  0  0  0  0
   13.0592  -22.7200    4.9652 O   0  0  0  0  0  0  0  0  0  0  0  0
   17.7435  -22.3349    7.3970 O   0  0  0  0  0  0  0  0  0  0  0  0
  2  1  1  6
  2  3  1  0
  4  2  1  0
  5  4  1  0
  5  7  1  0
  5  6  1  1
  7  8  2  0
  7  9  1  0
  9 13  1  0
  9 10  1  0
 11 10  1  0
 12 13  1  0
 12 11  1  0
 13 14  1  6
 15 14  2  0
 16 14  1  0
 17 16  1  0
 17 21  1  0
 17 18  1  1
 19 18  1  0
 20 19  2  0
 21 24  1  0
 22 21  2  0
 23 19  1  0
M  END
$$$$
