LPD.pdb
     RDKit          3D

 24 24  0  0  1  0  0  0  0  0999 V2000
   26.8477  -22.6077  -15.4953 C   0  0  0  0  0  0  0  0  0  0  0  0
   25.7631  -23.1796  -14.5930 C   0  0  2  0  0  0  0  0  0  0  0  0
   24.9604  -24.1568  -15.4302 C   0  0  0  0  0  0  0  0  0  0  0  0
   24.8929  -22.0939  -14.0205 C   0  0  0  0  0  0  0  0  0  0  0  0
   25.7311  -21.0842  -13.2661 C   0  0  2  0  0  0  0  0  0  0  0  0
   25.8631  -21.4897  -11.9086 N   0  0  0  0  0  0  0  0  0  0  0  0
   25.2635  -19.7198  -13.4459 C   0  0  0  0  0  0  0  0  0  0  0  0
   24.1718  -19.4096  -12.8799 O   0  0  0  0  0  0  0  0  0  0  0  0
   25.9646  -18.7298  -14.2193 N   0  0  0  0  0  0  0  0  0  0  0  0
   27.3165  -18.9166  -14.6713 C   0  0  0  0  0  0  0  0  0  0  0  0
   27.7346  -17.5983  -15.2463 C   0  0  0  0  0  0  0  0  0  0  0  0
   26.4473  -16.9080  -15.6198 C   0  0  0  0  0  0  0  0  0  0  0  0
   25.4880  -17.4559  -14.6241 C   0  0  1  0  0  0  0  0  0  0  0  0
   24.0958  -17.4478  -15.1590 C   0  0  0  0  0  0  0  0  0  0  0  0
   23.5023  -16.3573  -15.2599 O   0  0  0  0  0  0  0  0  0  0  0  0
   23.4410  -18.6307  -15.5492 N   0  0  0  0  0  0  0  0  0  0  0  0
   22.1012  -18.6284  -16.1673 C   0  0  1  0  0  0  0  0  0  0  0  0
   22.1675  -19.1849  -17.5423 C   0  0  0  0  0  0  0  0  0  0  0  0
   22.6200  -18.2257  -18.5615 C   0  0  0  0  0  0  0  0  0  0  0  0
   22.9300  -17.0672  -18.2608 O   0  0  0  0  0  0  0  0  0  0  0  0
   21.1830  -19.4256  -15.3343 C   0  0  0  0  0  0  0  0  0  0  0  0
   21.4886  -20.3721  -14.6021 O   0  0  0  0  0  0  0  0  0  0  0  0
   22.7144  -18.6016  -19.9202 O   0  0  0  0  0  0  0  0  0  0  0  0
   19.8161  -19.0841  -15.3667 O   0  0  0  0  0  0  0  0  0  0  0  0
  2  1  1  6
  2  3  1  0
  4  2  1  0
  5  4  1  0
  5  7  1  0
  5  6  1  1
  7  8  2  0
  7  9  1  0
  9 13  1  0
  9 10  1  0
 11 10  1  0
 12 13  1  0
 12 11  1  0
 13 14  1  6
 15 14  2  0
 16 14  1  0
 17 16  1  0
 17 21  1  0
 17 18  1  6
 19 18  1  0
 20 19  2  0
 21 24  1  0
 22 21  2  0
 23 19  1  0
M  END
$$$$
