DTC.pdb
     RDKit          3D

 22 21  0  0  1  0  0  0  0  0999 V2000
    9.1985  -15.6684   13.9135 N   0  0  0  0  0  0  0  0  0  0  0  0
    8.2439  -15.6307   15.0050 C   0  0  1  0  0  0  0  0  0  0  0  0
    7.4352  -16.9082   15.0446 C   0  0  0  0  0  0  0  0  0  0  0  0
    7.8184  -17.7392   13.8771 C   0  0  0  0  0  0  0  0  0  0  0  0
    8.6146  -18.7025   13.9875 O   0  0  0  0  0  0  0  0  0  0  0  0
    8.9837  -15.4033   16.2663 C   0  0  0  0  0  0  0  0  0  0  0  0
   10.2600  -15.4829   16.3073 O   0  0  0  0  0  0  0  0  0  0  0  0
    7.2892  -17.4552   12.6204 O   0  0  0  0  0  0  0  0  0  0  0  0
    7.8635  -12.5791   18.8229 C   0  0  0  0  0  0  0  0  0  0  0  0
    8.2532  -13.8340   19.5834 C   0  0  1  0  0  0  0  0  0  0  0  0
    7.0963  -14.4108   20.0523 O   0  0  0  0  0  0  0  0  0  0  0  0
    9.0623  -14.7760   18.7158 C   0  0  2  0  0  0  0  0  0  0  0  0
    8.3572  -15.0878   17.4958 N   0  0  0  0  0  0  0  0  0  0  0  0
    9.4048  -15.9493   19.5152 C   0  0  0  0  0  0  0  0  0  0  0  0
    9.2105  -17.0941   19.0343 O   0  0  0  0  0  0  0  0  0  0  0  0
    9.9602  -15.8982   20.8410 N   0  0  0  0  0  0  0  0  0  0  0  0
   10.8118  -16.9214   21.3707 C   0  0  1  0  0  0  0  0  0  0  0  0
   12.0627  -17.1303   20.5500 C   0  0  0  0  0  0  0  0  0  0  0  0
   13.1871  -18.3133   21.2870 S   0  0  0  0  0  0  0  0  0  0  0  0
   11.1209  -16.6121   22.7844 C   0  0  0  0  0  0  0  0  0  0  0  0
   11.4312  -15.4556   23.1586 O   0  0  0  0  0  0  0  0  0  0  0  0
   11.0655  -17.6296   23.7191 O   0  0  0  0  0  0  0  0  0  0  0  0
  2  1  1  6
  3  2  1  0
  3  4  1  0
  4  5  2  0
  6  2  1  0
  6 13  1  0
  7  6  2  0
  8  4  1  0
 10  9  1  6
 11 10  1  0
 12 10  1  0
 12 14  1  0
 12 13  1  6
 14 15  2  0
 16 14  1  0
 16 17  1  0
 17 20  1  0
 17 18  1  6
 19 18  1  0
 20 22  1  0
 21 20  2  0
M  END
$$$$
