DTC.pdb
     RDKit          3D

 22 21  0  0  1  0  0  0  0  0999 V2000
   12.4641  -14.9265   17.4288 N   0  0  0  0  0  0  0  0  0  0  0  0
   12.6707  -15.2206   18.8341 C   0  0  1  0  0  0  0  0  0  0  0  0
   13.9542  -14.5880   19.3237 C   0  0  0  0  0  0  0  0  0  0  0  0
   15.0945  -15.3118   18.7105 C   0  0  0  0  0  0  0  0  0  0  0  0
   15.4223  -16.4631   19.0862 O   0  0  0  0  0  0  0  0  0  0  0  0
   11.4925  -14.7419   19.5907 C   0  0  0  0  0  0  0  0  0  0  0  0
   11.1395  -13.5127   19.5556 O   0  0  0  0  0  0  0  0  0  0  0  0
   15.8293  -14.7113   17.6909 O   0  0  0  0  0  0  0  0  0  0  0  0
    7.0419  -15.2603   21.3451 C   0  0  0  0  0  0  0  0  0  0  0  0
    8.2808  -15.8578   20.7025 C   0  0  1  0  0  0  0  0  0  0  0  0
    8.1014  -15.8178   19.3398 O   0  0  0  0  0  0  0  0  0  0  0  0
    9.5356  -15.1338   21.1453 C   0  0  2  0  0  0  0  0  0  0  0  0
   10.6826  -15.5815   20.3925 N   0  0  0  0  0  0  0  0  0  0  0  0
    9.6743  -15.3056   22.5890 C   0  0  0  0  0  0  0  0  0  0  0  0
   10.4839  -16.1610   23.0275 O   0  0  0  0  0  0  0  0  0  0  0  0
    8.9404  -14.5559   23.5730 N   0  0  0  0  0  0  0  0  0  0  0  0
    9.0084  -14.8342   24.9768 C   0  0  1  0  0  0  0  0  0  0  0  0
    8.2551  -13.8275   25.8142 C   0  0  0  0  0  0  0  0  0  0  0  0
    6.5554  -13.6209   25.2894 S   0  0  0  0  0  0  0  0  0  0  0  0
    8.5432  -16.2176   25.2206 C   0  0  0  0  0  0  0  0  0  0  0  0
    7.9018  -16.8643   24.3579 O   0  0  0  0  0  0  0  0  0  0  0  0
    8.8250  -16.8134   26.4362 O   0  0  0  0  0  0  0  0  0  0  0  0
  2  1  1  6
  3  2  1  0
  3  4  1  0
  4  5  2  0
  6  2  1  0
  6 13  1  0
  7  6  2  0
  8  4  1  0
 10  9  1  1
 11 10  1  0
 12 10  1  0
 12 14  1  0
 12 13  1  6
 14 15  2  0
 16 14  1  0
 16 17  1  0
 17 20  1  0
 17 18  1  1
 19 18  1  0
 20 22  1  0
 21 20  2  0
M  END
$$$$
