DTC.pdb
     RDKit          3D

 22 21  0  0  1  0  0  0  0  0999 V2000
   11.4168  -17.2890   18.9201 N   0  0  0  0  0  0  0  0  0  0  0  0
   11.6687  -17.3387   20.3478 C   0  0  1  0  0  0  0  0  0  0  0  0
   13.1509  -17.2277   20.6274 C   0  0  0  0  0  0  0  0  0  0  0  0
   13.8027  -18.4882   20.1958 C   0  0  0  0  0  0  0  0  0  0  0  0
   14.5276  -18.5379   19.1729 O   0  0  0  0  0  0  0  0  0  0  0  0
   10.8989  -16.2545   20.9970 C   0  0  0  0  0  0  0  0  0  0  0  0
   11.0694  -15.0314   20.6626 O   0  0  0  0  0  0  0  0  0  0  0  0
   13.6148  -19.6541   20.9342 O   0  0  0  0  0  0  0  0  0  0  0  0
    7.2056  -15.6603   20.9909 C   0  0  0  0  0  0  0  0  0  0  0  0
    7.6442  -15.7709   22.4401 C   0  0  1  0  0  0  0  0  0  0  0  0
    7.3358  -17.0398   22.8710 O   0  0  0  0  0  0  0  0  0  0  0  0
    9.1151  -15.4448   22.5977 C   0  0  2  0  0  0  0  0  0  0  0  0
    9.9379  -16.4759   22.0125 N   0  0  0  0  0  0  0  0  0  0  0  0
    9.3800  -15.2125   24.0151 C   0  0  0  0  0  0  0  0  0  0  0  0
   10.0366  -16.0670   24.6619 O   0  0  0  0  0  0  0  0  0  0  0  0
    8.9388  -14.0560   24.7477 N   0  0  0  0  0  0  0  0  0  0  0  0
    9.0777  -13.9320   26.1683 C   0  0  1  0  0  0  0  0  0  0  0  0
    8.4163  -12.6904   26.7188 C   0  0  0  0  0  0  0  0  0  0  0  0
    8.5969  -12.5365   28.4939 S   0  0  0  0  0  0  0  0  0  0  0  0
    8.5719  -15.1632   26.8149 C   0  0  0  0  0  0  0  0  0  0  0  0
    9.1937  -15.7273   27.7470 O   0  0  0  0  0  0  0  0  0  0  0  0
    7.3780  -15.7064   26.3770 O   0  0  0  0  0  0  0  0  0  0  0  0
  2  1  1  6
  3  2  1  0
  3  4  1  0
  4  5  2  0
  6  2  1  0
  6 13  1  0
  7  6  2  0
  8  4  1  0
 10  9  1  6
 11 10  1  0
 12 10  1  0
 12 14  1  0
 12 13  1  1
 14 15  2  0
 16 14  1  0
 16 17  1  0
 17 20  1  0
 17 18  1  1
 19 18  1  0
 20 22  1  0
 21 20  2  0
M  END
$$$$
