DTC.pdb
     RDKit          3D

 22 21  0  0  1  0  0  0  0  0999 V2000
    9.1067  -18.1591   16.1752 N   0  0  0  0  0  0  0  0  0  0  0  0
    8.0104  -17.5755   16.9246 C   0  0  1  0  0  0  0  0  0  0  0  0
    7.0727  -18.6551   17.4172 C   0  0  0  0  0  0  0  0  0  0  0  0
    6.7246  -19.5294   16.2706 C   0  0  0  0  0  0  0  0  0  0  0  0
    5.6581  -20.1898   16.2462 O   0  0  0  0  0  0  0  0  0  0  0  0
    8.5751  -16.7809   18.0379 C   0  0  0  0  0  0  0  0  0  0  0  0
    9.7296  -17.0472   18.5207 O   0  0  0  0  0  0  0  0  0  0  0  0
    7.5932  -19.6300   15.1866 O   0  0  0  0  0  0  0  0  0  0  0  0
    8.1553  -12.8294   21.1002 C   0  0  0  0  0  0  0  0  0  0  0  0
    7.5691  -13.6940   19.9985 C   0  0  1  0  0  0  0  0  0  0  0  0
    7.4261  -12.9035   18.8826 O   0  0  0  0  0  0  0  0  0  0  0  0
    8.4274  -14.9152   19.7400 C   0  0  2  0  0  0  0  0  0  0  0  0
    7.9028  -15.6918   18.6425 N   0  0  0  0  0  0  0  0  0  0  0  0
    8.5426  -15.6628   20.9893 C   0  0  0  0  0  0  0  0  0  0  0  0
    7.5983  -16.4138   21.3411 O   0  0  0  0  0  0  0  0  0  0  0  0
    9.6780  -15.6069   21.8706 N   0  0  0  0  0  0  0  0  0  0  0  0
    9.7844  -16.4015   23.0581 C   0  0  1  0  0  0  0  0  0  0  0  0
   10.4400  -17.7404   22.8145 C   0  0  0  0  0  0  0  0  0  0  0  0
   12.0834  -17.5924   22.1185 S   0  0  0  0  0  0  0  0  0  0  0  0
   10.4856  -15.6222   24.1025 C   0  0  0  0  0  0  0  0  0  0  0  0
   10.5777  -16.0294   25.2855 O   0  0  0  0  0  0  0  0  0  0  0  0
   11.0557  -14.4092   23.7620 O   0  0  0  0  0  0  0  0  0  0  0  0
  2  1  1  1
  3  2  1  0
  3  4  1  0
  4  5  2  0
  6  2  1  0
  6 13  1  0
  7  6  2  0
  8  4  1  0
 10  9  1  1
 11 10  1  0
 12 10  1  0
 12 14  1  0
 12 13  1  6
 14 15  2  0
 16 14  1  0
 16 17  1  0
 17 20  1  0
 17 18  1  6
 19 18  1  0
 20 22  1  0
 21 20  2  0
M  END
$$$$
