DTC.pdb
     RDKit          3D

 22 21  0  0  1  0  0  0  0  0999 V2000
   12.3712  -18.8469   20.6150 N   0  0  0  0  0  0  0  0  0  0  0  0
   12.9880  -17.6332   21.1155 C   0  0  1  0  0  0  0  0  0  0  0  0
   13.6126  -16.8510   19.9817 C   0  0  0  0  0  0  0  0  0  0  0  0
   14.8848  -17.5133   19.6035 C   0  0  0  0  0  0  0  0  0  0  0  0
   15.6014  -18.0963   20.4525 O   0  0  0  0  0  0  0  0  0  0  0  0
   11.9594  -16.8463   21.8316 C   0  0  0  0  0  0  0  0  0  0  0  0
   11.8146  -15.5941   21.6131 O   0  0  0  0  0  0  0  0  0  0  0  0
   15.3078  -17.4961   18.2766 O   0  0  0  0  0  0  0  0  0  0  0  0
    8.1280  -17.6449   22.1166 C   0  0  0  0  0  0  0  0  0  0  0  0
    8.7452  -17.4912   23.4952 C   0  0  1  0  0  0  0  0  0  0  0  0
    8.9539  -18.7534   23.9992 O   0  0  0  0  0  0  0  0  0  0  0  0
   10.0164  -16.6690   23.4419 C   0  0  2  0  0  0  0  0  0  0  0  0
   11.0766  -17.3995   22.7899 N   0  0  0  0  0  0  0  0  0  0  0  0
   10.3415  -16.2457   24.8014 C   0  0  0  0  0  0  0  0  0  0  0  0
   11.2557  -16.8417   25.4246 O   0  0  0  0  0  0  0  0  0  0  0  0
    9.6830  -15.1753   25.5009 N   0  0  0  0  0  0  0  0  0  0  0  0
   10.0254  -14.7892   26.8375 C   0  0  1  0  0  0  0  0  0  0  0  0
    9.2059  -13.6251   27.3428 C   0  0  0  0  0  0  0  0  0  0  0  0
    9.6110  -13.1697   29.0267 S   0  0  0  0  0  0  0  0  0  0  0  0
    9.9205  -15.9684   27.7254 C   0  0  0  0  0  0  0  0  0  0  0  0
    9.0177  -16.8279   27.5841 O   0  0  0  0  0  0  0  0  0  0  0  0
   10.8463  -16.1255   28.7405 O   0  0  0  0  0  0  0  0  0  0  0  0
  2  1  1  6
  3  2  1  0
  3  4  1  0
  4  5  2  0
  6  2  1  0
  6 13  1  0
  7  6  2  0
  8  4  1  0
 10  9  1  6
 11 10  1  0
 12 10  1  0
 12 14  1  0
 12 13  1  1
 14 15  2  0
 16 14  1  0
 16 17  1  0
 17 20  1  0
 17 18  1  1
 19 18  1  0
 20 22  1  0
 21 20  2  0
M  END
$$$$
