DTC.pdb
     RDKit          3D

 22 21  0  0  1  0  0  0  0  0999 V2000
   12.2515  -18.3315   20.8224 N   0  0  0  0  0  0  0  0  0  0  0  0
   13.1655  -17.6006   21.6795 C   0  0  1  0  0  0  0  0  0  0  0  0
   14.1503  -16.8084   20.8487 C   0  0  0  0  0  0  0  0  0  0  0  0
   15.3491  -17.6506   20.6174 C   0  0  0  0  0  0  0  0  0  0  0  0
   15.3519  -18.8778   20.8784 O   0  0  0  0  0  0  0  0  0  0  0  0
   12.3722  -16.7321   22.5772 C   0  0  0  0  0  0  0  0  0  0  0  0
   12.6258  -15.4824   22.6815 O   0  0  0  0  0  0  0  0  0  0  0  0
   16.5082  -17.0792   20.0979 O   0  0  0  0  0  0  0  0  0  0  0  0
    8.4389  -16.4994   22.8361 C   0  0  0  0  0  0  0  0  0  0  0  0
    9.0461  -16.7723   24.2006 C   0  0  1  0  0  0  0  0  0  0  0  0
    8.8584  -18.1058   24.4788 O   0  0  0  0  0  0  0  0  0  0  0  0
   10.5055  -16.3688   24.2456 C   0  0  2  0  0  0  0  0  0  0  0  0
   11.2980  -17.1999   23.3716 N   0  0  0  0  0  0  0  0  0  0  0  0
   10.9417  -16.3948   25.6393 C   0  0  0  0  0  0  0  0  0  0  0  0
   11.8144  -17.2280   25.9909 O   0  0  0  0  0  0  0  0  0  0  0  0
   10.4400  -15.5218   26.6664 N   0  0  0  0  0  0  0  0  0  0  0  0
   10.8275  -15.6307   28.0415 C   0  0  1  0  0  0  0  0  0  0  0  0
   10.4142  -14.4349   28.8667 C   0  0  0  0  0  0  0  0  0  0  0  0
   10.2910  -12.9328   27.8994 S   0  0  0  0  0  0  0  0  0  0  0  0
   10.2991  -16.8969   28.5960 C   0  0  0  0  0  0  0  0  0  0  0  0
    9.4862  -17.6115   27.9617 O   0  0  0  0  0  0  0  0  0  0  0  0
   10.7150  -17.3025   29.8508 O   0  0  0  0  0  0  0  0  0  0  0  0
  2  1  1  6
  3  2  1  0
  3  4  1  0
  4  5  2  0
  6  2  1  0
  6 13  1  0
  7  6  2  0
  8  4  1  0
 10  9  1  6
 11 10  1  0
 12 10  1  0
 12 14  1  0
 12 13  1  6
 14 15  2  0
 16 14  1  0
 16 17  1  0
 17 20  1  0
 17 18  1  1
 19 18  1  0
 20 22  1  0
 21 20  2  0
M  END
$$$$
