DTC.pdb
     RDKit          3D

 22 21  0  0  1  0  0  0  0  0999 V2000
   10.3386  -18.4029   20.2379 N   0  0  0  0  0  0  0  0  0  0  0  0
   11.3715  -17.3998   20.4137 C   0  0  1  0  0  0  0  0  0  0  0  0
   11.8959  -16.9398   19.0717 C   0  0  0  0  0  0  0  0  0  0  0  0
   12.8756  -17.9418   18.5855 C   0  0  0  0  0  0  0  0  0  0  0  0
   12.5297  -19.1108   18.2889 O   0  0  0  0  0  0  0  0  0  0  0  0
   10.8083  -16.2813   21.2022 C   0  0  0  0  0  0  0  0  0  0  0  0
   11.4984  -15.2320   21.4467 O   0  0  0  0  0  0  0  0  0  0  0  0
   14.2166  -17.5911   18.4495 O   0  0  0  0  0  0  0  0  0  0  0  0
    6.9743  -14.8637   21.0665 C   0  0  0  0  0  0  0  0  0  0  0  0
    7.4388  -15.2027   22.4715 C   0  0  1  0  0  0  0  0  0  0  0  0
    6.8670  -16.4041   22.8187 O   0  0  0  0  0  0  0  0  0  0  0  0
    8.9508  -15.2311   22.5609 C   0  0  2  0  0  0  0  0  0  0  0  0
    9.4970  -16.2810   21.7352 N   0  0  0  0  0  0  0  0  0  0  0  0
    9.3211  -15.3361   23.9698 C   0  0  0  0  0  0  0  0  0  0  0  0
    9.8510  -16.3974   24.3848 O   0  0  0  0  0  0  0  0  0  0  0  0
    9.1228  -14.2966   24.9440 N   0  0  0  0  0  0  0  0  0  0  0  0
    9.4939  -14.4360   26.3209 C   0  0  1  0  0  0  0  0  0  0  0  0
    9.2682  -13.1757   27.1225 C   0  0  0  0  0  0  0  0  0  0  0  0
    7.5848  -12.5748   27.0122 S   0  0  0  0  0  0  0  0  0  0  0  0
    8.7823  -15.5970   26.9003 C   0  0  0  0  0  0  0  0  0  0  0  0
    9.1250  -16.1079   27.9936 O   0  0  0  0  0  0  0  0  0  0  0  0
    7.7079  -16.1330   26.2144 O   0  0  0  0  0  0  0  0  0  0  0  0
  2  1  1  6
  3  2  1  0
  3  4  1  0
  4  5  2  0
  6  2  1  0
  6 13  1  0
  7  6  2  0
  8  4  1  0
 10  9  1  6
 11 10  1  0
 12 10  1  0
 12 14  1  0
 12 13  1  6
 14 15  2  0
 16 14  1  0
 16 17  1  0
 17 20  1  0
 17 18  1  1
 19 18  1  0
 20 22  1  0
 21 20  2  0
M  END
$$$$
