DTC.pdb
     RDKit          3D

 22 21  0  0  1  0  0  0  0  0999 V2000
   10.6079  -18.0071   19.6550 N   0  0  0  0  0  0  0  0  0  0  0  0
   11.2153  -17.2692   20.7462 C   0  0  1  0  0  0  0  0  0  0  0  0
   12.4293  -16.5095   20.2597 C   0  0  0  0  0  0  0  0  0  0  0  0
   13.5136  -17.4855   19.9915 C   0  0  0  0  0  0  0  0  0  0  0  0
   13.7307  -18.4554   20.7571 O   0  0  0  0  0  0  0  0  0  0  0  0
   10.1946  -16.3697   21.3284 C   0  0  0  0  0  0  0  0  0  0  0  0
    9.7220  -15.3864   20.6601 O   0  0  0  0  0  0  0  0  0  0  0  0
   14.3193  -17.3346   18.8654 O   0  0  0  0  0  0  0  0  0  0  0  0
    6.7471  -16.9488   22.0491 C   0  0  0  0  0  0  0  0  0  0  0  0
    7.3520  -16.5418   23.3808 C   0  0  1  0  0  0  0  0  0  0  0  0
    7.5810  -17.6907   24.1007 O   0  0  0  0  0  0  0  0  0  0  0  0
    8.6077  -15.7169   23.1872 C   0  0  2  0  0  0  0  0  0  0  0  0
    9.6726  -16.5196   22.6356 N   0  0  0  0  0  0  0  0  0  0  0  0
    8.9418  -15.0909   24.4638 C   0  0  0  0  0  0  0  0  0  0  0  0
    9.9536  -15.4900   25.0936 O   0  0  0  0  0  0  0  0  0  0  0  0
    8.1872  -14.0285   25.0726 N   0  0  0  0  0  0  0  0  0  0  0  0
    8.5680  -13.4083   26.3068 C   0  0  1  0  0  0  0  0  0  0  0  0
    7.6431  -12.2846   26.7115 C   0  0  0  0  0  0  0  0  0  0  0  0
    5.9181  -12.7655   26.6963 S   0  0  0  0  0  0  0  0  0  0  0  0
    8.6753  -14.4445   27.3578 C   0  0  0  0  0  0  0  0  0  0  0  0
    8.1932  -15.5931   27.2097 O   0  0  0  0  0  0  0  0  0  0  0  0
    9.3269  -14.1352   28.5376 O   0  0  0  0  0  0  0  0  0  0  0  0
  2  1  1  6
  3  2  1  0
  3  4  1  0
  4  5  2  0
  6  2  1  0
  6 13  1  0
  7  6  2  0
  8  4  1  0
 10  9  1  6
 11 10  1  0
 12 10  1  0
 12 14  1  0
 12 13  1  1
 14 15  2  0
 16 14  1  0
 16 17  1  0
 17 20  1  0
 17 18  1  1
 19 18  1  0
 20 22  1  0
 21 20  2  0
M  END
$$$$
