DTC.pdb
     RDKit          3D

 22 21  0  0  1  0  0  0  0  0999 V2000
   12.6389  -17.1901   19.8595 N   0  0  0  0  0  0  0  0  0  0  0  0
   11.5699  -17.7038   20.6946 C   0  0  1  0  0  0  0  0  0  0  0  0
   12.0717  -18.8413   21.5558 C   0  0  0  0  0  0  0  0  0  0  0  0
   13.5228  -18.6432   21.7911 C   0  0  0  0  0  0  0  0  0  0  0  0
   14.0986  -19.1250   22.7963 O   0  0  0  0  0  0  0  0  0  0  0  0
   11.0327  -16.5889   21.5060 C   0  0  0  0  0  0  0  0  0  0  0  0
   11.7365  -15.5480   21.7467 O   0  0  0  0  0  0  0  0  0  0  0  0
   14.2783  -17.9061   20.8824 O   0  0  0  0  0  0  0  0  0  0  0  0
    7.1701  -14.3223   23.6794 C   0  0  0  0  0  0  0  0  0  0  0  0
    7.7095  -15.4971   22.8832 C   0  0  1  0  0  0  0  0  0  0  0  0
    7.2305  -15.3829   21.5993 O   0  0  0  0  0  0  0  0  0  0  0  0
    9.2225  -15.5515   22.9366 C   0  0  2  0  0  0  0  0  0  0  0  0
    9.7328  -16.5834   22.0662 N   0  0  0  0  0  0  0  0  0  0  0  0
    9.6230  -15.7062   24.3325 C   0  0  0  0  0  0  0  0  0  0  0  0
    9.9626  -16.8425   24.7483 O   0  0  0  0  0  0  0  0  0  0  0  0
    9.6607  -14.6360   25.2928 N   0  0  0  0  0  0  0  0  0  0  0  0
   10.0034  -14.8344   26.6698 C   0  0  1  0  0  0  0  0  0  0  0  0
   10.0032  -13.5517   27.4677 C   0  0  0  0  0  0  0  0  0  0  0  0
   10.4466  -13.8020   29.1846 S   0  0  0  0  0  0  0  0  0  0  0  0
    9.1001  -15.8509   27.2533 C   0  0  0  0  0  0  0  0  0  0  0  0
    7.8607  -15.8269   27.0605 O   0  0  0  0  0  0  0  0  0  0  0  0
    9.6403  -16.8563   28.0339 O   0  0  0  0  0  0  0  0  0  0  0  0
  2  1  1  1
  3  2  1  0
  3  4  1  0
  4  5  2  0
  6  2  1  0
  6 13  1  0
  7  6  2  0
  8  4  1  0
 10  9  1  1
 11 10  1  0
 12 10  1  0
 12 14  1  0
 12 13  1  6
 14 15  2  0
 16 14  1  0
 16 17  1  0
 17 20  1  0
 17 18  1  1
 19 18  1  0
 20 22  1  0
 21 20  2  0
M  END
$$$$
