DTC.pdb
     RDKit          3D

 22 21  0  0  1  0  0  0  0  0999 V2000
    5.3190  -20.2174   22.2909 N   0  0  0  0  0  0  0  0  0  0  0  0
    5.9139  -19.8973   23.5745 C   0  0  1  0  0  0  0  0  0  0  0  0
    6.6047  -21.1113   24.1546 C   0  0  0  0  0  0  0  0  0  0  0  0
    5.5980  -21.9126   24.8926 C   0  0  0  0  0  0  0  0  0  0  0  0
    4.5413  -22.3088   24.3443 O   0  0  0  0  0  0  0  0  0  0  0  0
    6.8472  -18.7641   23.3883 C   0  0  0  0  0  0  0  0  0  0  0  0
    8.0873  -18.8741   23.6829 O   0  0  0  0  0  0  0  0  0  0  0  0
    5.8172  -22.2413   26.2282 O   0  0  0  0  0  0  0  0  0  0  0  0
    7.3041  -16.7827   20.1385 C   0  0  0  0  0  0  0  0  0  0  0  0
    7.0762  -15.7891   21.2635 C   0  0  1  0  0  0  0  0  0  0  0  0
    5.7846  -15.3299   21.1559 O   0  0  0  0  0  0  0  0  0  0  0  0
    7.3616  -16.4109   22.6151 C   0  0  2  0  0  0  0  0  0  0  0  0
    6.4549  -17.5012   22.8833 N   0  0  0  0  0  0  0  0  0  0  0  0
    7.3237  -15.3518   23.6200 C   0  0  0  0  0  0  0  0  0  0  0  0
    6.2809  -14.6608   23.7403 O   0  0  0  0  0  0  0  0  0  0  0  0
    8.4109  -15.0286   24.5046 N   0  0  0  0  0  0  0  0  0  0  0  0
    8.3538  -13.9554   25.4520 C   0  0  1  0  0  0  0  0  0  0  0  0
    7.1751  -14.0603   26.3910 C   0  0  0  0  0  0  0  0  0  0  0  0
    7.1718  -12.7834   27.6466 S   0  0  0  0  0  0  0  0  0  0  0  0
    9.6394  -13.8827   26.1813 C   0  0  0  0  0  0  0  0  0  0  0  0
   10.5214  -14.7669   26.0622 O   0  0  0  0  0  0  0  0  0  0  0  0
    9.8734  -12.8073   27.0185 O   0  0  0  0  0  0  0  0  0  0  0  0
  2  1  1  6
  3  2  1  0
  3  4  1  0
  4  5  2  0
  6  2  1  0
  6 13  1  0
  7  6  2  0
  8  4  1  0
 10  9  1  6
 11 10  1  0
 12 10  1  0
 12 14  1  0
 12 13  1  1
 14 15  2  0
 16 14  1  0
 16 17  1  0
 17 20  1  0
 17 18  1  1
 19 18  1  0
 20 22  1  0
 21 20  2  0
M  END
$$$$
