DTC.pdb
     RDKit          3D

 22 21  0  0  1  0  0  0  0  0999 V2000
   10.0585  -18.4110   20.0251 N   0  0  0  0  0  0  0  0  0  0  0  0
   10.9916  -17.3007   19.9976 C   0  0  1  0  0  0  0  0  0  0  0  0
   11.1902  -16.8118   18.5802 C   0  0  0  0  0  0  0  0  0  0  0  0
   12.1897  -17.6871   17.9206 C   0  0  0  0  0  0  0  0  0  0  0  0
   12.7235  -18.6486   18.5247 O   0  0  0  0  0  0  0  0  0  0  0  0
   10.4767  -16.2344   20.8851 C   0  0  0  0  0  0  0  0  0  0  0  0
   10.9508  -15.0472   20.8356 O   0  0  0  0  0  0  0  0  0  0  0  0
   12.5551  -17.4482   16.5980 O   0  0  0  0  0  0  0  0  0  0  0  0
    6.8873  -15.0166   21.1668 C   0  0  0  0  0  0  0  0  0  0  0  0
    7.3591  -15.4043   22.5567 C   0  0  1  0  0  0  0  0  0  0  0  0
    6.8222  -16.6362   22.8483 O   0  0  0  0  0  0  0  0  0  0  0  0
    8.8711  -15.3923   22.6494 C   0  0  2  0  0  0  0  0  0  0  0  0
    9.4463  -16.4354   21.8347 N   0  0  0  0  0  0  0  0  0  0  0  0
    9.2409  -15.4743   24.0599 C   0  0  0  0  0  0  0  0  0  0  0  0
   10.1199  -16.2997   24.4141 O   0  0  0  0  0  0  0  0  0  0  0  0
    8.6654  -14.6662   25.1014 N   0  0  0  0  0  0  0  0  0  0  0  0
    9.0933  -14.7322   26.4672 C   0  0  1  0  0  0  0  0  0  0  0  0
    8.4214  -13.7032   27.3456 C   0  0  0  0  0  0  0  0  0  0  0  0
    8.5763  -12.0374   26.7067 S   0  0  0  0  0  0  0  0  0  0  0  0
    8.8934  -16.1086   26.9726 C   0  0  0  0  0  0  0  0  0  0  0  0
    8.2466  -16.9665   26.3250 O   0  0  0  0  0  0  0  0  0  0  0  0
    9.4366  -16.4574   28.1955 O   0  0  0  0  0  0  0  0  0  0  0  0
  2  1  1  6
  3  2  1  0
  3  4  1  0
  4  5  2  0
  6  2  1  0
  6 13  1  0
  7  6  2  0
  8  4  1  0
 10  9  1  6
 11 10  1  0
 12 10  1  0
 12 14  1  0
 12 13  1  6
 14 15  2  0
 16 14  1  0
 16 17  1  0
 17 20  1  0
 17 18  1  1
 19 18  1  0
 20 22  1  0
 21 20  2  0
M  END
$$$$
