DTC.pdb
     RDKit          3D

 22 21  0  0  1  0  0  0  0  0999 V2000
    8.9721  -17.9544   16.0852 N   0  0  0  0  0  0  0  0  0  0  0  0
    8.1680  -17.8300   17.2860 C   0  0  1  0  0  0  0  0  0  0  0  0
    8.1048  -19.1513   18.0193 C   0  0  0  0  0  0  0  0  0  0  0  0
    7.3201  -20.1042   17.1968 C   0  0  0  0  0  0  0  0  0  0  0  0
    6.5466  -19.7102   16.2910 O   0  0  0  0  0  0  0  0  0  0  0  0
    8.7439  -16.7565   18.1260 C   0  0  0  0  0  0  0  0  0  0  0  0
    9.9736  -16.7810   18.4783 O   0  0  0  0  0  0  0  0  0  0  0  0
    7.4343  -21.4736   17.4239 O   0  0  0  0  0  0  0  0  0  0  0  0
    8.2033  -12.2998   20.3454 C   0  0  0  0  0  0  0  0  0  0  0  0
    7.6400  -13.3954   19.4582 C   0  0  1  0  0  0  0  0  0  0  0  0
    7.4849  -12.8693   18.1973 O   0  0  0  0  0  0  0  0  0  0  0  0
    8.5250  -14.6248   19.4705 C   0  0  2  0  0  0  0  0  0  0  0  0
    8.0020  -15.6459   18.5950 N   0  0  0  0  0  0  0  0  0  0  0  0
    8.6806  -15.0592   20.8562 C   0  0  0  0  0  0  0  0  0  0  0  0
    7.6558  -15.3408   21.5269 O   0  0  0  0  0  0  0  0  0  0  0  0
    9.9437  -15.1939   21.5309 N   0  0  0  0  0  0  0  0  0  0  0  0
   10.0813  -15.8185   22.8130 C   0  0  1  0  0  0  0  0  0  0  0  0
    9.5174  -17.2195   22.8494 C   0  0  0  0  0  0  0  0  0  0  0  0
    9.8936  -18.0800   24.3743 S   0  0  0  0  0  0  0  0  0  0  0  0
   11.5033  -15.7820   23.2207 C   0  0  0  0  0  0  0  0  0  0  0  0
   11.8724  -16.1130   24.3732 O   0  0  0  0  0  0  0  0  0  0  0  0
   12.4519  -15.3705   22.3026 O   0  0  0  0  0  0  0  0  0  0  0  0
  2  1  1  6
  3  2  1  0
  3  4  1  0
  4  5  2  0
  6  2  1  0
  6 13  1  0
  7  6  2  0
  8  4  1  0
 10  9  1  1
 11 10  1  0
 12 10  1  0
 12 14  1  0
 12 13  1  6
 14 15  2  0
 16 14  1  0
 16 17  1  0
 17 20  1  0
 17 18  1  6
 19 18  1  0
 20 22  1  0
 21 20  2  0
M  END
$$$$
