DTC.pdb
     RDKit          3D

 22 21  0  0  1  0  0  0  0  0999 V2000
   11.5671  -18.7212   20.8211 N   0  0  0  0  0  0  0  0  0  0  0  0
   12.6075  -17.8011   21.2398 C   0  0  1  0  0  0  0  0  0  0  0  0
   13.2024  -17.0950   20.0419 C   0  0  0  0  0  0  0  0  0  0  0  0
   13.8902  -18.1039   19.1997 C   0  0  0  0  0  0  0  0  0  0  0  0
   14.8740  -18.7561   19.6249 O   0  0  0  0  0  0  0  0  0  0  0  0
   12.0269  -16.8494   22.2129 C   0  0  0  0  0  0  0  0  0  0  0  0
   12.6174  -15.7500   22.4948 O   0  0  0  0  0  0  0  0  0  0  0  0
   13.4442  -18.3443   17.9024 O   0  0  0  0  0  0  0  0  0  0  0  0
    8.0454  -15.9621   22.5578 C   0  0  0  0  0  0  0  0  0  0  0  0
    8.7016  -16.3310   23.8762 C   0  0  1  0  0  0  0  0  0  0  0  0
    8.3444  -17.6261   24.1691 O   0  0  0  0  0  0  0  0  0  0  0  0
   10.2034  -16.1413   23.8170 C   0  0  2  0  0  0  0  0  0  0  0  0
   10.8050  -17.0716   22.8921 N   0  0  0  0  0  0  0  0  0  0  0  0
   10.7280  -16.2390   25.1765 C   0  0  0  0  0  0  0  0  0  0  0  0
   11.4459  -17.2233   25.4851 O   0  0  0  0  0  0  0  0  0  0  0  0
   10.4827  -15.2753   26.2157 N   0  0  0  0  0  0  0  0  0  0  0  0
   11.0519  -15.3787   27.5265 C   0  0  1  0  0  0  0  0  0  0  0  0
   11.0649  -14.0631   28.2688 C   0  0  0  0  0  0  0  0  0  0  0  0
    9.5105  -13.1820   28.1473 S   0  0  0  0  0  0  0  0  0  0  0  0
   10.3423  -16.4350   28.2819 C   0  0  0  0  0  0  0  0  0  0  0  0
    9.2472  -16.9077   27.8932 O   0  0  0  0  0  0  0  0  0  0  0  0
   10.9048  -16.9137   29.4508 O   0  0  0  0  0  0  0  0  0  0  0  0
  2  1  1  6
  3  2  1  0
  3  4  1  0
  4  5  2  0
  6  2  1  0
  6 13  1  0
  7  6  2  0
  8  4  1  0
 10  9  1  6
 11 10  1  0
 12 10  1  0
 12 14  1  0
 12 13  1  6
 14 15  2  0
 16 14  1  0
 16 17  1  0
 17 20  1  0
 17 18  1  1
 19 18  1  0
 20 22  1  0
 21 20  2  0
M  END
$$$$
