RDD.pdb
     RDKit          3D

 28 27  0  0  1  0  0  0  0  0999 V2000
    9.0257  -13.7720   16.0496 N   0  0  0  0  0  0  0  0  0  0  0  0
    7.6965  -14.0557   16.4566 C   0  0  0  0  0  0  0  0  0  0  0  0
    6.8947  -14.5546   15.5917 N   0  0  0  0  0  0  0  0  0  0  0  0
    7.2395  -13.7971   17.7884 N   0  0  0  0  0  0  0  0  0  0  0  0
    7.9025  -12.7628   18.5993 C   0  0  0  0  0  0  0  0  0  0  0  0
    7.2021  -12.6907   19.9123 C   0  0  0  0  0  0  0  0  0  0  0  0
    7.7532  -13.5237   21.0049 C   0  0  0  0  0  0  0  0  0  0  0  0
    7.7574  -15.0030   20.8016 C   0  0  2  0  0  0  0  0  0  0  0  0
    6.4397  -15.5322   20.8566 N   0  0  0  0  0  0  0  0  0  0  0  0
    8.7561  -15.6367   21.6867 C   0  0  0  0  0  0  0  0  0  0  0  0
    8.7229  -15.3795   22.9484 O   0  0  0  0  0  0  0  0  0  0  0  0
    5.9255  -14.8255   15.7909 N   0  0  0  0  0  0  0  0  0  0  0  0
    9.7839  -16.5218   21.3109 C   0  0  2  0  0  0  0  0  0  0  0  0
   10.8221  -16.9868   22.2598 C   0  0  0  0  0  0  0  0  0  0  0  0
   10.7692  -18.4917   22.1692 C   0  0  0  0  0  0  0  0  0  0  0  0
   11.4825  -19.0750   23.3204 O   0  0  0  0  0  0  0  0  0  0  0  0
   12.0597  -18.3845   24.2219 C   0  0  0  0  0  0  0  0  0  0  0  0
   12.1480  -16.5156   21.8344 O   0  0  0  0  0  0  0  0  0  0  0  0
   12.2405  -15.7749   20.8316 O   0  0  0  0  0  0  0  0  0  0  0  0
   11.5170  -20.4822   23.4110 N   0  0  0  0  0  0  0  0  0  0  0  0
   13.3573  -16.8595   22.5078 C   0  0  1  0  0  0  0  0  0  0  0  0
   14.6079  -16.1683   22.3610 C   0  0  0  0  0  0  0  0  0  0  0  0
   14.4937  -14.9243   21.5203 C   0  0  0  0  0  0  0  0  0  0  0  0
   15.5957  -14.7566   20.5481 O   0  0  0  0  0  0  0  0  0  0  0  0
   16.7400  -15.1692   20.8229 C   0  0  0  0  0  0  0  0  0  0  0  0
   15.1781  -15.8911   23.6999 O   0  0  0  0  0  0  0  0  0  0  0  0
   14.5229  -16.1997   24.7339 O   0  0  0  0  0  0  0  0  0  0  0  0
   15.3727  -14.1430   19.3308 O   0  0  0  0  0  0  0  0  0  0  0  0
  1  2  1  0
  2  3  2  0
  4  2  1  0
  5  4  1  0
  6  5  1  0
  7  6  1  0
  8 10  1  0
  8  7  1  0
  8  9  1  1
 10 12  1  0
 11 10  2  0
 12 13  1  0
 13 14  1  1
 13 17  1  0
 15 19  1  0
 15 14  1  0
 16 15  2  0
 17 18  2  0
 17 20  1  0
 20 21  1  0
 21 25  1  0
 21 22  1  1
 23 22  1  0
 24 23  2  0
 25 28  1  0
 26 25  2  0
 27 23  1  0
M  END
$$$$
