RDD.pdb
     RDKit          3D

 28 27  0  0  1  0  0  0  0  0999 V2000
    6.2376  -19.4957   14.9528 N   0  0  0  0  0  0  0  0  0  0  0  0
    6.6892  -18.9840   16.1966 C   0  0  0  0  0  0  0  0  0  0  0  0
    7.9400  -18.7451   16.3317 N   0  0  0  0  0  0  0  0  0  0  0  0
    5.7933  -18.7372   17.2855 N   0  0  0  0  0  0  0  0  0  0  0  0
    6.3144  -18.1932   18.5502 C   0  0  0  0  0  0  0  0  0  0  0  0
    6.8881  -19.3231   19.3335 C   0  0  0  0  0  0  0  0  0  0  0  0
    7.5339  -18.9781   20.6201 C   0  0  0  0  0  0  0  0  0  0  0  0
    8.1692  -20.0910   21.3865 C   0  0  2  0  0  0  0  0  0  0  0  0
    7.6633  -21.3530   20.9731 N   0  0  0  0  0  0  0  0  0  0  0  0
    8.1183  -19.8067   22.8353 C   0  0  0  0  0  0  0  0  0  0  0  0
    8.4709  -18.6408   23.2544 O   0  0  0  0  0  0  0  0  0  0  0  0
    8.3775  -18.4326   17.2055 N   0  0  0  0  0  0  0  0  0  0  0  0
    7.7183  -20.6851   23.8597 C   0  0  1  0  0  0  0  0  0  0  0  0
    7.8194  -20.3342   25.2954 C   0  0  0  0  0  0  0  0  0  0  0  0
    6.7437  -21.1559   25.9613 C   0  0  0  0  0  0  0  0  0  0  0  0
    6.6937  -20.8226   27.3968 O   0  0  0  0  0  0  0  0  0  0  0  0
    7.4288  -19.9394   27.9465 C   0  0  0  0  0  0  0  0  0  0  0  0
    9.1341  -20.7260   25.8236 O   0  0  0  0  0  0  0  0  0  0  0  0
    9.4018  -21.9398   25.9576 O   0  0  0  0  0  0  0  0  0  0  0  0
    5.7714  -21.5348   28.1916 N   0  0  0  0  0  0  0  0  0  0  0  0
   10.1407  -19.7883   26.2004 C   0  0  1  0  0  0  0  0  0  0  0  0
   11.4024  -20.1284   26.7968 C   0  0  0  0  0  0  0  0  0  0  0  0
   12.5518  -19.3439   26.2216 C   0  0  0  0  0  0  0  0  0  0  0  0
   12.7626  -19.5663   24.7747 O   0  0  0  0  0  0  0  0  0  0  0  0
   12.8059  -18.5956   23.9928 C   0  0  0  0  0  0  0  0  0  0  0  0
   11.3061  -19.9866   28.2683 O   0  0  0  0  0  0  0  0  0  0  0  0
   10.2898  -19.4377   28.7777 O   0  0  0  0  0  0  0  0  0  0  0  0
   12.9122  -20.8448   24.2737 O   0  0  0  0  0  0  0  0  0  0  0  0
  1  2  1  0
  2  3  2  0
  4  2  1  0
  5  4  1  0
  6  5  1  0
  7  6  1  0
  8 10  1  0
  8  7  1  0
  8  9  1  1
 10 12  1  0
 11 10  2  0
 12 13  1  0
 13 14  1  1
 13 17  1  0
 15 19  1  0
 15 14  1  0
 16 15  2  0
 17 18  2  0
 17 20  1  0
 20 21  1  0
 21 25  1  0
 21 22  1  6
 23 22  1  0
 24 23  2  0
 25 28  1  0
 26 25  2  0
 27 23  1  0
M  END
$$$$
