RDD.pdb
     RDKit          3D

 28 27  0  0  1  0  0  0  0  0999 V2000
    8.2152  -13.3862   15.2213 N   0  0  0  0  0  0  0  0  0  0  0  0
    7.6350  -13.8593   16.4264 C   0  0  0  0  0  0  0  0  0  0  0  0
    7.5420  -13.0454   17.4107 N   0  0  0  0  0  0  0  0  0  0  0  0
    7.1633  -15.2038   16.5644 N   0  0  0  0  0  0  0  0  0  0  0  0
    6.6702  -15.6737   17.8693 C   0  0  0  0  0  0  0  0  0  0  0  0
    7.8492  -16.0700   18.6894 C   0  0  0  0  0  0  0  0  0  0  0  0
    8.6158  -17.2475   18.2235 C   0  0  0  0  0  0  0  0  0  0  0  0
    9.8339  -17.6220   19.0017 C   0  0  2  0  0  0  0  0  0  0  0  0
   10.5303  -16.4678   19.4517 N   0  0  0  0  0  0  0  0  0  0  0  0
   10.6295  -18.6185   18.2556 C   0  0  0  0  0  0  0  0  0  0  0  0
   10.1443  -19.7988   18.0809 O   0  0  0  0  0  0  0  0  0  0  0  0
    7.2075  -13.3047   18.3452 N   0  0  0  0  0  0  0  0  0  0  0  0
   11.9047  -18.4353   17.6888 C   0  0  2  0  0  0  0  0  0  0  0  0
   12.6272  -19.5198   16.9843 C   0  0  0  0  0  0  0  0  0  0  0  0
   13.1019  -18.8851   15.7007 C   0  0  0  0  0  0  0  0  0  0  0  0
   11.9534  -18.6994   14.7947 O   0  0  0  0  0  0  0  0  0  0  0  0
   10.9587  -19.4931   14.7376 C   0  0  0  0  0  0  0  0  0  0  0  0
   13.7875  -19.9555   17.7749 O   0  0  0  0  0  0  0  0  0  0  0  0
   14.4767  -20.9167   17.3700 O   0  0  0  0  0  0  0  0  0  0  0  0
   11.9763  -17.5708   13.9488 N   0  0  0  0  0  0  0  0  0  0  0  0
   14.1811  -19.3376   18.9986 C   0  0  1  0  0  0  0  0  0  0  0  0
   15.2697  -19.7722   19.8288 C   0  0  0  0  0  0  0  0  0  0  0  0
   16.2964  -18.6951   20.0587 C   0  0  0  0  0  0  0  0  0  0  0  0
   16.8714  -18.1417   18.8134 O   0  0  0  0  0  0  0  0  0  0  0  0
   16.6483  -16.9568   18.4944 C   0  0  0  0  0  0  0  0  0  0  0  0
   14.7344  -20.3180   21.0978 O   0  0  0  0  0  0  0  0  0  0  0  0
   15.5167  -20.8741   21.9178 O   0  0  0  0  0  0  0  0  0  0  0  0
   17.6573  -18.9262   17.9919 O   0  0  0  0  0  0  0  0  0  0  0  0
  1  2  1  0
  2  3  2  0
  4  2  1  0
  5  4  1  0
  6  5  1  0
  7  6  1  0
  8 10  1  0
  8  7  1  0
  8  9  1  6
 10 12  1  0
 11 10  2  0
 12 13  1  0
 13 14  1  1
 13 17  1  0
 15 19  1  0
 15 14  1  0
 16 15  2  0
 17 18  2  0
 17 20  1  0
 20 21  1  0
 21 25  1  0
 21 22  1  6
 23 22  1  0
 24 23  2  0
 25 28  1  0
 26 25  2  0
 27 23  1  0
M  END
$$$$
