RDD.pdb
     RDKit          3D

 28 27  0  0  1  0  0  0  0  0999 V2000
    7.7716  -11.3557   20.2693 N   0  0  0  0  0  0  0  0  0  0  0  0
    8.0699  -12.5421   19.5507 C   0  0  0  0  0  0  0  0  0  0  0  0
    7.2012  -12.9756   18.7157 N   0  0  0  0  0  0  0  0  0  0  0  0
    9.2974  -13.2543   19.7385 N   0  0  0  0  0  0  0  0  0  0  0  0
    9.5332  -14.5082   19.0044 C   0  0  0  0  0  0  0  0  0  0  0  0
    9.6906  -15.6019   20.0037 C   0  0  0  0  0  0  0  0  0  0  0  0
    9.8912  -16.9669   19.4674 C   0  0  0  0  0  0  0  0  0  0  0  0
   10.0057  -18.0802   20.4559 C   0  0  2  0  0  0  0  0  0  0  0  0
    8.9390  -18.0450   21.3942 N   0  0  0  0  0  0  0  0  0  0  0  0
   11.3715  -18.1255   21.0171 C   0  0  0  0  0  0  0  0  0  0  0  0
   12.3772  -18.0841   20.2134 O   0  0  0  0  0  0  0  0  0  0  0  0
    7.2801  -13.8639   18.2085 N   0  0  0  0  0  0  0  0  0  0  0  0
   11.7291  -18.2136   22.3756 C   0  0  2  0  0  0  0  0  0  0  0  0
   13.1328  -18.1131   22.8386 C   0  0  0  0  0  0  0  0  0  0  0  0
   13.6449  -16.8378   22.2163 C   0  0  0  0  0  0  0  0  0  0  0  0
   15.0933  -16.7207   22.4661 O   0  0  0  0  0  0  0  0  0  0  0  0
   15.9813  -16.8327   21.5597 C   0  0  0  0  0  0  0  0  0  0  0  0
   13.1784  -17.9975   24.3033 O   0  0  0  0  0  0  0  0  0  0  0  0
   12.4585  -17.1482   24.8720 O   0  0  0  0  0  0  0  0  0  0  0  0
   15.4998  -16.4701   23.7934 N   0  0  0  0  0  0  0  0  0  0  0  0
   14.0100  -18.8095   25.1300 C   0  0  1  0  0  0  0  0  0  0  0  0
   13.5483  -19.6134   26.2272 C   0  0  0  0  0  0  0  0  0  0  0  0
   12.4648  -20.5802   25.8289 C   0  0  0  0  0  0  0  0  0  0  0  0
   11.2605  -20.5143   26.6850 O   0  0  0  0  0  0  0  0  0  0  0  0
   10.1875  -21.0156   26.2942 C   0  0  0  0  0  0  0  0  0  0  0  0
   14.7025  -20.2929   26.8602 O   0  0  0  0  0  0  0  0  0  0  0  0
   14.8371  -20.2572   28.1149 O   0  0  0  0  0  0  0  0  0  0  0  0
   11.3085  -19.8990   27.9207 O   0  0  0  0  0  0  0  0  0  0  0  0
  1  2  1  0
  2  3  2  0
  4  2  1  0
  5  4  1  0
  6  5  1  0
  7  6  1  0
  8 10  1  0
  8  7  1  0
  8  9  1  1
 10 12  1  0
 11 10  2  0
 12 13  1  0
 13 14  1  6
 13 17  1  0
 15 19  1  0
 15 14  1  0
 16 15  2  0
 17 18  2  0
 17 20  1  0
 20 21  1  0
 21 25  1  0
 21 22  1  1
 23 22  1  0
 24 23  2  0
 25 28  1  0
 26 25  2  0
 27 23  1  0
M  END
$$$$
