RDD.pdb
     RDKit          3D

 28 27  0  0  1  0  0  0  0  0999 V2000
    8.1780  -13.5308   17.4248 N   0  0  0  0  0  0  0  0  0  0  0  0
    8.4336  -13.3318   18.8061 C   0  0  0  0  0  0  0  0  0  0  0  0
    8.7622  -12.1569   19.1951 N   0  0  0  0  0  0  0  0  0  0  0  0
    8.3376  -14.3980   19.7565 N   0  0  0  0  0  0  0  0  0  0  0  0
    7.0501  -14.6757   20.4138 C   0  0  0  0  0  0  0  0  0  0  0  0
    7.0503  -13.9838   21.7333 C   0  0  0  0  0  0  0  0  0  0  0  0
    7.7466  -14.6723   22.8434 C   0  0  0  0  0  0  0  0  0  0  0  0
    8.5080  -15.9124   22.5086 C   0  0  2  0  0  0  0  0  0  0  0  0
    7.6296  -16.9903   22.2152 N   0  0  0  0  0  0  0  0  0  0  0  0
    9.5413  -16.1687   23.5328 C   0  0  0  0  0  0  0  0  0  0  0  0
   10.2341  -15.1793   23.9802 O   0  0  0  0  0  0  0  0  0  0  0  0
    8.8929  -11.3559   18.5676 N   0  0  0  0  0  0  0  0  0  0  0  0
    9.8810  -17.4090   24.1049 C   0  0  1  0  0  0  0  0  0  0  0  0
   10.9357  -17.5493   25.1357 C   0  0  0  0  0  0  0  0  0  0  0  0
   10.2508  -18.2494   26.2832 C   0  0  0  0  0  0  0  0  0  0  0  0
   11.1939  -18.3767   27.4095 O   0  0  0  0  0  0  0  0  0  0  0  0
   10.8911  -18.1250   28.6209 C   0  0  0  0  0  0  0  0  0  0  0  0
   12.0314  -18.3897   24.6315 O   0  0  0  0  0  0  0  0  0  0  0  0
   11.8012  -19.5832   24.3390 O   0  0  0  0  0  0  0  0  0  0  0  0
   12.5040  -18.8034   27.1074 N   0  0  0  0  0  0  0  0  0  0  0  0
   13.3655  -17.9179   24.4537 C   0  0  1  0  0  0  0  0  0  0  0  0
   14.4405  -18.6805   23.8825 C   0  0  0  0  0  0  0  0  0  0  0  0
   15.1582  -17.9462   22.7812 C   0  0  0  0  0  0  0  0  0  0  0  0
   14.3539  -17.7788   21.5513 O   0  0  0  0  0  0  0  0  0  0  0  0
   13.1722  -18.1762   21.5182 C   0  0  0  0  0  0  0  0  0  0  0  0
   15.3603  -19.1180   24.9583 O   0  0  0  0  0  0  0  0  0  0  0  0
   15.7657  -20.3132   24.9858 O   0  0  0  0  0  0  0  0  0  0  0  0
   14.8987  -17.1848   20.4296 O   0  0  0  0  0  0  0  0  0  0  0  0
  1  2  1  0
  2  3  2  0
  4  2  1  0
  5  4  1  0
  6  5  1  0
  7  6  1  0
  8 10  1  0
  8  7  1  0
  8  9  1  1
 10 12  1  0
 11 10  2  0
 12 13  1  0
 13 14  1  6
 13 17  1  0
 15 19  1  0
 15 14  1  0
 16 15  2  0
 17 18  2  0
 17 20  1  0
 20 21  1  0
 21 25  1  0
 21 22  1  1
 23 22  1  0
 24 23  2  0
 25 28  1  0
 26 25  2  0
 27 23  1  0
M  END
$$$$
