RDD.pdb
     RDKit          3D

 28 27  0  0  1  0  0  0  0  0999 V2000
    7.8230  -11.2631   20.5903 N   0  0  0  0  0  0  0  0  0  0  0  0
    8.0389  -12.1246   19.4839 C   0  0  0  0  0  0  0  0  0  0  0  0
    7.0171  -12.5289   18.8263 N   0  0  0  0  0  0  0  0  0  0  0  0
    9.3506  -12.5471   19.0962 N   0  0  0  0  0  0  0  0  0  0  0  0
    9.5240  -13.3758   17.8920 C   0  0  0  0  0  0  0  0  0  0  0  0
    9.9877  -14.7235   18.3259 C   0  0  0  0  0  0  0  0  0  0  0  0
   11.2149  -14.7687   19.1524 C   0  0  0  0  0  0  0  0  0  0  0  0
   11.6668  -16.1082   19.6329 C   0  0  2  0  0  0  0  0  0  0  0  0
   10.6711  -17.0969   19.4080 N   0  0  0  0  0  0  0  0  0  0  0  0
   12.1900  -16.0061   21.0107 C   0  0  0  0  0  0  0  0  0  0  0  0
   13.1578  -15.1907   21.2509 O   0  0  0  0  0  0  0  0  0  0  0  0
    7.0643  -13.1383   18.0025 N   0  0  0  0  0  0  0  0  0  0  0  0
   11.7483  -16.7175   22.1420 C   0  0  1  0  0  0  0  0  0  0  0  0
   12.4478  -16.6550   23.4463 C   0  0  0  0  0  0  0  0  0  0  0  0
   11.4904  -17.2978   24.4190 C   0  0  0  0  0  0  0  0  0  0  0  0
   12.0384  -17.1931   25.7839 O   0  0  0  0  0  0  0  0  0  0  0  0
   13.1871  -16.7127   26.0528 C   0  0  0  0  0  0  0  0  0  0  0  0
   13.6924  -17.4354   23.3942 O   0  0  0  0  0  0  0  0  0  0  0  0
   13.7811  -18.3915   22.5936 O   0  0  0  0  0  0  0  0  0  0  0  0
   11.2279  -17.6580   26.8407 N   0  0  0  0  0  0  0  0  0  0  0  0
   14.8252  -17.1637   24.2171 C   0  0  1  0  0  0  0  0  0  0  0  0
   16.1847  -17.1094   23.7567 C   0  0  0  0  0  0  0  0  0  0  0  0
   16.3468  -16.2848   22.5073 C   0  0  0  0  0  0  0  0  0  0  0  0
   17.7459  -16.1757   22.0403 O   0  0  0  0  0  0  0  0  0  0  0  0
   18.3697  -17.1974   21.6904 C   0  0  0  0  0  0  0  0  0  0  0  0
   17.0593  -16.6405   24.8567 O   0  0  0  0  0  0  0  0  0  0  0  0
   18.3073  -16.5764   24.6783 O   0  0  0  0  0  0  0  0  0  0  0  0
   18.3764  -14.9478   21.9873 O   0  0  0  0  0  0  0  0  0  0  0  0
  1  2  1  0
  2  3  2  0
  4  2  1  0
  5  4  1  0
  6  5  1  0
  7  6  1  0
  8 10  1  0
  8  7  1  0
  8  9  1  1
 10 12  1  0
 11 10  2  0
 12 13  1  0
 13 14  1  6
 13 17  1  0
 15 19  1  0
 15 14  1  0
 16 15  2  0
 17 18  2  0
 17 20  1  0
 20 21  1  0
 21 25  1  0
 21 22  1  1
 23 22  1  0
 24 23  2  0
 25 28  1  0
 26 25  2  0
 27 23  1  0
M  END
$$$$
