RDD.pdb
     RDKit          3D

 28 27  0  0  1  0  0  0  0  0999 V2000
    6.8173  -13.3878   15.6395 N   0  0  0  0  0  0  0  0  0  0  0  0
    7.9485  -14.0184   16.2189 C   0  0  0  0  0  0  0  0  0  0  0  0
    8.3606  -15.1134   15.6986 N   0  0  0  0  0  0  0  0  0  0  0  0
    8.6245  -13.4685   17.3547 N   0  0  0  0  0  0  0  0  0  0  0  0
    7.8470  -12.8179   18.4220 C   0  0  0  0  0  0  0  0  0  0  0  0
    7.1567  -13.8836   19.2013 C   0  0  0  0  0  0  0  0  0  0  0  0
    7.8249  -14.3366   20.4420 C   0  0  0  0  0  0  0  0  0  0  0  0
    8.9508  -15.3066   20.2975 C   0  0  2  0  0  0  0  0  0  0  0  0
    8.4842  -16.5710   19.8470 N   0  0  0  0  0  0  0  0  0  0  0  0
    9.7803  -15.3112   21.5199 C   0  0  0  0  0  0  0  0  0  0  0  0
   10.2295  -14.1920   21.9725 O   0  0  0  0  0  0  0  0  0  0  0  0
    9.2032  -15.6151   15.9998 N   0  0  0  0  0  0  0  0  0  0  0  0
   10.1600  -16.4302   22.2846 C   0  0  1  0  0  0  0  0  0  0  0  0
   11.1216  -16.3392   23.4078 C   0  0  0  0  0  0  0  0  0  0  0  0
   10.6362  -17.3629   24.4039 C   0  0  0  0  0  0  0  0  0  0  0  0
   11.5284  -17.3623   25.5778 O   0  0  0  0  0  0  0  0  0  0  0  0
   12.0362  -16.3089   26.0831 C   0  0  0  0  0  0  0  0  0  0  0  0
   12.4719  -16.6995   22.9520 O   0  0  0  0  0  0  0  0  0  0  0  0
   12.8221  -17.8995   22.9672 O   0  0  0  0  0  0  0  0  0  0  0  0
   11.8256  -18.6116   26.1615 N   0  0  0  0  0  0  0  0  0  0  0  0
   13.4245  -15.7456   22.4861 C   0  0  1  0  0  0  0  0  0  0  0  0
   14.7789  -16.0470   22.1143 C   0  0  0  0  0  0  0  0  0  0  0  0
   15.4154  -14.9591   21.2906 C   0  0  0  0  0  0  0  0  0  0  0  0
   14.8370  -14.8185   19.9366 O   0  0  0  0  0  0  0  0  0  0  0  0
   15.0135  -13.7685   19.2873 C   0  0  0  0  0  0  0  0  0  0  0  0
   15.5646  -16.3640   23.3296 O   0  0  0  0  0  0  0  0  0  0  0  0
   15.2996  -15.7771   24.4154 O   0  0  0  0  0  0  0  0  0  0  0  0
   14.0971  -15.8423   19.3777 O   0  0  0  0  0  0  0  0  0  0  0  0
  1  2  1  0
  2  3  2  0
  4  2  1  0
  5  4  1  0
  6  5  1  0
  7  6  1  0
  8 10  1  0
  8  7  1  0
  8  9  1  1
 10 12  1  0
 11 10  2  0
 12 13  1  0
 13 14  1  6
 13 17  1  0
 15 19  1  0
 15 14  1  0
 16 15  2  0
 17 18  2  0
 17 20  1  0
 20 21  1  0
 21 25  1  0
 21 22  1  1
 23 22  1  0
 24 23  2  0
 25 28  1  0
 26 25  2  0
 27 23  1  0
M  END
$$$$
