RDD.pdb
     RDKit          3D

 28 27  0  0  1  0  0  0  0  0999 V2000
    6.5592  -12.8336   18.9770 N   0  0  0  0  0  0  0  0  0  0  0  0
    7.4359  -13.6274   18.1933 C   0  0  0  0  0  0  0  0  0  0  0  0
    7.0315  -14.7840   17.8213 N   0  0  0  0  0  0  0  0  0  0  0  0
    8.7408  -13.1727   17.8195 N   0  0  0  0  0  0  0  0  0  0  0  0
    9.9309  -13.8820   18.3170 C   0  0  0  0  0  0  0  0  0  0  0  0
   10.2947  -13.2968   19.6378 C   0  0  0  0  0  0  0  0  0  0  0  0
   10.6515  -14.2518   20.7111 C   0  0  0  0  0  0  0  0  0  0  0  0
   12.0944  -14.6065   20.8590 C   0  0  2  0  0  0  0  0  0  0  0  0
   12.8587  -14.1123   19.7677 N   0  0  0  0  0  0  0  0  0  0  0  0
   12.2375  -16.0454   21.1616 C   0  0  0  0  0  0  0  0  0  0  0  0
   11.3183  -16.6325   21.8469 O   0  0  0  0  0  0  0  0  0  0  0  0
    7.6034  -15.4549   17.2965 N   0  0  0  0  0  0  0  0  0  0  0  0
   13.2959  -16.8920   20.7821 C   0  0  1  0  0  0  0  0  0  0  0  0
   13.3702  -18.3115   21.1994 C   0  0  0  0  0  0  0  0  0  0  0  0
   14.3831  -18.9266   20.2658 C   0  0  0  0  0  0  0  0  0  0  0  0
   13.8538  -18.9060   18.8898 O   0  0  0  0  0  0  0  0  0  0  0  0
   14.5347  -18.5539   17.8724 C   0  0  0  0  0  0  0  0  0  0  0  0
   13.8549  -18.4102   22.5837 O   0  0  0  0  0  0  0  0  0  0  0  0
   15.0769  -18.5702   22.7933 O   0  0  0  0  0  0  0  0  0  0  0  0
   12.5121  -19.3026   18.7098 N   0  0  0  0  0  0  0  0  0  0  0  0
   12.9999  -18.3342   23.7227 C   0  0  2  0  0  0  0  0  0  0  0  0
   13.3101  -18.8602   25.0229 C   0  0  0  0  0  0  0  0  0  0  0  0
   12.4004  -19.9890   25.4297 C   0  0  0  0  0  0  0  0  0  0  0  0
   12.7193  -20.5665   26.7534 O   0  0  0  0  0  0  0  0  0  0  0  0
   13.5154  -21.5223   26.8431 C   0  0  0  0  0  0  0  0  0  0  0  0
   14.7397  -19.2458   25.0704 O   0  0  0  0  0  0  0  0  0  0  0  0
   15.2769  -19.5169   26.1800 O   0  0  0  0  0  0  0  0  0  0  0  0
   12.1419  -20.0580   27.9006 O   0  0  0  0  0  0  0  0  0  0  0  0
  1  2  1  0
  2  3  2  0
  4  2  1  0
  5  4  1  0
  6  5  1  0
  7  6  1  0
  8 10  1  0
  8  7  1  0
  8  9  1  6
 10 12  1  0
 11 10  2  0
 12 13  1  0
 13 14  1  1
 13 17  1  0
 15 19  1  0
 15 14  1  0
 16 15  2  0
 17 18  2  0
 17 20  1  0
 20 21  1  0
 21 25  1  0
 21 22  1  1
 23 22  1  0
 24 23  2  0
 25 28  1  0
 26 25  2  0
 27 23  1  0
M  END
$$$$
