RDD.pdb
     RDKit          3D

 28 27  0  0  1  0  0  0  0  0999 V2000
    6.7503  -13.9930   17.0287 N   0  0  0  0  0  0  0  0  0  0  0  0
    8.1656  -13.9306   16.9507 C   0  0  0  0  0  0  0  0  0  0  0  0
    8.7006  -13.8084   15.7938 N   0  0  0  0  0  0  0  0  0  0  0  0
    8.9934  -14.0039   18.1163 N   0  0  0  0  0  0  0  0  0  0  0  0
    8.7389  -13.1002   19.2500 C   0  0  0  0  0  0  0  0  0  0  0  0
    7.3283  -13.2982   19.6864 C   0  0  0  0  0  0  0  0  0  0  0  0
    7.0785  -14.3981   20.6451 C   0  0  0  0  0  0  0  0  0  0  0  0
    8.0640  -15.5196   20.6711 C   0  0  2  0  0  0  0  0  0  0  0  0
    7.4107  -16.7788   20.5870 N   0  0  0  0  0  0  0  0  0  0  0  0
    9.0072  -15.3439   21.7945 C   0  0  0  0  0  0  0  0  0  0  0  0
    9.6167  -14.2168   21.9259 O   0  0  0  0  0  0  0  0  0  0  0  0
    9.7103  -13.7317   15.6293 N   0  0  0  0  0  0  0  0  0  0  0  0
    9.3401  -16.2918   22.7802 C   0  0  1  0  0  0  0  0  0  0  0  0
   10.3917  -16.0504   23.7953 C   0  0  0  0  0  0  0  0  0  0  0  0
   10.2130  -17.1652   24.7959 C   0  0  0  0  0  0  0  0  0  0  0  0
   11.2073  -17.0164   25.8746 O   0  0  0  0  0  0  0  0  0  0  0  0
   11.6908  -15.8977   26.2449 C   0  0  0  0  0  0  0  0  0  0  0  0
   11.7237  -16.1503   23.1817 O   0  0  0  0  0  0  0  0  0  0  0  0
   12.7387  -16.0499   23.9047 O   0  0  0  0  0  0  0  0  0  0  0  0
   11.6361  -18.1939   26.5221 N   0  0  0  0  0  0  0  0  0  0  0  0
   11.9323  -16.3574   21.7861 C   0  0  2  0  0  0  0  0  0  0  0  0
   13.2078  -16.3098   21.1271 C   0  0  0  0  0  0  0  0  0  0  0  0
   13.5011  -14.9650   20.5166 C   0  0  0  0  0  0  0  0  0  0  0  0
   14.8231  -14.8827   19.8586 O   0  0  0  0  0  0  0  0  0  0  0  0
   15.0770  -15.6039   18.8732 C   0  0  0  0  0  0  0  0  0  0  0  0
   14.2659  -16.7416   22.0697 O   0  0  0  0  0  0  0  0  0  0  0  0
   14.0937  -16.5952   23.3117 O   0  0  0  0  0  0  0  0  0  0  0  0
   15.7884  -14.0118   20.3252 O   0  0  0  0  0  0  0  0  0  0  0  0
  1  2  1  0
  2  3  2  0
  4  2  1  0
  5  4  1  0
  6  5  1  0
  7  6  1  0
  8 10  1  0
  8  7  1  0
  8  9  1  1
 10 12  1  0
 11 10  2  0
 12 13  1  0
 13 14  1  6
 13 17  1  0
 15 19  1  0
 15 14  1  0
 16 15  2  0
 17 18  2  0
 17 20  1  0
 20 21  1  0
 21 25  1  0
 21 22  1  1
 23 22  1  0
 24 23  2  0
 25 28  1  0
 26 25  2  0
 27 23  1  0
M  END
$$$$
