RNC.pdb
     RDKit          3D

 26 25  0  0  1  0  0  0  0  0999 V2000
    6.9326  -12.3487   17.9643 N   0  0  0  0  0  0  0  0  0  0  0  0
    7.7932  -12.7514   19.0190 C   0  0  0  0  0  0  0  0  0  0  0  0
    8.7178  -11.9872   19.4769 N   0  0  0  0  0  0  0  0  0  0  0  0
    7.6539  -14.0481   19.6196 N   0  0  0  0  0  0  0  0  0  0  0  0
    8.6781  -15.0621   19.5172 C   0  0  0  0  0  0  0  0  0  0  0  0
    9.2636  -15.0246   18.1466 C   0  0  0  0  0  0  0  0  0  0  0  0
    9.4907  -16.3603   17.5092 C   0  0  0  0  0  0  0  0  0  0  0  0
   10.3753  -17.1981   18.3695 C   0  0  2  0  0  0  0  0  0  0  0  0
    9.6618  -17.5039   19.5940 N   0  0  0  0  0  0  0  0  0  0  0  0
   11.6827  -16.5417   18.6620 C   0  0  0  0  0  0  0  0  0  0  0  0
   12.3472  -15.9980   17.7509 O   0  0  0  0  0  0  0  0  0  0  0  0
    9.4827  -12.3281   20.0655 N   0  0  0  0  0  0  0  0  0  0  0  0
   15.5992  -14.1950   17.9517 C   0  0  0  0  0  0  0  0  0  0  0  0
   15.1035  -14.3393   19.2720 O   0  0  0  0  0  0  0  0  0  0  0  0
   15.9616  -14.2315   20.1920 C   0  0  0  0  0  0  0  0  0  0  0  0
   13.7242  -14.5974   19.6561 C   0  0  2  0  0  0  0  0  0  0  0  0
   13.4686  -15.9140   20.3419 N   0  0  0  0  0  0  0  0  0  0  0  0
   12.2219  -16.5095   19.9862 C   0  0  0  0  0  0  0  0  0  0  0  0
   13.7909  -15.9307   21.7781 O   0  0  0  0  0  0  0  0  0  0  0  0
   13.1188  -15.2441   22.5681 N   0  0  0  0  0  0  0  0  0  0  0  0
   14.8609  -16.7260   22.2424 C   0  0  1  0  0  0  0  0  0  0  0  0
   15.2062  -16.7982   23.6362 C   0  0  0  0  0  0  0  0  0  0  0  0
   14.7004  -18.0336   24.3409 S   0  0  0  0  0  0  0  0  0  0  0  0
   13.0687  -17.7574   25.0362 C   0  0  0  0  0  0  0  0  0  0  0  0
   16.6555  -16.5658   23.8783 O   0  0  0  0  0  0  0  0  0  0  0  0
   17.4780  -16.5722   22.9249 O   0  0  0  0  0  0  0  0  0  0  0  0
  2  1  1  0
  2  3  2  0
  4  2  1  0
  5  4  1  0
  6  5  1  0
  7  6  1  0
  8  7  1  0
  8  9  1  1
 10  8  1  0
 10 17  1  0
 11 10  2  0
 13 14  2  0
 13 12  1  0
 15 13  1  0
 16 17  1  0
 16 15  1  6
 18 16  1  0
 19 18  2  0
 20 18  1  0
 21 20  1  0
 21 24  1  0
 21 22  1  1
 23 22  1  0
 24 26  1  0
 25 24  2  0
M  END
$$$$
