RNC.pdb
     RDKit          3D

 26 25  0  0  1  0  0  0  0  0999 V2000
    8.9797  -16.1933   16.8707 N   0  0  0  0  0  0  0  0  0  0  0  0
    8.1586  -15.0701   16.5888 C   0  0  0  0  0  0  0  0  0  0  0  0
    8.3356  -14.3371   15.5496 N   0  0  0  0  0  0  0  0  0  0  0  0
    7.0837  -14.7123   17.4710 N   0  0  0  0  0  0  0  0  0  0  0  0
    7.1503  -13.5643   18.3458 C   0  0  0  0  0  0  0  0  0  0  0  0
    8.4378  -13.5998   19.0968 C   0  0  0  0  0  0  0  0  0  0  0  0
    8.3171  -13.4691   20.5834 C   0  0  0  0  0  0  0  0  0  0  0  0
    9.2346  -14.4298   21.2614 C   0  0  2  0  0  0  0  0  0  0  0  0
    9.3159  -15.6297   20.4518 N   0  0  0  0  0  0  0  0  0  0  0  0
    8.8045  -14.7517   22.6531 C   0  0  0  0  0  0  0  0  0  0  0  0
    8.5364  -13.8416   23.4700 O   0  0  0  0  0  0  0  0  0  0  0  0
    7.7956  -13.4866   15.3685 N   0  0  0  0  0  0  0  0  0  0  0  0
    6.1395  -17.5130   26.6503 C   0  0  0  0  0  0  0  0  0  0  0  0
    7.1036  -18.1597   25.8366 O   0  0  0  0  0  0  0  0  0  0  0  0
    7.6378  -19.1890   26.3362 C   0  0  0  0  0  0  0  0  0  0  0  0
    7.5272  -17.7524   24.5056 C   0  0  1  0  0  0  0  0  0  0  0  0
    8.3466  -16.4905   24.4344 N   0  0  0  0  0  0  0  0  0  0  0  0
    8.6833  -16.1038   23.1030 C   0  0  0  0  0  0  0  0  0  0  0  0
    9.4446  -16.4155   25.4119 O   0  0  0  0  0  0  0  0  0  0  0  0
   10.5373  -16.9503   25.1528 N   0  0  0  0  0  0  0  0  0  0  0  0
    9.2438  -15.7376   26.6339 C   0  0  1  0  0  0  0  0  0  0  0  0
   10.2830  -15.6251   27.6211 C   0  0  0  0  0  0  0  0  0  0  0  0
   10.1433  -14.4367   28.5413 S   0  0  0  0  0  0  0  0  0  0  0  0
    9.5237  -13.0038   27.6553 C   0  0  0  0  0  0  0  0  0  0  0  0
   10.5004  -16.8930   28.3682 O   0  0  0  0  0  0  0  0  0  0  0  0
   11.3947  -16.9767   29.2507 O   0  0  0  0  0  0  0  0  0  0  0  0
  2  1  1  0
  2  3  2  0
  4  2  1  0
  5  4  1  0
  6  5  1  0
  7  6  1  0
  8  7  1  0
  8  9  1  6
 10  8  1  0
 10 17  1  0
 11 10  2  0
 13 14  2  0
 13 12  1  0
 15 13  1  0
 16 17  1  0
 16 15  1  6
 18 16  1  0
 19 18  2  0
 20 18  1  0
 21 20  1  0
 21 24  1  0
 21 22  1  1
 23 22  1  0
 24 26  1  0
 25 24  2  0
M  END
$$$$
