RNC.pdb
     RDKit          3D

 26 25  0  0  1  0  0  0  0  0999 V2000
    6.5764  -13.7259   15.5746 N   0  0  0  0  0  0  0  0  0  0  0  0
    7.9945  -13.6847   15.5241 C   0  0  0  0  0  0  0  0  0  0  0  0
    8.6482  -13.9377   14.4483 N   0  0  0  0  0  0  0  0  0  0  0  0
    8.7569  -13.3512   16.6942 N   0  0  0  0  0  0  0  0  0  0  0  0
    8.1961  -13.4066   18.0246 C   0  0  0  0  0  0  0  0  0  0  0  0
    8.6637  -14.6522   18.6975 C   0  0  0  0  0  0  0  0  0  0  0  0
    8.1454  -14.8646   20.0860 C   0  0  0  0  0  0  0  0  0  0  0  0
    9.2793  -14.9665   21.0494 C   0  0  2  0  0  0  0  0  0  0  0  0
   10.1745  -16.0101   20.5895 N   0  0  0  0  0  0  0  0  0  0  0  0
    8.8258  -15.2280   22.4463 C   0  0  0  0  0  0  0  0  0  0  0  0
    7.9327  -14.5273   22.9742 O   0  0  0  0  0  0  0  0  0  0  0  0
    9.6686  -14.0131   14.4204 N   0  0  0  0  0  0  0  0  0  0  0  0
    9.0318  -18.9461   22.9550 C   0  0  0  0  0  0  0  0  0  0  0  0
    9.5753  -18.9382   24.2643 O   0  0  0  0  0  0  0  0  0  0  0  0
    9.9871  -20.0529   24.6912 C   0  0  0  0  0  0  0  0  0  0  0  0
    9.6974  -17.7862   25.1445 C   0  0  2  0  0  0  0  0  0  0  0  0
    9.1328  -16.4933   24.6167 N   0  0  0  0  0  0  0  0  0  0  0  0
    9.3911  -16.2827   23.2295 C   0  0  0  0  0  0  0  0  0  0  0  0
    9.3547  -15.3263   25.4861 O   0  0  0  0  0  0  0  0  0  0  0  0
   10.4623  -14.7603   25.4862 N   0  0  0  0  0  0  0  0  0  0  0  0
    8.3068  -14.8634   26.3110 C   0  0  1  0  0  0  0  0  0  0  0  0
    8.4635  -13.7222   27.1715 C   0  0  0  0  0  0  0  0  0  0  0  0
    7.2315  -12.8585   27.2927 S   0  0  0  0  0  0  0  0  0  0  0  0
    6.1868  -13.0172   25.8417 C   0  0  0  0  0  0  0  0  0  0  0  0
    9.0318  -14.0814   28.4985 O   0  0  0  0  0  0  0  0  0  0  0  0
    9.2444  -15.2841   28.8052 O   0  0  0  0  0  0  0  0  0  0  0  0
  2  1  1  0
  2  3  2  0
  4  2  1  0
  5  4  1  0
  6  5  1  0
  7  6  1  0
  8  7  1  0
  8  9  1  6
 10  8  1  0
 10 17  1  0
 11 10  2  0
 13 14  2  0
 13 12  1  0
 15 13  1  0
 16 17  1  0
 16 15  1  6
 18 16  1  0
 19 18  2  0
 20 18  1  0
 21 20  1  0
 21 24  1  0
 21 22  1  1
 23 22  1  0
 24 26  1  0
 25 24  2  0
M  END
$$$$
