RNC.pdb
     RDKit          3D

 26 25  0  0  1  0  0  0  0  0999 V2000
    6.9363  -14.5629   13.9600 N   0  0  0  0  0  0  0  0  0  0  0  0
    7.5680  -13.2950   13.8676 C   0  0  0  0  0  0  0  0  0  0  0  0
    7.7566  -12.7051   12.7429 N   0  0  0  0  0  0  0  0  0  0  0  0
    8.0226  -12.6185   15.0498 N   0  0  0  0  0  0  0  0  0  0  0  0
    7.7166  -13.0942   16.3793 C   0  0  0  0  0  0  0  0  0  0  0  0
    8.2746  -14.4669   16.5446 C   0  0  0  0  0  0  0  0  0  0  0  0
    8.0517  -15.0927   17.8864 C   0  0  0  0  0  0  0  0  0  0  0  0
    9.3310  -15.6481   18.4149 C   0  0  2  0  0  0  0  0  0  0  0  0
    9.8025  -16.6619   17.4919 N   0  0  0  0  0  0  0  0  0  0  0  0
    9.1919  -16.2025   19.7929 C   0  0  0  0  0  0  0  0  0  0  0  0
    8.7930  -15.4844   20.7376 O   0  0  0  0  0  0  0  0  0  0  0  0
    8.3408  -11.8706   12.6418 N   0  0  0  0  0  0  0  0  0  0  0  0
    8.6555  -21.1599   19.4627 C   0  0  0  0  0  0  0  0  0  0  0  0
    8.4486  -20.2873   20.5606 O   0  0  0  0  0  0  0  0  0  0  0  0
    7.2426  -20.0452   20.8460 C   0  0  0  0  0  0  0  0  0  0  0  0
    9.4786  -19.6557   21.3712 C   0  0  2  0  0  0  0  0  0  0  0  0
    9.4716  -18.1495   21.3856 N   0  0  0  0  0  0  0  0  0  0  0  0
    9.5072  -17.5668   20.0838 C   0  0  0  0  0  0  0  0  0  0  0  0
   10.3745  -17.5408   22.3762 O   0  0  0  0  0  0  0  0  0  0  0  0
   11.5182  -17.1914   22.0342 N   0  0  0  0  0  0  0  0  0  0  0  0
    9.9314  -17.3616   23.7046 C   0  0  1  0  0  0  0  0  0  0  0  0
   10.7651  -16.7608   24.7101 C   0  0  0  0  0  0  0  0  0  0  0  0
   10.2919  -15.4088   25.1866 S   0  0  0  0  0  0  0  0  0  0  0  0
    8.5578  -15.4576   25.6475 C   0  0  0  0  0  0  0  0  0  0  0  0
   11.0550  -17.6855   25.8388 O   0  0  0  0  0  0  0  0  0  0  0  0
   10.4218  -18.7664   25.9662 O   0  0  0  0  0  0  0  0  0  0  0  0
  2  1  1  0
  2  3  2  0
  4  2  1  0
  5  4  1  0
  6  5  1  0
  7  6  1  0
  8  7  1  0
  8  9  1  6
 10  8  1  0
 10 17  1  0
 11 10  2  0
 13 14  2  0
 13 12  1  0
 15 13  1  0
 16 17  1  0
 16 15  1  6
 18 16  1  0
 19 18  2  0
 20 18  1  0
 21 20  1  0
 21 24  1  0
 21 22  1  1
 23 22  1  0
 24 26  1  0
 25 24  2  0
M  END
$$$$
