RNC.pdb
     RDKit          3D

 26 25  0  0  1  0  0  0  0  0999 V2000
    8.5540  -13.5415   20.5217 N   0  0  0  0  0  0  0  0  0  0  0  0
    8.4778  -12.5395   19.5191 C   0  0  0  0  0  0  0  0  0  0  0  0
    8.6969  -11.3001   19.7727 N   0  0  0  0  0  0  0  0  0  0  0  0
    8.1494  -12.8859   18.1649 N   0  0  0  0  0  0  0  0  0  0  0  0
    7.8505  -14.2414   17.7638 C   0  0  0  0  0  0  0  0  0  0  0  0
    9.0318  -14.8094   17.0532 C   0  0  0  0  0  0  0  0  0  0  0  0
   10.2058  -15.1387   17.9221 C   0  0  0  0  0  0  0  0  0  0  0  0
   11.2901  -15.7615   17.1090 C   0  0  2  0  0  0  0  0  0  0  0  0
   10.7749  -16.9838   16.5239 N   0  0  0  0  0  0  0  0  0  0  0  0
   12.5244  -16.0276   17.9034 C   0  0  0  0  0  0  0  0  0  0  0  0
   12.7645  -17.1702   18.3550 O   0  0  0  0  0  0  0  0  0  0  0  0
    8.6065  -10.5623   19.0690 N   0  0  0  0  0  0  0  0  0  0  0  0
   17.5683  -15.5275   17.3216 C   0  0  0  0  0  0  0  0  0  0  0  0
   16.4693  -14.6375   17.4210 O   0  0  0  0  0  0  0  0  0  0  0  0
   16.0756  -14.1326   16.3327 C   0  0  0  0  0  0  0  0  0  0  0  0
   15.7689  -14.2586   18.6386 C   0  0  2  0  0  0  0  0  0  0  0  0
   14.6086  -15.1361   19.0292 N   0  0  0  0  0  0  0  0  0  0  0  0
   13.4735  -14.9932   18.1768 C   0  0  0  0  0  0  0  0  0  0  0  0
   14.3172  -15.1624   20.4719 O   0  0  0  0  0  0  0  0  0  0  0  0
   13.9963  -14.1113   21.0545 N   0  0  0  0  0  0  0  0  0  0  0  0
   14.4066  -16.3815   21.1782 C   0  0  1  0  0  0  0  0  0  0  0  0
   13.7190  -16.5915   22.4232 C   0  0  0  0  0  0  0  0  0  0  0  0
   12.2482  -16.2542   22.3883 S   0  0  0  0  0  0  0  0  0  0  0  0
   11.5665  -16.1669   24.0465 C   0  0  0  0  0  0  0  0  0  0  0  0
   13.9736  -17.9409   22.9955 O   0  0  0  0  0  0  0  0  0  0  0  0
   14.1949  -18.9283   22.2461 O   0  0  0  0  0  0  0  0  0  0  0  0
  2  1  1  0
  2  3  2  0
  4  2  1  0
  5  4  1  0
  6  5  1  0
  7  6  1  0
  8  7  1  0
  8  9  1  1
 10  8  1  0
 10 17  1  0
 11 10  2  0
 13 14  2  0
 13 12  1  0
 15 13  1  0
 16 17  1  0
 16 15  1  6
 18 16  1  0
 19 18  2  0
 20 18  1  0
 21 20  1  0
 21 24  1  0
 21 22  1  1
 23 22  1  0
 24 26  1  0
 25 24  2  0
M  END
$$$$
