RNC.pdb
     RDKit          3D

 26 25  0  0  1  0  0  0  0  0999 V2000
    7.1195  -13.9210   20.4453 N   0  0  0  0  0  0  0  0  0  0  0  0
    7.5547  -12.8322   19.6451 C   0  0  0  0  0  0  0  0  0  0  0  0
    8.0926  -11.7826   20.1525 N   0  0  0  0  0  0  0  0  0  0  0  0
    7.4067  -12.8711   18.2174 N   0  0  0  0  0  0  0  0  0  0  0  0
    8.4589  -13.3355   17.3429 C   0  0  0  0  0  0  0  0  0  0  0  0
    8.6762  -14.7921   17.5753 C   0  0  0  0  0  0  0  0  0  0  0  0
    9.8176  -15.1338   18.4821 C   0  0  0  0  0  0  0  0  0  0  0  0
   10.8098  -15.9845   17.7636 C   0  0  2  0  0  0  0  0  0  0  0  0
   10.1303  -17.1745   17.2901 N   0  0  0  0  0  0  0  0  0  0  0  0
   11.9837  -16.3408   18.6123 C   0  0  0  0  0  0  0  0  0  0  0  0
   11.9959  -17.3989   19.2814 O   0  0  0  0  0  0  0  0  0  0  0  0
    8.3926  -10.9820   19.5896 N   0  0  0  0  0  0  0  0  0  0  0  0
   15.6688  -13.3467   17.3039 C   0  0  0  0  0  0  0  0  0  0  0  0
   15.7070  -14.5296   18.0843 O   0  0  0  0  0  0  0  0  0  0  0  0
   16.1344  -15.5602   17.4929 C   0  0  0  0  0  0  0  0  0  0  0  0
   15.3045  -14.6626   19.4761 C   0  0  2  0  0  0  0  0  0  0  0  0
   14.1073  -15.5400   19.7327 N   0  0  0  0  0  0  0  0  0  0  0  0
   13.1319  -15.4919   18.6926 C   0  0  0  0  0  0  0  0  0  0  0  0
   13.5750  -15.4667   21.1032 O   0  0  0  0  0  0  0  0  0  0  0  0
   13.3578  -14.3568   21.6209 N   0  0  0  0  0  0  0  0  0  0  0  0
   13.3180  -16.6585   21.8149 C   0  0  1  0  0  0  0  0  0  0  0  0
   12.5339  -16.6709   23.0199 C   0  0  0  0  0  0  0  0  0  0  0  0
   11.1434  -16.1040   22.8654 S   0  0  0  0  0  0  0  0  0  0  0  0
   10.2042  -16.2749   24.3854 C   0  0  0  0  0  0  0  0  0  0  0  0
   12.5283  -18.0022   23.6839 O   0  0  0  0  0  0  0  0  0  0  0  0
   12.7930  -19.0481   23.0346 O   0  0  0  0  0  0  0  0  0  0  0  0
  2  1  1  0
  2  3  2  0
  4  2  1  0
  5  4  1  0
  6  5  1  0
  7  6  1  0
  8  7  1  0
  8  9  1  1
 10  8  1  0
 10 17  1  0
 11 10  2  0
 13 14  2  0
 13 12  1  0
 15 13  1  0
 16 17  1  0
 16 15  1  6
 18 16  1  0
 19 18  2  0
 20 18  1  0
 21 20  1  0
 21 24  1  0
 21 22  1  1
 23 22  1  0
 24 26  1  0
 25 24  2  0
M  END
$$$$
