RNC.pdb
     RDKit          3D

 26 25  0  0  1  0  0  0  0  0999 V2000
    8.0102  -14.3949   17.9087 N   0  0  0  0  0  0  0  0  0  0  0  0
    8.2205  -13.1844   18.6200 C   0  0  0  0  0  0  0  0  0  0  0  0
    8.6692  -12.1252   18.0497 N   0  0  0  0  0  0  0  0  0  0  0  0
    7.9314  -13.1036   20.0241 N   0  0  0  0  0  0  0  0  0  0  0  0
    7.4757  -14.2428   20.7869 C   0  0  0  0  0  0  0  0  0  0  0  0
    8.0681  -15.4830   20.2091 C   0  0  0  0  0  0  0  0  0  0  0  0
    9.4345  -15.8348   20.7099 C   0  0  0  0  0  0  0  0  0  0  0  0
    9.4221  -17.1900   21.3326 C   0  0  2  0  0  0  0  0  0  0  0  0
    8.4002  -17.9824   20.6770 N   0  0  0  0  0  0  0  0  0  0  0  0
    9.1992  -17.1437   22.8069 C   0  0  0  0  0  0  0  0  0  0  0  0
    8.0687  -16.8853   23.2785 O   0  0  0  0  0  0  0  0  0  0  0  0
    8.8207  -11.2446   18.5489 N   0  0  0  0  0  0  0  0  0  0  0  0
   13.1408  -18.3252   26.9300 C   0  0  0  0  0  0  0  0  0  0  0  0
   12.2524  -18.4725   25.8351 O   0  0  0  0  0  0  0  0  0  0  0  0
   12.7973  -18.6543   24.7106 C   0  0  0  0  0  0  0  0  0  0  0  0
   10.7990  -18.4319   25.8873 C   0  0  1  0  0  0  0  0  0  0  0  0
   10.1467  -17.2923   25.1492 N   0  0  0  0  0  0  0  0  0  0  0  0
   10.2626  -17.3913   23.7307 C   0  0  0  0  0  0  0  0  0  0  0  0
   10.4164  -15.9602   25.7147 O   0  0  0  0  0  0  0  0  0  0  0  0
   11.3750  -15.2925   25.2876 N   0  0  0  0  0  0  0  0  0  0  0  0
    9.5835  -15.4562   26.7370 C   0  0  1  0  0  0  0  0  0  0  0  0
    9.9261  -14.2775   27.4856 C   0  0  0  0  0  0  0  0  0  0  0  0
    8.9626  -13.1281   27.3150 S   0  0  0  0  0  0  0  0  0  0  0  0
    7.3321  -13.7166   26.8490 C   0  0  0  0  0  0  0  0  0  0  0  0
   10.2043  -14.5710   28.9172 O   0  0  0  0  0  0  0  0  0  0  0  0
   10.0110  -15.7223   29.3891 O   0  0  0  0  0  0  0  0  0  0  0  0
  2  1  1  0
  2  3  2  0
  4  2  1  0
  5  4  1  0
  6  5  1  0
  7  6  1  0
  8  7  1  0
  8  9  1  6
 10  8  1  0
 10 17  1  0
 11 10  2  0
 13 14  2  0
 13 12  1  0
 15 13  1  0
 16 17  1  0
 16 15  1  6
 18 16  1  0
 19 18  2  0
 20 18  1  0
 21 20  1  0
 21 24  1  0
 21 22  1  1
 23 22  1  0
 24 26  1  0
 25 24  2  0
M  END
$$$$
