RNC.pdb
     RDKit          3D

 26 25  0  0  1  0  0  0  0  0999 V2000
    8.7967  -14.3409   13.4259 N   0  0  0  0  0  0  0  0  0  0  0  0
    8.6488  -14.9100   14.7180 C   0  0  0  0  0  0  0  0  0  0  0  0
    9.4981  -15.7439   15.1993 N   0  0  0  0  0  0  0  0  0  0  0  0
    7.5260  -14.5640   15.5434 N   0  0  0  0  0  0  0  0  0  0  0  0
    7.4833  -14.8629   16.9563 C   0  0  0  0  0  0  0  0  0  0  0  0
    7.4811  -13.5844   17.7235 C   0  0  0  0  0  0  0  0  0  0  0  0
    7.2281  -13.7187   19.1931 C   0  0  0  0  0  0  0  0  0  0  0  0
    8.5159  -13.9001   19.9233 C   0  0  2  0  0  0  0  0  0  0  0  0
    9.3896  -14.7207   19.1076 N   0  0  0  0  0  0  0  0  0  0  0  0
    8.3304  -14.4984   21.2772 C   0  0  0  0  0  0  0  0  0  0  0  0
    7.5271  -13.9979   22.0967 O   0  0  0  0  0  0  0  0  0  0  0  0
    9.3981  -16.1705   16.1244 N   0  0  0  0  0  0  0  0  0  0  0  0
    9.0438  -19.2667   24.8744 C   0  0  0  0  0  0  0  0  0  0  0  0
    9.7784  -18.1386   24.4301 O   0  0  0  0  0  0  0  0  0  0  0  0
   10.5380  -17.6090   25.2886 C   0  0  0  0  0  0  0  0  0  0  0  0
    9.7362  -17.5455   23.1022 C   0  0  1  0  0  0  0  0  0  0  0  0
    9.0120  -16.2291   22.9935 N   0  0  0  0  0  0  0  0  0  0  0  0
    9.0590  -15.6589   21.6865 C   0  0  0  0  0  0  0  0  0  0  0  0
    9.2681  -15.2942   24.1013 O   0  0  0  0  0  0  0  0  0  0  0  0
   10.2876  -14.5818   24.0826 N   0  0  0  0  0  0  0  0  0  0  0  0
    8.3530  -15.2179   25.1736 C   0  0  1  0  0  0  0  0  0  0  0  0
    8.3894  -14.1449   26.1299 C   0  0  0  0  0  0  0  0  0  0  0  0
    7.2069  -13.2091   26.0628 S   0  0  0  0  0  0  0  0  0  0  0  0
    7.3465  -11.9040   27.2872 C   0  0  0  0  0  0  0  0  0  0  0  0
    8.6516  -14.6224   27.5142 O   0  0  0  0  0  0  0  0  0  0  0  0
    8.7347  -13.8094   28.4722 O   0  0  0  0  0  0  0  0  0  0  0  0
  2  1  1  0
  2  3  2  0
  4  2  1  0
  5  4  1  0
  6  5  1  0
  7  6  1  0
  8  7  1  0
  8  9  1  6
 10  8  1  0
 10 17  1  0
 11 10  2  0
 13 14  2  0
 13 12  1  0
 15 13  1  0
 16 17  1  0
 16 15  1  6
 18 16  1  0
 19 18  2  0
 20 18  1  0
 21 20  1  0
 21 24  1  0
 21 22  1  1
 23 22  1  0
 24 26  1  0
 25 24  2  0
M  END
$$$$
