RNC.pdb
     RDKit          3D

 26 25  0  0  1  0  0  0  0  0999 V2000
    7.2135  -12.2035   18.8097 N   0  0  0  0  0  0  0  0  0  0  0  0
    7.2706  -13.0025   17.6377 C   0  0  0  0  0  0  0  0  0  0  0  0
    6.4059  -12.8960   16.6946 N   0  0  0  0  0  0  0  0  0  0  0  0
    8.3164  -13.9711   17.4652 N   0  0  0  0  0  0  0  0  0  0  0  0
    9.2485  -14.2992   18.5194 C   0  0  0  0  0  0  0  0  0  0  0  0
    8.8000  -15.5520   19.1918 C   0  0  0  0  0  0  0  0  0  0  0  0
    8.2227  -15.3735   20.5617 C   0  0  0  0  0  0  0  0  0  0  0  0
    9.2829  -15.5533   21.5952 C   0  0  2  0  0  0  0  0  0  0  0  0
   10.1092  -16.6799   21.2079 N   0  0  0  0  0  0  0  0  0  0  0  0
    8.7243  -15.7456   22.9651 C   0  0  0  0  0  0  0  0  0  0  0  0
    7.9627  -14.8926   23.4745 O   0  0  0  0  0  0  0  0  0  0  0  0
    6.4912  -13.3888   15.8015 N   0  0  0  0  0  0  0  0  0  0  0  0
    6.5412  -19.1347   27.2528 C   0  0  0  0  0  0  0  0  0  0  0  0
    7.8289  -18.8461   26.7350 O   0  0  0  0  0  0  0  0  0  0  0  0
    8.7717  -18.8640   27.5748 C   0  0  0  0  0  0  0  0  0  0  0  0
    8.1566  -18.5348   25.3520 C   0  0  1  0  0  0  0  0  0  0  0  0
    8.6075  -17.1225   25.0856 N   0  0  0  0  0  0  0  0  0  0  0  0
    9.0364  -16.9049   23.7424 C   0  0  0  0  0  0  0  0  0  0  0  0
    9.4742  -16.5479   26.1275 O   0  0  0  0  0  0  0  0  0  0  0  0
   10.6706  -16.8828   26.1871 N   0  0  0  0  0  0  0  0  0  0  0  0
    8.9362  -15.6231   27.0487 C   0  0  1  0  0  0  0  0  0  0  0  0
    9.7546  -14.9612   28.0280 C   0  0  0  0  0  0  0  0  0  0  0  0
    9.2320  -13.6163   28.4715 S   0  0  0  0  0  0  0  0  0  0  0  0
    8.4664  -12.7390   27.1054 C   0  0  0  0  0  0  0  0  0  0  0  0
   10.0923  -15.8412   29.1789 O   0  0  0  0  0  0  0  0  0  0  0  0
    9.5935  -16.9932   29.2784 O   0  0  0  0  0  0  0  0  0  0  0  0
  2  1  1  0
  2  3  2  0
  4  2  1  0
  5  4  1  0
  6  5  1  0
  7  6  1  0
  8  7  1  0
  8  9  1  6
 10  8  1  0
 10 17  1  0
 11 10  2  0
 13 14  2  0
 13 12  1  0
 15 13  1  0
 16 17  1  0
 16 15  1  6
 18 16  1  0
 19 18  2  0
 20 18  1  0
 21 20  1  0
 21 24  1  0
 21 22  1  1
 23 22  1  0
 24 26  1  0
 25 24  2  0
M  END
$$$$
