RNC.pdb
     RDKit          3D

 26 25  0  0  1  0  0  0  0  0999 V2000
    8.3474  -12.2115   20.0069 N   0  0  0  0  0  0  0  0  0  0  0  0
    8.4041  -13.0840   18.8885 C   0  0  0  0  0  0  0  0  0  0  0  0
    8.7793  -12.6841   17.7275 N   0  0  0  0  0  0  0  0  0  0  0  0
    8.0392  -14.4662   19.0221 N   0  0  0  0  0  0  0  0  0  0  0  0
    7.9629  -15.1256   20.3055 C   0  0  0  0  0  0  0  0  0  0  0  0
    6.5393  -15.1669   20.7466 C   0  0  0  0  0  0  0  0  0  0  0  0
    6.3220  -15.5509   22.1774 C   0  0  0  0  0  0  0  0  0  0  0  0
    6.7548  -16.9600   22.4042 C   0  0  2  0  0  0  0  0  0  0  0  0
    5.5695  -17.7866   22.5214 N   0  0  0  0  0  0  0  0  0  0  0  0
    7.6301  -17.1071   23.6032 C   0  0  0  0  0  0  0  0  0  0  0  0
    7.1504  -17.0638   24.7588 O   0  0  0  0  0  0  0  0  0  0  0  0
    8.7831  -13.2907   16.9030 N   0  0  0  0  0  0  0  0  0  0  0  0
   12.5045  -19.5151   26.1012 C   0  0  0  0  0  0  0  0  0  0  0  0
   12.1225  -18.3640   25.3672 O   0  0  0  0  0  0  0  0  0  0  0  0
   12.7222  -17.2963   25.6751 C   0  0  0  0  0  0  0  0  0  0  0  0
   11.1208  -18.3012   24.3138 C   0  0  1  0  0  0  0  0  0  0  0  0
    9.9507  -17.3890   24.5736 N   0  0  0  0  0  0  0  0  0  0  0  0
    9.0414  -17.3019   23.4776 C   0  0  0  0  0  0  0  0  0  0  0  0
   10.3001  -16.1080   25.2091 O   0  0  0  0  0  0  0  0  0  0  0  0
   10.9983  -15.2845   24.5915 N   0  0  0  0  0  0  0  0  0  0  0  0
    9.8390  -15.8295   26.5140 C   0  0  1  0  0  0  0  0  0  0  0  0
   10.2803  -14.6735   27.2462 C   0  0  0  0  0  0  0  0  0  0  0  0
    9.4932  -13.4172   26.9621 S   0  0  0  0  0  0  0  0  0  0  0  0
    7.8422  -13.5185   27.6593 C   0  0  0  0  0  0  0  0  0  0  0  0
   10.4123  -14.9374   28.7044 O   0  0  0  0  0  0  0  0  0  0  0  0
   10.0549  -16.0404   29.1954 O   0  0  0  0  0  0  0  0  0  0  0  0
  2  1  1  0
  2  3  2  0
  4  2  1  0
  5  4  1  0
  6  5  1  0
  7  6  1  0
  8  7  1  0
  8  9  1  1
 10  8  1  0
 10 17  1  0
 11 10  2  0
 13 14  2  0
 13 12  1  0
 15 13  1  0
 16 17  1  0
 16 15  1  1
 18 16  1  0
 19 18  2  0
 20 18  1  0
 21 20  1  0
 21 24  1  0
 21 22  1  1
 23 22  1  0
 24 26  1  0
 25 24  2  0
M  END
$$$$
