RNC.pdb
     RDKit          3D

 26 25  0  0  1  0  0  0  0  0999 V2000
    8.9755  -13.3845   17.9440 N   0  0  0  0  0  0  0  0  0  0  0  0
    8.2353  -12.5584   18.8299 C   0  0  0  0  0  0  0  0  0  0  0  0
    8.4432  -11.2947   18.9209 N   0  0  0  0  0  0  0  0  0  0  0  0
    7.2113  -13.1187   19.6660 N   0  0  0  0  0  0  0  0  0  0  0  0
    6.8986  -14.5293   19.6662 C   0  0  0  0  0  0  0  0  0  0  0  0
    8.1114  -15.2957   20.0720 C   0  0  0  0  0  0  0  0  0  0  0  0
    8.3833  -15.3339   21.5439 C   0  0  0  0  0  0  0  0  0  0  0  0
    9.6283  -16.1081   21.8181 C   0  0  2  0  0  0  0  0  0  0  0  0
    9.5649  -17.3502   21.0729 N   0  0  0  0  0  0  0  0  0  0  0  0
    9.8364  -16.3669   23.2724 C   0  0  0  0  0  0  0  0  0  0  0  0
    9.2489  -15.6796   24.1383 O   0  0  0  0  0  0  0  0  0  0  0  0
    7.9322  -10.6908   19.5706 N   0  0  0  0  0  0  0  0  0  0  0  0
   11.6760  -20.2664   27.3877 C   0  0  0  0  0  0  0  0  0  0  0  0
   12.2440  -19.1820   26.6728 O   0  0  0  0  0  0  0  0  0  0  0  0
   13.0677  -18.4747   27.3176 C   0  0  0  0  0  0  0  0  0  0  0  0
   11.9682  -18.8153   25.2921 C   0  0  1  0  0  0  0  0  0  0  0  0
   11.0336  -17.6504   25.0959 N   0  0  0  0  0  0  0  0  0  0  0  0
   10.7096  -17.4036   23.7286 C   0  0  0  0  0  0  0  0  0  0  0  0
   11.3634  -16.4578   25.8933 O   0  0  0  0  0  0  0  0  0  0  0  0
   12.3321  -15.7484   25.5684 N   0  0  0  0  0  0  0  0  0  0  0  0
   10.5759  -16.1334   27.0191 C   0  0  1  0  0  0  0  0  0  0  0  0
   10.9149  -15.0464   27.8970 C   0  0  0  0  0  0  0  0  0  0  0  0
   10.1350  -13.7779   27.6491 S   0  0  0  0  0  0  0  0  0  0  0  0
    8.3757  -14.0457   27.8838 C   0  0  0  0  0  0  0  0  0  0  0  0
   10.9014  -15.4444   29.3303 O   0  0  0  0  0  0  0  0  0  0  0  0
   11.2072  -14.6201   30.2318 O   0  0  0  0  0  0  0  0  0  0  0  0
  2  1  1  0
  2  3  2  0
  4  2  1  0
  5  4  1  0
  6  5  1  0
  7  6  1  0
  8  7  1  0
  8  9  1  6
 10  8  1  0
 10 17  1  0
 11 10  2  0
 13 14  2  0
 13 12  1  0
 15 13  1  0
 16 17  1  0
 16 15  1  1
 18 16  1  0
 19 18  2  0
 20 18  1  0
 21 20  1  0
 21 24  1  0
 21 22  1  1
 23 22  1  0
 24 26  1  0
 25 24  2  0
M  END
$$$$
