RNC.pdb
     RDKit          3D

 26 25  0  0  1  0  0  0  0  0999 V2000
    8.9882  -19.5647   13.7142 N   0  0  0  0  0  0  0  0  0  0  0  0
    7.8468  -18.7930   13.3723 C   0  0  0  0  0  0  0  0  0  0  0  0
    7.8258  -18.0201   12.3473 N   0  0  0  0  0  0  0  0  0  0  0  0
    6.6576  -18.8545   14.1746 N   0  0  0  0  0  0  0  0  0  0  0  0
    6.6896  -18.7453   15.6150 C   0  0  0  0  0  0  0  0  0  0  0  0
    7.7637  -19.6327   16.1457 C   0  0  0  0  0  0  0  0  0  0  0  0
    9.0719  -18.9601   16.4248 C   0  0  0  0  0  0  0  0  0  0  0  0
    9.1847  -18.6346   17.8760 C   0  0  2  0  0  0  0  0  0  0  0  0
    7.9402  -19.0021   18.5226 N   0  0  0  0  0  0  0  0  0  0  0  0
    9.5109  -17.1995   18.1201 C   0  0  0  0  0  0  0  0  0  0  0  0
   10.5952  -16.7110   17.7290 O   0  0  0  0  0  0  0  0  0  0  0  0
    7.0185  -17.4404   12.1024 N   0  0  0  0  0  0  0  0  0  0  0  0
    7.1746  -11.7505   19.8734 C   0  0  0  0  0  0  0  0  0  0  0  0
    8.0333  -12.6263   19.1625 O   0  0  0  0  0  0  0  0  0  0  0  0
    9.1237  -12.1237   18.7716 C   0  0  0  0  0  0  0  0  0  0  0  0
    7.7770  -14.0232   18.8463 C   0  0  2  0  0  0  0  0  0  0  0  0
    8.8872  -14.9860   19.1771 N   0  0  0  0  0  0  0  0  0  0  0  0
    8.6023  -16.3338   18.8059 C   0  0  0  0  0  0  0  0  0  0  0  0
    9.4751  -14.8088   20.5150 O   0  0  0  0  0  0  0  0  0  0  0  0
    9.6972  -13.6623   20.9431 N   0  0  0  0  0  0  0  0  0  0  0  0
    9.7811  -15.9437   21.2968 C   0  0  1  0  0  0  0  0  0  0  0  0
    9.9720  -15.8586   22.7193 C   0  0  0  0  0  0  0  0  0  0  0  0
    8.8445  -15.1821   23.4607 S   0  0  0  0  0  0  0  0  0  0  0  0
    9.2135  -15.0466   25.2121 C   0  0  0  0  0  0  0  0  0  0  0  0
   10.3393  -17.1666   23.3254 O   0  0  0  0  0  0  0  0  0  0  0  0
   10.6345  -17.2517   24.5466 O   0  0  0  0  0  0  0  0  0  0  0  0
  2  1  1  0
  2  3  2  0
  4  2  1  0
  5  4  1  0
  6  5  1  0
  7  6  1  0
  8  7  1  0
  8  9  1  1
 10  8  1  0
 10 17  1  0
 11 10  2  0
 13 14  2  0
 13 12  1  0
 15 13  1  0
 16 17  1  0
 16 15  1  6
 18 16  1  0
 19 18  2  0
 20 18  1  0
 21 20  1  0
 21 24  1  0
 21 22  1  1
 23 22  1  0
 24 26  1  0
 25 24  2  0
M  END
$$$$
