PQC.pdb
     RDKit          3D

 23 23  0  0  1  0  0  0  0  0999 V2000
    8.3272  -15.4996   19.6473 N   0  0  0  0  0  0  0  0  0  0  0  0
    8.4215  -15.1242   18.2483 C   0  0  0  0  0  0  0  0  0  0  0  0
    7.7133  -13.8112   18.1045 C   0  0  0  0  0  0  0  0  0  0  0  0
    7.3318  -13.4289   19.5201 C   0  0  0  0  0  0  0  0  0  0  0  0
    8.2792  -14.2402   20.3418 C   0  0  1  0  0  0  0  0  0  0  0  0
    7.9050  -14.3752   21.7586 C   0  0  0  0  0  0  0  0  0  0  0  0
    7.7892  -13.3755   22.5303 O   0  0  0  0  0  0  0  0  0  0  0  0
    7.3647  -20.0218   24.5931 N   0  0  0  0  0  0  0  0  0  0  0  0
    6.8758  -19.1697   25.6028 C   0  0  0  0  0  0  0  0  0  0  0  0
    6.4989  -19.6614   26.7021 O   0  0  0  0  0  0  0  0  0  0  0  0
    6.7956  -17.6789   25.3916 C   0  0  0  0  0  0  0  0  0  0  0  0
    7.2220  -17.3727   23.9975 C   0  0  0  0  0  0  0  0  0  0  0  0
    7.2561  -15.9009   23.6731 C   0  0  2  0  0  0  0  0  0  0  0  0
    7.6607  -15.6675   22.2975 N   0  0  0  0  0  0  0  0  0  0  0  0
    8.0998  -15.1235   24.5867 C   0  0  0  0  0  0  0  0  0  0  0  0
    9.3391  -15.0505   24.5487 O   0  0  0  0  0  0  0  0  0  0  0  0
    7.4755  -14.3588   25.6401 N   0  0  0  0  0  0  0  0  0  0  0  0
    8.2622  -13.5317   26.5262 C   0  0  1  0  0  0  0  0  0  0  0  0
    7.4922  -12.3193   27.0029 C   0  0  0  0  0  0  0  0  0  0  0  0
    5.7215  -12.6393   27.0165 S   0  0  0  0  0  0  0  0  0  0  0  0
    8.6870  -14.3114   27.7074 C   0  0  0  0  0  0  0  0  0  0  0  0
    8.2175  -15.4569   27.8760 O   0  0  0  0  0  0  0  0  0  0  0  0
    9.5854  -13.8238   28.6368 O   0  0  0  0  0  0  0  0  0  0  0  0
  1  2  1  0
  2  3  1  0
  4  3  1  0
  5  4  1  0
  5  1  1  0
  6  7  2  0
  5  6  1  1
  8  9  1  0
  9 10  2  0
  9 11  1  0
 11 12  1  0
 13 12  1  1
 13 15  1  0
 13 14  1  0
 14  6  1  0
 15 17  1  0
 16 15  2  0
 17 18  1  0
 18 21  1  0
 18 19  1  1
 20 19  1  0
 21 22  2  0
 21 23  1  0
M  END
$$$$
