PQC.pdb
     RDKit          3D

 23 23  0  0  1  0  0  0  0  0999 V2000
    8.0074  -15.2914   19.9943 N   0  0  0  0  0  0  0  0  0  0  0  0
    7.9026  -14.7667   18.6450 C   0  0  0  0  0  0  0  0  0  0  0  0
    7.3429  -13.3813   18.7622 C   0  0  0  0  0  0  0  0  0  0  0  0
    7.2607  -13.1304   20.2541 C   0  0  0  0  0  0  0  0  0  0  0  0
    8.2317  -14.1232   20.8042 C   0  0  1  0  0  0  0  0  0  0  0  0
    8.0948  -14.3842   22.2459 C   0  0  0  0  0  0  0  0  0  0  0  0
    8.0654  -13.4531   23.1065 O   0  0  0  0  0  0  0  0  0  0  0  0
    5.3317  -20.2850   22.6932 N   0  0  0  0  0  0  0  0  0  0  0  0
    6.0613  -19.4999   23.6075 C   0  0  0  0  0  0  0  0  0  0  0  0
    6.5777  -20.0455   24.6213 O   0  0  0  0  0  0  0  0  0  0  0  0
    6.2354  -18.0174   23.3945 C   0  0  0  0  0  0  0  0  0  0  0  0
    7.3835  -17.5500   24.2204 C   0  0  0  0  0  0  0  0  0  0  0  0
    7.6833  -16.0791   24.0823 C   0  0  2  0  0  0  0  0  0  0  0  0
    7.9902  -15.7245   22.7073 N   0  0  0  0  0  0  0  0  0  0  0  0
    8.7522  -15.6173   24.9738 C   0  0  0  0  0  0  0  0  0  0  0  0
    9.9662  -15.6087   24.7113 O   0  0  0  0  0  0  0  0  0  0  0  0
    8.4079  -15.1194   26.2844 N   0  0  0  0  0  0  0  0  0  0  0  0
    9.4220  -14.6023   27.1745 C   0  0  1  0  0  0  0  0  0  0  0  0
    8.9172  -13.4318   27.9901 C   0  0  0  0  0  0  0  0  0  0  0  0
    7.9849  -12.2821   26.9670 S   0  0  0  0  0  0  0  0  0  0  0  0
    9.8729  -15.6603   28.1024 C   0  0  0  0  0  0  0  0  0  0  0  0
    9.2919  -16.7664   28.0857 O   0  0  0  0  0  0  0  0  0  0  0  0
   10.9145  -15.4761   28.9910 O   0  0  0  0  0  0  0  0  0  0  0  0
  1  2  1  0
  2  3  1  0
  4  3  1  0
  5  4  1  0
  5  1  1  0
  6  7  2  0
  5  6  1  1
  8  9  1  0
  9 10  2  0
  9 11  1  0
 11 12  1  0
 13 12  1  6
 13 15  1  0
 13 14  1  0
 14  6  1  0
 15 17  1  0
 16 15  2  0
 17 18  1  0
 18 21  1  0
 18 19  1  1
 20 19  1  0
 21 22  2  0
 21 23  1  0
M  END
$$$$
