PQC.pdb
     RDKit          3D

 23 23  0  0  1  0  0  0  0  0999 V2000
 2859.725845208.9219 8810.9014 N   0  0  0  0  0  0  0  0  0  0  0  0
 2858.995445210.0781 8810.4062 C   0  0  0  0  0  0  0  0  0  0  0  0
 2859.957345210.8320 8809.5117 C   0  0  0  0  0  0  0  0  0  0  0  0
 2861.200745209.9570 8809.4668 C   0  0  0  0  0  0  0  0  0  0  0  0
 2860.668745208.6250 8809.8516 C   0  0  1  0  0  0  0  0  0  0  0  0
 2861.686345207.6445 8810.2695 C   0  0  0  0  0  0  0  0  0  0  0  0
 2862.483445207.0977 8809.4385 O   0  0  0  0  0  0  0  0  0  0  0  0
 2861.296145206.3125 8816.7422 N   0  0  0  0  0  0  0  0  0  0  0  0
 2861.054445206.1992 8815.3457 C   0  0  0  0  0  0  0  0  0  0  0  0
 2860.257845207.0078 8814.7969 O   0  0  0  0  0  0  0  0  0  0  0  0
 2861.722745205.1445 8814.5283 C   0  0  0  0  0  0  0  0  0  0  0  0
 2862.507845205.8086 8813.4492 C   0  0  0  0  0  0  0  0  0  0  0  0
 2861.774945205.9453 8812.1445 C   0  0  2  0  0  0  0  0  0  0  0  0
 2861.815745207.3008 8811.6465 N   0  0  0  0  0  0  0  0  0  0  0  0
 2860.380445205.4805 8812.2051 C   0  0  0  0  0  0  0  0  0  0  0  0
 2859.984145204.4453 8812.7910 O   0  0  0  0  0  0  0  0  0  0  0  0
 2859.359145206.2422 8811.5332 N   0  0  0  0  0  0  0  0  0  0  0  0
 2858.093845205.6445 8811.1904 C   0  0  1  0  0  0  0  0  0  0  0  0
 2857.630645204.6367 8812.2490 C   0  0  0  0  0  0  0  0  0  0  0  0
 2856.629245205.4570 8813.5156 S   0  0  0  0  0  0  0  0  0  0  0  0
 2857.050045206.6758 8811.0674 C   0  0  0  0  0  0  0  0  0  0  0  0
 2855.856745206.3320 8810.9990 O   0  0  0  0  0  0  0  0  0  0  0  0
 2857.355245208.0352 8811.0254 O   0  0  0  0  0  0  0  0  0  0  0  0
  1  2  1  0
  2  3  1  0
  4  3  1  0
  5  4  1  0
  5  1  1  0
  6  7  2  0
  5  6  1  1
  8  9  1  0
  9 10  2  0
  9 11  1  0
 11 12  1  0
 13 12  1  1
 13 15  1  0
 13 14  1  0
 14  6  1  0
 15 17  1  0
 16 15  2  0
 17 18  1  0
 18 21  1  0
 18 19  1  1
 20 19  1  0
 21 22  2  0
 21 23  1  0
M  END
$$$$
