PQC.pdb
     RDKit          3D

 23 23  0  0  1  0  0  0  0  0999 V2000
    8.5292  -15.2177   19.3563 N   0  0  0  0  0  0  0  0  0  0  0  0
    8.7740  -14.8039   17.9867 C   0  0  0  0  0  0  0  0  0  0  0  0
    8.1494  -13.4510   17.8257 C   0  0  0  0  0  0  0  0  0  0  0  0
    7.6557  -13.0937   19.2128 C   0  0  0  0  0  0  0  0  0  0  0  0
    8.4792  -13.9800   20.0887 C   0  0  1  0  0  0  0  0  0  0  0  0
    7.9665  -14.1394   21.4589 C   0  0  0  0  0  0  0  0  0  0  0  0
    7.8254  -13.1592   22.2512 O   0  0  0  0  0  0  0  0  0  0  0  0
    6.4783  -19.0580   25.4208 N   0  0  0  0  0  0  0  0  0  0  0  0
    7.8275  -18.8328   25.0839 C   0  0  0  0  0  0  0  0  0  0  0  0
    8.7332  -19.4753   25.6831 O   0  0  0  0  0  0  0  0  0  0  0  0
    8.2074  -17.8359   24.0183 C   0  0  0  0  0  0  0  0  0  0  0  0
    6.9683  -17.1740   23.5229 C   0  0  0  0  0  0  0  0  0  0  0  0
    7.1192  -15.6959   23.2682 C   0  0  2  0  0  0  0  0  0  0  0  0
    7.6116  -15.4337   21.9268 N   0  0  0  0  0  0  0  0  0  0  0  0
    7.9635  -15.0186   24.2577 C   0  0  0  0  0  0  0  0  0  0  0  0
    9.1979  -14.8946   24.1984 O   0  0  0  0  0  0  0  0  0  0  0  0
    7.3461  -14.4280   25.4213 N   0  0  0  0  0  0  0  0  0  0  0  0
    8.1026  -13.5844   26.3181 C   0  0  1  0  0  0  0  0  0  0  0  0
    7.2873  -12.4104   26.8152 C   0  0  0  0  0  0  0  0  0  0  0  0
    5.6929  -12.9505   27.4510 S   0  0  0  0  0  0  0  0  0  0  0  0
    8.5612  -14.3647   27.4862 C   0  0  0  0  0  0  0  0  0  0  0  0
    9.2994  -13.8125   28.3296 O   0  0  0  0  0  0  0  0  0  0  0  0
    8.2059  -15.6849   27.6848 O   0  0  0  0  0  0  0  0  0  0  0  0
  1  2  1  0
  2  3  1  0
  4  3  1  0
  5  4  1  0
  5  1  1  0
  6  7  2  0
  5  6  1  1
  8  9  1  0
  9 10  2  0
  9 11  1  0
 11 12  1  0
 13 12  1  1
 13 15  1  0
 13 14  1  0
 14  6  1  0
 15 17  1  0
 16 15  2  0
 17 18  1  0
 18 21  1  0
 18 19  1  1
 20 19  1  0
 21 22  2  0
 21 23  1  0
M  END
$$$$
