PQC.pdb
     RDKit          3D

 23 23  0  0  1  0  0  0  0  0999 V2000
    7.7363  -14.9276   18.8335 N   0  0  0  0  0  0  0  0  0  0  0  0
    7.6450  -13.7625   17.9726 C   0  0  0  0  0  0  0  0  0  0  0  0
    7.6477  -12.5614   18.8691 C   0  0  0  0  0  0  0  0  0  0  0  0
    7.8675  -13.1253   20.2580 C   0  0  0  0  0  0  0  0  0  0  0  0
    8.4778  -14.4586   19.9741 C   0  0  1  0  0  0  0  0  0  0  0  0
    8.4546  -15.3995   21.1054 C   0  0  0  0  0  0  0  0  0  0  0  0
    7.4680  -16.1621   21.3365 O   0  0  0  0  0  0  0  0  0  0  0  0
   11.5094  -19.9831   22.6368 N   0  0  0  0  0  0  0  0  0  0  0  0
   11.9083  -18.9392   21.7791 C   0  0  0  0  0  0  0  0  0  0  0  0
   12.7888  -19.1576   20.9021 O   0  0  0  0  0  0  0  0  0  0  0  0
   11.3000  -17.5641   21.8919 C   0  0  0  0  0  0  0  0  0  0  0  0
   10.2940  -17.5779   22.9903 C   0  0  0  0  0  0  0  0  0  0  0  0
    9.5912  -16.2606   23.1985 C   0  0  2  0  0  0  0  0  0  0  0  0
    9.5721  -15.4683   21.9810 N   0  0  0  0  0  0  0  0  0  0  0  0
   10.1464  -15.4739   24.3046 C   0  0  0  0  0  0  0  0  0  0  0  0
   10.7887  -14.4164   24.1953 O   0  0  0  0  0  0  0  0  0  0  0  0
    9.9524  -15.9326   25.6597 N   0  0  0  0  0  0  0  0  0  0  0  0
   10.0867  -15.0278   26.7784 C   0  0  1  0  0  0  0  0  0  0  0  0
    8.9796  -13.9966   26.8096 C   0  0  0  0  0  0  0  0  0  0  0  0
    9.1901  -12.8601   28.1887 S   0  0  0  0  0  0  0  0  0  0  0  0
   10.0609  -15.7816   28.0491 C   0  0  0  0  0  0  0  0  0  0  0  0
    9.4828  -16.8888   28.0832 O   0  0  0  0  0  0  0  0  0  0  0  0
   10.6520  -15.3107   29.2056 O   0  0  0  0  0  0  0  0  0  0  0  0
  1  2  1  0
  2  3  1  0
  4  3  1  0
  5  4  1  0
  5  1  1  0
  6  7  2  0
  5  6  1  1
  8  9  1  0
  9 10  2  0
  9 11  1  0
 11 12  1  0
 13 12  1  6
 13 15  1  0
 13 14  1  0
 14  6  1  0
 15 17  1  0
 16 15  2  0
 17 18  1  0
 18 21  1  0
 18 19  1  1
 20 19  1  0
 21 22  2  0
 21 23  1  0
M  END
$$$$
