PQC.pdb
     RDKit          3D

 23 23  0  0  1  0  0  0  0  0999 V2000
    7.7485  -15.2159   19.6753 N   0  0  0  0  0  0  0  0  0  0  0  0
    7.7283  -14.6978   18.3195 C   0  0  0  0  0  0  0  0  0  0  0  0
    7.5923  -13.2092   18.4276 C   0  0  0  0  0  0  0  0  0  0  0  0
    7.6613  -12.9290   19.9150 C   0  0  0  0  0  0  0  0  0  0  0  0
    8.3367  -14.1514   20.4445 C   0  0  1  0  0  0  0  0  0  0  0  0
    8.2052  -14.3468   21.8971 C   0  0  0  0  0  0  0  0  0  0  0  0
    8.6876  -13.5313   22.7401 O   0  0  0  0  0  0  0  0  0  0  0  0
    5.6006  -19.5520   24.4775 N   0  0  0  0  0  0  0  0  0  0  0  0
    6.8006  -19.5134   23.7405 C   0  0  0  0  0  0  0  0  0  0  0  0
    7.3220  -20.5924   23.3454 O   0  0  0  0  0  0  0  0  0  0  0  0
    7.4725  -18.2032   23.4158 C   0  0  0  0  0  0  0  0  0  0  0  0
    6.6862  -17.0995   24.0343 C   0  0  0  0  0  0  0  0  0  0  0  0
    7.2627  -15.7264   23.8005 C   0  0  2  0  0  0  0  0  0  0  0  0
    7.5143  -15.4870   22.3899 N   0  0  0  0  0  0  0  0  0  0  0  0
    8.4760  -15.4646   24.5816 C   0  0  0  0  0  0  0  0  0  0  0  0
    9.4305  -14.7531   24.2273 O   0  0  0  0  0  0  0  0  0  0  0  0
    8.6157  -16.0676   25.8858 N   0  0  0  0  0  0  0  0  0  0  0  0
    9.3392  -15.3977   26.9422 C   0  0  1  0  0  0  0  0  0  0  0  0
    8.6444  -14.1301   27.3898 C   0  0  0  0  0  0  0  0  0  0  0  0
    9.6505  -12.6801   27.0390 S   0  0  0  0  0  0  0  0  0  0  0  0
    9.4801  -16.2923   28.1098 C   0  0  0  0  0  0  0  0  0  0  0  0
    8.8210  -17.3533   28.1410 O   0  0  0  0  0  0  0  0  0  0  0  0
   10.3138  -16.0026   29.1726 O   0  0  0  0  0  0  0  0  0  0  0  0
  1  2  1  0
  2  3  1  0
  4  3  1  0
  5  4  1  0
  5  1  1  0
  6  7  2  0
  5  6  1  1
  8  9  1  0
  9 10  2  0
  9 11  1  0
 11 12  1  0
 13 12  1  6
 13 15  1  0
 13 14  1  0
 14  6  1  0
 15 17  1  0
 16 15  2  0
 17 18  1  0
 18 21  1  0
 18 19  1  1
 20 19  1  0
 21 22  2  0
 21 23  1  0
M  END
$$$$
