PQC.pdb
     RDKit          3D

 23 23  0  0  1  0  0  0  0  0999 V2000
    9.0083  -14.9218   19.3053 N   0  0  0  0  0  0  0  0  0  0  0  0
    8.8722  -14.4793   17.9296 C   0  0  0  0  0  0  0  0  0  0  0  0
    7.6320  -13.6401   17.8661 C   0  0  0  0  0  0  0  0  0  0  0  0
    7.1632  -13.5467   19.3039 C   0  0  0  0  0  0  0  0  0  0  0  0
    8.4049  -13.8635   20.0713 C   0  0  1  0  0  0  0  0  0  0  0  0
    8.1822  -14.2242   21.4805 C   0  0  0  0  0  0  0  0  0  0  0  0
    7.4660  -13.5231   22.2577 O   0  0  0  0  0  0  0  0  0  0  0  0
   10.9815  -19.2537   24.1975 N   0  0  0  0  0  0  0  0  0  0  0  0
   10.2457  -19.2724   22.9963 C   0  0  0  0  0  0  0  0  0  0  0  0
   10.3871  -20.2377   22.1960 O   0  0  0  0  0  0  0  0  0  0  0  0
    9.2913  -18.1573   22.6510 C   0  0  0  0  0  0  0  0  0  0  0  0
    9.4367  -17.0760   23.6652 C   0  0  0  0  0  0  0  0  0  0  0  0
    8.6134  -15.8465   23.3770 C   0  0  2  0  0  0  0  0  0  0  0  0
    8.7851  -15.3994   22.0054 N   0  0  0  0  0  0  0  0  0  0  0  0
    8.8745  -14.7413   24.3050 C   0  0  0  0  0  0  0  0  0  0  0  0
    9.8447  -13.9672   24.2606 O   0  0  0  0  0  0  0  0  0  0  0  0
    7.9456  -14.4944   25.3822 N   0  0  0  0  0  0  0  0  0  0  0  0
    8.1622  -13.4160   26.3195 C   0  0  1  0  0  0  0  0  0  0  0  0
    7.0855  -12.3570   26.2241 C   0  0  0  0  0  0  0  0  0  0  0  0
    5.4606  -13.0510   26.5648 S   0  0  0  0  0  0  0  0  0  0  0  0
    8.1841  -13.9389   27.7014 C   0  0  0  0  0  0  0  0  0  0  0  0
    7.8955  -15.1386   27.8981 O   0  0  0  0  0  0  0  0  0  0  0  0
    8.5119  -13.1528   28.7892 O   0  0  0  0  0  0  0  0  0  0  0  0
  1  2  1  0
  2  3  1  0
  4  3  1  0
  5  4  1  0
  5  1  1  0
  6  7  2  0
  5  6  1  1
  8  9  1  0
  9 10  2  0
  9 11  1  0
 11 12  1  0
 13 12  1  1
 13 15  1  0
 13 14  1  0
 14  6  1  0
 15 17  1  0
 16 15  2  0
 17 18  1  0
 18 21  1  0
 18 19  1  1
 20 19  1  0
 21 22  2  0
 21 23  1  0
M  END
$$$$
