PQC.pdb
     RDKit          3D

 23 23  0  0  1  0  0  0  0  0999 V2000
    8.6113  -14.9051   19.6222 N   0  0  0  0  0  0  0  0  0  0  0  0
    8.7385  -14.4049   18.2655 C   0  0  0  0  0  0  0  0  0  0  0  0
    7.8086  -13.2355   18.1471 C   0  0  0  0  0  0  0  0  0  0  0  0
    7.2563  -13.0469   19.5453 C   0  0  0  0  0  0  0  0  0  0  0  0
    8.2747  -13.7371   20.3923 C   0  0  1  0  0  0  0  0  0  0  0  0
    7.8268  -14.0541   21.7578 C   0  0  0  0  0  0  0  0  0  0  0  0
    7.3559  -13.1749   22.5411 O   0  0  0  0  0  0  0  0  0  0  0  0
    6.0808  -20.1480   25.1595 N   0  0  0  0  0  0  0  0  0  0  0  0
    7.2046  -19.3048   25.0566 C   0  0  0  0  0  0  0  0  0  0  0  0
    8.3582  -19.8121   24.9921 O   0  0  0  0  0  0  0  0  0  0  0  0
    7.0517  -17.8052   25.0220 C   0  0  0  0  0  0  0  0  0  0  0  0
    7.5265  -17.3092   23.7001 C   0  0  0  0  0  0  0  0  0  0  0  0
    7.4629  -15.8110   23.5453 C   0  0  2  0  0  0  0  0  0  0  0  0
    7.9187  -15.3911   22.2314 N   0  0  0  0  0  0  0  0  0  0  0  0
    8.1953  -15.0870   24.5893 C   0  0  0  0  0  0  0  0  0  0  0  0
    9.4279  -14.9458   24.6494 O   0  0  0  0  0  0  0  0  0  0  0  0
    7.4570  -14.4663   25.6636 N   0  0  0  0  0  0  0  0  0  0  0  0
    8.1225  -13.6377   26.6427 C   0  0  1  0  0  0  0  0  0  0  0  0
    7.1634  -12.6893   27.3287 C   0  0  0  0  0  0  0  0  0  0  0  0
    6.0206  -11.9556   26.1482 S   0  0  0  0  0  0  0  0  0  0  0  0
    8.7642  -14.4813   27.6723 C   0  0  0  0  0  0  0  0  0  0  0  0
    8.6010  -15.7193   27.6268 O   0  0  0  0  0  0  0  0  0  0  0  0
    9.5402  -13.9556   28.6872 O   0  0  0  0  0  0  0  0  0  0  0  0
  1  2  1  0
  2  3  1  0
  4  3  1  0
  5  4  1  0
  5  1  1  0
  6  7  2  0
  5  6  1  1
  8  9  1  0
  9 10  2  0
  9 11  1  0
 11 12  1  0
 13 12  1  1
 13 15  1  0
 13 14  1  0
 14  6  1  0
 15 17  1  0
 16 15  2  0
 17 18  1  0
 18 21  1  0
 18 19  1  1
 20 19  1  0
 21 22  2  0
 21 23  1  0
M  END
$$$$
