PQC.pdb
     RDKit          3D

 23 23  0  0  1  0  0  0  0  0999 V2000
    8.3524  -15.2554   19.6838 N   0  0  0  0  0  0  0  0  0  0  0  0
    8.3841  -14.6603   18.3602 C   0  0  0  0  0  0  0  0  0  0  0  0
    7.6792  -13.3416   18.4623 C   0  0  0  0  0  0  0  0  0  0  0  0
    7.3668  -13.1916   19.9373 C   0  0  0  0  0  0  0  0  0  0  0  0
    8.3456  -14.1239   20.5727 C   0  0  1  0  0  0  0  0  0  0  0  0
    8.0369  -14.4847   21.9656 C   0  0  0  0  0  0  0  0  0  0  0  0
    7.9006  -13.6161   22.8796 O   0  0  0  0  0  0  0  0  0  0  0  0
    6.7331  -20.4473   23.6944 N   0  0  0  0  0  0  0  0  0  0  0  0
    6.6777  -19.7879   24.9381 C   0  0  0  0  0  0  0  0  0  0  0  0
    6.3490  -20.4350   25.9703 O   0  0  0  0  0  0  0  0  0  0  0  0
    7.0050  -18.3208   25.0563 C   0  0  0  0  0  0  0  0  0  0  0  0
    7.2984  -17.7882   23.6964 C   0  0  0  0  0  0  0  0  0  0  0  0
    7.5920  -16.3099   23.6641 C   0  0  2  0  0  0  0  0  0  0  0  0
    7.8824  -15.8535   22.3158 N   0  0  0  0  0  0  0  0  0  0  0  0
    8.6694  -15.9110   24.5755 C   0  0  0  0  0  0  0  0  0  0  0  0
    9.8759  -15.8399   24.2895 O   0  0  0  0  0  0  0  0  0  0  0  0
    8.3435  -15.5605   25.9376 N   0  0  0  0  0  0  0  0  0  0  0  0
    9.3392  -14.9957   26.8195 C   0  0  1  0  0  0  0  0  0  0  0  0
    8.8523  -13.7274   27.4861 C   0  0  0  0  0  0  0  0  0  0  0  0
   10.0975  -13.0609   28.6010 S   0  0  0  0  0  0  0  0  0  0  0  0
    9.6994  -15.9694   27.8711 C   0  0  0  0  0  0  0  0  0  0  0  0
    8.9491  -16.9484   28.0706 O   0  0  0  0  0  0  0  0  0  0  0  0
   10.8360  -15.8412   28.6459 O   0  0  0  0  0  0  0  0  0  0  0  0
  1  2  1  0
  2  3  1  0
  4  3  1  0
  5  4  1  0
  5  1  1  0
  6  7  2  0
  5  6  1  1
  8  9  1  0
  9 10  2  0
  9 11  1  0
 11 12  1  0
 13 12  1  6
 13 15  1  0
 13 14  1  0
 14  6  1  0
 15 17  1  0
 16 15  2  0
 17 18  1  0
 18 21  1  0
 18 19  1  1
 20 19  1  0
 21 22  2  0
 21 23  1  0
M  END
$$$$
