PQC.pdb
     RDKit          3D

 23 23  0  0  1  0  0  0  0  0999 V2000
    8.5202  -15.1810   19.5730 N   0  0  0  0  0  0  0  0  0  0  0  0
    8.7130  -14.7134   18.2124 C   0  0  0  0  0  0  0  0  0  0  0  0
    7.8975  -13.4646   18.0649 C   0  0  0  0  0  0  0  0  0  0  0  0
    7.3447  -13.2065   19.4518 C   0  0  0  0  0  0  0  0  0  0  0  0
    8.2822  -13.9763   20.3233 C   0  0  1  0  0  0  0  0  0  0  0  0
    7.7870  -14.2317   21.6852 C   0  0  0  0  0  0  0  0  0  0  0  0
    7.3011  -13.3160   22.4158 O   0  0  0  0  0  0  0  0  0  0  0  0
    5.0221  -20.0573   23.6466 N   0  0  0  0  0  0  0  0  0  0  0  0
    6.1258  -19.4524   23.0137 C   0  0  0  0  0  0  0  0  0  0  0  0
    7.0867  -20.1696   22.6208 O   0  0  0  0  0  0  0  0  0  0  0  0
    6.1777  -17.9610   22.7977 C   0  0  0  0  0  0  0  0  0  0  0  0
    7.2107  -17.3851   23.7033 C   0  0  0  0  0  0  0  0  0  0  0  0
    7.4006  -15.8972   23.5538 C   0  0  2  0  0  0  0  0  0  0  0  0
    7.8483  -15.5487   22.2164 N   0  0  0  0  0  0  0  0  0  0  0  0
    8.3053  -15.3229   24.5550 C   0  0  0  0  0  0  0  0  0  0  0  0
    9.5417  -15.2497   24.4621 O   0  0  0  0  0  0  0  0  0  0  0  0
    7.7519  -14.7821   25.7738 N   0  0  0  0  0  0  0  0  0  0  0  0
    8.5978  -14.1443   26.7567 C   0  0  1  0  0  0  0  0  0  0  0  0
    7.8371  -13.1366   27.5910 C   0  0  0  0  0  0  0  0  0  0  0  0
    6.8227  -12.0705   26.5555 S   0  0  0  0  0  0  0  0  0  0  0  0
    9.1806  -15.1571   27.6612 C   0  0  0  0  0  0  0  0  0  0  0  0
    8.8388  -16.3518   27.5309 O   0  0  0  0  0  0  0  0  0  0  0  0
   10.0916  -14.8360   28.6490 O   0  0  0  0  0  0  0  0  0  0  0  0
  1  2  1  0
  2  3  1  0
  4  3  1  0
  5  4  1  0
  5  1  1  0
  6  7  2  0
  5  6  1  1
  8  9  1  0
  9 10  2  0
  9 11  1  0
 11 12  1  0
 13 12  1  6
 13 15  1  0
 13 14  1  0
 14  6  1  0
 15 17  1  0
 16 15  2  0
 17 18  1  0
 18 21  1  0
 18 19  1  1
 20 19  1  0
 21 22  2  0
 21 23  1  0
M  END
$$$$
