PQC.pdb
     RDKit          3D

 23 23  0  0  1  0  0  0  0  0999 V2000
    8.6163  -15.3426   19.7413 N   0  0  0  0  0  0  0  0  0  0  0  0
    8.8209  -14.9439   18.3607 C   0  0  0  0  0  0  0  0  0  0  0  0
    7.9576  -13.7415   18.1255 C   0  0  0  0  0  0  0  0  0  0  0  0
    7.3626  -13.4303   19.4837 C   0  0  0  0  0  0  0  0  0  0  0  0
    8.3110  -14.1092   20.4168 C   0  0  1  0  0  0  0  0  0  0  0  0
    7.7954  -14.3091   21.7805 C   0  0  0  0  0  0  0  0  0  0  0  0
    7.4099  -13.3464   22.5105 O   0  0  0  0  0  0  0  0  0  0  0  0
    7.2062  -20.0868   24.3440 N   0  0  0  0  0  0  0  0  0  0  0  0
    6.8335  -19.2713   25.4306 C   0  0  0  0  0  0  0  0  0  0  0  0
    6.4934  -19.8067   26.5214 O   0  0  0  0  0  0  0  0  0  0  0  0
    6.8346  -17.7681   25.3116 C   0  0  0  0  0  0  0  0  0  0  0  0
    7.3027  -17.3996   23.9464 C   0  0  0  0  0  0  0  0  0  0  0  0
    7.2994  -15.9171   23.6734 C   0  0  2  0  0  0  0  0  0  0  0  0
    7.7200  -15.6244   22.3140 N   0  0  0  0  0  0  0  0  0  0  0  0
    8.1047  -15.1483   24.6280 C   0  0  0  0  0  0  0  0  0  0  0  0
    9.3454  -15.0976   24.6589 O   0  0  0  0  0  0  0  0  0  0  0  0
    7.4366  -14.3651   25.6401 N   0  0  0  0  0  0  0  0  0  0  0  0
    8.1876  -13.5460   26.5639 C   0  0  1  0  0  0  0  0  0  0  0  0
    7.2931  -12.6116   27.3493 C   0  0  0  0  0  0  0  0  0  0  0  0
    5.9471  -11.9913   26.3288 S   0  0  0  0  0  0  0  0  0  0  0  0
    8.9261  -14.3997   27.5175 C   0  0  0  0  0  0  0  0  0  0  0  0
    8.8062  -15.6407   27.4355 O   0  0  0  0  0  0  0  0  0  0  0  0
    9.7468  -13.8802   28.4998 O   0  0  0  0  0  0  0  0  0  0  0  0
  1  2  1  0
  2  3  1  0
  4  3  1  0
  5  4  1  0
  5  1  1  0
  6  7  2  0
  5  6  1  1
  8  9  1  0
  9 10  2  0
  9 11  1  0
 11 12  1  0
 13 12  1  1
 13 15  1  0
 13 14  1  0
 14  6  1  0
 15 17  1  0
 16 15  2  0
 17 18  1  0
 18 21  1  0
 18 19  1  1
 20 19  1  0
 21 22  2  0
 21 23  1  0
M  END
$$$$
