PQC.pdb
     RDKit          3D

 23 23  0  0  1  0  0  0  0  0999 V2000
    8.3941  -15.3211   19.6514 N   0  0  0  0  0  0  0  0  0  0  0  0
    8.5875  -14.9389   18.2645 C   0  0  0  0  0  0  0  0  0  0  0  0
    7.7756  -13.6991   18.0406 C   0  0  0  0  0  0  0  0  0  0  0  0
    7.2244  -13.3543   19.4091 C   0  0  0  0  0  0  0  0  0  0  0  0
    8.1602  -14.0717   20.3260 C   0  0  1  0  0  0  0  0  0  0  0  0
    7.6649  -14.2410   21.7014 C   0  0  0  0  0  0  0  0  0  0  0  0
    7.3616  -13.2570   22.4417 O   0  0  0  0  0  0  0  0  0  0  0  0
    7.4451  -19.9391   24.4707 N   0  0  0  0  0  0  0  0  0  0  0  0
    6.9233  -19.1269   25.4967 C   0  0  0  0  0  0  0  0  0  0  0  0
    6.5848  -19.6517   26.5931 O   0  0  0  0  0  0  0  0  0  0  0  0
    6.7626  -17.6398   25.3061 C   0  0  0  0  0  0  0  0  0  0  0  0
    7.1249  -17.2985   23.9021 C   0  0  0  0  0  0  0  0  0  0  0  0
    7.1704  -15.8183   23.6202 C   0  0  2  0  0  0  0  0  0  0  0  0
    7.5152  -15.5500   22.2347 N   0  0  0  0  0  0  0  0  0  0  0  0
    8.0693  -15.0832   24.5159 C   0  0  0  0  0  0  0  0  0  0  0  0
    9.2844  -14.8986   24.3370 O   0  0  0  0  0  0  0  0  0  0  0  0
    7.5360  -14.5047   25.7264 N   0  0  0  0  0  0  0  0  0  0  0  0
    8.3520  -13.6636   26.5719 C   0  0  1  0  0  0  0  0  0  0  0  0
    7.5438  -12.5657   27.2287 C   0  0  0  0  0  0  0  0  0  0  0  0
    5.8384  -13.0796   27.4843 S   0  0  0  0  0  0  0  0  0  0  0  0
    8.9911  -14.4725   27.6305 C   0  0  0  0  0  0  0  0  0  0  0  0
    8.7043  -15.6853   27.7203 O   0  0  0  0  0  0  0  0  0  0  0  0
    9.8962  -13.9409   28.5287 O   0  0  0  0  0  0  0  0  0  0  0  0
  1  2  1  0
  2  3  1  0
  4  3  1  0
  5  4  1  0
  5  1  1  0
  6  7  2  0
  5  6  1  1
  8  9  1  0
  9 10  2  0
  9 11  1  0
 11 12  1  0
 13 12  1  1
 13 15  1  0
 13 14  1  0
 14  6  1  0
 15 17  1  0
 16 15  2  0
 17 18  1  0
 18 21  1  0
 18 19  1  1
 20 19  1  0
 21 22  2  0
 21 23  1  0
M  END
$$$$
