PQC.pdb
     RDKit          3D

 23 23  0  0  1  0  0  0  0  0999 V2000
    8.6610  -15.0417   19.3226 N   0  0  0  0  0  0  0  0  0  0  0  0
    8.7087  -14.4431   18.0011 C   0  0  0  0  0  0  0  0  0  0  0  0
    7.9687  -13.1427   18.0887 C   0  0  0  0  0  0  0  0  0  0  0  0
    7.6182  -13.0038   19.5561 C   0  0  0  0  0  0  0  0  0  0  0  0
    8.6051  -13.9126   20.2129 C   0  0  1  0  0  0  0  0  0  0  0  0
    8.2729  -14.2840   21.5976 C   0  0  0  0  0  0  0  0  0  0  0  0
    8.0399  -13.4205   22.4967 O   0  0  0  0  0  0  0  0  0  0  0  0
    5.6739  -18.7514   21.9295 N   0  0  0  0  0  0  0  0  0  0  0  0
    5.5390  -18.6943   23.3306 C   0  0  0  0  0  0  0  0  0  0  0  0
    4.4644  -19.0802   23.8677 O   0  0  0  0  0  0  0  0  0  0  0  0
    6.6583  -18.1792   24.1998 C   0  0  0  0  0  0  0  0  0  0  0  0
    7.7298  -17.6328   23.3209 C   0  0  0  0  0  0  0  0  0  0  0  0
    7.7680  -16.1271   23.2596 C   0  0  2  0  0  0  0  0  0  0  0  0
    8.2068  -15.6576   21.9567 N   0  0  0  0  0  0  0  0  0  0  0  0
    8.5861  -15.5228   24.3161 C   0  0  0  0  0  0  0  0  0  0  0  0
    9.8229  -15.4099   24.3044 O   0  0  0  0  0  0  0  0  0  0  0  0
    7.9367  -14.9985   25.4941 N   0  0  0  0  0  0  0  0  0  0  0  0
    8.7058  -14.4316   26.5782 C   0  0  1  0  0  0  0  0  0  0  0  0
    7.9189  -13.3948   27.3501 C   0  0  0  0  0  0  0  0  0  0  0  0
    7.2155  -12.1598   26.2465 S   0  0  0  0  0  0  0  0  0  0  0  0
    9.1259  -15.4944   27.5150 C   0  0  0  0  0  0  0  0  0  0  0  0
    8.7605  -16.6695   27.2987 O   0  0  0  0  0  0  0  0  0  0  0  0
    9.9091  -15.2412   28.6245 O   0  0  0  0  0  0  0  0  0  0  0  0
  1  2  1  0
  2  3  1  0
  4  3  1  0
  5  4  1  0
  5  1  1  0
  6  7  2  0
  5  6  1  1
  8  9  1  0
  9 10  2  0
  9 11  1  0
 11 12  1  0
 13 12  1  6
 13 15  1  0
 13 14  1  0
 14  6  1  0
 15 17  1  0
 16 15  2  0
 17 18  1  0
 18 21  1  0
 18 19  1  1
 20 19  1  0
 21 22  2  0
 21 23  1  0
M  END
$$$$
