PQC.pdb
     RDKit          3D

 23 23  0  0  1  0  0  0  0  0999 V2000
    8.2010  -15.2633   19.6184 N   0  0  0  0  0  0  0  0  0  0  0  0
    8.2501  -14.7893   18.2473 C   0  0  0  0  0  0  0  0  0  0  0  0
    7.5503  -13.4642   18.2227 C   0  0  0  0  0  0  0  0  0  0  0  0
    7.2223  -13.1814   19.6746 C   0  0  0  0  0  0  0  0  0  0  0  0
    8.1898  -14.0565   20.4022 C   0  0  1  0  0  0  0  0  0  0  0  0
    7.8639  -14.2898   21.8182 C   0  0  0  0  0  0  0  0  0  0  0  0
    7.5859  -13.3451   22.6174 O   0  0  0  0  0  0  0  0  0  0  0  0
    5.3364  -20.1276   21.9864 N   0  0  0  0  0  0  0  0  0  0  0  0
    5.7311  -19.3347   23.0819 C   0  0  0  0  0  0  0  0  0  0  0  0
    5.9326  -19.8789   24.2023 O   0  0  0  0  0  0  0  0  0  0  0  0
    5.9170  -17.8453   22.9375 C   0  0  0  0  0  0  0  0  0  0  0  0
    7.0752  -17.4273   23.7759 C   0  0  0  0  0  0  0  0  0  0  0  0
    7.4186  -15.9636   23.6660 C   0  0  2  0  0  0  0  0  0  0  0  0
    7.8561  -15.6179   22.3246 N   0  0  0  0  0  0  0  0  0  0  0  0
    8.4127  -15.5241   24.6506 C   0  0  0  0  0  0  0  0  0  0  0  0
    9.6428  -15.6686   24.5574 O   0  0  0  0  0  0  0  0  0  0  0  0
    7.9658  -14.8589   25.8514 N   0  0  0  0  0  0  0  0  0  0  0  0
    8.9126  -14.3055   26.7924 C   0  0  1  0  0  0  0  0  0  0  0  0
    8.3259  -13.1500   27.5738 C   0  0  0  0  0  0  0  0  0  0  0  0
    7.6196  -11.9143   26.4729 S   0  0  0  0  0  0  0  0  0  0  0  0
    9.3476  -15.3450   27.7483 C   0  0  0  0  0  0  0  0  0  0  0  0
    8.8226  -16.4773   27.6899 O   0  0  0  0  0  0  0  0  0  0  0  0
   10.3146  -15.1154   28.7078 O   0  0  0  0  0  0  0  0  0  0  0  0
  1  2  1  0
  2  3  1  0
  4  3  1  0
  5  4  1  0
  5  1  1  0
  6  7  2  0
  5  6  1  1
  8  9  1  0
  9 10  2  0
  9 11  1  0
 11 12  1  0
 13 12  1  6
 13 15  1  0
 13 14  1  0
 14  6  1  0
 15 17  1  0
 16 15  2  0
 17 18  1  0
 18 21  1  0
 18 19  1  1
 20 19  1  0
 21 22  2  0
 21 23  1  0
M  END
$$$$
