NWQ.pdb
     RDKit          3D

 32 33  0  0  1  0  0  0  0  0999 V2000
   27.0840  -26.9589  -19.9919 N   0  0  0  0  0  0  0  0  0  0  0  0
   26.4833  -25.8811  -19.2849 C   0  0  0  0  0  0  0  0  0  0  0  0
   26.1821  -24.8380  -19.9162 O   0  0  0  0  0  0  0  0  0  0  0  0
   26.1979  -25.9327  -17.8413 C   0  0  0  0  0  0  0  0  0  0  0  0
   26.6509  -24.5879  -17.2552 C   0  0  2  0  0  0  0  0  0  0  0  0
   28.0963  -24.6704  -17.0066 N   0  0  0  0  0  0  0  0  0  0  0  0
   25.9856  -24.3810  -15.9501 C   0  0  0  0  0  0  0  0  0  0  0  0
   26.0711  -25.2609  -15.0690 O   0  0  0  0  0  0  0  0  0  0  0  0
   25.2399  -23.1932  -15.6593 N   0  0  0  0  0  0  0  0  0  0  0  0
   24.7021  -23.0317  -14.3431 C   0  0  1  0  0  0  0  0  0  0  0  0
   24.9146  -21.5766  -13.9618 C   0  0  0  0  0  0  0  0  0  0  0  0
   24.4789  -21.2702  -12.5798 C   0  0  0  0  0  0  0  0  0  0  0  0
   25.1249  -21.6723  -11.4099 C   0  0  0  0  0  0  0  0  0  0  0  0
   24.4312  -21.2096  -10.3607 N   0  0  0  0  0  0  0  0  0  0  0  0
   23.3714  -20.5301  -10.8162 C   0  0  0  0  0  0  0  0  0  0  0  0
   22.3587  -19.8651  -10.1474 C   0  0  0  0  0  0  0  0  0  0  0  0
   21.3673  -19.2318  -10.8550 C   0  0  0  0  0  0  0  0  0  0  0  0
   21.3521  -19.2400  -12.2203 C   0  0  0  0  0  0  0  0  0  0  0  0
   22.3549  -19.8988  -12.8904 C   0  0  0  0  0  0  0  0  0  0  0  0
   23.3685  -20.5468  -12.2126 C   0  0  0  0  0  0  0  0  0  0  0  0
   23.2616  -23.3837  -14.3312 C   0  0  0  0  0  0  0  0  0  0  0  0
   22.5949  -23.0259  -15.3547 O   0  0  0  0  0  0  0  0  0  0  0  0
   20.3922  -27.9070  -10.9848 N   0  0  0  0  0  0  0  0  0  0  0  0
   19.3167  -27.2481  -11.6541 C   0  0  0  0  0  0  0  0  0  0  0  0
   18.1349  -27.7037  -11.4808 O   0  0  0  0  0  0  0  0  0  0  0  0
   19.5462  -26.0772  -12.5124 C   0  0  0  0  0  0  0  0  0  0  0  0
   20.9584  -25.6382  -12.5590 C   0  0  0  0  0  0  0  0  0  0  0  0
   21.1950  -24.4204  -13.3777 C   0  0  2  0  0  0  0  0  0  0  0  0
   22.6388  -24.0709  -13.2720 N   0  0  0  0  0  0  0  0  0  0  0  0
   20.4598  -23.2119  -13.0678 C   0  0  0  0  0  0  0  0  0  0  0  0
   19.6032  -22.7388  -13.8782 O   0  0  0  0  0  0  0  0  0  0  0  0
   20.6139  -22.4807  -11.8745 O   0  0  0  0  0  0  0  0  0  0  0  0
  2  1  1  0
  3  2  2  0
  4  5  1  0
  4  2  1  0
  5  6  1  1
  7  5  1  0
  7  8  2  0
  9  7  1  0
 10  9  1  0
 10 11  1  6
 12 11  1  0
 12 13  2  0
 14 13  1  0
 15 20  2  0
 15 14  1  0
 16 15  1  0
 17 18  1  0
 17 16  2  0
 18 19  2  0
 19 20  1  0
 20 12  1  0
 21 10  1  0
 22 21  2  0
 23 24  1  0
 24 26  1  0
 25 24  2  0
 27 26  1  0
 28 27  1  1
 28 29  1  0
 28 30  1  0
 29 21  1  0
 30 32  1  0
 31 30  2  0
M  END
$$$$
