NWQ.pdb
     RDKit          3D

 32 33  0  0  1  0  0  0  0  0999 V2000
   29.0496  -20.3977  -17.2508 N   0  0  0  0  0  0  0  0  0  0  0  0
   28.4973  -21.7037  -17.1439 C   0  0  0  0  0  0  0  0  0  0  0  0
   28.7322  -22.5352  -18.0554 O   0  0  0  0  0  0  0  0  0  0  0  0
   27.6593  -22.1267  -16.0094 C   0  0  0  0  0  0  0  0  0  0  0  0
   27.5104  -20.9040  -15.0928 C   0  0  2  0  0  0  0  0  0  0  0  0
   28.8342  -20.5972  -14.5350 N   0  0  0  0  0  0  0  0  0  0  0  0
   26.6209  -21.2525  -13.9632 C   0  0  0  0  0  0  0  0  0  0  0  0
   26.0527  -22.3637  -13.9469 O   0  0  0  0  0  0  0  0  0  0  0  0
   26.3874  -20.3498  -12.8760 N   0  0  0  0  0  0  0  0  0  0  0  0
   25.4914  -20.7535  -11.8359 C   0  0  1  0  0  0  0  0  0  0  0  0
   25.8772  -19.9621  -10.5978 C   0  0  0  0  0  0  0  0  0  0  0  0
   27.1447  -20.4240   -9.9866 C   0  0  0  0  0  0  0  0  0  0  0  0
   28.1376  -21.1687  -10.6249 C   0  0  0  0  0  0  0  0  0  0  0  0
   29.1258  -21.3984   -9.7493 N   0  0  0  0  0  0  0  0  0  0  0  0
   28.8015  -20.8301   -8.5813 C   0  0  0  0  0  0  0  0  0  0  0  0
   29.4759  -20.7792   -7.3739 C   0  0  0  0  0  0  0  0  0  0  0  0
   28.9222  -20.1207   -6.3041 C   0  0  0  0  0  0  0  0  0  0  0  0
   27.7070  -19.5056   -6.3993 C   0  0  0  0  0  0  0  0  0  0  0  0
   27.0322  -19.5527   -7.5956 C   0  0  0  0  0  0  0  0  0  0  0  0
   27.5575  -20.2055   -8.6931 C   0  0  0  0  0  0  0  0  0  0  0  0
   24.0891  -20.4786  -12.2320 C   0  0  0  0  0  0  0  0  0  0  0  0
   23.8798  -19.3512  -12.7845 O   0  0  0  0  0  0  0  0  0  0  0  0
   19.7083  -22.0365  -15.8230 N   0  0  0  0  0  0  0  0  0  0  0  0
   21.1334  -22.0727  -15.9031 C   0  0  0  0  0  0  0  0  0  0  0  0
   21.6683  -22.0591  -17.0640 O   0  0  0  0  0  0  0  0  0  0  0  0
   21.9713  -22.1169  -14.6963 C   0  0  0  0  0  0  0  0  0  0  0  0
   21.2027  -22.0659  -13.4330 C   0  0  0  0  0  0  0  0  0  0  0  0
   21.6604  -21.0223  -12.4788 C   0  0  2  0  0  0  0  0  0  0  0  0
   23.0319  -21.3855  -12.0262 N   0  0  0  0  0  0  0  0  0  0  0  0
   20.8867  -20.7795  -11.2791 C   0  0  0  0  0  0  0  0  0  0  0  0
   21.2496  -21.2526  -10.1571 O   0  0  0  0  0  0  0  0  0  0  0  0
   19.7061  -20.0129  -11.2452 O   0  0  0  0  0  0  0  0  0  0  0  0
  2  1  1  0
  3  2  2  0
  4  5  1  0
  4  2  1  0
  5  6  1  1
  7  5  1  0
  7  8  2  0
  9  7  1  0
 10  9  1  0
 10 11  1  1
 12 11  1  0
 12 13  2  0
 14 13  1  0
 15 20  2  0
 15 14  1  0
 16 15  1  0
 17 18  1  0
 17 16  2  0
 18 19  2  0
 19 20  1  0
 20 12  1  0
 21 10  1  0
 22 21  2  0
 23 24  1  0
 24 26  1  0
 25 24  2  0
 27 26  1  0
 28 27  1  1
 28 29  1  0
 28 30  1  0
 29 21  1  0
 30 32  1  0
 31 30  2  0
M  END
$$$$
