NWQ.pdb
     RDKit          3D

 32 33  0  0  1  0  0  0  0  0999 V2000
   29.8943  -22.9943  -17.1211 N   0  0  0  0  0  0  0  0  0  0  0  0
   28.8312  -22.1128  -16.7824 C   0  0  0  0  0  0  0  0  0  0  0  0
   28.6411  -21.0948  -17.4931 O   0  0  0  0  0  0  0  0  0  0  0  0
   27.9404  -22.3398  -15.6322 C   0  0  0  0  0  0  0  0  0  0  0  0
   27.8875  -21.0199  -14.8497 C   0  0  2  0  0  0  0  0  0  0  0  0
   29.2691  -20.6156  -14.5574 N   0  0  0  0  0  0  0  0  0  0  0  0
   27.2082  -21.2520  -13.5561 C   0  0  0  0  0  0  0  0  0  0  0  0
   26.0977  -21.8215  -13.5371 O   0  0  0  0  0  0  0  0  0  0  0  0
   27.7872  -20.8423  -12.3118 N   0  0  0  0  0  0  0  0  0  0  0  0
   27.0346  -21.0430  -11.1114 C   0  0  1  0  0  0  0  0  0  0  0  0
   27.9060  -20.5584   -9.9653 C   0  0  0  0  0  0  0  0  0  0  0  0
   27.1844  -20.5003   -8.6732 C   0  0  0  0  0  0  0  0  0  0  0  0
   25.8311  -20.7802   -8.4782 C   0  0  0  0  0  0  0  0  0  0  0  0
   25.5454  -20.6142   -7.1794 N   0  0  0  0  0  0  0  0  0  0  0  0
   26.6617  -20.2405   -6.5415 C   0  0  0  0  0  0  0  0  0  0  0  0
   26.8960  -19.9485   -5.2093 C   0  0  0  0  0  0  0  0  0  0  0  0
   28.1532  -19.5834   -4.7960 C   0  0  0  0  0  0  0  0  0  0  0  0
   29.1941  -19.4990   -5.6755 C   0  0  0  0  0  0  0  0  0  0  0  0
   28.9679  -19.7875   -6.9999 C   0  0  0  0  0  0  0  0  0  0  0  0
   27.7170  -20.1581   -7.4524 C   0  0  0  0  0  0  0  0  0  0  0  0
   25.7606  -20.2867  -11.1726 C   0  0  0  0  0  0  0  0  0  0  0  0
   25.8682  -19.0346  -11.3743 O   0  0  0  0  0  0  0  0  0  0  0  0
   23.7836  -19.2255  -15.6842 N   0  0  0  0  0  0  0  0  0  0  0  0
   22.5437  -18.9346  -15.0386 C   0  0  0  0  0  0  0  0  0  0  0  0
   21.6248  -18.3769  -15.7306 O   0  0  0  0  0  0  0  0  0  0  0  0
   22.3150  -19.2675  -13.6254 C   0  0  0  0  0  0  0  0  0  0  0  0
   23.5011  -19.8331  -12.9453 C   0  0  0  0  0  0  0  0  0  0  0  0
   23.2858  -20.1657  -11.5127 C   0  0  2  0  0  0  0  0  0  0  0  0
   24.4946  -20.8843  -11.0227 N   0  0  0  0  0  0  0  0  0  0  0  0
   22.1488  -20.9835  -11.1447 C   0  0  0  0  0  0  0  0  0  0  0  0
   22.2524  -22.2461  -11.0480 O   0  0  0  0  0  0  0  0  0  0  0  0
   20.8692  -20.4701  -10.8592 O   0  0  0  0  0  0  0  0  0  0  0  0
  2  1  1  0
  3  2  2  0
  4  5  1  0
  4  2  1  0
  5  6  1  1
  7  5  1  0
  7  8  2  0
  9  7  1  0
 10  9  1  0
 10 11  1  1
 12 11  1  0
 12 13  2  0
 14 13  1  0
 15 20  2  0
 15 14  1  0
 16 15  1  0
 17 18  1  0
 17 16  2  0
 18 19  2  0
 19 20  1  0
 20 12  1  0
 21 10  1  0
 22 21  2  0
 23 24  1  0
 24 26  1  0
 25 24  2  0
 27 26  1  0
 28 27  1  6
 28 29  1  0
 28 30  1  0
 29 21  1  0
 30 32  1  0
 31 30  2  0
M  END
$$$$
