NWQ.pdb
     RDKit          3D

 32 33  0  0  1  0  0  0  0  0999 V2000
   26.9562  -25.9239  -19.6710 N   0  0  0  0  0  0  0  0  0  0  0  0
   26.6724  -24.7608  -18.9038 C   0  0  0  0  0  0  0  0  0  0  0  0
   27.2752  -23.6939  -19.1790 O   0  0  0  0  0  0  0  0  0  0  0  0
   25.7008  -24.7505  -17.7974 C   0  0  0  0  0  0  0  0  0  0  0  0
   26.4738  -24.3364  -16.5372 C   0  0  2  0  0  0  0  0  0  0  0  0
   27.2784  -25.4872  -16.1057 N   0  0  0  0  0  0  0  0  0  0  0  0
   25.5098  -24.0364  -15.4558 C   0  0  0  0  0  0  0  0  0  0  0  0
   25.0493  -24.9686  -14.7652 O   0  0  0  0  0  0  0  0  0  0  0  0
   25.0829  -22.6994  -15.1704 N   0  0  0  0  0  0  0  0  0  0  0  0
   24.1850  -22.4900  -14.0760 C   0  0  1  0  0  0  0  0  0  0  0  0
   24.3627  -21.0464  -13.6376 C   0  0  0  0  0  0  0  0  0  0  0  0
   24.1359  -20.0760  -14.7333 C   0  0  0  0  0  0  0  0  0  0  0  0
   25.0826  -19.6677  -15.6740 C   0  0  0  0  0  0  0  0  0  0  0  0
   24.5081  -18.7804  -16.4978 N   0  0  0  0  0  0  0  0  0  0  0  0
   23.2355  -18.6085  -16.1190 C   0  0  0  0  0  0  0  0  0  0  0  0
   22.2305  -17.8098  -16.6359 C   0  0  0  0  0  0  0  0  0  0  0  0
   20.9851  -17.8114  -16.0584 C   0  0  0  0  0  0  0  0  0  0  0  0
   20.7061  -18.5904  -14.9724 C   0  0  0  0  0  0  0  0  0  0  0  0
   21.6999  -19.3857  -14.4542 C   0  0  0  0  0  0  0  0  0  0  0  0
   22.9644  -19.4103  -15.0083 C   0  0  0  0  0  0  0  0  0  0  0  0
   22.7889  -22.7529  -14.5010 C   0  0  0  0  0  0  0  0  0  0  0  0
   22.6186  -22.9667  -15.7441 O   0  0  0  0  0  0  0  0  0  0  0  0
   20.2700  -25.4453  -17.3021 N   0  0  0  0  0  0  0  0  0  0  0  0
   19.1081  -25.5474  -16.4785 C   0  0  0  0  0  0  0  0  0  0  0  0
   18.0621  -26.0820  -16.9825 O   0  0  0  0  0  0  0  0  0  0  0  0
   19.1037  -25.0638  -15.0905 C   0  0  0  0  0  0  0  0  0  0  0  0
   20.4057  -24.5226  -14.6422 C   0  0  0  0  0  0  0  0  0  0  0  0
   20.3454  -23.1306  -14.1246 C   0  0  2  0  0  0  0  0  0  0  0  0
   21.6973  -22.7736  -13.6120 N   0  0  0  0  0  0  0  0  0  0  0  0
   19.4114  -22.8155  -13.0637 C   0  0  0  0  0  0  0  0  0  0  0  0
   19.7996  -22.7054  -11.8589 O   0  0  0  0  0  0  0  0  0  0  0  0
   18.0349  -22.5987  -13.2652 O   0  0  0  0  0  0  0  0  0  0  0  0
  2  1  1  0
  3  2  2  0
  4  5  1  0
  4  2  1  0
  5  6  1  1
  7  5  1  0
  7  8  2  0
  9  7  1  0
 10  9  1  0
 10 11  1  6
 12 11  1  0
 12 13  2  0
 14 13  1  0
 15 20  2  0
 15 14  1  0
 16 15  1  0
 17 18  1  0
 17 16  2  0
 18 19  2  0
 19 20  1  0
 20 12  1  0
 21 10  1  0
 22 21  2  0
 23 24  1  0
 24 26  1  0
 25 24  2  0
 27 26  1  0
 28 27  1  1
 28 29  1  0
 28 30  1  0
 29 21  1  0
 30 32  1  0
 31 30  2  0
M  END
$$$$
