NWQ.pdb
     RDKit          3D

 32 33  0  0  1  0  0  0  0  0999 V2000
   27.1120  -22.0144  -20.4689 N   0  0  0  0  0  0  0  0  0  0  0  0
   27.5373  -21.5851  -19.1817 C   0  0  0  0  0  0  0  0  0  0  0  0
   28.5960  -20.9159  -19.0876 O   0  0  0  0  0  0  0  0  0  0  0  0
   26.7907  -21.8909  -17.9500 C   0  0  0  0  0  0  0  0  0  0  0  0
   27.8329  -22.2530  -16.8824 C   0  0  2  0  0  0  0  0  0  0  0  0
   28.2787  -23.6290  -17.1387 N   0  0  0  0  0  0  0  0  0  0  0  0
   27.1875  -22.2346  -15.5513 C   0  0  0  0  0  0  0  0  0  0  0  0
   26.5499  -23.2346  -15.1622 O   0  0  0  0  0  0  0  0  0  0  0  0
   27.2705  -21.0975  -14.6844 N   0  0  0  0  0  0  0  0  0  0  0  0
   26.7371  -21.2093  -13.3613 C   0  0  1  0  0  0  0  0  0  0  0  0
   27.4425  -20.1611  -12.5178 C   0  0  0  0  0  0  0  0  0  0  0  0
   27.0565  -20.2115  -11.0888 C   0  0  0  0  0  0  0  0  0  0  0  0
   25.8106  -19.8639  -10.5648 C   0  0  0  0  0  0  0  0  0  0  0  0
   25.8452  -20.0355   -9.2361 N   0  0  0  0  0  0  0  0  0  0  0  0
   27.0619  -20.4779   -8.8948 C   0  0  0  0  0  0  0  0  0  0  0  0
   27.6004  -20.8050   -7.6626 C   0  0  0  0  0  0  0  0  0  0  0  0
   28.8979  -21.2448   -7.5740 C   0  0  0  0  0  0  0  0  0  0  0  0
   29.6834  -21.3703   -8.6836 C   0  0  0  0  0  0  0  0  0  0  0  0
   29.1545  -21.0469   -9.9102 C   0  0  0  0  0  0  0  0  0  0  0  0
   27.8539  -20.6013  -10.0383 C   0  0  0  0  0  0  0  0  0  0  0  0
   25.2714  -20.9851  -13.3788 C   0  0  0  0  0  0  0  0  0  0  0  0
   24.8255  -20.3093  -14.3611 O   0  0  0  0  0  0  0  0  0  0  0  0
   20.8487  -22.6413   -9.0658 N   0  0  0  0  0  0  0  0  0  0  0  0
   20.1107  -22.4080  -10.2657 C   0  0  0  0  0  0  0  0  0  0  0  0
   18.8384  -22.5220  -10.2178 O   0  0  0  0  0  0  0  0  0  0  0  0
   20.7799  -22.0403  -11.5217 C   0  0  0  0  0  0  0  0  0  0  0  0
   22.2497  -21.9192  -11.4024 C   0  0  0  0  0  0  0  0  0  0  0  0
   22.9330  -21.4937  -12.6519 C   0  0  2  0  0  0  0  0  0  0  0  0
   24.3987  -21.4756  -12.3888 N   0  0  0  0  0  0  0  0  0  0  0  0
   22.6067  -20.2055  -13.2273 C   0  0  0  0  0  0  0  0  0  0  0  0
   23.1003  -19.1330  -12.7577 O   0  0  0  0  0  0  0  0  0  0  0  0
   21.7494  -20.0303  -14.3303 O   0  0  0  0  0  0  0  0  0  0  0  0
  2  1  1  0
  3  2  2  0
  4  5  1  0
  4  2  1  0
  5  6  1  6
  7  5  1  0
  7  8  2  0
  9  7  1  0
 10  9  1  0
 10 11  1  1
 12 11  1  0
 12 13  2  0
 14 13  1  0
 15 20  2  0
 15 14  1  0
 16 15  1  0
 17 18  1  0
 17 16  2  0
 18 19  2  0
 19 20  1  0
 20 12  1  0
 21 10  1  0
 22 21  2  0
 23 24  1  0
 24 26  1  0
 25 24  2  0
 27 26  1  0
 28 27  1  1
 28 29  1  0
 28 30  1  0
 29 21  1  0
 30 32  1  0
 31 30  2  0
M  END
$$$$
