NWQ.pdb
     RDKit          3D

 32 33  0  0  1  0  0  0  0  0999 V2000
   28.1845  -23.2477  -18.4030 N   0  0  0  0  0  0  0  0  0  0  0  0
   26.9428  -22.5547  -18.3994 C   0  0  0  0  0  0  0  0  0  0  0  0
   26.5295  -22.0505  -19.4730 O   0  0  0  0  0  0  0  0  0  0  0  0
   26.1169  -22.4006  -17.1902 C   0  0  0  0  0  0  0  0  0  0  0  0
   26.9253  -22.9930  -16.0272 C   0  0  2  0  0  0  0  0  0  0  0  0
   26.9839  -24.4485  -16.2166 N   0  0  0  0  0  0  0  0  0  0  0  0
   26.2066  -22.7374  -14.7596 C   0  0  0  0  0  0  0  0  0  0  0  0
   25.4629  -23.6202  -14.2845 O   0  0  0  0  0  0  0  0  0  0  0  0
   26.3366  -21.4996  -14.0508 N   0  0  0  0  0  0  0  0  0  0  0  0
   25.5887  -21.3241  -12.8436 C   0  0  1  0  0  0  0  0  0  0  0  0
   26.2672  -20.2065  -12.0700 C   0  0  0  0  0  0  0  0  0  0  0  0
   27.4339  -20.6709  -11.2846 C   0  0  0  0  0  0  0  0  0  0  0  0
   28.6218  -21.1829  -11.8085 C   0  0  0  0  0  0  0  0  0  0  0  0
   29.4343  -21.4983  -10.7905 N   0  0  0  0  0  0  0  0  0  0  0  0
   28.8114  -21.2074   -9.6417 C   0  0  0  0  0  0  0  0  0  0  0  0
   29.2164  -21.3431   -8.3253 C   0  0  0  0  0  0  0  0  0  0  0  0
   28.3790  -20.9643   -7.3055 C   0  0  0  0  0  0  0  0  0  0  0  0
   27.1395  -20.4499   -7.5573 C   0  0  0  0  0  0  0  0  0  0  0  0
   26.7314  -20.3128   -8.8624 C   0  0  0  0  0  0  0  0  0  0  0  0
   27.5461  -20.6830   -9.9141 C   0  0  0  0  0  0  0  0  0  0  0  0
   24.1810  -20.9799  -13.1581 C   0  0  0  0  0  0  0  0  0  0  0  0
   24.0142  -20.0032  -13.9571 O   0  0  0  0  0  0  0  0  0  0  0  0
   21.6997  -22.9385  -16.4427 N   0  0  0  0  0  0  0  0  0  0  0  0
   20.7520  -22.8541  -15.3780 C   0  0  0  0  0  0  0  0  0  0  0  0
   19.6244  -22.3038  -15.6224 O   0  0  0  0  0  0  0  0  0  0  0  0
   21.0480  -23.3859  -14.0401 C   0  0  0  0  0  0  0  0  0  0  0  0
   20.8112  -22.4178  -12.9465 C   0  0  0  0  0  0  0  0  0  0  0  0
   21.6985  -21.2259  -12.9801 C   0  0  2  0  0  0  0  0  0  0  0  0
   23.0752  -21.6697  -12.6257 N   0  0  0  0  0  0  0  0  0  0  0  0
   21.3982  -20.1021  -12.1176 C   0  0  0  0  0  0  0  0  0  0  0  0
   21.7496  -20.0997  -10.8966 O   0  0  0  0  0  0  0  0  0  0  0  0
   20.7214  -18.9427  -12.5420 O   0  0  0  0  0  0  0  0  0  0  0  0
  2  1  1  0
  3  2  2  0
  4  5  1  0
  4  2  1  0
  5  6  1  6
  7  5  1  0
  7  8  2  0
  9  7  1  0
 10  9  1  0
 10 11  1  1
 12 11  1  0
 12 13  2  0
 14 13  1  0
 15 20  2  0
 15 14  1  0
 16 15  1  0
 17 18  1  0
 17 16  2  0
 18 19  2  0
 19 20  1  0
 20 12  1  0
 21 10  1  0
 22 21  2  0
 23 24  1  0
 24 26  1  0
 25 24  2  0
 27 26  1  0
 28 27  1  1
 28 29  1  0
 28 30  1  0
 29 21  1  0
 30 32  1  0
 31 30  2  0
M  END
$$$$
