NWQ.pdb
     RDKit          3D

 32 33  0  0  1  0  0  0  0  0999 V2000
   28.4159  -19.2368  -16.5325 N   0  0  0  0  0  0  0  0  0  0  0  0
   27.2388  -20.0275  -16.6389 C   0  0  0  0  0  0  0  0  0  0  0  0
   26.8214  -20.3383  -17.7820 O   0  0  0  0  0  0  0  0  0  0  0  0
   26.4844  -20.4997  -15.4659 C   0  0  0  0  0  0  0  0  0  0  0  0
   27.5145  -21.0728  -14.4822 C   0  0  2  0  0  0  0  0  0  0  0  0
   27.9524  -22.3761  -14.9994 N   0  0  0  0  0  0  0  0  0  0  0  0
   26.8575  -21.3092  -13.1779 C   0  0  0  0  0  0  0  0  0  0  0  0
   25.7413  -21.8668  -13.1427 O   0  0  0  0  0  0  0  0  0  0  0  0
   27.4645  -20.9170  -11.9414 N   0  0  0  0  0  0  0  0  0  0  0  0
   26.6904  -21.0133  -10.7418 C   0  0  1  0  0  0  0  0  0  0  0  0
   27.5840  -20.5400   -9.6081 C   0  0  0  0  0  0  0  0  0  0  0  0
   26.8850  -20.4854   -8.3035 C   0  0  0  0  0  0  0  0  0  0  0  0
   25.5479  -20.8148   -8.0769 C   0  0  0  0  0  0  0  0  0  0  0  0
   25.2802  -20.6350   -6.7761 N   0  0  0  0  0  0  0  0  0  0  0  0
   26.3923  -20.2050   -6.1673 C   0  0  0  0  0  0  0  0  0  0  0  0
   26.6397  -19.8780   -4.8455 C   0  0  0  0  0  0  0  0  0  0  0  0
   27.8888  -19.4554   -4.4637 C   0  0  0  0  0  0  0  0  0  0  0  0
   28.9089  -19.3469   -5.3648 C   0  0  0  0  0  0  0  0  0  0  0  0
   28.6696  -19.6700   -6.6789 C   0  0  0  0  0  0  0  0  0  0  0  0
   27.4263  -20.0986   -7.0999 C   0  0  0  0  0  0  0  0  0  0  0  0
   25.4720  -20.1749  -10.8493 C   0  0  0  0  0  0  0  0  0  0  0  0
   25.6539  -18.9817  -11.2536 O   0  0  0  0  0  0  0  0  0  0  0  0
   23.5464  -18.4266  -15.0226 N   0  0  0  0  0  0  0  0  0  0  0  0
   22.2848  -18.6347  -14.3872 C   0  0  0  0  0  0  0  0  0  0  0  0
   21.3557  -17.7851  -14.6083 O   0  0  0  0  0  0  0  0  0  0  0  0
   22.0461  -19.7896  -13.5099 C   0  0  0  0  0  0  0  0  0  0  0  0
   23.2166  -20.1672  -12.6873 C   0  0  0  0  0  0  0  0  0  0  0  0
   23.0026  -20.0402  -11.2219 C   0  0  2  0  0  0  0  0  0  0  0  0
   24.1804  -20.6378  -10.5337 N   0  0  0  0  0  0  0  0  0  0  0  0
   21.8312  -20.6497  -10.6277 C   0  0  0  0  0  0  0  0  0  0  0  0
   20.7175  -20.0389  -10.5974 O   0  0  0  0  0  0  0  0  0  0  0  0
   21.8169  -21.9371  -10.0577 O   0  0  0  0  0  0  0  0  0  0  0  0
  2  1  1  0
  3  2  2  0
  4  5  1  0
  4  2  1  0
  5  6  1  6
  7  5  1  0
  7  8  2  0
  9  7  1  0
 10  9  1  0
 10 11  1  1
 12 11  1  0
 12 13  2  0
 14 13  1  0
 15 20  2  0
 15 14  1  0
 16 15  1  0
 17 18  1  0
 17 16  2  0
 18 19  2  0
 19 20  1  0
 20 12  1  0
 21 10  1  0
 22 21  2  0
 23 24  1  0
 24 26  1  0
 25 24  2  0
 27 26  1  0
 28 27  1  6
 28 29  1  0
 28 30  1  0
 29 21  1  0
 30 32  1  0
 31 30  2  0
M  END
$$$$
