NWQ.pdb
     RDKit          3D

 32 33  0  0  1  0  0  0  0  0999 V2000
   28.2312  -16.9285  -17.1439 N   0  0  0  0  0  0  0  0  0  0  0  0
   28.3782  -17.7661  -16.0042 C   0  0  0  0  0  0  0  0  0  0  0  0
   29.4945  -17.8151  -15.4307 O   0  0  0  0  0  0  0  0  0  0  0  0
   27.2775  -18.5816  -15.4644 C   0  0  0  0  0  0  0  0  0  0  0  0
   27.9020  -19.8976  -14.9794 C   0  0  2  0  0  0  0  0  0  0  0  0
   28.3499  -20.6447  -16.1623 N   0  0  0  0  0  0  0  0  0  0  0  0
   26.8617  -20.7078  -14.3086 C   0  0  0  0  0  0  0  0  0  0  0  0
   25.9545  -21.2302  -14.9883 O   0  0  0  0  0  0  0  0  0  0  0  0
   26.8601  -20.9163  -12.8916 N   0  0  0  0  0  0  0  0  0  0  0  0
   25.7917  -21.6745  -12.3159 C   0  0  1  0  0  0  0  0  0  0  0  0
   26.3107  -22.2274  -10.9995 C   0  0  0  0  0  0  0  0  0  0  0  0
   26.3514  -21.2132   -9.9209 C   0  0  0  0  0  0  0  0  0  0  0  0
   25.2967  -20.3837   -9.5371 C   0  0  0  0  0  0  0  0  0  0  0  0
   25.7156  -19.5997   -8.5342 N   0  0  0  0  0  0  0  0  0  0  0  0
   26.9929  -19.8973   -8.2652 C   0  0  0  0  0  0  0  0  0  0  0  0
   27.8718  -19.3801   -7.3297 C   0  0  0  0  0  0  0  0  0  0  0  0
   29.1542  -19.8637   -7.2497 C   0  0  0  0  0  0  0  0  0  0  0  0
   29.5931  -20.8552   -8.0795 C   0  0  0  0  0  0  0  0  0  0  0  0
   28.7252  -21.3728   -9.0108 C   0  0  0  0  0  0  0  0  0  0  0  0
   27.4283  -20.9116   -9.1206 C   0  0  0  0  0  0  0  0  0  0  0  0
   24.6059  -20.8098  -12.1034 C   0  0  0  0  0  0  0  0  0  0  0  0
   24.8503  -19.5902  -11.8333 O   0  0  0  0  0  0  0  0  0  0  0  0
   23.6918  -19.6772  -16.9084 N   0  0  0  0  0  0  0  0  0  0  0  0
   22.4344  -19.1451  -16.4907 C   0  0  0  0  0  0  0  0  0  0  0  0
   21.7800  -18.4306  -17.3246 O   0  0  0  0  0  0  0  0  0  0  0  0
   21.8942  -19.4091  -15.1495 C   0  0  0  0  0  0  0  0  0  0  0  0
   22.8130  -20.1701  -14.2744 C   0  0  0  0  0  0  0  0  0  0  0  0
   22.2684  -20.4659  -12.9234 C   0  0  2  0  0  0  0  0  0  0  0  0
   23.2799  -21.2753  -12.1890 N   0  0  0  0  0  0  0  0  0  0  0  0
   21.0150  -21.1827  -12.8129 C   0  0  0  0  0  0  0  0  0  0  0  0
   20.9722  -22.4488  -12.9109 O   0  0  0  0  0  0  0  0  0  0  0  0
   19.7715  -20.5636  -12.5832 O   0  0  0  0  0  0  0  0  0  0  0  0
  2  1  1  0
  3  2  2  0
  4  5  1  0
  4  2  1  0
  5  6  1  6
  7  5  1  0
  7  8  2  0
  9  7  1  0
 10  9  1  0
 10 11  1  1
 12 11  1  0
 12 13  2  0
 14 13  1  0
 15 20  2  0
 15 14  1  0
 16 15  1  0
 17 18  1  0
 17 16  2  0
 18 19  2  0
 19 20  1  0
 20 12  1  0
 21 10  1  0
 22 21  2  0
 23 24  1  0
 24 26  1  0
 25 24  2  0
 27 26  1  0
 28 27  1  6
 28 29  1  0
 28 30  1  0
 29 21  1  0
 30 32  1  0
 31 30  2  0
M  END
$$$$
