NWQ.pdb
     RDKit          3D

 32 33  0  0  1  0  0  0  0  0999 V2000
   27.5053  -20.6612  -16.0194 N   0  0  0  0  0  0  0  0  0  0  0  0
   28.0053  -21.8112  -15.3489 C   0  0  0  0  0  0  0  0  0  0  0  0
   28.8521  -22.5310  -15.9341 O   0  0  0  0  0  0  0  0  0  0  0  0
   27.5736  -22.1981  -13.9954 C   0  0  0  0  0  0  0  0  0  0  0  0
   26.4886  -21.1958  -13.5766 C   0  0  2  0  0  0  0  0  0  0  0  0
   27.1129  -19.8691  -13.4885 N   0  0  0  0  0  0  0  0  0  0  0  0
   26.0004  -21.5489  -12.2254 C   0  0  0  0  0  0  0  0  0  0  0  0
   25.8925  -22.7501  -11.9040 O   0  0  0  0  0  0  0  0  0  0  0  0
   25.6443  -20.5496  -11.2631 N   0  0  0  0  0  0  0  0  0  0  0  0
   25.0878  -20.9736  -10.0148 C   0  0  1  0  0  0  0  0  0  0  0  0
   25.5588  -19.9785   -8.9680 C   0  0  0  0  0  0  0  0  0  0  0  0
   26.9130  -20.2804   -8.4496 C   0  0  0  0  0  0  0  0  0  0  0  0
   27.9198  -20.9601   -9.1367 C   0  0  0  0  0  0  0  0  0  0  0  0
   28.9954  -21.0435   -8.3417 N   0  0  0  0  0  0  0  0  0  0  0  0
   28.7132  -20.4447   -7.1780 C   0  0  0  0  0  0  0  0  0  0  0  0
   29.4767  -20.2611   -6.0385 C   0  0  0  0  0  0  0  0  0  0  0  0
   28.9499  -19.6003   -4.9566 C   0  0  0  0  0  0  0  0  0  0  0  0
   27.6749  -19.1121   -4.9736 C   0  0  0  0  0  0  0  0  0  0  0  0
   26.9115  -19.2913   -6.1021 C   0  0  0  0  0  0  0  0  0  0  0  0
   27.4073  -19.9508   -7.2094 C   0  0  0  0  0  0  0  0  0  0  0  0
   23.6075  -21.0037  -10.0975 C   0  0  0  0  0  0  0  0  0  0  0  0
   23.0930  -20.3584  -11.0664 O   0  0  0  0  0  0  0  0  0  0  0  0
   19.5148  -24.4315   -6.5753 N   0  0  0  0  0  0  0  0  0  0  0  0
   18.6838  -23.6602   -7.4432 C   0  0  0  0  0  0  0  0  0  0  0  0
   17.4170  -23.7813   -7.3227 O   0  0  0  0  0  0  0  0  0  0  0  0
   19.2540  -22.7461   -8.4431 C   0  0  0  0  0  0  0  0  0  0  0  0
   20.7278  -22.6326   -8.3772 C   0  0  0  0  0  0  0  0  0  0  0  0
   21.3174  -21.7134   -9.3854 C   0  0  2  0  0  0  0  0  0  0  0  0
   22.7923  -21.6938   -9.1801 N   0  0  0  0  0  0  0  0  0  0  0  0
   20.8911  -20.3296   -9.4087 C   0  0  0  0  0  0  0  0  0  0  0  0
   21.4765  -19.4506   -8.7023 O   0  0  0  0  0  0  0  0  0  0  0  0
   19.8309  -19.8456  -10.1986 O   0  0  0  0  0  0  0  0  0  0  0  0
  2  1  1  0
  3  2  2  0
  4  5  1  0
  4  2  1  0
  5  6  1  1
  7  5  1  0
  7  8  2  0
  9  7  1  0
 10  9  1  0
 10 11  1  1
 12 11  1  0
 12 13  2  0
 14 13  1  0
 15 20  2  0
 15 14  1  0
 16 15  1  0
 17 18  1  0
 17 16  2  0
 18 19  2  0
 19 20  1  0
 20 12  1  0
 21 10  1  0
 22 21  2  0
 23 24  1  0
 24 26  1  0
 25 24  2  0
 27 26  1  0
 28 27  1  1
 28 29  1  0
 28 30  1  0
 29 21  1  0
 30 32  1  0
 31 30  2  0
M  END
$$$$
