NWQ.pdb
     RDKit          3D

 32 33  0  0  1  0  0  0  0  0999 V2000
   27.6943  -21.1185  -18.4475 N   0  0  0  0  0  0  0  0  0  0  0  0
   27.9913  -22.3037  -17.7201 C   0  0  0  0  0  0  0  0  0  0  0  0
   28.7881  -23.1357  -18.2204 O   0  0  0  0  0  0  0  0  0  0  0  0
   27.4048  -22.6010  -16.4026 C   0  0  0  0  0  0  0  0  0  0  0  0
   26.4400  -21.4508  -16.0811 C   0  0  2  0  0  0  0  0  0  0  0  0
   27.2379  -20.2288  -15.9143 N   0  0  0  0  0  0  0  0  0  0  0  0
   25.7726  -21.7266  -14.7899 C   0  0  0  0  0  0  0  0  0  0  0  0
   25.0441  -22.7338  -14.6760 O   0  0  0  0  0  0  0  0  0  0  0  0
   25.9358  -20.8696  -13.6541 N   0  0  0  0  0  0  0  0  0  0  0  0
   25.1316  -21.1131  -12.4958 C   0  0  1  0  0  0  0  0  0  0  0  0
   25.9456  -20.6565  -11.2971 C   0  0  0  0  0  0  0  0  0  0  0  0
   27.3935  -20.5452  -11.5884 C   0  0  0  0  0  0  0  0  0  0  0  0
   27.9559  -20.0490  -12.7653 C   0  0  0  0  0  0  0  0  0  0  0  0
   29.2903  -20.1121  -12.6586 N   0  0  0  0  0  0  0  0  0  0  0  0
   29.5984  -20.6279  -11.4621 C   0  0  0  0  0  0  0  0  0  0  0  0
   30.8215  -20.8952  -10.8723 C   0  0  0  0  0  0  0  0  0  0  0  0
   30.8735  -21.4343   -9.6108 C   0  0  0  0  0  0  0  0  0  0  0  0
   29.7358  -21.7183   -8.9115 C   0  0  0  0  0  0  0  0  0  0  0  0
   28.5181  -21.4553   -9.4918 C   0  0  0  0  0  0  0  0  0  0  0  0
   28.4264  -20.9135  -10.7586 C   0  0  0  0  0  0  0  0  0  0  0  0
   23.8544  -20.3659  -12.5921 C   0  0  0  0  0  0  0  0  0  0  0  0
   23.9577  -19.1194  -12.8283 O   0  0  0  0  0  0  0  0  0  0  0  0
   22.6044  -18.8286  -16.8728 N   0  0  0  0  0  0  0  0  0  0  0  0
   21.2085  -18.9985  -16.6255 C   0  0  0  0  0  0  0  0  0  0  0  0
   20.3858  -18.4490  -17.4351 O   0  0  0  0  0  0  0  0  0  0  0  0
   20.7191  -19.7844  -15.4839 C   0  0  0  0  0  0  0  0  0  0  0  0
   21.7949  -20.3031  -14.6105 C   0  0  0  0  0  0  0  0  0  0  0  0
   21.4227  -20.4068  -13.1753 C   0  0  2  0  0  0  0  0  0  0  0  0
   22.5900  -20.9660  -12.4387 N   0  0  0  0  0  0  0  0  0  0  0  0
   20.2806  -21.2153  -12.8024 C   0  0  0  0  0  0  0  0  0  0  0  0
   19.1874  -20.6790  -12.4393 O   0  0  0  0  0  0  0  0  0  0  0  0
   20.2738  -22.6231  -12.8180 O   0  0  0  0  0  0  0  0  0  0  0  0
  2  1  1  0
  3  2  2  0
  4  5  1  0
  4  2  1  0
  5  6  1  1
  7  5  1  0
  7  8  2  0
  9  7  1  0
 10  9  1  0
 10 11  1  1
 12 11  1  0
 12 13  2  0
 14 13  1  0
 15 20  2  0
 15 14  1  0
 16 15  1  0
 17 18  1  0
 17 16  2  0
 18 19  2  0
 19 20  1  0
 20 12  1  0
 21 10  1  0
 22 21  2  0
 23 24  1  0
 24 26  1  0
 25 24  2  0
 27 26  1  0
 28 27  1  6
 28 29  1  0
 28 30  1  0
 29 21  1  0
 30 32  1  0
 31 30  2  0
M  END
$$$$
