NWQ.pdb
     RDKit          3D

 32 33  0  0  1  0  0  0  0  0999 V2000
   27.4470  -23.4454  -20.6027 N   0  0  0  0  0  0  0  0  0  0  0  0
   26.8376  -22.7437  -19.5264 C   0  0  0  0  0  0  0  0  0  0  0  0
   26.9123  -21.4902  -19.5034 O   0  0  0  0  0  0  0  0  0  0  0  0
   26.1207  -23.4223  -18.4339 C   0  0  0  0  0  0  0  0  0  0  0  0
   26.9741  -23.2437  -17.1702 C   0  0  2  0  0  0  0  0  0  0  0  0
   27.7193  -24.4905  -16.9518 N   0  0  0  0  0  0  0  0  0  0  0  0
   26.0806  -23.0493  -16.0073 C   0  0  0  0  0  0  0  0  0  0  0  0
   25.7239  -24.0371  -15.3328 O   0  0  0  0  0  0  0  0  0  0  0  0
   25.6065  -21.7532  -15.6240 N   0  0  0  0  0  0  0  0  0  0  0  0
   24.9039  -21.6241  -14.3841 C   0  0  1  0  0  0  0  0  0  0  0  0
   25.3652  -20.3199  -13.7563 C   0  0  0  0  0  0  0  0  0  0  0  0
   26.1490  -20.5195  -12.5156 C   0  0  0  0  0  0  0  0  0  0  0  0
   27.5256  -20.7374  -12.4433 C   0  0  0  0  0  0  0  0  0  0  0  0
   27.8669  -20.8769  -11.1548 N   0  0  0  0  0  0  0  0  0  0  0  0
   26.7636  -20.7565  -10.4059 C   0  0  0  0  0  0  0  0  0  0  0  0
   26.5807  -20.8195   -9.0356 C   0  0  0  0  0  0  0  0  0  0  0  0
   25.3262  -20.6601   -8.5012 C   0  0  0  0  0  0  0  0  0  0  0  0
   24.2381  -20.4380   -9.2954 C   0  0  0  0  0  0  0  0  0  0  0  0
   24.4131  -20.3745  -10.6570 C   0  0  0  0  0  0  0  0  0  0  0  0
   25.6596  -20.5301  -11.2305 C   0  0  0  0  0  0  0  0  0  0  0  0
   23.4403  -21.6155  -14.6228 C   0  0  0  0  0  0  0  0  0  0  0  0
   23.0490  -20.9655  -15.6448 O   0  0  0  0  0  0  0  0  0  0  0  0
   19.0479  -25.7169  -12.7036 N   0  0  0  0  0  0  0  0  0  0  0  0
   18.2796  -24.6066  -13.1679 C   0  0  0  0  0  0  0  0  0  0  0  0
   17.0054  -24.7033  -13.1318 O   0  0  0  0  0  0  0  0  0  0  0  0
   18.9207  -23.3818  -13.6671 C   0  0  0  0  0  0  0  0  0  0  0  0
   20.3959  -23.3903  -13.5525 C   0  0  0  0  0  0  0  0  0  0  0  0
   21.0603  -22.1789  -14.1006 C   0  0  2  0  0  0  0  0  0  0  0  0
   22.5141  -22.2751  -13.7926 N   0  0  0  0  0  0  0  0  0  0  0  0
   20.6321  -20.8742  -13.6408 C   0  0  0  0  0  0  0  0  0  0  0  0
   19.9655  -20.0988  -14.3950 O   0  0  0  0  0  0  0  0  0  0  0  0
   20.8970  -20.3667  -12.3545 O   0  0  0  0  0  0  0  0  0  0  0  0
  2  1  1  0
  3  2  2  0
  4  5  1  0
  4  2  1  0
  5  6  1  1
  7  5  1  0
  7  8  2  0
  9  7  1  0
 10  9  1  0
 10 11  1  6
 12 11  1  0
 12 13  2  0
 14 13  1  0
 15 20  2  0
 15 14  1  0
 16 15  1  0
 17 18  1  0
 17 16  2  0
 18 19  2  0
 19 20  1  0
 20 12  1  0
 21 10  1  0
 22 21  2  0
 23 24  1  0
 24 26  1  0
 25 24  2  0
 27 26  1  0
 28 27  1  1
 28 29  1  0
 28 30  1  0
 29 21  1  0
 30 32  1  0
 31 30  2  0
M  END
$$$$
