NWQ.pdb
     RDKit          3D

 32 33  0  0  1  0  0  0  0  0999 V2000
   26.7912  -20.1690  -16.8688 N   0  0  0  0  0  0  0  0  0  0  0  0
   25.4696  -20.5300  -16.4876 C   0  0  0  0  0  0  0  0  0  0  0  0
   24.5545  -20.4643  -17.3453 O   0  0  0  0  0  0  0  0  0  0  0  0
   25.1241  -20.9785  -15.1283 C   0  0  0  0  0  0  0  0  0  0  0  0
   26.4153  -20.9083  -14.3007 C   0  0  2  0  0  0  0  0  0  0  0  0
   27.3186  -21.9592  -14.7878 N   0  0  0  0  0  0  0  0  0  0  0  0
   26.1004  -21.2117  -12.8873 C   0  0  0  0  0  0  0  0  0  0  0  0
   25.5035  -22.2704  -12.6030 O   0  0  0  0  0  0  0  0  0  0  0  0
   26.4611  -20.3238  -11.8230 N   0  0  0  0  0  0  0  0  0  0  0  0
   26.2784  -20.7669  -10.4747 C   0  0  1  0  0  0  0  0  0  0  0  0
   27.2980  -20.0222   -9.6299 C   0  0  0  0  0  0  0  0  0  0  0  0
   27.4474  -20.5881   -8.2694 C   0  0  0  0  0  0  0  0  0  0  0  0
   27.6571  -21.9329   -7.9608 C   0  0  0  0  0  0  0  0  0  0  0  0
   27.7355  -22.0563   -6.6286 N   0  0  0  0  0  0  0  0  0  0  0  0
   27.5845  -20.8450   -6.0785 C   0  0  0  0  0  0  0  0  0  0  0  0
   27.5863  -20.4379   -4.7559 C   0  0  0  0  0  0  0  0  0  0  0  0
   27.4090  -19.1127   -4.4440 C   0  0  0  0  0  0  0  0  0  0  0  0
   27.2281  -18.1715   -5.4163 C   0  0  0  0  0  0  0  0  0  0  0  0
   27.2251  -18.5695   -6.7317 C   0  0  0  0  0  0  0  0  0  0  0  0
   27.4004  -19.8932   -7.0837 C   0  0  0  0  0  0  0  0  0  0  0  0
   24.8956  -20.4785  -10.0233 C   0  0  0  0  0  0  0  0  0  0  0  0
   24.3489  -19.4488  -10.5341 O   0  0  0  0  0  0  0  0  0  0  0  0
   21.2492  -23.9241   -6.0475 N   0  0  0  0  0  0  0  0  0  0  0  0
   20.3303  -23.0827   -6.7449 C   0  0  0  0  0  0  0  0  0  0  0  0
   19.0860  -23.2052   -6.4790 O   0  0  0  0  0  0  0  0  0  0  0  0
   20.7880  -22.0971   -7.7346 C   0  0  0  0  0  0  0  0  0  0  0  0
   22.2484  -22.1217   -7.9711 C   0  0  0  0  0  0  0  0  0  0  0  0
   22.7301  -21.1000   -8.9373 C   0  0  2  0  0  0  0  0  0  0  0  0
   24.2012  -21.2733   -9.0913 N   0  0  0  0  0  0  0  0  0  0  0  0
   22.5136  -19.6986   -8.6439 C   0  0  0  0  0  0  0  0  0  0  0  0
   23.3975  -19.0092   -8.0456 O   0  0  0  0  0  0  0  0  0  0  0  0
   21.3468  -18.9922   -8.9931 O   0  0  0  0  0  0  0  0  0  0  0  0
  2  1  1  0
  3  2  2  0
  4  5  1  0
  4  2  1  0
  5  6  1  6
  7  5  1  0
  7  8  2  0
  9  7  1  0
 10  9  1  0
 10 11  1  1
 12 11  1  0
 12 13  2  0
 14 13  1  0
 15 20  2  0
 15 14  1  0
 16 15  1  0
 17 18  1  0
 17 16  2  0
 18 19  2  0
 19 20  1  0
 20 12  1  0
 21 10  1  0
 22 21  2  0
 23 24  1  0
 24 26  1  0
 25 24  2  0
 27 26  1  0
 28 27  1  1
 28 29  1  0
 28 30  1  0
 29 21  1  0
 30 32  1  0
 31 30  2  0
M  END
$$$$
