TLY.pdb
     RDKit          3D

 28 28  0  0  1  0  0  0  0  0999 V2000
   20.4439   -8.5406  -20.7230 C   0  0  0  0  0  0  0  0  0  0  0  0
   19.2697   -9.4198  -20.4516 C   0  0  1  0  0  0  0  0  0  0  0  0
   18.6732   -9.8903  -21.6264 O   0  0  0  0  0  0  0  0  0  0  0  0
   19.5651  -10.6050  -19.5769 C   0  0  2  0  0  0  0  0  0  0  0  0
   18.4608  -11.5224  -19.5325 N   0  0  0  0  0  0  0  0  0  0  0  0
   20.0550  -10.2344  -18.2352 C   0  0  0  0  0  0  0  0  0  0  0  0
   19.3300   -9.6788  -17.3697 O   0  0  0  0  0  0  0  0  0  0  0  0
   23.3159  -10.5498  -13.8476 C   0  0  0  0  0  0  0  0  0  0  0  0
   23.9880  -10.6062  -15.1709 C   0  0  1  0  0  0  0  0  0  0  0  0
   25.1349  -11.6086  -15.0642 C   0  0  0  0  0  0  0  0  0  0  0  0
   23.1776  -10.9706  -16.3397 C   0  0  0  0  0  0  0  0  0  0  0  0
   22.0264  -10.0785  -16.6792 C   0  0  2  0  0  0  0  0  0  0  0  0
   21.3845  -10.5082  -17.8978 N   0  0  0  0  0  0  0  0  0  0  0  0
   22.3966   -8.6469  -16.6809 C   0  0  0  0  0  0  0  0  0  0  0  0
   23.1418   -8.2253  -17.5954 O   0  0  0  0  0  0  0  0  0  0  0  0
   15.9985   -5.2345  -15.4682 O   0  0  0  0  0  0  0  0  0  0  0  0
   17.3496   -5.2898  -15.7738 C   0  0  0  0  0  0  0  0  0  0  0  0
   18.2736   -4.4639  -15.1727 C   0  0  0  0  0  0  0  0  0  0  0  0
   19.5962   -4.5695  -15.5199 C   0  0  0  0  0  0  0  0  0  0  0  0
   20.0696   -5.4828  -16.4653 C   0  0  0  0  0  0  0  0  0  0  0  0
   21.5090   -5.5534  -16.8118 C   0  0  0  0  0  0  0  0  0  0  0  0
   22.3124   -6.2856  -15.7656 C   0  0  2  0  0  0  0  0  0  0  0  0
   21.9712   -7.6945  -15.7173 N   0  0  0  0  0  0  0  0  0  0  0  0
   22.1989   -5.7310  -14.4081 C   0  0  0  0  0  0  0  0  0  0  0  0
   21.7388   -6.4544  -13.4944 O   0  0  0  0  0  0  0  0  0  0  0  0
   19.1220   -6.2917  -17.0464 C   0  0  0  0  0  0  0  0  0  0  0  0
   17.7876   -6.2039  -16.7133 C   0  0  0  0  0  0  0  0  0  0  0  0
   22.5724   -4.4419  -14.0609 O   0  0  0  0  0  0  0  0  0  0  0  0
  2  1  1  6
  2  3  1  0
  2  4  1  0
  4  5  1  1
  6  4  1  0
  6  7  2  0
  9  8  1  1
  9 11  1  0
  9 10  1  0
 12 11  1  6
 12 13  1  0
 13  6  1  0
 14 12  1  0
 15 14  2  0
 16 17  1  0
 17 27  2  0
 17 18  1  0
 18 19  2  0
 19 20  1  0
 20 21  1  0
 22 21  1  6
 22 23  1  0
 22 24  1  0
 23 14  1  0
 24 28  1  0
 25 24  2  0
 26 20  2  0
 27 26  1  0
M  END
$$$$
