TLY.pdb
     RDKit          3D

 28 28  0  0  1  0  0  0  0  0999 V2000
   26.5771  -18.8178  -15.2484 C   0  0  0  0  0  0  0  0  0  0  0  0
   27.1038  -20.1383  -15.7001 C   0  0  1  0  0  0  0  0  0  0  0  0
   28.2557  -20.0131  -16.4842 O   0  0  0  0  0  0  0  0  0  0  0  0
   27.4038  -21.1047  -14.5896 C   0  0  2  0  0  0  0  0  0  0  0  0
   27.9994  -22.3150  -15.0832 N   0  0  0  0  0  0  0  0  0  0  0  0
   26.2503  -21.3547  -13.7038 C   0  0  0  0  0  0  0  0  0  0  0  0
   25.3182  -22.1468  -13.9989 O   0  0  0  0  0  0  0  0  0  0  0  0
   26.8153  -19.9325   -8.2484 C   0  0  0  0  0  0  0  0  0  0  0  0
   26.3932  -20.6430   -9.4824 C   0  0  1  0  0  0  0  0  0  0  0  0
   25.9199  -22.0363   -9.0744 C   0  0  0  0  0  0  0  0  0  0  0  0
   25.3407  -20.0315  -10.3032 C   0  0  0  0  0  0  0  0  0  0  0  0
   25.0250  -20.6860  -11.6101 C   0  0  2  0  0  0  0  0  0  0  0  0
   26.1784  -20.6867  -12.4770 N   0  0  0  0  0  0  0  0  0  0  0  0
   23.8102  -20.1322  -12.2456 C   0  0  0  0  0  0  0  0  0  0  0  0
   23.9331  -19.1444  -13.0063 O   0  0  0  0  0  0  0  0  0  0  0  0
   17.0071  -19.3926  -17.4940 O   0  0  0  0  0  0  0  0  0  0  0  0
   18.1123  -19.7120  -16.7205 C   0  0  0  0  0  0  0  0  0  0  0  0
   18.3027  -20.9709  -16.1950 C   0  0  0  0  0  0  0  0  0  0  0  0
   19.4183  -21.2217  -15.4376 C   0  0  0  0  0  0  0  0  0  0  0  0
   20.3907  -20.2568  -15.1629 C   0  0  0  0  0  0  0  0  0  0  0  0
   21.5762  -20.5755  -14.3323 C   0  0  0  0  0  0  0  0  0  0  0  0
   21.3586  -20.2444  -12.8766 C   0  0  2  0  0  0  0  0  0  0  0  0
   22.4945  -20.6343  -12.0631 N   0  0  0  0  0  0  0  0  0  0  0  0
   20.1427  -20.8293  -12.2913 C   0  0  0  0  0  0  0  0  0  0  0  0
   20.1928  -21.9911  -11.8249 O   0  0  0  0  0  0  0  0  0  0  0  0
   20.1706  -19.0114  -15.7018 C   0  0  0  0  0  0  0  0  0  0  0  0
   19.0573  -18.7360  -16.4660 C   0  0  0  0  0  0  0  0  0  0  0  0
   18.9230  -20.1745  -12.2166 O   0  0  0  0  0  0  0  0  0  0  0  0
  2  1  1  1
  2  3  1  0
  2  4  1  0
  4  5  1  6
  6  4  1  0
  6  7  2  0
  9  8  1  1
  9 11  1  0
  9 10  1  0
 12 11  1  1
 12 13  1  0
 13  6  1  0
 14 12  1  0
 15 14  2  0
 16 17  1  0
 17 27  2  0
 17 18  1  0
 18 19  2  0
 19 20  1  0
 20 21  1  0
 22 21  1  6
 22 23  1  0
 22 24  1  0
 23 14  1  0
 24 28  1  0
 25 24  2  0
 26 20  2  0
 27 26  1  0
M  END
$$$$
