TLY.pdb
     RDKit          3D

 28 28  0  0  1  0  0  0  0  0999 V2000
   15.2203  -11.3675  -14.1666 C   0  0  0  0  0  0  0  0  0  0  0  0
   16.2313  -10.3763  -14.6361 C   0  0  1  0  0  0  0  0  0  0  0  0
   17.5057  -10.9377  -14.7715 O   0  0  0  0  0  0  0  0  0  0  0  0
   15.8862   -9.6967  -15.9308 C   0  0  2  0  0  0  0  0  0  0  0  0
   15.7597  -10.6375  -17.0088 N   0  0  0  0  0  0  0  0  0  0  0  0
   16.7814   -8.5699  -16.2570 C   0  0  0  0  0  0  0  0  0  0  0  0
   17.7810   -8.6848  -17.0126 O   0  0  0  0  0  0  0  0  0  0  0  0
   18.1374   -3.6189  -17.6688 C   0  0  0  0  0  0  0  0  0  0  0  0
   17.1391   -3.6921  -16.5715 C   0  0  1  0  0  0  0  0  0  0  0  0
   16.0661   -2.6426  -16.8526 C   0  0  0  0  0  0  0  0  0  0  0  0
   16.4650   -4.9753  -16.3385 C   0  0  0  0  0  0  0  0  0  0  0  0
   17.3195   -6.1333  -15.9324 C   0  0  2  0  0  0  0  0  0  0  0  0
   16.5170   -7.3111  -15.7076 N   0  0  0  0  0  0  0  0  0  0  0  0
   18.2195   -5.8091  -14.8048 C   0  0  0  0  0  0  0  0  0  0  0  0
   17.7098   -5.5651  -13.6868 O   0  0  0  0  0  0  0  0  0  0  0  0
   23.6937   -9.6869  -17.4873 O   0  0  0  0  0  0  0  0  0  0  0  0
   23.0822   -8.9879  -16.4581 C   0  0  0  0  0  0  0  0  0  0  0  0
   23.7117   -7.9593  -15.7926 C   0  0  0  0  0  0  0  0  0  0  0  0
   23.0508   -7.3077  -14.7829 C   0  0  0  0  0  0  0  0  0  0  0  0
   21.7522   -7.6326  -14.3825 C   0  0  0  0  0  0  0  0  0  0  0  0
   21.0829   -6.9026  -13.2798 C   0  0  0  0  0  0  0  0  0  0  0  0
   20.5056   -5.5853  -13.7352 C   0  0  2  0  0  0  0  0  0  0  0  0
   19.6361   -5.7502  -14.8843 N   0  0  0  0  0  0  0  0  0  0  0  0
   21.5069   -4.5553  -14.0515 C   0  0  0  0  0  0  0  0  0  0  0  0
   21.5282   -4.0644  -15.2041 O   0  0  0  0  0  0  0  0  0  0  0  0
   21.1527   -8.6634  -15.0665 C   0  0  0  0  0  0  0  0  0  0  0  0
   21.7969   -9.3325  -16.0846 C   0  0  0  0  0  0  0  0  0  0  0  0
   22.4452   -4.0796  -13.1486 O   0  0  0  0  0  0  0  0  0  0  0  0
  2  1  1  6
  2  3  1  0
  2  4  1  0
  4  5  1  6
  6  4  1  0
  6  7  2  0
  9  8  1  6
  9 11  1  0
  9 10  1  0
 12 11  1  1
 12 13  1  0
 13  6  1  0
 14 12  1  0
 15 14  2  0
 16 17  1  0
 17 27  2  0
 17 18  1  0
 18 19  2  0
 19 20  1  0
 20 21  1  0
 22 21  1  6
 22 23  1  0
 22 24  1  0
 23 14  1  0
 24 28  1  0
 25 24  2  0
 26 20  2  0
 27 26  1  0
M  END
$$$$
