TLY.pdb
     RDKit          3D

 28 28  0  0  1  0  0  0  0  0999 V2000
   22.4134  -12.7096  -18.6386 C   0  0  0  0  0  0  0  0  0  0  0  0
   21.8101  -11.4611  -18.0886 C   0  0  1  0  0  0  0  0  0  0  0  0
   21.8060  -10.4161  -19.0190 O   0  0  0  0  0  0  0  0  0  0  0  0
   20.4102  -11.6205  -17.5671 C   0  0  2  0  0  0  0  0  0  0  0  0
   19.5104  -12.0795  -18.5882 N   0  0  0  0  0  0  0  0  0  0  0  0
   19.9101  -10.4263  -16.8588 C   0  0  0  0  0  0  0  0  0  0  0  0
   19.2812   -9.5009  -17.4344 O   0  0  0  0  0  0  0  0  0  0  0  0
   17.6610   -7.6583  -12.8250 C   0  0  0  0  0  0  0  0  0  0  0  0
   18.8241   -8.4999  -12.4445 C   0  0  1  0  0  0  0  0  0  0  0  0
   18.5092   -9.1399  -11.0942 C   0  0  0  0  0  0  0  0  0  0  0  0
   19.2318   -9.5680  -13.3657 C   0  0  0  0  0  0  0  0  0  0  0  0
   19.7853   -9.1536  -14.6916 C   0  0  2  0  0  0  0  0  0  0  0  0
   20.1394  -10.3060  -15.4842 N   0  0  0  0  0  0  0  0  0  0  0  0
   20.8775   -8.1644  -14.5687 C   0  0  0  0  0  0  0  0  0  0  0  0
   22.0363   -8.5817  -14.3401 O   0  0  0  0  0  0  0  0  0  0  0  0
   26.1897   -1.3160  -15.9287 O   0  0  0  0  0  0  0  0  0  0  0  0
   25.2221   -2.3085  -15.9564 C   0  0  0  0  0  0  0  0  0  0  0  0
   23.8775   -2.0219  -16.0400 C   0  0  0  0  0  0  0  0  0  0  0  0
   22.9710   -3.0508  -16.0634 C   0  0  0  0  0  0  0  0  0  0  0  0
   23.3387   -4.3974  -16.0061 C   0  0  0  0  0  0  0  0  0  0  0  0
   22.3198   -5.4737  -16.0272 C   0  0  0  0  0  0  0  0  0  0  0  0
   21.8200   -5.8136  -14.6450 C   0  0  2  0  0  0  0  0  0  0  0  0
   20.7203   -6.7583  -14.6903 N   0  0  0  0  0  0  0  0  0  0  0  0
   21.4055   -4.6531  -13.8419 C   0  0  0  0  0  0  0  0  0  0  0  0
   20.2204   -4.2540  -13.9201 O   0  0  0  0  0  0  0  0  0  0  0  0
   24.6877   -4.6490  -15.9230 C   0  0  0  0  0  0  0  0  0  0  0  0
   25.6170   -3.6317  -15.8982 C   0  0  0  0  0  0  0  0  0  0  0  0
   22.2477   -3.9573  -12.9884 O   0  0  0  0  0  0  0  0  0  0  0  0
  2  1  1  6
  2  3  1  0
  2  4  1  0
  4  5  1  6
  6  4  1  0
  6  7  2  0
  9  8  1  6
  9 11  1  0
  9 10  1  0
 12 11  1  1
 12 13  1  0
 13  6  1  0
 14 12  1  0
 15 14  2  0
 16 17  1  0
 17 27  2  0
 17 18  1  0
 18 19  2  0
 19 20  1  0
 20 21  1  0
 22 21  1  6
 22 23  1  0
 22 24  1  0
 23 14  1  0
 24 28  1  0
 25 24  2  0
 26 20  2  0
 27 26  1  0
M  END
$$$$
