TLY.pdb
     RDKit          3D

 28 28  0  0  1  0  0  0  0  0999 V2000
   27.4883  -21.6834  -19.7445 C   0  0  0  0  0  0  0  0  0  0  0  0
   26.7117  -21.9175  -18.4927 C   0  0  1  0  0  0  0  0  0  0  0  0
   25.6310  -22.7839  -18.6897 O   0  0  0  0  0  0  0  0  0  0  0  0
   27.5227  -22.4448  -17.3432 C   0  0  2  0  0  0  0  0  0  0  0  0
   28.1581  -23.6916  -17.6674 N   0  0  0  0  0  0  0  0  0  0  0  0
   26.7725  -22.4983  -16.0736 C   0  0  0  0  0  0  0  0  0  0  0  0
   26.1769  -23.5315  -15.6721 O   0  0  0  0  0  0  0  0  0  0  0  0
   28.6441  -19.2844  -12.0117 C   0  0  0  0  0  0  0  0  0  0  0  0
   27.9639  -20.4121  -12.6983 C   0  0  1  0  0  0  0  0  0  0  0  0
   27.9873  -21.6106  -11.7523 C   0  0  0  0  0  0  0  0  0  0  0  0
   26.5781  -20.2136  -13.1407 C   0  0  0  0  0  0  0  0  0  0  0  0
   25.9863  -21.2618  -14.0279 C   0  0  2  0  0  0  0  0  0  0  0  0
   26.7135  -21.3546  -15.2705 N   0  0  0  0  0  0  0  0  0  0  0  0
   24.5280  -21.0973  -14.2092 C   0  0  0  0  0  0  0  0  0  0  0  0
   24.1221  -20.2311  -15.0180 O   0  0  0  0  0  0  0  0  0  0  0  0
   22.6741  -24.2816  -19.4830 O   0  0  0  0  0  0  0  0  0  0  0  0
   22.3836  -23.9567  -18.1669 C   0  0  0  0  0  0  0  0  0  0  0  0
   23.0307  -24.5474  -17.1041 C   0  0  0  0  0  0  0  0  0  0  0  0
   22.6962  -24.1811  -15.8255 C   0  0  0  0  0  0  0  0  0  0  0  0
   21.7193  -23.2261  -15.5328 C   0  0  0  0  0  0  0  0  0  0  0  0
   21.3885  -22.8695  -14.1327 C   0  0  0  0  0  0  0  0  0  0  0  0
   22.1076  -21.6244  -13.6759 C   0  0  2  0  0  0  0  0  0  0  0  0
   23.5330  -21.8513  -13.5324 N   0  0  0  0  0  0  0  0  0  0  0  0
   21.5981  -21.0490  -12.4218 C   0  0  0  0  0  0  0  0  0  0  0  0
   22.3836  -20.9092  -11.4559 O   0  0  0  0  0  0  0  0  0  0  0  0
   21.0926  -22.6562  -16.6156 C   0  0  0  0  0  0  0  0  0  0  0  0
   21.4121  -23.0082  -17.9091 C   0  0  0  0  0  0  0  0  0  0  0  0
   20.2868  -20.6421  -12.2292 O   0  0  0  0  0  0  0  0  0  0  0  0
  2  1  1  6
  2  3  1  0
  2  4  1  0
  4  5  1  6
  6  4  1  0
  6  7  2  0
  9  8  1  1
  9 11  1  0
  9 10  1  0
 12 11  1  6
 12 13  1  0
 13  6  1  0
 14 12  1  0
 15 14  2  0
 16 17  1  0
 17 27  2  0
 17 18  1  0
 18 19  2  0
 19 20  1  0
 20 21  1  0
 22 21  1  1
 22 23  1  0
 22 24  1  0
 23 14  1  0
 24 28  1  0
 25 24  2  0
 26 20  2  0
 27 26  1  0
M  END
$$$$
