TLY.pdb
     RDKit          3D

 28 28  0  0  1  0  0  0  0  0999 V2000
   45.2485   -9.2029   -2.7146 C   0  0  0  0  0  0  0  0  0  0  0  0
   44.7196   -9.5768   -4.0583 C   0  0  1  0  0  0  0  0  0  0  0  0
   44.4085   -8.4582   -4.8390 O   0  0  0  0  0  0  0  0  0  0  0  0
   45.6271  -10.4635   -4.8628 C   0  0  2  0  0  0  0  0  0  0  0  0
   46.9716   -9.9592   -4.8965 N   0  0  0  0  0  0  0  0  0  0  0  0
   45.0999  -10.7768   -6.2050 C   0  0  0  0  0  0  0  0  0  0  0  0
   45.6898  -10.4492   -7.2671 O   0  0  0  0  0  0  0  0  0  0  0  0
   42.2606  -15.2609   -9.0473 C   0  0  0  0  0  0  0  0  0  0  0  0
   42.8792  -13.9121   -8.9835 C   0  0  1  0  0  0  0  0  0  0  0  0
   41.9570  -12.9455   -9.7230 C   0  0  0  0  0  0  0  0  0  0  0  0
   43.1584  -13.3447   -7.6585 C   0  0  0  0  0  0  0  0  0  0  0  0
   43.2772  -11.8572   -7.5624 C   0  0  2  0  0  0  0  0  0  0  0  0
   43.8897  -11.4695   -6.3149 N   0  0  0  0  0  0  0  0  0  0  0  0
   41.9984  -11.1653   -7.8314 C   0  0  0  0  0  0  0  0  0  0  0  0
   40.9794  -11.8603   -8.0502 O   0  0  0  0  0  0  0  0  0  0  0  0
   36.0746   -4.8210   -8.5886 O   0  0  0  0  0  0  0  0  0  0  0  0
   36.8692   -5.9455   -8.4277 C   0  0  0  0  0  0  0  0  0  0  0  0
   36.6136   -6.8941   -7.4623 C   0  0  0  0  0  0  0  0  0  0  0  0
   37.4389   -7.9843   -7.3557 C   0  0  0  0  0  0  0  0  0  0  0  0
   38.5443   -8.1924   -8.1844 C   0  0  0  0  0  0  0  0  0  0  0  0
   39.4109   -9.3842   -8.0245 C   0  0  0  0  0  0  0  0  0  0  0  0
   40.6874   -9.0666   -7.2859 C   0  0  2  0  0  0  0  0  0  0  0  0
   41.8257   -9.7561   -7.8627 N   0  0  0  0  0  0  0  0  0  0  0  0
   40.6482   -9.3557   -5.8443 C   0  0  0  0  0  0  0  0  0  0  0  0
   40.1119  -10.4186   -5.4536 O   0  0  0  0  0  0  0  0  0  0  0  0
   38.7716   -7.2274   -9.1367 C   0  0  0  0  0  0  0  0  0  0  0  0
   37.9559   -6.1237   -9.2629 C   0  0  0  0  0  0  0  0  0  0  0  0
   41.1726   -8.5213   -4.8692 O   0  0  0  0  0  0  0  0  0  0  0  0
  2  1  1  1
  2  3  1  0
  2  4  1  0
  4  5  1  6
  6  4  1  0
  6  7  2  0
  9  8  1  1
  9 11  1  0
  9 10  1  0
 12 11  1  1
 12 13  1  0
 13  6  1  0
 14 12  1  0
 15 14  2  0
 16 17  1  0
 17 27  2  0
 17 18  1  0
 18 19  2  0
 19 20  1  0
 20 21  1  0
 22 21  1  6
 22 23  1  0
 22 24  1  0
 23 14  1  0
 24 28  1  0
 25 24  2  0
 26 20  2  0
 27 26  1  0
M  END
$$$$
