TLY.pdb
     RDKit          3D

 28 28  0  0  1  0  0  0  0  0999 V2000
   27.5779  -21.6770  -10.0405 C   0  0  0  0  0  0  0  0  0  0  0  0
   26.7729  -21.3060  -11.2403 C   0  0  1  0  0  0  0  0  0  0  0  0
   25.9475  -22.3498  -11.6722 O   0  0  0  0  0  0  0  0  0  0  0  0
   25.9179  -20.0831  -11.0657 C   0  0  2  0  0  0  0  0  0  0  0  0
   24.9489  -20.2557  -10.0196 N   0  0  0  0  0  0  0  0  0  0  0  0
   25.3194  -19.6027  -12.3261 C   0  0  0  0  0  0  0  0  0  0  0  0
   24.0839  -19.4117  -12.4696 O   0  0  0  0  0  0  0  0  0  0  0  0
   26.8737  -16.1070  -15.3711 C   0  0  0  0  0  0  0  0  0  0  0  0
   26.8901  -17.3008  -16.2546 C   0  0  1  0  0  0  0  0  0  0  0  0
   28.1550  -17.2273  -17.1069 C   0  0  0  0  0  0  0  0  0  0  0  0
   26.8482  -18.6255  -15.6229 C   0  0  0  0  0  0  0  0  0  0  0  0
   25.6937  -18.9156  -14.7177 C   0  0  2  0  0  0  0  0  0  0  0  0
   26.1533  -19.3439  -13.4189 N   0  0  0  0  0  0  0  0  0  0  0  0
   24.7092  -19.8351  -15.3275 C   0  0  0  0  0  0  0  0  0  0  0  0
   25.1012  -20.9641  -15.7029 O   0  0  0  0  0  0  0  0  0  0  0  0
   17.2904  -22.5795  -11.8215 O   0  0  0  0  0  0  0  0  0  0  0  0
   18.5192  -22.1798  -12.3238 C   0  0  0  0  0  0  0  0  0  0  0  0
   18.7726  -20.8784  -12.6968 C   0  0  0  0  0  0  0  0  0  0  0  0
   20.0103  -20.5482  -13.1867 C   0  0  0  0  0  0  0  0  0  0  0  0
   21.0482  -21.4721  -13.3321 C   0  0  0  0  0  0  0  0  0  0  0  0
   22.3672  -21.0671  -13.8737 C   0  0  0  0  0  0  0  0  0  0  0  0
   22.2587  -20.4761  -15.2575 C   0  0  2  0  0  0  0  0  0  0  0  0
   23.3343  -19.5408  -15.5263 N   0  0  0  0  0  0  0  0  0  0  0  0
   20.9786  -19.8088  -15.5392 C   0  0  0  0  0  0  0  0  0  0  0  0
   19.9333  -20.4979  -15.5861 O   0  0  0  0  0  0  0  0  0  0  0  0
   20.7626  -22.7618  -12.9511 C   0  0  0  0  0  0  0  0  0  0  0  0
   19.5264  -23.1169  -12.4561 C   0  0  0  0  0  0  0  0  0  0  0  0
   20.8436  -18.4468  -15.7595 O   0  0  0  0  0  0  0  0  0  0  0  0
  2  1  1  1
  2  3  1  0
  2  4  1  0
  4  5  1  1
  6  4  1  0
  6  7  2  0
  9  8  1  1
  9 11  1  0
  9 10  1  0
 12 11  1  6
 12 13  1  0
 13  6  1  0
 14 12  1  0
 15 14  2  0
 16 17  1  0
 17 27  2  0
 17 18  1  0
 18 19  2  0
 19 20  1  0
 20 21  1  0
 22 21  1  1
 22 23  1  0
 22 24  1  0
 23 14  1  0
 24 28  1  0
 25 24  2  0
 26 20  2  0
 27 26  1  0
M  END
$$$$
