TLY.pdb
     RDKit          3D

 28 28  0  0  1  0  0  0  0  0999 V2000
   26.8961  -19.6858  -21.5405 C   0  0  0  0  0  0  0  0  0  0  0  0
   26.3316  -18.5516  -20.7530 C   0  0  1  0  0  0  0  0  0  0  0  0
   24.9847  -18.3154  -21.0487 O   0  0  0  0  0  0  0  0  0  0  0  0
   26.4581  -18.7007  -19.2634 C   0  0  2  0  0  0  0  0  0  0  0  0
   25.8708  -19.9266  -18.7991 N   0  0  0  0  0  0  0  0  0  0  0  0
   25.9848  -17.5203  -18.5149 C   0  0  0  0  0  0  0  0  0  0  0  0
   24.8409  -17.4512  -17.9952 O   0  0  0  0  0  0  0  0  0  0  0  0
   28.4603  -12.5054  -15.8127 C   0  0  0  0  0  0  0  0  0  0  0  0
   27.3612  -13.1415  -16.5830 C   0  0  1  0  0  0  0  0  0  0  0  0
   27.0360  -12.2289  -17.7634 C   0  0  0  0  0  0  0  0  0  0  0  0
   27.5814  -14.4953  -17.1067 C   0  0  0  0  0  0  0  0  0  0  0  0
   26.4433  -15.1432  -17.8286 C   0  0  2  0  0  0  0  0  0  0  0  0
   26.8378  -16.4214  -18.3692 N   0  0  0  0  0  0  0  0  0  0  0  0
   25.8186  -14.2484  -18.8264 C   0  0  0  0  0  0  0  0  0  0  0  0
   26.4512  -13.9942  -19.8774 O   0  0  0  0  0  0  0  0  0  0  0  0
   18.4751  -15.6346  -17.6509 O   0  0  0  0  0  0  0  0  0  0  0  0
   19.5878  -15.2178  -18.3651 C   0  0  0  0  0  0  0  0  0  0  0  0
   20.6162  -16.0747  -18.6896 C   0  0  0  0  0  0  0  0  0  0  0  0
   21.6895  -15.5989  -19.3985 C   0  0  0  0  0  0  0  0  0  0  0  0
   21.8026  -14.2712  -19.8184 C   0  0  0  0  0  0  0  0  0  0  0  0
   22.9871  -13.8034  -20.5768 C   0  0  0  0  0  0  0  0  0  0  0  0
   23.8768  -12.9082  -19.7504 C   0  0  2  0  0  0  0  0  0  0  0  0
   24.5410  -13.6435  -18.6911 N   0  0  0  0  0  0  0  0  0  0  0  0
   23.1951  -11.7480  -19.1566 C   0  0  0  0  0  0  0  0  0  0  0  0
   22.6534  -10.9100  -19.9143 O   0  0  0  0  0  0  0  0  0  0  0  0
   20.7599  -13.4424  -19.4783 C   0  0  0  0  0  0  0  0  0  0  0  0
   19.6711  -13.8980  -18.7667 C   0  0  0  0  0  0  0  0  0  0  0  0
   23.1067  -11.5117  -17.7934 O   0  0  0  0  0  0  0  0  0  0  0  0
  2  1  1  6
  2  3  1  0
  2  4  1  0
  4  5  1  1
  6  4  1  0
  6  7  2  0
  9  8  1  6
  9 11  1  0
  9 10  1  0
 12 11  1  6
 12 13  1  0
 13  6  1  0
 14 12  1  0
 15 14  2  0
 16 17  1  0
 17 27  2  0
 17 18  1  0
 18 19  2  0
 19 20  1  0
 20 21  1  0
 22 21  1  1
 22 23  1  0
 22 24  1  0
 23 14  1  0
 24 28  1  0
 25 24  2  0
 26 20  2  0
 27 26  1  0
M  END
$$$$
