TLY.pdb
     RDKit          3D

 28 28  0  0  1  0  0  0  0  0999 V2000
   28.8037  -18.9819  -14.7274 C   0  0  0  0  0  0  0  0  0  0  0  0
   27.9084  -19.4337  -13.6231 C   0  0  1  0  0  0  0  0  0  0  0  0
   26.5538  -19.2944  -13.9440 O   0  0  0  0  0  0  0  0  0  0  0  0
   28.1337  -20.8501  -13.1755 C   0  0  2  0  0  0  0  0  0  0  0  0
   28.0143  -21.7783  -14.2652 N   0  0  0  0  0  0  0  0  0  0  0  0
   27.3170  -21.2315  -12.0072 C   0  0  0  0  0  0  0  0  0  0  0  0
   26.2937  -21.9586  -12.0937 O   0  0  0  0  0  0  0  0  0  0  0  0
   26.6853  -21.4265   -6.2355 C   0  0  0  0  0  0  0  0  0  0  0  0
   26.8155  -20.2332   -7.1102 C   0  0  1  0  0  0  0  0  0  0  0  0
   27.4603  -19.1228   -6.2839 C   0  0  0  0  0  0  0  0  0  0  0  0
   27.5817  -20.3722   -8.3549 C   0  0  0  0  0  0  0  0  0  0  0  0
   26.8278  -20.7787   -9.5807 C   0  0  2  0  0  0  0  0  0  0  0  0
   27.6871  -20.7700  -10.7397 N   0  0  0  0  0  0  0  0  0  0  0  0
   25.5812  -20.0052   -9.7652 C   0  0  0  0  0  0  0  0  0  0  0  0
   25.6708  -18.7789  -10.0047 O   0  0  0  0  0  0  0  0  0  0  0  0
   19.5265  -20.1786  -15.8971 O   0  0  0  0  0  0  0  0  0  0  0  0
   20.5269  -20.3505  -14.9529 C   0  0  0  0  0  0  0  0  0  0  0  0
   20.6061  -21.4756  -14.1624 C   0  0  0  0  0  0  0  0  0  0  0  0
   21.6214  -21.5840  -13.2469 C   0  0  0  0  0  0  0  0  0  0  0  0
   22.5981  -20.6015  -13.0659 C   0  0  0  0  0  0  0  0  0  0  0  0
   23.6721  -20.7623  -12.0572 C   0  0  0  0  0  0  0  0  0  0  0  0
   23.2397  -20.3064  -10.6856 C   0  0  2  0  0  0  0  0  0  0  0  0
   24.2696  -20.5448   -9.6925 N   0  0  0  0  0  0  0  0  0  0  0  0
   21.9841  -20.9063  -10.2092 C   0  0  0  0  0  0  0  0  0  0  0  0
   22.0367  -21.9295   -9.4879 O   0  0  0  0  0  0  0  0  0  0  0  0
   22.4903  -19.4917  -13.8701 C   0  0  0  0  0  0  0  0  0  0  0  0
   21.4790  -19.3608  -14.7971 C   0  0  0  0  0  0  0  0  0  0  0  0
   20.7238  -20.4109  -10.5058 O   0  0  0  0  0  0  0  0  0  0  0  0
  2  1  1  6
  2  3  1  0
  2  4  1  0
  4  5  1  6
  6  4  1  0
  6  7  2  0
  9  8  1  1
  9 11  1  0
  9 10  1  0
 12 11  1  1
 12 13  1  0
 13  6  1  0
 14 12  1  0
 15 14  2  0
 16 17  1  0
 17 27  2  0
 17 18  1  0
 18 19  2  0
 19 20  1  0
 20 21  1  0
 22 21  1  6
 22 23  1  0
 22 24  1  0
 23 14  1  0
 24 28  1  0
 25 24  2  0
 26 20  2  0
 27 26  1  0
M  END
$$$$
