TLY.pdb
     RDKit          3D

 28 28  0  0  1  0  0  0  0  0999 V2000
   18.4943  -11.8350  -21.6099 C   0  0  0  0  0  0  0  0  0  0  0  0
   18.8960  -11.0672  -20.3957 C   0  0  1  0  0  0  0  0  0  0  0  0
   18.0383   -9.9927  -20.1365 O   0  0  0  0  0  0  0  0  0  0  0  0
   18.9988  -11.8889  -19.1422 C   0  0  2  0  0  0  0  0  0  0  0  0
   17.7980  -12.6377  -18.8962 N   0  0  0  0  0  0  0  0  0  0  0  0
   19.4389  -11.1116  -17.9675 C   0  0  0  0  0  0  0  0  0  0  0  0
   18.6483  -10.4442  -17.2514 O   0  0  0  0  0  0  0  0  0  0  0  0
   22.6677  -10.1424  -13.6678 C   0  0  0  0  0  0  0  0  0  0  0  0
   23.3545  -10.2914  -14.9762 C   0  0  1  0  0  0  0  0  0  0  0  0
   24.6590  -11.0459  -14.7300 C   0  0  0  0  0  0  0  0  0  0  0  0
   22.6348  -10.9756  -16.0576 C   0  0  0  0  0  0  0  0  0  0  0  0
   21.3634  -10.3505  -16.5361 C   0  0  2  0  0  0  0  0  0  0  0  0
   20.7948  -11.1088  -17.6239 N   0  0  0  0  0  0  0  0  0  0  0  0
   21.5149   -8.9107  -16.8369 C   0  0  0  0  0  0  0  0  0  0  0  0
   22.0682   -8.5815  -17.9115 O   0  0  0  0  0  0  0  0  0  0  0  0
   20.6961   -0.3922  -18.3148 O   0  0  0  0  0  0  0  0  0  0  0  0
   20.5459   -1.7410  -18.0320 C   0  0  0  0  0  0  0  0  0  0  0  0
   19.6579   -2.1988  -17.0838 C   0  0  0  0  0  0  0  0  0  0  0  0
   19.5576   -3.5468  -16.8519 C   0  0  0  0  0  0  0  0  0  0  0  0
   20.3176   -4.5003  -17.5339 C   0  0  0  0  0  0  0  0  0  0  0  0
   20.1777   -5.9467  -17.2418 C   0  0  0  0  0  0  0  0  0  0  0  0
   21.2516   -6.4467  -16.3076 C   0  0  2  0  0  0  0  0  0  0  0  0
   21.0784   -7.8527  -15.9962 N   0  0  0  0  0  0  0  0  0  0  0  0
   21.3612   -5.6992  -15.0457 C   0  0  0  0  0  0  0  0  0  0  0  0
   21.8991   -4.5677  -15.0562 O   0  0  0  0  0  0  0  0  0  0  0  0
   21.1940   -4.0105  -18.4730 C   0  0  0  0  0  0  0  0  0  0  0  0
   21.3120   -2.6604  -18.7234 C   0  0  0  0  0  0  0  0  0  0  0  0
   20.9027   -6.1655  -13.8232 O   0  0  0  0  0  0  0  0  0  0  0  0
  2  1  1  6
  2  3  1  0
  2  4  1  0
  4  5  1  1
  6  4  1  0
  6  7  2  0
  9  8  1  1
  9 11  1  0
  9 10  1  0
 12 11  1  6
 12 13  1  0
 13  6  1  0
 14 12  1  0
 15 14  2  0
 16 17  1  0
 17 27  2  0
 17 18  1  0
 18 19  2  0
 19 20  1  0
 20 21  1  0
 22 21  1  1
 22 23  1  0
 22 24  1  0
 23 14  1  0
 24 28  1  0
 25 24  2  0
 26 20  2  0
 27 26  1  0
M  END
$$$$
