TLY.pdb
     RDKit          3D

 28 28  0  0  1  0  0  0  0  0999 V2000
   22.8236   -8.0294  -21.4152 C   0  0  0  0  0  0  0  0  0  0  0  0
   21.5456   -8.7983  -21.3867 C   0  0  1  0  0  0  0  0  0  0  0  0
   21.1537   -9.2285  -22.6590 O   0  0  0  0  0  0  0  0  0  0  0  0
   21.5558   -9.9943  -20.4776 C   0  0  2  0  0  0  0  0  0  0  0  0
   20.3641  -10.7832  -20.6220 N   0  0  0  0  0  0  0  0  0  0  0  0
   21.8524   -9.6582  -19.0717 C   0  0  0  0  0  0  0  0  0  0  0  0
   20.9865   -9.2094  -18.2765 O   0  0  0  0  0  0  0  0  0  0  0  0
   24.7547   -9.9381  -14.3773 C   0  0  0  0  0  0  0  0  0  0  0  0
   25.5063   -9.7507  -15.6446 C   0  0  1  0  0  0  0  0  0  0  0  0
   26.8147  -10.5289  -15.5251 C   0  0  0  0  0  0  0  0  0  0  0  0
   24.8549  -10.1529  -16.8973 C   0  0  0  0  0  0  0  0  0  0  0  0
   23.6108   -9.4207  -17.2874 C   0  0  2  0  0  0  0  0  0  0  0  0
   23.1520   -9.8427  -18.5886 N   0  0  0  0  0  0  0  0  0  0  0  0
   23.7488   -7.9542  -17.1578 C   0  0  0  0  0  0  0  0  0  0  0  0
   24.5592   -7.3634  -17.9084 O   0  0  0  0  0  0  0  0  0  0  0  0
   16.7051   -5.8741  -16.0794 O   0  0  0  0  0  0  0  0  0  0  0  0
   18.0455   -5.6968  -16.3857 C   0  0  0  0  0  0  0  0  0  0  0  0
   18.6653   -6.3907  -17.4013 C   0  0  0  0  0  0  0  0  0  0  0  0
   19.9951   -6.1687  -17.6532 C   0  0  0  0  0  0  0  0  0  0  0  0
   20.7718   -5.2631  -16.9262 C   0  0  0  0  0  0  0  0  0  0  0  0
   22.2083   -5.0638  -17.2327 C   0  0  0  0  0  0  0  0  0  0  0  0
   23.1056   -5.6985  -16.1993 C   0  0  2  0  0  0  0  0  0  0  0  0
   23.0278   -7.1463  -16.2391 N   0  0  0  0  0  0  0  0  0  0  0  0
   22.8577   -5.2555  -14.8189 C   0  0  0  0  0  0  0  0  0  0  0  0
   22.4555   -6.0917  -13.9770 O   0  0  0  0  0  0  0  0  0  0  0  0
   20.1232   -4.5874  -15.9200 C   0  0  0  0  0  0  0  0  0  0  0  0
   18.7879   -4.7937  -15.6486 C   0  0  0  0  0  0  0  0  0  0  0  0
   23.0417   -3.9552  -14.3745 O   0  0  0  0  0  0  0  0  0  0  0  0
  2  1  1  6
  2  3  1  0
  2  4  1  0
  4  5  1  1
  6  4  1  0
  6  7  2  0
  9  8  1  1
  9 11  1  0
  9 10  1  0
 12 11  1  6
 12 13  1  0
 13  6  1  0
 14 12  1  0
 15 14  2  0
 16 17  1  0
 17 27  2  0
 17 18  1  0
 18 19  2  0
 19 20  1  0
 20 21  1  0
 22 21  1  6
 22 23  1  0
 22 24  1  0
 23 14  1  0
 24 28  1  0
 25 24  2  0
 26 20  2  0
 27 26  1  0
M  END
$$$$
