TLY.pdb
     RDKit          3D

 28 28  0  0  1  0  0  0  0  0999 V2000
   28.4590  -18.7238  -18.8581 C   0  0  0  0  0  0  0  0  0  0  0  0
   27.6371  -19.4260  -17.8302 C   0  0  1  0  0  0  0  0  0  0  0  0
   26.3765  -19.7919  -18.3143 O   0  0  0  0  0  0  0  0  0  0  0  0
   28.2807  -20.6511  -17.2454 C   0  0  2  0  0  0  0  0  0  0  0  0
   28.6240  -21.6082  -18.2600 N   0  0  0  0  0  0  0  0  0  0  0  0
   27.5088  -21.2449  -16.1367 C   0  0  0  0  0  0  0  0  0  0  0  0
   26.7781  -22.2598  -16.2762 O   0  0  0  0  0  0  0  0  0  0  0  0
   27.9317  -21.0761   -9.9474 C   0  0  0  0  0  0  0  0  0  0  0  0
   27.1336  -21.3086  -11.1782 C   0  0  1  0  0  0  0  0  0  0  0  0
   25.7820  -20.6239  -10.9885 C   0  0  0  0  0  0  0  0  0  0  0  0
   27.6934  -20.8553  -12.4575 C   0  0  0  0  0  0  0  0  0  0  0  0
   26.9102  -21.1618  -13.6940 C   0  0  2  0  0  0  0  0  0  0  0  0
   27.5848  -20.6621  -14.8674 N   0  0  0  0  0  0  0  0  0  0  0  0
   25.4994  -20.7298  -13.5962 C   0  0  0  0  0  0  0  0  0  0  0  0
   25.2545  -19.5025  -13.5413 O   0  0  0  0  0  0  0  0  0  0  0  0
   16.6335  -20.5559  -13.6698 O   0  0  0  0  0  0  0  0  0  0  0  0
   17.9581  -20.9534  -13.7665 C   0  0  0  0  0  0  0  0  0  0  0  0
   18.5885  -21.6592  -12.7658 C   0  0  0  0  0  0  0  0  0  0  0  0
   19.9015  -22.0226  -12.9238 C   0  0  0  0  0  0  0  0  0  0  0  0
   20.6506  -21.7127  -14.0617 C   0  0  0  0  0  0  0  0  0  0  0  0
   22.0701  -22.1220  -14.1821 C   0  0  0  0  0  0  0  0  0  0  0  0
   23.0032  -21.1538  -13.4979 C   0  0  2  0  0  0  0  0  0  0  0  0
   24.3807  -21.6037  -13.5588 N   0  0  0  0  0  0  0  0  0  0  0  0
   22.6670  -20.8682  -12.0948 C   0  0  0  0  0  0  0  0  0  0  0  0
   23.0629  -21.6557  -11.2043 O   0  0  0  0  0  0  0  0  0  0  0  0
   19.9921  -21.0077  -15.0411 C   0  0  0  0  0  0  0  0  0  0  0  0
   18.6732  -20.6319  -14.9046 C   0  0  0  0  0  0  0  0  0  0  0  0
   21.9308  -19.7693  -11.6796 O   0  0  0  0  0  0  0  0  0  0  0  0
  2  1  1  6
  2  3  1  0
  2  4  1  0
  4  5  1  6
  6  4  1  0
  6  7  2  0
  9  8  1  1
  9 11  1  0
  9 10  1  0
 12 11  1  1
 12 13  1  0
 13  6  1  0
 14 12  1  0
 15 14  2  0
 16 17  1  0
 17 27  2  0
 17 18  1  0
 18 19  2  0
 19 20  1  0
 20 21  1  0
 22 21  1  1
 22 23  1  0
 22 24  1  0
 23 14  1  0
 24 28  1  0
 25 24  2  0
 26 20  2  0
 27 26  1  0
M  END
$$$$
