TLY.pdb
     RDKit          3D

 28 28  0  0  1  0  0  0  0  0999 V2000
   26.9413  -16.2548  -15.3803 C   0  0  0  0  0  0  0  0  0  0  0  0
   26.1030  -15.8103  -16.5312 C   0  0  1  0  0  0  0  0  0  0  0  0
   26.2291  -14.4402  -16.7850 O   0  0  0  0  0  0  0  0  0  0  0  0
   26.3652  -16.5439  -17.8158 C   0  0  2  0  0  0  0  0  0  0  0  0
   25.6059  -15.9975  -18.9058 N   0  0  0  0  0  0  0  0  0  0  0  0
   26.2194  -18.0073  -17.6941 C   0  0  0  0  0  0  0  0  0  0  0  0
   25.1018  -18.5827  -17.6357 O   0  0  0  0  0  0  0  0  0  0  0  0
   27.9017  -23.2193  -18.0809 C   0  0  0  0  0  0  0  0  0  0  0  0
   28.8399  -22.2700  -17.4295 C   0  0  1  0  0  0  0  0  0  0  0  0
   30.2568  -22.6683  -17.8366 C   0  0  0  0  0  0  0  0  0  0  0  0
   28.6757  -20.8382  -17.7099 C   0  0  0  0  0  0  0  0  0  0  0  0
   27.3796  -20.2074  -17.3121 C   0  0  2  0  0  0  0  0  0  0  0  0
   27.3689  -18.8025  -17.6406 N   0  0  0  0  0  0  0  0  0  0  0  0
   27.0183  -20.4867  -15.9056 C   0  0  0  0  0  0  0  0  0  0  0  0
   27.6178  -19.8611  -15.0010 O   0  0  0  0  0  0  0  0  0  0  0  0
   23.2066  -21.0813   -8.2119 O   0  0  0  0  0  0  0  0  0  0  0  0
   23.7110  -20.8929   -9.4894 C   0  0  0  0  0  0  0  0  0  0  0  0
   22.8959  -20.8102  -10.5966 C   0  0  0  0  0  0  0  0  0  0  0  0
   23.4586  -20.6229  -11.8333 C   0  0  0  0  0  0  0  0  0  0  0  0
   24.8358  -20.5092  -12.0392 C   0  0  0  0  0  0  0  0  0  0  0  0
   25.3961  -20.3146  -13.3975 C   0  0  0  0  0  0  0  0  0  0  0  0
   25.6450  -21.6235  -14.1051 C   0  0  2  0  0  0  0  0  0  0  0  0
   26.0327  -21.4197  -15.4878 N   0  0  0  0  0  0  0  0  0  0  0  0
   24.5130  -22.5621  -14.0712 C   0  0  0  0  0  0  0  0  0  0  0  0
   24.3852  -23.3222  -13.0835 O   0  0  0  0  0  0  0  0  0  0  0  0
   25.6208  -20.5962  -10.9140 C   0  0  0  0  0  0  0  0  0  0  0  0
   25.0780  -20.7840   -9.6612 C   0  0  0  0  0  0  0  0  0  0  0  0
   23.5596  -22.6670  -15.0722 O   0  0  0  0  0  0  0  0  0  0  0  0
  2  1  1  1
  2  3  1  0
  2  4  1  0
  4  5  1  6
  6  4  1  0
  6  7  2  0
  9  8  1  6
  9 11  1  0
  9 10  1  0
 12 11  1  1
 12 13  1  0
 13  6  1  0
 14 12  1  0
 15 14  2  0
 16 17  1  0
 17 27  2  0
 17 18  1  0
 18 19  2  0
 19 20  1  0
 20 21  1  0
 22 21  1  6
 22 23  1  0
 22 24  1  0
 23 14  1  0
 24 28  1  0
 25 24  2  0
 26 20  2  0
 27 26  1  0
M  END
$$$$
