TLY.pdb
     RDKit          3D

 28 28  0  0  1  0  0  0  0  0999 V2000
   16.6891  -10.6648  -19.3522 C   0  0  0  0  0  0  0  0  0  0  0  0
   17.6289  -10.1336  -18.3227 C   0  0  1  0  0  0  0  0  0  0  0  0
   17.3419   -8.8103  -17.9709 O   0  0  0  0  0  0  0  0  0  0  0  0
   17.6948  -10.9435  -17.0591 C   0  0  2  0  0  0  0  0  0  0  0  0
   16.3954  -11.1246  -16.4742 N   0  0  0  0  0  0  0  0  0  0  0  0
   18.6916  -10.4417  -16.0937 C   0  0  0  0  0  0  0  0  0  0  0  0
   18.3856   -9.7449  -15.0916 O   0  0  0  0  0  0  0  0  0  0  0  0
   23.1652  -10.8698  -13.0691 C   0  0  0  0  0  0  0  0  0  0  0  0
   23.3679  -11.0282  -14.5319 C   0  0  1  0  0  0  0  0  0  0  0  0
   24.3968  -12.1376  -14.7382 C   0  0  0  0  0  0  0  0  0  0  0  0
   22.1961  -11.3401  -15.3596 C   0  0  0  0  0  0  0  0  0  0  0  0
   21.1161  -10.3086  -15.4330 C   0  0  2  0  0  0  0  0  0  0  0  0
   20.0421  -10.7481  -16.2904 N   0  0  0  0  0  0  0  0  0  0  0  0
   21.6329   -8.9664  -15.7764 C   0  0  0  0  0  0  0  0  0  0  0  0
   22.1530   -8.7986  -16.9036 O   0  0  0  0  0  0  0  0  0  0  0  0
   16.0362   -4.3290  -14.7045 O   0  0  0  0  0  0  0  0  0  0  0  0
   17.3078   -4.6950  -15.1180 C   0  0  0  0  0  0  0  0  0  0  0  0
   18.3722   -3.8215  -15.0821 C   0  0  0  0  0  0  0  0  0  0  0  0
   19.6054   -4.2466  -15.5058 C   0  0  0  0  0  0  0  0  0  0  0  0
   19.8493   -5.5377  -15.9805 C   0  0  0  0  0  0  0  0  0  0  0  0
   21.1997   -5.9472  -16.4341 C   0  0  0  0  0  0  0  0  0  0  0  0
   22.0338   -6.5084  -15.3092 C   0  0  2  0  0  0  0  0  0  0  0  0
   21.5884   -7.8333  -14.9216 N   0  0  0  0  0  0  0  0  0  0  0  0
   22.0867   -5.6634  -14.1065 C   0  0  0  0  0  0  0  0  0  0  0  0
   21.7013   -6.1397  -13.0136 O   0  0  0  0  0  0  0  0  0  0  0  0
   18.7663   -6.3842  -16.0036 C   0  0  0  0  0  0  0  0  0  0  0  0
   17.5179   -5.9795  -15.5828 C   0  0  0  0  0  0  0  0  0  0  0  0
   22.5419   -4.3539  -14.0955 O   0  0  0  0  0  0  0  0  0  0  0  0
  2  1  1  6
  2  3  1  0
  2  4  1  0
  4  5  1  1
  6  4  1  0
  6  7  2  0
  9  8  1  1
  9 11  1  0
  9 10  1  0
 12 11  1  6
 12 13  1  0
 13  6  1  0
 14 12  1  0
 15 14  2  0
 16 17  1  0
 17 27  2  0
 17 18  1  0
 18 19  2  0
 19 20  1  0
 20 21  1  0
 22 21  1  6
 22 23  1  0
 22 24  1  0
 23 14  1  0
 24 28  1  0
 25 24  2  0
 26 20  2  0
 27 26  1  0
M  END
$$$$
