CCC.pdb
     RDKit          3D

 19 18  0  0  1  0  0  0  0  0999 V2000
    8.1490  -13.4390   19.8688 N   0  0  0  0  0  0  0  0  0  0  0  0
    7.2135  -13.7991   20.9158 C   0  0  1  0  0  0  0  0  0  0  0  0
    6.5239  -15.1080   20.6042 C   0  0  0  0  0  0  0  0  0  0  0  0
    7.7006  -16.4389   20.3138 S   0  0  0  0  0  0  0  0  0  0  0  0
    7.9776  -13.9305   22.1872 C   0  0  0  0  0  0  0  0  0  0  0  0
    9.2356  -13.9955   22.1925 O   0  0  0  0  0  0  0  0  0  0  0  0
    7.3291  -13.9886   23.4482 N   0  0  0  0  0  0  0  0  0  0  0  0
    8.1028  -14.0904   24.7117 C   0  0  1  0  0  0  0  0  0  0  0  0
    7.3540  -13.3276   25.7826 C   0  0  0  0  0  0  0  0  0  0  0  0
    5.7000  -13.9654   26.0869 S   0  0  0  0  0  0  0  0  0  0  0  0
    8.3188  -15.5182   25.0409 C   0  0  0  0  0  0  0  0  0  0  0  0
    7.3868  -16.3467   24.7270 O   0  0  0  0  0  0  0  0  0  0  0  0
    9.4832  -16.0039   25.6718 N   0  0  0  0  0  0  0  0  0  0  0  0
    9.6890  -17.4147   25.9233 C   0  0  1  0  0  0  0  0  0  0  0  0
   10.8383  -17.9861   25.1343 C   0  0  0  0  0  0  0  0  0  0  0  0
   12.0141  -16.6165   24.8484 S   0  0  0  0  0  0  0  0  0  0  0  0
    9.9998  -17.6088   27.3612 C   0  0  0  0  0  0  0  0  0  0  0  0
   10.0825  -16.6179   28.1255 O   0  0  0  0  0  0  0  0  0  0  0  0
   10.2073  -18.8598   27.9113 O   0  0  0  0  0  0  0  0  0  0  0  0
  2  3  1  0
  2  1  1  6
  3  4  1  0
  5  2  1  0
  5  6  2  0
  7  5  1  0
  8  7  1  0
  9 10  1  0
  8  9  1  1
 11  8  1  0
 11 13  1  0
 12 11  2  0
 14 13  1  0
 14 17  1  0
 14 15  1  6
 16 15  1  0
 17 18  2  0
 17 19  1  0
M  END
$$$$
