CCC.pdb
     RDKit          3D

 19 18  0  0  1  0  0  0  0  0999 V2000
    5.1793  -18.8709   20.3893 N   0  0  0  0  0  0  0  0  0  0  0  0
    5.1022  -17.7945   21.3570 C   0  0  1  0  0  0  0  0  0  0  0  0
    4.6355  -18.3029   22.7022 C   0  0  0  0  0  0  0  0  0  0  0  0
    2.8713  -18.6603   22.7140 S   0  0  0  0  0  0  0  0  0  0  0  0
    6.4624  -17.2037   21.4939 C   0  0  0  0  0  0  0  0  0  0  0  0
    7.4992  -17.9054   21.3539 O   0  0  0  0  0  0  0  0  0  0  0  0
    6.6557  -15.8288   21.7874 N   0  0  0  0  0  0  0  0  0  0  0  0
    8.0136  -15.2677   22.0035 C   0  0  1  0  0  0  0  0  0  0  0  0
    7.9149  -13.7597   21.9295 C   0  0  0  0  0  0  0  0  0  0  0  0
    6.7993  -13.0578   23.1534 S   0  0  0  0  0  0  0  0  0  0  0  0
    8.5506  -15.7650   23.2912 C   0  0  0  0  0  0  0  0  0  0  0  0
    7.7328  -15.8551   24.2794 O   0  0  0  0  0  0  0  0  0  0  0  0
    9.8971  -16.1404   23.4798 N   0  0  0  0  0  0  0  0  0  0  0  0
   10.3884  -16.6248   24.7526 C   0  0  1  0  0  0  0  0  0  0  0  0
    9.7923  -17.9529   25.1406 C   0  0  0  0  0  0  0  0  0  0  0  0
   10.5872  -18.4494   26.7096 S   0  0  0  0  0  0  0  0  0  0  0  0
   11.8583  -16.8083   24.6649 C   0  0  0  0  0  0  0  0  0  0  0  0
   12.5078  -17.1697   25.6751 O   0  0  0  0  0  0  0  0  0  0  0  0
   12.5624  -16.5948   23.4947 O   0  0  0  0  0  0  0  0  0  0  0  0
  2  3  1  0
  2  1  1  6
  3  4  1  0
  5  2  1  0
  5  6  2  0
  7  5  1  0
  8  7  1  0
  9 10  1  0
  8  9  1  1
 11  8  1  0
 11 13  1  0
 12 11  2  0
 14 13  1  0
 14 17  1  0
 14 15  1  6
 16 15  1  0
 17 18  2  0
 17 19  1  0
M  END
$$$$
