CCC.pdb
     RDKit          3D

 19 18  0  0  1  0  0  0  0  0999 V2000
    8.6309  -15.6038   20.6028 N   0  0  0  0  0  0  0  0  0  0  0  0
    7.7148  -15.7747   21.7130 C   0  0  1  0  0  0  0  0  0  0  0  0
    7.4597  -17.2391   21.9890 C   0  0  0  0  0  0  0  0  0  0  0  0
    6.2289  -17.9321   20.8731 S   0  0  0  0  0  0  0  0  0  0  0  0
    8.3280  -15.1425   22.9139 C   0  0  0  0  0  0  0  0  0  0  0  0
    9.5728  -15.1692   23.1056 O   0  0  0  0  0  0  0  0  0  0  0  0
    7.5440  -14.4826   23.8956 N   0  0  0  0  0  0  0  0  0  0  0  0
    8.1576  -13.9209   25.1259 C   0  0  1  0  0  0  0  0  0  0  0  0
    7.1850  -12.9277   25.7233 C   0  0  0  0  0  0  0  0  0  0  0  0
    7.6567  -12.3690   27.3667 S   0  0  0  0  0  0  0  0  0  0  0  0
    8.5160  -15.0266   26.0440 C   0  0  0  0  0  0  0  0  0  0  0  0
    7.5822  -15.8440   26.3807 O   0  0  0  0  0  0  0  0  0  0  0  0
    9.8155  -15.2222   26.5567 N   0  0  0  0  0  0  0  0  0  0  0  0
   10.1058  -16.2380   27.5466 C   0  0  1  0  0  0  0  0  0  0  0  0
   11.4144  -16.9408   27.2945 C   0  0  0  0  0  0  0  0  0  0  0  0
   11.0161  -18.5052   26.4379 S   0  0  0  0  0  0  0  0  0  0  0  0
   10.1972  -15.5985   28.8825 C   0  0  0  0  0  0  0  0  0  0  0  0
   10.3977  -16.3001   29.9025 O   0  0  0  0  0  0  0  0  0  0  0  0
   10.0689  -14.2338   29.0602 O   0  0  0  0  0  0  0  0  0  0  0  0
  2  3  1  0
  2  1  1  6
  3  4  1  0
  5  2  1  0
  5  6  2  0
  7  5  1  0
  8  7  1  0
  9 10  1  0
  8  9  1  1
 11  8  1  0
 11 13  1  0
 12 11  2  0
 14 13  1  0
 14 17  1  0
 14 15  1  6
 16 15  1  0
 17 18  2  0
 17 19  1  0
M  END
$$$$
