CCC.pdb
     RDKit          3D

 19 18  0  0  1  0  0  0  0  0999 V2000
    7.7787  -17.0004   21.4564 N   0  0  0  0  0  0  0  0  0  0  0  0
    7.2633  -16.9951   22.8112 C   0  0  1  0  0  0  0  0  0  0  0  0
    7.8145  -18.1553   23.6087 C   0  0  0  0  0  0  0  0  0  0  0  0
    8.1354  -19.5935   22.5750 S   0  0  0  0  0  0  0  0  0  0  0  0
    7.6715  -15.7139   23.4513 C   0  0  0  0  0  0  0  0  0  0  0  0
    8.6833  -15.0763   23.0555 O   0  0  0  0  0  0  0  0  0  0  0  0
    6.9443  -15.1519   24.5326 N   0  0  0  0  0  0  0  0  0  0  0  0
    7.3092  -13.8318   25.1067 C   0  0  1  0  0  0  0  0  0  0  0  0
    6.1048  -13.2939   25.8480 C   0  0  0  0  0  0  0  0  0  0  0  0
    6.4507  -11.7912   26.7738 S   0  0  0  0  0  0  0  0  0  0  0  0
    8.5117  -13.9826   25.9582 C   0  0  0  0  0  0  0  0  0  0  0  0
    9.0953  -12.9080   26.3557 O   0  0  0  0  0  0  0  0  0  0  0  0
    9.0369  -15.2321   26.3487 N   0  0  0  0  0  0  0  0  0  0  0  0
   10.1485  -15.3441   27.2696 C   0  0  1  0  0  0  0  0  0  0  0  0
    9.7232  -15.2459   28.7116 C   0  0  0  0  0  0  0  0  0  0  0  0
    9.4619  -13.4719   29.0645 S   0  0  0  0  0  0  0  0  0  0  0  0
   10.7947  -16.6676   27.0882 C   0  0  0  0  0  0  0  0  0  0  0  0
   11.8197  -16.9620   27.7480 O   0  0  0  0  0  0  0  0  0  0  0  0
   10.3088  -17.6137   26.2053 O   0  0  0  0  0  0  0  0  0  0  0  0
  2  3  1  0
  2  1  1  6
  3  4  1  0
  5  2  1  0
  5  6  2  0
  7  5  1  0
  8  7  1  0
  9 10  1  0
  8  9  1  1
 11  8  1  0
 11 13  1  0
 12 11  2  0
 14 13  1  0
 14 17  1  0
 14 15  1  1
 16 15  1  0
 17 18  2  0
 17 19  1  0
M  END
$$$$
