CCC.pdb
     RDKit          3D

 19 18  0  0  1  0  0  0  0  0999 V2000
    7.7960  -17.2117   19.3000 N   0  0  0  0  0  0  0  0  0  0  0  0
    8.8092  -16.7452   20.2257 C   0  0  1  0  0  0  0  0  0  0  0  0
    9.6062  -15.6054   19.6327 C   0  0  0  0  0  0  0  0  0  0  0  0
   11.0542  -15.2060   20.6245 S   0  0  0  0  0  0  0  0  0  0  0  0
    8.1208  -16.2797   21.4615 C   0  0  0  0  0  0  0  0  0  0  0  0
    6.9203  -15.8987   21.4395 O   0  0  0  0  0  0  0  0  0  0  0  0
    8.7803  -16.2430   22.7176 N   0  0  0  0  0  0  0  0  0  0  0  0
    8.0456  -15.9214   23.9675 C   0  0  1  0  0  0  0  0  0  0  0  0
    7.0535  -17.0339   24.2275 C   0  0  0  0  0  0  0  0  0  0  0  0
    7.8326  -18.6251   24.5376 S   0  0  0  0  0  0  0  0  0  0  0  0
    9.0155  -15.7215   25.0689 C   0  0  0  0  0  0  0  0  0  0  0  0
   10.1701  -16.2749   24.9500 O   0  0  0  0  0  0  0  0  0  0  0  0
    8.7357  -14.9618   26.2240 N   0  0  0  0  0  0  0  0  0  0  0  0
    9.7034  -14.7971   27.2882 C   0  0  1  0  0  0  0  0  0  0  0  0
    9.2698  -13.7884   28.3198 C   0  0  0  0  0  0  0  0  0  0  0  0
   10.6408  -13.6376   29.5186 S   0  0  0  0  0  0  0  0  0  0  0  0
    9.8803  -16.0950   27.9855 C   0  0  0  0  0  0  0  0  0  0  0  0
    8.9089  -16.8782   28.1112 O   0  0  0  0  0  0  0  0  0  0  0  0
   11.0938  -16.4910   28.5157 O   0  0  0  0  0  0  0  0  0  0  0  0
  2  3  1  0
  2  1  1  6
  3  4  1  0
  5  2  1  0
  5  6  2  0
  7  5  1  0
  8  7  1  0
  9 10  1  0
  8  9  1  1
 11  8  1  0
 11 13  1  0
 12 11  2  0
 14 13  1  0
 14 17  1  0
 14 15  1  1
 16 15  1  0
 17 18  2  0
 17 19  1  0
M  END
$$$$
