CCC.pdb
     RDKit          3D

 19 18  0  0  1  0  0  0  0  0999 V2000
    8.2479  -13.0077   17.8376 N   0  0  0  0  0  0  0  0  0  0  0  0
    7.3523  -13.6073   18.8068 C   0  0  1  0  0  0  0  0  0  0  0  0
    6.9257  -14.9911   18.3718 C   0  0  0  0  0  0  0  0  0  0  0  0
    8.3183  -16.1274   18.2733 S   0  0  0  0  0  0  0  0  0  0  0  0
    8.0759  -13.6959   20.1054 C   0  0  0  0  0  0  0  0  0  0  0  0
    9.3236  -13.5358   20.1731 O   0  0  0  0  0  0  0  0  0  0  0  0
    7.3986  -13.9635   21.3234 N   0  0  0  0  0  0  0  0  0  0  0  0
    8.1293  -14.0384   22.6141 C   0  0  1  0  0  0  0  0  0  0  0  0
    7.2066  -13.5394   23.7046 C   0  0  0  0  0  0  0  0  0  0  0  0
    7.7308  -14.0203   25.3566 S   0  0  0  0  0  0  0  0  0  0  0  0
    8.6062  -15.4242   22.8281 C   0  0  0  0  0  0  0  0  0  0  0  0
    7.8178  -16.3817   22.4888 O   0  0  0  0  0  0  0  0  0  0  0  0
    9.8674  -15.7372   23.3770 N   0  0  0  0  0  0  0  0  0  0  0  0
   10.2683  -17.1008   23.6523 C   0  0  1  0  0  0  0  0  0  0  0  0
   11.6104  -17.4448   23.0604 C   0  0  0  0  0  0  0  0  0  0  0  0
   11.4696  -17.1971   21.2553 S   0  0  0  0  0  0  0  0  0  0  0  0
   10.3716  -17.2869   25.1209 C   0  0  0  0  0  0  0  0  0  0  0  0
   10.0987  -16.3387   25.8951 O   0  0  0  0  0  0  0  0  0  0  0  0
   10.7637  -18.4842   25.6895 O   0  0  0  0  0  0  0  0  0  0  0  0
  2  3  1  0
  2  1  1  6
  3  4  1  0
  5  2  1  0
  5  6  2  0
  7  5  1  0
  8  7  1  0
  9 10  1  0
  8  9  1  1
 11  8  1  0
 11 13  1  0
 12 11  2  0
 14 13  1  0
 14 17  1  0
 14 15  1  6
 16 15  1  0
 17 18  2  0
 17 19  1  0
M  END
$$$$
