CCC.pdb
     RDKit          3D

 19 18  0  0  1  0  0  0  0  0999 V2000
    9.0006  -14.3514   18.9667 N   0  0  0  0  0  0  0  0  0  0  0  0
    9.9646  -14.7138   19.9867 C   0  0  1  0  0  0  0  0  0  0  0  0
   11.1134  -13.7315   20.0247 C   0  0  0  0  0  0  0  0  0  0  0  0
   12.3934  -14.1426   18.8278 S   0  0  0  0  0  0  0  0  0  0  0  0
    9.2641  -14.7099   21.3008 C   0  0  0  0  0  0  0  0  0  0  0  0
    8.4660  -13.7875   21.6157 O   0  0  0  0  0  0  0  0  0  0  0  0
    9.4605  -15.7397   22.2573 N   0  0  0  0  0  0  0  0  0  0  0  0
    8.7870  -15.7048   23.5804 C   0  0  1  0  0  0  0  0  0  0  0  0
    7.8732  -16.9072   23.6731 C   0  0  0  0  0  0  0  0  0  0  0  0
    7.1072  -17.0970   25.2894 S   0  0  0  0  0  0  0  0  0  0  0  0
    9.8100  -15.6528   24.6503 C   0  0  0  0  0  0  0  0  0  0  0  0
   10.8864  -16.3341   24.4751 O   0  0  0  0  0  0  0  0  0  0  0  0
    9.6607  -14.9000   25.8338 N   0  0  0  0  0  0  0  0  0  0  0  0
   10.5950  -15.0062   26.9347 C   0  0  1  0  0  0  0  0  0  0  0  0
   10.5349  -13.8239   27.8666 C   0  0  0  0  0  0  0  0  0  0  0  0
    8.7663  -13.4993   28.1931 S   0  0  0  0  0  0  0  0  0  0  0  0
   10.2675  -16.2145   27.7314 C   0  0  0  0  0  0  0  0  0  0  0  0
    9.2141  -16.8540   27.4987 O   0  0  0  0  0  0  0  0  0  0  0  0
   11.0881  -16.6797   28.7418 O   0  0  0  0  0  0  0  0  0  0  0  0
  2  3  1  0
  2  1  1  6
  3  4  1  0
  5  2  1  0
  5  6  2  0
  7  5  1  0
  8  7  1  0
  9 10  1  0
  8  9  1  1
 11  8  1  0
 11 13  1  0
 12 11  2  0
 14 13  1  0
 14 17  1  0
 14 15  1  1
 16 15  1  0
 17 18  2  0
 17 19  1  0
M  END
$$$$
