CCC.pdb
     RDKit          3D

 19 18  0  0  1  0  0  0  0  0999 V2000
    9.3552  -15.1819   13.6714 N   0  0  0  0  0  0  0  0  0  0  0  0
    9.7682  -16.1376   14.6799 C   0  0  1  0  0  0  0  0  0  0  0  0
   11.0316  -16.8568   14.2646 C   0  0  0  0  0  0  0  0  0  0  0  0
   11.6476  -17.9430   15.5611 S   0  0  0  0  0  0  0  0  0  0  0  0
   10.0146  -15.3909   15.9446 C   0  0  0  0  0  0  0  0  0  0  0  0
   10.7626  -14.3777   15.9728 O   0  0  0  0  0  0  0  0  0  0  0  0
    9.4218  -15.7824   17.1732 N   0  0  0  0  0  0  0  0  0  0  0  0
    9.7539  -15.0935   18.4462 C   0  0  1  0  0  0  0  0  0  0  0  0
    8.5898  -15.2758   19.3954 C   0  0  0  0  0  0  0  0  0  0  0  0
    8.9387  -14.7118   21.0673 S   0  0  0  0  0  0  0  0  0  0  0  0
   11.0350  -15.6212   18.9697 C   0  0  0  0  0  0  0  0  0  0  0  0
   11.2404  -16.8866   18.8690 O   0  0  0  0  0  0  0  0  0  0  0  0
   12.0260  -14.8113   19.5629 N   0  0  0  0  0  0  0  0  0  0  0  0
   13.2985  -15.3484   19.9969 C   0  0  1  0  0  0  0  0  0  0  0  0
   14.4315  -14.3693   19.8316 C   0  0  0  0  0  0  0  0  0  0  0  0
   14.6830  -14.1525   18.0345 S   0  0  0  0  0  0  0  0  0  0  0  0
   13.2133  -15.6870   21.4392 C   0  0  0  0  0  0  0  0  0  0  0  0
   14.2051  -16.1784   22.0289 O   0  0  0  0  0  0  0  0  0  0  0  0
   12.0652  -15.4817   22.1811 O   0  0  0  0  0  0  0  0  0  0  0  0
  2  3  1  0
  2  1  1  6
  3  4  1  0
  5  2  1  0
  5  6  2  0
  7  5  1  0
  8  7  1  0
  9 10  1  0
  8  9  1  1
 11  8  1  0
 11 13  1  0
 12 11  2  0
 14 13  1  0
 14 17  1  0
 14 15  1  1
 16 15  1  0
 17 18  2  0
 17 19  1  0
M  END
$$$$
