CCC.pdb
     RDKit          3D

 19 18  0  0  1  0  0  0  0  0999 V2000
    6.3904  -17.2758   20.8956 N   0  0  0  0  0  0  0  0  0  0  0  0
    6.1234  -17.6465   22.2712 C   0  0  1  0  0  0  0  0  0  0  0  0
    6.1605  -19.1476   22.4484 C   0  0  0  0  0  0  0  0  0  0  0  0
    4.9912  -19.7093   23.6963 S   0  0  0  0  0  0  0  0  0  0  0  0
    7.1698  -17.0196   23.1256 C   0  0  0  0  0  0  0  0  0  0  0  0
    8.3671  -16.9384   22.7426 O   0  0  0  0  0  0  0  0  0  0  0  0
    6.8704  -16.4859   24.4060 N   0  0  0  0  0  0  0  0  0  0  0  0
    7.9414  -15.9853   25.3047 C   0  0  1  0  0  0  0  0  0  0  0  0
    7.3202  -15.0006   26.2711 C   0  0  0  0  0  0  0  0  0  0  0  0
    5.8926  -14.1415   25.5935 S   0  0  0  0  0  0  0  0  0  0  0  0
    8.6009  -17.1332   25.9689 C   0  0  0  0  0  0  0  0  0  0  0  0
    7.8486  -18.0886   26.3869 O   0  0  0  0  0  0  0  0  0  0  0  0
    9.9955  -17.2260   26.1593 N   0  0  0  0  0  0  0  0  0  0  0  0
   10.6133  -18.3910   26.7568 C   0  0  1  0  0  0  0  0  0  0  0  0
   12.0385  -18.5891   26.3100 C   0  0  0  0  0  0  0  0  0  0  0  0
   12.6642  -20.0674   27.1834 S   0  0  0  0  0  0  0  0  0  0  0  0
   10.6310  -18.2257   28.2314 C   0  0  0  0  0  0  0  0  0  0  0  0
   10.4071  -17.1016   28.7404 O   0  0  0  0  0  0  0  0  0  0  0  0
   10.8887  -19.2771   29.0910 O   0  0  0  0  0  0  0  0  0  0  0  0
  2  3  1  0
  2  1  1  6
  3  4  1  0
  5  2  1  0
  5  6  2  0
  7  5  1  0
  8  7  1  0
  9 10  1  0
  8  9  1  1
 11  8  1  0
 11 13  1  0
 12 11  2  0
 14 13  1  0
 14 17  1  0
 14 15  1  6
 16 15  1  0
 17 18  2  0
 17 19  1  0
M  END
$$$$
