CCC.pdb
     RDKit          3D

 19 18  0  0  1  0  0  0  0  0999 V2000
    7.6637  -17.1298   21.2699 N   0  0  0  0  0  0  0  0  0  0  0  0
    8.6743  -16.1155   21.0443 C   0  0  1  0  0  0  0  0  0  0  0  0
    8.2731  -15.1865   19.9210 C   0  0  0  0  0  0  0  0  0  0  0  0
    6.6247  -14.5053   20.1640 S   0  0  0  0  0  0  0  0  0  0  0  0
    8.8286  -15.3350   22.3032 C   0  0  0  0  0  0  0  0  0  0  0  0
    9.7115  -14.4438   22.4182 O   0  0  0  0  0  0  0  0  0  0  0  0
    7.9930  -15.5561   23.4287 N   0  0  0  0  0  0  0  0  0  0  0  0
    8.1125  -14.7274   24.6552 C   0  0  1  0  0  0  0  0  0  0  0  0
    6.7610  -14.6986   25.3350 C   0  0  0  0  0  0  0  0  0  0  0  0
    6.5457  -13.2904   26.4329 S   0  0  0  0  0  0  0  0  0  0  0  0
    9.1951  -15.2684   25.5091 C   0  0  0  0  0  0  0  0  0  0  0  0
    9.6052  -16.4617   25.2617 O   0  0  0  0  0  0  0  0  0  0  0  0
    9.7893  -14.5447   26.5641 N   0  0  0  0  0  0  0  0  0  0  0  0
   10.8691  -15.0919   27.3582 C   0  0  1  0  0  0  0  0  0  0  0  0
   11.3996  -14.1137   28.3740 C   0  0  0  0  0  0  0  0  0  0  0  0
    9.9477  -13.3686   29.1967 S   0  0  0  0  0  0  0  0  0  0  0  0
   10.3703  -16.2751   28.1020 C   0  0  0  0  0  0  0  0  0  0  0  0
   11.1688  -16.9910   28.7522 O   0  0  0  0  0  0  0  0  0  0  0  0
    9.0355  -16.6341   28.1125 O   0  0  0  0  0  0  0  0  0  0  0  0
  2  3  1  0
  2  1  1  1
  3  4  1  0
  5  2  1  0
  5  6  2  0
  7  5  1  0
  8  7  1  0
  9 10  1  0
  8  9  1  1
 11  8  1  0
 11 13  1  0
 12 11  2  0
 14 13  1  0
 14 17  1  0
 14 15  1  1
 16 15  1  0
 17 18  2  0
 17 19  1  0
M  END
$$$$
