CCC.pdb
     RDKit          3D

 19 18  0  0  1  0  0  0  0  0999 V2000
    6.3382  -19.0661   12.7818 N   0  0  0  0  0  0  0  0  0  0  0  0
    5.8036  -19.9931   13.7596 C   0  0  1  0  0  0  0  0  0  0  0  0
    6.1483  -21.4212   13.4024 C   0  0  0  0  0  0  0  0  0  0  0  0
    5.8889  -21.7615   11.6540 S   0  0  0  0  0  0  0  0  0  0  0  0
    6.3968  -19.6551   15.0831 C   0  0  0  0  0  0  0  0  0  0  0  0
    7.4015  -18.9010   15.1781 O   0  0  0  0  0  0  0  0  0  0  0  0
    5.8620  -20.1632   16.2954 N   0  0  0  0  0  0  0  0  0  0  0  0
    6.3988  -19.7415   17.6142 C   0  0  1  0  0  0  0  0  0  0  0  0
    5.3695  -20.0815   18.6698 C   0  0  0  0  0  0  0  0  0  0  0  0
    3.6905  -19.6460   18.1939 S   0  0  0  0  0  0  0  0  0  0  0  0
    7.7134  -20.3862   17.8376 C   0  0  0  0  0  0  0  0  0  0  0  0
    8.0991  -21.2603   16.9769 O   0  0  0  0  0  0  0  0  0  0  0  0
    8.5501  -20.0885   18.9336 N   0  0  0  0  0  0  0  0  0  0  0  0
    9.9916  -20.1942   18.8505 C   0  0  1  0  0  0  0  0  0  0  0  0
   10.5919  -19.2224   17.8682 C   0  0  0  0  0  0  0  0  0  0  0  0
   12.3984  -19.4983   17.8907 S   0  0  0  0  0  0  0  0  0  0  0  0
   10.5754  -19.8952   20.1816 C   0  0  0  0  0  0  0  0  0  0  0  0
   11.2014  -20.7839   20.8071 O   0  0  0  0  0  0  0  0  0  0  0  0
   10.4592  -18.6541   20.7789 O   0  0  0  0  0  0  0  0  0  0  0  0
  2  3  1  0
  2  1  1  6
  3  4  1  0
  5  2  1  0
  5  6  2  0
  7  5  1  0
  8  7  1  0
  9 10  1  0
  8  9  1  1
 11  8  1  0
 11 13  1  0
 12 11  2  0
 14 13  1  0
 14 17  1  0
 14 15  1  6
 16 15  1  0
 17 18  2  0
 17 19  1  0
M  END
$$$$
