CCC.pdb
     RDKit          3D

 19 18  0  0  1  0  0  0  0  0999 V2000
    8.2368  -15.4291   17.5051 N   0  0  0  0  0  0  0  0  0  0  0  0
    8.5420  -14.5832   18.6419 C   0  0  1  0  0  0  0  0  0  0  0  0
    7.9487  -13.2032   18.4695 C   0  0  0  0  0  0  0  0  0  0  0  0
    8.1935  -12.1760   19.9272 S   0  0  0  0  0  0  0  0  0  0  0  0
    7.9658  -15.2234   19.8567 C   0  0  0  0  0  0  0  0  0  0  0  0
    6.8414  -15.7907   19.8283 O   0  0  0  0  0  0  0  0  0  0  0  0
    8.6517  -15.2255   21.0991 N   0  0  0  0  0  0  0  0  0  0  0  0
    8.0926  -15.9145   22.2899 C   0  0  1  0  0  0  0  0  0  0  0  0
    8.6273  -17.3298   22.3066 C   0  0  0  0  0  0  0  0  0  0  0  0
    8.0812  -18.2809   23.7322 S   0  0  0  0  0  0  0  0  0  0  0  0
    8.4267  -15.1393   23.5070 C   0  0  0  0  0  0  0  0  0  0  0  0
    9.6287  -14.6959   23.6162 O   0  0  0  0  0  0  0  0  0  0  0  0
    7.5001  -14.8675   24.5353 N   0  0  0  0  0  0  0  0  0  0  0  0
    7.8796  -14.1720   25.7470 C   0  0  1  0  0  0  0  0  0  0  0  0
    6.6924  -13.6757   26.5307 C   0  0  0  0  0  0  0  0  0  0  0  0
    5.7991  -12.5043   25.4492 S   0  0  0  0  0  0  0  0  0  0  0  0
    8.6304  -15.1042   26.6242 C   0  0  0  0  0  0  0  0  0  0  0  0
    8.7658  -16.3063   26.2937 O   0  0  0  0  0  0  0  0  0  0  0  0
    9.2011  -14.7006   27.8167 O   0  0  0  0  0  0  0  0  0  0  0  0
  2  3  1  0
  2  1  1  6
  3  4  1  0
  5  2  1  0
  5  6  2  0
  7  5  1  0
  8  7  1  0
  9 10  1  0
  8  9  1  1
 11  8  1  0
 11 13  1  0
 12 11  2  0
 14 13  1  0
 14 17  1  0
 14 15  1  1
 16 15  1  0
 17 18  2  0
 17 19  1  0
M  END
$$$$
