KQD.pdb
     RDKit          3D

 27 26  0  0  1  0  0  0  0  0999 V2000
    8.2584  -17.4806   19.1043 N   0  0  0  0  0  0  0  0  0  0  0  0
    9.5317  -16.7932   19.2178 C   0  0  1  0  0  0  0  0  0  0  0  0
    9.2973  -15.5810   20.1013 C   0  0  0  0  0  0  0  0  0  0  0  0
    8.3511  -14.6066   19.4408 C   0  0  0  0  0  0  0  0  0  0  0  0
    8.0248  -13.4351   20.3246 C   0  0  0  0  0  0  0  0  0  0  0  0
    7.1363  -12.4228   19.6488 C   0  0  0  0  0  0  0  0  0  0  0  0
    6.7596  -11.4436   20.6560 N   0  0  0  0  0  0  0  0  0  0  0  0
   10.5330  -17.7103   19.8134 C   0  0  0  0  0  0  0  0  0  0  0  0
   10.0657  -18.6432   20.5456 O   0  0  0  0  0  0  0  0  0  0  0  0
   16.0546  -20.0181   18.1062 N   0  0  0  0  0  0  0  0  0  0  0  0
   14.8892  -19.8257   17.3083 C   0  0  0  0  0  0  0  0  0  0  0  0
   14.8013  -20.3343   16.1451 O   0  0  0  0  0  0  0  0  0  0  0  0
   13.7917  -19.0186   17.8926 C   0  0  0  0  0  0  0  0  0  0  0  0
   14.0097  -18.6052   19.2887 C   0  0  0  0  0  0  0  0  0  0  0  0
   12.8744  -18.5304   20.2231 C   0  0  2  0  0  0  0  0  0  0  0  0
   11.9077  -17.5956   19.6112 N   0  0  0  0  0  0  0  0  0  0  0  0
   13.0784  -18.2361   21.6181 C   0  0  0  0  0  0  0  0  0  0  0  0
   13.2850  -17.0987   22.1176 O   0  0  0  0  0  0  0  0  0  0  0  0
   13.0490  -19.3242   22.5560 N   0  0  0  0  0  0  0  0  0  0  0  0
   13.1215  -19.0141   24.0019 C   0  0  1  0  0  0  0  0  0  0  0  0
   12.1732  -19.9101   24.7271 C   0  0  0  0  0  0  0  0  0  0  0  0
   12.2389  -19.8201   26.2006 C   0  0  0  0  0  0  0  0  0  0  0  0
   13.2308  -20.3374   26.7966 O   0  0  0  0  0  0  0  0  0  0  0  0
   14.5143  -19.3792   24.4109 C   0  0  0  0  0  0  0  0  0  0  0  0
   15.4334  -19.9268   23.5305 O   0  0  0  0  0  0  0  0  0  0  0  0
   11.2937  -19.2100   27.0079 O   0  0  0  0  0  0  0  0  0  0  0  0
   14.8765  -19.1886   25.5885 O   0  0  0  0  0  0  0  0  0  0  0  0
  2  1  1  1
  3  2  1  0
  4  3  1  0
  5  4  1  0
  6  5  1  0
  7  6  1  0
  8 16  1  0
  8  2  1  0
  9  8  2  0
 10 11  1  0
 11 12  2  0
 11 13  1  0
 13 14  1  0
 15 14  1  6
 15 16  1  0
 15 17  1  0
 17 18  2  0
 19 17  1  0
 19 20  1  0
 20 21  1  1
 21 22  1  0
 22 26  1  0
 23 22  2  0
 24 20  1  0
 24 25  1  0
 27 24  2  0
M  END
$$$$
