KQD.pdb
     RDKit          3D

 27 26  0  0  1  0  0  0  0  0999 V2000
   10.4925  -14.2415   19.5376 N   0  0  0  0  0  0  0  0  0  0  0  0
    9.2124  -14.4265   20.1963 C   0  0  1  0  0  0  0  0  0  0  0  0
    8.5750  -15.6570   19.5763 C   0  0  0  0  0  0  0  0  0  0  0  0
    8.4691  -15.5125   18.0767 C   0  0  0  0  0  0  0  0  0  0  0  0
    7.7470  -14.2579   17.6709 C   0  0  0  0  0  0  0  0  0  0  0  0
    7.5430  -14.1569   16.1812 C   0  0  0  0  0  0  0  0  0  0  0  0
    6.8648  -12.8959   15.9265 N   0  0  0  0  0  0  0  0  0  0  0  0
    9.4310  -14.6064   21.6517 C   0  0  0  0  0  0  0  0  0  0  0  0
   10.5882  -15.0179   21.9930 O   0  0  0  0  0  0  0  0  0  0  0  0
    5.8421  -11.9933   25.8560 N   0  0  0  0  0  0  0  0  0  0  0  0
    6.6587  -12.7080   26.7801 C   0  0  0  0  0  0  0  0  0  0  0  0
    6.5354  -12.5323   28.0344 O   0  0  0  0  0  0  0  0  0  0  0  0
    7.6451  -13.6615   26.2185 C   0  0  0  0  0  0  0  0  0  0  0  0
    7.7095  -13.6832   24.7479 C   0  0  0  0  0  0  0  0  0  0  0  0
    8.7342  -14.4901   24.0649 C   0  0  2  0  0  0  0  0  0  0  0  0
    8.4600  -14.3532   22.6196 N   0  0  0  0  0  0  0  0  0  0  0  0
    8.9613  -15.8652   24.4283 C   0  0  0  0  0  0  0  0  0  0  0  0
    8.2955  -16.8595   24.0361 O   0  0  0  0  0  0  0  0  0  0  0  0
   10.0449  -16.1641   25.3232 N   0  0  0  0  0  0  0  0  0  0  0  0
   10.2898  -17.5772   25.6906 C   0  0  1  0  0  0  0  0  0  0  0  0
   11.7502  -17.8555   25.5572 C   0  0  0  0  0  0  0  0  0  0  0  0
   12.2983  -17.6549   24.1996 C   0  0  0  0  0  0  0  0  0  0  0  0
   13.2779  -16.8643   24.0513 O   0  0  0  0  0  0  0  0  0  0  0  0
    9.9265  -17.6733   27.1394 C   0  0  0  0  0  0  0  0  0  0  0  0
    9.9740  -18.8646   27.8453 O   0  0  0  0  0  0  0  0  0  0  0  0
   11.8275  -18.2640   23.0486 O   0  0  0  0  0  0  0  0  0  0  0  0
    9.5644  -16.6480   27.7493 O   0  0  0  0  0  0  0  0  0  0  0  0
  2  1  1  6
  3  2  1  0
  4  3  1  0
  5  4  1  0
  6  5  1  0
  7  6  1  0
  8 16  1  0
  8  2  1  0
  9  8  2  0
 10 11  1  0
 11 12  2  0
 11 13  1  0
 13 14  1  0
 15 14  1  1
 15 16  1  0
 15 17  1  0
 17 18  2  0
 19 17  1  0
 19 20  1  0
 20 21  1  1
 21 22  1  0
 22 26  1  0
 23 22  2  0
 24 20  1  0
 24 25  1  0
 27 24  2  0
M  END
$$$$
