KQD.pdb
     RDKit          3D

 27 26  0  0  1  0  0  0  0  0999 V2000
    9.2915  -14.1192   17.1879 N   0  0  0  0  0  0  0  0  0  0  0  0
    8.5346  -15.3238   17.4750 C   0  0  1  0  0  0  0  0  0  0  0  0
    7.6674  -15.5961   16.2590 C   0  0  0  0  0  0  0  0  0  0  0  0
    8.1385  -14.7935   15.0696 C   0  0  0  0  0  0  0  0  0  0  0  0
    7.3073  -15.0448   13.8424 C   0  0  0  0  0  0  0  0  0  0  0  0
    7.7690  -14.2467   12.6503 C   0  0  0  0  0  0  0  0  0  0  0  0
    6.9361  -14.6382   11.5243 N   0  0  0  0  0  0  0  0  0  0  0  0
    9.4725  -16.4432   17.7313 C   0  0  0  0  0  0  0  0  0  0  0  0
    8.9377  -17.5865   17.9096 O   0  0  0  0  0  0  0  0  0  0  0  0
   14.2783  -17.8522   14.5056 N   0  0  0  0  0  0  0  0  0  0  0  0
   13.7595  -16.5724   14.8586 C   0  0  0  0  0  0  0  0  0  0  0  0
   14.2500  -15.5080   14.3629 O   0  0  0  0  0  0  0  0  0  0  0  0
   12.6285  -16.5387   15.8163 C   0  0  0  0  0  0  0  0  0  0  0  0
   12.8289  -17.3451   17.0316 C   0  0  0  0  0  0  0  0  0  0  0  0
   11.7604  -17.4399   18.0400 C   0  0  2  0  0  0  0  0  0  0  0  0
   10.8583  -16.2986   17.7823 N   0  0  0  0  0  0  0  0  0  0  0  0
   12.0698  -17.5585   19.4417 C   0  0  0  0  0  0  0  0  0  0  0  0
   12.8530  -16.8217   20.0971 O   0  0  0  0  0  0  0  0  0  0  0  0
   11.4399  -18.6091   20.1926 N   0  0  0  0  0  0  0  0  0  0  0  0
   11.7544  -18.7350   21.6338 C   0  0  1  0  0  0  0  0  0  0  0  0
   10.7055  -19.5809   22.2758 C   0  0  0  0  0  0  0  0  0  0  0  0
   10.8776  -19.7854   23.7292 C   0  0  0  0  0  0  0  0  0  0  0  0
   11.8318  -19.1929   24.3167 O   0  0  0  0  0  0  0  0  0  0  0  0
   13.0520  -19.4793   21.6875 C   0  0  0  0  0  0  0  0  0  0  0  0
   13.6280  -20.0605   20.5693 O   0  0  0  0  0  0  0  0  0  0  0  0
   10.0746  -20.5846   24.5254 O   0  0  0  0  0  0  0  0  0  0  0  0
   13.6504  -19.5891   22.7756 O   0  0  0  0  0  0  0  0  0  0  0  0
  2  1  1  6
  3  2  1  0
  4  3  1  0
  5  4  1  0
  6  5  1  0
  7  6  1  0
  8 16  1  0
  8  2  1  0
  9  8  2  0
 10 11  1  0
 11 12  2  0
 11 13  1  0
 13 14  1  0
 15 14  1  6
 15 16  1  0
 15 17  1  0
 17 18  2  0
 19 17  1  0
 19 20  1  0
 20 21  1  1
 21 22  1  0
 22 26  1  0
 23 22  2  0
 24 20  1  0
 24 25  1  0
 27 24  2  0
M  END
$$$$
