KQD.pdb
     RDKit          3D

 27 26  0  0  1  0  0  0  0  0999 V2000
    9.1806  -16.3788   15.0482 N   0  0  0  0  0  0  0  0  0  0  0  0
    8.2444  -16.7011   16.1095 C   0  0  1  0  0  0  0  0  0  0  0  0
    8.3605  -18.1945   16.3570 C   0  0  0  0  0  0  0  0  0  0  0  0
    7.2176  -18.9393   15.7089 C   0  0  0  0  0  0  0  0  0  0  0  0
    7.3197  -20.4268   15.9015 C   0  0  0  0  0  0  0  0  0  0  0  0
    6.2468  -21.1864   15.1648 C   0  0  0  0  0  0  0  0  0  0  0  0
    6.4678  -22.6001   15.4249 N   0  0  0  0  0  0  0  0  0  0  0  0
    8.5921  -15.9237   17.3232 C   0  0  0  0  0  0  0  0  0  0  0  0
    9.6107  -15.1637   17.2233 O   0  0  0  0  0  0  0  0  0  0  0  0
    7.6425  -12.1898   20.2092 N   0  0  0  0  0  0  0  0  0  0  0  0
    7.2845  -12.6977   21.4920 C   0  0  0  0  0  0  0  0  0  0  0  0
    7.4034  -11.9804   22.5363 O   0  0  0  0  0  0  0  0  0  0  0  0
    6.7662  -14.0853   21.5525 C   0  0  0  0  0  0  0  0  0  0  0  0
    6.8404  -14.8244   20.2815 C   0  0  0  0  0  0  0  0  0  0  0  0
    8.1453  -15.0756   19.6478 C   0  0  2  0  0  0  0  0  0  0  0  0
    7.8774  -15.9897   18.5185 N   0  0  0  0  0  0  0  0  0  0  0  0
    9.2756  -15.5170   20.4238 C   0  0  0  0  0  0  0  0  0  0  0  0
   10.1230  -14.7793   20.9928 O   0  0  0  0  0  0  0  0  0  0  0  0
    9.4838  -16.9297   20.5828 N   0  0  0  0  0  0  0  0  0  0  0  0
   10.6135  -17.3882   21.4227 C   0  0  1  0  0  0  0  0  0  0  0  0
   11.5575  -16.2475   21.6113 C   0  0  0  0  0  0  0  0  0  0  0  0
   12.7665  -16.5669   22.3988 C   0  0  0  0  0  0  0  0  0  0  0  0
   12.6319  -17.2061   23.4851 O   0  0  0  0  0  0  0  0  0  0  0  0
   10.0057  -17.7158   22.7508 C   0  0  0  0  0  0  0  0  0  0  0  0
    8.6700  -17.4870   23.0393 O   0  0  0  0  0  0  0  0  0  0  0  0
   14.0619  -16.2222   22.0515 O   0  0  0  0  0  0  0  0  0  0  0  0
   10.7180  -18.2154   23.6437 O   0  0  0  0  0  0  0  0  0  0  0  0
  2  1  1  6
  3  2  1  0
  4  3  1  0
  5  4  1  0
  6  5  1  0
  7  6  1  0
  8 16  1  0
  8  2  1  0
  9  8  2  0
 10 11  1  0
 11 12  2  0
 11 13  1  0
 13 14  1  0
 15 14  1  1
 15 16  1  0
 15 17  1  0
 17 18  2  0
 19 17  1  0
 19 20  1  0
 20 21  1  1
 21 22  1  0
 22 26  1  0
 23 22  2  0
 24 20  1  0
 24 25  1  0
 27 24  2  0
M  END
$$$$
