KQD.pdb
     RDKit          3D

 27 26  0  0  1  0  0  0  0  0999 V2000
    6.9882  -15.4362   20.4902 N   0  0  0  0  0  0  0  0  0  0  0  0
    8.3129  -14.8432   20.5060 C   0  0  1  0  0  0  0  0  0  0  0  0
    8.2005  -13.5020   19.8036 C   0  0  0  0  0  0  0  0  0  0  0  0
    7.4027  -13.6264   18.5273 C   0  0  0  0  0  0  0  0  0  0  0  0
    8.1690  -13.1536   17.3234 C   0  0  0  0  0  0  0  0  0  0  0  0
    8.1126  -14.1279   16.1751 C   0  0  0  0  0  0  0  0  0  0  0  0
    8.7388  -13.4806   15.0333 N   0  0  0  0  0  0  0  0  0  0  0  0
    8.7615  -14.6819   21.9100 C   0  0  0  0  0  0  0  0  0  0  0  0
    9.9262  -14.1886   22.0679 O   0  0  0  0  0  0  0  0  0  0  0  0
    5.5631  -13.5023   26.9588 N   0  0  0  0  0  0  0  0  0  0  0  0
    6.4015  -12.5106   26.3711 C   0  0  0  0  0  0  0  0  0  0  0  0
    6.2463  -11.2773   26.6434 O   0  0  0  0  0  0  0  0  0  0  0  0
    7.4572  -12.9781   25.4412 C   0  0  0  0  0  0  0  0  0  0  0  0
    7.4958  -14.4358   25.2391 C   0  0  0  0  0  0  0  0  0  0  0  0
    8.5370  -15.0367   24.3892 C   0  0  2  0  0  0  0  0  0  0  0  0
    7.9902  -15.0343   23.0167 N   0  0  0  0  0  0  0  0  0  0  0  0
    9.1217  -16.3110   24.7192 C   0  0  0  0  0  0  0  0  0  0  0  0
    8.6320  -17.4435   24.4672 O   0  0  0  0  0  0  0  0  0  0  0  0
   10.3857  -16.3250   25.4022 N   0  0  0  0  0  0  0  0  0  0  0  0
   11.0135  -17.6319   25.7018 C   0  0  1  0  0  0  0  0  0  0  0  0
   12.4834  -17.5160   25.4699 C   0  0  0  0  0  0  0  0  0  0  0  0
   12.8665  -17.1459   24.0915 C   0  0  0  0  0  0  0  0  0  0  0  0
   12.4965  -17.8939   23.1373 O   0  0  0  0  0  0  0  0  0  0  0  0
   10.7872  -17.8482   27.1655 C   0  0  0  0  0  0  0  0  0  0  0  0
   11.2060  -18.9917   27.8264 O   0  0  0  0  0  0  0  0  0  0  0  0
   13.6110  -16.0328   23.7394 O   0  0  0  0  0  0  0  0  0  0  0  0
   10.1994  -16.9725   27.8303 O   0  0  0  0  0  0  0  0  0  0  0  0
  2  1  1  1
  3  2  1  0
  4  3  1  0
  5  4  1  0
  6  5  1  0
  7  6  1  0
  8 16  1  0
  8  2  1  0
  9  8  2  0
 10 11  1  0
 11 12  2  0
 11 13  1  0
 13 14  1  0
 15 14  1  1
 15 16  1  0
 15 17  1  0
 17 18  2  0
 19 17  1  0
 19 20  1  0
 20 21  1  1
 21 22  1  0
 22 26  1  0
 23 22  2  0
 24 20  1  0
 24 25  1  0
 27 24  2  0
M  END
$$$$
