KQD.pdb
     RDKit          3D

 27 26  0  0  1  0  0  0  0  0999 V2000
    7.2041  -15.9489   19.7403 N   0  0  0  0  0  0  0  0  0  0  0  0
    8.4429  -15.2122   19.9114 C   0  0  1  0  0  0  0  0  0  0  0  0
    8.3475  -13.9837   19.0245 C   0  0  0  0  0  0  0  0  0  0  0  0
    7.6127  -14.2987   17.7432 C   0  0  0  0  0  0  0  0  0  0  0  0
    8.0498  -13.4240   16.6013 C   0  0  0  0  0  0  0  0  0  0  0  0
    7.2254  -13.6320   15.3571 C   0  0  0  0  0  0  0  0  0  0  0  0
    7.6790  -12.6596   14.3754 N   0  0  0  0  0  0  0  0  0  0  0  0
    8.5982  -14.8382   21.3377 C   0  0  0  0  0  0  0  0  0  0  0  0
    9.6542  -14.1863   21.6293 O   0  0  0  0  0  0  0  0  0  0  0  0
    6.7077  -12.1094   25.4832 N   0  0  0  0  0  0  0  0  0  0  0  0
    6.6835  -13.1783   26.4258 C   0  0  0  0  0  0  0  0  0  0  0  0
    6.6953  -12.9478   27.6772 O   0  0  0  0  0  0  0  0  0  0  0  0
    6.6382  -14.5584   25.8865 C   0  0  0  0  0  0  0  0  0  0  0  0
    6.7166  -14.6471   24.4191 C   0  0  0  0  0  0  0  0  0  0  0  0
    7.9816  -15.0260   23.7682 C   0  0  2  0  0  0  0  0  0  0  0  0
    7.6724  -15.1589   22.3296 N   0  0  0  0  0  0  0  0  0  0  0  0
    8.7567  -16.1428   24.2440 C   0  0  0  0  0  0  0  0  0  0  0  0
    8.5308  -17.3598   24.0121 O   0  0  0  0  0  0  0  0  0  0  0  0
    9.9051  -15.8755   25.0651 N   0  0  0  0  0  0  0  0  0  0  0  0
   10.7745  -17.0083   25.4559 C   0  0  1  0  0  0  0  0  0  0  0  0
   12.1876  -16.6564   25.1285 C   0  0  0  0  0  0  0  0  0  0  0  0
   13.1896  -17.6572   25.5504 C   0  0  0  0  0  0  0  0  0  0  0  0
   12.7980  -18.8330   25.8169 O   0  0  0  0  0  0  0  0  0  0  0  0
   10.6495  -17.1018   26.9446 C   0  0  0  0  0  0  0  0  0  0  0  0
   11.0832  -18.2036   27.6641 O   0  0  0  0  0  0  0  0  0  0  0  0
   14.5474  -17.4221   25.6861 O   0  0  0  0  0  0  0  0  0  0  0  0
   10.1363  -16.1576   27.5766 O   0  0  0  0  0  0  0  0  0  0  0  0
  2  1  1  1
  3  2  1  0
  4  3  1  0
  5  4  1  0
  6  5  1  0
  7  6  1  0
  8 16  1  0
  8  2  1  0
  9  8  2  0
 10 11  1  0
 11 12  2  0
 11 13  1  0
 13 14  1  0
 15 14  1  1
 15 16  1  0
 15 17  1  0
 17 18  2  0
 19 17  1  0
 19 20  1  0
 20 21  1  1
 21 22  1  0
 22 26  1  0
 23 22  2  0
 24 20  1  0
 24 25  1  0
 27 24  2  0
M  END
$$$$
