KQD.pdb
     RDKit          3D

 27 26  0  0  1  0  0  0  0  0999 V2000
    8.0134  -12.6125   19.0752 N   0  0  0  0  0  0  0  0  0  0  0  0
    7.2891  -13.5461   19.9181 C   0  0  1  0  0  0  0  0  0  0  0  0
    7.2701  -14.8748   19.1838 C   0  0  0  0  0  0  0  0  0  0  0  0
    8.0084  -14.7759   17.8700 C   0  0  0  0  0  0  0  0  0  0  0  0
    7.9703  -16.0619   17.0923 C   0  0  0  0  0  0  0  0  0  0  0  0
    8.7564  -15.9920   15.8085 C   0  0  0  0  0  0  0  0  0  0  0  0
    8.6087  -17.2780   15.1455 N   0  0  0  0  0  0  0  0  0  0  0  0
    7.9774  -13.6617   21.2262 C   0  0  0  0  0  0  0  0  0  0  0  0
    9.2126  -13.3464   21.2339 O   0  0  0  0  0  0  0  0  0  0  0  0
    5.3746  -12.1800   26.3176 N   0  0  0  0  0  0  0  0  0  0  0  0
    6.5719  -12.6461   26.9349 C   0  0  0  0  0  0  0  0  0  0  0  0
    6.8004  -12.4280   28.1676 O   0  0  0  0  0  0  0  0  0  0  0  0
    7.5272  -13.3953   26.0842 C   0  0  0  0  0  0  0  0  0  0  0  0
    7.1657  -13.4521   24.6583 C   0  0  0  0  0  0  0  0  0  0  0  0
    8.0551  -14.1242   23.6966 C   0  0  2  0  0  0  0  0  0  0  0  0
    7.3513  -14.0840   22.3982 N   0  0  0  0  0  0  0  0  0  0  0  0
    8.5851  -15.4361   23.9661 C   0  0  0  0  0  0  0  0  0  0  0  0
    8.0133  -16.5335   23.7327 O   0  0  0  0  0  0  0  0  0  0  0  0
    9.8904  -15.5358   24.5583 N   0  0  0  0  0  0  0  0  0  0  0  0
   10.4395  -16.8820   24.8379 C   0  0  1  0  0  0  0  0  0  0  0  0
   11.9269  -16.8191   24.7300 C   0  0  0  0  0  0  0  0  0  0  0  0
   12.4995  -17.5807   23.6004 C   0  0  0  0  0  0  0  0  0  0  0  0
   11.7235  -18.2877   22.8898 O   0  0  0  0  0  0  0  0  0  0  0  0
   10.0862  -17.1598   26.2656 C   0  0  0  0  0  0  0  0  0  0  0  0
   10.1535  -18.4279   26.8199 O   0  0  0  0  0  0  0  0  0  0  0  0
   13.8365  -17.5944   23.2405 O   0  0  0  0  0  0  0  0  0  0  0  0
    9.7144  -16.2220   26.9981 O   0  0  0  0  0  0  0  0  0  0  0  0
  2  1  1  6
  3  2  1  0
  4  3  1  0
  5  4  1  0
  6  5  1  0
  7  6  1  0
  8 16  1  0
  8  2  1  0
  9  8  2  0
 10 11  1  0
 11 12  2  0
 11 13  1  0
 13 14  1  0
 15 14  1  1
 15 16  1  0
 15 17  1  0
 17 18  2  0
 19 17  1  0
 19 20  1  0
 20 21  1  1
 21 22  1  0
 22 26  1  0
 23 22  2  0
 24 20  1  0
 24 25  1  0
 27 24  2  0
M  END
$$$$
