KQD.pdb
     RDKit          3D

 27 26  0  0  1  0  0  0  0  0999 V2000
    7.5098  -15.4624   21.0952 N   0  0  0  0  0  0  0  0  0  0  0  0
    8.4069  -14.3215   21.0925 C   0  0  1  0  0  0  0  0  0  0  0  0
    7.6332  -13.1577   20.4993 C   0  0  0  0  0  0  0  0  0  0  0  0
    7.1563  -13.4821   19.1035 C   0  0  0  0  0  0  0  0  0  0  0  0
    8.2207  -13.2550   18.0664 C   0  0  0  0  0  0  0  0  0  0  0  0
    7.7316  -13.5039   16.6629 C   0  0  0  0  0  0  0  0  0  0  0  0
    8.8898  -13.4301   15.7864 N   0  0  0  0  0  0  0  0  0  0  0  0
    8.8371  -14.0324   22.4816 C   0  0  0  0  0  0  0  0  0  0  0  0
    9.3274  -12.8728   22.6814 O   0  0  0  0  0  0  0  0  0  0  0  0
    7.0902  -11.3757   26.7837 N   0  0  0  0  0  0  0  0  0  0  0  0
    6.1700  -12.4553   26.6445 C   0  0  0  0  0  0  0  0  0  0  0  0
    5.0398  -12.4313   27.2288 O   0  0  0  0  0  0  0  0  0  0  0  0
    6.5835  -13.5944   25.7906 C   0  0  0  0  0  0  0  0  0  0  0  0
    7.8621  -13.4016   25.0868 C   0  0  0  0  0  0  0  0  0  0  0  0
    8.8053  -14.5234   24.9475 C   0  0  2  0  0  0  0  0  0  0  0  0
    8.7300  -14.9421   23.5327 N   0  0  0  0  0  0  0  0  0  0  0  0
    8.7481  -15.6569   25.8343 C   0  0  0  0  0  0  0  0  0  0  0  0
    8.7229  -15.6184   27.0927 O   0  0  0  0  0  0  0  0  0  0  0  0
    8.7154  -16.9727   25.2579 N   0  0  0  0  0  0  0  0  0  0  0  0
    8.6539  -18.1411   26.1651 C   0  0  1  0  0  0  0  0  0  0  0  0
    8.2655  -19.3411   25.3668 C   0  0  0  0  0  0  0  0  0  0  0  0
    6.8950  -19.3021   24.8156 C   0  0  0  0  0  0  0  0  0  0  0  0
    6.1120  -18.3824   25.2001 O   0  0  0  0  0  0  0  0  0  0  0  0
   10.0572  -18.3357   26.6480 C   0  0  0  0  0  0  0  0  0  0  0  0
   10.3669  -19.1082   27.7558 O   0  0  0  0  0  0  0  0  0  0  0  0
    6.3757  -20.1999   23.8981 O   0  0  0  0  0  0  0  0  0  0  0  0
   10.9962  -17.7865   26.0390 O   0  0  0  0  0  0  0  0  0  0  0  0
  2  1  1  1
  3  2  1  0
  4  3  1  0
  5  4  1  0
  6  5  1  0
  7  6  1  0
  8 16  1  0
  8  2  1  0
  9  8  2  0
 10 11  1  0
 11 12  2  0
 11 13  1  0
 13 14  1  0
 15 14  1  1
 15 16  1  0
 15 17  1  0
 17 18  2  0
 19 17  1  0
 19 20  1  0
 20 21  1  6
 21 22  1  0
 22 26  1  0
 23 22  2  0
 24 20  1  0
 24 25  1  0
 27 24  2  0
M  END
$$$$
