KQD.pdb
     RDKit          3D

 27 26  0  0  1  0  0  0  0  0999 V2000
    9.5726  -16.3808   21.2109 N   0  0  0  0  0  0  0  0  0  0  0  0
   10.0699  -15.0946   21.6637 C   0  0  1  0  0  0  0  0  0  0  0  0
    9.7542  -14.0928   20.5676 C   0  0  0  0  0  0  0  0  0  0  0  0
    8.3828  -14.3428   19.9866 C   0  0  0  0  0  0  0  0  0  0  0  0
    8.1898  -13.6645   18.6590 C   0  0  0  0  0  0  0  0  0  0  0  0
    6.8093  -13.8727   18.0915 C   0  0  0  0  0  0  0  0  0  0  0  0
    6.7489  -13.1443   16.8342 N   0  0  0  0  0  0  0  0  0  0  0  0
    9.4023  -14.7310   22.9367 C   0  0  0  0  0  0  0  0  0  0  0  0
    8.9914  -13.5274   23.0245 O   0  0  0  0  0  0  0  0  0  0  0  0
    7.6711  -12.1497   26.0082 N   0  0  0  0  0  0  0  0  0  0  0  0
    6.4881  -12.8460   26.3921 C   0  0  0  0  0  0  0  0  0  0  0  0
    5.6838  -12.3495   27.2440 O   0  0  0  0  0  0  0  0  0  0  0  0
    6.2367  -14.1605   25.7545 C   0  0  0  0  0  0  0  0  0  0  0  0
    7.2547  -14.5720   24.7740 C   0  0  0  0  0  0  0  0  0  0  0  0
    8.4894  -15.2351   25.2248 C   0  0  2  0  0  0  0  0  0  0  0  0
    9.2150  -15.6179   23.9960 N   0  0  0  0  0  0  0  0  0  0  0  0
    8.4471  -16.3216   26.1694 C   0  0  0  0  0  0  0  0  0  0  0  0
    7.7828  -16.3542   27.2387 O   0  0  0  0  0  0  0  0  0  0  0  0
    9.2276  -17.4960   25.8935 N   0  0  0  0  0  0  0  0  0  0  0  0
    9.2499  -18.5827   26.8986 C   0  0  1  0  0  0  0  0  0  0  0  0
    9.6803  -19.8431   26.2246 C   0  0  0  0  0  0  0  0  0  0  0  0
    9.9512  -20.9732   27.1374 C   0  0  0  0  0  0  0  0  0  0  0  0
   10.9653  -21.7012   26.9177 O   0  0  0  0  0  0  0  0  0  0  0  0
   10.3130  -18.1896   27.8763 C   0  0  0  0  0  0  0  0  0  0  0  0
   10.4388  -18.7812   29.1229 O   0  0  0  0  0  0  0  0  0  0  0  0
    9.1799  -21.3182   28.2344 O   0  0  0  0  0  0  0  0  0  0  0  0
   11.1255  -17.2948   27.5706 O   0  0  0  0  0  0  0  0  0  0  0  0
  2  1  1  6
  3  2  1  0
  4  3  1  0
  5  4  1  0
  6  5  1  0
  7  6  1  0
  8 16  1  0
  8  2  1  0
  9  8  2  0
 10 11  1  0
 11 12  2  0
 11 13  1  0
 13 14  1  0
 15 14  1  6
 15 16  1  0
 15 17  1  0
 17 18  2  0
 19 17  1  0
 19 20  1  0
 20 21  1  6
 21 22  1  0
 22 26  1  0
 23 22  2  0
 24 20  1  0
 24 25  1  0
 27 24  2  0
M  END
$$$$
