KQD.pdb
     RDKit          3D

 27 26  0  0  1  0  0  0  0  0999 V2000
    5.9974  -16.3122   25.3456 N   0  0  0  0  0  0  0  0  0  0  0  0
    6.4921  -15.1640   24.6084 C   0  0  1  0  0  0  0  0  0  0  0  0
    7.0637  -14.1997   25.6322 C   0  0  0  0  0  0  0  0  0  0  0  0
    5.9898  -13.2833   26.1689 C   0  0  0  0  0  0  0  0  0  0  0  0
    6.5108  -11.9069   26.4756 C   0  0  0  0  0  0  0  0  0  0  0  0
    5.4365  -10.9716   26.9677 C   0  0  0  0  0  0  0  0  0  0  0  0
    5.1091  -11.3728   28.3266 N   0  0  0  0  0  0  0  0  0  0  0  0
    7.5294  -15.6083   23.6466 C   0  0  0  0  0  0  0  0  0  0  0  0
    8.0726  -16.7342   23.8960 O   0  0  0  0  0  0  0  0  0  0  0  0
    8.7725  -12.7676   18.2861 N   0  0  0  0  0  0  0  0  0  0  0  0
    7.7115  -13.7129   18.3971 C   0  0  0  0  0  0  0  0  0  0  0  0
    6.7587  -13.7293   17.5538 O   0  0  0  0  0  0  0  0  0  0  0  0
    7.7713  -14.6715   19.5263 C   0  0  0  0  0  0  0  0  0  0  0  0
    8.9163  -14.4824   20.4322 C   0  0  0  0  0  0  0  0  0  0  0  0
    9.0325  -15.2932   21.6555 C   0  0  2  0  0  0  0  0  0  0  0  0
    7.9164  -14.8724   22.5274 N   0  0  0  0  0  0  0  0  0  0  0  0
   10.2719  -15.3629   22.3859 C   0  0  0  0  0  0  0  0  0  0  0  0
   10.5816  -14.6770   23.3956 O   0  0  0  0  0  0  0  0  0  0  0  0
   11.2720  -16.2954   21.9447 N   0  0  0  0  0  0  0  0  0  0  0  0
   12.5139  -16.4294   22.7394 C   0  0  1  0  0  0  0  0  0  0  0  0
   12.2546  -17.3695   23.8694 C   0  0  0  0  0  0  0  0  0  0  0  0
   13.4284  -17.6546   24.7207 C   0  0  0  0  0  0  0  0  0  0  0  0
   14.5359  -17.1114   24.4291 O   0  0  0  0  0  0  0  0  0  0  0  0
   13.5020  -17.0707   21.8158 C   0  0  0  0  0  0  0  0  0  0  0  0
   14.6854  -16.4548   21.4416 O   0  0  0  0  0  0  0  0  0  0  0  0
   13.4292  -18.4810   25.8318 O   0  0  0  0  0  0  0  0  0  0  0  0
   13.2642  -18.2050   21.3565 O   0  0  0  0  0  0  0  0  0  0  0  0
  2  1  1  1
  3  2  1  0
  4  3  1  0
  5  4  1  0
  6  5  1  0
  7  6  1  0
  8 16  1  0
  8  2  1  0
  9  8  2  0
 10 11  1  0
 11 12  2  0
 11 13  1  0
 13 14  1  0
 15 14  1  6
 15 16  1  0
 15 17  1  0
 17 18  2  0
 19 17  1  0
 19 20  1  0
 20 21  1  1
 21 22  1  0
 22 26  1  0
 23 22  2  0
 24 20  1  0
 24 25  1  0
 27 24  2  0
M  END
$$$$
