KQD.pdb
     RDKit          3D

 27 26  0  0  1  0  0  0  0  0999 V2000
    9.2964  -19.7792   17.2497 N   0  0  0  0  0  0  0  0  0  0  0  0
   10.6891  -19.4089   17.0767 C   0  0  1  0  0  0  0  0  0  0  0  0
   10.8770  -19.0872   15.6050 C   0  0  0  0  0  0  0  0  0  0  0  0
   10.2066  -20.1247   14.7360 C   0  0  0  0  0  0  0  0  0  0  0  0
   10.3914  -19.8508   13.2694 C   0  0  0  0  0  0  0  0  0  0  0  0
    9.6963  -20.8615   12.3940 C   0  0  0  0  0  0  0  0  0  0  0  0
    9.9392  -20.4717   11.0141 N   0  0  0  0  0  0  0  0  0  0  0  0
   10.9941  -18.2350   17.9296 C   0  0  0  0  0  0  0  0  0  0  0  0
   12.2000  -17.8228   17.8968 O   0  0  0  0  0  0  0  0  0  0  0  0
    7.1187  -13.8508   19.1042 N   0  0  0  0  0  0  0  0  0  0  0  0
    8.2429  -13.2607   19.7521 C   0  0  0  0  0  0  0  0  0  0  0  0
    8.2243  -12.0406   20.1128 O   0  0  0  0  0  0  0  0  0  0  0  0
    9.4218  -14.1274   19.9899 C   0  0  0  0  0  0  0  0  0  0  0  0
    9.2741  -15.5106   19.5079 C   0  0  0  0  0  0  0  0  0  0  0  0
   10.4045  -16.4495   19.5991 C   0  0  2  0  0  0  0  0  0  0  0  0
   10.0520  -17.5925   18.7317 N   0  0  0  0  0  0  0  0  0  0  0  0
   10.9008  -16.8932   20.8763 C   0  0  0  0  0  0  0  0  0  0  0  0
   10.2154  -17.3780   21.8149 O   0  0  0  0  0  0  0  0  0  0  0  0
   12.3100  -16.7855   21.1351 N   0  0  0  0  0  0  0  0  0  0  0  0
   12.8190  -17.1978   22.4628 C   0  0  1  0  0  0  0  0  0  0  0  0
   13.7968  -18.3093   22.2714 C   0  0  0  0  0  0  0  0  0  0  0  0
   14.4177  -18.8100   23.5154 C   0  0  0  0  0  0  0  0  0  0  0  0
   15.2715  -19.7435   23.4345 O   0  0  0  0  0  0  0  0  0  0  0  0
   13.5614  -16.0073   22.9842 C   0  0  0  0  0  0  0  0  0  0  0  0
   13.9052  -15.8655   24.3189 O   0  0  0  0  0  0  0  0  0  0  0  0
   14.1444  -18.3434   24.7901 O   0  0  0  0  0  0  0  0  0  0  0  0
   13.8906  -15.0980   22.1973 O   0  0  0  0  0  0  0  0  0  0  0  0
  2  1  1  6
  3  2  1  0
  4  3  1  0
  5  4  1  0
  6  5  1  0
  7  6  1  0
  8 16  1  0
  8  2  1  0
  9  8  2  0
 10 11  1  0
 11 12  2  0
 11 13  1  0
 13 14  1  0
 15 14  1  1
 15 16  1  0
 15 17  1  0
 17 18  2  0
 19 17  1  0
 19 20  1  0
 20 21  1  6
 21 22  1  0
 22 26  1  0
 23 22  2  0
 24 20  1  0
 24 25  1  0
 27 24  2  0
M  END
$$$$
