MQY.pdb
     RDKit          3D

 30 30  0  0  1  0  0  0  0  0999 V2000
    7.1294  -11.2779   26.6967 C   0  0  0  0  0  0  0  0  0  0  0  0
    5.5106  -11.9807   27.0806 S   0  0  0  0  0  0  0  0  0  0  0  0
    5.5082  -13.7716   26.8942 C   0  0  0  0  0  0  0  0  0  0  0  0
    5.7318  -14.2219   25.4951 C   0  0  0  0  0  0  0  0  0  0  0  0
    6.5704  -15.4682   25.4034 C   0  0  2  0  0  0  0  0  0  0  0  0
    7.7690  -15.1847   26.2133 N   0  0  0  0  0  0  0  0  0  0  0  0
    6.9279  -15.8019   24.0373 C   0  0  0  0  0  0  0  0  0  0  0  0
    6.4289  -16.8547   23.5129 O   0  0  0  0  0  0  0  0  0  0  0  0
    7.6971  -12.4610   18.8169 N   0  0  0  0  0  0  0  0  0  0  0  0
    8.8625  -12.9029   19.4930 C   0  0  0  0  0  0  0  0  0  0  0  0
   10.0120  -12.8828   18.9852 O   0  0  0  0  0  0  0  0  0  0  0  0
    8.6953  -13.4153   20.8791 C   0  0  0  0  0  0  0  0  0  0  0  0
    7.8107  -14.6600   20.8769 C   0  0  0  0  0  0  0  0  0  0  0  0
    8.3153  -15.5732   22.0044 C   0  0  2  0  0  0  0  0  0  0  0  0
    7.8112  -15.0159   23.2236 N   0  0  0  0  0  0  0  0  0  0  0  0
    9.7672  -15.7355   21.9372 C   0  0  0  0  0  0  0  0  0  0  0  0
   10.4389  -14.9635   21.2062 O   0  0  0  0  0  0  0  0  0  0  0  0
   11.7426  -15.0321   30.1608 O   0  0  0  0  0  0  0  0  0  0  0  0
   11.3060  -15.2159   28.8502 C   0  0  0  0  0  0  0  0  0  0  0  0
   10.8410  -14.1594   28.0994 C   0  0  0  0  0  0  0  0  0  0  0  0
   10.4021  -14.3183   26.7953 C   0  0  0  0  0  0  0  0  0  0  0  0
   10.4376  -15.5810   26.2436 C   0  0  0  0  0  0  0  0  0  0  0  0
    9.9853  -15.8420   24.8679 C   0  0  0  0  0  0  0  0  0  0  0  0
   11.0100  -16.5174   23.9954 C   0  0  2  0  0  0  0  0  0  0  0  0
   10.4969  -16.7162   22.6463 N   0  0  0  0  0  0  0  0  0  0  0  0
   11.5817  -17.7421   24.5553 C   0  0  0  0  0  0  0  0  0  0  0  0
   11.1501  -19.0132   24.2590 O   0  0  0  0  0  0  0  0  0  0  0  0
   10.9053  -16.6270   27.0069 C   0  0  0  0  0  0  0  0  0  0  0  0
   11.3426  -16.4782   28.3016 C   0  0  0  0  0  0  0  0  0  0  0  0
   12.5539  -17.6711   25.3844 O   0  0  0  0  0  0  0  0  0  0  0  0
  1  2  1  0
  2  3  1  0
  3  4  1  0
  5  4  1  0
  5  6  1  1
  7  5  1  0
  8  7  2  0
 10  9  1  0
 10 12  1  0
 11 10  2  0
 13 12  1  0
 14 13  1  6
 14 15  1  0
 15  7  1  0
 16 25  1  0
 16 14  1  0
 17 16  2  0
 18 19  1  0
 19 29  2  0
 19 20  1  0
 20 21  2  0
 21 22  1  0
 22 23  1  0
 24 23  1  1
 24 25  1  0
 26 24  1  0
 26 27  1  0
 28 22  2  0
 29 28  1  0
 30 26  2  0
M  END
$$$$
