MQY.pdb
     RDKit          3D

 30 30  0  0  1  0  0  0  0  0999 V2000
    7.4959  -12.2614   20.7993 C   0  0  0  0  0  0  0  0  0  0  0  0
    7.0446  -12.8827   19.1645 S   0  0  0  0  0  0  0  0  0  0  0  0
    7.3635  -14.6489   19.0194 C   0  0  0  0  0  0  0  0  0  0  0  0
    8.5529  -15.1013   19.7882 C   0  0  0  0  0  0  0  0  0  0  0  0
    8.7564  -16.5916   19.7372 C   0  0  2  0  0  0  0  0  0  0  0  0
    7.3981  -17.1638   19.7147 N   0  0  0  0  0  0  0  0  0  0  0  0
    9.5168  -17.0907   20.8677 C   0  0  0  0  0  0  0  0  0  0  0  0
    8.8855  -17.6095   21.8499 O   0  0  0  0  0  0  0  0  0  0  0  0
   13.6573  -19.8454   22.7626 N   0  0  0  0  0  0  0  0  0  0  0  0
   13.6572  -19.7168   21.3506 C   0  0  0  0  0  0  0  0  0  0  0  0
   13.8802  -20.6716   20.5644 O   0  0  0  0  0  0  0  0  0  0  0  0
   13.3757  -18.3694   20.7873 C   0  0  0  0  0  0  0  0  0  0  0  0
   13.0949  -17.3767   21.9132 C   0  0  0  0  0  0  0  0  0  0  0  0
   11.5833  -17.4182   22.1837 C   0  0  2  0  0  0  0  0  0  0  0  0
   10.9487  -17.0450   20.9552 N   0  0  0  0  0  0  0  0  0  0  0  0
   11.2365  -16.6024   23.3469 C   0  0  0  0  0  0  0  0  0  0  0  0
   11.6533  -15.4178   23.4133 O   0  0  0  0  0  0  0  0  0  0  0  0
    5.8842  -11.5616   27.6460 O   0  0  0  0  0  0  0  0  0  0  0  0
    6.6447  -12.4445   26.8818 C   0  0  0  0  0  0  0  0  0  0  0  0
    8.0086  -12.2950   26.7670 C   0  0  0  0  0  0  0  0  0  0  0  0
    8.7845  -13.1601   26.0132 C   0  0  0  0  0  0  0  0  0  0  0  0
    8.1573  -14.2005   25.3618 C   0  0  0  0  0  0  0  0  0  0  0  0
    8.9026  -15.1628   24.5348 C   0  0  0  0  0  0  0  0  0  0  0  0
    9.7218  -16.1523   25.3205 C   0  0  2  0  0  0  0  0  0  0  0  0
   10.4494  -17.0491   24.4322 N   0  0  0  0  0  0  0  0  0  0  0  0
    8.9830  -16.8775   26.3541 C   0  0  0  0  0  0  0  0  0  0  0  0
    8.7252  -18.2276   26.3294 O   0  0  0  0  0  0  0  0  0  0  0  0
    6.7930  -14.3366   25.4864 C   0  0  0  0  0  0  0  0  0  0  0  0
    6.0157  -13.4829   26.2323 C   0  0  0  0  0  0  0  0  0  0  0  0
    8.5256  -16.2492   27.3709 O   0  0  0  0  0  0  0  0  0  0  0  0
  1  2  1  0
  2  3  1  0
  3  4  1  0
  5  4  1  0
  5  6  1  1
  7  5  1  0
  8  7  2  0
 10  9  1  0
 10 12  1  0
 11 10  2  0
 13 12  1  0
 14 13  1  6
 14 15  1  0
 15  7  1  0
 16 25  1  0
 16 14  1  0
 17 16  2  0
 18 19  1  0
 19 29  2  0
 19 20  1  0
 20 21  2  0
 21 22  1  0
 22 23  1  0
 24 23  1  6
 24 25  1  0
 26 24  1  0
 26 27  1  0
 28 22  2  0
 29 28  1  0
 30 26  2  0
M  END
$$$$
