MQY.pdb
     RDKit          3D

 30 30  0  0  1  0  0  0  0  0999 V2000
    7.8661  -11.7479   20.8711 C   0  0  0  0  0  0  0  0  0  0  0  0
    7.7969  -12.6967   19.3358 S   0  0  0  0  0  0  0  0  0  0  0  0
    7.1519  -14.3547   19.6138 C   0  0  0  0  0  0  0  0  0  0  0  0
    7.2864  -14.8143   21.0212 C   0  0  0  0  0  0  0  0  0  0  0  0
    8.7024  -15.1597   21.3964 C   0  0  2  0  0  0  0  0  0  0  0  0
    9.1680  -16.0733   20.3374 N   0  0  0  0  0  0  0  0  0  0  0  0
    8.7982  -15.7810   22.7042 C   0  0  0  0  0  0  0  0  0  0  0  0
    8.1921  -15.2356   23.6877 O   0  0  0  0  0  0  0  0  0  0  0  0
   10.3360  -21.5761   24.2647 N   0  0  0  0  0  0  0  0  0  0  0  0
    9.8217  -21.0693   23.0444 C   0  0  0  0  0  0  0  0  0  0  0  0
    9.4667  -21.7966   22.0829 O   0  0  0  0  0  0  0  0  0  0  0  0
    9.7030  -19.5925   22.9139 C   0  0  0  0  0  0  0  0  0  0  0  0
   10.2031  -18.9101   24.1852 C   0  0  0  0  0  0  0  0  0  0  0  0
    9.4847  -17.5557   24.2817 C   0  0  2  0  0  0  0  0  0  0  0  0
    9.5332  -16.9850   22.9690 N   0  0  0  0  0  0  0  0  0  0  0  0
   10.0557  -16.7345   25.3488 C   0  0  0  0  0  0  0  0  0  0  0  0
   11.1242  -16.1063   25.1361 O   0  0  0  0  0  0  0  0  0  0  0  0
    6.2365  -11.8973   24.3795 O   0  0  0  0  0  0  0  0  0  0  0  0
    6.9694  -12.6052   25.3302 C   0  0  0  0  0  0  0  0  0  0  0  0
    8.3462  -12.5934   25.3220 C   0  0  0  0  0  0  0  0  0  0  0  0
    9.0952  -13.2891   26.2566 C   0  0  0  0  0  0  0  0  0  0  0  0
    8.4272  -14.0129   27.2210 C   0  0  0  0  0  0  0  0  0  0  0  0
    9.1427  -14.7860   28.2484 C   0  0  0  0  0  0  0  0  0  0  0  0
   10.1056  -15.8052   27.6995 C   0  0  2  0  0  0  0  0  0  0  0  0
    9.4888  -16.5852   26.6346 N   0  0  0  0  0  0  0  0  0  0  0  0
   10.7430  -16.6528   28.7073 C   0  0  0  0  0  0  0  0  0  0  0  0
   10.7271  -18.0274   28.6966 O   0  0  0  0  0  0  0  0  0  0  0  0
    7.0504  -14.0148   27.2159 C   0  0  0  0  0  0  0  0  0  0  0  0
    6.2995  -13.3273   26.2923 C   0  0  0  0  0  0  0  0  0  0  0  0
   11.3703  -16.1181   29.6862 O   0  0  0  0  0  0  0  0  0  0  0  0
  1  2  1  0
  2  3  1  0
  3  4  1  0
  5  4  1  0
  5  6  1  6
  7  5  1  0
  8  7  2  0
 10  9  1  0
 10 12  1  0
 11 10  2  0
 13 12  1  0
 14 13  1  6
 14 15  1  0
 15  7  1  0
 16 25  1  0
 16 14  1  0
 17 16  2  0
 18 19  1  0
 19 29  2  0
 19 20  1  0
 20 21  2  0
 21 22  1  0
 22 23  1  0
 24 23  1  1
 24 25  1  0
 26 24  1  0
 26 27  1  0
 28 22  2  0
 29 28  1  0
 30 26  2  0
M  END
$$$$
