MQY.pdb
     RDKit          3D

 30 30  0  0  1  0  0  0  0  0999 V2000
    7.8073  -11.2747   19.2690 C   0  0  0  0  0  0  0  0  0  0  0  0
    6.8761  -12.7192   19.8244 S   0  0  0  0  0  0  0  0  0  0  0  0
    7.6575  -14.2518   19.2927 C   0  0  0  0  0  0  0  0  0  0  0  0
    7.9086  -15.2056   20.4051 C   0  0  0  0  0  0  0  0  0  0  0  0
    8.6479  -16.4412   19.9671 C   0  0  2  0  0  0  0  0  0  0  0  0
    7.6241  -17.5001   19.9078 N   0  0  0  0  0  0  0  0  0  0  0  0
    9.7219  -16.8007   20.8742 C   0  0  0  0  0  0  0  0  0  0  0  0
    9.4965  -17.6803   21.7729 O   0  0  0  0  0  0  0  0  0  0  0  0
   14.9920  -14.3449   19.7200 N   0  0  0  0  0  0  0  0  0  0  0  0
   14.7779  -15.7142   19.4205 C   0  0  0  0  0  0  0  0  0  0  0  0
   15.5781  -16.4136   18.7495 O   0  0  0  0  0  0  0  0  0  0  0  0
   13.5318  -16.3399   19.9377 C   0  0  0  0  0  0  0  0  0  0  0  0
   13.3252  -15.9671   21.4040 C   0  0  0  0  0  0  0  0  0  0  0  0
   11.9863  -16.5809   21.8405 C   0  0  2  0  0  0  0  0  0  0  0  0
   11.0384  -16.2310   20.8255 N   0  0  0  0  0  0  0  0  0  0  0  0
   11.6382  -16.1670   23.1993 C   0  0  0  0  0  0  0  0  0  0  0  0
   12.2169  -15.1720   23.7061 O   0  0  0  0  0  0  0  0  0  0  0  0
    5.6435  -11.9940   27.5810 O   0  0  0  0  0  0  0  0  0  0  0  0
    6.5216  -12.7155   26.7747 C   0  0  0  0  0  0  0  0  0  0  0  0
    7.8844  -12.6316   26.9524 C   0  0  0  0  0  0  0  0  0  0  0  0
    8.7760  -13.3394   26.1632 C   0  0  0  0  0  0  0  0  0  0  0  0
    8.2682  -14.1506   25.1710 C   0  0  0  0  0  0  0  0  0  0  0  0
    9.1422  -14.9330   24.2826 C   0  0  0  0  0  0  0  0  0  0  0  0
    9.8129  -16.1059   24.9475 C   0  0  2  0  0  0  0  0  0  0  0  0
   10.6782  -16.8115   24.0115 N   0  0  0  0  0  0  0  0  0  0  0  0
    8.9068  -17.0120   25.6533 C   0  0  0  0  0  0  0  0  0  0  0  0
    8.6820  -16.9937   27.0094 O   0  0  0  0  0  0  0  0  0  0  0  0
    6.9034  -14.2239   25.0059 C   0  0  0  0  0  0  0  0  0  0  0  0
    6.0118  -13.5250   25.7845 C   0  0  0  0  0  0  0  0  0  0  0  0
    8.2574  -17.9009   25.0006 O   0  0  0  0  0  0  0  0  0  0  0  0
  1  2  1  0
  2  3  1  0
  3  4  1  0
  5  4  1  0
  5  6  1  1
  7  5  1  0
  8  7  2  0
 10  9  1  0
 10 12  1  0
 11 10  2  0
 13 12  1  0
 14 13  1  6
 14 15  1  0
 15  7  1  0
 16 25  1  0
 16 14  1  0
 17 16  2  0
 18 19  1  0
 19 29  2  0
 19 20  1  0
 20 21  2  0
 21 22  1  0
 22 23  1  0
 24 23  1  6
 24 25  1  0
 26 24  1  0
 26 27  1  0
 28 22  2  0
 29 28  1  0
 30 26  2  0
M  END
$$$$
