MQY.pdb
     RDKit          3D

 30 30  0  0  1  0  0  0  0  0999 V2000
    7.7433  -11.0013   19.0247 C   0  0  0  0  0  0  0  0  0  0  0  0
    7.3192  -12.6079   18.3168 S   0  0  0  0  0  0  0  0  0  0  0  0
    8.5167  -13.8698   18.7812 C   0  0  0  0  0  0  0  0  0  0  0  0
    9.7662  -13.3146   19.3650 C   0  0  0  0  0  0  0  0  0  0  0  0
   10.7948  -14.3701   19.6696 C   0  0  2  0  0  0  0  0  0  0  0  0
   11.0991  -14.9957   18.3700 N   0  0  0  0  0  0  0  0  0  0  0  0
   10.3208  -15.3527   20.6262 C   0  0  0  0  0  0  0  0  0  0  0  0
    9.9090  -14.9492   21.7663 O   0  0  0  0  0  0  0  0  0  0  0  0
   10.4147  -21.6535   20.3052 N   0  0  0  0  0  0  0  0  0  0  0  0
    9.6838  -21.4364   21.5007 C   0  0  0  0  0  0  0  0  0  0  0  0
    9.2189  -22.3633   22.2107 O   0  0  0  0  0  0  0  0  0  0  0  0
    9.4654  -20.0267   21.9215 C   0  0  0  0  0  0  0  0  0  0  0  0
   10.0542  -19.0712   20.8860 C   0  0  0  0  0  0  0  0  0  0  0  0
    9.8233  -17.6446   21.4068 C   0  0  2  0  0  0  0  0  0  0  0  0
   10.2781  -16.7648   20.3723 N   0  0  0  0  0  0  0  0  0  0  0  0
   10.4484  -17.4569   22.7156 C   0  0  0  0  0  0  0  0  0  0  0  0
   11.7026  -17.4115   22.7969 O   0  0  0  0  0  0  0  0  0  0  0  0
   11.2066  -14.7802   31.1851 O   0  0  0  0  0  0  0  0  0  0  0  0
   10.8898  -15.0340   29.8520 C   0  0  0  0  0  0  0  0  0  0  0  0
   11.2215  -16.2302   29.2562 C   0  0  0  0  0  0  0  0  0  0  0  0
   10.9169  -16.5045   27.9331 C   0  0  0  0  0  0  0  0  0  0  0  0
   10.2599  -15.5391   27.2006 C   0  0  0  0  0  0  0  0  0  0  0  0
    9.9029  -15.7433   25.7878 C   0  0  0  0  0  0  0  0  0  0  0  0
   10.3798  -17.0494   25.2098 C   0  0  2  0  0  0  0  0  0  0  0  0
    9.7385  -17.3185   23.9295 N   0  0  0  0  0  0  0  0  0  0  0  0
   10.2958  -18.1910   26.1208 C   0  0  0  0  0  0  0  0  0  0  0  0
   11.2509  -18.5193   27.0534 O   0  0  0  0  0  0  0  0  0  0  0  0
    9.9351  -14.3484   27.8105 C   0  0  0  0  0  0  0  0  0  0  0  0
   10.2336  -14.0680   29.1227 C   0  0  0  0  0  0  0  0  0  0  0  0
    9.2781  -18.9659   26.0802 O   0  0  0  0  0  0  0  0  0  0  0  0
  1  2  1  0
  2  3  1  0
  3  4  1  0
  5  4  1  0
  5  6  1  6
  7  5  1  0
  8  7  2  0
 10  9  1  0
 10 12  1  0
 11 10  2  0
 13 12  1  0
 14 13  1  6
 14 15  1  0
 15  7  1  0
 16 25  1  0
 16 14  1  0
 17 16  2  0
 18 19  1  0
 19 29  2  0
 19 20  1  0
 20 21  2  0
 21 22  1  0
 22 23  1  0
 24 23  1  1
 24 25  1  0
 26 24  1  0
 26 27  1  0
 28 22  2  0
 29 28  1  0
 30 26  2  0
M  END
$$$$
