MQY.pdb
     RDKit          3D

 30 30  0  0  1  0  0  0  0  0999 V2000
    6.6774  -12.7863   21.5121 C   0  0  0  0  0  0  0  0  0  0  0  0
    7.1553  -12.6353   19.7769 S   0  0  0  0  0  0  0  0  0  0  0  0
    8.5302  -13.7260   19.3744 C   0  0  0  0  0  0  0  0  0  0  0  0
    8.5968  -14.9373   20.2338 C   0  0  0  0  0  0  0  0  0  0  0  0
    9.7164  -15.8689   19.8546 C   0  0  2  0  0  0  0  0  0  0  0  0
    9.4596  -16.2246   18.4473 N   0  0  0  0  0  0  0  0  0  0  0  0
    9.7673  -17.0518   20.6934 C   0  0  0  0  0  0  0  0  0  0  0  0
    9.8239  -18.1985   20.1330 O   0  0  0  0  0  0  0  0  0  0  0  0
   13.9856  -19.1281   24.1894 N   0  0  0  0  0  0  0  0  0  0  0  0
   13.8438  -18.2297   23.1016 C   0  0  0  0  0  0  0  0  0  0  0  0
   14.7728  -17.9522   22.3020 O   0  0  0  0  0  0  0  0  0  0  0  0
   12.5144  -17.5903   22.9126 C   0  0  0  0  0  0  0  0  0  0  0  0
   11.5211  -18.6002   22.3421 C   0  0  0  0  0  0  0  0  0  0  0  0
   10.1286  -18.1999   22.8524 C   0  0  2  0  0  0  0  0  0  0  0  0
    9.7636  -17.0193   22.1283 N   0  0  0  0  0  0  0  0  0  0  0  0
   10.1203  -18.0749   24.3095 C   0  0  0  0  0  0  0  0  0  0  0  0
   10.7923  -18.8835   24.9996 O   0  0  0  0  0  0  0  0  0  0  0  0
   11.2021  -13.6334   29.6967 O   0  0  0  0  0  0  0  0  0  0  0  0
   10.2880  -14.2145   28.8199 C   0  0  0  0  0  0  0  0  0  0  0  0
    9.5102  -13.4423   27.9865 C   0  0  0  0  0  0  0  0  0  0  0  0
    8.5955  -13.9978   27.1072 C   0  0  0  0  0  0  0  0  0  0  0  0
    8.4700  -15.3702   27.0760 C   0  0  0  0  0  0  0  0  0  0  0  0
    7.5193  -16.0444   26.1777 C   0  0  0  0  0  0  0  0  0  0  0  0
    8.0521  -17.3001   25.5400 C   0  0  2  0  0  0  0  0  0  0  0  0
    9.3991  -17.0926   25.0248 N   0  0  0  0  0  0  0  0  0  0  0  0
    7.1672  -17.9065   24.5452 C   0  0  0  0  0  0  0  0  0  0  0  0
    6.0223  -18.6076   24.8408 O   0  0  0  0  0  0  0  0  0  0  0  0
    9.2548  -16.1286   27.9154 C   0  0  0  0  0  0  0  0  0  0  0  0
   10.1649  -15.5856   28.7909 C   0  0  0  0  0  0  0  0  0  0  0  0
    7.4411  -17.8015   23.2995 O   0  0  0  0  0  0  0  0  0  0  0  0
  1  2  1  0
  2  3  1  0
  3  4  1  0
  5  4  1  0
  5  6  1  6
  7  5  1  0
  8  7  2  0
 10  9  1  0
 10 12  1  0
 11 10  2  0
 13 12  1  0
 14 13  1  6
 14 15  1  0
 15  7  1  0
 16 25  1  0
 16 14  1  0
 17 16  2  0
 18 19  1  0
 19 29  2  0
 19 20  1  0
 20 21  2  0
 21 22  1  0
 22 23  1  0
 24 23  1  6
 24 25  1  0
 26 24  1  0
 26 27  1  0
 28 22  2  0
 29 28  1  0
 30 26  2  0
M  END
$$$$
