MQY.pdb
     RDKit          3D

 30 30  0  0  1  0  0  0  0  0999 V2000
    6.4879  -15.6502   16.0568 C   0  0  0  0  0  0  0  0  0  0  0  0
    7.7402  -14.3992   15.6977 S   0  0  0  0  0  0  0  0  0  0  0  0
    8.6189  -13.8992   17.1877 C   0  0  0  0  0  0  0  0  0  0  0  0
    7.9569  -14.3426   18.4428 C   0  0  0  0  0  0  0  0  0  0  0  0
    8.6930  -13.9107   19.6824 C   0  0  2  0  0  0  0  0  0  0  0  0
    9.9143  -13.2468   19.1918 N   0  0  0  0  0  0  0  0  0  0  0  0
    9.0161  -15.0230   20.5565 C   0  0  0  0  0  0  0  0  0  0  0  0
    8.0623  -15.6418   21.1390 O   0  0  0  0  0  0  0  0  0  0  0  0
   13.6849  -18.7513   20.0268 N   0  0  0  0  0  0  0  0  0  0  0  0
   12.4177  -18.8744   19.4028 C   0  0  0  0  0  0  0  0  0  0  0  0
   12.2060  -19.5901   18.3917 O   0  0  0  0  0  0  0  0  0  0  0  0
   11.2885  -18.1062   19.9919 C   0  0  0  0  0  0  0  0  0  0  0  0
   11.7578  -17.3486   21.2319 C   0  0  0  0  0  0  0  0  0  0  0  0
   10.5560  -16.5442   21.7499 C   0  0  2  0  0  0  0  0  0  0  0  0
   10.3518  -15.4836   20.8094 N   0  0  0  0  0  0  0  0  0  0  0  0
   10.7626  -16.1276   23.1365 C   0  0  0  0  0  0  0  0  0  0  0  0
   11.6030  -15.2266   23.3889 O   0  0  0  0  0  0  0  0  0  0  0  0
    5.3475  -11.7411   28.0733 O   0  0  0  0  0  0  0  0  0  0  0  0
    6.1330  -12.5056   27.2127 C   0  0  0  0  0  0  0  0  0  0  0  0
    7.4964  -12.3262   27.1441 C   0  0  0  0  0  0  0  0  0  0  0  0
    8.2969  -13.0742   26.2965 C   0  0  0  0  0  0  0  0  0  0  0  0
    7.6953  -14.0259   25.5012 C   0  0  0  0  0  0  0  0  0  0  0  0
    8.4678  -14.8608   24.5676 C   0  0  0  0  0  0  0  0  0  0  0  0
    9.3779  -15.8580   25.2345 C   0  0  2  0  0  0  0  0  0  0  0  0
   10.0760  -16.6697   24.2462 N   0  0  0  0  0  0  0  0  0  0  0  0
    8.7419  -16.6732   26.2695 C   0  0  0  0  0  0  0  0  0  0  0  0
    8.8614  -16.4537   27.6213 O   0  0  0  0  0  0  0  0  0  0  0  0
    6.3312  -14.1933   25.5813 C   0  0  0  0  0  0  0  0  0  0  0  0
    5.5295  -13.4555   26.4195 C   0  0  0  0  0  0  0  0  0  0  0  0
    8.0142  -17.6722   25.9372 O   0  0  0  0  0  0  0  0  0  0  0  0
  1  2  1  0
  2  3  1  0
  3  4  1  0
  5  4  1  0
  5  6  1  6
  7  5  1  0
  8  7  2  0
 10  9  1  0
 10 12  1  0
 11 10  2  0
 13 12  1  0
 14 13  1  6
 14 15  1  0
 15  7  1  0
 16 25  1  0
 16 14  1  0
 17 16  2  0
 18 19  1  0
 19 29  2  0
 19 20  1  0
 20 21  2  0
 21 22  1  0
 22 23  1  0
 24 23  1  6
 24 25  1  0
 26 24  1  0
 26 27  1  0
 28 22  2  0
 29 28  1  0
 30 26  2  0
M  END
$$$$
