MQY.pdb
     RDKit          3D

 30 30  0  0  1  0  0  0  0  0999 V2000
    9.0676  -11.5694   20.3262 C   0  0  0  0  0  0  0  0  0  0  0  0
    7.3487  -12.0383   20.0302 S   0  0  0  0  0  0  0  0  0  0  0  0
    7.1558  -13.8272   19.9611 C   0  0  0  0  0  0  0  0  0  0  0  0
    7.6469  -14.5235   21.1794 C   0  0  0  0  0  0  0  0  0  0  0  0
    7.7456  -16.0153   21.0068 C   0  0  2  0  0  0  0  0  0  0  0  0
    6.3554  -16.4745   20.8347 N   0  0  0  0  0  0  0  0  0  0  0  0
    8.3769  -16.6681   22.1385 C   0  0  0  0  0  0  0  0  0  0  0  0
    7.6366  -17.1204   23.0764 O   0  0  0  0  0  0  0  0  0  0  0  0
   14.3917  -18.7064   22.9693 N   0  0  0  0  0  0  0  0  0  0  0  0
   13.5296  -19.5685   23.6932 C   0  0  0  0  0  0  0  0  0  0  0  0
   13.8470  -20.7306   24.0511 O   0  0  0  0  0  0  0  0  0  0  0  0
   12.1788  -19.0510   24.0390 C   0  0  0  0  0  0  0  0  0  0  0  0
   11.7143  -18.0475   22.9858 C   0  0  0  0  0  0  0  0  0  0  0  0
   10.2983  -17.6023   23.3815 C   0  0  2  0  0  0  0  0  0  0  0  0
    9.7946  -16.8468   22.2740 N   0  0  0  0  0  0  0  0  0  0  0  0
   10.3079  -16.9070   24.6681 C   0  0  0  0  0  0  0  0  0  0  0  0
   11.0291  -15.8865   24.8100 O   0  0  0  0  0  0  0  0  0  0  0  0
    6.7752  -11.6402   24.8783 O   0  0  0  0  0  0  0  0  0  0  0  0
    7.2308  -12.7478   25.5907 C   0  0  0  0  0  0  0  0  0  0  0  0
    8.2410  -12.6315   26.5191 C   0  0  0  0  0  0  0  0  0  0  0  0
    8.7098  -13.7183   27.2388 C   0  0  0  0  0  0  0  0  0  0  0  0
    8.1371  -14.9506   27.0078 C   0  0  0  0  0  0  0  0  0  0  0  0
    8.5772  -16.1593   27.7225 C   0  0  0  0  0  0  0  0  0  0  0  0
    9.8064  -16.8090   27.1442 C   0  0  2  0  0  0  0  0  0  0  0  0
    9.5520  -17.2991   25.7958 N   0  0  0  0  0  0  0  0  0  0  0  0
   10.4207  -17.8277   27.9957 C   0  0  0  0  0  0  0  0  0  0  0  0
    9.9779  -19.1243   28.1076 O   0  0  0  0  0  0  0  0  0  0  0  0
    7.1281  -15.0506   26.0765 C   0  0  0  0  0  0  0  0  0  0  0  0
    6.6569  -13.9776   25.3581 C   0  0  0  0  0  0  0  0  0  0  0  0
   11.4449  -17.5336   28.7045 O   0  0  0  0  0  0  0  0  0  0  0  0
  1  2  1  0
  2  3  1  0
  3  4  1  0
  5  4  1  0
  5  6  1  1
  7  5  1  0
  8  7  2  0
 10  9  1  0
 10 12  1  0
 11 10  2  0
 13 12  1  0
 14 13  1  6
 14 15  1  0
 15  7  1  0
 16 25  1  0
 16 14  1  0
 17 16  2  0
 18 19  1  0
 19 29  2  0
 19 20  1  0
 20 21  2  0
 21 22  1  0
 22 23  1  0
 24 23  1  1
 24 25  1  0
 26 24  1  0
 26 27  1  0
 28 22  2  0
 29 28  1  0
 30 26  2  0
M  END
$$$$
