MQY.pdb
     RDKit          3D

 30 30  0  0  1  0  0  0  0  0999 V2000
    8.9746  -11.2618   20.5125 C   0  0  0  0  0  0  0  0  0  0  0  0
    7.3784  -12.0051   20.1103 S   0  0  0  0  0  0  0  0  0  0  0  0
    7.5173  -13.7870   19.8917 C   0  0  0  0  0  0  0  0  0  0  0  0
    7.8411  -14.5144   21.1472 C   0  0  0  0  0  0  0  0  0  0  0  0
    8.0509  -15.9898   20.9369 C   0  0  2  0  0  0  0  0  0  0  0  0
    6.7482  -16.5003   20.4726 N   0  0  0  0  0  0  0  0  0  0  0  0
    8.4807  -16.6707   22.1439 C   0  0  0  0  0  0  0  0  0  0  0  0
    7.6246  -17.3570   22.7984 O   0  0  0  0  0  0  0  0  0  0  0  0
   13.9114  -19.2553   21.9639 N   0  0  0  0  0  0  0  0  0  0  0  0
   13.5289  -19.6762   23.2628 C   0  0  0  0  0  0  0  0  0  0  0  0
   14.2564  -20.3779   24.0097 O   0  0  0  0  0  0  0  0  0  0  0  0
   12.1890  -19.2539   23.7509 C   0  0  0  0  0  0  0  0  0  0  0  0
   11.7166  -18.0182   22.9881 C   0  0  0  0  0  0  0  0  0  0  0  0
   10.2902  -17.7105   23.4684 C   0  0  2  0  0  0  0  0  0  0  0  0
    9.8212  -16.6288   22.6553 N   0  0  0  0  0  0  0  0  0  0  0  0
   10.2627  -17.4740   24.9113 C   0  0  0  0  0  0  0  0  0  0  0  0
   10.0999  -18.4474   25.6909 O   0  0  0  0  0  0  0  0  0  0  0  0
    6.0204  -11.1577   25.7754 O   0  0  0  0  0  0  0  0  0  0  0  0
    6.6421  -12.3607   26.1044 C   0  0  0  0  0  0  0  0  0  0  0  0
    5.9906  -13.5642   25.9523 C   0  0  0  0  0  0  0  0  0  0  0  0
    6.5885  -14.7719   26.2726 C   0  0  0  0  0  0  0  0  0  0  0  0
    7.8783  -14.7535   26.7586 C   0  0  0  0  0  0  0  0  0  0  0  0
    8.5875  -15.9882   27.1297 C   0  0  0  0  0  0  0  0  0  0  0  0
   10.0765  -15.9381   26.9109 C   0  0  2  0  0  0  0  0  0  0  0  0
   10.4084  -16.2059   25.5177 N   0  0  0  0  0  0  0  0  0  0  0  0
   10.8606  -16.7593   27.8335 C   0  0  0  0  0  0  0  0  0  0  0  0
   11.8339  -17.6520   27.4520 O   0  0  0  0  0  0  0  0  0  0  0  0
    8.5162  -13.5423   26.9049 C   0  0  0  0  0  0  0  0  0  0  0  0
    7.9304  -12.3394   26.5895 C   0  0  0  0  0  0  0  0  0  0  0  0
   10.6581  -16.6727   29.0942 O   0  0  0  0  0  0  0  0  0  0  0  0
  1  2  1  0
  2  3  1  0
  3  4  1  0
  5  4  1  0
  5  6  1  1
  7  5  1  0
  8  7  2  0
 10  9  1  0
 10 12  1  0
 11 10  2  0
 13 12  1  0
 14 13  1  6
 14 15  1  0
 15  7  1  0
 16 25  1  0
 16 14  1  0
 17 16  2  0
 18 19  1  0
 19 29  2  0
 19 20  1  0
 20 21  2  0
 21 22  1  0
 22 23  1  0
 24 23  1  6
 24 25  1  0
 26 24  1  0
 26 27  1  0
 28 22  2  0
 29 28  1  0
 30 26  2  0
M  END
$$$$
