MQY.pdb
     RDKit          3D

 30 30  0  0  1  0  0  0  0  0999 V2000
    8.0430  -12.3217   19.4965 C   0  0  0  0  0  0  0  0  0  0  0  0
    7.8730  -12.9845   17.8250 S   0  0  0  0  0  0  0  0  0  0  0  0
    8.3437  -14.7209   17.7532 C   0  0  0  0  0  0  0  0  0  0  0  0
    8.6961  -15.2945   19.0787 C   0  0  0  0  0  0  0  0  0  0  0  0
    9.1011  -16.7422   19.0063 C   0  0  2  0  0  0  0  0  0  0  0  0
    7.9171  -17.4460   18.4809 N   0  0  0  0  0  0  0  0  0  0  0  0
    9.4991  -17.2762   20.2954 C   0  0  0  0  0  0  0  0  0  0  0  0
    8.5917  -17.6884   21.0947 O   0  0  0  0  0  0  0  0  0  0  0  0
   14.9757  -17.8609   20.9312 N   0  0  0  0  0  0  0  0  0  0  0  0
   14.1933  -18.9368   20.4404 C   0  0  0  0  0  0  0  0  0  0  0  0
   14.5672  -19.7064   19.5198 O   0  0  0  0  0  0  0  0  0  0  0  0
   12.8592  -19.1507   21.0620 C   0  0  0  0  0  0  0  0  0  0  0  0
   12.6160  -18.1131   22.1557 C   0  0  0  0  0  0  0  0  0  0  0  0
   11.1277  -17.7371   22.0968 C   0  0  2  0  0  0  0  0  0  0  0  0
   10.8613  -17.3787   20.7360 N   0  0  0  0  0  0  0  0  0  0  0  0
   10.8052  -16.7164   23.0933 C   0  0  0  0  0  0  0  0  0  0  0  0
   11.5706  -15.7280   23.2309 O   0  0  0  0  0  0  0  0  0  0  0  0
    6.3269  -11.1998   28.2513 O   0  0  0  0  0  0  0  0  0  0  0  0
    6.7230  -12.1597   27.3221 C   0  0  0  0  0  0  0  0  0  0  0  0
    6.1764  -12.1967   26.0588 C   0  0  0  0  0  0  0  0  0  0  0  0
    6.5546  -13.1413   25.1190 C   0  0  0  0  0  0  0  0  0  0  0  0
    7.5106  -14.0689   25.4737 C   0  0  0  0  0  0  0  0  0  0  0  0
    7.9670  -15.1114   24.5408 C   0  0  0  0  0  0  0  0  0  0  0  0
    9.3245  -15.6791   24.8607 C   0  0  2  0  0  0  0  0  0  0  0  0
    9.6724  -16.7512   23.9374 N   0  0  0  0  0  0  0  0  0  0  0  0
    9.5127  -16.0702   26.2578 C   0  0  0  0  0  0  0  0  0  0  0  0
   10.0373  -15.2565   27.2338 O   0  0  0  0  0  0  0  0  0  0  0  0
    8.0476  -14.0188   26.7404 C   0  0  0  0  0  0  0  0  0  0  0  0
    7.6781  -13.0850   27.6790 C   0  0  0  0  0  0  0  0  0  0  0  0
    9.1794  -17.2445   26.6419 O   0  0  0  0  0  0  0  0  0  0  0  0
  1  2  1  0
  2  3  1  0
  3  4  1  0
  5  4  1  0
  5  6  1  1
  7  5  1  0
  8  7  2  0
 10  9  1  0
 10 12  1  0
 11 10  2  0
 13 12  1  0
 14 13  1  6
 14 15  1  0
 15  7  1  0
 16 25  1  0
 16 14  1  0
 17 16  2  0
 18 19  1  0
 19 29  2  0
 19 20  1  0
 20 21  2  0
 21 22  1  0
 22 23  1  0
 24 23  1  1
 24 25  1  0
 26 24  1  0
 26 27  1  0
 28 22  2  0
 29 28  1  0
 30 26  2  0
M  END
$$$$
