MQY.pdb
     RDKit          3D

 30 30  0  0  1  0  0  0  0  0999 V2000
    6.6183  -11.1954   26.1568 C   0  0  0  0  0  0  0  0  0  0  0  0
    5.0749  -12.0152   26.6129 S   0  0  0  0  0  0  0  0  0  0  0  0
    5.2663  -13.8051   26.6539 C   0  0  0  0  0  0  0  0  0  0  0  0
    5.4825  -14.4088   25.3126 C   0  0  0  0  0  0  0  0  0  0  0  0
    6.4628  -15.5506   25.3306 C   0  0  2  0  0  0  0  0  0  0  0  0
    7.4254  -15.2132   26.3948 N   0  0  0  0  0  0  0  0  0  0  0  0
    7.1326  -15.7320   24.0562 C   0  0  0  0  0  0  0  0  0  0  0  0
    6.7027  -16.6347   23.2610 O   0  0  0  0  0  0  0  0  0  0  0  0
    8.3030  -12.5317   19.1762 N   0  0  0  0  0  0  0  0  0  0  0  0
    8.6294  -13.9094   19.0993 C   0  0  0  0  0  0  0  0  0  0  0  0
    8.2281  -14.6700   18.1828 O   0  0  0  0  0  0  0  0  0  0  0  0
    9.4958  -14.4671   20.1718 C   0  0  0  0  0  0  0  0  0  0  0  0
    8.9678  -14.0528   21.5435 C   0  0  0  0  0  0  0  0  0  0  0  0
    8.9326  -15.3184   22.4135 C   0  0  2  0  0  0  0  0  0  0  0  0
    8.2564  -14.9520   23.6217 N   0  0  0  0  0  0  0  0  0  0  0  0
   10.2744  -15.8743   22.5845 C   0  0  0  0  0  0  0  0  0  0  0  0
   11.0797  -15.8447   21.6189 O   0  0  0  0  0  0  0  0  0  0  0  0
    9.3444  -13.7440   28.9190 O   0  0  0  0  0  0  0  0  0  0  0  0
   10.1152  -14.5280   28.0627 C   0  0  0  0  0  0  0  0  0  0  0  0
   10.9867  -13.9556   27.1635 C   0  0  0  0  0  0  0  0  0  0  0  0
   11.7626  -14.7147   26.3031 C   0  0  0  0  0  0  0  0  0  0  0  0
   11.6483  -16.0873   26.3597 C   0  0  0  0  0  0  0  0  0  0  0  0
   12.4294  -16.9700   25.4788 C   0  0  0  0  0  0  0  0  0  0  0  0
   12.1547  -16.7819   24.0103 C   0  0  2  0  0  0  0  0  0  0  0  0
   10.7530  -16.4580   23.7791 N   0  0  0  0  0  0  0  0  0  0  0  0
   12.6181  -17.8739   23.1542 C   0  0  0  0  0  0  0  0  0  0  0  0
   11.8399  -18.5244   22.2262 O   0  0  0  0  0  0  0  0  0  0  0  0
   10.7725  -16.6445   27.2641 C   0  0  0  0  0  0  0  0  0  0  0  0
    9.9990  -15.8987   28.1215 C   0  0  0  0  0  0  0  0  0  0  0  0
   13.8267  -18.2851   23.2430 O   0  0  0  0  0  0  0  0  0  0  0  0
  1  2  1  0
  2  3  1  0
  3  4  1  0
  5  4  1  0
  5  6  1  1
  7  5  1  0
  8  7  2  0
 10  9  1  0
 10 12  1  0
 11 10  2  0
 13 12  1  0
 14 13  1  6
 14 15  1  0
 15  7  1  0
 16 25  1  0
 16 14  1  0
 17 16  2  0
 18 19  1  0
 19 29  2  0
 19 20  1  0
 20 21  2  0
 21 22  1  0
 22 23  1  0
 24 23  1  1
 24 25  1  0
 26 24  1  0
 26 27  1  0
 28 22  2  0
 29 28  1  0
 30 26  2  0
M  END
$$$$
