MQY.pdb
     RDKit          3D

 30 30  0  0  1  0  0  0  0  0999 V2000
    7.6483  -12.3572   18.6676 C   0  0  0  0  0  0  0  0  0  0  0  0
    7.5456  -13.7571   17.5311 S   0  0  0  0  0  0  0  0  0  0  0  0
    8.0028  -15.2989   18.3412 C   0  0  0  0  0  0  0  0  0  0  0  0
    8.5026  -15.1133   19.7290 C   0  0  0  0  0  0  0  0  0  0  0  0
    9.0254  -16.3842   20.3426 C   0  0  2  0  0  0  0  0  0  0  0  0
    8.5542  -17.4616   19.4536 N   0  0  0  0  0  0  0  0  0  0  0  0
    8.5562  -16.5829   21.7012 C   0  0  0  0  0  0  0  0  0  0  0  0
    8.6833  -15.6272   22.5394 O   0  0  0  0  0  0  0  0  0  0  0  0
    4.9352  -21.1450   23.6691 N   0  0  0  0  0  0  0  0  0  0  0  0
    6.1796  -21.3885   23.0345 C   0  0  0  0  0  0  0  0  0  0  0  0
    6.4987  -22.4936   22.5284 O   0  0  0  0  0  0  0  0  0  0  0  0
    7.1479  -20.2612   22.9744 C   0  0  0  0  0  0  0  0  0  0  0  0
    6.5598  -19.0257   23.6523 C   0  0  0  0  0  0  0  0  0  0  0  0
    7.6168  -17.9149   23.5594 C   0  0  2  0  0  0  0  0  0  0  0  0
    7.9466  -17.7945   22.1709 N   0  0  0  0  0  0  0  0  0  0  0  0
    8.7413  -18.1853   24.4545 C   0  0  0  0  0  0  0  0  0  0  0  0
    8.9163  -19.3536   24.8860 O   0  0  0  0  0  0  0  0  0  0  0  0
    6.0592  -11.3395   28.6144 O   0  0  0  0  0  0  0  0  0  0  0  0
    6.5927  -12.3275   27.7892 C   0  0  0  0  0  0  0  0  0  0  0  0
    7.7655  -12.9712   28.1150 C   0  0  0  0  0  0  0  0  0  0  0  0
    8.3143  -13.9560   27.3102 C   0  0  0  0  0  0  0  0  0  0  0  0
    7.6541  -14.2927   26.1480 C   0  0  0  0  0  0  0  0  0  0  0  0
    8.1684  -15.3227   25.2315 C   0  0  0  0  0  0  0  0  0  0  0  0
    9.3313  -16.1108   25.7737 C   0  0  2  0  0  0  0  0  0  0  0  0
    9.6729  -17.2143   24.8857 N   0  0  0  0  0  0  0  0  0  0  0  0
    9.1844  -16.5447   27.1631 C   0  0  0  0  0  0  0  0  0  0  0  0
    9.8516  -15.9912   28.2299 O   0  0  0  0  0  0  0  0  0  0  0  0
    6.4826  -13.6402   25.8362 C   0  0  0  0  0  0  0  0  0  0  0  0
    5.9311  -12.6619   26.6289 C   0  0  0  0  0  0  0  0  0  0  0  0
    8.3890  -17.5051   27.4507 O   0  0  0  0  0  0  0  0  0  0  0  0
  1  2  1  0
  2  3  1  0
  3  4  1  0
  5  4  1  0
  5  6  1  6
  7  5  1  0
  8  7  2  0
 10  9  1  0
 10 12  1  0
 11 10  2  0
 13 12  1  0
 14 13  1  6
 14 15  1  0
 15  7  1  0
 16 25  1  0
 16 14  1  0
 17 16  2  0
 18 19  1  0
 19 29  2  0
 19 20  1  0
 20 21  2  0
 21 22  1  0
 22 23  1  0
 24 23  1  6
 24 25  1  0
 26 24  1  0
 26 27  1  0
 28 22  2  0
 29 28  1  0
 30 26  2  0
M  END
$$$$
