MQY.pdb
     RDKit          3D

 30 30  0  0  1  0  0  0  0  0999 V2000
    7.0773  -11.5400   19.0496 C   0  0  0  0  0  0  0  0  0  0  0  0
    7.7537  -13.0366   19.8010 S   0  0  0  0  0  0  0  0  0  0  0  0
    6.4498  -14.0983   20.4450 C   0  0  0  0  0  0  0  0  0  0  0  0
    6.9589  -15.3382   21.0881 C   0  0  0  0  0  0  0  0  0  0  0  0
    7.4309  -16.3665   20.0957 C   0  0  2  0  0  0  0  0  0  0  0  0
    6.2175  -17.1054   19.7023 N   0  0  0  0  0  0  0  0  0  0  0  0
    8.4318  -17.2593   20.6494 C   0  0  0  0  0  0  0  0  0  0  0  0
    8.0871  -18.0654   21.5787 O   0  0  0  0  0  0  0  0  0  0  0  0
   14.0273  -19.1376   18.9410 N   0  0  0  0  0  0  0  0  0  0  0  0
   14.1769  -19.2190   20.3487 C   0  0  0  0  0  0  0  0  0  0  0  0
   15.1280  -19.8145   20.9145 O   0  0  0  0  0  0  0  0  0  0  0  0
   13.1409  -18.5566   21.1853 C   0  0  0  0  0  0  0  0  0  0  0  0
   12.0989  -17.8819   20.2961 C   0  0  0  0  0  0  0  0  0  0  0  0
   10.8008  -17.7913   21.1125 C   0  0  2  0  0  0  0  0  0  0  0  0
    9.7988  -17.3017   20.2139 N   0  0  0  0  0  0  0  0  0  0  0  0
   10.9998  -17.0016   22.3273 C   0  0  0  0  0  0  0  0  0  0  0  0
   11.2438  -15.7719   22.2280 O   0  0  0  0  0  0  0  0  0  0  0  0
   10.4194  -14.0634   30.6247 O   0  0  0  0  0  0  0  0  0  0  0  0
   10.2927  -14.7485   29.4178 C   0  0  0  0  0  0  0  0  0  0  0  0
   10.6563  -16.0720   29.3083 C   0  0  0  0  0  0  0  0  0  0  0  0
   10.5392  -16.7729   28.1193 C   0  0  0  0  0  0  0  0  0  0  0  0
   10.0407  -16.1113   27.0176 C   0  0  0  0  0  0  0  0  0  0  0  0
    9.8882  -16.7763   25.7138 C   0  0  0  0  0  0  0  0  0  0  0  0
   11.1098  -16.7085   24.8361 C   0  0  2  0  0  0  0  0  0  0  0  0
   10.9384  -17.5221   23.6396 N   0  0  0  0  0  0  0  0  0  0  0  0
   12.3728  -16.9892   25.5190 C   0  0  0  0  0  0  0  0  0  0  0  0
   13.2033  -16.0321   26.0519 O   0  0  0  0  0  0  0  0  0  0  0  0
    9.6815  -14.7882   27.1432 C   0  0  0  0  0  0  0  0  0  0  0  0
    9.7944  -14.0852   28.3190 C   0  0  0  0  0  0  0  0  0  0  0  0
   12.7713  -18.1981   25.6514 O   0  0  0  0  0  0  0  0  0  0  0  0
  1  2  1  0
  2  3  1  0
  3  4  1  0
  5  4  1  0
  5  6  1  1
  7  5  1  0
  8  7  2  0
 10  9  1  0
 10 12  1  0
 11 10  2  0
 13 12  1  0
 14 13  1  6
 14 15  1  0
 15  7  1  0
 16 25  1  0
 16 14  1  0
 17 16  2  0
 18 19  1  0
 19 29  2  0
 19 20  1  0
 20 21  2  0
 21 22  1  0
 22 23  1  0
 24 23  1  1
 24 25  1  0
 26 24  1  0
 26 27  1  0
 28 22  2  0
 29 28  1  0
 30 26  2  0
M  END
$$$$
