MQY.pdb
     RDKit          3D

 30 30  0  0  1  0  0  0  0  0999 V2000
    7.4871  -11.5724   20.5926 C   0  0  0  0  0  0  0  0  0  0  0  0
    6.8261  -12.5776   19.2454 S   0  0  0  0  0  0  0  0  0  0  0  0
    7.7687  -14.0970   19.0327 C   0  0  0  0  0  0  0  0  0  0  0  0
    9.2198  -13.8670   18.8053 C   0  0  0  0  0  0  0  0  0  0  0  0
   10.0201  -15.1410   18.7664 C   0  0  2  0  0  0  0  0  0  0  0  0
    9.4120  -15.9433   17.6896 N   0  0  0  0  0  0  0  0  0  0  0  0
    9.9959  -15.8548   20.0295 C   0  0  0  0  0  0  0  0  0  0  0  0
   10.4584  -15.2752   21.0699 O   0  0  0  0  0  0  0  0  0  0  0  0
    9.0684  -21.8833   20.7121 N   0  0  0  0  0  0  0  0  0  0  0  0
   10.3075  -21.2991   20.3461 C   0  0  0  0  0  0  0  0  0  0  0  0
   11.2541  -21.9422   19.8267 O   0  0  0  0  0  0  0  0  0  0  0  0
   10.4776  -19.8434   20.5987 C   0  0  0  0  0  0  0  0  0  0  0  0
    9.2326  -19.2784   21.2790 C   0  0  0  0  0  0  0  0  0  0  0  0
    9.4788  -17.7775   21.4943 C   0  0  2  0  0  0  0  0  0  0  0  0
    9.4760  -17.1828   20.1914 N   0  0  0  0  0  0  0  0  0  0  0  0
   10.6864  -17.5531   22.2882 C   0  0  0  0  0  0  0  0  0  0  0  0
   11.5308  -16.7072   21.8972 O   0  0  0  0  0  0  0  0  0  0  0  0
   10.2114  -13.8447   29.9416 O   0  0  0  0  0  0  0  0  0  0  0  0
   10.1697  -14.5348   28.7317 C   0  0  0  0  0  0  0  0  0  0  0  0
   10.4003  -15.8912   28.6768 C   0  0  0  0  0  0  0  0  0  0  0  0
   10.3640  -16.5977   27.4860 C   0  0  0  0  0  0  0  0  0  0  0  0
   10.0867  -15.9076   26.3254 C   0  0  0  0  0  0  0  0  0  0  0  0
   10.0342  -16.5769   25.0160 C   0  0  0  0  0  0  0  0  0  0  0  0
   11.1549  -17.5528   24.7726 C   0  0  2  0  0  0  0  0  0  0  0  0
   10.9899  -18.2280   23.4921 N   0  0  0  0  0  0  0  0  0  0  0  0
   11.3979  -18.4937   25.8662 C   0  0  0  0  0  0  0  0  0  0  0  0
   12.4081  -18.3741   26.7909 O   0  0  0  0  0  0  0  0  0  0  0  0
    9.8583  -14.5519   26.3967 C   0  0  0  0  0  0  0  0  0  0  0  0
    9.8924  -13.8430   27.5740 C   0  0  0  0  0  0  0  0  0  0  0  0
   10.6404  -19.5152   26.0090 O   0  0  0  0  0  0  0  0  0  0  0  0
  1  2  1  0
  2  3  1  0
  3  4  1  0
  5  4  1  0
  5  6  1  6
  7  5  1  0
  8  7  2  0
 10  9  1  0
 10 12  1  0
 11 10  2  0
 13 12  1  0
 14 13  1  6
 14 15  1  0
 15  7  1  0
 16 25  1  0
 16 14  1  0
 17 16  2  0
 18 19  1  0
 19 29  2  0
 19 20  1  0
 20 21  2  0
 21 22  1  0
 22 23  1  0
 24 23  1  1
 24 25  1  0
 26 24  1  0
 26 27  1  0
 28 22  2  0
 29 28  1  0
 30 26  2  0
M  END
$$$$
