EEM.pdb
     RDKit          3D

 27 26  0  0  1  0  0  0  0  0999 V2000
   12.6116  -18.4764   22.0978 N   0  0  0  0  0  0  0  0  0  0  0  0
   12.6389  -17.1609   21.4961 C   0  0  1  0  0  0  0  0  0  0  0  0
   13.1673  -17.2356   20.1107 C   0  0  0  0  0  0  0  0  0  0  0  0
   12.8975  -18.5518   19.4643 C   0  0  0  0  0  0  0  0  0  0  0  0
   13.3511  -18.6623   18.0644 C   0  0  0  0  0  0  0  0  0  0  0  0
   14.5457  -18.5931   17.7006 O   0  0  0  0  0  0  0  0  0  0  0  0
   11.2286  -16.6596   21.5133 C   0  0  0  0  0  0  0  0  0  0  0  0
   11.0082  -15.5329   21.0094 O   0  0  0  0  0  0  0  0  0  0  0  0
   12.4061  -18.8571   17.0601 O   0  0  0  0  0  0  0  0  0  0  0  0
   10.1603  -17.3760   22.0558 N   0  0  0  0  0  0  0  0  0  0  0  0
    8.7573  -16.8755   22.0583 C   0  0  1  0  0  0  0  0  0  0  0  0
    7.8889  -18.0766   22.2459 C   0  0  0  0  0  0  0  0  0  0  0  0
    8.0858  -19.2222   21.3246 C   0  0  0  0  0  0  0  0  0  0  0  0
    8.1631  -20.5395   22.0336 C   0  0  0  0  0  0  0  0  0  0  0  0
    8.1250  -20.6951   23.2586 O   0  0  0  0  0  0  0  0  0  0  0  0
    8.6953  -15.8551   23.0979 C   0  0  0  0  0  0  0  0  0  0  0  0
    8.3670  -14.6492   22.8130 O   0  0  0  0  0  0  0  0  0  0  0  0
    8.2886  -21.6540   21.1833 O   0  0  0  0  0  0  0  0  0  0  0  0
    6.4233  -10.9632   27.3134 C   0  0  0  0  0  0  0  0  0  0  0  0
    6.7997  -12.0408   25.9156 S   0  0  0  0  0  0  0  0  0  0  0  0
    6.9372  -13.7480   26.5014 C   0  0  0  0  0  0  0  0  0  0  0  0
    7.3209  -14.6815   25.3901 C   0  0  0  0  0  0  0  0  0  0  0  0
    8.7537  -15.0958   25.4760 C   0  0  2  0  0  0  0  0  0  0  0  0
    8.9814  -16.1273   24.4435 N   0  0  0  0  0  0  0  0  0  0  0  0
    9.1762  -15.6233   26.7756 C   0  0  0  0  0  0  0  0  0  0  0  0
    9.0652  -14.9800   27.8455 O   0  0  0  0  0  0  0  0  0  0  0  0
    9.7277  -16.8885   26.8613 O   0  0  0  0  0  0  0  0  0  0  0  0
  2  1  1  6
  2  3  1  0
  4  3  1  0
  4  5  1  0
  5  6  2  0
  7  2  1  0
  7  8  2  0
  9  5  1  0
 10  7  1  0
 11 10  1  0
 11 12  1  1
 13 12  1  0
 14 13  1  0
 14 15  2  0
 16 11  1  0
 17 16  2  0
 18 14  1  0
 19 20  1  0
 20 21  1  0
 22 21  1  0
 23 22  1  1
 23 24  1  0
 24 16  1  0
 25 23  1  0
 26 25  2  0
 27 25  1  0
M  END
$$$$
