EEM.pdb
     RDKit          3D

 27 26  0  0  1  0  0  0  0  0999 V2000
   10.0555  -15.1454   17.4209 N   0  0  0  0  0  0  0  0  0  0  0  0
   10.6837  -16.1862   18.2054 C   0  0  1  0  0  0  0  0  0  0  0  0
   12.1243  -15.8871   18.4044 C   0  0  0  0  0  0  0  0  0  0  0  0
   12.3505  -14.5685   19.0625 C   0  0  0  0  0  0  0  0  0  0  0  0
   13.7658  -14.2299   19.3075 C   0  0  0  0  0  0  0  0  0  0  0  0
   14.2677  -14.0662   20.4413 O   0  0  0  0  0  0  0  0  0  0  0  0
    9.9527  -16.2302   19.5108 C   0  0  0  0  0  0  0  0  0  0  0  0
    9.0744  -15.3584   19.7126 O   0  0  0  0  0  0  0  0  0  0  0  0
   14.6229  -14.0764   18.2205 O   0  0  0  0  0  0  0  0  0  0  0  0
   10.1976  -17.1821   20.5021 N   0  0  0  0  0  0  0  0  0  0  0  0
    9.2269  -17.5030   21.5854 C   0  0  1  0  0  0  0  0  0  0  0  0
    9.4380  -18.9442   21.9179 C   0  0  0  0  0  0  0  0  0  0  0  0
    8.3597  -19.8997   21.5652 C   0  0  0  0  0  0  0  0  0  0  0  0
    8.7151  -21.3235   21.8658 C   0  0  0  0  0  0  0  0  0  0  0  0
    9.2930  -21.7161   22.8847 O   0  0  0  0  0  0  0  0  0  0  0  0
    9.4811  -16.5421   22.6520 C   0  0  0  0  0  0  0  0  0  0  0  0
   10.6620  -16.0872   22.8557 O   0  0  0  0  0  0  0  0  0  0  0  0
    8.3349  -22.2432   20.8705 O   0  0  0  0  0  0  0  0  0  0  0  0
    6.5618  -11.0099   27.3821 C   0  0  0  0  0  0  0  0  0  0  0  0
    6.2340  -12.2710   26.1334 S   0  0  0  0  0  0  0  0  0  0  0  0
    7.7269  -13.2641   25.8856 C   0  0  0  0  0  0  0  0  0  0  0  0
    7.5346  -14.2851   24.8019 C   0  0  0  0  0  0  0  0  0  0  0  0
    8.7807  -15.0667   24.5410 C   0  0  2  0  0  0  0  0  0  0  0  0
    8.4694  -16.0656   23.4983 N   0  0  0  0  0  0  0  0  0  0  0  0
    9.3435  -15.7549   25.7052 C   0  0  0  0  0  0  0  0  0  0  0  0
   10.0819  -15.1894   26.5452 O   0  0  0  0  0  0  0  0  0  0  0  0
    9.0663  -17.0931   25.9172 O   0  0  0  0  0  0  0  0  0  0  0  0
  2  1  1  6
  2  3  1  0
  4  3  1  0
  4  5  1  0
  5  6  2  0
  7  2  1  0
  7  8  2  0
  9  5  1  0
 10  7  1  0
 11 10  1  0
 11 12  1  1
 13 12  1  0
 14 13  1  0
 14 15  2  0
 16 11  1  0
 17 16  2  0
 18 14  1  0
 19 20  1  0
 20 21  1  0
 22 21  1  0
 23 22  1  1
 23 24  1  0
 24 16  1  0
 25 23  1  0
 26 25  2  0
 27 25  1  0
M  END
$$$$
