EEM.pdb
     RDKit          3D

 27 26  0  0  1  0  0  0  0  0999 V2000
    9.4996  -13.3074   19.7316 N   0  0  0  0  0  0  0  0  0  0  0  0
    8.2297  -13.9636   19.9555 C   0  0  1  0  0  0  0  0  0  0  0  0
    7.6815  -14.4817   18.6767 C   0  0  0  0  0  0  0  0  0  0  0  0
    8.2385  -13.7768   17.4867 C   0  0  0  0  0  0  0  0  0  0  0  0
    7.8274  -14.3348   16.1840 C   0  0  0  0  0  0  0  0  0  0  0  0
    8.1325  -13.8422   15.0756 O   0  0  0  0  0  0  0  0  0  0  0  0
    8.4936  -15.0747   20.9232 C   0  0  0  0  0  0  0  0  0  0  0  0
    7.5131  -15.7581   21.3018 O   0  0  0  0  0  0  0  0  0  0  0  0
    7.0464  -15.4877   16.1576 O   0  0  0  0  0  0  0  0  0  0  0  0
    9.7618  -15.3834   21.4183 N   0  0  0  0  0  0  0  0  0  0  0  0
   10.0176  -16.4967   22.3744 C   0  0  1  0  0  0  0  0  0  0  0  0
   11.3331  -17.0863   21.9818 C   0  0  0  0  0  0  0  0  0  0  0  0
   11.3708  -17.9503   20.7767 C   0  0  0  0  0  0  0  0  0  0  0  0
   12.7428  -18.4648   20.4657 C   0  0  0  0  0  0  0  0  0  0  0  0
   13.7393  -17.7641   20.2598 O   0  0  0  0  0  0  0  0  0  0  0  0
    9.9356  -15.9106   23.7068 C   0  0  0  0  0  0  0  0  0  0  0  0
   10.7081  -14.9457   24.0464 O   0  0  0  0  0  0  0  0  0  0  0  0
   12.8435  -19.8678   20.4173 O   0  0  0  0  0  0  0  0  0  0  0  0
    6.7196  -10.9370   26.2872 C   0  0  0  0  0  0  0  0  0  0  0  0
    6.4163  -12.7130   26.3902 S   0  0  0  0  0  0  0  0  0  0  0  0
    7.9646  -13.5991   26.0832 C   0  0  0  0  0  0  0  0  0  0  0  0
    7.8034  -15.0768   26.2930 C   0  0  0  0  0  0  0  0  0  0  0  0
    9.0767  -15.8194   26.0498 C   0  0  2  0  0  0  0  0  0  0  0  0
    9.0233  -16.3558   24.6745 N   0  0  0  0  0  0  0  0  0  0  0  0
    9.3473  -16.9194   26.9784 C   0  0  0  0  0  0  0  0  0  0  0  0
    9.4620  -16.7593   28.2161 O   0  0  0  0  0  0  0  0  0  0  0  0
    9.4884  -18.2090   26.4993 O   0  0  0  0  0  0  0  0  0  0  0  0
  2  1  1  6
  2  3  1  0
  4  3  1  0
  4  5  1  0
  5  6  2  0
  7  2  1  0
  7  8  2  0
  9  5  1  0
 10  7  1  0
 11 10  1  0
 11 12  1  6
 13 12  1  0
 14 13  1  0
 14 15  2  0
 16 11  1  0
 17 16  2  0
 18 14  1  0
 19 20  1  0
 20 21  1  0
 22 21  1  0
 23 22  1  1
 23 24  1  0
 24 16  1  0
 25 23  1  0
 26 25  2  0
 27 25  1  0
M  END
$$$$
