EEM.pdb
     RDKit          3D

 27 26  0  0  1  0  0  0  0  0999 V2000
    7.2971  -17.2758   19.6311 N   0  0  0  0  0  0  0  0  0  0  0  0
    8.4688  -16.5635   20.0928 C   0  0  1  0  0  0  0  0  0  0  0  0
    8.3082  -15.1040   19.8728 C   0  0  0  0  0  0  0  0  0  0  0  0
    8.4090  -14.7266   18.4339 C   0  0  0  0  0  0  0  0  0  0  0  0
    8.2622  -13.2846   18.1570 C   0  0  0  0  0  0  0  0  0  0  0  0
    8.6334  -12.3746   18.9304 O   0  0  0  0  0  0  0  0  0  0  0  0
    8.6093  -16.8812   21.5487 C   0  0  0  0  0  0  0  0  0  0  0  0
    7.5657  -16.8874   22.2436 O   0  0  0  0  0  0  0  0  0  0  0  0
    7.6739  -12.8816   16.9606 O   0  0  0  0  0  0  0  0  0  0  0  0
    9.8298  -17.1673   22.1631 N   0  0  0  0  0  0  0  0  0  0  0  0
    9.9537  -17.5470   23.5981 C   0  0  1  0  0  0  0  0  0  0  0  0
   11.1684  -18.4115   23.6949 C   0  0  0  0  0  0  0  0  0  0  0  0
   11.5695  -18.8913   25.0399 C   0  0  0  0  0  0  0  0  0  0  0  0
   12.8124  -19.7272   25.0187 C   0  0  0  0  0  0  0  0  0  0  0  0
   13.1785  -20.4863   25.9220 O   0  0  0  0  0  0  0  0  0  0  0  0
    9.9811  -16.2953   24.3453 C   0  0  0  0  0  0  0  0  0  0  0  0
   10.7251  -15.3227   23.9664 O   0  0  0  0  0  0  0  0  0  0  0  0
   13.5853  -19.5953   23.8500 O   0  0  0  0  0  0  0  0  0  0  0  0
    6.4939  -11.2899   25.1650 C   0  0  0  0  0  0  0  0  0  0  0  0
    6.5403  -11.9171   26.8565 S   0  0  0  0  0  0  0  0  0  0  0  0
    8.0464  -12.8944   27.0870 C   0  0  0  0  0  0  0  0  0  0  0  0
    8.0816  -14.0768   26.1627 C   0  0  0  0  0  0  0  0  0  0  0  0
    9.3612  -14.8393   26.2769 C   0  0  2  0  0  0  0  0  0  0  0  0
    9.2086  -16.0842   25.4966 N   0  0  0  0  0  0  0  0  0  0  0  0
    9.7665  -15.1813   27.6423 C   0  0  0  0  0  0  0  0  0  0  0  0
    9.7419  -16.3508   28.0923 O   0  0  0  0  0  0  0  0  0  0  0  0
   10.2028  -14.1898   28.5021 O   0  0  0  0  0  0  0  0  0  0  0  0
  2  1  1  1
  2  3  1  0
  4  3  1  0
  4  5  1  0
  5  6  2  0
  7  2  1  0
  7  8  2  0
  9  5  1  0
 10  7  1  0
 11 10  1  0
 11 12  1  6
 13 12  1  0
 14 13  1  0
 14 15  2  0
 16 11  1  0
 17 16  2  0
 18 14  1  0
 19 20  1  0
 20 21  1  0
 22 21  1  0
 23 22  1  1
 23 24  1  0
 24 16  1  0
 25 23  1  0
 26 25  2  0
 27 25  1  0
M  END
$$$$
