EEM.pdb
     RDKit          3D

 27 26  0  0  1  0  0  0  0  0999 V2000
    9.7283  -14.6195   18.0181 N   0  0  0  0  0  0  0  0  0  0  0  0
   10.6055  -15.3503   18.9067 C   0  0  1  0  0  0  0  0  0  0  0  0
   11.7376  -14.4923   19.3385 C   0  0  0  0  0  0  0  0  0  0  0  0
   12.9992  -14.7953   18.6039 C   0  0  0  0  0  0  0  0  0  0  0  0
   14.1757  -14.0194   19.0413 C   0  0  0  0  0  0  0  0  0  0  0  0
   14.3807  -13.6486   20.2181 O   0  0  0  0  0  0  0  0  0  0  0  0
    9.7680  -15.7723   20.0734 C   0  0  0  0  0  0  0  0  0  0  0  0
    8.7044  -15.1419   20.2812 O   0  0  0  0  0  0  0  0  0  0  0  0
   15.1389  -13.6623   18.1008 O   0  0  0  0  0  0  0  0  0  0  0  0
   10.1088  -16.8202   20.9305 N   0  0  0  0  0  0  0  0  0  0  0  0
    9.1897  -17.3556   21.9733 C   0  0  1  0  0  0  0  0  0  0  0  0
    9.4345  -18.8285   22.0252 C   0  0  0  0  0  0  0  0  0  0  0  0
    8.3205  -19.7281   21.6382 C   0  0  0  0  0  0  0  0  0  0  0  0
    8.2769  -20.9896   22.4448 C   0  0  0  0  0  0  0  0  0  0  0  0
    8.2125  -21.0480   23.6772 O   0  0  0  0  0  0  0  0  0  0  0  0
    9.4760  -16.6022   23.1882 C   0  0  0  0  0  0  0  0  0  0  0  0
   10.6832  -16.3229   23.5163 O   0  0  0  0  0  0  0  0  0  0  0  0
    8.3155  -22.1721   21.6825 O   0  0  0  0  0  0  0  0  0  0  0  0
    6.7423  -10.5234   26.4363 C   0  0  0  0  0  0  0  0  0  0  0  0
    6.3460  -12.2730   26.2401 S   0  0  0  0  0  0  0  0  0  0  0  0
    7.8419  -13.1707   25.7573 C   0  0  0  0  0  0  0  0  0  0  0  0
    7.6042  -14.6524   25.7142 C   0  0  0  0  0  0  0  0  0  0  0  0
    8.8203  -15.4024   25.2777 C   0  0  2  0  0  0  0  0  0  0  0  0
    8.4686  -16.1447   24.0500 N   0  0  0  0  0  0  0  0  0  0  0  0
    9.3633  -16.3419   26.2617 C   0  0  0  0  0  0  0  0  0  0  0  0
    9.0518  -17.5553   26.2956 O   0  0  0  0  0  0  0  0  0  0  0  0
   10.2654  -15.9013   27.2128 O   0  0  0  0  0  0  0  0  0  0  0  0
  2  1  1  6
  2  3  1  0
  4  3  1  0
  4  5  1  0
  5  6  2  0
  7  2  1  0
  7  8  2  0
  9  5  1  0
 10  7  1  0
 11 10  1  0
 11 12  1  1
 13 12  1  0
 14 13  1  0
 14 15  2  0
 16 11  1  0
 17 16  2  0
 18 14  1  0
 19 20  1  0
 20 21  1  0
 22 21  1  0
 23 22  1  1
 23 24  1  0
 24 16  1  0
 25 23  1  0
 26 25  2  0
 27 25  1  0
M  END
$$$$
