EEM.pdb
     RDKit          3D

 27 26  0  0  1  0  0  0  0  0999 V2000
    9.8663  -18.7990   19.1908 N   0  0  0  0  0  0  0  0  0  0  0  0
   10.8711  -18.7914   20.2319 C   0  0  1  0  0  0  0  0  0  0  0  0
   11.8876  -17.7431   19.9634 C   0  0  0  0  0  0  0  0  0  0  0  0
   12.7632  -18.0772   18.8037 C   0  0  0  0  0  0  0  0  0  0  0  0
   13.8184  -17.0869   18.5149 C   0  0  0  0  0  0  0  0  0  0  0  0
   14.5380  -16.5465   19.3835 O   0  0  0  0  0  0  0  0  0  0  0  0
   10.1469  -18.5296   21.5154 C   0  0  0  0  0  0  0  0  0  0  0  0
    9.0365  -17.9515   21.4466 O   0  0  0  0  0  0  0  0  0  0  0  0
   14.0501  -16.7104   17.1941 O   0  0  0  0  0  0  0  0  0  0  0  0
   10.6408  -18.8930   22.7695 N   0  0  0  0  0  0  0  0  0  0  0  0
    9.8698  -18.7233   24.0327 C   0  0  1  0  0  0  0  0  0  0  0  0
   10.3917  -19.7551   24.9789 C   0  0  0  0  0  0  0  0  0  0  0  0
    9.8923  -19.7274   26.3753 C   0  0  0  0  0  0  0  0  0  0  0  0
   10.4924  -20.7974   27.2349 C   0  0  0  0  0  0  0  0  0  0  0  0
   11.4466  -20.6445   28.0045 O   0  0  0  0  0  0  0  0  0  0  0  0
   10.0413  -17.3298   24.4255 C   0  0  0  0  0  0  0  0  0  0  0  0
   11.1656  -16.7365   24.2601 O   0  0  0  0  0  0  0  0  0  0  0  0
    9.8776  -22.0577   27.1133 O   0  0  0  0  0  0  0  0  0  0  0  0
    6.7166  -10.6849   27.0738 C   0  0  0  0  0  0  0  0  0  0  0  0
    6.4666  -12.3614   26.4547 S   0  0  0  0  0  0  0  0  0  0  0  0
    8.0722  -13.1816   26.2946 C   0  0  0  0  0  0  0  0  0  0  0  0
    7.9422  -14.5192   25.6257 C   0  0  0  0  0  0  0  0  0  0  0  0
    9.2652  -15.1923   25.4572 C   0  0  2  0  0  0  0  0  0  0  0  0
    9.0074  -16.5704   24.9922 N   0  0  0  0  0  0  0  0  0  0  0  0
   10.0987  -15.2452   26.6606 C   0  0  0  0  0  0  0  0  0  0  0  0
   10.0637  -16.1949   27.4776 O   0  0  0  0  0  0  0  0  0  0  0  0
   10.9773  -14.2139   26.9381 O   0  0  0  0  0  0  0  0  0  0  0  0
  2  1  1  6
  2  3  1  0
  4  3  1  0
  4  5  1  0
  5  6  2  0
  7  2  1  0
  7  8  2  0
  9  5  1  0
 10  7  1  0
 11 10  1  0
 11 12  1  1
 13 12  1  0
 14 13  1  0
 14 15  2  0
 16 11  1  0
 17 16  2  0
 18 14  1  0
 19 20  1  0
 20 21  1  0
 22 21  1  0
 23 22  1  1
 23 24  1  0
 24 16  1  0
 25 23  1  0
 26 25  2  0
 27 25  1  0
M  END
$$$$
