EEM.pdb
     RDKit          3D

 27 26  0  0  1  0  0  0  0  0999 V2000
    9.3108  -13.1384   18.9746 N   0  0  0  0  0  0  0  0  0  0  0  0
    8.0217  -13.7792   19.1200 C   0  0  1  0  0  0  0  0  0  0  0  0
    7.5688  -14.3334   17.8192 C   0  0  0  0  0  0  0  0  0  0  0  0
    8.4205  -13.8890   16.6789 C   0  0  0  0  0  0  0  0  0  0  0  0
    8.0804  -14.4925   15.3760 C   0  0  0  0  0  0  0  0  0  0  0  0
    7.1605  -15.3212   15.1990 O   0  0  0  0  0  0  0  0  0  0  0  0
    8.2008  -14.8612   20.1386 C   0  0  0  0  0  0  0  0  0  0  0  0
    7.1915  -15.5370   20.4494 O   0  0  0  0  0  0  0  0  0  0  0  0
    8.8175  -14.1327   14.2503 O   0  0  0  0  0  0  0  0  0  0  0  0
    9.4209  -15.1511   20.7518 N   0  0  0  0  0  0  0  0  0  0  0  0
    9.5829  -16.2033   21.7937 C   0  0  1  0  0  0  0  0  0  0  0  0
   10.8913  -16.8675   21.5124 C   0  0  0  0  0  0  0  0  0  0  0  0
   10.9469  -17.8370   20.3913 C   0  0  0  0  0  0  0  0  0  0  0  0
   12.3081  -18.4310   20.1954 C   0  0  0  0  0  0  0  0  0  0  0  0
   13.3040  -18.1773   20.8811 O   0  0  0  0  0  0  0  0  0  0  0  0
    9.4580  -15.5225   23.0769 C   0  0  0  0  0  0  0  0  0  0  0  0
    9.8473  -14.3090   23.2149 O   0  0  0  0  0  0  0  0  0  0  0  0
   12.3987  -19.3450   19.1290 O   0  0  0  0  0  0  0  0  0  0  0  0
    6.9990  -10.7719   26.4062 C   0  0  0  0  0  0  0  0  0  0  0  0
    6.1342  -12.3491   26.2603 S   0  0  0  0  0  0  0  0  0  0  0  0
    7.3024  -13.6979   26.5645 C   0  0  0  0  0  0  0  0  0  0  0  0
    7.5937  -14.4668   25.3085 C   0  0  0  0  0  0  0  0  0  0  0  0
    8.7622  -15.3834   25.4711 C   0  0  2  0  0  0  0  0  0  0  0  0
    8.9126  -16.1404   24.2116 N   0  0  0  0  0  0  0  0  0  0  0  0
    8.6657  -16.3295   26.5852 C   0  0  0  0  0  0  0  0  0  0  0  0
    8.5006  -17.5616   26.4260 O   0  0  0  0  0  0  0  0  0  0  0  0
    8.7574  -15.8743   27.8878 O   0  0  0  0  0  0  0  0  0  0  0  0
  2  1  1  6
  2  3  1  0
  4  3  1  0
  4  5  1  0
  5  6  2  0
  7  2  1  0
  7  8  2  0
  9  5  1  0
 10  7  1  0
 11 10  1  0
 11 12  1  1
 13 12  1  0
 14 13  1  0
 14 15  2  0
 16 11  1  0
 17 16  2  0
 18 14  1  0
 19 20  1  0
 20 21  1  0
 22 21  1  0
 23 22  1  6
 23 24  1  0
 24 16  1  0
 25 23  1  0
 26 25  2  0
 27 25  1  0
M  END
$$$$
