EEM.pdb
     RDKit          3D

 27 26  0  0  1  0  0  0  0  0999 V2000
    7.1342  -19.2922   19.1885 N   0  0  0  0  0  0  0  0  0  0  0  0
    8.1773  -19.1344   20.1786 C   0  0  1  0  0  0  0  0  0  0  0  0
    9.2070  -18.1784   19.6987 C   0  0  0  0  0  0  0  0  0  0  0  0
   10.4091  -18.8624   19.1418 C   0  0  0  0  0  0  0  0  0  0  0  0
   11.4544  -17.9592   18.6229 C   0  0  0  0  0  0  0  0  0  0  0  0
   11.9914  -18.0710   17.4989 O   0  0  0  0  0  0  0  0  0  0  0  0
    7.5082  -18.6340   21.4205 C   0  0  0  0  0  0  0  0  0  0  0  0
    6.5184  -17.8774   21.2805 O   0  0  0  0  0  0  0  0  0  0  0  0
   11.8912  -16.9023   19.4178 O   0  0  0  0  0  0  0  0  0  0  0  0
    7.9269  -18.9643   22.7106 N   0  0  0  0  0  0  0  0  0  0  0  0
    7.1830  -18.5673   23.9386 C   0  0  1  0  0  0  0  0  0  0  0  0
    7.2416  -19.7438   24.8575 C   0  0  0  0  0  0  0  0  0  0  0  0
    6.2073  -20.7952   24.7007 C   0  0  0  0  0  0  0  0  0  0  0  0
    6.3397  -21.9032   25.7000 C   0  0  0  0  0  0  0  0  0  0  0  0
    7.1889  -21.9603   26.5955 O   0  0  0  0  0  0  0  0  0  0  0  0
    7.8095  -17.3380   24.4097 C   0  0  0  0  0  0  0  0  0  0  0  0
    9.0693  -17.1489   24.2672 O   0  0  0  0  0  0  0  0  0  0  0  0
    5.3926  -22.9346   25.5577 O   0  0  0  0  0  0  0  0  0  0  0  0
    6.7345   -9.9760   27.0433 C   0  0  0  0  0  0  0  0  0  0  0  0
    5.9771  -11.5083   26.4642 S   0  0  0  0  0  0  0  0  0  0  0  0
    7.2717  -12.7414   26.1815 C   0  0  0  0  0  0  0  0  0  0  0  0
    6.6981  -14.0369   25.6851 C   0  0  0  0  0  0  0  0  0  0  0  0
    7.7599  -15.0524   25.4141 C   0  0  2  0  0  0  0  0  0  0  0  0
    7.0859  -16.3095   25.0304 N   0  0  0  0  0  0  0  0  0  0  0  0
    8.6680  -15.3222   26.5313 C   0  0  0  0  0  0  0  0  0  0  0  0
    9.5514  -14.5163   26.9068 O   0  0  0  0  0  0  0  0  0  0  0  0
    8.5728  -16.5138   27.2266 O   0  0  0  0  0  0  0  0  0  0  0  0
  2  1  1  6
  2  3  1  0
  4  3  1  0
  4  5  1  0
  5  6  2  0
  7  2  1  0
  7  8  2  0
  9  5  1  0
 10  7  1  0
 11 10  1  0
 11 12  1  1
 13 12  1  0
 14 13  1  0
 14 15  2  0
 16 11  1  0
 17 16  2  0
 18 14  1  0
 19 20  1  0
 20 21  1  0
 22 21  1  0
 23 22  1  1
 23 24  1  0
 24 16  1  0
 25 23  1  0
 26 25  2  0
 27 25  1  0
M  END
$$$$
