EEM.pdb
     RDKit          3D

 27 26  0  0  1  0  0  0  0  0999 V2000
    7.4550  -14.4902   18.4884 N   0  0  0  0  0  0  0  0  0  0  0  0
    8.7320  -14.6496   19.1495 C   0  0  1  0  0  0  0  0  0  0  0  0
    9.3556  -13.3255   19.3986 C   0  0  0  0  0  0  0  0  0  0  0  0
   10.0885  -12.8041   18.2094 C   0  0  0  0  0  0  0  0  0  0  0  0
   11.3074  -13.5548   17.8513 C   0  0  0  0  0  0  0  0  0  0  0  0
   12.2767  -13.7381   18.6202 O   0  0  0  0  0  0  0  0  0  0  0  0
    8.4560  -15.3700   20.4323 C   0  0  0  0  0  0  0  0  0  0  0  0
    7.4031  -15.0766   21.0465 O   0  0  0  0  0  0  0  0  0  0  0  0
   11.4120  -14.1077   16.5772 O   0  0  0  0  0  0  0  0  0  0  0  0
    9.3027  -16.3402   20.9714 N   0  0  0  0  0  0  0  0  0  0  0  0
    9.0186  -17.0564   22.2463 C   0  0  1  0  0  0  0  0  0  0  0  0
    9.9080  -18.2568   22.2546 C   0  0  0  0  0  0  0  0  0  0  0  0
    9.9044  -19.1108   23.4673 C   0  0  0  0  0  0  0  0  0  0  0  0
   10.2006  -20.5495   23.1735 C   0  0  0  0  0  0  0  0  0  0  0  0
   11.3260  -21.0589   23.1586 O   0  0  0  0  0  0  0  0  0  0  0  0
    9.2258  -16.0819   23.3108 C   0  0  0  0  0  0  0  0  0  0  0  0
   10.2517  -15.3135   23.3044 O   0  0  0  0  0  0  0  0  0  0  0  0
    9.0657  -21.3355   22.8995 O   0  0  0  0  0  0  0  0  0  0  0  0
    6.1924  -10.7970   28.0339 C   0  0  0  0  0  0  0  0  0  0  0  0
    6.0204  -11.9560   26.6614 S   0  0  0  0  0  0  0  0  0  0  0  0
    7.4558  -13.0584   26.6308 C   0  0  0  0  0  0  0  0  0  0  0  0
    7.3846  -14.0221   25.4820 C   0  0  0  0  0  0  0  0  0  0  0  0
    8.5845  -14.9100   25.4205 C   0  0  2  0  0  0  0  0  0  0  0  0
    8.3319  -15.9280   24.3804 N   0  0  0  0  0  0  0  0  0  0  0  0
    8.9280  -15.5863   26.6736 C   0  0  0  0  0  0  0  0  0  0  0  0
    8.6353  -16.7818   26.9100 O   0  0  0  0  0  0  0  0  0  0  0  0
    9.6080  -14.9016   27.6641 O   0  0  0  0  0  0  0  0  0  0  0  0
  2  1  1  1
  2  3  1  0
  4  3  1  0
  4  5  1  0
  5  6  2  0
  7  2  1  0
  7  8  2  0
  9  5  1  0
 10  7  1  0
 11 10  1  0
 11 12  1  1
 13 12  1  0
 14 13  1  0
 14 15  2  0
 16 11  1  0
 17 16  2  0
 18 14  1  0
 19 20  1  0
 20 21  1  0
 22 21  1  0
 23 22  1  1
 23 24  1  0
 24 16  1  0
 25 23  1  0
 26 25  2  0
 27 25  1  0
M  END
$$$$
