EEM.pdb
     RDKit          3D

 27 26  0  0  1  0  0  0  0  0999 V2000
    9.3048  -12.8692   19.1521 N   0  0  0  0  0  0  0  0  0  0  0  0
    8.0292  -13.5259   19.3392 C   0  0  1  0  0  0  0  0  0  0  0  0
    7.4736  -13.9607   18.0328 C   0  0  0  0  0  0  0  0  0  0  0  0
    8.4190  -13.7315   16.9028 C   0  0  0  0  0  0  0  0  0  0  0  0
    8.6077  -14.8873   16.0051 C   0  0  0  0  0  0  0  0  0  0  0  0
    9.5932  -15.6567   16.0405 O   0  0  0  0  0  0  0  0  0  0  0  0
    8.2846  -14.6959   20.2372 C   0  0  0  0  0  0  0  0  0  0  0  0
    7.3154  -15.4461   20.5011 O   0  0  0  0  0  0  0  0  0  0  0  0
    7.6382  -15.1634   15.0441 O   0  0  0  0  0  0  0  0  0  0  0  0
    9.5333  -14.9890   20.7884 N   0  0  0  0  0  0  0  0  0  0  0  0
    9.7658  -16.1172   21.7328 C   0  0  1  0  0  0  0  0  0  0  0  0
   10.9900  -16.8210   21.2447 C   0  0  0  0  0  0  0  0  0  0  0  0
   11.4894  -17.9697   22.0391 C   0  0  0  0  0  0  0  0  0  0  0  0
   12.7113  -18.6046   21.4494 C   0  0  0  0  0  0  0  0  0  0  0  0
   13.5651  -19.2350   22.0819 O   0  0  0  0  0  0  0  0  0  0  0  0
    9.8402  -15.5217   23.0616 C   0  0  0  0  0  0  0  0  0  0  0  0
   10.2659  -14.3229   23.2189 O   0  0  0  0  0  0  0  0  0  0  0  0
   12.8438  -18.4361   20.0584 O   0  0  0  0  0  0  0  0  0  0  0  0
    6.6778  -11.2352   27.6501 C   0  0  0  0  0  0  0  0  0  0  0  0
    6.9120  -12.1845   26.1333 S   0  0  0  0  0  0  0  0  0  0  0  0
    7.9319  -13.6362   26.4922 C   0  0  0  0  0  0  0  0  0  0  0  0
    8.2551  -14.4036   25.2431 C   0  0  0  0  0  0  0  0  0  0  0  0
    9.2631  -15.4781   25.4907 C   0  0  2  0  0  0  0  0  0  0  0  0
    9.4551  -16.2092   24.2217 N   0  0  0  0  0  0  0  0  0  0  0  0
    8.9122  -16.4356   26.5422 C   0  0  0  0  0  0  0  0  0  0  0  0
    8.7590  -16.1100   27.7427 O   0  0  0  0  0  0  0  0  0  0  0  0
    8.7340  -17.7708   26.2290 O   0  0  0  0  0  0  0  0  0  0  0  0
  2  1  1  6
  2  3  1  0
  4  3  1  0
  4  5  1  0
  5  6  2  0
  7  2  1  0
  7  8  2  0
  9  5  1  0
 10  7  1  0
 11 10  1  0
 11 12  1  6
 13 12  1  0
 14 13  1  0
 14 15  2  0
 16 11  1  0
 17 16  2  0
 18 14  1  0
 19 20  1  0
 20 21  1  0
 22 21  1  0
 23 22  1  6
 23 24  1  0
 24 16  1  0
 25 23  1  0
 26 25  2  0
 27 25  1  0
M  END
$$$$
