EEM.pdb
     RDKit          3D

 27 26  0  0  1  0  0  0  0  0999 V2000
    6.4307  -16.3966   20.6697 N   0  0  0  0  0  0  0  0  0  0  0  0
    7.8332  -16.1417   20.9172 C   0  0  1  0  0  0  0  0  0  0  0  0
    8.1545  -14.7157   20.6569 C   0  0  0  0  0  0  0  0  0  0  0  0
    7.9790  -14.3407   19.2246 C   0  0  0  0  0  0  0  0  0  0  0  0
    8.2566  -12.9252   18.9134 C   0  0  0  0  0  0  0  0  0  0  0  0
    7.8488  -12.3329   17.8900 O   0  0  0  0  0  0  0  0  0  0  0  0
    8.0814  -16.5019   22.3487 C   0  0  0  0  0  0  0  0  0  0  0  0
    7.2335  -16.1314   23.1947 O   0  0  0  0  0  0  0  0  0  0  0  0
    9.0218  -12.1742   19.8023 O   0  0  0  0  0  0  0  0  0  0  0  0
    9.1965  -17.2210   22.7824 N   0  0  0  0  0  0  0  0  0  0  0  0
    9.4183  -17.6070   24.2040 C   0  0  1  0  0  0  0  0  0  0  0  0
   10.4919  -18.6460   24.1888 C   0  0  0  0  0  0  0  0  0  0  0  0
   10.9589  -19.1759   25.4931 C   0  0  0  0  0  0  0  0  0  0  0  0
   12.0535  -20.1894   25.3574 C   0  0  0  0  0  0  0  0  0  0  0  0
   12.5829  -20.5317   24.2949 O   0  0  0  0  0  0  0  0  0  0  0  0
    9.7159  -16.3699   24.9158 C   0  0  0  0  0  0  0  0  0  0  0  0
    9.8969  -15.2739   24.2763 O   0  0  0  0  0  0  0  0  0  0  0  0
   12.4713  -20.7643   26.5722 O   0  0  0  0  0  0  0  0  0  0  0  0
    6.9378  -11.8644   25.2844 C   0  0  0  0  0  0  0  0  0  0  0  0
    7.0399  -12.0640   27.0751 S   0  0  0  0  0  0  0  0  0  0  0  0
    8.5452  -12.9815   27.4860 C   0  0  0  0  0  0  0  0  0  0  0  0
    8.6694  -14.2310   26.6634 C   0  0  0  0  0  0  0  0  0  0  0  0
    9.9080  -14.9984   26.9936 C   0  0  2  0  0  0  0  0  0  0  0  0
    9.8160  -16.3062   26.3132 N   0  0  0  0  0  0  0  0  0  0  0  0
   10.1442  -15.2216   28.4219 C   0  0  0  0  0  0  0  0  0  0  0  0
   10.0286  -16.3433   28.9688 O   0  0  0  0  0  0  0  0  0  0  0  0
   10.5140  -14.1652   29.2342 O   0  0  0  0  0  0  0  0  0  0  0  0
  2  1  1  1
  2  3  1  0
  4  3  1  0
  4  5  1  0
  5  6  2  0
  7  2  1  0
  7  8  2  0
  9  5  1  0
 10  7  1  0
 11 10  1  0
 11 12  1  6
 13 12  1  0
 14 13  1  0
 14 15  2  0
 16 11  1  0
 17 16  2  0
 18 14  1  0
 19 20  1  0
 20 21  1  0
 22 21  1  0
 23 22  1  1
 23 24  1  0
 24 16  1  0
 25 23  1  0
 26 25  2  0
 27 25  1  0
M  END
$$$$
