EEM.pdb
     RDKit          3D

 27 26  0  0  1  0  0  0  0  0999 V2000
   14.1683  -18.5407   20.5941 N   0  0  0  0  0  0  0  0  0  0  0  0
   13.3918  -17.3532   20.3107 C   0  0  1  0  0  0  0  0  0  0  0  0
   13.0215  -17.3069   18.8737 C   0  0  0  0  0  0  0  0  0  0  0  0
   12.8614  -18.6646   18.2788 C   0  0  0  0  0  0  0  0  0  0  0  0
   13.6590  -18.9087   17.0615 C   0  0  0  0  0  0  0  0  0  0  0  0
   13.4213  -18.3960   15.9457 O   0  0  0  0  0  0  0  0  0  0  0  0
   12.1773  -17.4251   21.1826 C   0  0  0  0  0  0  0  0  0  0  0  0
   11.3091  -16.5316   21.0414 O   0  0  0  0  0  0  0  0  0  0  0  0
   14.7564  -19.7634   17.1314 O   0  0  0  0  0  0  0  0  0  0  0  0
   11.9664  -18.4255   22.1332 N   0  0  0  0  0  0  0  0  0  0  0  0
   10.6881  -18.5869   22.8806 C   0  0  1  0  0  0  0  0  0  0  0  0
   10.6885  -19.9857   23.4058 C   0  0  0  0  0  0  0  0  0  0  0  0
    9.5875  -20.3818   24.3172 C   0  0  0  0  0  0  0  0  0  0  0  0
    9.7066  -21.7936   24.8034 C   0  0  0  0  0  0  0  0  0  0  0  0
   10.5470  -22.6134   24.4187 O   0  0  0  0  0  0  0  0  0  0  0  0
   10.6621  -17.5170   23.8707 C   0  0  0  0  0  0  0  0  0  0  0  0
   11.7444  -17.1120   24.4256 O   0  0  0  0  0  0  0  0  0  0  0  0
    8.7574  -22.1585   25.7764 O   0  0  0  0  0  0  0  0  0  0  0  0
    6.8253  -11.3485   26.8450 C   0  0  0  0  0  0  0  0  0  0  0  0
    6.8142  -12.7259   25.6790 S   0  0  0  0  0  0  0  0  0  0  0  0
    8.2283  -13.8035   26.0187 C   0  0  0  0  0  0  0  0  0  0  0  0
    8.3368  -14.9047   25.0041 C   0  0  0  0  0  0  0  0  0  0  0  0
    9.5148  -15.7873   25.2590 C   0  0  2  0  0  0  0  0  0  0  0  0
    9.4771  -16.8783   24.2639 N   0  0  0  0  0  0  0  0  0  0  0  0
    9.5816  -16.3706   26.6010 C   0  0  0  0  0  0  0  0  0  0  0  0
   10.1579  -15.8120   27.5635 O   0  0  0  0  0  0  0  0  0  0  0  0
    8.9903  -17.5953   26.8520 O   0  0  0  0  0  0  0  0  0  0  0  0
  2  1  1  6
  2  3  1  0
  4  3  1  0
  4  5  1  0
  5  6  2  0
  7  2  1  0
  7  8  2  0
  9  5  1  0
 10  7  1  0
 11 10  1  0
 11 12  1  1
 13 12  1  0
 14 13  1  0
 14 15  2  0
 16 11  1  0
 17 16  2  0
 18 14  1  0
 19 20  1  0
 20 21  1  0
 22 21  1  0
 23 22  1  1
 23 24  1  0
 24 16  1  0
 25 23  1  0
 26 25  2  0
 27 25  1  0
M  END
$$$$
