EEM.pdb
     RDKit          3D

 27 26  0  0  1  0  0  0  0  0999 V2000
    9.6301  -13.2706   19.0440 N   0  0  0  0  0  0  0  0  0  0  0  0
    8.2748  -13.4852   19.5028 C   0  0  1  0  0  0  0  0  0  0  0  0
    7.4047  -13.8987   18.3731 C   0  0  0  0  0  0  0  0  0  0  0  0
    7.9954  -13.5698   17.0442 C   0  0  0  0  0  0  0  0  0  0  0  0
    8.3198  -14.7369   16.2014 C   0  0  0  0  0  0  0  0  0  0  0  0
    9.4729  -15.0345   15.8191 O   0  0  0  0  0  0  0  0  0  0  0  0
    8.3479  -14.5515   20.5507 C   0  0  0  0  0  0  0  0  0  0  0  0
    7.2657  -15.0144   20.9825 O   0  0  0  0  0  0  0  0  0  0  0  0
    7.2915  -15.5810   15.7894 O   0  0  0  0  0  0  0  0  0  0  0  0
    9.5466  -15.0496   21.0642 N   0  0  0  0  0  0  0  0  0  0  0  0
    9.6126  -16.1511   22.0649 C   0  0  1  0  0  0  0  0  0  0  0  0
   10.8909  -16.8771   21.7988 C   0  0  0  0  0  0  0  0  0  0  0  0
   10.9052  -17.8695   20.6965 C   0  0  0  0  0  0  0  0  0  0  0  0
   12.2338  -18.5403   20.5273 C   0  0  0  0  0  0  0  0  0  0  0  0
   13.1245  -18.1766   19.7522 O   0  0  0  0  0  0  0  0  0  0  0  0
    9.4806  -15.5172   23.3712 C   0  0  0  0  0  0  0  0  0  0  0  0
   10.2538  -14.5535   23.7125 O   0  0  0  0  0  0  0  0  0  0  0  0
   12.4257  -19.6707   21.3435 O   0  0  0  0  0  0  0  0  0  0  0  0
    6.2038  -11.3415   25.9202 C   0  0  0  0  0  0  0  0  0  0  0  0
    7.2372  -12.2581   27.0816 S   0  0  0  0  0  0  0  0  0  0  0  0
    6.7769  -14.0080   27.0337 C   0  0  0  0  0  0  0  0  0  0  0  0
    7.0492  -14.6116   25.6864 C   0  0  0  0  0  0  0  0  0  0  0  0
    8.4134  -15.2156   25.6086 C   0  0  2  0  0  0  0  0  0  0  0  0
    8.5178  -15.9134   24.3108 N   0  0  0  0  0  0  0  0  0  0  0  0
    8.7439  -16.1564   26.6816 C   0  0  0  0  0  0  0  0  0  0  0  0
    8.7273  -17.4006   26.5318 O   0  0  0  0  0  0  0  0  0  0  0  0
    9.0955  -15.6820   27.9321 O   0  0  0  0  0  0  0  0  0  0  0  0
  2  1  1  6
  2  3  1  0
  4  3  1  0
  4  5  1  0
  5  6  2  0
  7  2  1  0
  7  8  2  0
  9  5  1  0
 10  7  1  0
 11 10  1  0
 11 12  1  1
 13 12  1  0
 14 13  1  0
 14 15  2  0
 16 11  1  0
 17 16  2  0
 18 14  1  0
 19 20  1  0
 20 21  1  0
 22 21  1  0
 23 22  1  1
 23 24  1  0
 24 16  1  0
 25 23  1  0
 26 25  2  0
 27 25  1  0
M  END
$$$$
