PPF.pdb
     RDKit          3D

 26 28  0  0  1  0  0  0  0  0999 V2000
   15.1817  -20.2534    1.0524 N   0  0  0  0  0  0  0  0  0  0  0  0
   13.7766  -20.1005    0.6111 C   0  0  0  0  0  0  0  0  0  0  0  0
   13.0803  -19.6436    1.8512 C   0  0  0  0  0  0  0  0  0  0  0  0
   14.1201  -18.8141    2.5727 C   0  0  0  0  0  0  0  0  0  0  0  0
   15.3762  -19.0197    1.7287 C   0  0  1  0  0  0  0  0  0  0  0  0
   16.6184  -18.9203    2.5096 C   0  0  0  0  0  0  0  0  0  0  0  0
   16.8887  -19.9847    3.1786 O   0  0  0  0  0  0  0  0  0  0  0  0
   17.4449  -17.7995    2.5418 N   0  0  0  0  0  0  0  0  0  0  0  0
   17.6525  -16.8556    1.4118 C   0  0  0  0  0  0  0  0  0  0  0  0
   17.7409  -15.4798    2.1168 C   0  0  0  0  0  0  0  0  0  0  0  0
   17.5692  -15.8080    3.6143 C   0  0  0  0  0  0  0  0  0  0  0  0
   18.2078  -17.2064    3.5798 C   0  0  1  0  0  0  0  0  0  0  0  0
   18.3560  -17.8360    4.8617 C   0  0  0  0  0  0  0  0  0  0  0  0
   17.4610  -18.5259    5.3963 O   0  0  0  0  0  0  0  0  0  0  0  0
   19.5786  -17.7037    5.6246 N   0  0  0  0  0  0  0  0  0  0  0  0
   19.8480  -18.6455    6.6786 C   0  0  1  0  0  0  0  0  0  0  0  0
   19.9200  -20.0649    6.1219 C   0  0  0  0  0  0  0  0  0  0  0  0
   20.0269  -21.0368    7.2305 C   0  0  0  0  0  0  0  0  0  0  0  0
   21.2155  -21.6697    7.5081 C   0  0  0  0  0  0  0  0  0  0  0  0
   21.3045  -22.5884    8.5581 C   0  0  0  0  0  0  0  0  0  0  0  0
   20.1929  -22.8634    9.3228 C   0  0  0  0  0  0  0  0  0  0  0  0
   19.0061  -22.2374    9.0529 C   0  0  0  0  0  0  0  0  0  0  0  0
   18.9160  -21.3295    8.0159 C   0  0  0  0  0  0  0  0  0  0  0  0
   21.0929  -18.3247    7.4036 C   0  0  0  0  0  0  0  0  0  0  0  0
   22.1356  -18.0419    6.7902 O   0  0  0  0  0  0  0  0  0  0  0  0
   21.1006  -18.3389    8.8033 O   0  0  0  0  0  0  0  0  0  0  0  0
  1  2  1  0
  3  2  1  0
  4  5  1  0
  4  3  1  0
  5  1  1  0
  5  6  1  1
  7  6  2  0
  8  6  1  0
  8 12  1  0
  9 10  1  0
  9  8  1  0
 10 11  1  0
 11 12  1  0
 12 13  1  1
 13 14  2  0
 15 16  1  0
 15 13  1  0
 16 24  1  0
 16 17  1  6
 18 17  1  0
 19 18  2  0
 20 19  1  0
 21 22  1  0
 21 20  2  0
 22 23  2  0
 23 18  1  0
 24 25  2  0
 24 26  1  0
M  END
$$$$
