PPF.pdb
     RDKit          3D

 26 28  0  0  1  0  0  0  0  0999 V2000
   26.8317  -18.2822  -15.5488 N   0  0  0  0  0  0  0  0  0  0  0  0
   27.9072  -17.8750  -16.4815 C   0  0  0  0  0  0  0  0  0  0  0  0
   28.9029  -17.2170  -15.5833 C   0  0  0  0  0  0  0  0  0  0  0  0
   28.7839  -17.9788  -14.2812 C   0  0  0  0  0  0  0  0  0  0  0  0
   27.5969  -18.9074  -14.5286 C   0  0  1  0  0  0  0  0  0  0  0  0
   26.8570  -19.2373  -13.3012 C   0  0  0  0  0  0  0  0  0  0  0  0
   26.9989  -18.3641  -12.3680 O   0  0  0  0  0  0  0  0  0  0  0  0
   26.0693  -20.3740  -13.1339 N   0  0  0  0  0  0  0  0  0  0  0  0
   25.1943  -20.9708  -14.1774 C   0  0  0  0  0  0  0  0  0  0  0  0
   25.3604  -22.4927  -13.9449 C   0  0  0  0  0  0  0  0  0  0  0  0
   26.3408  -22.5913  -12.7580 C   0  0  0  0  0  0  0  0  0  0  0  0
   25.9277  -21.2863  -12.0574 C   0  0  1  0  0  0  0  0  0  0  0  0
   26.5547  -21.0568  -10.7862 C   0  0  0  0  0  0  0  0  0  0  0  0
   27.7929  -20.9740  -10.6355 O   0  0  0  0  0  0  0  0  0  0  0  0
   25.7696  -20.9054   -9.5800 N   0  0  0  0  0  0  0  0  0  0  0  0
   26.4388  -20.9198   -8.3063 C   0  0  1  0  0  0  0  0  0  0  0  0
   27.4696  -19.7966   -8.2312 C   0  0  0  0  0  0  0  0  0  0  0  0
   28.0658  -19.7487   -6.8795 C   0  0  0  0  0  0  0  0  0  0  0  0
   27.7076  -18.7731   -5.9793 C   0  0  0  0  0  0  0  0  0  0  0  0
   28.2792  -18.7366   -4.7041 C   0  0  0  0  0  0  0  0  0  0  0  0
   29.2100  -19.6854   -4.3439 C   0  0  0  0  0  0  0  0  0  0  0  0
   29.5718  -20.6598   -5.2343 C   0  0  0  0  0  0  0  0  0  0  0  0
   29.0083  -20.6977   -6.4947 C   0  0  0  0  0  0  0  0  0  0  0  0
   25.4904  -20.8097   -7.1808 C   0  0  0  0  0  0  0  0  0  0  0  0
   24.4520  -20.1355   -7.2829 O   0  0  0  0  0  0  0  0  0  0  0  0
   25.7637  -21.4744   -5.9795 O   0  0  0  0  0  0  0  0  0  0  0  0
  1  2  1  0
  3  2  1  0
  4  5  1  0
  4  3  1  0
  5  1  1  0
  5  6  1  1
  7  6  2  0
  8  6  1  0
  8 12  1  0
  9 10  1  0
  9  8  1  0
 10 11  1  0
 11 12  1  0
 12 13  1  1
 13 14  2  0
 15 16  1  0
 15 13  1  0
 16 24  1  0
 16 17  1  6
 18 17  1  0
 19 18  2  0
 20 19  1  0
 21 22  1  0
 21 20  2  0
 22 23  2  0
 23 18  1  0
 24 25  2  0
 24 26  1  0
M  END
$$$$
