PPF.pdb
     RDKit          3D

 26 28  0  0  1  0  0  0  0  0999 V2000
   23.7020  -20.1628  -15.4937 N   0  0  0  0  0  0  0  0  0  0  0  0
   22.4719  -20.0393  -16.3087 C   0  0  0  0  0  0  0  0  0  0  0  0
   21.3969  -20.4729  -15.3665 C   0  0  0  0  0  0  0  0  0  0  0  0
   21.8885  -20.0138  -14.0109 C   0  0  0  0  0  0  0  0  0  0  0  0
   23.2945  -19.4966  -14.3075 C   0  0  1  0  0  0  0  0  0  0  0  0
   24.2112  -19.6303  -13.1653 C   0  0  0  0  0  0  0  0  0  0  0  0
   23.8237  -18.9887  -12.1205 O   0  0  0  0  0  0  0  0  0  0  0  0
   25.3898  -20.3728  -13.1797 N   0  0  0  0  0  0  0  0  0  0  0  0
   25.8423  -21.2396  -14.2997 C   0  0  0  0  0  0  0  0  0  0  0  0
   27.3740  -21.0138  -14.3202 C   0  0  0  0  0  0  0  0  0  0  0  0
   27.6264  -20.0138  -13.1730 C   0  0  0  0  0  0  0  0  0  0  0  0
   26.4701  -20.4652  -12.2655 C   0  0  1  0  0  0  0  0  0  0  0  0
   26.4265  -19.8293  -10.9789 C   0  0  0  0  0  0  0  0  0  0  0  0
   26.6583  -18.6133  -10.8049 O   0  0  0  0  0  0  0  0  0  0  0  0
   26.1043  -20.5786   -9.7834 N   0  0  0  0  0  0  0  0  0  0  0  0
   26.9650  -20.4642   -8.6360 C   0  0  1  0  0  0  0  0  0  0  0  0
   26.3585  -19.5159   -7.6051 C   0  0  0  0  0  0  0  0  0  0  0  0
   27.2545  -19.4030   -6.4349 C   0  0  0  0  0  0  0  0  0  0  0  0
   27.2306  -20.3400   -5.4290 C   0  0  0  0  0  0  0  0  0  0  0  0
   28.0815  -20.2222   -4.3261 C   0  0  0  0  0  0  0  0  0  0  0  0
   28.9525  -19.1588   -4.2442 C   0  0  0  0  0  0  0  0  0  0  0  0
   28.9823  -18.2219   -5.2415 C   0  0  0  0  0  0  0  0  0  0  0  0
   28.1425  -18.3364   -6.3320 C   0  0  0  0  0  0  0  0  0  0  0  0
   27.2383  -21.7752   -8.0155 C   0  0  0  0  0  0  0  0  0  0  0  0
   26.4318  -22.7140   -8.1221 O   0  0  0  0  0  0  0  0  0  0  0  0
   28.4237  -21.9651   -7.2956 O   0  0  0  0  0  0  0  0  0  0  0  0
  1  2  1  0
  3  2  1  0
  4  5  1  0
  4  3  1  0
  5  1  1  0
  5  6  1  1
  7  6  2  0
  8  6  1  0
  8 12  1  0
  9 10  1  0
  9  8  1  0
 10 11  1  0
 11 12  1  0
 12 13  1  1
 13 14  2  0
 15 16  1  0
 15 13  1  0
 16 24  1  0
 16 17  1  1
 18 17  1  0
 19 18  2  0
 20 19  1  0
 21 22  1  0
 21 20  2  0
 22 23  2  0
 23 18  1  0
 24 25  2  0
 24 26  1  0
M  END
$$$$
