PPF.pdb
     RDKit          3D

 26 28  0  0  1  0  0  0  0  0999 V2000
   28.4229  -20.7267  -17.8395 N   0  0  0  0  0  0  0  0  0  0  0  0
   28.9600  -21.4094  -19.0386 C   0  0  0  0  0  0  0  0  0  0  0  0
   29.9304  -22.3890  -18.4640 C   0  0  0  0  0  0  0  0  0  0  0  0
   29.3159  -22.7810  -17.1379 C   0  0  0  0  0  0  0  0  0  0  0  0
   28.1143  -21.8457  -17.0211 C   0  0  1  0  0  0  0  0  0  0  0  0
   27.7637  -21.5280  -15.6287 C   0  0  0  0  0  0  0  0  0  0  0  0
   27.2764  -22.5276  -14.9831 O   0  0  0  0  0  0  0  0  0  0  0  0
   27.9322  -20.2787  -15.0359 N   0  0  0  0  0  0  0  0  0  0  0  0
   28.8559  -19.2188  -15.5195 C   0  0  0  0  0  0  0  0  0  0  0  0
   28.0548  -17.9170  -15.2724 C   0  0  0  0  0  0  0  0  0  0  0  0
   26.7255  -18.3996  -14.6563 C   0  0  0  0  0  0  0  0  0  0  0  0
   27.2825  -19.6446  -13.9463 C   0  0  1  0  0  0  0  0  0  0  0  0
   26.3389  -20.3433  -13.1200 C   0  0  0  0  0  0  0  0  0  0  0  0
   25.2903  -20.8616  -13.5612 O   0  0  0  0  0  0  0  0  0  0  0  0
   26.5540  -20.4898  -11.6964 N   0  0  0  0  0  0  0  0  0  0  0  0
   25.6615  -21.3267  -10.9390 C   0  0  1  0  0  0  0  0  0  0  0  0
   26.4251  -22.0728   -9.8480 C   0  0  0  0  0  0  0  0  0  0  0  0
   27.0554  -21.1074   -8.9231 C   0  0  0  0  0  0  0  0  0  0  0  0
   28.4222  -21.0396   -8.7903 C   0  0  0  0  0  0  0  0  0  0  0  0
   29.0074  -20.1236   -7.9111 C   0  0  0  0  0  0  0  0  0  0  0  0
   28.2095  -19.2805   -7.1703 C   0  0  0  0  0  0  0  0  0  0  0  0
   26.8481  -19.3419   -7.2969 C   0  0  0  0  0  0  0  0  0  0  0  0
   26.2679  -20.2461   -8.1649 C   0  0  0  0  0  0  0  0  0  0  0  0
   24.5530  -20.5568  -10.3418 C   0  0  0  0  0  0  0  0  0  0  0  0
   23.6065  -21.1308   -9.7778 O   0  0  0  0  0  0  0  0  0  0  0  0
   24.5668  -19.1588  -10.4110 O   0  0  0  0  0  0  0  0  0  0  0  0
  1  2  1  0
  3  2  1  0
  4  5  1  0
  4  3  1  0
  5  1  1  0
  5  6  1  1
  7  6  2  0
  8  6  1  0
  8 12  1  0
  9 10  1  0
  9  8  1  0
 10 11  1  0
 11 12  1  0
 12 13  1  6
 13 14  2  0
 15 16  1  0
 15 13  1  0
 16 24  1  0
 16 17  1  1
 18 17  1  0
 19 18  2  0
 20 19  1  0
 21 22  1  0
 21 20  2  0
 22 23  2  0
 23 18  1  0
 24 25  2  0
 24 26  1  0
M  END
$$$$
