PPF.pdb
     RDKit          3D

 26 28  0  0  1  0  0  0  0  0999 V2000
   26.7504  -22.5059  -17.6209 N   0  0  0  0  0  0  0  0  0  0  0  0
   25.8746  -22.3578  -18.8055 C   0  0  0  0  0  0  0  0  0  0  0  0
   24.5296  -22.1131  -18.2035 C   0  0  0  0  0  0  0  0  0  0  0  0
   24.8288  -21.3462  -16.9337 C   0  0  0  0  0  0  0  0  0  0  0  0
   26.3541  -21.3723  -16.8626 C   0  0  1  0  0  0  0  0  0  0  0  0
   26.8683  -21.3264  -15.4856 C   0  0  0  0  0  0  0  0  0  0  0  0
   26.8061  -22.4582  -14.8784 O   0  0  0  0  0  0  0  0  0  0  0  0
   27.3810  -20.1867  -14.8703 N   0  0  0  0  0  0  0  0  0  0  0  0
   28.3453  -19.2394  -15.4895 C   0  0  0  0  0  0  0  0  0  0  0  0
   27.8605  -17.8612  -14.9764 C   0  0  0  0  0  0  0  0  0  0  0  0
   26.6380  -18.1919  -14.0955 C   0  0  0  0  0  0  0  0  0  0  0  0
   27.1117  -19.5751  -13.6194 C   0  0  1  0  0  0  0  0  0  0  0  0
   26.2680  -20.1999  -12.6399 C   0  0  0  0  0  0  0  0  0  0  0  0
   25.0585  -20.4497  -12.8334 O   0  0  0  0  0  0  0  0  0  0  0  0
   26.7829  -20.5842  -11.3432 N   0  0  0  0  0  0  0  0  0  0  0  0
   25.9142  -21.2697  -10.4234 C   0  0  1  0  0  0  0  0  0  0  0  0
   26.7292  -21.9706   -9.3396 C   0  0  0  0  0  0  0  0  0  0  0  0
   27.3086  -20.9706   -8.4182 C   0  0  0  0  0  0  0  0  0  0  0  0
   26.5045  -20.1735   -7.6382 C   0  0  0  0  0  0  0  0  0  0  0  0
   27.0636  -19.2298   -6.7714 C   0  0  0  0  0  0  0  0  0  0  0  0
   28.4320  -19.0957   -6.6963 C   0  0  0  0  0  0  0  0  0  0  0  0
   29.2392  -19.8855   -7.4695 C   0  0  0  0  0  0  0  0  0  0  0  0
   28.6889  -20.8184   -8.3265 C   0  0  0  0  0  0  0  0  0  0  0  0
   24.9318  -20.3583   -9.8051 C   0  0  0  0  0  0  0  0  0  0  0  0
   25.0680  -19.1257   -9.8787 O   0  0  0  0  0  0  0  0  0  0  0  0
   23.8294  -20.8892   -9.1251 O   0  0  0  0  0  0  0  0  0  0  0  0
  1  2  1  0
  3  2  1  0
  4  5  1  0
  4  3  1  0
  5  1  1  0
  5  6  1  1
  7  6  2  0
  8  6  1  0
  8 12  1  0
  9 10  1  0
  9  8  1  0
 10 11  1  0
 11 12  1  0
 12 13  1  6
 13 14  2  0
 15 16  1  0
 15 13  1  0
 16 24  1  0
 16 17  1  1
 18 17  1  0
 19 18  2  0
 20 19  1  0
 21 22  1  0
 21 20  2  0
 22 23  2  0
 23 18  1  0
 24 25  2  0
 24 26  1  0
M  END
$$$$
