PPF.pdb
     RDKit          3D

 26 28  0  0  1  0  0  0  0  0999 V2000
   24.6952  -21.1420  -15.7836 N   0  0  0  0  0  0  0  0  0  0  0  0
   24.1770  -20.0907  -16.6884 C   0  0  0  0  0  0  0  0  0  0  0  0
   23.8314  -18.9789  -15.7525 C   0  0  0  0  0  0  0  0  0  0  0  0
   24.8602  -19.0939  -14.6488 C   0  0  0  0  0  0  0  0  0  0  0  0
   25.6018  -20.3827  -14.9972 C   0  0  1  0  0  0  0  0  0  0  0  0
   26.1418  -21.0745  -13.8171 C   0  0  0  0  0  0  0  0  0  0  0  0
   25.3297  -21.9339  -13.3118 O   0  0  0  0  0  0  0  0  0  0  0  0
   27.4050  -20.8465  -13.2758 N   0  0  0  0  0  0  0  0  0  0  0  0
   28.6671  -20.7533  -14.0561 C   0  0  0  0  0  0  0  0  0  0  0  0
   29.4486  -19.6341  -13.3252 C   0  0  0  0  0  0  0  0  0  0  0  0
   28.5132  -19.2054  -12.1758 C   0  0  0  0  0  0  0  0  0  0  0  0
   27.8409  -20.5705  -11.9548 C   0  0  1  0  0  0  0  0  0  0  0  0
   26.9428  -20.6289  -10.8360 C   0  0  0  0  0  0  0  0  0  0  0  0
   25.7628  -20.2187  -10.8796 O   0  0  0  0  0  0  0  0  0  0  0  0
   27.3638  -21.1788   -9.5652 N   0  0  0  0  0  0  0  0  0  0  0  0
   26.4303  -21.1979   -8.4704 C   0  0  1  0  0  0  0  0  0  0  0  0
   27.0655  -21.8351   -7.2373 C   0  0  0  0  0  0  0  0  0  0  0  0
   27.7992  -20.8123   -6.4623 C   0  0  0  0  0  0  0  0  0  0  0  0
   27.7563  -19.4851   -6.8186 C   0  0  0  0  0  0  0  0  0  0  0  0
   28.4555  -18.5266   -6.0791 C   0  0  0  0  0  0  0  0  0  0  0  0
   29.1946  -18.9130   -4.9834 C   0  0  0  0  0  0  0  0  0  0  0  0
   29.2422  -20.2323   -4.6223 C   0  0  0  0  0  0  0  0  0  0  0  0
   28.5522  -21.1809   -5.3515 C   0  0  0  0  0  0  0  0  0  0  0  0
   25.9346  -19.8473   -8.1411 C   0  0  0  0  0  0  0  0  0  0  0  0
   26.5637  -18.8332   -8.4863 O   0  0  0  0  0  0  0  0  0  0  0  0
   24.7378  -19.7052   -7.4291 O   0  0  0  0  0  0  0  0  0  0  0  0
  1  2  1  0
  3  2  1  0
  4  5  1  0
  4  3  1  0
  5  1  1  0
  5  6  1  1
  7  6  2  0
  8  6  1  0
  8 12  1  0
  9 10  1  0
  9  8  1  0
 10 11  1  0
 11 12  1  0
 12 13  1  1
 13 14  2  0
 15 16  1  0
 15 13  1  0
 16 24  1  0
 16 17  1  1
 18 17  1  0
 19 18  2  0
 20 19  1  0
 21 22  1  0
 21 20  2  0
 22 23  2  0
 23 18  1  0
 24 25  2  0
 24 26  1  0
M  END
$$$$
