PPF.pdb
     RDKit          3D

 26 28  0  0  1  0  0  0  0  0999 V2000
   25.7804  -19.0272  -14.3518 N   0  0  0  0  0  0  0  0  0  0  0  0
   25.9756  -17.7273  -15.0334 C   0  0  0  0  0  0  0  0  0  0  0  0
   26.4425  -16.8339  -13.9310 C   0  0  0  0  0  0  0  0  0  0  0  0
   27.2374  -17.7503  -13.0264 C   0  0  0  0  0  0  0  0  0  0  0  0
   27.0031  -19.1305  -13.6367 C   0  0  1  0  0  0  0  0  0  0  0  0
   27.0621  -20.2164  -12.6467 C   0  0  0  0  0  0  0  0  0  0  0  0
   25.9388  -20.4362  -12.0609 O   0  0  0  0  0  0  0  0  0  0  0  0
   28.2053  -20.9554  -12.3503 N   0  0  0  0  0  0  0  0  0  0  0  0
   29.2917  -21.2755  -13.3136 C   0  0  0  0  0  0  0  0  0  0  0  0
   30.5706  -21.1663  -12.4475 C   0  0  0  0  0  0  0  0  0  0  0  0
   30.0497  -20.7855  -11.0463 C   0  0  0  0  0  0  0  0  0  0  0  0
   28.6961  -21.5089  -11.1404 C   0  0  1  0  0  0  0  0  0  0  0  0
   27.9176  -21.4960   -9.9340 C   0  0  0  0  0  0  0  0  0  0  0  0
   28.2046  -22.1733   -8.9233 O   0  0  0  0  0  0  0  0  0  0  0  0
   26.7287  -20.6789   -9.8184 N   0  0  0  0  0  0  0  0  0  0  0  0
   26.0113  -20.6646   -8.5711 C   0  0  1  0  0  0  0  0  0  0  0  0
   26.3130  -19.3852   -7.7954 C   0  0  0  0  0  0  0  0  0  0  0  0
   27.2648  -19.6712   -6.7012 C   0  0  0  0  0  0  0  0  0  0  0  0
   27.1272  -20.7905   -5.9146 C   0  0  0  0  0  0  0  0  0  0  0  0
   28.0325  -21.0501   -4.8814 C   0  0  0  0  0  0  0  0  0  0  0  0
   29.0724  -20.1782   -4.6475 C   0  0  0  0  0  0  0  0  0  0  0  0
   29.2161  -19.0619   -5.4262 C   0  0  0  0  0  0  0  0  0  0  0  0
   28.3229  -18.8035   -6.4475 C   0  0  0  0  0  0  0  0  0  0  0  0
   24.5552  -20.8033   -8.7678 C   0  0  0  0  0  0  0  0  0  0  0  0
   23.7882  -20.9320   -7.7990 O   0  0  0  0  0  0  0  0  0  0  0  0
   24.0288  -20.7897  -10.0648 O   0  0  0  0  0  0  0  0  0  0  0  0
  1  2  1  0
  3  2  1  0
  4  5  1  0
  4  3  1  0
  5  1  1  0
  5  6  1  1
  7  6  2  0
  8  6  1  0
  8 12  1  0
  9 10  1  0
  9  8  1  0
 10 11  1  0
 11 12  1  0
 12 13  1  1
 13 14  2  0
 15 16  1  0
 15 13  1  0
 16 24  1  0
 16 17  1  6
 18 17  1  0
 19 18  2  0
 20 19  1  0
 21 22  1  0
 21 20  2  0
 22 23  2  0
 23 18  1  0
 24 25  2  0
 24 26  1  0
M  END
$$$$
