PPF.pdb
     RDKit          3D

 26 28  0  0  1  0  0  0  0  0999 V2000
   27.8787  -20.4966  -18.0647 N   0  0  0  0  0  0  0  0  0  0  0  0
   28.2968  -21.0784  -19.3605 C   0  0  0  0  0  0  0  0  0  0  0  0
   29.4730  -21.9212  -18.9893 C   0  0  0  0  0  0  0  0  0  0  0  0
   29.1463  -22.4161  -17.5970 C   0  0  0  0  0  0  0  0  0  0  0  0
   27.8651  -21.6605  -17.2508 C   0  0  1  0  0  0  0  0  0  0  0  0
   27.7109  -21.4169  -15.8087 C   0  0  0  0  0  0  0  0  0  0  0  0
   27.3375  -22.4570  -15.1513 O   0  0  0  0  0  0  0  0  0  0  0  0
   27.9406  -20.1931  -15.1842 N   0  0  0  0  0  0  0  0  0  0  0  0
   28.8659  -19.1395  -15.6788 C   0  0  0  0  0  0  0  0  0  0  0  0
   28.1117  -17.8282  -15.3484 C   0  0  0  0  0  0  0  0  0  0  0  0
   26.8029  -18.2998  -14.6818 C   0  0  0  0  0  0  0  0  0  0  0  0
   27.3627  -19.5814  -14.0427 C   0  0  1  0  0  0  0  0  0  0  0  0
   26.4440  -20.2854  -13.1930 C   0  0  0  0  0  0  0  0  0  0  0  0
   25.3571  -20.7541  -13.5950 O   0  0  0  0  0  0  0  0  0  0  0  0
   26.7318  -20.4963  -11.7905 N   0  0  0  0  0  0  0  0  0  0  0  0
   25.8418  -21.3162  -11.0119 C   0  0  1  0  0  0  0  0  0  0  0  0
   26.6060  -22.0248   -9.8966 C   0  0  0  0  0  0  0  0  0  0  0  0
   27.1780  -21.0294   -8.9656 C   0  0  0  0  0  0  0  0  0  0  0  0
   26.3747  -20.1275   -8.3087 C   0  0  0  0  0  0  0  0  0  0  0  0
   26.9269  -19.1894   -7.4315 C   0  0  0  0  0  0  0  0  0  0  0  0
   28.2876  -19.1666   -7.2219 C   0  0  0  0  0  0  0  0  0  0  0  0
   29.0940  -20.0611   -7.8721 C   0  0  0  0  0  0  0  0  0  0  0  0
   28.5506  -20.9888   -8.7391 C   0  0  0  0  0  0  0  0  0  0  0  0
   24.7262  -20.5362  -10.4416 C   0  0  0  0  0  0  0  0  0  0  0  0
   24.7635  -19.2948  -10.4110 O   0  0  0  0  0  0  0  0  0  0  0  0
   23.6086  -21.2037   -9.9270 O   0  0  0  0  0  0  0  0  0  0  0  0
  1  2  1  0
  3  2  1  0
  4  5  1  0
  4  3  1  0
  5  1  1  0
  5  6  1  1
  7  6  2  0
  8  6  1  0
  8 12  1  0
  9 10  1  0
  9  8  1  0
 10 11  1  0
 11 12  1  0
 12 13  1  6
 13 14  2  0
 15 16  1  0
 15 13  1  0
 16 24  1  0
 16 17  1  1
 18 17  1  0
 19 18  2  0
 20 19  1  0
 21 22  1  0
 21 20  2  0
 22 23  2  0
 23 18  1  0
 24 25  2  0
 24 26  1  0
M  END
$$$$
