PPF.pdb
     RDKit          3D

 26 28  0  0  1  0  0  0  0  0999 V2000
   26.2491  -18.3758  -15.5140 N   0  0  0  0  0  0  0  0  0  0  0  0
   26.3940  -17.1642  -16.3527 C   0  0  0  0  0  0  0  0  0  0  0  0
   26.0899  -16.0547  -15.3998 C   0  0  0  0  0  0  0  0  0  0  0  0
   26.6059  -16.5599  -14.0700 C   0  0  0  0  0  0  0  0  0  0  0  0
   27.0154  -17.9983  -14.3794 C   0  0  1  0  0  0  0  0  0  0  0  0
   26.9010  -18.8932  -13.2180 C   0  0  0  0  0  0  0  0  0  0  0  0
   27.4194  -18.4084  -12.1457 O   0  0  0  0  0  0  0  0  0  0  0  0
   26.2952  -20.1473  -13.2424 N   0  0  0  0  0  0  0  0  0  0  0  0
   25.5894  -20.7349  -14.4117 C   0  0  0  0  0  0  0  0  0  0  0  0
   25.9809  -22.2314  -14.3410 C   0  0  0  0  0  0  0  0  0  0  0  0
   26.8925  -22.3278  -13.1003 C   0  0  0  0  0  0  0  0  0  0  0  0
   26.2367  -21.1970  -12.2906 C   0  0  1  0  0  0  0  0  0  0  0  0
   26.7430  -21.0353  -10.9567 C   0  0  0  0  0  0  0  0  0  0  0  0
   27.9594  -20.9205  -10.6923 O   0  0  0  0  0  0  0  0  0  0  0  0
   25.8521  -20.9957   -9.8169 N   0  0  0  0  0  0  0  0  0  0  0  0
   26.4149  -20.9670   -8.4929 C   0  0  1  0  0  0  0  0  0  0  0  0
   27.4193  -19.8250   -8.3635 C   0  0  0  0  0  0  0  0  0  0  0  0
   27.9028  -19.7340   -6.9697 C   0  0  0  0  0  0  0  0  0  0  0  0
   28.7619  -20.6750   -6.4530 C   0  0  0  0  0  0  0  0  0  0  0  0
   29.2115  -20.5797   -5.1327 C   0  0  0  0  0  0  0  0  0  0  0  0
   28.7915  -19.5346   -4.3405 C   0  0  0  0  0  0  0  0  0  0  0  0
   27.9365  -18.5939   -4.8475 C   0  0  0  0  0  0  0  0  0  0  0  0
   27.4910  -18.6861   -6.1516 C   0  0  0  0  0  0  0  0  0  0  0  0
   25.3760  -20.8449   -7.4517 C   0  0  0  0  0  0  0  0  0  0  0  0
   25.5481  -21.3214   -6.3174 O   0  0  0  0  0  0  0  0  0  0  0  0
   24.1782  -20.1826   -7.7452 O   0  0  0  0  0  0  0  0  0  0  0  0
  1  2  1  0
  3  2  1  0
  4  5  1  0
  4  3  1  0
  5  1  1  0
  5  6  1  1
  7  6  2  0
  8  6  1  0
  8 12  1  0
  9 10  1  0
  9  8  1  0
 10 11  1  0
 11 12  1  0
 12 13  1  1
 13 14  2  0
 15 16  1  0
 15 13  1  0
 16 24  1  0
 16 17  1  6
 18 17  1  0
 19 18  2  0
 20 19  1  0
 21 22  1  0
 21 20  2  0
 22 23  2  0
 23 18  1  0
 24 25  2  0
 24 26  1  0
M  END
$$$$
