PPF.pdb
     RDKit          3D

 26 28  0  0  1  0  0  0  0  0999 V2000
   27.7453  -20.2674  -17.9806 N   0  0  0  0  0  0  0  0  0  0  0  0
   28.1663  -20.8498  -19.2752 C   0  0  0  0  0  0  0  0  0  0  0  0
   29.3535  -21.6770  -18.9039 C   0  0  0  0  0  0  0  0  0  0  0  0
   29.0368  -22.1698  -17.5086 C   0  0  0  0  0  0  0  0  0  0  0  0
   27.7478  -21.4278  -17.1618 C   0  0  1  0  0  0  0  0  0  0  0  0
   27.5950  -21.1799  -15.7202 C   0  0  0  0  0  0  0  0  0  0  0  0
   27.3084  -22.2372  -15.0469 O   0  0  0  0  0  0  0  0  0  0  0  0
   27.7417  -19.9354  -15.1118 N   0  0  0  0  0  0  0  0  0  0  0  0
   28.5281  -18.8001  -15.6627 C   0  0  0  0  0  0  0  0  0  0  0  0
   27.6710  -17.5663  -15.2878 C   0  0  0  0  0  0  0  0  0  0  0  0
   26.4573  -18.1586  -14.5422 C   0  0  0  0  0  0  0  0  0  0  0  0
   27.1772  -19.3753  -13.9376 C   0  0  1  0  0  0  0  0  0  0  0  0
   26.3847  -20.1597  -13.0329 C   0  0  0  0  0  0  0  0  0  0  0  0
   25.3269  -20.7356  -13.3678 O   0  0  0  0  0  0  0  0  0  0  0  0
   26.7756  -20.3312  -11.6501 N   0  0  0  0  0  0  0  0  0  0  0  0
   26.0117  -21.2196  -10.8148 C   0  0  1  0  0  0  0  0  0  0  0  0
   26.9219  -21.9285   -9.8154 C   0  0  0  0  0  0  0  0  0  0  0  0
   27.4727  -20.9510   -8.8533 C   0  0  0  0  0  0  0  0  0  0  0  0
   28.8194  -20.9051   -8.5797 C   0  0  0  0  0  0  0  0  0  0  0  0
   29.3291  -19.9773   -7.6666 C   0  0  0  0  0  0  0  0  0  0  0  0
   28.4765  -19.1002   -7.0341 C   0  0  0  0  0  0  0  0  0  0  0  0
   27.1347  -19.1396   -7.3011 C   0  0  0  0  0  0  0  0  0  0  0  0
   26.6290  -20.0555   -8.2028 C   0  0  0  0  0  0  0  0  0  0  0  0
   24.9301  -20.5147  -10.0996 C   0  0  0  0  0  0  0  0  0  0  0  0
   24.9166  -19.2749  -10.0220 O   0  0  0  0  0  0  0  0  0  0  0  0
   23.9034  -21.2528   -9.4991 O   0  0  0  0  0  0  0  0  0  0  0  0
  1  2  1  0
  3  2  1  0
  4  5  1  0
  4  3  1  0
  5  1  1  0
  5  6  1  1
  7  6  2  0
  8  6  1  0
  8 12  1  0
  9 10  1  0
  9  8  1  0
 10 11  1  0
 11 12  1  0
 12 13  1  6
 13 14  2  0
 15 16  1  0
 15 13  1  0
 16 24  1  0
 16 17  1  1
 18 17  1  0
 19 18  2  0
 20 19  1  0
 21 22  1  0
 21 20  2  0
 22 23  2  0
 23 18  1  0
 24 25  2  0
 24 26  1  0
M  END
$$$$
