HYR.pdb
     RDKit          3D

 34 35  0  0  1  0  0  0  0  0999 V2000
    8.4735  -16.1435   19.3762 N   0  0  0  0  0  0  0  0  0  0  0  0
    8.7836  -14.7267   19.3954 C   0  0  1  0  0  0  0  0  0  0  0  0
    7.7174  -14.0176   18.6028 C   0  0  0  0  0  0  0  0  0  0  0  0
    7.8616  -14.4348   17.1915 C   0  0  0  0  0  0  0  0  0  0  0  0
    8.6131  -13.8348   16.2134 C   0  0  0  0  0  0  0  0  0  0  0  0
    8.4678  -14.5390   15.0503 N   0  0  0  0  0  0  0  0  0  0  0  0
    7.6377  -15.5586   15.3103 C   0  0  0  0  0  0  0  0  0  0  0  0
    7.2738  -15.4915   16.6060 N   0  0  0  0  0  0  0  0  0  0  0  0
    8.8440  -14.3014   20.8195 C   0  0  0  0  0  0  0  0  0  0  0  0
    9.2189  -13.1572   21.1843 O   0  0  0  0  0  0  0  0  0  0  0  0
    7.1626  -11.6491   28.6654 O   0  0  0  0  0  0  0  0  0  0  0  0
    7.2772  -12.1173   27.3598 C   0  0  0  0  0  0  0  0  0  0  0  0
    6.2035  -12.7069   26.7247 C   0  0  0  0  0  0  0  0  0  0  0  0
    6.3272  -13.1692   25.4280 C   0  0  0  0  0  0  0  0  0  0  0  0
    7.5149  -13.0539   24.7429 C   0  0  0  0  0  0  0  0  0  0  0  0
    7.6867  -13.5340   23.3748 C   0  0  0  0  0  0  0  0  0  0  0  0
    8.4086  -14.8581   23.2575 C   0  0  2  0  0  0  0  0  0  0  0  0
    8.4615  -15.2185   21.8625 N   0  0  0  0  0  0  0  0  0  0  0  0
    7.8390  -15.9232   24.1027 C   0  0  0  0  0  0  0  0  0  0  0  0
    6.7970  -16.5565   23.7929 O   0  0  0  0  0  0  0  0  0  0  0  0
    8.5772  -12.4635   25.3891 C   0  0  0  0  0  0  0  0  0  0  0  0
    8.4733  -11.9950   26.6858 C   0  0  0  0  0  0  0  0  0  0  0  0
   12.5108  -17.3488   20.2465 N   0  0  0  0  0  0  0  0  0  0  0  0
   11.6192  -18.4474   20.1592 C   0  0  0  0  0  0  0  0  0  0  0  0
   11.1006  -18.8478   19.0468 N   0  0  0  0  0  0  0  0  0  0  0  0
   11.2223  -19.2035   21.2982 N   0  0  0  0  0  0  0  0  0  0  0  0
   11.2313  -18.7715   22.6260 C   0  0  0  0  0  0  0  0  0  0  0  0
   10.0985  -17.9789   23.1449 C   0  0  0  0  0  0  0  0  0  0  0  0
   10.4279  -17.5443   24.5485 C   0  0  0  0  0  0  0  0  0  0  0  0
    9.2551  -17.4945   25.4587 C   0  0  2  0  0  0  0  0  0  0  0  0
    8.4397  -16.3161   25.3527 N   0  0  0  0  0  0  0  0  0  0  0  0
    9.7679  -17.6174   26.8713 C   0  0  0  0  0  0  0  0  0  0  0  0
   10.3775  -16.5324   27.4779 O   0  0  0  0  0  0  0  0  0  0  0  0
    9.6650  -18.6771   27.5328 O   0  0  0  0  0  0  0  0  0  0  0  0
  2  1  1  1
  2  9  1  0
  2  3  1  0
  4  3  1  0
  5  4  2  0
  6  7  1  0
  6  5  1  0
  7  8  2  0
  8  4  1  0
  9 10  2  0
 11 12  1  0
 12 22  2  0
 13 12  1  0
 13 14  2  0
 14 15  1  0
 15 21  2  0
 15 16  1  0
 17 16  1  6
 18 17  1  0
 18  9  1  0
 19 17  1  0
 20 19  2  0
 22 21  1  0
 23 24  1  0
 24 26  1  0
 25 24  2  0
 26 27  1  0
 27 28  1  0
 28 29  1  0
 30 29  1  6
 30 31  1  0
 31 19  1  0
 32 30  1  0
 32 33  1  0
 34 32  2  0
M  END
$$$$
