HYR.pdb
     RDKit          3D

 34 35  0  0  1  0  0  0  0  0999 V2000
   10.6207  -14.5782   19.0582 N   0  0  0  0  0  0  0  0  0  0  0  0
    9.2536  -14.6096   19.5418 C   0  0  1  0  0  0  0  0  0  0  0  0
    8.5801  -15.8057   18.9226 C   0  0  0  0  0  0  0  0  0  0  0  0
    8.2489  -15.4549   17.5248 C   0  0  0  0  0  0  0  0  0  0  0  0
    8.5672  -14.3024   16.8526 C   0  0  0  0  0  0  0  0  0  0  0  0
    8.0721  -14.3818   15.5805 N   0  0  0  0  0  0  0  0  0  0  0  0
    7.4573  -15.5679   15.4723 C   0  0  0  0  0  0  0  0  0  0  0  0
    7.5668  -16.2130   16.6503 N   0  0  0  0  0  0  0  0  0  0  0  0
    9.3060  -14.6627   21.0274 C   0  0  0  0  0  0  0  0  0  0  0  0
   10.0678  -15.4343   21.6655 O   0  0  0  0  0  0  0  0  0  0  0  0
    6.5840  -12.7527   29.2889 O   0  0  0  0  0  0  0  0  0  0  0  0
    6.7706  -12.7625   27.9097 C   0  0  0  0  0  0  0  0  0  0  0  0
    5.6903  -12.7826   27.0516 C   0  0  0  0  0  0  0  0  0  0  0  0
    5.8858  -12.7926   25.6834 C   0  0  0  0  0  0  0  0  0  0  0  0
    7.1526  -12.7828   25.1465 C   0  0  0  0  0  0  0  0  0  0  0  0
    7.4003  -12.7978   23.7077 C   0  0  0  0  0  0  0  0  0  0  0  0
    8.3896  -13.8463   23.2494 C   0  0  2  0  0  0  0  0  0  0  0  0
    8.4564  -13.8016   21.8099 N   0  0  0  0  0  0  0  0  0  0  0  0
    8.1076  -15.1973   23.7677 C   0  0  0  0  0  0  0  0  0  0  0  0
    7.0848  -15.8535   23.4421 O   0  0  0  0  0  0  0  0  0  0  0  0
    8.2206  -12.7627   26.0148 C   0  0  0  0  0  0  0  0  0  0  0  0
    8.0456  -12.7525   27.3863 C   0  0  0  0  0  0  0  0  0  0  0  0
   11.2408  -21.6186   21.0537 N   0  0  0  0  0  0  0  0  0  0  0  0
   12.1518  -20.6047   21.4428 C   0  0  0  0  0  0  0  0  0  0  0  0
   13.3583  -20.5293   20.9898 N   0  0  0  0  0  0  0  0  0  0  0  0
   11.8070  -19.5803   22.3692 N   0  0  0  0  0  0  0  0  0  0  0  0
   10.6976  -19.5665   23.2171 C   0  0  0  0  0  0  0  0  0  0  0  0
   10.4935  -18.4286   24.1359 C   0  0  0  0  0  0  0  0  0  0  0  0
    9.0227  -18.3243   24.4414 C   0  0  0  0  0  0  0  0  0  0  0  0
    8.6562  -17.1415   25.2618 C   0  0  2  0  0  0  0  0  0  0  0  0
    8.9899  -15.8657   24.6910 N   0  0  0  0  0  0  0  0  0  0  0  0
    9.3419  -17.2820   26.5973 C   0  0  0  0  0  0  0  0  0  0  0  0
    9.0368  -18.3554   27.4168 O   0  0  0  0  0  0  0  0  0  0  0  0
   10.1908  -16.4554   27.0061 O   0  0  0  0  0  0  0  0  0  0  0  0
  2  1  1  6
  2  9  1  0
  2  3  1  0
  4  3  1  0
  5  4  2  0
  6  7  1  0
  6  5  1  0
  7  8  2  0
  8  4  1  0
  9 10  2  0
 11 12  1  0
 12 22  2  0
 13 12  1  0
 13 14  2  0
 14 15  1  0
 15 21  2  0
 15 16  1  0
 17 16  1  6
 18 17  1  0
 18  9  1  0
 19 17  1  0
 20 19  2  0
 22 21  1  0
 23 24  1  0
 24 26  1  0
 25 24  2  0
 26 27  1  0
 27 28  1  0
 28 29  1  0
 30 29  1  6
 30 31  1  0
 31 19  1  0
 32 30  1  0
 32 33  1  0
 34 32  2  0
M  END
$$$$
