HYR.pdb
     RDKit          3D

 34 35  0  0  1  0  0  0  0  0999 V2000
   10.9866  -15.0357   19.0285 N   0  0  0  0  0  0  0  0  0  0  0  0
    9.5942  -14.8918   19.4085 C   0  0  1  0  0  0  0  0  0  0  0  0
    8.8170  -15.9719   18.7035 C   0  0  0  0  0  0  0  0  0  0  0  0
    8.4840  -15.4700   17.3529 C   0  0  0  0  0  0  0  0  0  0  0  0
    8.7284  -14.2218   16.8395 C   0  0  0  0  0  0  0  0  0  0  0  0
    8.2614  -14.1731   15.5553 N   0  0  0  0  0  0  0  0  0  0  0  0
    7.7366  -15.3759   15.2831 C   0  0  0  0  0  0  0  0  0  0  0  0
    7.8735  -16.1565   16.3729 N   0  0  0  0  0  0  0  0  0  0  0  0
    9.5238  -14.9836   20.8915 C   0  0  0  0  0  0  0  0  0  0  0  0
   10.3063  -15.6895   21.5787 O   0  0  0  0  0  0  0  0  0  0  0  0
    6.5523  -12.6532   28.9934 O   0  0  0  0  0  0  0  0  0  0  0  0
    6.7744  -12.7743   27.6248 C   0  0  0  0  0  0  0  0  0  0  0  0
    7.7807  -12.0602   27.0073 C   0  0  0  0  0  0  0  0  0  0  0  0
    7.9933  -12.1869   25.6474 C   0  0  0  0  0  0  0  0  0  0  0  0
    7.2131  -13.0219   24.8810 C   0  0  0  0  0  0  0  0  0  0  0  0
    7.4030  -13.1792   23.4420 C   0  0  0  0  0  0  0  0  0  0  0  0
    8.4377  -14.2114   23.0520 C   0  0  2  0  0  0  0  0  0  0  0  0
    8.5223  -14.2407   21.6130 N   0  0  0  0  0  0  0  0  0  0  0  0
    8.2005  -15.5428   23.6387 C   0  0  0  0  0  0  0  0  0  0  0  0
    7.1848  -16.2354   23.3713 O   0  0  0  0  0  0  0  0  0  0  0  0
    6.2133  -13.7280   25.5108 C   0  0  0  0  0  0  0  0  0  0  0  0
    5.9849  -13.6147   26.8698 C   0  0  0  0  0  0  0  0  0  0  0  0
   13.8630  -19.4573   29.0942 N   0  0  0  0  0  0  0  0  0  0  0  0
   12.6722  -19.1847   29.8132 C   0  0  0  0  0  0  0  0  0  0  0  0
   12.5878  -19.2763   31.0981 N   0  0  0  0  0  0  0  0  0  0  0  0
   11.4659  -18.7838   29.1723 N   0  0  0  0  0  0  0  0  0  0  0  0
   11.2560  -18.6652   27.7969 C   0  0  0  0  0  0  0  0  0  0  0  0
    9.9824  -18.1097   27.2967 C   0  0  0  0  0  0  0  0  0  0  0  0
   10.0314  -18.0930   25.7918 C   0  0  0  0  0  0  0  0  0  0  0  0
    8.8626  -17.4343   25.1543 C   0  0  2  0  0  0  0  0  0  0  0  0
    9.1217  -16.1487   24.5670 N   0  0  0  0  0  0  0  0  0  0  0  0
    7.7894  -17.2930   26.2039 C   0  0  0  0  0  0  0  0  0  0  0  0
    7.5883  -16.0699   26.8207 O   0  0  0  0  0  0  0  0  0  0  0  0
    7.0582  -18.2506   26.5493 O   0  0  0  0  0  0  0  0  0  0  0  0
  2  1  1  1
  2  9  1  0
  2  3  1  0
  4  3  1  0
  5  4  2  0
  6  7  1  0
  6  5  1  0
  7  8  2  0
  8  4  1  0
  9 10  2  0
 11 12  1  0
 12 22  2  0
 13 12  1  0
 13 14  2  0
 14 15  1  0
 15 21  2  0
 15 16  1  0
 17 16  1  6
 18 17  1  0
 18  9  1  0
 19 17  1  0
 20 19  2  0
 22 21  1  0
 23 24  1  0
 24 26  1  0
 25 24  2  0
 26 27  1  0
 27 28  1  0
 28 29  1  0
 30 29  1  1
 30 31  1  0
 31 19  1  0
 32 30  1  0
 32 33  1  0
 34 32  2  0
M  END
$$$$
