HYR.pdb
     RDKit          3D

 34 35  0  0  1  0  0  0  0  0999 V2000
   10.6463  -15.3053   19.7653 N   0  0  0  0  0  0  0  0  0  0  0  0
    9.2970  -14.9576   20.1683 C   0  0  1  0  0  0  0  0  0  0  0  0
    8.3581  -15.9197   19.4899 C   0  0  0  0  0  0  0  0  0  0  0  0
    8.1531  -15.4394   18.1064 C   0  0  0  0  0  0  0  0  0  0  0  0
    8.7825  -14.3934   17.4811 C   0  0  0  0  0  0  0  0  0  0  0  0
    8.3008  -14.2864   16.2059 N   0  0  0  0  0  0  0  0  0  0  0  0
    7.3869  -15.2543   16.0495 C   0  0  0  0  0  0  0  0  0  0  0  0
    7.3010  -15.9487   17.2012 N   0  0  0  0  0  0  0  0  0  0  0  0
    9.2426  -15.0249   21.6533 C   0  0  0  0  0  0  0  0  0  0  0  0
   10.0711  -15.6689   22.3473 O   0  0  0  0  0  0  0  0  0  0  0  0
    7.2382  -12.1503   29.7764 O   0  0  0  0  0  0  0  0  0  0  0  0
    7.2927  -12.3432   28.3991 C   0  0  0  0  0  0  0  0  0  0  0  0
    6.1658  -12.1837   27.6191 C   0  0  0  0  0  0  0  0  0  0  0  0
    6.2299  -12.3778   26.2521 C   0  0  0  0  0  0  0  0  0  0  0  0
    7.4098  -12.7321   25.6392 C   0  0  0  0  0  0  0  0  0  0  0  0
    7.5168  -12.9509   24.1997 C   0  0  0  0  0  0  0  0  0  0  0  0
    8.1266  -14.2785   23.8076 C   0  0  2  0  0  0  0  0  0  0  0  0
    8.2031  -14.3300   22.3688 N   0  0  0  0  0  0  0  0  0  0  0  0
    7.4352  -15.4449   24.3862 C   0  0  0  0  0  0  0  0  0  0  0  0
    6.9012  -15.4260   25.5251 O   0  0  0  0  0  0  0  0  0  0  0  0
    8.5257  -12.8874   26.4301 C   0  0  0  0  0  0  0  0  0  0  0  0
    8.4817  -12.6978   27.7990 C   0  0  0  0  0  0  0  0  0  0  0  0
    6.0026  -23.9016   22.0423 N   0  0  0  0  0  0  0  0  0  0  0  0
    6.8005  -23.9831   23.2111 C   0  0  0  0  0  0  0  0  0  0  0  0
    7.0497  -25.0947   23.8185 N   0  0  0  0  0  0  0  0  0  0  0  0
    7.3966  -22.8386   23.8123 N   0  0  0  0  0  0  0  0  0  0  0  0
    7.2179  -21.5091   23.4248 C   0  0  0  0  0  0  0  0  0  0  0  0
    7.9108  -20.4332   24.1616 C   0  0  0  0  0  0  0  0  0  0  0  0
    7.6675  -19.1332   23.4416 C   0  0  0  0  0  0  0  0  0  0  0  0
    7.5621  -17.9539   24.3385 C   0  0  2  0  0  0  0  0  0  0  0  0
    7.3221  -16.6979   23.6828 N   0  0  0  0  0  0  0  0  0  0  0  0
    8.8436  -17.8644   25.1279 C   0  0  0  0  0  0  0  0  0  0  0  0
    8.8297  -18.1093   26.4906 O   0  0  0  0  0  0  0  0  0  0  0  0
    9.9405  -17.5731   24.5961 O   0  0  0  0  0  0  0  0  0  0  0  0
  2  1  1  6
  2  9  1  0
  2  3  1  0
  4  3  1  0
  5  4  2  0
  6  7  1  0
  6  5  1  0
  7  8  2  0
  8  4  1  0
  9 10  2  0
 11 12  1  0
 12 22  2  0
 13 12  1  0
 13 14  2  0
 14 15  1  0
 15 21  2  0
 15 16  1  0
 17 16  1  6
 18 17  1  0
 18  9  1  0
 19 17  1  0
 20 19  2  0
 22 21  1  0
 23 24  1  0
 24 26  1  0
 25 24  2  0
 26 27  1  0
 27 28  1  0
 28 29  1  0
 30 29  1  6
 30 31  1  0
 31 19  1  0
 32 30  1  0
 32 33  1  0
 34 32  2  0
M  END
$$$$
