HYR.pdb
     RDKit          3D

 34 35  0  0  1  0  0  0  0  0999 V2000
    8.5613  -17.9265   20.0466 N   0  0  0  0  0  0  0  0  0  0  0  0
    9.6275  -17.0075   19.6965 C   0  0  1  0  0  0  0  0  0  0  0  0
    9.2798  -16.3943   18.3658 C   0  0  0  0  0  0  0  0  0  0  0  0
    9.2247  -17.4889   17.3731 C   0  0  0  0  0  0  0  0  0  0  0  0
   10.2755  -18.1971   16.8481 C   0  0  0  0  0  0  0  0  0  0  0  0
    9.7887  -19.1195   15.9638 N   0  0  0  0  0  0  0  0  0  0  0  0
    8.4558  -18.9798   15.9455 C   0  0  0  0  0  0  0  0  0  0  0  0
    8.1196  -17.9927   16.7990 N   0  0  0  0  0  0  0  0  0  0  0  0
    9.7390  -16.0121   20.7962 C   0  0  0  0  0  0  0  0  0  0  0  0
   10.7171  -15.2315   20.9260 O   0  0  0  0  0  0  0  0  0  0  0  0
    6.7197  -11.5668   27.9520 O   0  0  0  0  0  0  0  0  0  0  0  0
    6.8679  -12.3159   26.7883 C   0  0  0  0  0  0  0  0  0  0  0  0
    7.2853  -11.7218   25.6151 C   0  0  0  0  0  0  0  0  0  0  0  0
    7.4292  -12.4741   24.4645 C   0  0  0  0  0  0  0  0  0  0  0  0
    7.1620  -13.8238   24.4600 C   0  0  0  0  0  0  0  0  0  0  0  0
    7.2972  -14.6512   23.2647 C   0  0  0  0  0  0  0  0  0  0  0  0
    8.7242  -14.9676   22.8753 C   0  0  2  0  0  0  0  0  0  0  0  0
    8.6935  -15.9066   21.7817 N   0  0  0  0  0  0  0  0  0  0  0  0
    9.5602  -15.4257   23.9998 C   0  0  0  0  0  0  0  0  0  0  0  0
    9.8648  -14.6849   24.9700 O   0  0  0  0  0  0  0  0  0  0  0  0
    6.7466  -14.4027   25.6378 C   0  0  0  0  0  0  0  0  0  0  0  0
    6.5966  -13.6672   26.7989 C   0  0  0  0  0  0  0  0  0  0  0  0
    9.8116  -19.0049   31.3530 N   0  0  0  0  0  0  0  0  0  0  0  0
   10.6595  -19.8778   30.6261 C   0  0  0  0  0  0  0  0  0  0  0  0
   10.9487  -21.0719   31.0225 N   0  0  0  0  0  0  0  0  0  0  0  0
   11.2630  -19.5064   29.3914 N   0  0  0  0  0  0  0  0  0  0  0  0
   10.5988  -19.1198   28.2256 C   0  0  0  0  0  0  0  0  0  0  0  0
   11.3761  -18.8200   27.0063 C   0  0  0  0  0  0  0  0  0  0  0  0
   10.4241  -18.3361   25.9446 C   0  0  0  0  0  0  0  0  0  0  0  0
   10.9324  -17.1866   25.1529 C   0  0  2  0  0  0  0  0  0  0  0  0
   10.0916  -16.7639   24.0670 N   0  0  0  0  0  0  0  0  0  0  0  0
   12.2871  -17.5681   24.6119 C   0  0  0  0  0  0  0  0  0  0  0  0
   12.3890  -18.1393   23.3548 O   0  0  0  0  0  0  0  0  0  0  0  0
   13.3440  -17.3881   25.2611 O   0  0  0  0  0  0  0  0  0  0  0  0
  2  1  1  1
  2  9  1  0
  2  3  1  0
  4  3  1  0
  5  4  2  0
  6  7  1  0
  6  5  1  0
  7  8  2  0
  8  4  1  0
  9 10  2  0
 11 12  1  0
 12 22  2  0
 13 12  1  0
 13 14  2  0
 14 15  1  0
 15 21  2  0
 15 16  1  0
 17 16  1  1
 18 17  1  0
 18  9  1  0
 19 17  1  0
 20 19  2  0
 22 21  1  0
 23 24  1  0
 24 26  1  0
 25 24  2  0
 26 27  1  0
 27 28  1  0
 28 29  1  0
 30 29  1  6
 30 31  1  0
 31 19  1  0
 32 30  1  0
 32 33  1  0
 34 32  2  0
M  END
$$$$
