HYR.pdb
     RDKit          3D

 34 35  0  0  1  0  0  0  0  0999 V2000
   10.6100  -17.3760   17.8761 N   0  0  0  0  0  0  0  0  0  0  0  0
    9.6543  -17.7497   18.9013 C   0  0  1  0  0  0  0  0  0  0  0  0
    9.8145  -19.2253   19.1553 C   0  0  0  0  0  0  0  0  0  0  0  0
    9.2689  -19.9400   17.9813 C   0  0  0  0  0  0  0  0  0  0  0  0
    8.7682  -19.3942   16.8268 C   0  0  0  0  0  0  0  0  0  0  0  0
    8.3682  -20.4051   15.9975 N   0  0  0  0  0  0  0  0  0  0  0  0
    8.6197  -21.5573   16.6342 C   0  0  0  0  0  0  0  0  0  0  0  0
    9.1642  -21.2711   17.8331 N   0  0  0  0  0  0  0  0  0  0  0  0
    9.9303  -16.9096   20.0974 C   0  0  0  0  0  0  0  0  0  0  0  0
   11.0695  -16.4526   20.3736 O   0  0  0  0  0  0  0  0  0  0  0  0
    7.6478  -11.4493   17.7424 O   0  0  0  0  0  0  0  0  0  0  0  0
    7.7387  -12.2572   18.8721 C   0  0  0  0  0  0  0  0  0  0  0  0
    8.5574  -11.9070   19.9261 C   0  0  0  0  0  0  0  0  0  0  0  0
    8.6412  -12.7162   21.0435 C   0  0  0  0  0  0  0  0  0  0  0  0
    7.9161  -13.8822   21.1326 C   0  0  0  0  0  0  0  0  0  0  0  0
    7.9813  -14.7655   22.2932 C   0  0  0  0  0  0  0  0  0  0  0  0
    9.0598  -15.8236   22.2202 C   0  0  2  0  0  0  0  0  0  0  0  0
    8.8644  -16.5809   21.0090 N   0  0  0  0  0  0  0  0  0  0  0  0
    9.1403  -16.6750   23.4209 C   0  0  0  0  0  0  0  0  0  0  0  0
    8.1622  -17.3359   23.8559 O   0  0  0  0  0  0  0  0  0  0  0  0
    7.1036  -14.2185   20.0735 C   0  0  0  0  0  0  0  0  0  0  0  0
    7.0063  -13.4224   18.9472 C   0  0  0  0  0  0  0  0  0  0  0  0
   13.2713  -23.4080   23.1216 N   0  0  0  0  0  0  0  0  0  0  0  0
   12.5767  -22.7039   22.1061 C   0  0  0  0  0  0  0  0  0  0  0  0
   12.5555  -23.0843   20.8727 N   0  0  0  0  0  0  0  0  0  0  0  0
   11.8403  -21.5137   22.3665 N   0  0  0  0  0  0  0  0  0  0  0  0
   11.9091  -20.7304   23.5205 C   0  0  0  0  0  0  0  0  0  0  0  0
   10.9663  -19.6081   23.6998 C   0  0  0  0  0  0  0  0  0  0  0  0
   11.2551  -18.9537   25.0249 C   0  0  0  0  0  0  0  0  0  0  0  0
   10.4522  -17.7315   25.2854 C   0  0  2  0  0  0  0  0  0  0  0  0
   10.3539  -16.8105   24.1868 N   0  0  0  0  0  0  0  0  0  0  0  0
   11.0637  -17.0272   26.4701 C   0  0  0  0  0  0  0  0  0  0  0  0
   11.6193  -15.7692   26.3099 O   0  0  0  0  0  0  0  0  0  0  0  0
   11.0920  -17.5389   27.6139 O   0  0  0  0  0  0  0  0  0  0  0  0
  2  1  1  6
  2  9  1  0
  2  3  1  0
  4  3  1  0
  5  4  2  0
  6  7  1  0
  6  5  1  0
  7  8  2  0
  8  4  1  0
  9 10  2  0
 11 12  1  0
 12 22  2  0
 13 12  1  0
 13 14  2  0
 14 15  1  0
 15 21  2  0
 15 16  1  0
 17 16  1  1
 18 17  1  0
 18  9  1  0
 19 17  1  0
 20 19  2  0
 22 21  1  0
 23 24  1  0
 24 26  1  0
 25 24  2  0
 26 27  1  0
 27 28  1  0
 28 29  1  0
 30 29  1  6
 30 31  1  0
 31 19  1  0
 32 30  1  0
 32 33  1  0
 34 32  2  0
M  END
$$$$
