HYR.pdb
     RDKit          3D

 34 35  0  0  1  0  0  0  0  0999 V2000
    7.5518  -15.5390   18.8846 N   0  0  0  0  0  0  0  0  0  0  0  0
    8.7901  -14.7940   19.0091 C   0  0  1  0  0  0  0  0  0  0  0  0
    8.6525  -13.5428   18.1827 C   0  0  0  0  0  0  0  0  0  0  0  0
    8.2419  -13.9519   16.8223 C   0  0  0  0  0  0  0  0  0  0  0  0
    7.0622  -13.6682   16.1826 C   0  0  0  0  0  0  0  0  0  0  0  0
    7.0867  -14.2354   14.9386 N   0  0  0  0  0  0  0  0  0  0  0  0
    8.2663  -14.8596   14.8154 C   0  0  0  0  0  0  0  0  0  0  0  0
    8.9612  -14.6855   15.9567 N   0  0  0  0  0  0  0  0  0  0  0  0
    9.0076  -14.5269   20.4562 C   0  0  0  0  0  0  0  0  0  0  0  0
   10.0958  -14.1045   20.9256 O   0  0  0  0  0  0  0  0  0  0  0  0
    6.7603  -13.0366   28.9092 O   0  0  0  0  0  0  0  0  0  0  0  0
    6.7955  -13.2113   27.5289 C   0  0  0  0  0  0  0  0  0  0  0  0
    7.1319  -12.1659   26.6936 C   0  0  0  0  0  0  0  0  0  0  0  0
    7.1638  -12.3491   25.3240 C   0  0  0  0  0  0  0  0  0  0  0  0
    6.8633  -13.5692   24.7631 C   0  0  0  0  0  0  0  0  0  0  0  0
    6.8810  -13.8011   23.3218 C   0  0  0  0  0  0  0  0  0  0  0  0
    8.0864  -14.5656   22.8212 C   0  0  2  0  0  0  0  0  0  0  0  0
    7.9415  -14.7510   21.3988 N   0  0  0  0  0  0  0  0  0  0  0  0
    8.3310  -15.8285   23.5412 C   0  0  0  0  0  0  0  0  0  0  0  0
    7.6709  -16.8772   23.3235 O   0  0  0  0  0  0  0  0  0  0  0  0
    6.5297  -14.6028   25.6088 C   0  0  0  0  0  0  0  0  0  0  0  0
    6.4921  -14.4393   26.9813 C   0  0  0  0  0  0  0  0  0  0  0  0
   14.4343  -15.2503   18.9651 N   0  0  0  0  0  0  0  0  0  0  0  0
   14.9287  -16.2644   19.8232 C   0  0  0  0  0  0  0  0  0  0  0  0
   16.1064  -16.7791   19.7011 N   0  0  0  0  0  0  0  0  0  0  0  0
   14.1622  -16.7996   20.8968 N   0  0  0  0  0  0  0  0  0  0  0  0
   13.3843  -16.0762   21.8031 C   0  0  0  0  0  0  0  0  0  0  0  0
   12.6755  -16.7851   22.8874 C   0  0  0  0  0  0  0  0  0  0  0  0
   11.3460  -16.1119   23.1037 C   0  0  0  0  0  0  0  0  0  0  0  0
   10.5995  -16.6104   24.2872 C   0  0  2  0  0  0  0  0  0  0  0  0
    9.3504  -15.9514   24.5528 N   0  0  0  0  0  0  0  0  0  0  0  0
   11.5001  -16.4691   25.4881 C   0  0  0  0  0  0  0  0  0  0  0  0
   11.1017  -15.6849   26.5573 O   0  0  0  0  0  0  0  0  0  0  0  0
   12.6134  -17.0400   25.5630 O   0  0  0  0  0  0  0  0  0  0  0  0
  2  1  1  1
  2  9  1  0
  2  3  1  0
  4  3  1  0
  5  4  2  0
  6  7  1  0
  6  5  1  0
  7  8  2  0
  8  4  1  0
  9 10  2  0
 11 12  1  0
 12 22  2  0
 13 12  1  0
 13 14  2  0
 14 15  1  0
 15 21  2  0
 15 16  1  0
 17 16  1  1
 18 17  1  0
 18  9  1  0
 19 17  1  0
 20 19  2  0
 22 21  1  0
 23 24  1  0
 24 26  1  0
 25 24  2  0
 26 27  1  0
 27 28  1  0
 28 29  1  0
 30 29  1  6
 30 31  1  0
 31 19  1  0
 32 30  1  0
 32 33  1  0
 34 32  2  0
M  END
$$$$
