HYR.pdb
     RDKit          3D

 34 35  0  0  1  0  0  0  0  0999 V2000
    8.7999  -12.4364   18.5233 N   0  0  0  0  0  0  0  0  0  0  0  0
    8.1830  -13.6175   19.0964 C   0  0  1  0  0  0  0  0  0  0  0  0
    8.6176  -14.8015   18.2738 C   0  0  0  0  0  0  0  0  0  0  0  0
    8.1608  -14.5703   16.8865 C   0  0  0  0  0  0  0  0  0  0  0  0
    6.9209  -14.1565   16.4710 C   0  0  0  0  0  0  0  0  0  0  0  0
    6.9187  -14.0688   15.1064 N   0  0  0  0  0  0  0  0  0  0  0  0
    8.1416  -14.4241   14.6887 C   0  0  0  0  0  0  0  0  0  0  0  0
    8.8890  -14.7265   15.7684 N   0  0  0  0  0  0  0  0  0  0  0  0
    8.6075  -13.6976   20.5198 C   0  0  0  0  0  0  0  0  0  0  0  0
    9.8006  -13.8767   20.8767 O   0  0  0  0  0  0  0  0  0  0  0  0
    7.2528  -14.1626   29.3357 O   0  0  0  0  0  0  0  0  0  0  0  0
    7.1294  -13.9519   27.9655 C   0  0  0  0  0  0  0  0  0  0  0  0
    6.5396  -14.9008   27.1559 C   0  0  0  0  0  0  0  0  0  0  0  0
    6.4220  -14.6824   25.7961 C   0  0  0  0  0  0  0  0  0  0  0  0
    6.8863  -13.5224   25.2199 C   0  0  0  0  0  0  0  0  0  0  0  0
    6.7850  -13.2570   23.7878 C   0  0  0  0  0  0  0  0  0  0  0  0
    7.9245  -13.8117   22.9619 C   0  0  2  0  0  0  0  0  0  0  0  0
    7.6316  -13.5676   21.5715 N   0  0  0  0  0  0  0  0  0  0  0  0
    8.2293  -15.2264   23.2429 C   0  0  0  0  0  0  0  0  0  0  0  0
    7.4786  -16.1704   22.8849 O   0  0  0  0  0  0  0  0  0  0  0  0
    7.4721  -12.5849   26.0401 C   0  0  0  0  0  0  0  0  0  0  0  0
    7.5991  -12.7849   27.4023 C   0  0  0  0  0  0  0  0  0  0  0  0
   12.3767  -15.7833   18.6389 N   0  0  0  0  0  0  0  0  0  0  0  0
   13.1826  -15.3414   19.7180 C   0  0  0  0  0  0  0  0  0  0  0  0
   14.1430  -14.4901   19.5783 N   0  0  0  0  0  0  0  0  0  0  0  0
   12.9957  -15.8025   21.0519 N   0  0  0  0  0  0  0  0  0  0  0  0
   11.9239  -16.5621   21.5254 C   0  0  0  0  0  0  0  0  0  0  0  0
   11.8812  -16.9601   22.9468 C   0  0  0  0  0  0  0  0  0  0  0  0
   10.5808  -17.6760   23.1995 C   0  0  0  0  0  0  0  0  0  0  0  0
    9.7098  -17.0144   24.2044 C   0  0  2  0  0  0  0  0  0  0  0  0
    9.4168  -15.6303   23.9531 N   0  0  0  0  0  0  0  0  0  0  0  0
   10.3828  -17.1431   25.5476 C   0  0  0  0  0  0  0  0  0  0  0  0
   10.6784  -16.0058   26.2797 O   0  0  0  0  0  0  0  0  0  0  0  0
   10.6922  -18.2535   26.0396 O   0  0  0  0  0  0  0  0  0  0  0  0
  2  1  1  6
  2  9  1  0
  2  3  1  0
  4  3  1  0
  5  4  2  0
  6  7  1  0
  6  5  1  0
  7  8  2  0
  8  4  1  0
  9 10  2  0
 11 12  1  0
 12 22  2  0
 13 12  1  0
 13 14  2  0
 14 15  1  0
 15 21  2  0
 15 16  1  0
 17 16  1  1
 18 17  1  0
 18  9  1  0
 19 17  1  0
 20 19  2  0
 22 21  1  0
 23 24  1  0
 24 26  1  0
 25 24  2  0
 26 27  1  0
 27 28  1  0
 28 29  1  0
 30 29  1  6
 30 31  1  0
 31 19  1  0
 32 30  1  0
 32 33  1  0
 34 32  2  0
M  END
$$$$
