HYR.pdb
     RDKit          3D

 34 35  0  0  1  0  0  0  0  0999 V2000
    9.7128  -16.6326   18.3964 N   0  0  0  0  0  0  0  0  0  0  0  0
    8.5307  -16.7133   19.2331 C   0  0  1  0  0  0  0  0  0  0  0  0
    8.0839  -18.1512   19.2505 C   0  0  0  0  0  0  0  0  0  0  0  0
    7.5175  -18.4564   17.9190 C   0  0  0  0  0  0  0  0  0  0  0  0
    6.2118  -18.3357   17.5166 C   0  0  0  0  0  0  0  0  0  0  0  0
    6.1151  -18.7220   16.2085 N   0  0  0  0  0  0  0  0  0  0  0  0
    7.3456  -19.0757   15.8121 C   0  0  0  0  0  0  0  0  0  0  0  0
    8.1900  -18.9135   16.8497 N   0  0  0  0  0  0  0  0  0  0  0  0
    8.8975  -16.1910   20.5768 C   0  0  0  0  0  0  0  0  0  0  0  0
    9.9289  -16.5511   21.2008 O   0  0  0  0  0  0  0  0  0  0  0  0
    7.1788  -11.9779   28.2710 O   0  0  0  0  0  0  0  0  0  0  0  0
    7.1791  -12.4265   26.9534 C   0  0  0  0  0  0  0  0  0  0  0  0
    8.0348  -11.8769   26.0210 C   0  0  0  0  0  0  0  0  0  0  0  0
    8.0274  -12.3290   24.7149 C   0  0  0  0  0  0  0  0  0  0  0  0
    7.1733  -13.3307   24.3144 C   0  0  0  0  0  0  0  0  0  0  0  0
    7.1320  -13.8317   22.9438 C   0  0  0  0  0  0  0  0  0  0  0  0
    8.2641  -14.7669   22.5802 C   0  0  2  0  0  0  0  0  0  0  0  0
    8.0539  -15.2221   21.2284 N   0  0  0  0  0  0  0  0  0  0  0  0
    8.4506  -15.8746   23.5348 C   0  0  0  0  0  0  0  0  0  0  0  0
    7.6493  -16.8404   23.6246 O   0  0  0  0  0  0  0  0  0  0  0  0
    6.3255  -13.8695   25.2556 C   0  0  0  0  0  0  0  0  0  0  0  0
    6.3179  -13.4308   26.5668 C   0  0  0  0  0  0  0  0  0  0  0  0
   14.3938  -20.0955   27.1363 N   0  0  0  0  0  0  0  0  0  0  0  0
   13.5813  -21.2314   26.8933 C   0  0  0  0  0  0  0  0  0  0  0  0
   13.8269  -22.3946   27.3966 N   0  0  0  0  0  0  0  0  0  0  0  0
   12.4206  -21.1805   26.0707 N   0  0  0  0  0  0  0  0  0  0  0  0
   11.9849  -20.0894   25.3160 C   0  0  0  0  0  0  0  0  0  0  0  0
   10.9959  -19.1533   25.8872 C   0  0  0  0  0  0  0  0  0  0  0  0
   10.7525  -18.0533   24.8881 C   0  0  0  0  0  0  0  0  0  0  0  0
    9.7646  -17.0374   25.3333 C   0  0  2  0  0  0  0  0  0  0  0  0
    9.5716  -15.9292   24.4392 N   0  0  0  0  0  0  0  0  0  0  0  0
   10.2158  -16.5192   26.6755 C   0  0  0  0  0  0  0  0  0  0  0  0
   10.4942  -15.1722   26.8337 O   0  0  0  0  0  0  0  0  0  0  0  0
   10.3526  -17.2668   27.6721 O   0  0  0  0  0  0  0  0  0  0  0  0
  2  1  1  6
  2  9  1  0
  2  3  1  0
  4  3  1  0
  5  4  2  0
  6  7  1  0
  6  5  1  0
  7  8  2  0
  8  4  1  0
  9 10  2  0
 11 12  1  0
 12 22  2  0
 13 12  1  0
 13 14  2  0
 14 15  1  0
 15 21  2  0
 15 16  1  0
 17 16  1  1
 18 17  1  0
 18  9  1  0
 19 17  1  0
 20 19  2  0
 22 21  1  0
 23 24  1  0
 24 26  1  0
 25 24  2  0
 26 27  1  0
 27 28  1  0
 28 29  1  0
 30 29  1  6
 30 31  1  0
 31 19  1  0
 32 30  1  0
 32 33  1  0
 34 32  2  0
M  END
$$$$
