HYR.pdb
     RDKit          3D

 34 35  0  0  1  0  0  0  0  0999 V2000
    9.9797  -16.1644   14.0431 N   0  0  0  0  0  0  0  0  0  0  0  0
    8.9323  -16.5177   14.9823 C   0  0  1  0  0  0  0  0  0  0  0  0
    8.8477  -18.0206   15.0240 C   0  0  0  0  0  0  0  0  0  0  0  0
    8.0166  -18.4506   13.8789 C   0  0  0  0  0  0  0  0  0  0  0  0
    6.7689  -19.0189   13.9163 C   0  0  0  0  0  0  0  0  0  0  0  0
    6.3563  -19.2638   12.6359 N   0  0  0  0  0  0  0  0  0  0  0  0
    7.3381  -18.8513   11.8220 C   0  0  0  0  0  0  0  0  0  0  0  0
    8.3397  -18.3605   12.5780 N   0  0  0  0  0  0  0  0  0  0  0  0
    9.2828  -15.9078   16.2930 C   0  0  0  0  0  0  0  0  0  0  0  0
   10.4458  -15.9200   16.7727 O   0  0  0  0  0  0  0  0  0  0  0  0
    7.4004  -12.1806   24.1922 O   0  0  0  0  0  0  0  0  0  0  0  0
    7.3618  -12.6405   22.8791 C   0  0  0  0  0  0  0  0  0  0  0  0
    7.7655  -11.8323   21.8362 C   0  0  0  0  0  0  0  0  0  0  0  0
    7.7233  -12.2980   20.5355 C   0  0  0  0  0  0  0  0  0  0  0  0
    7.2811  -13.5693   20.2500 C   0  0  0  0  0  0  0  0  0  0  0  0
    7.2170  -14.0957   18.8897 C   0  0  0  0  0  0  0  0  0  0  0  0
    8.5140  -14.6839   18.3798 C   0  0  2  0  0  0  0  0  0  0  0  0
    8.2658  -15.2609   17.0820 N   0  0  0  0  0  0  0  0  0  0  0  0
    9.1465  -15.6310   19.3158 C   0  0  0  0  0  0  0  0  0  0  0  0
    9.2415  -16.8631   19.0799 O   0  0  0  0  0  0  0  0  0  0  0  0
    6.8818  -14.3641   21.3005 C   0  0  0  0  0  0  0  0  0  0  0  0
    6.9166  -13.9165   22.6082 C   0  0  0  0  0  0  0  0  0  0  0  0
   14.2393  -21.3075   20.5709 N   0  0  0  0  0  0  0  0  0  0  0  0
   14.1534  -20.4260   19.4642 C   0  0  0  0  0  0  0  0  0  0  0  0
   14.4515  -20.7773   18.2582 N   0  0  0  0  0  0  0  0  0  0  0  0
   13.7273  -19.0739   19.5939 N   0  0  0  0  0  0  0  0  0  0  0  0
   13.3185  -18.4412   20.7696 C   0  0  0  0  0  0  0  0  0  0  0  0
   11.8904  -18.1231   20.9704 C   0  0  0  0  0  0  0  0  0  0  0  0
   11.7076  -16.6379   20.8021 C   0  0  0  0  0  0  0  0  0  0  0  0
   10.4577  -16.1087   21.4053 C   0  0  2  0  0  0  0  0  0  0  0  0
    9.7038  -15.2090   20.5764 N   0  0  0  0  0  0  0  0  0  0  0  0
   10.8304  -15.4076   22.6871 C   0  0  0  0  0  0  0  0  0  0  0  0
   11.4336  -16.1199   23.7097 O   0  0  0  0  0  0  0  0  0  0  0  0
   10.6147  -14.1867   22.8715 O   0  0  0  0  0  0  0  0  0  0  0  0
  2  1  1  6
  2  9  1  0
  2  3  1  0
  4  3  1  0
  5  4  2  0
  6  7  1  0
  6  5  1  0
  7  8  2  0
  8  4  1  0
  9 10  2  0
 11 12  1  0
 12 22  2  0
 13 12  1  0
 13 14  2  0
 14 15  1  0
 15 21  2  0
 15 16  1  0
 17 16  1  1
 18 17  1  0
 18  9  1  0
 19 17  1  0
 20 19  2  0
 22 21  1  0
 23 24  1  0
 24 26  1  0
 25 24  2  0
 26 27  1  0
 27 28  1  0
 28 29  1  0
 30 29  1  6
 30 31  1  0
 31 19  1  0
 32 30  1  0
 32 33  1  0
 34 32  2  0
M  END
$$$$
