HYR.pdb
     RDKit          3D

 34 35  0  0  1  0  0  0  0  0999 V2000
    7.9173  -13.3965   19.7214 N   0  0  0  0  0  0  0  0  0  0  0  0
    8.1126  -14.8160   19.9466 C   0  0  1  0  0  0  0  0  0  0  0  0
    9.0067  -15.3311   18.8498 C   0  0  0  0  0  0  0  0  0  0  0  0
    8.2164  -15.3401   17.5999 C   0  0  0  0  0  0  0  0  0  0  0  0
    7.0489  -14.6679   17.3424 C   0  0  0  0  0  0  0  0  0  0  0  0
    6.6488  -14.9503   16.0657 N   0  0  0  0  0  0  0  0  0  0  0  0
    7.5589  -15.7854   15.5453 C   0  0  0  0  0  0  0  0  0  0  0  0
    8.5046  -16.0182   16.4766 N   0  0  0  0  0  0  0  0  0  0  0  0
    8.6916  -14.9773   21.3073 C   0  0  0  0  0  0  0  0  0  0  0  0
    9.9179  -14.8482   21.5568 O   0  0  0  0  0  0  0  0  0  0  0  0
    6.6598  -10.1401   26.7385 O   0  0  0  0  0  0  0  0  0  0  0  0
    6.7731  -11.4375   26.2474 C   0  0  0  0  0  0  0  0  0  0  0  0
    5.9194  -12.4322   26.6781 C   0  0  0  0  0  0  0  0  0  0  0  0
    6.0400  -13.7176   26.1847 C   0  0  0  0  0  0  0  0  0  0  0  0
    7.0070  -14.0355   25.2587 C   0  0  0  0  0  0  0  0  0  0  0  0
    7.1695  -15.3818   24.7178 C   0  0  0  0  0  0  0  0  0  0  0  0
    8.3261  -15.5390   23.7556 C   0  0  2  0  0  0  0  0  0  0  0  0
    7.8362  -15.2973   22.4213 N   0  0  0  0  0  0  0  0  0  0  0  0
    9.0338  -16.8261   23.8812 C   0  0  0  0  0  0  0  0  0  0  0  0
    8.5057  -17.9275   23.5800 O   0  0  0  0  0  0  0  0  0  0  0  0
    7.8513  -13.0329   24.8383 C   0  0  0  0  0  0  0  0  0  0  0  0
    7.7465  -11.7411   25.3200 C   0  0  0  0  0  0  0  0  0  0  0  0
   17.4988  -19.2321   22.8562 N   0  0  0  0  0  0  0  0  0  0  0  0
   16.7802  -20.4245   23.1228 C   0  0  0  0  0  0  0  0  0  0  0  0
   17.2906  -21.6018   22.9813 N   0  0  0  0  0  0  0  0  0  0  0  0
   15.4296  -20.4199   23.5726 N   0  0  0  0  0  0  0  0  0  0  0  0
   14.6050  -19.3018   23.7134 C   0  0  0  0  0  0  0  0  0  0  0  0
   13.2006  -19.4773   24.1347 C   0  0  0  0  0  0  0  0  0  0  0  0
   12.5231  -18.1331   24.0967 C   0  0  0  0  0  0  0  0  0  0  0  0
   11.0796  -18.1716   24.4450 C   0  0  2  0  0  0  0  0  0  0  0  0
   10.3898  -16.9137   24.3620 N   0  0  0  0  0  0  0  0  0  0  0  0
   10.9626  -18.7099   25.8485 C   0  0  0  0  0  0  0  0  0  0  0  0
   11.3467  -20.0122   26.1192 O   0  0  0  0  0  0  0  0  0  0  0  0
   10.5251  -18.0186   26.7981 O   0  0  0  0  0  0  0  0  0  0  0  0
  2  1  1  6
  2  9  1  0
  2  3  1  0
  4  3  1  0
  5  4  2  0
  6  7  1  0
  6  5  1  0
  7  8  2  0
  8  4  1  0
  9 10  2  0
 11 12  1  0
 12 22  2  0
 13 12  1  0
 13 14  2  0
 14 15  1  0
 15 21  2  0
 15 16  1  0
 17 16  1  1
 18 17  1  0
 18  9  1  0
 19 17  1  0
 20 19  2  0
 22 21  1  0
 23 24  1  0
 24 26  1  0
 25 24  2  0
 26 27  1  0
 27 28  1  0
 28 29  1  0
 30 29  1  1
 30 31  1  0
 31 19  1  0
 32 30  1  0
 32 33  1  0
 34 32  2  0
M  END
$$$$
