HYR.pdb
     RDKit          3D

 34 35  0  0  1  0  0  0  0  0999 V2000
   11.0656  -15.2146   19.0940 N   0  0  0  0  0  0  0  0  0  0  0  0
    9.6969  -14.8929   19.4505 C   0  0  1  0  0  0  0  0  0  0  0  0
    8.8054  -15.9180   18.8009 C   0  0  0  0  0  0  0  0  0  0  0  0
    8.4726  -15.4235   17.4476 C   0  0  0  0  0  0  0  0  0  0  0  0
    8.9408  -14.2914   16.8309 C   0  0  0  0  0  0  0  0  0  0  0  0
    8.3832  -14.2038   15.5854 N   0  0  0  0  0  0  0  0  0  0  0  0
    7.5825  -15.2686   15.4386 C   0  0  0  0  0  0  0  0  0  0  0  0
    7.6398  -16.0030   16.5670 N   0  0  0  0  0  0  0  0  0  0  0  0
    9.6107  -14.8892   20.9355 C   0  0  0  0  0  0  0  0  0  0  0  0
   10.3869  -15.5477   21.6749 O   0  0  0  0  0  0  0  0  0  0  0  0
    6.5809  -12.1086   28.8527 O   0  0  0  0  0  0  0  0  0  0  0  0
    6.7570  -12.3514   27.4936 C   0  0  0  0  0  0  0  0  0  0  0  0
    5.9384  -13.2369   26.8230 C   0  0  0  0  0  0  0  0  0  0  0  0
    6.1215  -13.4717   25.4733 C   0  0  0  0  0  0  0  0  0  0  0  0
    7.1168  -12.8334   24.7696 C   0  0  0  0  0  0  0  0  0  0  0  0
    7.3450  -13.0582   23.3452 C   0  0  0  0  0  0  0  0  0  0  0  0
    8.4959  -13.9881   23.0304 C   0  0  2  0  0  0  0  0  0  0  0  0
    8.6006  -14.1034   21.5970 N   0  0  0  0  0  0  0  0  0  0  0  0
    8.4057  -15.2958   23.7048 C   0  0  0  0  0  0  0  0  0  0  0  0
    7.4936  -16.1276   23.4619 O   0  0  0  0  0  0  0  0  0  0  0  0
    7.9255  -11.9528   25.4518 C   0  0  0  0  0  0  0  0  0  0  0  0
    7.7583  -11.7046   26.8017 C   0  0  0  0  0  0  0  0  0  0  0  0
   14.6972  -20.1743   23.0989 N   0  0  0  0  0  0  0  0  0  0  0  0
   13.6714  -20.0651   22.1267 C   0  0  0  0  0  0  0  0  0  0  0  0
   13.7951  -20.5040   20.9189 N   0  0  0  0  0  0  0  0  0  0  0  0
   12.4133  -19.4602   22.4060 N   0  0  0  0  0  0  0  0  0  0  0  0
   11.9886  -18.9580   23.6377 C   0  0  0  0  0  0  0  0  0  0  0  0
   10.6062  -18.4607   23.7873 C   0  0  0  0  0  0  0  0  0  0  0  0
   10.4583  -17.8806   25.1690 C   0  0  0  0  0  0  0  0  0  0  0  0
    9.2725  -17.0014   25.3337 C   0  0  2  0  0  0  0  0  0  0  0  0
    9.3626  -15.7161   24.6975 N   0  0  0  0  0  0  0  0  0  0  0  0
    9.0488  -16.8084   26.8123 C   0  0  0  0  0  0  0  0  0  0  0  0
    8.7145  -17.8938   27.6041 O   0  0  0  0  0  0  0  0  0  0  0  0
    9.1539  -15.6891   27.3665 O   0  0  0  0  0  0  0  0  0  0  0  0
  2  1  1  1
  2  9  1  0
  2  3  1  0
  4  3  1  0
  5  4  2  0
  6  7  1  0
  6  5  1  0
  7  8  2  0
  8  4  1  0
  9 10  2  0
 11 12  1  0
 12 22  2  0
 13 12  1  0
 13 14  2  0
 14 15  1  0
 15 21  2  0
 15 16  1  0
 17 16  1  6
 18 17  1  0
 18  9  1  0
 19 17  1  0
 20 19  2  0
 22 21  1  0
 23 24  1  0
 24 26  1  0
 25 24  2  0
 26 27  1  0
 27 28  1  0
 28 29  1  0
 30 29  1  1
 30 31  1  0
 31 19  1  0
 32 30  1  0
 32 33  1  0
 34 32  2  0
M  END
$$$$
