HYR.pdb
     RDKit          3D

 34 35  0  0  1  0  0  0  0  0999 V2000
    8.0668  -15.2912   18.7489 N   0  0  0  0  0  0  0  0  0  0  0  0
    9.3867  -14.7457   19.0028 C   0  0  1  0  0  0  0  0  0  0  0  0
    9.5449  -13.5201   18.1423 C   0  0  0  0  0  0  0  0  0  0  0  0
    8.9622  -13.8285   16.8186 C   0  0  0  0  0  0  0  0  0  0  0  0
    7.9154  -13.1971   16.1967 C   0  0  0  0  0  0  0  0  0  0  0  0
    7.6958  -13.7938   14.9861 N   0  0  0  0  0  0  0  0  0  0  0  0
    8.5960  -14.7794   14.8657 C   0  0  0  0  0  0  0  0  0  0  0  0
    9.3594  -14.7965   15.9760 N   0  0  0  0  0  0  0  0  0  0  0  0
    9.4805  -14.4622   20.4600 C   0  0  0  0  0  0  0  0  0  0  0  0
   10.4836  -13.9252   20.9970 O   0  0  0  0  0  0  0  0  0  0  0  0
    6.4010  -12.8807   28.6277 O   0  0  0  0  0  0  0  0  0  0  0  0
    6.5612  -13.1509   27.2718 C   0  0  0  0  0  0  0  0  0  0  0  0
    7.0414  -12.1848   26.4116 C   0  0  0  0  0  0  0  0  0  0  0  0
    7.1967  -12.4627   25.0666 C   0  0  0  0  0  0  0  0  0  0  0  0
    6.8790  -13.7000   24.5553 C   0  0  0  0  0  0  0  0  0  0  0  0
    7.0243  -14.0305   23.1407 C   0  0  0  0  0  0  0  0  0  0  0  0
    8.3917  -14.5473   22.7515 C   0  0  2  0  0  0  0  0  0  0  0  0
    8.3871  -14.8053   21.3330 N   0  0  0  0  0  0  0  0  0  0  0  0
    8.8363  -15.7087   23.5431 C   0  0  0  0  0  0  0  0  0  0  0  0
    8.2470  -16.8198   23.5150 O   0  0  0  0  0  0  0  0  0  0  0  0
    6.4013  -14.6538   25.4254 C   0  0  0  0  0  0  0  0  0  0  0  0
    6.2389  -14.3951   26.7739 C   0  0  0  0  0  0  0  0  0  0  0  0
   15.5922  -14.5426   22.1030 N   0  0  0  0  0  0  0  0  0  0  0  0
   14.7007  -15.1777   21.2024 C   0  0  0  0  0  0  0  0  0  0  0  0
   14.7406  -14.9957   19.9249 N   0  0  0  0  0  0  0  0  0  0  0  0
   13.6839  -16.0745   21.6365 N   0  0  0  0  0  0  0  0  0  0  0  0
   13.2380  -16.2524   22.9477 C   0  0  0  0  0  0  0  0  0  0  0  0
   12.1558  -17.2174   23.2276 C   0  0  0  0  0  0  0  0  0  0  0  0
   11.8831  -17.2072   24.7085 C   0  0  0  0  0  0  0  0  0  0  0  0
   10.4928  -16.8263   25.0665 C   0  0  2  0  0  0  0  0  0  0  0  0
    9.9853  -15.6522   24.4116 N   0  0  0  0  0  0  0  0  0  0  0  0
   10.4454  -16.6211   26.5595 C   0  0  0  0  0  0  0  0  0  0  0  0
   10.7672  -17.6673   27.4074 O   0  0  0  0  0  0  0  0  0  0  0  0
   10.1220  -15.5262   27.0765 O   0  0  0  0  0  0  0  0  0  0  0  0
  2  1  1  1
  2  9  1  0
  2  3  1  0
  4  3  1  0
  5  4  2  0
  6  7  1  0
  6  5  1  0
  7  8  2  0
  8  4  1  0
  9 10  2  0
 11 12  1  0
 12 22  2  0
 13 12  1  0
 13 14  2  0
 14 15  1  0
 15 21  2  0
 15 16  1  0
 17 16  1  1
 18 17  1  0
 18  9  1  0
 19 17  1  0
 20 19  2  0
 22 21  1  0
 23 24  1  0
 24 26  1  0
 25 24  2  0
 26 27  1  0
 27 28  1  0
 28 29  1  0
 30 29  1  6
 30 31  1  0
 31 19  1  0
 32 30  1  0
 32 33  1  0
 34 32  2  0
M  END
$$$$
