PGI.pdb
     RDKit          3D

 20 20  0  0  1  0  0  0  0  0999 V2000
    6.9230  -14.8045   20.3752 N   0  0  0  0  0  0  0  0  0  0  0  0
    6.5971  -13.4258   20.5633 C   0  0  0  0  0  0  0  0  0  0  0  0
    7.1321  -12.7452   19.3028 C   0  0  0  0  0  0  0  0  0  0  0  0
    8.3525  -13.5455   18.9766 C   0  0  0  0  0  0  0  0  0  0  0  0
    8.1556  -14.8673   19.6828 C   0  0  1  0  0  0  0  0  0  0  0  0
    9.3009  -15.1272   20.5892 C   0  0  0  0  0  0  0  0  0  0  0  0
   10.4749  -15.2597   20.0711 O   0  0  0  0  0  0  0  0  0  0  0  0
    9.1266  -15.2288   21.9882 N   0  0  0  0  0  0  0  0  0  0  0  0
   10.2651  -15.5818   22.7821 C   0  0  0  0  0  0  0  0  0  0  0  0
    9.9576  -15.6005   24.2391 C   0  0  0  0  0  0  0  0  0  0  0  0
   10.7837  -15.9513   25.1095 O   0  0  0  0  0  0  0  0  0  0  0  0
    5.8293  -12.3505   25.3828 C   0  0  0  0  0  0  0  0  0  0  0  0
    6.9370  -13.3465   25.1273 C   0  0  0  0  0  0  0  0  0  0  0  0
    7.3479  -14.1004   26.3349 C   0  0  2  0  0  0  0  0  0  0  0  0
    7.9084  -13.2168   27.4313 C   0  0  0  0  0  0  0  0  0  0  0  0
    8.2064  -15.2807   26.0479 C   0  0  2  0  0  0  0  0  0  0  0  0
    8.6744  -15.2033   24.6479 N   0  0  0  0  0  0  0  0  0  0  0  0
    7.6498  -16.5995   26.3379 C   0  0  0  0  0  0  0  0  0  0  0  0
    7.7326  -17.2022   27.6099 O   0  0  0  0  0  0  0  0  0  0  0  0
    7.0558  -17.3027   25.4876 O   0  0  0  0  0  0  0  0  0  0  0  0
  1  2  1  0
  3  2  1  0
  4  5  1  0
  4  3  1  0
  5  1  1  0
  5  6  1  1
  6  7  2  0
  8  6  1  0
  9 10  1  0
  9  8  1  0
 10 17  1  0
 11 10  2  0
 12 13  1  0
 14 16  1  0
 14 15  1  1
 14 13  1  0
 16 17  1  6
 18 19  1  0
 18 16  1  0
 20 18  2  0
M  END
$$$$
