PGI.pdb
     RDKit          3D

 20 20  0  0  1  0  0  0  0  0999 V2000
    8.3814  -14.9979   17.8622 N   0  0  0  0  0  0  0  0  0  0  0  0
    7.3525  -14.2300   17.2344 C   0  0  0  0  0  0  0  0  0  0  0  0
    7.6659  -12.7901   17.6426 C   0  0  0  0  0  0  0  0  0  0  0  0
    8.2312  -12.9425   19.0188 C   0  0  0  0  0  0  0  0  0  0  0  0
    8.6891  -14.3808   19.0979 C   0  0  1  0  0  0  0  0  0  0  0  0
    8.0322  -15.0538   20.2453 C   0  0  0  0  0  0  0  0  0  0  0  0
    6.7481  -15.1761   20.2310 O   0  0  0  0  0  0  0  0  0  0  0  0
    8.7811  -15.5550   21.3343 N   0  0  0  0  0  0  0  0  0  0  0  0
    8.0669  -15.9783   22.5012 C   0  0  0  0  0  0  0  0  0  0  0  0
    8.7030  -15.5013   23.7604 C   0  0  0  0  0  0  0  0  0  0  0  0
    9.9407  -15.4064   23.9099 O   0  0  0  0  0  0  0  0  0  0  0  0
    5.8877  -11.7057   26.0099 C   0  0  0  0  0  0  0  0  0  0  0  0
    6.9320  -12.6887   25.5333 C   0  0  0  0  0  0  0  0  0  0  0  0
    7.4578  -13.5638   26.6071 C   0  0  2  0  0  0  0  0  0  0  0  0
    8.0265  -12.7946   27.7826 C   0  0  0  0  0  0  0  0  0  0  0  0
    8.3682  -14.6356   26.1224 C   0  0  2  0  0  0  0  0  0  0  0  0
    7.8649  -15.1424   24.8283 N   0  0  0  0  0  0  0  0  0  0  0  0
    8.6513  -15.7380   27.0378 C   0  0  0  0  0  0  0  0  0  0  0  0
    9.7916  -15.7709   27.8664 O   0  0  0  0  0  0  0  0  0  0  0  0
    7.9108  -16.7410   27.1639 O   0  0  0  0  0  0  0  0  0  0  0  0
  1  2  1  0
  3  2  1  0
  4  5  1  0
  4  3  1  0
  5  1  1  0
  5  6  1  1
  6  7  2  0
  8  6  1  0
  9 10  1  0
  9  8  1  0
 10 17  1  0
 11 10  2  0
 12 13  1  0
 14 16  1  0
 14 15  1  1
 14 13  1  0
 16 17  1  6
 18 19  1  0
 18 16  1  0
 20 18  2  0
M  END
$$$$
