PGI.pdb
     RDKit          3D

 20 20  0  0  1  0  0  0  0  0999 V2000
    7.4450  -14.6325   18.7981 N   0  0  0  0  0  0  0  0  0  0  0  0
    6.8168  -13.3645   18.9979 C   0  0  0  0  0  0  0  0  0  0  0  0
    7.9666  -12.3623   18.8899 C   0  0  0  0  0  0  0  0  0  0  0  0
    9.1254  -13.1112   19.4666 C   0  0  0  0  0  0  0  0  0  0  0  0
    8.7387  -14.5691   19.3681 C   0  0  1  0  0  0  0  0  0  0  0  0
    8.7959  -15.1950   20.7120 C   0  0  0  0  0  0  0  0  0  0  0  0
    9.9478  -15.3301   21.2767 O   0  0  0  0  0  0  0  0  0  0  0  0
    7.6259  -15.6367   21.3708 N   0  0  0  0  0  0  0  0  0  0  0  0
    7.7799  -16.3766   22.5872 C   0  0  0  0  0  0  0  0  0  0  0  0
    8.5046  -15.6040   23.6340 C   0  0  0  0  0  0  0  0  0  0  0  0
    9.7450  -15.4473   23.6347 O   0  0  0  0  0  0  0  0  0  0  0  0
    5.6206  -11.8047   26.2701 C   0  0  0  0  0  0  0  0  0  0  0  0
    6.6903  -12.6510   25.6190 C   0  0  0  0  0  0  0  0  0  0  0  0
    7.3700  -13.5744   26.5574 C   0  0  2  0  0  0  0  0  0  0  0  0
    7.9345  -12.8784   27.7797 C   0  0  0  0  0  0  0  0  0  0  0  0
    8.3496  -14.4851   25.9066 C   0  0  2  0  0  0  0  0  0  0  0  0
    7.7509  -15.0260   24.6680 N   0  0  0  0  0  0  0  0  0  0  0  0
    8.9119  -15.5573   26.7235 C   0  0  0  0  0  0  0  0  0  0  0  0
    8.2519  -16.7854   26.9338 O   0  0  0  0  0  0  0  0  0  0  0  0
   10.0201  -15.4781   27.3029 O   0  0  0  0  0  0  0  0  0  0  0  0
  1  2  1  0
  3  2  1  0
  4  5  1  0
  4  3  1  0
  5  1  1  0
  5  6  1  1
  6  7  2  0
  8  6  1  0
  9 10  1  0
  9  8  1  0
 10 17  1  0
 11 10  2  0
 12 13  1  0
 14 16  1  0
 14 15  1  1
 14 13  1  0
 16 17  1  6
 18 19  1  0
 18 16  1  0
 20 18  2  0
M  END
$$$$
