PGI.pdb
     RDKit          3D

 20 20  0  0  1  0  0  0  0  0999 V2000
    7.7386  -14.3320   18.1304 N   0  0  0  0  0  0  0  0  0  0  0  0
    7.0694  -13.1135   18.4617 C   0  0  0  0  0  0  0  0  0  0  0  0
    8.1934  -12.1940   18.9406 C   0  0  0  0  0  0  0  0  0  0  0  0
    9.1421  -13.1370   19.6092 C   0  0  0  0  0  0  0  0  0  0  0  0
    8.8119  -14.4968   19.0378 C   0  0  1  0  0  0  0  0  0  0  0  0
    8.4835  -15.4367   20.1376 C   0  0  0  0  0  0  0  0  0  0  0  0
    7.9308  -16.5629   19.8371 O   0  0  0  0  0  0  0  0  0  0  0  0
    8.7640  -15.1211   21.4866 N   0  0  0  0  0  0  0  0  0  0  0  0
    8.6548  -16.1684   22.4572 C   0  0  0  0  0  0  0  0  0  0  0  0
    9.1031  -15.7376   23.8104 C   0  0  0  0  0  0  0  0  0  0  0  0
   10.3019  -15.7316   24.1656 O   0  0  0  0  0  0  0  0  0  0  0  0
    5.7949  -12.0464   25.7017 C   0  0  0  0  0  0  0  0  0  0  0  0
    6.9414  -12.9604   25.3351 C   0  0  0  0  0  0  0  0  0  0  0  0
    7.4167  -13.7979   26.4611 C   0  0  2  0  0  0  0  0  0  0  0  0
    7.8108  -12.9923   27.6828 C   0  0  0  0  0  0  0  0  0  0  0  0
    8.4429  -14.8035   26.0758 C   0  0  2  0  0  0  0  0  0  0  0  0
    8.1256  -15.3187   24.7272 N   0  0  0  0  0  0  0  0  0  0  0  0
    8.6872  -15.9013   27.0076 C   0  0  0  0  0  0  0  0  0  0  0  0
    9.6997  -15.8618   27.9880 O   0  0  0  0  0  0  0  0  0  0  0  0
    8.0230  -16.9639   27.0153 O   0  0  0  0  0  0  0  0  0  0  0  0
  1  2  1  0
  3  2  1  0
  4  5  1  0
  4  3  1  0
  5  1  1  0
  5  6  1  1
  6  7  2  0
  8  6  1  0
  9 10  1  0
  9  8  1  0
 10 17  1  0
 11 10  2  0
 12 13  1  0
 14 16  1  0
 14 15  1  1
 14 13  1  0
 16 17  1  6
 18 19  1  0
 18 16  1  0
 20 18  2  0
M  END
$$$$
