PGI.pdb
     RDKit          3D

 20 20  0  0  1  0  0  0  0  0999 V2000
    7.4064  -16.4990   20.7743 N   0  0  0  0  0  0  0  0  0  0  0  0
    6.2208  -15.9524   21.3557 C   0  0  0  0  0  0  0  0  0  0  0  0
    6.2136  -14.4990   20.8805 C   0  0  0  0  0  0  0  0  0  0  0  0
    7.6671  -14.1509   20.8296 C   0  0  0  0  0  0  0  0  0  0  0  0
    8.3859  -15.4780   20.7477 C   0  0  1  0  0  0  0  0  0  0  0  0
    9.3541  -15.5937   21.8658 C   0  0  0  0  0  0  0  0  0  0  0  0
   10.3304  -14.7523   21.9209 O   0  0  0  0  0  0  0  0  0  0  0  0
    9.2232  -16.5952   22.8547 N   0  0  0  0  0  0  0  0  0  0  0  0
   10.3834  -16.9358   23.6220 C   0  0  0  0  0  0  0  0  0  0  0  0
   10.4794  -16.1520   24.8846 C   0  0  0  0  0  0  0  0  0  0  0  0
   11.5628  -15.9062   25.4581 O   0  0  0  0  0  0  0  0  0  0  0  0
    5.8207  -13.1858   26.5541 C   0  0  0  0  0  0  0  0  0  0  0  0
    6.8522  -14.2823   26.4200 C   0  0  0  0  0  0  0  0  0  0  0  0
    8.2467  -13.8089   26.5825 C   0  0  2  0  0  0  0  0  0  0  0  0
    8.6492  -12.7669   25.5581 C   0  0  0  0  0  0  0  0  0  0  0  0
    9.2451  -14.9032   26.7171 C   0  0  2  0  0  0  0  0  0  0  0  0
    9.2901  -15.6684   25.4531 N   0  0  0  0  0  0  0  0  0  0  0  0
    9.1062  -15.7989   27.8624 C   0  0  0  0  0  0  0  0  0  0  0  0
    8.7479  -17.1564   27.7331 O   0  0  0  0  0  0  0  0  0  0  0  0
    9.2919  -15.4402   29.0486 O   0  0  0  0  0  0  0  0  0  0  0  0
  1  2  1  0
  3  2  1  0
  4  5  1  0
  4  3  1  0
  5  1  1  0
  5  6  1  1
  6  7  2  0
  8  6  1  0
  9 10  1  0
  9  8  1  0
 10 17  1  0
 11 10  2  0
 12 13  1  0
 14 16  1  0
 14 15  1  6
 14 13  1  0
 16 17  1  6
 18 19  1  0
 18 16  1  0
 20 18  2  0
M  END
$$$$
