PGI.pdb
     RDKit          3D

 20 20  0  0  1  0  0  0  0  0999 V2000
    7.3243  -14.7049   19.8871 N   0  0  0  0  0  0  0  0  0  0  0  0
    6.4003  -13.6561   20.1846 C   0  0  0  0  0  0  0  0  0  0  0  0
    7.2780  -12.4078   20.2811 C   0  0  0  0  0  0  0  0  0  0  0  0
    8.5556  -12.9341   20.8531 C   0  0  0  0  0  0  0  0  0  0  0  0
    8.5370  -14.4162   20.5570 C   0  0  1  0  0  0  0  0  0  0  0  0
    8.6818  -15.1817   21.8195 C   0  0  0  0  0  0  0  0  0  0  0  0
    7.6227  -15.6877   22.3546 O   0  0  0  0  0  0  0  0  0  0  0  0
    9.9426  -15.3620   22.4328 N   0  0  0  0  0  0  0  0  0  0  0  0
   10.0738  -16.4087   23.4013 C   0  0  0  0  0  0  0  0  0  0  0  0
   10.3223  -15.8850   24.7731 C   0  0  0  0  0  0  0  0  0  0  0  0
   11.3822  -16.0907   25.4036 O   0  0  0  0  0  0  0  0  0  0  0  0
    6.3411  -12.3049   26.2226 C   0  0  0  0  0  0  0  0  0  0  0  0
    7.6536  -12.9856   25.9096 C   0  0  0  0  0  0  0  0  0  0  0  0
    8.2006  -13.7698   27.0415 C   0  0  2  0  0  0  0  0  0  0  0  0
    8.3008  -12.9753   28.3282 C   0  0  0  0  0  0  0  0  0  0  0  0
    9.4515  -14.5069   26.7181 C   0  0  2  0  0  0  0  0  0  0  0  0
    9.3119  -15.1236   25.3820 N   0  0  0  0  0  0  0  0  0  0  0  0
    9.9240  -15.4843   27.6951 C   0  0  0  0  0  0  0  0  0  0  0  0
    9.4703  -16.8190   27.7232 O   0  0  0  0  0  0  0  0  0  0  0  0
   10.7665  -15.2223   28.5850 O   0  0  0  0  0  0  0  0  0  0  0  0
  1  2  1  0
  3  2  1  0
  4  5  1  0
  4  3  1  0
  5  1  1  0
  5  6  1  1
  6  7  2  0
  8  6  1  0
  9 10  1  0
  9  8  1  0
 10 17  1  0
 11 10  2  0
 12 13  1  0
 14 16  1  0
 14 15  1  1
 14 13  1  0
 16 17  1  6
 18 19  1  0
 18 16  1  0
 20 18  2  0
M  END
$$$$
