PGI.pdb
     RDKit          3D

 20 20  0  0  1  0  0  0  0  0999 V2000
    8.1066  -15.6522   17.7943 N   0  0  0  0  0  0  0  0  0  0  0  0
    7.2683  -14.7741   17.0402 C   0  0  0  0  0  0  0  0  0  0  0  0
    7.8808  -13.3920   17.2700 C   0  0  0  0  0  0  0  0  0  0  0  0
    8.3946  -13.4769   18.6719 C   0  0  0  0  0  0  0  0  0  0  0  0
    8.5340  -14.9561   18.9499 C   0  0  1  0  0  0  0  0  0  0  0  0
    7.7436  -15.3170   20.1524 C   0  0  0  0  0  0  0  0  0  0  0  0
    6.4825  -15.0456   20.1612 O   0  0  0  0  0  0  0  0  0  0  0  0
    8.3427  -15.9442   21.2684 N   0  0  0  0  0  0  0  0  0  0  0  0
    7.6461  -15.8963   22.5188 C   0  0  0  0  0  0  0  0  0  0  0  0
    8.3760  -15.1017   23.5453 C   0  0  0  0  0  0  0  0  0  0  0  0
    9.5283  -14.6492   23.3702 O   0  0  0  0  0  0  0  0  0  0  0  0
    5.6218  -11.9219   27.4593 C   0  0  0  0  0  0  0  0  0  0  0  0
    6.1859  -13.1046   26.7062 C   0  0  0  0  0  0  0  0  0  0  0  0
    7.4921  -12.8307   26.0628 C   0  0  2  0  0  0  0  0  0  0  0  0
    7.3797  -11.9684   24.8214 C   0  0  0  0  0  0  0  0  0  0  0  0
    8.3281  -14.0427   25.8511 C   0  0  2  0  0  0  0  0  0  0  0  0
    7.7317  -14.8524   24.7677 N   0  0  0  0  0  0  0  0  0  0  0  0
    8.6160  -14.8696   27.0201 C   0  0  0  0  0  0  0  0  0  0  0  0
    9.5020  -14.4692   28.0412 O   0  0  0  0  0  0  0  0  0  0  0  0
    8.1043  -15.9969   27.2139 O   0  0  0  0  0  0  0  0  0  0  0  0
  1  2  1  0
  3  2  1  0
  4  5  1  0
  4  3  1  0
  5  1  1  0
  5  6  1  1
  6  7  2  0
  8  6  1  0
  9 10  1  0
  9  8  1  0
 10 17  1  0
 11 10  2  0
 12 13  1  0
 14 16  1  0
 14 15  1  6
 14 13  1  0
 16 17  1  6
 18 19  1  0
 18 16  1  0
 20 18  2  0
M  END
$$$$
