PGI.pdb
     RDKit          3D

 20 20  0  0  1  0  0  0  0  0999 V2000
    9.0538  -15.0262   18.4162 N   0  0  0  0  0  0  0  0  0  0  0  0
    7.9705  -14.9935   17.4846 C   0  0  0  0  0  0  0  0  0  0  0  0
    7.6802  -13.5025   17.3090 C   0  0  0  0  0  0  0  0  0  0  0  0
    7.9767  -12.9370   18.6613 C   0  0  0  0  0  0  0  0  0  0  0  0
    8.8768  -13.9548   19.3236 C   0  0  1  0  0  0  0  0  0  0  0  0
    8.2774  -14.3942   20.6076 C   0  0  0  0  0  0  0  0  0  0  0  0
    7.9079  -13.4919   21.4522 O   0  0  0  0  0  0  0  0  0  0  0  0
    8.1076  -15.7640   20.9122 N   0  0  0  0  0  0  0  0  0  0  0  0
    7.5654  -16.1040   22.1933 C   0  0  0  0  0  0  0  0  0  0  0  0
    8.2956  -15.4455   23.3118 C   0  0  0  0  0  0  0  0  0  0  0  0
    9.5115  -15.1587   23.2618 O   0  0  0  0  0  0  0  0  0  0  0  0
    6.6726  -11.2027   27.2726 C   0  0  0  0  0  0  0  0  0  0  0  0
    7.6002  -12.3715   27.0330 C   0  0  0  0  0  0  0  0  0  0  0  0
    7.1315  -13.2939   25.9724 C   0  0  2  0  0  0  0  0  0  0  0  0
    5.7597  -13.8766   26.2480 C   0  0  0  0  0  0  0  0  0  0  0  0
    8.1302  -14.3252   25.5830 C   0  0  2  0  0  0  0  0  0  0  0  0
    7.5763  -15.1344   24.4769 N   0  0  0  0  0  0  0  0  0  0  0  0
    8.6546  -15.1829   26.6426 C   0  0  0  0  0  0  0  0  0  0  0  0
    8.3374  -16.5528   26.7454 O   0  0  0  0  0  0  0  0  0  0  0  0
    9.4251  -14.7776   27.5438 O   0  0  0  0  0  0  0  0  0  0  0  0
  1  2  1  0
  3  2  1  0
  4  5  1  0
  4  3  1  0
  5  1  1  0
  5  6  1  1
  6  7  2  0
  8  6  1  0
  9 10  1  0
  9  8  1  0
 10 17  1  0
 11 10  2  0
 12 13  1  0
 14 16  1  0
 14 15  1  1
 14 13  1  0
 16 17  1  6
 18 19  1  0
 18 16  1  0
 20 18  2  0
M  END
$$$$
