PGI.pdb
     RDKit          3D

 20 20  0  0  1  0  0  0  0  0999 V2000
    8.8912  -15.0382   18.3384 N   0  0  0  0  0  0  0  0  0  0  0  0
    7.7472  -14.9710   17.4845 C   0  0  0  0  0  0  0  0  0  0  0  0
    7.4945  -13.4714   17.3241 C   0  0  0  0  0  0  0  0  0  0  0  0
    7.9032  -12.9143   18.6504 C   0  0  0  0  0  0  0  0  0  0  0  0
    8.8133  -13.9603   19.2520 C   0  0  1  0  0  0  0  0  0  0  0  0
    8.2909  -14.3779   20.5762 C   0  0  0  0  0  0  0  0  0  0  0  0
    8.0123  -13.4628   21.4417 O   0  0  0  0  0  0  0  0  0  0  0  0
    8.0966  -15.7409   20.8965 N   0  0  0  0  0  0  0  0  0  0  0  0
    7.5336  -16.0557   22.1751 C   0  0  0  0  0  0  0  0  0  0  0  0
    8.2675  -15.4036   23.2949 C   0  0  0  0  0  0  0  0  0  0  0  0
    9.4612  -15.0409   23.2129 O   0  0  0  0  0  0  0  0  0  0  0  0
    6.6328  -11.1563   27.1334 C   0  0  0  0  0  0  0  0  0  0  0  0
    7.5470  -12.3485   26.9691 C   0  0  0  0  0  0  0  0  0  0  0  0
    7.1070  -13.2935   25.9161 C   0  0  2  0  0  0  0  0  0  0  0  0
    5.7151  -13.8456   26.1497 C   0  0  0  0  0  0  0  0  0  0  0  0
    8.1030  -14.3517   25.5986 C   0  0  2  0  0  0  0  0  0  0  0  0
    7.5781  -15.1888   24.4991 N   0  0  0  0  0  0  0  0  0  0  0  0
    8.5737  -15.1814   26.7046 C   0  0  0  0  0  0  0  0  0  0  0  0
    8.2619  -16.5517   26.8198 O   0  0  0  0  0  0  0  0  0  0  0  0
    9.2891  -14.7498   27.6385 O   0  0  0  0  0  0  0  0  0  0  0  0
  1  2  1  0
  3  2  1  0
  4  5  1  0
  4  3  1  0
  5  1  1  0
  5  6  1  1
  6  7  2  0
  8  6  1  0
  9 10  1  0
  9  8  1  0
 10 17  1  0
 11 10  2  0
 12 13  1  0
 14 16  1  0
 14 15  1  1
 14 13  1  0
 16 17  1  6
 18 19  1  0
 18 16  1  0
 20 18  2  0
M  END
$$$$
