PGI.pdb
     RDKit          3D

 20 20  0  0  1  0  0  0  0  0999 V2000
    8.3742  -14.2460   18.3939 N   0  0  0  0  0  0  0  0  0  0  0  0
    6.9904  -14.0038   18.6559 C   0  0  0  0  0  0  0  0  0  0  0  0
    6.9931  -12.7332   19.5066 C   0  0  0  0  0  0  0  0  0  0  0  0
    8.2509  -12.8616   20.3052 C   0  0  0  0  0  0  0  0  0  0  0  0
    9.1083  -13.8378   19.5328 C   0  0  1  0  0  0  0  0  0  0  0  0
    9.4794  -14.9789   20.4054 C   0  0  0  0  0  0  0  0  0  0  0  0
   10.0755  -15.9905   19.8712 O   0  0  0  0  0  0  0  0  0  0  0  0
    9.1946  -14.9722   21.7899 N   0  0  0  0  0  0  0  0  0  0  0  0
   10.0130  -15.7764   22.6468 C   0  0  0  0  0  0  0  0  0  0  0  0
    9.6412  -15.6366   24.0821 C   0  0  0  0  0  0  0  0  0  0  0  0
   10.3056  -16.1392   25.0143 O   0  0  0  0  0  0  0  0  0  0  0  0
    6.8191  -11.2705   25.4855 C   0  0  0  0  0  0  0  0  0  0  0  0
    7.6799  -12.5093   25.3933 C   0  0  0  0  0  0  0  0  0  0  0  0
    7.0208  -13.7304   25.9128 C   0  0  2  0  0  0  0  0  0  0  0  0
    6.5159  -13.5805   27.3340 C   0  0  0  0  0  0  0  0  0  0  0  0
    7.8069  -14.9763   25.7069 C   0  0  2  0  0  0  0  0  0  0  0  0
    8.4861  -14.9025   24.3961 N   0  0  0  0  0  0  0  0  0  0  0  0
    7.1002  -16.2458   25.8556 C   0  0  0  0  0  0  0  0  0  0  0  0
    7.1793  -17.0334   27.0224 O   0  0  0  0  0  0  0  0  0  0  0  0
    6.3690  -16.7397   24.9658 O   0  0  0  0  0  0  0  0  0  0  0  0
  1  2  1  0
  3  2  1  0
  4  5  1  0
  4  3  1  0
  5  1  1  0
  5  6  1  1
  6  7  2  0
  8  6  1  0
  9 10  1  0
  9  8  1  0
 10 17  1  0
 11 10  2  0
 12 13  1  0
 14 16  1  0
 14 15  1  1
 14 13  1  0
 16 17  1  6
 18 19  1  0
 18 16  1  0
 20 18  2  0
M  END
$$$$
