PGI.pdb
     RDKit          3D

 20 20  0  0  1  0  0  0  0  0999 V2000
   -1.6911  -27.3569   29.2121 N   0  0  0  0  0  0  0  0  0  0  0  0
   -1.2812  -28.1910   30.2978 C   0  0  0  0  0  0  0  0  0  0  0  0
   -1.4361  -29.6106   29.7509 C   0  0  0  0  0  0  0  0  0  0  0  0
   -2.6208  -29.4984   28.8452 C   0  0  0  0  0  0  0  0  0  0  0  0
   -2.7279  -28.0263   28.5196 C   0  0  1  0  0  0  0  0  0  0  0  0
   -4.0734  -27.5263   28.8948 C   0  0  0  0  0  0  0  0  0  0  0  0
   -5.0986  -27.9965   28.2688 O   0  0  0  0  0  0  0  0  0  0  0  0
   -4.2442  -26.5595   29.9117 N   0  0  0  0  0  0  0  0  0  0  0  0
   -5.5759  -26.1201   30.2025 C   0  0  0  0  0  0  0  0  0  0  0  0
   -5.6099  -24.7370   30.7536 C   0  0  0  0  0  0  0  0  0  0  0  0
   -5.0518  -24.4119   31.8241 O   0  0  0  0  0  0  0  0  0  0  0  0
   -4.7721  -20.6875   27.2976 C   0  0  0  0  0  0  0  0  0  0  0  0
   -5.6450  -21.6108   28.1159 C   0  0  0  0  0  0  0  0  0  0  0  0
   -5.3300  -21.5977   29.5636 C   0  0  2  0  0  0  0  0  0  0  0  0
   -3.8973  -21.9864   29.8689 C   0  0  0  0  0  0  0  0  0  0  0  0
   -6.3183  -22.3252   30.4043 C   0  0  2  0  0  0  0  0  0  0  0  0
   -6.3049  -23.7551   30.0295 N   0  0  0  0  0  0  0  0  0  0  0  0
   -7.6838  -21.8076   30.4314 C   0  0  0  0  0  0  0  0  0  0  0  0
   -8.7954  -22.5584   29.9972 O   0  0  0  0  0  0  0  0  0  0  0  0
   -7.9817  -20.6609   30.8395 O   0  0  0  0  0  0  0  0  0  0  0  0
  1  2  1  0
  3  2  1  0
  4  5  1  0
  4  3  1  0
  5  1  1  0
  5  6  1  1
  6  7  2  0
  8  6  1  0
  9 10  1  0
  9  8  1  0
 10 17  1  0
 11 10  2  0
 12 13  1  0
 14 16  1  0
 14 15  1  6
 14 13  1  0
 16 17  1  6
 18 19  1  0
 18 16  1  0
 20 18  2  0
M  END
$$$$
