PGI.pdb
     RDKit          3D

 20 20  0  0  1  0  0  0  0  0999 V2000
    7.5101  -14.8758   18.7943 N   0  0  0  0  0  0  0  0  0  0  0  0
    6.8070  -13.6322   18.8321 C   0  0  0  0  0  0  0  0  0  0  0  0
    7.9172  -12.5807   18.8274 C   0  0  0  0  0  0  0  0  0  0  0  0
    9.0135  -13.2407   19.6012 C   0  0  0  0  0  0  0  0  0  0  0  0
    8.7065  -14.7192   19.5336 C   0  0  1  0  0  0  0  0  0  0  0  0
    8.5999  -15.2724   20.9060 C   0  0  0  0  0  0  0  0  0  0  0  0
    9.6732  -15.3623   21.6159 O   0  0  0  0  0  0  0  0  0  0  0  0
    7.3598  -15.6941   21.4374 N   0  0  0  0  0  0  0  0  0  0  0  0
    7.3494  -16.2474   22.7582 C   0  0  0  0  0  0  0  0  0  0  0  0
    8.1453  -15.4357   23.7202 C   0  0  0  0  0  0  0  0  0  0  0  0
    9.2331  -14.8948   23.4248 O   0  0  0  0  0  0  0  0  0  0  0  0
    5.5925  -11.8655   26.3525 C   0  0  0  0  0  0  0  0  0  0  0  0
    6.6139  -12.7802   25.7168 C   0  0  0  0  0  0  0  0  0  0  0  0
    7.4096  -13.5547   26.6977 C   0  0  2  0  0  0  0  0  0  0  0  0
    8.0645  -12.6889   27.7554 C   0  0  0  0  0  0  0  0  0  0  0  0
    8.3523  -14.5255   26.0801 C   0  0  2  0  0  0  0  0  0  0  0  0
    7.6429  -15.2743   25.0214 N   0  0  0  0  0  0  0  0  0  0  0  0
    9.0581  -15.4365   26.9774 C   0  0  0  0  0  0  0  0  0  0  0  0
    8.5512  -16.7022   27.3366 O   0  0  0  0  0  0  0  0  0  0  0  0
   10.1659  -15.1731   27.5007 O   0  0  0  0  0  0  0  0  0  0  0  0
  1  2  1  0
  3  2  1  0
  4  5  1  0
  4  3  1  0
  5  1  1  0
  5  6  1  1
  6  7  2  0
  8  6  1  0
  9 10  1  0
  9  8  1  0
 10 17  1  0
 11 10  2  0
 12 13  1  0
 14 16  1  0
 14 15  1  6
 14 13  1  0
 16 17  1  6
 18 19  1  0
 18 16  1  0
 20 18  2  0
M  END
$$$$
