DCI.pdb
     RDKit          3D

 23 22  0  0  1  0  0  0  0  0999 V2000
   16.6048  -10.0973  -12.4476 N   0  0  0  0  0  0  0  0  0  0  0  0
   17.1393   -8.9487  -11.7451 C   0  0  1  0  0  0  0  0  0  0  0  0
   17.7583   -7.9383  -12.6866 C   0  0  0  0  0  0  0  0  0  0  0  0
   18.9587   -8.4932  -13.3388 C   0  0  0  0  0  0  0  0  0  0  0  0
   19.3439   -9.6675  -13.0854 O   0  0  0  0  0  0  0  0  0  0  0  0
   16.0470   -8.2488  -11.0156 C   0  0  0  0  0  0  0  0  0  0  0  0
   14.9661   -8.0480  -11.5807 O   0  0  0  0  0  0  0  0  0  0  0  0
   19.6849   -7.7401  -14.2390 O   0  0  0  0  0  0  0  0  0  0  0  0
   16.2005   -7.7988   -9.6829 N   0  0  0  0  0  0  0  0  0  0  0  0
   15.1984   -7.0667   -8.9591 C   0  0  1  0  0  0  0  0  0  0  0  0
   14.5964   -7.8620   -7.8250 C   0  0  0  0  0  0  0  0  0  0  0  0
   13.7626   -9.3370   -8.4736 S   0  0  0  0  0  0  0  0  0  0  0  0
   15.7981   -5.7964   -8.4875 C   0  0  0  0  0  0  0  0  0  0  0  0
   16.9468   -5.8252   -7.9957 O   0  0  0  0  0  0  0  0  0  0  0  0
   17.7059   -0.6716  -10.4128 C   0  0  0  0  0  0  0  0  0  0  0  0
   16.9369   -1.2419   -9.2606 C   0  0  0  0  0  0  0  0  0  0  0  0
   16.4553   -2.6584   -9.5047 C   0  0  2  0  0  0  0  0  0  0  0  0
   15.4034   -2.5326  -10.5929 C   0  0  0  0  0  0  0  0  0  0  0  0
   15.7859   -3.2570   -8.3134 C   0  0  2  0  0  0  0  0  0  0  0  0
   15.1646   -4.5397   -8.5514 N   0  0  0  0  0  0  0  0  0  0  0  0
   14.8083   -2.2842   -7.7806 C   0  0  0  0  0  0  0  0  0  0  0  0
   13.4696   -2.4534   -7.9982 O   0  0  0  0  0  0  0  0  0  0  0  0
   15.2240   -1.3074   -7.1305 O   0  0  0  0  0  0  0  0  0  0  0  0
  2  1  1  6
  3  4  1  0
  3  2  1  0
  4  8  1  0
  5  4  2  0
  6  2  1  0
  6  9  1  0
  7  6  2  0
 10 11  1  1
 10  9  1  0
 10 13  1  0
 12 11  1  0
 13 20  1  0
 14 13  2  0
 16 15  1  0
 17 18  1  6
 17 16  1  0
 19 17  1  0
 19 20  1  6
 21 22  1  0
 21 19  1  0
 23 21  2  0
M  END
$$$$
