DCI.pdb
     RDKit          3D

 23 22  0  0  1  0  0  0  0  0999 V2000
   28.6893  -20.5197  -17.3842 N   0  0  0  0  0  0  0  0  0  0  0  0
   27.6995  -21.2174  -16.5892 C   0  0  1  0  0  0  0  0  0  0  0  0
   28.3090  -22.3272  -15.7603 C   0  0  0  0  0  0  0  0  0  0  0  0
   28.9126  -23.3586  -16.6240 C   0  0  0  0  0  0  0  0  0  0  0  0
   28.2115  -23.9826  -17.4671 O   0  0  0  0  0  0  0  0  0  0  0  0
   27.0550  -20.2705  -15.6389 C   0  0  0  0  0  0  0  0  0  0  0  0
   26.9795  -19.0712  -15.9287 O   0  0  0  0  0  0  0  0  0  0  0  0
   30.2554  -23.6623  -16.5282 O   0  0  0  0  0  0  0  0  0  0  0  0
   26.5187  -20.6959  -14.4006 N   0  0  0  0  0  0  0  0  0  0  0  0
   25.3121  -20.1727  -13.8225 C   0  0  1  0  0  0  0  0  0  0  0  0
   24.1269  -20.2678  -14.7539 C   0  0  0  0  0  0  0  0  0  0  0  0
   22.6172  -19.7439  -13.8947 S   0  0  0  0  0  0  0  0  0  0  0  0
   25.0666  -20.8739  -12.5405 C   0  0  0  0  0  0  0  0  0  0  0  0
   24.7016  -22.0688  -12.5743 O   0  0  0  0  0  0  0  0  0  0  0  0
   27.2204  -18.6487   -7.9591 C   0  0  0  0  0  0  0  0  0  0  0  0
   26.8583  -19.7891   -8.8604 C   0  0  0  0  0  0  0  0  0  0  0  0
   25.3879  -20.1531   -8.8043 C   0  0  2  0  0  0  0  0  0  0  0  0
   25.2574  -21.0730   -7.6030 C   0  0  0  0  0  0  0  0  0  0  0  0
   24.9348  -20.9231   -9.9989 C   0  0  2  0  0  0  0  0  0  0  0  0
   25.2148  -20.2896  -11.2671 N   0  0  0  0  0  0  0  0  0  0  0  0
   23.4917  -21.2120   -9.8570 C   0  0  0  0  0  0  0  0  0  0  0  0
   22.5617  -20.4378  -10.4925 O   0  0  0  0  0  0  0  0  0  0  0  0
   23.1367  -22.1720   -9.1486 O   0  0  0  0  0  0  0  0  0  0  0  0
  2  1  1  1
  3  4  1  0
  3  2  1  0
  4  8  1  0
  5  4  2  0
  6  2  1  0
  6  9  1  0
  7  6  2  0
 10 11  1  6
 10  9  1  0
 10 13  1  0
 12 11  1  0
 13 20  1  0
 14 13  2  0
 16 15  1  0
 17 18  1  1
 17 16  1  0
 19 17  1  0
 19 20  1  6
 21 22  1  0
 21 19  1  0
 23 21  2  0
M  END
$$$$
