DCI.pdb
     RDKit          3D

 23 22  0  0  1  0  0  0  0  0999 V2000
   22.5648  -19.3680  -17.3432 N   0  0  0  0  0  0  0  0  0  0  0  0
   23.1977  -18.3671  -16.5087 C   0  0  1  0  0  0  0  0  0  0  0  0
   22.6820  -16.9734  -16.7947 C   0  0  0  0  0  0  0  0  0  0  0  0
   23.1966  -16.4760  -18.0839 C   0  0  0  0  0  0  0  0  0  0  0  0
   22.4746  -16.5025  -19.1182 O   0  0  0  0  0  0  0  0  0  0  0  0
   22.9120  -18.6493  -15.0756 C   0  0  0  0  0  0  0  0  0  0  0  0
   21.7566  -18.5392  -14.6501 O   0  0  0  0  0  0  0  0  0  0  0  0
   24.4772  -15.9717  -18.1856 O   0  0  0  0  0  0  0  0  0  0  0  0
   23.9251  -19.0440  -14.1701 N   0  0  0  0  0  0  0  0  0  0  0  0
   23.6953  -19.8566  -13.0079 C   0  0  1  0  0  0  0  0  0  0  0  0
   23.0448  -21.1793  -13.3369 C   0  0  0  0  0  0  0  0  0  0  0  0
   23.0825  -22.2687  -11.8866 S   0  0  0  0  0  0  0  0  0  0  0  0
   24.9851  -20.0345  -12.3005 C   0  0  0  0  0  0  0  0  0  0  0  0
   25.9461  -20.5299  -12.9275 O   0  0  0  0  0  0  0  0  0  0  0  0
   27.7356  -18.9459   -6.7301 C   0  0  0  0  0  0  0  0  0  0  0  0
   27.7231  -19.5844   -8.0851 C   0  0  0  0  0  0  0  0  0  0  0  0
   26.3836  -19.4750   -8.7863 C   0  0  2  0  0  0  0  0  0  0  0  0
   25.4886  -20.4783   -8.0801 C   0  0  0  0  0  0  0  0  0  0  0  0
   26.4458  -19.8755  -10.2219 C   0  0  2  0  0  0  0  0  0  0  0  0
   25.2159  -19.6834  -10.9558 N   0  0  0  0  0  0  0  0  0  0  0  0
   26.8981  -21.2808  -10.3027 C   0  0  0  0  0  0  0  0  0  0  0  0
   25.9958  -22.2932  -10.4721 O   0  0  0  0  0  0  0  0  0  0  0  0
   28.1149  -21.5276  -10.2132 O   0  0  0  0  0  0  0  0  0  0  0  0
  2  1  1  6
  3  4  1  0
  3  2  1  0
  4  8  1  0
  5  4  2  0
  6  2  1  0
  6  9  1  0
  7  6  2  0
 10 11  1  6
 10  9  1  0
 10 13  1  0
 12 11  1  0
 13 20  1  0
 14 13  2  0
 16 15  1  0
 17 18  1  1
 17 16  1  0
 19 17  1  0
 19 20  1  1
 21 22  1  0
 21 19  1  0
 23 21  2  0
M  END
$$$$
