DCI.pdb
     RDKit          3D

 23 22  0  0  1  0  0  0  0  0999 V2000
   18.0483  -16.1048  -17.7817 N   0  0  0  0  0  0  0  0  0  0  0  0
   18.8621  -15.5754  -16.7066 C   0  0  1  0  0  0  0  0  0  0  0  0
   19.9182  -16.5585  -16.2498 C   0  0  0  0  0  0  0  0  0  0  0  0
   19.3064  -17.6937  -15.5347 C   0  0  0  0  0  0  0  0  0  0  0  0
   18.0579  -17.7473  -15.3612 O   0  0  0  0  0  0  0  0  0  0  0  0
   19.5772  -14.3544  -17.1678 C   0  0  0  0  0  0  0  0  0  0  0  0
   20.2653  -14.4005  -18.1937 O   0  0  0  0  0  0  0  0  0  0  0  0
   20.0860  -18.7199  -15.0412 O   0  0  0  0  0  0  0  0  0  0  0  0
   19.4987  -13.1271  -16.4680 N   0  0  0  0  0  0  0  0  0  0  0  0
   20.0230  -11.8835  -16.9605 C   0  0  1  0  0  0  0  0  0  0  0  0
   18.9485  -10.9615  -17.4860 C   0  0  0  0  0  0  0  0  0  0  0  0
   19.6584   -9.3383  -17.8770 S   0  0  0  0  0  0  0  0  0  0  0  0
   20.8159  -11.2510  -15.8803 C   0  0  0  0  0  0  0  0  0  0  0  0
   20.3599  -11.2686  -14.7167 O   0  0  0  0  0  0  0  0  0  0  0  0
   26.2463  -11.6567  -15.6121 C   0  0  0  0  0  0  0  0  0  0  0  0
   24.7828  -11.5240  -15.3212 C   0  0  0  0  0  0  0  0  0  0  0  0
   24.3215  -10.0839  -15.2155 C   0  0  2  0  0  0  0  0  0  0  0  0
   24.9631   -9.5592  -13.9429 C   0  0  0  0  0  0  0  0  0  0  0  0
   22.8446   -9.9587  -15.0472 C   0  0  2  0  0  0  0  0  0  0  0  0
   22.0627  -10.6217  -16.0656 N   0  0  0  0  0  0  0  0  0  0  0  0
   22.4974   -8.5240  -14.9614 C   0  0  0  0  0  0  0  0  0  0  0  0
   22.4816   -7.8833  -13.7543 O   0  0  0  0  0  0  0  0  0  0  0  0
   22.2189   -7.9085  -16.0069 O   0  0  0  0  0  0  0  0  0  0  0  0
  2  1  1  6
  3  4  1  0
  3  2  1  0
  4  8  1  0
  5  4  2  0
  6  2  1  0
  6  9  1  0
  7  6  2  0
 10 11  1  1
 10  9  1  0
 10 13  1  0
 12 11  1  0
 13 20  1  0
 14 13  2  0
 16 15  1  0
 17 18  1  1
 17 16  1  0
 19 17  1  0
 19 20  1  6
 21 22  1  0
 21 19  1  0
 23 21  2  0
M  END
$$$$
