DCI.pdb
     RDKit          3D

 23 22  0  0  1  0  0  0  0  0999 V2000
   18.3177  -13.3451  -16.0294 N   0  0  0  0  0  0  0  0  0  0  0  0
   18.5328  -12.1385  -16.8016 C   0  0  1  0  0  0  0  0  0  0  0  0
   17.3448  -11.7978  -17.6750 C   0  0  0  0  0  0  0  0  0  0  0  0
   17.2348  -12.7391  -18.8047 C   0  0  0  0  0  0  0  0  0  0  0  0
   18.2604  -13.0962  -19.4468 O   0  0  0  0  0  0  0  0  0  0  0  0
   18.7437  -10.9835  -15.8870 C   0  0  0  0  0  0  0  0  0  0  0  0
   17.9907  -10.8253  -14.9195 O   0  0  0  0  0  0  0  0  0  0  0  0
   16.0091  -13.2485  -19.1824 O   0  0  0  0  0  0  0  0  0  0  0  0
   19.7864  -10.0477  -16.0849 N   0  0  0  0  0  0  0  0  0  0  0  0
   19.9742   -8.8692  -15.2851 C   0  0  1  0  0  0  0  0  0  0  0  0
   21.3374   -8.8115  -14.6376 C   0  0  0  0  0  0  0  0  0  0  0  0
   21.5878   -7.1923  -13.8584 S   0  0  0  0  0  0  0  0  0  0  0  0
   19.7136   -7.6829  -16.1338 C   0  0  0  0  0  0  0  0  0  0  0  0
   20.3621   -7.5539  -17.1944 O   0  0  0  0  0  0  0  0  0  0  0  0
   15.7274   -4.6140  -19.1999 C   0  0  0  0  0  0  0  0  0  0  0  0
   16.8267   -4.4131  -18.2023 C   0  0  0  0  0  0  0  0  0  0  0  0
   17.2105   -5.6838  -17.4703 C   0  0  2  0  0  0  0  0  0  0  0  0
   16.0719   -5.9347  -16.4971 C   0  0  0  0  0  0  0  0  0  0  0  0
   18.4551   -5.5341  -16.6616 C   0  0  2  0  0  0  0  0  0  0  0  0
   18.7775   -6.6737  -15.8336 N   0  0  0  0  0  0  0  0  0  0  0  0
   18.3482   -4.3022  -15.8510 C   0  0  0  0  0  0  0  0  0  0  0  0
   18.0845   -4.3717  -14.5117 O   0  0  0  0  0  0  0  0  0  0  0  0
   18.5017   -3.1998  -16.4082 O   0  0  0  0  0  0  0  0  0  0  0  0
  2  1  1  1
  3  4  1  0
  3  2  1  0
  4  8  1  0
  5  4  2  0
  6  2  1  0
  6  9  1  0
  7  6  2  0
 10 11  1  6
 10  9  1  0
 10 13  1  0
 12 11  1  0
 13 20  1  0
 14 13  2  0
 16 15  1  0
 17 18  1  1
 17 16  1  0
 19 17  1  0
 19 20  1  1
 21 22  1  0
 21 19  1  0
 23 21  2  0
M  END
$$$$
