DCI.pdb
     RDKit          3D

 23 22  0  0  1  0  0  0  0  0999 V2000
   25.8365  -21.8931  -13.6484 N   0  0  0  0  0  0  0  0  0  0  0  0
   26.5848  -20.6949  -13.3277 C   0  0  1  0  0  0  0  0  0  0  0  0
   26.4473  -19.6306  -14.3948 C   0  0  0  0  0  0  0  0  0  0  0  0
   26.8034  -20.1666  -15.7216 C   0  0  0  0  0  0  0  0  0  0  0  0
   27.0765  -21.3893  -15.8694 O   0  0  0  0  0  0  0  0  0  0  0  0
   26.0760  -20.1051  -12.0595 C   0  0  0  0  0  0  0  0  0  0  0  0
   25.1388  -19.2998  -12.0933 O   0  0  0  0  0  0  0  0  0  0  0  0
   26.8451  -19.3425  -16.8278 O   0  0  0  0  0  0  0  0  0  0  0  0
   26.6309  -20.4352  -10.8004 N   0  0  0  0  0  0  0  0  0  0  0  0
   25.9547  -20.2463   -9.5471 C   0  0  1  0  0  0  0  0  0  0  0  0
   24.6387  -20.9837   -9.4742 C   0  0  0  0  0  0  0  0  0  0  0  0
   24.0025  -20.9543   -7.7753 S   0  0  0  0  0  0  0  0  0  0  0  0
   26.8743  -20.6454   -8.4559 C   0  0  0  0  0  0  0  0  0  0  0  0
   27.3770  -21.7893   -8.4877 O   0  0  0  0  0  0  0  0  0  0  0  0
   30.5737  -18.4468   -3.9302 C   0  0  0  0  0  0  0  0  0  0  0  0
   29.7429  -19.5496   -4.5111 C   0  0  0  0  0  0  0  0  0  0  0  0
   28.8913  -19.1041   -5.6833 C   0  0  2  0  0  0  0  0  0  0  0  0
   27.9410  -18.0693   -5.1064 C   0  0  0  0  0  0  0  0  0  0  0  0
   28.0550  -20.2046   -6.2443 C   0  0  2  0  0  0  0  0  0  0  0  0
   27.2315  -19.8234   -7.3689 N   0  0  0  0  0  0  0  0  0  0  0  0
   27.2348  -20.7784   -5.1561 C   0  0  0  0  0  0  0  0  0  0  0  0
   27.7799  -21.6601   -4.2654 O   0  0  0  0  0  0  0  0  0  0  0  0
   26.0388  -20.4459   -5.0643 O   0  0  0  0  0  0  0  0  0  0  0  0
  2  1  1  6
  3  4  1  0
  3  2  1  0
  4  8  1  0
  5  4  2  0
  6  2  1  0
  6  9  1  0
  7  6  2  0
 10 11  1  6
 10  9  1  0
 10 13  1  0
 12 11  1  0
 13 20  1  0
 14 13  2  0
 16 15  1  0
 17 18  1  1
 17 16  1  0
 19 17  1  0
 19 20  1  6
 21 22  1  0
 21 19  1  0
 23 21  2  0
M  END
$$$$
