DCI.pdb
     RDKit          3D

 23 22  0  0  1  0  0  0  0  0999 V2000
   19.5552  -11.9525  -16.7424 N   0  0  0  0  0  0  0  0  0  0  0  0
   19.4691  -10.7042  -17.4722 C   0  0  1  0  0  0  0  0  0  0  0  0
   18.3477  -10.7108  -18.4885 C   0  0  0  0  0  0  0  0  0  0  0  0
   18.6282  -11.6671  -19.5754 C   0  0  0  0  0  0  0  0  0  0  0  0
   17.9285  -12.7078  -19.7132 O   0  0  0  0  0  0  0  0  0  0  0  0
   19.1933   -9.5855  -16.5300 C   0  0  0  0  0  0  0  0  0  0  0  0
   18.1516   -9.5902  -15.8647 O   0  0  0  0  0  0  0  0  0  0  0  0
   19.6607  -11.4435  -20.4634 O   0  0  0  0  0  0  0  0  0  0  0  0
   20.0894   -8.5031  -16.3646 N   0  0  0  0  0  0  0  0  0  0  0  0
   19.9016   -7.4388  -15.4181 C   0  0  1  0  0  0  0  0  0  0  0  0
   21.1361   -7.1641  -14.5924 C   0  0  0  0  0  0  0  0  0  0  0  0
   21.3802   -8.4902  -13.3785 S   0  0  0  0  0  0  0  0  0  0  0  0
   19.4481   -6.2350  -16.1534 C   0  0  0  0  0  0  0  0  0  0  0  0
   20.0203   -5.9392  -17.2245 O   0  0  0  0  0  0  0  0  0  0  0  0
   14.7487   -5.3374  -18.2525 C   0  0  0  0  0  0  0  0  0  0  0  0
   16.2050   -5.2326  -17.9173 C   0  0  0  0  0  0  0  0  0  0  0  0
   16.4940   -4.2427  -16.8063 C   0  0  2  0  0  0  0  0  0  0  0  0
   16.1522   -2.8842  -17.3931 C   0  0  0  0  0  0  0  0  0  0  0  0
   17.9350   -4.2058  -16.4224 C   0  0  2  0  0  0  0  0  0  0  0  0
   18.4062   -5.3850  -15.7329 N   0  0  0  0  0  0  0  0  0  0  0  0
   18.1807   -2.9882  -15.6204 C   0  0  0  0  0  0  0  0  0  0  0  0
   18.6371   -1.8448  -16.2140 O   0  0  0  0  0  0  0  0  0  0  0  0
   17.9656   -3.0210  -14.3948 O   0  0  0  0  0  0  0  0  0  0  0  0
  2  1  1  1
  3  4  1  0
  3  2  1  0
  4  8  1  0
  5  4  2  0
  6  2  1  0
  6  9  1  0
  7  6  2  0
 10 11  1  6
 10  9  1  0
 10 13  1  0
 12 11  1  0
 13 20  1  0
 14 13  2  0
 16 15  1  0
 17 18  1  6
 17 16  1  0
 19 17  1  0
 19 20  1  1
 21 22  1  0
 21 19  1  0
 23 21  2  0
M  END
$$$$
