DCI.pdb
     RDKit          3D

 23 22  0  0  1  0  0  0  0  0999 V2000
   15.2361  -14.1659  -17.5239 N   0  0  0  0  0  0  0  0  0  0  0  0
   16.0794  -13.6020  -16.4899 C   0  0  1  0  0  0  0  0  0  0  0  0
   17.1958  -14.5405  -16.0859 C   0  0  0  0  0  0  0  0  0  0  0  0
   16.6670  -15.6963  -15.3384 C   0  0  0  0  0  0  0  0  0  0  0  0
   15.4963  -15.6777  -14.8685 O   0  0  0  0  0  0  0  0  0  0  0  0
   16.7208  -12.3536  -16.9853 C   0  0  0  0  0  0  0  0  0  0  0  0
   17.1549  -12.3075  -18.1417 O   0  0  0  0  0  0  0  0  0  0  0  0
   17.4410  -16.8212  -15.1376 O   0  0  0  0  0  0  0  0  0  0  0  0
   16.8542  -11.2029  -16.1728 N   0  0  0  0  0  0  0  0  0  0  0  0
   17.4482   -9.9707  -16.6120 C   0  0  1  0  0  0  0  0  0  0  0  0
   16.4248   -8.9021  -16.9150 C   0  0  0  0  0  0  0  0  0  0  0  0
   17.2555   -7.3305  -17.2781 S   0  0  0  0  0  0  0  0  0  0  0  0
   18.4217   -9.5300  -15.5855 C   0  0  0  0  0  0  0  0  0  0  0  0
   18.1331   -9.6931  -14.3804 O   0  0  0  0  0  0  0  0  0  0  0  0
   23.1326  -11.4167  -14.7644 C   0  0  0  0  0  0  0  0  0  0  0  0
   21.8188  -10.6974  -14.7375 C   0  0  0  0  0  0  0  0  0  0  0  0
   21.9496   -9.2033  -14.9573 C   0  0  2  0  0  0  0  0  0  0  0  0
   22.7852   -8.7071  -13.7902 C   0  0  0  0  0  0  0  0  0  0  0  0
   20.6404   -8.4909  -14.8949 C   0  0  2  0  0  0  0  0  0  0  0  0
   19.6662   -8.9324  -15.8666 N   0  0  0  0  0  0  0  0  0  0  0  0
   20.8858   -7.0376  -15.0120 C   0  0  0  0  0  0  0  0  0  0  0  0
   21.4506   -6.3423  -13.9797 O   0  0  0  0  0  0  0  0  0  0  0  0
   20.5691   -6.4565  -16.0663 O   0  0  0  0  0  0  0  0  0  0  0  0
  2  1  1  6
  3  4  1  0
  3  2  1  0
  4  8  1  0
  5  4  2  0
  6  2  1  0
  6  9  1  0
  7  6  2  0
 10 11  1  1
 10  9  1  0
 10 13  1  0
 12 11  1  0
 13 20  1  0
 14 13  2  0
 16 15  1  0
 17 18  1  1
 17 16  1  0
 19 17  1  0
 19 20  1  6
 21 22  1  0
 21 19  1  0
 23 21  2  0
M  END
$$$$
