DCI.pdb
     RDKit          3D

 23 22  0  0  1  0  0  0  0  0999 V2000
   15.3515  -12.0676  -16.1776 N   0  0  0  0  0  0  0  0  0  0  0  0
   16.7048  -11.8039  -15.7331 C   0  0  1  0  0  0  0  0  0  0  0  0
   17.6749  -12.8741  -16.1845 C   0  0  0  0  0  0  0  0  0  0  0  0
   17.4111  -14.1493  -15.4927 C   0  0  0  0  0  0  0  0  0  0  0  0
   16.4802  -14.2415  -14.6462 O   0  0  0  0  0  0  0  0  0  0  0  0
   17.1832  -10.5160  -16.3053 C   0  0  0  0  0  0  0  0  0  0  0  0
   16.9123  -10.2304  -17.4771 O   0  0  0  0  0  0  0  0  0  0  0  0
   18.1763  -15.2671  -15.7567 O   0  0  0  0  0  0  0  0  0  0  0  0
   17.9459   -9.5943  -15.5499 N   0  0  0  0  0  0  0  0  0  0  0  0
   18.1767   -8.2304  -15.9375 C   0  0  1  0  0  0  0  0  0  0  0  0
   16.9005   -7.4867  -16.2528 C   0  0  0  0  0  0  0  0  0  0  0  0
   17.2644   -5.7412  -16.5881 S   0  0  0  0  0  0  0  0  0  0  0  0
   18.9545   -7.5658  -14.8656 C   0  0  0  0  0  0  0  0  0  0  0  0
   18.6749   -7.8272  -13.6758 O   0  0  0  0  0  0  0  0  0  0  0  0
   23.0503   -9.8486  -14.3189 C   0  0  0  0  0  0  0  0  0  0  0  0
   21.9585   -8.8600  -14.0455 C   0  0  0  0  0  0  0  0  0  0  0  0
   22.2720   -7.4662  -14.5524 C   0  0  2  0  0  0  0  0  0  0  0  0
   23.4876   -7.0240  -13.7566 C   0  0  0  0  0  0  0  0  0  0  0  0
   21.1821   -6.4875  -14.2704 C   0  0  2  0  0  0  0  0  0  0  0  0
   20.0006   -6.6483  -15.0866 N   0  0  0  0  0  0  0  0  0  0  0  0
   21.7301   -5.1197  -14.3934 C   0  0  0  0  0  0  0  0  0  0  0  0
   22.3343   -4.5141  -13.3274 O   0  0  0  0  0  0  0  0  0  0  0  0
   21.6318   -4.5276  -15.4839 O   0  0  0  0  0  0  0  0  0  0  0  0
  2  1  1  6
  3  4  1  0
  3  2  1  0
  4  8  1  0
  5  4  2  0
  6  2  1  0
  6  9  1  0
  7  6  2  0
 10 11  1  1
 10  9  1  0
 10 13  1  0
 12 11  1  0
 13 20  1  0
 14 13  2  0
 16 15  1  0
 17 18  1  1
 17 16  1  0
 19 17  1  0
 19 20  1  6
 21 22  1  0
 21 19  1  0
 23 21  2  0
M  END
$$$$
