DCI.pdb
     RDKit          3D

 23 22  0  0  1  0  0  0  0  0999 V2000
   19.3118  -12.9073  -16.9211 N   0  0  0  0  0  0  0  0  0  0  0  0
   18.8025  -11.5924  -16.5889 C   0  0  1  0  0  0  0  0  0  0  0  0
   17.3993  -11.6471  -16.0249 C   0  0  0  0  0  0  0  0  0  0  0  0
   16.4158  -11.9294  -17.0867 C   0  0  0  0  0  0  0  0  0  0  0  0
   16.5916  -11.4956  -18.2583 O   0  0  0  0  0  0  0  0  0  0  0  0
   19.6631  -10.9645  -15.5496 C   0  0  0  0  0  0  0  0  0  0  0  0
   19.8230  -11.5333  -14.4639 O   0  0  0  0  0  0  0  0  0  0  0  0
   15.2841  -12.6732  -16.8211 O   0  0  0  0  0  0  0  0  0  0  0  0
   20.3137   -9.7256  -15.7596 N   0  0  0  0  0  0  0  0  0  0  0  0
   21.2747   -9.1567  -14.8559 C   0  0  1  0  0  0  0  0  0  0  0  0
   22.5388   -9.9767  -14.7522 C   0  0  0  0  0  0  0  0  0  0  0  0
   23.3622  -10.0572  -16.3669 S   0  0  0  0  0  0  0  0  0  0  0  0
   21.5509   -7.7652  -15.2838 C   0  0  0  0  0  0  0  0  0  0  0  0
   21.5435   -7.5042  -16.5061 O   0  0  0  0  0  0  0  0  0  0  0  0
   19.1666   -2.8157  -16.0579 C   0  0  0  0  0  0  0  0  0  0  0  0
   20.4570   -3.2996  -15.4707 C   0  0  0  0  0  0  0  0  0  0  0  0
   20.4510   -4.7812  -15.1508 C   0  0  2  0  0  0  0  0  0  0  0  0
   19.5291   -4.9195  -13.9518 C   0  0  0  0  0  0  0  0  0  0  0  0
   21.7904   -5.2908  -14.7365 C   0  0  2  0  0  0  0  0  0  0  0  0
   21.8254   -6.6973  -14.4068 N   0  0  0  0  0  0  0  0  0  0  0  0
   22.2823   -4.4691  -13.6100 C   0  0  0  0  0  0  0  0  0  0  0  0
   22.2966   -4.9697  -12.3383 O   0  0  0  0  0  0  0  0  0  0  0  0
   22.6831   -3.3130  -13.8383 O   0  0  0  0  0  0  0  0  0  0  0  0
  2  1  1  1
  3  4  1  0
  3  2  1  0
  4  8  1  0
  5  4  2  0
  6  2  1  0
  6  9  1  0
  7  6  2  0
 10 11  1  6
 10  9  1  0
 10 13  1  0
 12 11  1  0
 13 20  1  0
 14 13  2  0
 16 15  1  0
 17 18  1  1
 17 16  1  0
 19 17  1  0
 19 20  1  1
 21 22  1  0
 21 19  1  0
 23 21  2  0
M  END
$$$$
