DCI.pdb
     RDKit          3D

 23 22  0  0  1  0  0  0  0  0999 V2000
   24.9453  -22.6364  -17.8347 N   0  0  0  0  0  0  0  0  0  0  0  0
   25.1455  -23.1188  -16.4835 C   0  0  1  0  0  0  0  0  0  0  0  0
   26.0977  -24.2938  -16.4298 C   0  0  0  0  0  0  0  0  0  0  0  0
   25.3707  -25.5487  -16.1631 C   0  0  0  0  0  0  0  0  0  0  0  0
   24.1098  -25.5654  -16.1216 O   0  0  0  0  0  0  0  0  0  0  0  0
   25.7384  -22.0418  -15.6447 C   0  0  0  0  0  0  0  0  0  0  0  0
   26.6145  -21.3104  -16.1195 O   0  0  0  0  0  0  0  0  0  0  0  0
   26.0537  -26.7294  -15.9537 O   0  0  0  0  0  0  0  0  0  0  0  0
   25.3324  -21.8203  -14.3074 N   0  0  0  0  0  0  0  0  0  0  0  0
   25.7766  -20.7162  -13.5027 C   0  0  1  0  0  0  0  0  0  0  0  0
   24.9921  -19.4513  -13.7590 C   0  0  0  0  0  0  0  0  0  0  0  0
   23.2297  -19.7362  -13.4359 S   0  0  0  0  0  0  0  0  0  0  0  0
   25.7204  -21.1239  -12.0793 C   0  0  0  0  0  0  0  0  0  0  0  0
   24.8090  -21.8981  -11.7158 O   0  0  0  0  0  0  0  0  0  0  0  0
   30.1056  -20.2278   -8.5637 C   0  0  0  0  0  0  0  0  0  0  0  0
   28.9505  -20.9576   -9.1779 C   0  0  0  0  0  0  0  0  0  0  0  0
   27.6069  -20.3386   -8.8469 C   0  0  2  0  0  0  0  0  0  0  0  0
   27.3422  -20.7258   -7.4025 C   0  0  0  0  0  0  0  0  0  0  0  0
   26.4923  -20.9003   -9.6640 C   0  0  2  0  0  0  0  0  0  0  0  0
   26.6282  -20.7003  -11.0886 N   0  0  0  0  0  0  0  0  0  0  0  0
   25.2150  -20.3438   -9.1692 C   0  0  0  0  0  0  0  0  0  0  0  0
   24.8883  -19.0375   -9.4037 O   0  0  0  0  0  0  0  0  0  0  0  0
   24.4414  -21.0842   -8.5346 O   0  0  0  0  0  0  0  0  0  0  0  0
  2  1  1  6
  3  4  1  0
  3  2  1  0
  4  8  1  0
  5  4  2  0
  6  2  1  0
  6  9  1  0
  7  6  2  0
 10 11  1  1
 10  9  1  0
 10 13  1  0
 12 11  1  0
 13 20  1  0
 14 13  2  0
 16 15  1  0
 17 18  1  1
 17 16  1  0
 19 17  1  0
 19 20  1  6
 21 22  1  0
 21 19  1  0
 23 21  2  0
M  END
$$$$
