DCI.pdb
     RDKit          3D

 23 22  0  0  1  0  0  0  0  0999 V2000
   20.3236  -21.2862  -10.7841 N   0  0  0  0  0  0  0  0  0  0  0  0
   20.8755  -21.5654  -12.0940 C   0  0  1  0  0  0  0  0  0  0  0  0
   19.8803  -21.3017  -13.2032 C   0  0  0  0  0  0  0  0  0  0  0  0
   18.7557  -22.2533  -13.1384 C   0  0  0  0  0  0  0  0  0  0  0  0
   18.9668  -23.4932  -13.0398 O   0  0  0  0  0  0  0  0  0  0  0  0
   22.0489  -20.6854  -12.3464 C   0  0  0  0  0  0  0  0  0  0  0  0
   21.9537  -19.4689  -12.1485 O   0  0  0  0  0  0  0  0  0  0  0  0
   17.4503  -21.8076  -13.1842 O   0  0  0  0  0  0  0  0  0  0  0  0
   23.2850  -21.1943  -12.8102 N   0  0  0  0  0  0  0  0  0  0  0  0
   24.4812  -20.4097  -12.9418 C   0  0  1  0  0  0  0  0  0  0  0  0
   25.6411  -20.9728  -12.1553 C   0  0  0  0  0  0  0  0  0  0  0  0
   25.2531  -20.9647  -10.3830 S   0  0  0  0  0  0  0  0  0  0  0  0
   24.7995  -20.2823  -14.3834 C   0  0  0  0  0  0  0  0  0  0  0  0
   24.7168  -21.2996  -15.1048 O   0  0  0  0  0  0  0  0  0  0  0  0
   22.3492  -17.0762  -16.5794 C   0  0  0  0  0  0  0  0  0  0  0  0
   23.1876  -18.2097  -17.0857 C   0  0  0  0  0  0  0  0  0  0  0  0
   24.6695  -17.8922  -17.1146 C   0  0  2  0  0  0  0  0  0  0  0  0
   25.0507  -17.9337  -18.5841 C   0  0  0  0  0  0  0  0  0  0  0  0
   25.4966  -18.9189  -16.4167 C   0  0  2  0  0  0  0  0  0  0  0  0
   25.1941  -19.0857  -15.0136 N   0  0  0  0  0  0  0  0  0  0  0  0
   26.9248  -18.5928  -16.6167 C   0  0  0  0  0  0  0  0  0  0  0  0
   27.6741  -19.2808  -17.5295 O   0  0  0  0  0  0  0  0  0  0  0  0
   27.4347  -17.6812  -15.9396 O   0  0  0  0  0  0  0  0  0  0  0  0
  2  1  1  1
  3  4  1  0
  3  2  1  0
  4  8  1  0
  5  4  2  0
  6  2  1  0
  6  9  1  0
  7  6  2  0
 10 11  1  1
 10  9  1  0
 10 13  1  0
 12 11  1  0
 13 20  1  0
 14 13  2  0
 16 15  1  0
 17 18  1  6
 17 16  1  0
 19 17  1  0
 19 20  1  1
 21 22  1  0
 21 19  1  0
 23 21  2  0
M  END
$$$$
