DCI.pdb
     RDKit          3D

 23 22  0  0  1  0  0  0  0  0999 V2000
   18.4154  -11.8818  -18.0951 N   0  0  0  0  0  0  0  0  0  0  0  0
   19.1917  -10.6661  -18.2290 C   0  0  1  0  0  0  0  0  0  0  0  0
   18.5091   -9.6449  -19.1131 C   0  0  0  0  0  0  0  0  0  0  0  0
   18.4160  -10.1299  -20.5025 C   0  0  0  0  0  0  0  0  0  0  0  0
   19.4584  -10.3530  -21.1773 O   0  0  0  0  0  0  0  0  0  0  0  0
   19.3729  -10.0321  -16.8948 C   0  0  0  0  0  0  0  0  0  0  0  0
   18.5240  -10.2097  -16.0139 O   0  0  0  0  0  0  0  0  0  0  0  0
   17.1881  -10.3496  -21.0927 O   0  0  0  0  0  0  0  0  0  0  0  0
   20.4940   -9.2237  -16.5920 N   0  0  0  0  0  0  0  0  0  0  0  0
   20.7388   -8.6346  -15.3048 C   0  0  1  0  0  0  0  0  0  0  0  0
   21.6164   -9.4926  -14.4248 C   0  0  0  0  0  0  0  0  0  0  0  0
   21.9813   -8.6240  -12.8743 S   0  0  0  0  0  0  0  0  0  0  0  0
   21.3129   -7.2843  -15.5112 C   0  0  0  0  0  0  0  0  0  0  0  0
   22.2979   -7.1645  -16.2712 O   0  0  0  0  0  0  0  0  0  0  0  0
   18.3243   -2.8771  -16.3876 C   0  0  0  0  0  0  0  0  0  0  0  0
   19.4406   -3.8755  -16.3526 C   0  0  0  0  0  0  0  0  0  0  0  0
   20.3720   -3.6910  -15.1710 C   0  0  2  0  0  0  0  0  0  0  0  0
   21.1292   -2.4078  -15.4654 C   0  0  0  0  0  0  0  0  0  0  0  0
   21.3835   -4.7812  -15.0538 C   0  0  2  0  0  0  0  0  0  0  0  0
   20.8275   -6.1071  -14.9083 N   0  0  0  0  0  0  0  0  0  0  0  0
   22.2961   -4.4626  -13.9350 C   0  0  0  0  0  0  0  0  0  0  0  0
   22.0846   -4.9916  -12.6927 O   0  0  0  0  0  0  0  0  0  0  0  0
   23.2608   -3.7038  -14.1425 O   0  0  0  0  0  0  0  0  0  0  0  0
  2  1  1  1
  3  4  1  0
  3  2  1  0
  4  8  1  0
  5  4  2  0
  6  2  1  0
  6  9  1  0
  7  6  2  0
 10 11  1  1
 10  9  1  0
 10 13  1  0
 12 11  1  0
 13 20  1  0
 14 13  2  0
 16 15  1  0
 17 18  1  6
 17 16  1  0
 19 17  1  0
 19 20  1  1
 21 22  1  0
 21 19  1  0
 23 21  2  0
M  END
$$$$
