DCI.pdb
     RDKit          3D

 23 22  0  0  1  0  0  0  0  0999 V2000
   26.2459  -21.9646  -14.4839 N   0  0  0  0  0  0  0  0  0  0  0  0
   27.0923  -20.8362  -14.1543 C   0  0  1  0  0  0  0  0  0  0  0  0
   27.2512  -19.8803  -15.3167 C   0  0  0  0  0  0  0  0  0  0  0  0
   26.0614  -19.9081  -16.1874 C   0  0  0  0  0  0  0  0  0  0  0  0
   25.0857  -20.6617  -15.9197 O   0  0  0  0  0  0  0  0  0  0  0  0
   26.4895  -20.0616  -13.0355 C   0  0  0  0  0  0  0  0  0  0  0  0
   25.8999  -19.0017  -13.2747 O   0  0  0  0  0  0  0  0  0  0  0  0
   25.9908  -19.1112  -17.3120 O   0  0  0  0  0  0  0  0  0  0  0  0
   26.5662  -20.4975  -11.6916 N   0  0  0  0  0  0  0  0  0  0  0  0
   25.5661  -20.2237  -10.6972 C   0  0  1  0  0  0  0  0  0  0  0  0
   24.1977  -20.7302  -11.0873 C   0  0  0  0  0  0  0  0  0  0  0  0
   23.0407  -20.5232   -9.7052 S   0  0  0  0  0  0  0  0  0  0  0  0
   26.0212  -20.7951   -9.4080 C   0  0  0  0  0  0  0  0  0  0  0  0
   26.2238  -22.0265   -9.3394 O   0  0  0  0  0  0  0  0  0  0  0  0
   29.5199  -19.1973   -4.5682 C   0  0  0  0  0  0  0  0  0  0  0  0
   28.5051  -20.1250   -5.1629 C   0  0  0  0  0  0  0  0  0  0  0  0
   27.8520  -19.5748   -6.4152 C   0  0  2  0  0  0  0  0  0  0  0  0
   27.0644  -18.3637   -5.9467 C   0  0  0  0  0  0  0  0  0  0  0  0
   26.8767  -20.5240   -7.0260 C   0  0  2  0  0  0  0  0  0  0  0  0
   26.2468  -20.0468   -8.2358 N   0  0  0  0  0  0  0  0  0  0  0  0
   25.8666  -20.8854   -6.0085 C   0  0  0  0  0  0  0  0  0  0  0  0
   26.2063  -21.6619   -4.9364 O   0  0  0  0  0  0  0  0  0  0  0  0
   24.7006  -20.4712   -6.1443 O   0  0  0  0  0  0  0  0  0  0  0  0
  2  1  1  6
  3  4  1  0
  3  2  1  0
  4  8  1  0
  5  4  2  0
  6  2  1  0
  6  9  1  0
  7  6  2  0
 10 11  1  6
 10  9  1  0
 10 13  1  0
 12 11  1  0
 13 20  1  0
 14 13  2  0
 16 15  1  0
 17 18  1  1
 17 16  1  0
 19 17  1  0
 19 20  1  6
 21 22  1  0
 21 19  1  0
 23 21  2  0
M  END
$$$$
