EGQ.pdb
     RDKit          3D

 23 22  0  0  1  0  0  0  0  0999 V2000
   26.9509  -21.7048  -18.3410 N   0  0  0  0  0  0  0  0  0  0  0  0
   26.5486  -20.3405  -18.2258 C   0  0  1  0  0  0  0  0  0  0  0  0
   25.1245  -20.0394  -18.5312 C   0  0  0  0  0  0  0  0  0  0  0  0
   24.6585  -20.1988  -19.9199 C   0  0  0  0  0  0  0  0  0  0  0  0
   25.2387  -19.3296  -20.9341 C   0  0  0  0  0  0  0  0  0  0  0  0
   24.9980  -18.1160  -20.9944 O   0  0  0  0  0  0  0  0  0  0  0  0
   26.8146  -19.8246  -16.8544 C   0  0  0  0  0  0  0  0  0  0  0  0
   26.5758  -18.6349  -16.5703 O   0  0  0  0  0  0  0  0  0  0  0  0
   26.1081  -19.8847  -21.8860 O   0  0  0  0  0  0  0  0  0  0  0  0
   27.3393  -20.7072  -15.8904 N   0  0  0  0  0  0  0  0  0  0  0  0
   27.6402  -20.2187  -14.5828 C   0  0  0  0  0  0  0  0  0  0  0  0
   26.6711  -20.8613  -13.6216 C   0  0  0  0  0  0  0  0  0  0  0  0
   26.1748  -21.9844  -13.8719 O   0  0  0  0  0  0  0  0  0  0  0  0
   26.6719  -19.2381   -7.6365 N   0  0  0  0  0  0  0  0  0  0  0  0
   25.8480  -20.3859   -7.6704 C   0  0  0  0  0  0  0  0  0  0  0  0
   25.4686  -20.8877   -6.5576 O   0  0  0  0  0  0  0  0  0  0  0  0
   25.4014  -21.0242   -8.9047 C   0  0  0  0  0  0  0  0  0  0  0  0
   25.9678  -20.4621  -10.1357 C   0  0  0  0  0  0  0  0  0  0  0  0
   25.4764  -20.9927  -11.4570 C   0  0  2  0  0  0  0  0  0  0  0  0
   26.3019  -20.2177  -12.4254 N   0  0  0  0  0  0  0  0  0  0  0  0
   24.0656  -20.7144  -11.6908 C   0  0  0  0  0  0  0  0  0  0  0  0
   23.0656  -21.6608  -11.4968 O   0  0  0  0  0  0  0  0  0  0  0  0
   23.6959  -19.5624  -12.1006 O   0  0  0  0  0  0  0  0  0  0  0  0
  2  1  1  1
  2  3  1  0
  3  4  1  0
  5  4  1  0
  5  9  1  0
  6  5  2  0
  7  2  1  0
  7  8  2  0
 10  7  1  0
 11 10  1  0
 11 12  1  0
 12 20  1  0
 13 12  2  0
 15 17  1  0
 15 14  1  0
 16 15  2  0
 18 17  1  0
 19 18  1  1
 19 21  1  0
 20 19  1  0
 21 23  2  0
 21 22  1  0
M  END
$$$$
