EGQ.pdb
     RDKit          3D

 23 22  0  0  1  0  0  0  0  0999 V2000
   18.0068  -15.5785  -17.2726 N   0  0  0  0  0  0  0  0  0  0  0  0
   17.4429  -14.2930  -17.0156 C   0  0  1  0  0  0  0  0  0  0  0  0
   16.6518  -14.1522  -15.7642 C   0  0  0  0  0  0  0  0  0  0  0  0
   15.1824  -14.2115  -15.8556 C   0  0  0  0  0  0  0  0  0  0  0  0
   14.4177  -13.9994  -14.6345 C   0  0  0  0  0  0  0  0  0  0  0  0
   14.0312  -14.9308  -13.9153 O   0  0  0  0  0  0  0  0  0  0  0  0
   18.5037  -13.2485  -16.9758 C   0  0  0  0  0  0  0  0  0  0  0  0
   19.6358  -13.5156  -16.5281 O   0  0  0  0  0  0  0  0  0  0  0  0
   14.1025  -12.6864  -14.2513 O   0  0  0  0  0  0  0  0  0  0  0  0
   18.2005  -11.9588  -17.4534 N   0  0  0  0  0  0  0  0  0  0  0  0
   19.2352  -10.9775  -17.5277 C   0  0  0  0  0  0  0  0  0  0  0  0
   19.1045  -10.0846  -16.3188 C   0  0  0  0  0  0  0  0  0  0  0  0
   18.2897  -10.3601  -15.4075 O   0  0  0  0  0  0  0  0  0  0  0  0
   23.3976   -5.7319  -14.9532 N   0  0  0  0  0  0  0  0  0  0  0  0
   22.4237   -5.5486  -13.9456 C   0  0  0  0  0  0  0  0  0  0  0  0
   22.6231   -4.6345  -13.0746 O   0  0  0  0  0  0  0  0  0  0  0  0
   21.2010   -6.3399  -13.8498 C   0  0  0  0  0  0  0  0  0  0  0  0
   21.0071   -7.3179  -14.9260 C   0  0  0  0  0  0  0  0  0  0  0  0
   19.7434   -8.1374  -14.9292 C   0  0  2  0  0  0  0  0  0  0  0  0
   19.8911   -8.9248  -16.1854 N   0  0  0  0  0  0  0  0  0  0  0  0
   18.5386   -7.3221  -15.0069 C   0  0  0  0  0  0  0  0  0  0  0  0
   17.9679   -6.9287  -16.2122 O   0  0  0  0  0  0  0  0  0  0  0  0
   17.9590   -6.9264  -13.9395 O   0  0  0  0  0  0  0  0  0  0  0  0
  2  1  1  1
  2  3  1  0
  3  4  1  0
  5  4  1  0
  5  9  1  0
  6  5  2  0
  7  2  1  0
  7  8  2  0
 10  7  1  0
 11 10  1  0
 11 12  1  0
 12 20  1  0
 13 12  2  0
 15 17  1  0
 15 14  1  0
 16 15  2  0
 18 17  1  0
 19 18  1  6
 19 21  1  0
 20 19  1  0
 21 23  2  0
 21 22  1  0
M  END
$$$$
