EGQ.pdb
     RDKit          3D

 23 22  0  0  1  0  0  0  0  0999 V2000
   19.2593  -15.6480  -16.5592 N   0  0  0  0  0  0  0  0  0  0  0  0
   18.9122  -14.5414  -17.3909 C   0  0  1  0  0  0  0  0  0  0  0  0
   17.5241  -14.0232  -17.2627 C   0  0  0  0  0  0  0  0  0  0  0  0
   17.0095  -13.7288  -15.9137 C   0  0  0  0  0  0  0  0  0  0  0  0
   16.6824  -12.3449  -15.5997 C   0  0  0  0  0  0  0  0  0  0  0  0
   16.8188  -11.8644  -14.4662 O   0  0  0  0  0  0  0  0  0  0  0  0
   19.8266  -13.3910  -17.1494 C   0  0  0  0  0  0  0  0  0  0  0  0
   20.6588  -13.4301  -16.2225 O   0  0  0  0  0  0  0  0  0  0  0  0
   16.1915  -11.5158  -16.6204 O   0  0  0  0  0  0  0  0  0  0  0  0
   19.7305  -12.2638  -17.9882 N   0  0  0  0  0  0  0  0  0  0  0  0
   20.7206  -11.2385  -17.9008 C   0  0  0  0  0  0  0  0  0  0  0  0
   20.2737  -10.2621  -16.8411 C   0  0  0  0  0  0  0  0  0  0  0  0
   19.2620  -10.4997  -16.1408 O   0  0  0  0  0  0  0  0  0  0  0  0
   23.6664   -5.2491  -15.1520 N   0  0  0  0  0  0  0  0  0  0  0  0
   22.4735   -5.1025  -14.4084 C   0  0  0  0  0  0  0  0  0  0  0  0
   22.3681   -4.0920  -13.6325 O   0  0  0  0  0  0  0  0  0  0  0  0
   21.3543   -6.0363  -14.4834 C   0  0  0  0  0  0  0  0  0  0  0  0
   21.5583   -7.1810  -15.3780 C   0  0  0  0  0  0  0  0  0  0  0  0
   20.3937   -8.0987  -15.6429 C   0  0  2  0  0  0  0  0  0  0  0  0
   20.9790   -9.0652  -16.6141 N   0  0  0  0  0  0  0  0  0  0  0  0
   19.2629   -7.4171  -16.2588 C   0  0  0  0  0  0  0  0  0  0  0  0
   18.3026   -6.7300  -15.5246 O   0  0  0  0  0  0  0  0  0  0  0  0
   19.1115   -7.4381  -17.5270 O   0  0  0  0  0  0  0  0  0  0  0  0
  2  1  1  1
  2  3  1  0
  3  4  1  0
  5  4  1  0
  5  9  1  0
  6  5  2  0
  7  2  1  0
  7  8  2  0
 10  7  1  0
 11 10  1  0
 11 12  1  0
 12 20  1  0
 13 12  2  0
 15 17  1  0
 15 14  1  0
 16 15  2  0
 18 17  1  0
 19 18  1  6
 19 21  1  0
 20 19  1  0
 21 23  2  0
 21 22  1  0
M  END
$$$$
