EGQ.pdb
     RDKit          3D

 23 22  0  0  1  0  0  0  0  0999 V2000
   28.4132  -20.3790  -14.4933 N   0  0  0  0  0  0  0  0  0  0  0  0
   27.8367  -19.4161  -15.3748 C   0  0  1  0  0  0  0  0  0  0  0  0
   27.7297  -19.8054  -16.8062 C   0  0  0  0  0  0  0  0  0  0  0  0
   28.4258  -21.0249  -17.2530 C   0  0  0  0  0  0  0  0  0  0  0  0
   27.8214  -22.3090  -16.9267 C   0  0  0  0  0  0  0  0  0  0  0  0
   26.7539  -22.4093  -16.3063 O   0  0  0  0  0  0  0  0  0  0  0  0
   26.4672  -19.0411  -14.9257 C   0  0  0  0  0  0  0  0  0  0  0  0
   25.8936  -19.6968  -14.0345 O   0  0  0  0  0  0  0  0  0  0  0  0
   28.4711  -23.4862  -17.3296 O   0  0  0  0  0  0  0  0  0  0  0  0
   25.8382  -17.9340  -15.5275 N   0  0  0  0  0  0  0  0  0  0  0  0
   24.5961  -17.4631  -15.0035 C   0  0  0  0  0  0  0  0  0  0  0  0
   23.5532  -18.5157  -15.2865 C   0  0  0  0  0  0  0  0  0  0  0  0
   23.5768  -19.1649  -16.3582 O   0  0  0  0  0  0  0  0  0  0  0  0
   22.0712  -23.7853  -14.9971 N   0  0  0  0  0  0  0  0  0  0  0  0
   21.3387  -22.9405  -14.1327 C   0  0  0  0  0  0  0  0  0  0  0  0
   20.0684  -23.0775  -14.0908 O   0  0  0  0  0  0  0  0  0  0  0  0
   21.9532  -21.9266  -13.2813 C   0  0  0  0  0  0  0  0  0  0  0  0
   21.3845  -20.5803  -13.4078 C   0  0  0  0  0  0  0  0  0  0  0  0
   21.5494  -19.8539  -14.7169 C   0  0  2  0  0  0  0  0  0  0  0  0
   22.5323  -18.7932  -14.3580 N   0  0  0  0  0  0  0  0  0  0  0  0
   20.3153  -19.2342  -15.1813 C   0  0  0  0  0  0  0  0  0  0  0  0
   19.3525  -19.9211  -15.9123 O   0  0  0  0  0  0  0  0  0  0  0  0
   20.0784  -18.0043  -14.9305 O   0  0  0  0  0  0  0  0  0  0  0  0
  2  1  1  1
  2  3  1  0
  3  4  1  0
  5  4  1  0
  5  9  1  0
  6  5  2  0
  7  2  1  0
  7  8  2  0
 10  7  1  0
 11 10  1  0
 11 12  1  0
 12 20  1  0
 13 12  2  0
 15 17  1  0
 15 14  1  0
 16 15  2  0
 18 17  1  0
 19 18  1  1
 19 21  1  0
 20 19  1  0
 21 23  2  0
 21 22  1  0
M  END
$$$$
