EGQ.pdb
     RDKit          3D

 23 22  0  0  1  0  0  0  0  0999 V2000
   18.8223  -12.5685  -16.8417 N   0  0  0  0  0  0  0  0  0  0  0  0
   17.7848  -11.7549  -16.2955 C   0  0  1  0  0  0  0  0  0  0  0  0
   16.5041  -12.4386  -15.9729 C   0  0  0  0  0  0  0  0  0  0  0  0
   16.1583  -13.6626  -16.7169 C   0  0  0  0  0  0  0  0  0  0  0  0
   16.1277  -14.9184  -15.9801 C   0  0  0  0  0  0  0  0  0  0  0  0
   16.2067  -16.0231  -16.5347 O   0  0  0  0  0  0  0  0  0  0  0  0
   18.2416  -11.0824  -15.0478 C   0  0  0  0  0  0  0  0  0  0  0  0
   19.2918  -11.4454  -14.4834 O   0  0  0  0  0  0  0  0  0  0  0  0
   16.0038  -14.8816  -14.5824 O   0  0  0  0  0  0  0  0  0  0  0  0
   17.4642  -10.0318  -14.5229 N   0  0  0  0  0  0  0  0  0  0  0  0
   17.8856   -9.3788  -13.3249 C   0  0  0  0  0  0  0  0  0  0  0  0
   16.9059   -8.2667  -13.0430 C   0  0  0  0  0  0  0  0  0  0  0  0
   16.0376   -7.9518  -13.8898 O   0  0  0  0  0  0  0  0  0  0  0  0
   14.8600   -7.1347   -7.4165 N   0  0  0  0  0  0  0  0  0  0  0  0
   14.3463   -6.0264   -8.1274 C   0  0  0  0  0  0  0  0  0  0  0  0
   13.6192   -5.1884   -7.4925 O   0  0  0  0  0  0  0  0  0  0  0  0
   14.6065   -5.7830   -9.5428 C   0  0  0  0  0  0  0  0  0  0  0  0
   15.5157   -6.7407  -10.1817 C   0  0  0  0  0  0  0  0  0  0  0  0
   15.9110   -6.5049  -11.6159 C   0  0  2  0  0  0  0  0  0  0  0  0
   16.9433   -7.5583  -11.8271 N   0  0  0  0  0  0  0  0  0  0  0  0
   16.5059   -5.1927  -11.8320 C   0  0  0  0  0  0  0  0  0  0  0  0
   15.7549   -4.0620  -12.1331 O   0  0  0  0  0  0  0  0  0  0  0  0
   17.7719   -5.0395  -11.7573 O   0  0  0  0  0  0  0  0  0  0  0  0
  2  1  1  1
  2  3  1  0
  3  4  1  0
  5  4  1  0
  5  9  1  0
  6  5  2  0
  7  2  1  0
  7  8  2  0
 10  7  1  0
 11 10  1  0
 11 12  1  0
 12 20  1  0
 13 12  2  0
 15 17  1  0
 15 14  1  0
 16 15  2  0
 18 17  1  0
 19 18  1  1
 19 21  1  0
 20 19  1  0
 21 23  2  0
 21 22  1  0
M  END
$$$$
