EGQ.pdb
     RDKit          3D

 23 22  0  0  1  0  0  0  0  0999 V2000
   21.0840   -8.7642  -15.4070 N   0  0  0  0  0  0  0  0  0  0  0  0
   20.9589   -8.4222  -14.0271 C   0  0  1  0  0  0  0  0  0  0  0  0
   21.0697   -6.9785  -13.6874 C   0  0  0  0  0  0  0  0  0  0  0  0
   20.4160   -5.9996  -14.5737 C   0  0  0  0  0  0  0  0  0  0  0  0
   20.5086   -4.5914  -14.2143 C   0  0  0  0  0  0  0  0  0  0  0  0
   19.9827   -3.6924  -14.8847 O   0  0  0  0  0  0  0  0  0  0  0  0
   19.6570   -8.8958  -13.4808 C   0  0  0  0  0  0  0  0  0  0  0  0
   18.8598   -9.5236  -14.2044 O   0  0  0  0  0  0  0  0  0  0  0  0
   21.2225   -4.2317  -13.0605 O   0  0  0  0  0  0  0  0  0  0  0  0
   19.3486   -8.6199  -12.1346 N   0  0  0  0  0  0  0  0  0  0  0  0
   18.1463   -9.1434  -11.5693 C   0  0  0  0  0  0  0  0  0  0  0  0
   17.3854   -7.9888  -10.9661 C   0  0  0  0  0  0  0  0  0  0  0  0
   17.7648   -6.8089  -11.1510 O   0  0  0  0  0  0  0  0  0  0  0  0
   11.7356   -8.7436   -8.3060 N   0  0  0  0  0  0  0  0  0  0  0  0
   12.0486   -7.3939   -8.0272 C   0  0  0  0  0  0  0  0  0  0  0  0
   11.2113   -6.7102   -7.3448 O   0  0  0  0  0  0  0  0  0  0  0  0
   13.2771   -6.7411   -8.4690 C   0  0  0  0  0  0  0  0  0  0  0  0
   14.2362   -7.6170   -9.1509 C   0  0  0  0  0  0  0  0  0  0  0  0
   15.5022   -7.0071   -9.6931 C   0  0  2  0  0  0  0  0  0  0  0  0
   16.2357   -8.2076  -10.1840 N   0  0  0  0  0  0  0  0  0  0  0  0
   16.2947   -6.3401   -8.6686 C   0  0  0  0  0  0  0  0  0  0  0  0
   16.1434   -4.9947   -8.3519 O   0  0  0  0  0  0  0  0  0  0  0  0
   17.1829   -6.9880   -8.0182 O   0  0  0  0  0  0  0  0  0  0  0  0
  2  1  1  6
  2  3  1  0
  3  4  1  0
  5  4  1  0
  5  9  1  0
  6  5  2  0
  7  2  1  0
  7  8  2  0
 10  7  1  0
 11 10  1  0
 11 12  1  0
 12 20  1  0
 13 12  2  0
 15 17  1  0
 15 14  1  0
 16 15  2  0
 18 17  1  0
 19 18  1  1
 19 21  1  0
 20 19  1  0
 21 23  2  0
 21 22  1  0
M  END
$$$$
