EGQ.pdb
     RDKit          3D

 23 22  0  0  1  0  0  0  0  0999 V2000
   22.4398  -20.1609  -11.1382 N   0  0  0  0  0  0  0  0  0  0  0  0
   23.1179  -19.7575  -12.3273 C   0  0  1  0  0  0  0  0  0  0  0  0
   24.5679  -20.0783  -12.4070 C   0  0  0  0  0  0  0  0  0  0  0  0
   25.2763  -20.4264  -11.1628 C   0  0  0  0  0  0  0  0  0  0  0  0
   26.1668  -21.5784  -11.1888 C   0  0  0  0  0  0  0  0  0  0  0  0
   26.9399  -21.8070  -12.1293 O   0  0  0  0  0  0  0  0  0  0  0  0
   22.4764  -20.3557  -13.5308 C   0  0  0  0  0  0  0  0  0  0  0  0
   21.9731  -21.4946  -13.4773 O   0  0  0  0  0  0  0  0  0  0  0  0
   26.1532  -22.4706  -10.1053 O   0  0  0  0  0  0  0  0  0  0  0  0
   22.4512  -19.6091  -14.7247 N   0  0  0  0  0  0  0  0  0  0  0  0
   22.2154  -20.2772  -15.9645 C   0  0  0  0  0  0  0  0  0  0  0  0
   23.5419  -20.4095  -16.6708 C   0  0  0  0  0  0  0  0  0  0  0  0
   23.6777  -21.2059  -17.6288 O   0  0  0  0  0  0  0  0  0  0  0  0
   27.6465  -15.8184  -16.8942 N   0  0  0  0  0  0  0  0  0  0  0  0
   28.3555  -16.8828  -17.4956 C   0  0  0  0  0  0  0  0  0  0  0  0
   29.5123  -16.6374  -17.9811 O   0  0  0  0  0  0  0  0  0  0  0  0
   27.8429  -18.2464  -17.5859 C   0  0  0  0  0  0  0  0  0  0  0  0
   26.5071  -18.4478  -17.0139 C   0  0  0  0  0  0  0  0  0  0  0  0
   25.9237  -19.8364  -17.0298 C   0  0  2  0  0  0  0  0  0  0  0  0
   24.6548  -19.6451  -16.2726 N   0  0  0  0  0  0  0  0  0  0  0  0
   26.7584  -20.8104  -16.3392 C   0  0  0  0  0  0  0  0  0  0  0  0
   27.6502  -21.6469  -17.0011 O   0  0  0  0  0  0  0  0  0  0  0  0
   26.6876  -20.9340  -15.0697 O   0  0  0  0  0  0  0  0  0  0  0  0
  2  1  1  1
  2  3  1  0
  3  4  1  0
  5  4  1  0
  5  9  1  0
  6  5  2  0
  7  2  1  0
  7  8  2  0
 10  7  1  0
 11 10  1  0
 11 12  1  0
 12 20  1  0
 13 12  2  0
 15 17  1  0
 15 14  1  0
 16 15  2  0
 18 17  1  0
 19 18  1  1
 19 21  1  0
 20 19  1  0
 21 23  2  0
 21 22  1  0
M  END
$$$$
