EGQ.pdb
     RDKit          3D

 23 22  0  0  1  0  0  0  0  0999 V2000
   16.1045   -9.3574   -9.8135 N   0  0  0  0  0  0  0  0  0  0  0  0
   15.1401   -9.7780  -10.7778 C   0  0  1  0  0  0  0  0  0  0  0  0
   13.8686   -9.0081  -10.8258 C   0  0  0  0  0  0  0  0  0  0  0  0
   12.8970   -9.1942   -9.7338 C   0  0  0  0  0  0  0  0  0  0  0  0
   12.1215  -10.4268   -9.7185 C   0  0  0  0  0  0  0  0  0  0  0  0
   11.4208  -10.7661   -8.7551 O   0  0  0  0  0  0  0  0  0  0  0  0
   15.7163   -9.7463  -12.1506 C   0  0  0  0  0  0  0  0  0  0  0  0
   15.0426  -10.1288  -13.1269 O   0  0  0  0  0  0  0  0  0  0  0  0
   12.1660  -11.2697  -10.8400 O   0  0  0  0  0  0  0  0  0  0  0  0
   17.0330   -9.2761  -12.3202 N   0  0  0  0  0  0  0  0  0  0  0  0
   17.6134   -9.2717  -13.6249 C   0  0  0  0  0  0  0  0  0  0  0  0
   19.0179   -8.7361  -13.4975 C   0  0  0  0  0  0  0  0  0  0  0  0
   19.4113   -8.2270  -12.4221 O   0  0  0  0  0  0  0  0  0  0  0  0
   24.5849  -10.4424  -15.3172 N   0  0  0  0  0  0  0  0  0  0  0  0
   23.3582  -11.1435  -15.2840 C   0  0  0  0  0  0  0  0  0  0  0  0
   23.3956  -12.4190  -15.2067 O   0  0  0  0  0  0  0  0  0  0  0  0
   22.0531  -10.4913  -15.3257 C   0  0  0  0  0  0  0  0  0  0  0  0
   22.0915   -9.0257  -15.3743 C   0  0  0  0  0  0  0  0  0  0  0  0
   21.2885   -8.2547  -14.3597 C   0  0  2  0  0  0  0  0  0  0  0  0
   19.9172   -8.7945  -14.5789 N   0  0  0  0  0  0  0  0  0  0  0  0
   21.2897   -6.8191  -14.6073 C   0  0  0  0  0  0  0  0  0  0  0  0
   22.1434   -5.9391  -13.9515 O   0  0  0  0  0  0  0  0  0  0  0  0
   20.4778   -6.3107  -15.4525 O   0  0  0  0  0  0  0  0  0  0  0  0
  2  1  1  1
  2  3  1  0
  3  4  1  0
  5  4  1  0
  5  9  1  0
  6  5  2  0
  7  2  1  0
  7  8  2  0
 10  7  1  0
 11 10  1  0
 11 12  1  0
 12 20  1  0
 13 12  2  0
 15 17  1  0
 15 14  1  0
 16 15  2  0
 18 17  1  0
 19 18  1  6
 19 21  1  0
 20 19  1  0
 21 23  2  0
 21 22  1  0
M  END
$$$$
