EGQ.pdb
     RDKit          3D

 23 22  0  0  1  0  0  0  0  0999 V2000
   16.5907  -13.9826  -16.6227 N   0  0  0  0  0  0  0  0  0  0  0  0
   15.9241  -13.8811  -15.3649 C   0  0  1  0  0  0  0  0  0  0  0  0
   16.3354  -14.8503  -14.3145 C   0  0  0  0  0  0  0  0  0  0  0  0
   16.0968  -16.2844  -14.5545 C   0  0  0  0  0  0  0  0  0  0  0  0
   14.7607  -16.8024  -14.2950 C   0  0  0  0  0  0  0  0  0  0  0  0
   13.9805  -17.1280  -15.2003 O   0  0  0  0  0  0  0  0  0  0  0  0
   16.0920  -12.5195  -14.7857 C   0  0  0  0  0  0  0  0  0  0  0  0
   15.5452  -12.2210  -13.7063 O   0  0  0  0  0  0  0  0  0  0  0  0
   14.3336  -16.9409  -12.9651 O   0  0  0  0  0  0  0  0  0  0  0  0
   16.8789  -11.5815  -15.4816 N   0  0  0  0  0  0  0  0  0  0  0  0
   17.0601  -10.2749  -14.9345 C   0  0  0  0  0  0  0  0  0  0  0  0
   18.4425   -9.8078  -15.3173 C   0  0  0  0  0  0  0  0  0  0  0  0
   19.2611  -10.5994  -15.8405 O   0  0  0  0  0  0  0  0  0  0  0  0
   19.2292   -5.0441  -18.5741 N   0  0  0  0  0  0  0  0  0  0  0  0
   20.5714   -5.2794  -18.1992 C   0  0  0  0  0  0  0  0  0  0  0  0
   21.4835   -4.5750  -18.7526 O   0  0  0  0  0  0  0  0  0  0  0  0
   20.9718   -6.2761  -17.2109 C   0  0  0  0  0  0  0  0  0  0  0  0
   19.8677   -7.0224  -16.5978 C   0  0  0  0  0  0  0  0  0  0  0  0
   20.1984   -8.0819  -15.5796 C   0  0  2  0  0  0  0  0  0  0  0  0
   18.8453   -8.4771  -15.0970 N   0  0  0  0  0  0  0  0  0  0  0  0
   20.9813   -7.5705  -14.4625 C   0  0  0  0  0  0  0  0  0  0  0  0
   20.4058   -7.1076  -13.2845 O   0  0  0  0  0  0  0  0  0  0  0  0
   22.2557   -7.5233  -14.5376 O   0  0  0  0  0  0  0  0  0  0  0  0
  2  1  1  6
  2  3  1  0
  3  4  1  0
  5  4  1  0
  5  9  1  0
  6  5  2  0
  7  2  1  0
  7  8  2  0
 10  7  1  0
 11 10  1  0
 11 12  1  0
 12 20  1  0
 13 12  2  0
 15 17  1  0
 15 14  1  0
 16 15  2  0
 18 17  1  0
 19 18  1  6
 19 21  1  0
 20 19  1  0
 21 23  2  0
 21 22  1  0
M  END
$$$$
