EGQ.pdb
     RDKit          3D

 23 22  0  0  1  0  0  0  0  0999 V2000
   21.0020  -20.9024  -15.9438 N   0  0  0  0  0  0  0  0  0  0  0  0
   22.2239  -20.7215  -15.2291 C   0  0  1  0  0  0  0  0  0  0  0  0
   22.9500  -19.4454  -15.4662 C   0  0  0  0  0  0  0  0  0  0  0  0
   22.1614  -18.2098  -15.6164 C   0  0  0  0  0  0  0  0  0  0  0  0
   22.5720  -17.2637  -16.6445 C   0  0  0  0  0  0  0  0  0  0  0  0
   23.6349  -17.3739  -17.2710 O   0  0  0  0  0  0  0  0  0  0  0  0
   21.9978  -20.8233  -13.7607 C   0  0  0  0  0  0  0  0  0  0  0  0
   22.9532  -20.7235  -12.9666 O   0  0  0  0  0  0  0  0  0  0  0  0
   21.7320  -16.1794  -16.9427 O   0  0  0  0  0  0  0  0  0  0  0  0
   20.6866  -21.0336  -13.2919 N   0  0  0  0  0  0  0  0  0  0  0  0
   20.4496  -21.1175  -11.8862 C   0  0  0  0  0  0  0  0  0  0  0  0
   19.2989  -22.0697  -11.6737 C   0  0  0  0  0  0  0  0  0  0  0  0
   18.5602  -22.4008  -12.6303 O   0  0  0  0  0  0  0  0  0  0  0  0
   18.5743  -24.9936   -6.2221 N   0  0  0  0  0  0  0  0  0  0  0  0
   19.0527  -25.7184   -7.3371 C   0  0  0  0  0  0  0  0  0  0  0  0
   19.7101  -26.7930   -7.1196 O   0  0  0  0  0  0  0  0  0  0  0  0
   18.8313  -25.3116   -8.7212 C   0  0  0  0  0  0  0  0  0  0  0  0
   18.0497  -24.0817   -8.8904 C   0  0  0  0  0  0  0  0  0  0  0  0
   17.8682  -23.5350  -10.2821 C   0  0  2  0  0  0  0  0  0  0  0  0
   19.0277  -22.6069  -10.4012 N   0  0  0  0  0  0  0  0  0  0  0  0
   16.6290  -22.7854  -10.4401 C   0  0  0  0  0  0  0  0  0  0  0  0
   15.4325  -23.3757  -10.8316 O   0  0  0  0  0  0  0  0  0  0  0  0
   16.6062  -21.5264  -10.2253 O   0  0  0  0  0  0  0  0  0  0  0  0
  2  1  1  6
  2  3  1  0
  3  4  1  0
  5  4  1  0
  5  9  1  0
  6  5  2  0
  7  2  1  0
  7  8  2  0
 10  7  1  0
 11 10  1  0
 11 12  1  0
 12 20  1  0
 13 12  2  0
 15 17  1  0
 15 14  1  0
 16 15  2  0
 18 17  1  0
 19 18  1  1
 19 21  1  0
 20 19  1  0
 21 23  2  0
 21 22  1  0
M  END
$$$$
