EGQ.pdb
     RDKit          3D

 23 22  0  0  1  0  0  0  0  0999 V2000
   15.2991  -13.4612  -16.2676 N   0  0  0  0  0  0  0  0  0  0  0  0
   16.4767  -13.0485  -15.5750 C   0  0  1  0  0  0  0  0  0  0  0  0
   17.4370  -14.1202  -15.1995 C   0  0  0  0  0  0  0  0  0  0  0  0
   16.9608  -15.2138  -14.3343 C   0  0  0  0  0  0  0  0  0  0  0  0
   17.9296  -16.2160  -13.9127 C   0  0  0  0  0  0  0  0  0  0  0  0
   19.1195  -16.1842  -14.2556 O   0  0  0  0  0  0  0  0  0  0  0  0
   17.2370  -12.0480  -16.3741 C   0  0  0  0  0  0  0  0  0  0  0  0
   17.2088  -12.0820  -17.6196 O   0  0  0  0  0  0  0  0  0  0  0  0
   17.5030  -17.2645  -13.0826 O   0  0  0  0  0  0  0  0  0  0  0  0
   17.9846  -11.0671  -15.6941 N   0  0  0  0  0  0  0  0  0  0  0  0
   18.7063  -10.0901  -16.4449 C   0  0  0  0  0  0  0  0  0  0  0  0
   19.2352   -9.0661  -15.4713 C   0  0  0  0  0  0  0  0  0  0  0  0
   18.9763   -9.1554  -14.2485 O   0  0  0  0  0  0  0  0  0  0  0  0
   24.3912   -5.9156  -16.7059 N   0  0  0  0  0  0  0  0  0  0  0  0
   24.0290   -5.4229  -15.4317 C   0  0  0  0  0  0  0  0  0  0  0  0
   24.8318   -4.6181  -14.8470 O   0  0  0  0  0  0  0  0  0  0  0  0
   22.7870   -5.7764  -14.7514 C   0  0  0  0  0  0  0  0  0  0  0  0
   21.9359   -6.7326  -15.4679 C   0  0  0  0  0  0  0  0  0  0  0  0
   20.6006   -7.0902  -14.8698 C   0  0  2  0  0  0  0  0  0  0  0  0
   20.0287   -7.9897  -15.9108 N   0  0  0  0  0  0  0  0  0  0  0  0
   19.7296   -5.9355  -14.6952 C   0  0  0  0  0  0  0  0  0  0  0  0
   19.6411   -5.2285  -13.5012 O   0  0  0  0  0  0  0  0  0  0  0  0
   18.9945   -5.5319  -15.6587 O   0  0  0  0  0  0  0  0  0  0  0  0
  2  1  1  6
  2  3  1  0
  3  4  1  0
  5  4  1  0
  5  9  1  0
  6  5  2  0
  7  2  1  0
  7  8  2  0
 10  7  1  0
 11 10  1  0
 11 12  1  0
 12 20  1  0
 13 12  2  0
 15 17  1  0
 15 14  1  0
 16 15  2  0
 18 17  1  0
 19 18  1  6
 19 21  1  0
 20 19  1  0
 21 23  2  0
 21 22  1  0
M  END
$$$$
