EGQ.pdb
     RDKit          3D

 23 22  0  0  1  0  0  0  0  0999 V2000
   26.0007  -21.5093  -11.7343 N   0  0  0  0  0  0  0  0  0  0  0  0
   25.9930  -21.0289  -13.0781 C   0  0  1  0  0  0  0  0  0  0  0  0
   26.0735  -22.0553  -14.1514 C   0  0  0  0  0  0  0  0  0  0  0  0
   27.1935  -21.9821  -15.1061 C   0  0  0  0  0  0  0  0  0  0  0  0
   26.8824  -21.6693  -16.4939 C   0  0  0  0  0  0  0  0  0  0  0  0
   25.7233  -21.5159  -16.9030 O   0  0  0  0  0  0  0  0  0  0  0  0
   24.7706  -20.2210  -13.3440 C   0  0  0  0  0  0  0  0  0  0  0  0
   23.8949  -20.0940  -12.4663 O   0  0  0  0  0  0  0  0  0  0  0  0
   27.9362  -21.5346  -17.4113 O   0  0  0  0  0  0  0  0  0  0  0  0
   24.6273  -19.6065  -14.6030 N   0  0  0  0  0  0  0  0  0  0  0  0
   23.5398  -18.7080  -14.8249 C   0  0  0  0  0  0  0  0  0  0  0  0
   22.2940  -19.5376  -15.0142 C   0  0  0  0  0  0  0  0  0  0  0  0
   22.3665  -20.7854  -15.1052 O   0  0  0  0  0  0  0  0  0  0  0  0
   19.5046  -22.5522  -13.1308 N   0  0  0  0  0  0  0  0  0  0  0  0
   18.2224  -21.9945  -13.3368 C   0  0  0  0  0  0  0  0  0  0  0  0
   17.2042  -22.7510  -13.1784 O   0  0  0  0  0  0  0  0  0  0  0  0
   17.9975  -20.6022  -13.7129 C   0  0  0  0  0  0  0  0  0  0  0  0
   19.2145  -19.8109  -13.9249 C   0  0  0  0  0  0  0  0  0  0  0  0
   19.8507  -19.8285  -15.2901 C   0  0  2  0  0  0  0  0  0  0  0  0
   21.0252  -18.9331  -15.0931 N   0  0  0  0  0  0  0  0  0  0  0  0
   18.9878  -19.2756  -16.3254 C   0  0  0  0  0  0  0  0  0  0  0  0
   18.0937  -20.0488  -17.0575 O   0  0  0  0  0  0  0  0  0  0  0  0
   19.0341  -18.0300  -16.6048 O   0  0  0  0  0  0  0  0  0  0  0  0
  2  1  1  1
  2  3  1  0
  3  4  1  0
  5  4  1  0
  5  9  1  0
  6  5  2  0
  7  2  1  0
  7  8  2  0
 10  7  1  0
 11 10  1  0
 11 12  1  0
 12 20  1  0
 13 12  2  0
 15 17  1  0
 15 14  1  0
 16 15  2  0
 18 17  1  0
 19 18  1  1
 19 21  1  0
 20 19  1  0
 21 23  2  0
 21 22  1  0
M  END
$$$$
