EGQ.pdb
     RDKit          3D

 23 22  0  0  1  0  0  0  0  0999 V2000
   24.1672  -22.4297  -16.4061 N   0  0  0  0  0  0  0  0  0  0  0  0
   25.0475  -21.3946  -16.8423 C   0  0  1  0  0  0  0  0  0  0  0  0
   24.4139  -20.2010  -17.4632 C   0  0  0  0  0  0  0  0  0  0  0  0
   23.1362  -19.7198  -16.9089 C   0  0  0  0  0  0  0  0  0  0  0  0
   21.9555  -19.8000  -17.7576 C   0  0  0  0  0  0  0  0  0  0  0  0
   20.8892  -20.3024  -17.3770 O   0  0  0  0  0  0  0  0  0  0  0  0
   25.8843  -20.9013  -15.7135 C   0  0  0  0  0  0  0  0  0  0  0  0
   26.4002  -19.7677  -15.7587 O   0  0  0  0  0  0  0  0  0  0  0  0
   22.0226  -19.2880  -19.0628 O   0  0  0  0  0  0  0  0  0  0  0  0
   26.0782  -21.7403  -14.5992 N   0  0  0  0  0  0  0  0  0  0  0  0
   26.8031  -21.2505  -13.4705 C   0  0  0  0  0  0  0  0  0  0  0  0
   25.9415  -21.4588  -12.2497 C   0  0  0  0  0  0  0  0  0  0  0  0
   25.0126  -22.2998  -12.2607 O   0  0  0  0  0  0  0  0  0  0  0  0
   27.4822  -18.6026   -6.9892 N   0  0  0  0  0  0  0  0  0  0  0  0
   27.5336  -20.0128   -6.9113 C   0  0  0  0  0  0  0  0  0  0  0  0
   28.2633  -20.5394   -6.0034 O   0  0  0  0  0  0  0  0  0  0  0  0
   26.7946  -20.8992   -7.8049 C   0  0  0  0  0  0  0  0  0  0  0  0
   25.9664  -20.2212   -8.8083 C   0  0  0  0  0  0  0  0  0  0  0  0
   25.3237  -21.0536   -9.8866 C   0  0  2  0  0  0  0  0  0  0  0  0
   26.1589  -20.7167  -11.0735 N   0  0  0  0  0  0  0  0  0  0  0  0
   23.9401  -20.6775  -10.1447 C   0  0  0  0  0  0  0  0  0  0  0  0
   22.8610  -21.2801   -9.5078 O   0  0  0  0  0  0  0  0  0  0  0  0
   23.6693  -19.7625  -10.9940 O   0  0  0  0  0  0  0  0  0  0  0  0
  2  1  1  1
  2  3  1  0
  3  4  1  0
  5  4  1  0
  5  9  1  0
  6  5  2  0
  7  2  1  0
  7  8  2  0
 10  7  1  0
 11 10  1  0
 11 12  1  0
 12 20  1  0
 13 12  2  0
 15 17  1  0
 15 14  1  0
 16 15  2  0
 18 17  1  0
 19 18  1  1
 19 21  1  0
 20 19  1  0
 21 23  2  0
 21 22  1  0
M  END
$$$$
