EGQ.pdb
     RDKit          3D

 23 22  0  0  1  0  0  0  0  0999 V2000
   20.4516  -13.0636  -17.9300 N   0  0  0  0  0  0  0  0  0  0  0  0
   19.8466  -12.0501  -17.1279 C   0  0  1  0  0  0  0  0  0  0  0  0
   18.8366  -12.5030  -16.1347 C   0  0  0  0  0  0  0  0  0  0  0  0
   17.5039  -12.8985  -16.6235 C   0  0  0  0  0  0  0  0  0  0  0  0
   16.5045  -11.8524  -16.7896 C   0  0  0  0  0  0  0  0  0  0  0  0
   16.6975  -10.8450  -17.4842 O   0  0  0  0  0  0  0  0  0  0  0  0
   20.8789  -11.2845  -16.3756 C   0  0  0  0  0  0  0  0  0  0  0  0
   21.9977  -11.7858  -16.1514 O   0  0  0  0  0  0  0  0  0  0  0  0
   15.2685  -11.9857  -16.1378 O   0  0  0  0  0  0  0  0  0  0  0  0
   20.5642   -9.9876  -15.9259 N   0  0  0  0  0  0  0  0  0  0  0  0
   21.5566   -9.2231  -15.2405 C   0  0  0  0  0  0  0  0  0  0  0  0
   20.9551   -7.8771  -14.9205 C   0  0  0  0  0  0  0  0  0  0  0  0
   19.9970   -7.4304  -15.5936 O   0  0  0  0  0  0  0  0  0  0  0  0
   18.4701   -6.7045   -9.9950 N   0  0  0  0  0  0  0  0  0  0  0  0
   18.3755   -5.4328  -10.6044 C   0  0  0  0  0  0  0  0  0  0  0  0
   17.6200   -4.5581  -10.0583 O   0  0  0  0  0  0  0  0  0  0  0  0
   19.0980   -5.0620  -11.8173 C   0  0  0  0  0  0  0  0  0  0  0  0
   19.9534   -6.1138  -12.3777 C   0  0  0  0  0  0  0  0  0  0  0  0
   20.7774   -5.7922  -13.5969 C   0  0  2  0  0  0  0  0  0  0  0  0
   21.4532   -7.0931  -13.8628 N   0  0  0  0  0  0  0  0  0  0  0  0
   21.7813   -4.7661  -13.3486 C   0  0  0  0  0  0  0  0  0  0  0  0
   23.1247   -5.0572  -13.1392 O   0  0  0  0  0  0  0  0  0  0  0  0
   21.4462   -3.5342  -13.3066 O   0  0  0  0  0  0  0  0  0  0  0  0
  2  1  1  1
  2  3  1  0
  3  4  1  0
  5  4  1  0
  5  9  1  0
  6  5  2  0
  7  2  1  0
  7  8  2  0
 10  7  1  0
 11 10  1  0
 11 12  1  0
 12 20  1  0
 13 12  2  0
 15 17  1  0
 15 14  1  0
 16 15  2  0
 18 17  1  0
 19 18  1  1
 19 21  1  0
 20 19  1  0
 21 23  2  0
 21 22  1  0
M  END
$$$$
