EGQ.pdb
     RDKit          3D

 23 22  0  0  1  0  0  0  0  0999 V2000
   17.9111  -14.0808  -15.4940 N   0  0  0  0  0  0  0  0  0  0  0  0
   17.4457  -13.7242  -16.7952 C   0  0  1  0  0  0  0  0  0  0  0  0
   16.0120  -13.9929  -17.0850 C   0  0  0  0  0  0  0  0  0  0  0  0
   15.5096  -15.3674  -16.9130 C   0  0  0  0  0  0  0  0  0  0  0  0
   14.0979  -15.6112  -17.1741 C   0  0  0  0  0  0  0  0  0  0  0  0
   13.6765  -15.9995  -18.2723 O   0  0  0  0  0  0  0  0  0  0  0  0
   17.6763  -12.2772  -17.0612 C   0  0  0  0  0  0  0  0  0  0  0  0
   17.6566  -11.8391  -18.2278 O   0  0  0  0  0  0  0  0  0  0  0  0
   13.1709  -15.3992  -16.1417 O   0  0  0  0  0  0  0  0  0  0  0  0
   17.9156  -11.4193  -15.9703 N   0  0  0  0  0  0  0  0  0  0  0  0
   18.1130  -10.0247  -16.2053 C   0  0  0  0  0  0  0  0  0  0  0  0
   19.2966   -9.5860  -15.3791 C   0  0  0  0  0  0  0  0  0  0  0  0
   19.8209  -10.3669  -14.5510 O   0  0  0  0  0  0  0  0  0  0  0  0
   22.0588   -3.9799  -16.1263 N   0  0  0  0  0  0  0  0  0  0  0  0
   22.6399   -4.4748  -14.9369 C   0  0  0  0  0  0  0  0  0  0  0  0
   23.4650   -3.7243  -14.3123 O   0  0  0  0  0  0  0  0  0  0  0  0
   22.3444   -5.7911  -14.3797 C   0  0  0  0  0  0  0  0  0  0  0  0
   21.3651   -6.5804  -15.1348 C   0  0  0  0  0  0  0  0  0  0  0  0
   20.9003   -7.8899  -14.5534 C   0  0  2  0  0  0  0  0  0  0  0  0
   19.8386   -8.2943  -15.5174 N   0  0  0  0  0  0  0  0  0  0  0  0
   20.3198   -7.7466  -13.2249 C   0  0  0  0  0  0  0  0  0  0  0  0
   18.9899   -7.4000  -13.0139 O   0  0  0  0  0  0  0  0  0  0  0  0
   21.0380   -7.9323  -12.1850 O   0  0  0  0  0  0  0  0  0  0  0  0
  2  1  1  1
  2  3  1  0
  3  4  1  0
  5  4  1  0
  5  9  1  0
  6  5  2  0
  7  2  1  0
  7  8  2  0
 10  7  1  0
 11 10  1  0
 11 12  1  0
 12 20  1  0
 13 12  2  0
 15 17  1  0
 15 14  1  0
 16 15  2  0
 18 17  1  0
 19 18  1  6
 19 21  1  0
 20 19  1  0
 21 23  2  0
 21 22  1  0
M  END
$$$$
