IGN.pdb
     RDKit          3D

 21 20  0  0  1  0  0  0  0  0999 V2000
   25.7904  -33.9499  -12.9187 C   0  0  0  0  0  0  0  0  0  0  0  0
   25.7454  -32.9778  -11.7906 C   0  0  0  0  0  0  0  0  0  0  0  0
   24.9849  -33.4637  -10.5741 C   0  0  2  0  0  0  0  0  0  0  0  0
   23.5604  -33.7291  -11.0807 C   0  0  0  0  0  0  0  0  0  0  0  0
   25.0236  -32.4720   -9.4534 C   0  0  2  0  0  0  0  0  0  0  0  0
   26.4130  -32.3420   -8.9844 N   0  0  0  0  0  0  0  0  0  0  0  0
   24.2058  -32.8512   -8.2899 C   0  0  0  0  0  0  0  0  0  0  0  0
   22.9350  -32.9796   -8.4171 O   0  0  0  0  0  0  0  0  0  0  0  0
   24.6755  -33.1060   -6.9840 N   0  0  0  0  0  0  0  0  0  0  0  0
   23.8713  -33.6710   -5.9329 C   0  0  0  0  0  0  0  0  0  0  0  0
   24.5990  -33.8805   -4.6821 C   0  0  0  0  0  0  0  0  0  0  0  0
   25.8000  -33.5304   -4.6065 O   0  0  0  0  0  0  0  0  0  0  0  0
   21.8509  -33.8015    0.0172 N   0  0  0  0  0  0  0  0  0  0  0  0
   23.1729  -33.7961   -0.5350 C   0  0  0  0  0  0  0  0  0  0  0  0
   23.8354  -32.7114   -0.3809 O   0  0  0  0  0  0  0  0  0  0  0  0
   23.7248  -34.9742   -1.2341 C   0  0  0  0  0  0  0  0  0  0  0  0
   24.7493  -34.6560   -2.2880 C   0  0  2  0  0  0  0  0  0  0  0  0
   24.0046  -34.4658   -3.5425 N   0  0  0  0  0  0  0  0  0  0  0  0
   25.7270  -35.7376   -2.4107 C   0  0  0  0  0  0  0  0  0  0  0  0
   25.6720  -36.6882   -3.4111 O   0  0  0  0  0  0  0  0  0  0  0  0
   26.6587  -35.8109   -1.5705 O   0  0  0  0  0  0  0  0  0  0  0  0
  1  2  1  0
  2  3  1  0
  3  4  1  6
  5  7  1  0
  5  3  1  0
  5  6  1  1
  7  8  2  0
  7  9  1  0
  9 10  1  0
 10 11  1  0
 11 12  2  0
 13 14  1  0
 14 15  2  0
 16 14  1  0
 17 16  1  1
 17 19  1  0
 18 11  1  0
 18 17  1  0
 19 21  2  0
 19 20  1  0
M  END
$$$$
