IGN.pdb
     RDKit          3D

 21 20  0  0  1  0  0  0  0  0999 V2000
   19.7216  -15.5058  -22.1519 C   0  0  0  0  0  0  0  0  0  0  0  0
   19.4834  -14.9278  -20.7995 C   0  0  0  0  0  0  0  0  0  0  0  0
   20.3978  -13.7750  -20.4404 C   0  0  2  0  0  0  0  0  0  0  0  0
   21.7932  -14.4027  -20.3185 C   0  0  0  0  0  0  0  0  0  0  0  0
   19.9644  -13.0831  -19.1856 C   0  0  2  0  0  0  0  0  0  0  0  0
   18.6963  -12.3821  -19.4455 N   0  0  0  0  0  0  0  0  0  0  0  0
   20.9226  -12.0802  -18.6934 C   0  0  0  0  0  0  0  0  0  0  0  0
   22.0699  -12.4538  -18.2556 O   0  0  0  0  0  0  0  0  0  0  0  0
   20.7220  -10.6843  -18.6446 N   0  0  0  0  0  0  0  0  0  0  0  0
   21.6766   -9.7499  -18.1093 C   0  0  0  0  0  0  0  0  0  0  0  0
   21.1017   -8.8002  -17.1578 C   0  0  0  0  0  0  0  0  0  0  0  0
   19.8578   -8.7587  -17.0100 O   0  0  0  0  0  0  0  0  0  0  0  0
   20.6068   -4.9306  -13.5600 N   0  0  0  0  0  0  0  0  0  0  0  0
   21.9832   -5.2927  -13.7251 C   0  0  0  0  0  0  0  0  0  0  0  0
   22.8162   -4.6650  -12.9825 O   0  0  0  0  0  0  0  0  0  0  0  0
   22.4009   -6.3269  -14.6932 C   0  0  0  0  0  0  0  0  0  0  0  0
   21.2935   -6.8597  -15.5598 C   0  0  2  0  0  0  0  0  0  0  0  0
   21.8919   -7.9176  -16.3890 N   0  0  0  0  0  0  0  0  0  0  0  0
   20.7200   -5.7982  -16.3875 C   0  0  0  0  0  0  0  0  0  0  0  0
   21.2928   -5.3789  -17.5722 O   0  0  0  0  0  0  0  0  0  0  0  0
   19.6609   -5.2386  -16.0075 O   0  0  0  0  0  0  0  0  0  0  0  0
  1  2  1  0
  2  3  1  0
  3  4  1  1
  5  7  1  0
  5  3  1  0
  5  6  1  6
  7  8  2  0
  7  9  1  0
  9 10  1  0
 10 11  1  0
 11 12  2  0
 13 14  1  0
 14 15  2  0
 16 14  1  0
 17 16  1  1
 17 19  1  0
 18 11  1  0
 18 17  1  0
 19 21  2  0
 19 20  1  0
M  END
$$$$
