IGN.pdb
     RDKit          3D

 21 20  0  0  1  0  0  0  0  0999 V2000
   22.4420  -31.7633   -8.3392 C   0  0  0  0  0  0  0  0  0  0  0  0
   23.8892  -31.8720   -8.6762 C   0  0  0  0  0  0  0  0  0  0  0  0
   24.5749  -33.0974   -8.1084 C   0  0  2  0  0  0  0  0  0  0  0  0
   24.4115  -32.9704   -6.5874 C   0  0  0  0  0  0  0  0  0  0  0  0
   26.0087  -33.1855   -8.5296 C   0  0  2  0  0  0  0  0  0  0  0  0
   26.0749  -33.1245   -9.9990 N   0  0  0  0  0  0  0  0  0  0  0  0
   26.6791  -34.4286   -8.1155 C   0  0  0  0  0  0  0  0  0  0  0  0
   26.3551  -35.5425   -8.6650 O   0  0  0  0  0  0  0  0  0  0  0  0
   27.6892  -34.5491   -7.1377 N   0  0  0  0  0  0  0  0  0  0  0  0
   28.1743  -35.8048   -6.6288 C   0  0  0  0  0  0  0  0  0  0  0  0
   27.5841  -36.1885   -5.3472 C   0  0  0  0  0  0  0  0  0  0  0  0
   27.9704  -37.2404   -4.7858 O   0  0  0  0  0  0  0  0  0  0  0  0
   27.5856  -32.8922   -2.0948 N   0  0  0  0  0  0  0  0  0  0  0  0
   27.0326  -34.2007   -1.9085 C   0  0  0  0  0  0  0  0  0  0  0  0
   27.6726  -34.9656   -1.1056 O   0  0  0  0  0  0  0  0  0  0  0  0
   25.8014  -34.6272   -2.6037 C   0  0  0  0  0  0  0  0  0  0  0  0
   25.9541  -35.8592   -3.4524 C   0  0  2  0  0  0  0  0  0  0  0  0
   26.5879  -35.4202   -4.7056 N   0  0  0  0  0  0  0  0  0  0  0  0
   24.6557  -36.4843   -3.7056 C   0  0  0  0  0  0  0  0  0  0  0  0
   23.8565  -36.9877   -2.6979 O   0  0  0  0  0  0  0  0  0  0  0  0
   24.2455  -36.5715   -4.8903 O   0  0  0  0  0  0  0  0  0  0  0  0
  1  2  1  0
  2  3  1  0
  3  4  1  1
  5  7  1  0
  5  3  1  0
  5  6  1  6
  7  8  2  0
  7  9  1  0
  9 10  1  0
 10 11  1  0
 11 12  2  0
 13 14  1  0
 14 15  2  0
 16 14  1  0
 17 16  1  1
 17 19  1  0
 18 11  1  0
 18 17  1  0
 19 21  2  0
 19 20  1  0
M  END
$$$$
