IGN.pdb
     RDKit          3D

 21 20  0  0  1  0  0  0  0  0999 V2000
   14.5621  -14.3245  -18.6904 C   0  0  0  0  0  0  0  0  0  0  0  0
   15.8043  -14.3654  -17.8685 C   0  0  0  0  0  0  0  0  0  0  0  0
   16.6951  -13.1496  -18.0178 C   0  0  2  0  0  0  0  0  0  0  0  0
   17.0702  -13.1169  -19.5060 C   0  0  0  0  0  0  0  0  0  0  0  0
   17.8928  -13.2164  -17.1221 C   0  0  2  0  0  0  0  0  0  0  0  0
   17.4513  -13.0453  -15.7282 N   0  0  0  0  0  0  0  0  0  0  0  0
   18.8995  -12.1767  -17.3900 C   0  0  0  0  0  0  0  0  0  0  0  0
   19.7533  -12.3424  -18.3340 O   0  0  0  0  0  0  0  0  0  0  0  0
   19.0450  -10.9549  -16.6992 N   0  0  0  0  0  0  0  0  0  0  0  0
   19.9815   -9.9262  -17.0673 C   0  0  0  0  0  0  0  0  0  0  0  0
   19.9317   -8.7475  -16.2034 C   0  0  0  0  0  0  0  0  0  0  0  0
   18.8553   -8.4506  -15.6344 O   0  0  0  0  0  0  0  0  0  0  0  0
   21.9276   -6.6223  -11.5664 N   0  0  0  0  0  0  0  0  0  0  0  0
   22.3082   -6.2236  -12.8889 C   0  0  0  0  0  0  0  0  0  0  0  0
   22.7504   -5.0275  -13.0033 O   0  0  0  0  0  0  0  0  0  0  0  0
   22.1937   -7.1440  -14.0382 C   0  0  0  0  0  0  0  0  0  0  0  0
   21.0423   -6.8555  -14.9614 C   0  0  2  0  0  0  0  0  0  0  0  0
   21.0529   -7.9189  -15.9782 N   0  0  0  0  0  0  0  0  0  0  0  0
   21.1816   -5.5344  -15.5746 C   0  0  0  0  0  0  0  0  0  0  0  0
   20.5671   -4.4050  -15.0704 O   0  0  0  0  0  0  0  0  0  0  0  0
   21.8888   -5.4167  -16.6068 O   0  0  0  0  0  0  0  0  0  0  0  0
  1  2  1  0
  2  3  1  0
  3  4  1  6
  5  7  1  0
  5  3  1  0
  5  6  1  1
  7  8  2  0
  7  9  1  0
  9 10  1  0
 10 11  1  0
 11 12  2  0
 13 14  1  0
 14 15  2  0
 16 14  1  0
 17 16  1  1
 17 19  1  0
 18 11  1  0
 18 17  1  0
 19 21  2  0
 19 20  1  0
M  END
$$$$
