IGN.pdb
     RDKit          3D

 21 20  0  0  1  0  0  0  0  0999 V2000
   20.2619  -16.8734  -17.8434 C   0  0  0  0  0  0  0  0  0  0  0  0
   21.1518  -15.7499  -18.2509 C   0  0  0  0  0  0  0  0  0  0  0  0
   20.5933  -14.3717  -17.9631 C   0  0  2  0  0  0  0  0  0  0  0  0
   19.2443  -14.3331  -18.6945 C   0  0  0  0  0  0  0  0  0  0  0  0
   21.5219  -13.2846  -18.4071 C   0  0  2  0  0  0  0  0  0  0  0  0
   22.7471  -13.3473  -17.5933 N   0  0  0  0  0  0  0  0  0  0  0  0
   20.9702  -11.9282  -18.2584 C   0  0  0  0  0  0  0  0  0  0  0  0
   20.0107  -11.5422  -19.0185 O   0  0  0  0  0  0  0  0  0  0  0  0
   21.3897  -10.9511  -17.3309 N   0  0  0  0  0  0  0  0  0  0  0  0
   20.8224   -9.6320  -17.2360 C   0  0  0  0  0  0  0  0  0  0  0  0
   21.4597   -8.7878  -16.2266 C   0  0  0  0  0  0  0  0  0  0  0  0
   22.2415   -9.3091  -15.3973 O   0  0  0  0  0  0  0  0  0  0  0  0
   23.2218   -4.4861  -13.6614 N   0  0  0  0  0  0  0  0  0  0  0  0
   22.2578   -4.1199  -14.6560 C   0  0  0  0  0  0  0  0  0  0  0  0
   22.0081   -2.8679  -14.7538 O   0  0  0  0  0  0  0  0  0  0  0  0
   21.6021   -5.1320  -15.5085 C   0  0  0  0  0  0  0  0  0  0  0  0
   21.9104   -6.5573  -15.1413 C   0  0  2  0  0  0  0  0  0  0  0  0
   21.2325   -7.3965  -16.1419 N   0  0  0  0  0  0  0  0  0  0  0  0
   21.4423   -6.8622  -13.7890 C   0  0  0  0  0  0  0  0  0  0  0  0
   22.2607   -6.7926  -12.6787 O   0  0  0  0  0  0  0  0  0  0  0  0
   20.2444   -7.2049  -13.6250 O   0  0  0  0  0  0  0  0  0  0  0  0
  1  2  1  0
  2  3  1  0
  3  4  1  6
  5  7  1  0
  5  3  1  0
  5  6  1  1
  7  8  2  0
  7  9  1  0
  9 10  1  0
 10 11  1  0
 11 12  2  0
 13 14  1  0
 14 15  2  0
 16 14  1  0
 17 16  1  6
 17 19  1  0
 18 11  1  0
 18 17  1  0
 19 21  2  0
 19 20  1  0
M  END
$$$$
