IGN.pdb
     RDKit          3D

 21 20  0  0  1  0  0  0  0  0999 V2000
   18.3878  -13.0768  -19.2429 C   0  0  0  0  0  0  0  0  0  0  0  0
   17.9821  -13.0740  -17.8093 C   0  0  0  0  0  0  0  0  0  0  0  0
   18.3835  -11.8285  -17.0466 C   0  0  2  0  0  0  0  0  0  0  0  0
   19.9183  -11.8520  -17.0344 C   0  0  0  0  0  0  0  0  0  0  0  0
   17.7958  -11.7981  -15.6700 C   0  0  2  0  0  0  0  0  0  0  0  0
   16.3305  -11.7111  -15.7829 N   0  0  0  0  0  0  0  0  0  0  0  0
   18.2377  -10.6546  -14.8555 C   0  0  0  0  0  0  0  0  0  0  0  0
   19.4556  -10.5877  -14.4561 O   0  0  0  0  0  0  0  0  0  0  0  0
   17.4424   -9.5650  -14.4413 N   0  0  0  0  0  0  0  0  0  0  0  0
   17.9611   -8.3829  -13.8055 C   0  0  0  0  0  0  0  0  0  0  0  0
   17.5661   -7.1384  -14.4637 C   0  0  0  0  0  0  0  0  0  0  0  0
   17.3304   -7.1448  -15.6946 O   0  0  0  0  0  0  0  0  0  0  0  0
   15.5353   -2.3278  -15.2202 N   0  0  0  0  0  0  0  0  0  0  0  0
   15.2980   -2.8498  -13.9072 C   0  0  0  0  0  0  0  0  0  0  0  0
   14.4432   -2.2099  -13.2006 O   0  0  0  0  0  0  0  0  0  0  0  0
   16.0006   -4.0512  -13.4129 C   0  0  0  0  0  0  0  0  0  0  0  0
   16.9093   -4.7048  -14.4171 C   0  0  2  0  0  0  0  0  0  0  0  0
   17.4366   -5.9158  -13.7687 N   0  0  0  0  0  0  0  0  0  0  0  0
   17.9903   -3.8009  -14.8109 C   0  0  0  0  0  0  0  0  0  0  0  0
   17.9450   -3.0324  -15.9576 O   0  0  0  0  0  0  0  0  0  0  0  0
   19.0079   -3.7174  -14.0783 O   0  0  0  0  0  0  0  0  0  0  0  0
  1  2  1  0
  2  3  1  0
  3  4  1  1
  5  7  1  0
  5  3  1  0
  5  6  1  6
  7  8  2  0
  7  9  1  0
  9 10  1  0
 10 11  1  0
 11 12  2  0
 13 14  1  0
 14 15  2  0
 16 14  1  0
 17 16  1  1
 17 19  1  0
 18 11  1  0
 18 17  1  0
 19 21  2  0
 19 20  1  0
M  END
$$$$
