IGN.pdb
     RDKit          3D

 21 20  0  0  1  0  0  0  0  0999 V2000
   18.7746  -14.7177  -16.2041 C   0  0  0  0  0  0  0  0  0  0  0  0
   19.9474  -14.3134  -17.0295 C   0  0  0  0  0  0  0  0  0  0  0  0
   19.8781  -12.8991  -17.5671 C   0  0  2  0  0  0  0  0  0  0  0  0
   18.5758  -12.8498  -18.3782 C   0  0  0  0  0  0  0  0  0  0  0  0
   21.0815  -12.5489  -18.3856 C   0  0  2  0  0  0  0  0  0  0  0  0
   22.2792  -12.6565  -17.5363 N   0  0  0  0  0  0  0  0  0  0  0  0
   21.0572  -11.1823  -18.9316 C   0  0  0  0  0  0  0  0  0  0  0  0
   20.2060  -10.8729  -19.8411 O   0  0  0  0  0  0  0  0  0  0  0  0
   21.8996  -10.1151  -18.5541 N   0  0  0  0  0  0  0  0  0  0  0  0
   21.7452   -8.7618  -19.0184 C   0  0  0  0  0  0  0  0  0  0  0  0
   21.1188   -7.8718  -18.0419 C   0  0  0  0  0  0  0  0  0  0  0  0
   21.0954   -6.6386  -18.2641 O   0  0  0  0  0  0  0  0  0  0  0  0
   16.8368   -6.6628  -14.5572 N   0  0  0  0  0  0  0  0  0  0  0  0
   17.9615   -7.5007  -14.2643 C   0  0  0  0  0  0  0  0  0  0  0  0
   18.2755   -7.5973  -13.0268 O   0  0  0  0  0  0  0  0  0  0  0  0
   18.7021   -8.2037  -15.3313 C   0  0  0  0  0  0  0  0  0  0  0  0
   19.8650   -7.4371  -15.8983 C   0  0  2  0  0  0  0  0  0  0  0  0
   20.5325   -8.3427  -16.8465 N   0  0  0  0  0  0  0  0  0  0  0  0
   20.7791   -7.0127  -14.8376 C   0  0  0  0  0  0  0  0  0  0  0  0
   20.5487   -5.9026  -14.0488 O   0  0  0  0  0  0  0  0  0  0  0  0
   21.8221   -7.6829  -14.6320 O   0  0  0  0  0  0  0  0  0  0  0  0
  1  2  1  0
  2  3  1  0
  3  4  1  6
  5  7  1  0
  5  3  1  0
  5  6  1  1
  7  8  2  0
  7  9  1  0
  9 10  1  0
 10 11  1  0
 11 12  2  0
 13 14  1  0
 14 15  2  0
 16 14  1  0
 17 16  1  1
 17 19  1  0
 18 11  1  0
 18 17  1  0
 19 21  2  0
 19 20  1  0
M  END
$$$$
