IGN.pdb
     RDKit          3D

 21 20  0  0  1  0  0  0  0  0999 V2000
   16.8762  -16.0757  -15.6204 C   0  0  0  0  0  0  0  0  0  0  0  0
   17.2068  -14.8717  -16.4334 C   0  0  0  0  0  0  0  0  0  0  0  0
   17.3326  -13.5910  -15.6346 C   0  0  2  0  0  0  0  0  0  0  0  0
   15.9380  -13.3624  -15.0353 C   0  0  0  0  0  0  0  0  0  0  0  0
   17.7927  -12.4440  -16.4795 C   0  0  2  0  0  0  0  0  0  0  0  0
   19.1505  -12.7324  -16.9700 N   0  0  0  0  0  0  0  0  0  0  0  0
   17.8530  -11.1594  -15.7636 C   0  0  0  0  0  0  0  0  0  0  0  0
   16.7862  -10.6642  -15.2494 O   0  0  0  0  0  0  0  0  0  0  0  0
   19.0027  -10.3666  -15.5621 N   0  0  0  0  0  0  0  0  0  0  0  0
   19.0138   -9.1355  -14.8171 C   0  0  0  0  0  0  0  0  0  0  0  0
   20.3178   -8.4746  -14.7907 C   0  0  0  0  0  0  0  0  0  0  0  0
   21.2852   -9.0050  -15.3853 O   0  0  0  0  0  0  0  0  0  0  0  0
   24.1087   -5.0710  -15.1686 N   0  0  0  0  0  0  0  0  0  0  0  0
   23.1182   -5.4418  -16.1351 C   0  0  0  0  0  0  0  0  0  0  0  0
   23.3818   -5.1305  -17.3488 O   0  0  0  0  0  0  0  0  0  0  0  0
   21.8769   -6.1396  -15.7433 C   0  0  0  0  0  0  0  0  0  0  0  0
   21.7877   -6.4901  -14.2836 C   0  0  2  0  0  0  0  0  0  0  0  0
   20.5402   -7.2526  -14.1185 N   0  0  0  0  0  0  0  0  0  0  0  0
   21.7853   -5.2841  -13.4551 C   0  0  0  0  0  0  0  0  0  0  0  0
   22.9287   -4.7707  -12.8750 O   0  0  0  0  0  0  0  0  0  0  0  0
   20.6977   -4.6862  -13.2578 O   0  0  0  0  0  0  0  0  0  0  0  0
  1  2  1  0
  2  3  1  0
  3  4  1  6
  5  7  1  0
  5  3  1  0
  5  6  1  1
  7  8  2  0
  7  9  1  0
  9 10  1  0
 10 11  1  0
 11 12  2  0
 13 14  1  0
 14 15  2  0
 16 14  1  0
 17 16  1  6
 17 19  1  0
 18 11  1  0
 18 17  1  0
 19 21  2  0
 19 20  1  0
M  END
$$$$
