IGN.pdb
     RDKit          3D

 21 20  0  0  1  0  0  0  0  0999 V2000
   10.9296  -12.1236   -9.9257 C   0  0  0  0  0  0  0  0  0  0  0  0
   11.9765  -11.3647  -10.6659 C   0  0  0  0  0  0  0  0  0  0  0  0
   12.7772  -10.4044   -9.8110 C   0  0  2  0  0  0  0  0  0  0  0  0
   11.7432   -9.4137   -9.2581 C   0  0  0  0  0  0  0  0  0  0  0  0
   13.8638   -9.7302  -10.5893 C   0  0  2  0  0  0  0  0  0  0  0  0
   14.9450  -10.6999  -10.8300 N   0  0  0  0  0  0  0  0  0  0  0  0
   14.4621   -8.5735   -9.9036 C   0  0  0  0  0  0  0  0  0  0  0  0
   13.7426   -7.5429   -9.6434 O   0  0  0  0  0  0  0  0  0  0  0  0
   15.8009   -8.4559   -9.4735 N   0  0  0  0  0  0  0  0  0  0  0  0
   16.3124   -7.3399   -8.7228 C   0  0  0  0  0  0  0  0  0  0  0  0
   17.4382   -6.6638   -9.3657 C   0  0  0  0  0  0  0  0  0  0  0  0
   18.0458   -5.7606   -8.7445 O   0  0  0  0  0  0  0  0  0  0  0  0
   21.3109   -5.5139  -12.8144 N   0  0  0  0  0  0  0  0  0  0  0  0
   21.2477   -6.8436  -12.2845 C   0  0  0  0  0  0  0  0  0  0  0  0
   22.2783   -7.5744  -12.4922 O   0  0  0  0  0  0  0  0  0  0  0  0
   20.0635   -7.3275  -11.5464 C   0  0  0  0  0  0  0  0  0  0  0  0
   19.0063   -6.2861  -11.3033 C   0  0  2  0  0  0  0  0  0  0  0  0
   17.8776   -6.9850  -10.6689 N   0  0  0  0  0  0  0  0  0  0  0  0
   18.5993   -5.6510  -12.5571 C   0  0  0  0  0  0  0  0  0  0  0  0
   17.3352   -5.7947  -13.0946 O   0  0  0  0  0  0  0  0  0  0  0  0
   19.4331   -4.9444  -13.1773 O   0  0  0  0  0  0  0  0  0  0  0  0
  1  2  1  0
  2  3  1  0
  3  4  1  6
  5  7  1  0
  5  3  1  0
  5  6  1  1
  7  8  2  0
  7  9  1  0
  9 10  1  0
 10 11  1  0
 11 12  2  0
 13 14  1  0
 14 15  2  0
 16 14  1  0
 17 16  1  6
 17 19  1  0
 18 11  1  0
 18 17  1  0
 19 21  2  0
 19 20  1  0
M  END
$$$$
