IGN.pdb
     RDKit          3D

 21 20  0  0  1  0  0  0  0  0999 V2000
   27.7465  -19.6162   -3.6581 C   0  0  0  0  0  0  0  0  0  0  0  0
   27.7155  -18.9725   -5.0015 C   0  0  0  0  0  0  0  0  0  0  0  0
   27.5614  -19.9398   -6.1568 C   0  0  2  0  0  0  0  0  0  0  0  0
   28.6500  -20.9984   -5.9316 C   0  0  0  0  0  0  0  0  0  0  0  0
   27.6864  -19.2565   -7.4829 C   0  0  2  0  0  0  0  0  0  0  0  0
   26.6002  -18.2712   -7.6118 N   0  0  0  0  0  0  0  0  0  0  0  0
   27.5878  -20.1654   -8.6363 C   0  0  0  0  0  0  0  0  0  0  0  0
   28.2482  -21.2661   -8.6405 O   0  0  0  0  0  0  0  0  0  0  0  0
   26.8124  -19.9629   -9.7977 N   0  0  0  0  0  0  0  0  0  0  0  0
   26.8022  -20.8546  -10.9271 C   0  0  0  0  0  0  0  0  0  0  0  0
   25.4599  -21.2258  -11.3725 C   0  0  0  0  0  0  0  0  0  0  0  0
   25.3306  -22.0763  -12.2840 O   0  0  0  0  0  0  0  0  0  0  0  0
   19.6773  -19.5257  -10.9304 N   0  0  0  0  0  0  0  0  0  0  0  0
   20.5517  -20.6285  -10.6622 C   0  0  0  0  0  0  0  0  0  0  0  0
   20.0204  -21.7909  -10.7397 O   0  0  0  0  0  0  0  0  0  0  0  0
   21.9738  -20.4239  -10.3204 C   0  0  0  0  0  0  0  0  0  0  0  0
   22.9469  -21.0432  -11.2853 C   0  0  2  0  0  0  0  0  0  0  0  0
   24.2893  -20.6640  -10.8171 N   0  0  0  0  0  0  0  0  0  0  0  0
   22.7069  -20.5676  -12.6480 C   0  0  0  0  0  0  0  0  0  0  0  0
   22.0388  -21.3166  -13.5969 O   0  0  0  0  0  0  0  0  0  0  0  0
   23.1267  -19.4293  -12.9757 O   0  0  0  0  0  0  0  0  0  0  0  0
  1  2  1  0
  2  3  1  0
  3  4  1  1
  5  7  1  0
  5  3  1  0
  5  6  1  6
  7  8  2  0
  7  9  1  0
  9 10  1  0
 10 11  1  0
 11 12  2  0
 13 14  1  0
 14 15  2  0
 16 14  1  0
 17 16  1  1
 17 19  1  0
 18 11  1  0
 18 17  1  0
 19 21  2  0
 19 20  1  0
M  END
$$$$
