IGN.pdb
     RDKit          3D

 21 20  0  0  1  0  0  0  0  0999 V2000
   15.3173  -13.8792  -19.7149 C   0  0  0  0  0  0  0  0  0  0  0  0
   16.6951  -13.9134  -19.1487 C   0  0  0  0  0  0  0  0  0  0  0  0
   16.9110  -12.9888  -17.9686 C   0  0  2  0  0  0  0  0  0  0  0  0
   16.7344  -11.5747  -18.5391 C   0  0  0  0  0  0  0  0  0  0  0  0
   18.2511  -13.1916  -17.3330 C   0  0  2  0  0  0  0  0  0  0  0  0
   18.3712  -14.5998  -16.9208 N   0  0  0  0  0  0  0  0  0  0  0  0
   18.4764  -12.3672  -16.1347 C   0  0  0  0  0  0  0  0  0  0  0  0
   18.0310  -12.7595  -14.9966 O   0  0  0  0  0  0  0  0  0  0  0  0
   19.1607  -11.1343  -16.0836 N   0  0  0  0  0  0  0  0  0  0  0  0
   19.2831  -10.3277  -14.8981 C   0  0  0  0  0  0  0  0  0  0  0  0
   18.1706   -9.4000  -14.6993 C   0  0  0  0  0  0  0  0  0  0  0  0
   17.3886   -9.1688  -15.6509 O   0  0  0  0  0  0  0  0  0  0  0  0
   16.3812   -9.4511  -10.0293 N   0  0  0  0  0  0  0  0  0  0  0  0
   15.9454   -8.8953  -11.2758 C   0  0  0  0  0  0  0  0  0  0  0  0
   14.9909   -9.5184  -11.8590 O   0  0  0  0  0  0  0  0  0  0  0  0
   16.5653   -7.6796  -11.8405 C   0  0  0  0  0  0  0  0  0  0  0  0
   16.8603   -7.7513  -13.3134 C   0  0  2  0  0  0  0  0  0  0  0  0
   17.9339   -8.7450  -13.4707 N   0  0  0  0  0  0  0  0  0  0  0  0
   17.2679   -6.4444  -13.8296 C   0  0  0  0  0  0  0  0  0  0  0  0
   18.5353   -6.1929  -14.3175 O   0  0  0  0  0  0  0  0  0  0  0  0
   16.4329   -5.5052  -13.8296 O   0  0  0  0  0  0  0  0  0  0  0  0
  1  2  1  0
  2  3  1  0
  3  4  1  6
  5  7  1  0
  5  3  1  0
  5  6  1  1
  7  8  2  0
  7  9  1  0
  9 10  1  0
 10 11  1  0
 11 12  2  0
 13 14  1  0
 14 15  2  0
 16 14  1  0
 17 16  1  1
 17 19  1  0
 18 11  1  0
 18 17  1  0
 19 21  2  0
 19 20  1  0
M  END
$$$$
