IGN.pdb
     RDKit          3D

 21 20  0  0  1  0  0  0  0  0999 V2000
   26.7097  -14.6858  -14.6577 C   0  0  0  0  0  0  0  0  0  0  0  0
   25.9724  -15.8592  -15.2050 C   0  0  0  0  0  0  0  0  0  0  0  0
   24.6089  -15.5315  -15.7775 C   0  0  2  0  0  0  0  0  0  0  0  0
   23.8048  -16.8327  -15.6483 C   0  0  0  0  0  0  0  0  0  0  0  0
   24.6944  -15.0437  -17.1902 C   0  0  2  0  0  0  0  0  0  0  0  0
   26.0113  -14.4186  -17.3961 N   0  0  0  0  0  0  0  0  0  0  0  0
   23.6770  -14.0392  -17.5394 C   0  0  0  0  0  0  0  0  0  0  0  0
   22.4594  -14.4009  -17.7242 O   0  0  0  0  0  0  0  0  0  0  0  0
   23.8898  -12.6537  -17.7017 N   0  0  0  0  0  0  0  0  0  0  0  0
   22.8387  -11.6962  -17.9231 C   0  0  0  0  0  0  0  0  0  0  0  0
   22.5027  -10.9060  -16.7396 C   0  0  0  0  0  0  0  0  0  0  0  0
   22.7491  -11.3715  -15.6024 O   0  0  0  0  0  0  0  0  0  0  0  0
   21.2496   -6.8590  -13.5794 N   0  0  0  0  0  0  0  0  0  0  0  0
   21.5666   -6.4292  -14.9089 C   0  0  0  0  0  0  0  0  0  0  0  0
   21.6225   -5.1622  -15.0850 O   0  0  0  0  0  0  0  0  0  0  0  0
   21.8122   -7.3964  -15.9976 C   0  0  0  0  0  0  0  0  0  0  0  0
   21.6009   -8.8361  -15.6179 C   0  0  2  0  0  0  0  0  0  0  0  0
   21.9066   -9.6282  -16.8196 N   0  0  0  0  0  0  0  0  0  0  0  0
   20.2268   -9.0626  -15.1691 C   0  0  0  0  0  0  0  0  0  0  0  0
   19.2578   -9.6264  -15.9758 O   0  0  0  0  0  0  0  0  0  0  0  0
   19.9082   -8.7296  -14.0000 O   0  0  0  0  0  0  0  0  0  0  0  0
  1  2  1  0
  2  3  1  0
  3  4  1  6
  5  7  1  0
  5  3  1  0
  5  6  1  1
  7  8  2  0
  7  9  1  0
  9 10  1  0
 10 11  1  0
 11 12  2  0
 13 14  1  0
 14 15  2  0
 16 14  1  0
 17 16  1  6
 17 19  1  0
 18 11  1  0
 18 17  1  0
 19 21  2  0
 19 20  1  0
M  END
$$$$
