IGN.pdb
     RDKit          3D

 21 20  0  0  1  0  0  0  0  0999 V2000
   18.4636  -11.0816  -20.3542 C   0  0  0  0  0  0  0  0  0  0  0  0
   18.4284  -11.9022  -19.1112 C   0  0  0  0  0  0  0  0  0  0  0  0
   18.6423  -11.1158  -17.8345 C   0  0  2  0  0  0  0  0  0  0  0  0
   20.0558  -10.5314  -17.9644 C   0  0  0  0  0  0  0  0  0  0  0  0
   18.4802  -11.9685  -16.6148 C   0  0  2  0  0  0  0  0  0  0  0  0
   17.0841  -12.4300  -16.5422 N   0  0  0  0  0  0  0  0  0  0  0  0
   18.7733  -11.2702  -15.3528 C   0  0  0  0  0  0  0  0  0  0  0  0
   19.9730  -11.2517  -14.8968 O   0  0  0  0  0  0  0  0  0  0  0  0
   17.8461  -10.5807  -14.5429 N   0  0  0  0  0  0  0  0  0  0  0  0
   18.2123   -9.7312  -13.4406 C   0  0  0  0  0  0  0  0  0  0  0  0
   17.0693   -9.1300  -12.7549 C   0  0  0  0  0  0  0  0  0  0  0  0
   15.9337   -9.2007  -13.2804 O   0  0  0  0  0  0  0  0  0  0  0  0
   13.8745   -7.0850   -9.1259 N   0  0  0  0  0  0  0  0  0  0  0  0
   14.9916   -7.7834   -8.5628 C   0  0  0  0  0  0  0  0  0  0  0  0
   14.9514   -7.9670   -7.2962 O   0  0  0  0  0  0  0  0  0  0  0  0
   16.1112   -8.2572   -9.4012 C   0  0  0  0  0  0  0  0  0  0  0  0
   16.0278   -7.8527  -10.8472 C   0  0  2  0  0  0  0  0  0  0  0  0
   17.1871   -8.4659  -11.5141 N   0  0  0  0  0  0  0  0  0  0  0  0
   16.0463   -6.3961  -10.9849 C   0  0  0  0  0  0  0  0  0  0  0  0
   14.9128   -5.6538  -11.2526 O   0  0  0  0  0  0  0  0  0  0  0  0
   17.1391   -5.7889  -10.8569 O   0  0  0  0  0  0  0  0  0  0  0  0
  1  2  1  0
  2  3  1  0
  3  4  1  6
  5  7  1  0
  5  3  1  0
  5  6  1  1
  7  8  2  0
  7  9  1  0
  9 10  1  0
 10 11  1  0
 11 12  2  0
 13 14  1  0
 14 15  2  0
 16 14  1  0
 17 16  1  1
 17 19  1  0
 18 11  1  0
 18 17  1  0
 19 21  2  0
 19 20  1  0
M  END
$$$$
