IGN.pdb
     RDKit          3D

 21 20  0  0  1  0  0  0  0  0999 V2000
   18.4650  -16.1669  -16.7319 C   0  0  0  0  0  0  0  0  0  0  0  0
   17.9406  -15.1573  -15.7699 C   0  0  0  0  0  0  0  0  0  0  0  0
   17.9503  -13.7339  -16.2875 C   0  0  2  0  0  0  0  0  0  0  0  0
   19.4328  -13.4087  -16.5173 C   0  0  0  0  0  0  0  0  0  0  0  0
   17.2920  -12.7846  -15.3353 C   0  0  2  0  0  0  0  0  0  0  0  0
   15.9042  -13.2229  -15.1138 N   0  0  0  0  0  0  0  0  0  0  0  0
   17.2374  -11.3950  -15.8172 C   0  0  0  0  0  0  0  0  0  0  0  0
   16.5317  -11.1041  -16.8491 O   0  0  0  0  0  0  0  0  0  0  0  0
   17.9002  -10.2858  -15.2502 N   0  0  0  0  0  0  0  0  0  0  0  0
   17.9866   -8.9918  -15.8738 C   0  0  0  0  0  0  0  0  0  0  0  0
   18.6247   -7.9762  -15.0377 C   0  0  0  0  0  0  0  0  0  0  0  0
   18.9281   -8.2591  -13.8550 O   0  0  0  0  0  0  0  0  0  0  0  0
   21.3580   -4.1746  -12.9754 N   0  0  0  0  0  0  0  0  0  0  0  0
   21.8339   -5.4039  -13.5367 C   0  0  0  0  0  0  0  0  0  0  0  0
   23.0538   -5.6965  -13.2806 O   0  0  0  0  0  0  0  0  0  0  0  0
   20.9620   -6.2700  -14.3557 C   0  0  0  0  0  0  0  0  0  0  0  0
   19.6118   -5.6860  -14.6681 C   0  0  2  0  0  0  0  0  0  0  0  0
   18.9184   -6.6767  -15.5062 N   0  0  0  0  0  0  0  0  0  0  0  0
   19.7438   -4.4044  -15.3616 C   0  0  0  0  0  0  0  0  0  0  0  0
   19.4875   -4.2516  -16.7101 O   0  0  0  0  0  0  0  0  0  0  0  0
   20.1080   -3.3955  -14.7068 O   0  0  0  0  0  0  0  0  0  0  0  0
  1  2  1  0
  2  3  1  0
  3  4  1  1
  5  7  1  0
  5  3  1  0
  5  6  1  6
  7  8  2  0
  7  9  1  0
  9 10  1  0
 10 11  1  0
 11 12  2  0
 13 14  1  0
 14 15  2  0
 16 14  1  0
 17 16  1  6
 17 19  1  0
 18 11  1  0
 18 17  1  0
 19 21  2  0
 19 20  1  0
M  END
$$$$
