ELH.pdb
     RDKit          3D

 28 28  0  0  1  0  0  0  0  0999 V2000
   23.0250  -11.8860  -19.9156 N   0  0  0  0  0  0  0  0  0  0  0  0
   21.8896  -12.2023  -19.0959 C   0  0  1  0  0  0  0  0  0  0  0  0
   21.7732  -13.6105  -18.6411 C   0  0  0  0  0  0  0  0  0  0  0  0
   21.6550  -14.6277  -19.7046 C   0  0  0  0  0  0  0  0  0  0  0  0
   21.5097  -16.0260  -19.3016 C   0  0  0  0  0  0  0  0  0  0  0  0
   21.3108  -16.9566  -20.0939 O   0  0  0  0  0  0  0  0  0  0  0  0
   21.9088  -11.2454  -17.9394 C   0  0  0  0  0  0  0  0  0  0  0  0
   21.0089  -11.2738  -17.0877 O   0  0  0  0  0  0  0  0  0  0  0  0
   21.5967  -16.3558  -17.9407 O   0  0  0  0  0  0  0  0  0  0  0  0
   24.5724  -10.6491  -14.4546 C   0  0  0  0  0  0  0  0  0  0  0  0
   25.1706  -10.3235  -15.8051 C   0  0  2  0  0  0  0  0  0  0  0  0
   26.6240   -9.9364  -15.5499 C   0  0  0  0  0  0  0  0  0  0  0  0
   24.4950   -9.0814  -16.3982 C   0  0  0  0  0  0  0  0  0  0  0  0
   23.1073   -9.3701  -16.8371 C   0  0  2  0  0  0  0  0  0  0  0  0
   22.9781  -10.3351  -17.8734 N   0  0  0  0  0  0  0  0  0  0  0  0
   22.2959   -8.1274  -17.1132 C   0  0  0  0  0  0  0  0  0  0  0  0
   22.5937   -7.2909  -17.9992 O   0  0  0  0  0  0  0  0  0  0  0  0
   21.1250   -7.8389  -16.3624 N   0  0  0  0  0  0  0  0  0  0  0  0
   20.3431   -6.6106  -16.5665 C   0  0  1  0  0  0  0  0  0  0  0  0
   18.9085   -6.8188  -16.2259 C   0  0  0  0  0  0  0  0  0  0  0  0
   18.1460   -5.5756  -16.4597 C   0  0  0  0  0  0  0  0  0  0  0  0
   18.6614   -4.4278  -17.0609 C   0  0  0  0  0  0  0  0  0  0  0  0
   17.7136   -3.4762  -17.1237 N   0  0  0  0  0  0  0  0  0  0  0  0
   16.6060   -4.0095  -16.5692 C   0  0  0  0  0  0  0  0  0  0  0  0
   16.8719   -5.2601  -16.1764 N   0  0  0  0  0  0  0  0  0  0  0  0
   20.9311   -5.5270  -15.7484 C   0  0  0  0  0  0  0  0  0  0  0  0
   21.0024   -4.2273  -16.2704 O   0  0  0  0  0  0  0  0  0  0  0  0
   21.3776   -5.6945  -14.6012 O   0  0  0  0  0  0  0  0  0  0  0  0
  2  3  1  0
  2  1  1  1
  4  3  1  0
  4  5  1  0
  5  6  2  0
  7  2  1  0
  8  7  2  0
  9  5  1  0
 11 10  1  1
 12 11  1  0
 13 11  1  0
 14 13  1  6
 14 15  1  0
 15  7  1  0
 16 17  2  0
 16 14  1  0
 18 16  1  0
 19 18  1  0
 19 20  1  1
 21 20  1  0
 22 21  2  0
 23 24  1  0
 23 22  1  0
 24 25  2  0
 25 21  1  0
 26 19  1  0
 27 26  1  0
 28 26  2  0
M  END
$$$$
