ELH.pdb
     RDKit          3D

 28 28  0  0  1  0  0  0  0  0999 V2000
   16.3409  -11.3561  -16.4493 N   0  0  0  0  0  0  0  0  0  0  0  0
   17.3620  -10.6212  -17.1408 C   0  0  1  0  0  0  0  0  0  0  0  0
   16.9034   -9.5094  -18.0109 C   0  0  0  0  0  0  0  0  0  0  0  0
   16.0829   -9.8942  -19.1763 C   0  0  0  0  0  0  0  0  0  0  0  0
   15.7064   -8.8464  -20.1247 C   0  0  0  0  0  0  0  0  0  0  0  0
   16.4727   -8.3779  -20.9772 O   0  0  0  0  0  0  0  0  0  0  0  0
   18.3354  -10.1469  -16.1011 C   0  0  0  0  0  0  0  0  0  0  0  0
   17.9658   -9.9692  -14.9316 O   0  0  0  0  0  0  0  0  0  0  0  0
   14.4042   -8.3258  -20.0838 O   0  0  0  0  0  0  0  0  0  0  0  0
   24.2407  -10.3731  -14.6992 C   0  0  0  0  0  0  0  0  0  0  0  0
   22.9277   -9.6289  -14.5996 C   0  0  2  0  0  0  0  0  0  0  0  0
   22.4191   -9.8421  -13.1772 C   0  0  0  0  0  0  0  0  0  0  0  0
   21.8859  -10.2665  -15.5264 C   0  0  0  0  0  0  0  0  0  0  0  0
   20.6672   -9.4275  -15.6393 C   0  0  2  0  0  0  0  0  0  0  0  0
   19.6600   -9.9201  -16.5138 N   0  0  0  0  0  0  0  0  0  0  0  0
   20.9657   -7.9676  -15.8813 C   0  0  0  0  0  0  0  0  0  0  0  0
   21.5025   -7.5371  -16.9301 O   0  0  0  0  0  0  0  0  0  0  0  0
   20.6439   -6.9858  -14.9063 N   0  0  0  0  0  0  0  0  0  0  0  0
   20.8939   -5.5529  -15.1214 C   0  0  1  0  0  0  0  0  0  0  0  0
   19.7452   -4.7271  -14.6567 C   0  0  0  0  0  0  0  0  0  0  0  0
   18.6489   -4.7813  -15.6451 C   0  0  0  0  0  0  0  0  0  0  0  0
   18.7178   -5.4366  -16.8740 C   0  0  0  0  0  0  0  0  0  0  0  0
   17.5560   -5.2963  -17.5360 N   0  0  0  0  0  0  0  0  0  0  0  0
   16.7545   -4.5600  -16.7397 C   0  0  0  0  0  0  0  0  0  0  0  0
   17.4128   -4.2574  -15.6154 N   0  0  0  0  0  0  0  0  0  0  0  0
   22.1394   -5.1733  -14.4186 C   0  0  0  0  0  0  0  0  0  0  0  0
   22.6533   -3.8776  -14.5735 O   0  0  0  0  0  0  0  0  0  0  0  0
   22.7773   -5.9439  -13.6820 O   0  0  0  0  0  0  0  0  0  0  0  0
  2  3  1  0
  2  1  1  1
  4  3  1  0
  4  5  1  0
  5  6  2  0
  7  2  1  0
  8  7  2  0
  9  5  1  0
 11 10  1  1
 12 11  1  0
 13 11  1  0
 14 13  1  6
 14 15  1  0
 15  7  1  0
 16 17  2  0
 16 14  1  0
 18 16  1  0
 19 18  1  0
 19 20  1  1
 21 20  1  0
 22 21  2  0
 23 24  1  0
 23 22  1  0
 24 25  2  0
 25 21  1  0
 26 19  1  0
 27 26  1  0
 28 26  2  0
M  END
$$$$
