ELH.pdb
     RDKit          3D

 28 28  0  0  1  0  0  0  0  0999 V2000
   27.5423  -20.6916  -16.4857 N   0  0  0  0  0  0  0  0  0  0  0  0
   26.9394  -19.7365  -15.5996 C   0  0  1  0  0  0  0  0  0  0  0  0
   26.5196  -18.4467  -16.2028 C   0  0  0  0  0  0  0  0  0  0  0  0
   26.1790  -18.4830  -17.6389 C   0  0  0  0  0  0  0  0  0  0  0  0
   27.2267  -18.1402  -18.6000 C   0  0  0  0  0  0  0  0  0  0  0  0
   28.4163  -17.9775  -18.2971 O   0  0  0  0  0  0  0  0  0  0  0  0
   25.7931  -20.4329  -14.9254 C   0  0  0  0  0  0  0  0  0  0  0  0
   25.2973  -21.4523  -15.4262 O   0  0  0  0  0  0  0  0  0  0  0  0
   26.8861  -17.9807  -19.9517 O   0  0  0  0  0  0  0  0  0  0  0  0
   25.8508  -22.2457  -10.9585 C   0  0  0  0  0  0  0  0  0  0  0  0
   25.7637  -20.7367  -10.9045 C   0  0  2  0  0  0  0  0  0  0  0  0
   25.7646  -20.3582   -9.4266 C   0  0  0  0  0  0  0  0  0  0  0  0
   24.4178  -20.2633  -11.4663 C   0  0  0  0  0  0  0  0  0  0  0  0
   24.3197  -20.5032  -12.9273 C   0  0  2  0  0  0  0  0  0  0  0  0
   25.3215  -19.8808  -13.7215 N   0  0  0  0  0  0  0  0  0  0  0  0
   22.9334  -20.2752  -13.4797 C   0  0  0  0  0  0  0  0  0  0  0  0
   22.4209  -19.1380  -13.6114 O   0  0  0  0  0  0  0  0  0  0  0  0
   22.1219  -21.3675  -13.8875 N   0  0  0  0  0  0  0  0  0  0  0  0
   20.7519  -21.1847  -14.3891 C   0  0  1  0  0  0  0  0  0  0  0  0
   20.1894  -22.4628  -14.9062 C   0  0  0  0  0  0  0  0  0  0  0  0
   18.8799  -22.2192  -15.5447 C   0  0  0  0  0  0  0  0  0  0  0  0
   18.2528  -20.9763  -15.6239 C   0  0  0  0  0  0  0  0  0  0  0  0
   17.0764  -21.0944  -16.2641 N   0  0  0  0  0  0  0  0  0  0  0  0
   16.9533  -22.3972  -16.5900 C   0  0  0  0  0  0  0  0  0  0  0  0
   18.0316  -23.0603  -16.1580 N   0  0  0  0  0  0  0  0  0  0  0  0
   19.9124  -20.6371  -13.3007 C   0  0  0  0  0  0  0  0  0  0  0  0
   18.8912  -19.7258  -13.6068 O   0  0  0  0  0  0  0  0  0  0  0  0
   20.0543  -20.9372  -12.1036 O   0  0  0  0  0  0  0  0  0  0  0  0
  2  3  1  0
  2  1  1  6
  4  3  1  0
  4  5  1  0
  5  6  2  0
  7  2  1  0
  8  7  2  0
  9  5  1  0
 11 10  1  1
 12 11  1  0
 13 11  1  0
 14 13  1  1
 14 15  1  0
 15  7  1  0
 16 17  2  0
 16 14  1  0
 18 16  1  0
 19 18  1  0
 19 20  1  1
 21 20  1  0
 22 21  2  0
 23 24  1  0
 23 22  1  0
 24 25  2  0
 25 21  1  0
 26 19  1  0
 27 26  1  0
 28 26  2  0
M  END
$$$$
