ELH.pdb
     RDKit          3D

 28 28  0  0  1  0  0  0  0  0999 V2000
   24.2311  -18.2194  -17.3522 N   0  0  0  0  0  0  0  0  0  0  0  0
   24.6342  -19.2864  -18.2239 C   0  0  1  0  0  0  0  0  0  0  0  0
   25.7012  -18.9712  -19.2066 C   0  0  0  0  0  0  0  0  0  0  0  0
   25.4582  -17.8023  -20.0750 C   0  0  0  0  0  0  0  0  0  0  0  0
   26.4359  -17.5131  -21.1235 C   0  0  0  0  0  0  0  0  0  0  0  0
   27.4546  -18.1880  -21.3239 O   0  0  0  0  0  0  0  0  0  0  0  0
   25.0121  -20.4446  -17.3468 C   0  0  0  0  0  0  0  0  0  0  0  0
   25.2675  -21.5504  -17.8448 O   0  0  0  0  0  0  0  0  0  0  0  0
   26.2275  -16.4094  -21.9643 O   0  0  0  0  0  0  0  0  0  0  0  0
   28.3906  -21.0034  -16.1558 C   0  0  0  0  0  0  0  0  0  0  0  0
   27.7580  -20.0551  -15.1617 C   0  0  2  0  0  0  0  0  0  0  0  0
   28.8782  -19.5926  -14.2352 C   0  0  0  0  0  0  0  0  0  0  0  0
   26.7546  -20.8057  -14.2781 C   0  0  0  0  0  0  0  0  0  0  0  0
   25.5349  -21.1834  -15.0340 C   0  0  2  0  0  0  0  0  0  0  0  0
   25.0610  -20.2147  -15.9608 N   0  0  0  0  0  0  0  0  0  0  0  0
   24.4292  -21.7199  -14.1573 C   0  0  0  0  0  0  0  0  0  0  0  0
   24.5054  -22.8080  -13.5380 O   0  0  0  0  0  0  0  0  0  0  0  0
   23.2176  -20.9980  -13.9875 N   0  0  0  0  0  0  0  0  0  0  0  0
   22.1192  -21.4932  -13.1448 C   0  0  1  0  0  0  0  0  0  0  0  0
   21.8797  -20.5930  -11.9830 C   0  0  0  0  0  0  0  0  0  0  0  0
   23.0813  -20.5409  -11.1256 C   0  0  0  0  0  0  0  0  0  0  0  0
   24.2576  -21.2519  -11.3608 C   0  0  0  0  0  0  0  0  0  0  0  0
   25.1565  -20.9858  -10.3972 N   0  0  0  0  0  0  0  0  0  0  0  0
   24.5619  -20.1154   -9.5562 C   0  0  0  0  0  0  0  0  0  0  0  0
   23.3261  -19.8555   -9.9971 N   0  0  0  0  0  0  0  0  0  0  0  0
   20.9011  -21.6249  -13.9743 C   0  0  0  0  0  0  0  0  0  0  0  0
   20.9243  -21.1973  -15.3098 O   0  0  0  0  0  0  0  0  0  0  0  0
   19.8317  -22.1004  -13.5575 O   0  0  0  0  0  0  0  0  0  0  0  0
  2  3  1  0
  2  1  1  1
  4  3  1  0
  4  5  1  0
  5  6  2  0
  7  2  1  0
  8  7  2  0
  9  5  1  0
 11 10  1  6
 12 11  1  0
 13 11  1  0
 14 13  1  1
 14 15  1  0
 15  7  1  0
 16 17  2  0
 16 14  1  0
 18 16  1  0
 19 18  1  0
 19 20  1  1
 21 20  1  0
 22 21  2  0
 23 24  1  0
 23 22  1  0
 24 25  2  0
 25 21  1  0
 26 19  1  0
 27 26  1  0
 28 26  2  0
M  END
$$$$
