ELH.pdb
     RDKit          3D

 28 28  0  0  1  0  0  0  0  0999 V2000
   27.3125  -19.7089  -17.1928 N   0  0  0  0  0  0  0  0  0  0  0  0
   26.5690  -20.8846  -17.5476 C   0  0  1  0  0  0  0  0  0  0  0  0
   27.3616  -22.0673  -17.9682 C   0  0  0  0  0  0  0  0  0  0  0  0
   28.7284  -22.1608  -17.4181 C   0  0  0  0  0  0  0  0  0  0  0  0
   29.2184  -23.4806  -17.0222 C   0  0  0  0  0  0  0  0  0  0  0  0
   29.4094  -24.4132  -17.8142 O   0  0  0  0  0  0  0  0  0  0  0  0
   25.6752  -21.2010  -16.3837 C   0  0  0  0  0  0  0  0  0  0  0  0
   24.9114  -22.1760  -16.4273 O   0  0  0  0  0  0  0  0  0  0  0  0
   29.4947  -23.7275  -15.6690 O   0  0  0  0  0  0  0  0  0  0  0  0
   26.7335  -21.1728  -10.8712 C   0  0  0  0  0  0  0  0  0  0  0  0
   26.1684  -21.4657  -12.2432 C   0  0  2  0  0  0  0  0  0  0  0  0
   27.3615  -21.7702  -13.1439 C   0  0  0  0  0  0  0  0  0  0  0  0
   25.5050  -20.2104  -12.8220 C   0  0  0  0  0  0  0  0  0  0  0  0
   24.8846  -20.4787  -14.1429 C   0  0  2  0  0  0  0  0  0  0  0  0
   25.7484  -20.3524  -15.2653 N   0  0  0  0  0  0  0  0  0  0  0  0
   23.5763  -19.7539  -14.3483 C   0  0  0  0  0  0  0  0  0  0  0  0
   23.5002  -18.5445  -14.6720 O   0  0  0  0  0  0  0  0  0  0  0  0
   22.3360  -20.4257  -14.1800 N   0  0  0  0  0  0  0  0  0  0  0  0
   21.0449  -19.7643  -14.4202 C   0  0  1  0  0  0  0  0  0  0  0  0
   20.7215  -19.7193  -15.8730 C   0  0  0  0  0  0  0  0  0  0  0  0
   19.4829  -18.9451  -16.0931 C   0  0  0  0  0  0  0  0  0  0  0  0
   18.7225  -18.3572  -15.0829 C   0  0  0  0  0  0  0  0  0  0  0  0
   17.6598  -17.7277  -15.6141 N   0  0  0  0  0  0  0  0  0  0  0  0
   17.7402  -17.9112  -16.9477 C   0  0  0  0  0  0  0  0  0  0  0  0
   18.8289  -18.6372  -17.2248 N   0  0  0  0  0  0  0  0  0  0  0  0
   19.9928  -20.4787  -13.6639 C   0  0  0  0  0  0  0  0  0  0  0  0
   18.8058  -19.8102  -13.3308 O   0  0  0  0  0  0  0  0  0  0  0  0
   20.0919  -21.6606  -13.2943 O   0  0  0  0  0  0  0  0  0  0  0  0
  2  3  1  0
  2  1  1  1
  4  3  1  0
  4  5  1  0
  5  6  2  0
  7  2  1  0
  8  7  2  0
  9  5  1  0
 11 10  1  1
 12 11  1  0
 13 11  1  0
 14 13  1  1
 14 15  1  0
 15  7  1  0
 16 17  2  0
 16 14  1  0
 18 16  1  0
 19 18  1  0
 19 20  1  6
 21 20  1  0
 22 21  2  0
 23 24  1  0
 23 22  1  0
 24 25  2  0
 25 21  1  0
 26 19  1  0
 27 26  1  0
 28 26  2  0
M  END
$$$$
