ELH.pdb
     RDKit          3D

 28 28  0  0  1  0  0  0  0  0999 V2000
   43.4423  -10.5489   -5.3576 N   0  0  0  0  0  0  0  0  0  0  0  0
   43.8620  -10.2511   -6.6978 C   0  0  1  0  0  0  0  0  0  0  0  0
   44.8336  -11.1906   -7.3115 C   0  0  0  0  0  0  0  0  0  0  0  0
   44.4882  -12.6238   -7.2326 C   0  0  0  0  0  0  0  0  0  0  0  0
   45.4626  -13.5917   -7.7351 C   0  0  0  0  0  0  0  0  0  0  0  0
   46.3779  -14.0696   -7.0515 O   0  0  0  0  0  0  0  0  0  0  0  0
   42.6158  -10.1229   -7.5248 C   0  0  0  0  0  0  0  0  0  0  0  0
   42.6907   -9.9968   -8.7554 O   0  0  0  0  0  0  0  0  0  0  0  0
   45.3744  -14.0182   -9.0688 O   0  0  0  0  0  0  0  0  0  0  0  0
   36.6188  -11.4832   -7.0821 C   0  0  0  0  0  0  0  0  0  0  0  0
   37.7388  -10.7158   -7.7486 C   0  0  2  0  0  0  0  0  0  0  0  0
   37.9581  -11.3695   -9.1095 C   0  0  0  0  0  0  0  0  0  0  0  0
   39.0459  -10.9023   -6.9690 C   0  0  0  0  0  0  0  0  0  0  0  0
   40.1333  -10.0510   -7.5117 C   0  0  2  0  0  0  0  0  0  0  0  0
   41.3853  -10.1533   -6.8455 N   0  0  0  0  0  0  0  0  0  0  0  0
   39.7192   -8.6152   -7.7262 C   0  0  0  0  0  0  0  0  0  0  0  0
   39.2911   -7.8754   -6.8081 O   0  0  0  0  0  0  0  0  0  0  0  0
   39.7969   -8.0179   -9.0128 N   0  0  0  0  0  0  0  0  0  0  0  0
   39.3636   -6.6358   -9.2652 C   0  0  1  0  0  0  0  0  0  0  0  0
   40.5237   -5.7494   -9.5579 C   0  0  0  0  0  0  0  0  0  0  0  0
   41.3441   -5.5697   -8.3428 C   0  0  0  0  0  0  0  0  0  0  0  0
   42.5437   -6.2334   -8.0879 C   0  0  0  0  0  0  0  0  0  0  0  0
   43.0387   -5.8486   -6.8986 N   0  0  0  0  0  0  0  0  0  0  0  0
   42.1658   -4.9500   -6.3994 C   0  0  0  0  0  0  0  0  0  0  0  0
   41.1594   -4.7895   -7.2657 N   0  0  0  0  0  0  0  0  0  0  0  0
   38.3979   -6.6339  -10.3862 C   0  0  0  0  0  0  0  0  0  0  0  0
   37.7494   -5.4412  -10.7382 O   0  0  0  0  0  0  0  0  0  0  0  0
   38.1150   -7.6426  -11.0538 O   0  0  0  0  0  0  0  0  0  0  0  0
  2  3  1  0
  2  1  1  1
  4  3  1  0
  4  5  1  0
  5  6  2  0
  7  2  1  0
  8  7  2  0
  9  5  1  0
 11 10  1  1
 12 11  1  0
 13 11  1  0
 14 13  1  1
 14 15  1  0
 15  7  1  0
 16 17  2  0
 16 14  1  0
 18 16  1  0
 19 18  1  0
 19 20  1  6
 21 20  1  0
 22 21  2  0
 23 24  1  0
 23 22  1  0
 24 25  2  0
 25 21  1  0
 26 19  1  0
 27 26  1  0
 28 26  2  0
M  END
$$$$
