ELH.pdb
     RDKit          3D

 28 28  0  0  1  0  0  0  0  0999 V2000
   20.3065  -12.6343  -16.2067 N   0  0  0  0  0  0  0  0  0  0  0  0
   20.4334  -11.4859  -17.0588 C   0  0  1  0  0  0  0  0  0  0  0  0
   19.1842  -10.9849  -17.6850 C   0  0  0  0  0  0  0  0  0  0  0  0
   17.9743  -11.0244  -16.8400 C   0  0  0  0  0  0  0  0  0  0  0  0
   16.7169  -10.5566  -17.4222 C   0  0  0  0  0  0  0  0  0  0  0  0
   16.0574   -9.6096  -16.9733 O   0  0  0  0  0  0  0  0  0  0  0  0
   21.1160  -10.4198  -16.2521 C   0  0  0  0  0  0  0  0  0  0  0  0
   20.5500   -9.9182  -15.2702 O   0  0  0  0  0  0  0  0  0  0  0  0
   16.2083  -11.2054  -18.5575 O   0  0  0  0  0  0  0  0  0  0  0  0
   25.1542  -10.6729  -14.4129 C   0  0  0  0  0  0  0  0  0  0  0  0
   25.2229  -10.4137  -15.9015 C   0  0  2  0  0  0  0  0  0  0  0  0
   26.7042  -10.3183  -16.2538 C   0  0  0  0  0  0  0  0  0  0  0  0
   24.6162   -9.0443  -16.2293 C   0  0  0  0  0  0  0  0  0  0  0  0
   23.1522   -9.0224  -15.9887 C   0  0  2  0  0  0  0  0  0  0  0  0
   22.4035  -10.0285  -16.6589 N   0  0  0  0  0  0  0  0  0  0  0  0
   22.5388   -7.6528  -16.1534 C   0  0  0  0  0  0  0  0  0  0  0  0
   22.3567   -7.1073  -17.2681 O   0  0  0  0  0  0  0  0  0  0  0  0
   22.1276   -6.8969  -15.0232 N   0  0  0  0  0  0  0  0  0  0  0  0
   21.5297   -5.5594  -15.1473 C   0  0  1  0  0  0  0  0  0  0  0  0
   20.1283   -5.5438  -14.6441 C   0  0  0  0  0  0  0  0  0  0  0  0
   19.2204   -6.1256  -15.6536 C   0  0  0  0  0  0  0  0  0  0  0  0
   19.6166   -6.5828  -16.9100 C   0  0  0  0  0  0  0  0  0  0  0  0
   18.5527   -7.0509  -17.5857 N   0  0  0  0  0  0  0  0  0  0  0  0
   17.4895   -6.8946  -16.7710 C   0  0  0  0  0  0  0  0  0  0  0  0
   17.8957   -6.3429  -15.6223 N   0  0  0  0  0  0  0  0  0  0  0  0
   22.3692   -4.5893  -14.4102 C   0  0  0  0  0  0  0  0  0  0  0  0
   23.4610   -5.0495  -13.6598 O   0  0  0  0  0  0  0  0  0  0  0  0
   22.1675   -3.3635  -14.4107 O   0  0  0  0  0  0  0  0  0  0  0  0
  2  3  1  0
  2  1  1  1
  4  3  1  0
  4  5  1  0
  5  6  2  0
  7  2  1  0
  8  7  2  0
  9  5  1  0
 11 10  1  1
 12 11  1  0
 13 11  1  0
 14 13  1  6
 14 15  1  0
 15  7  1  0
 16 17  2  0
 16 14  1  0
 18 16  1  0
 19 18  1  0
 19 20  1  1
 21 20  1  0
 22 21  2  0
 23 24  1  0
 23 22  1  0
 24 25  2  0
 25 21  1  0
 26 19  1  0
 27 26  1  0
 28 26  2  0
M  END
$$$$
