ELH.pdb
     RDKit          3D

 28 28  0  0  1  0  0  0  0  0999 V2000
   25.8813  -19.9869  -16.7865 N   0  0  0  0  0  0  0  0  0  0  0  0
   25.9519  -21.4190  -16.8575 C   0  0  1  0  0  0  0  0  0  0  0  0
   27.2495  -21.9973  -17.2882 C   0  0  0  0  0  0  0  0  0  0  0  0
   27.7940  -21.4902  -18.5633 C   0  0  0  0  0  0  0  0  0  0  0  0
   29.2362  -21.2634  -18.6500 C   0  0  0  0  0  0  0  0  0  0  0  0
   30.0824  -22.1658  -18.5946 O   0  0  0  0  0  0  0  0  0  0  0  0
   25.5296  -21.9418  -15.5152 C   0  0  0  0  0  0  0  0  0  0  0  0
   25.4739  -23.1623  -15.3074 O   0  0  0  0  0  0  0  0  0  0  0  0
   29.7121  -19.9527  -18.8048 O   0  0  0  0  0  0  0  0  0  0  0  0
   24.6196  -19.9090   -9.7799 C   0  0  0  0  0  0  0  0  0  0  0  0
   24.7534  -21.0560  -10.7566 C   0  0  2  0  0  0  0  0  0  0  0  0
   25.8500  -21.9633  -10.2073 C   0  0  0  0  0  0  0  0  0  0  0  0
   25.2606  -20.5432  -12.1097 C   0  0  0  0  0  0  0  0  0  0  0  0
   24.7385  -21.3580  -13.2345 C   0  0  2  0  0  0  0  0  0  0  0  0
   25.2081  -20.9952  -14.5267 N   0  0  0  0  0  0  0  0  0  0  0  0
   23.2392  -21.5317  -13.2026 C   0  0  0  0  0  0  0  0  0  0  0  0
   22.6755  -22.6150  -12.9161 O   0  0  0  0  0  0  0  0  0  0  0  0
   22.3726  -20.4471  -13.5036 N   0  0  0  0  0  0  0  0  0  0  0  0
   20.9090  -20.5665  -13.4296 C   0  0  1  0  0  0  0  0  0  0  0  0
   20.2576  -19.2279  -13.3923 C   0  0  0  0  0  0  0  0  0  0  0  0
   18.7913  -19.3798  -13.2995 C   0  0  0  0  0  0  0  0  0  0  0  0
   18.1299  -20.5848  -13.0653 C   0  0  0  0  0  0  0  0  0  0  0  0
   16.8009  -20.3828  -13.0397 N   0  0  0  0  0  0  0  0  0  0  0  0
   16.6154  -19.0645  -13.2550 C   0  0  0  0  0  0  0  0  0  0  0  0
   17.8058  -18.4743  -13.4087 N   0  0  0  0  0  0  0  0  0  0  0  0
   20.4338  -21.3561  -14.5871 C   0  0  0  0  0  0  0  0  0  0  0  0
   19.3836  -22.2699  -14.4165 O   0  0  0  0  0  0  0  0  0  0  0  0
   20.9140  -21.2625  -15.7290 O   0  0  0  0  0  0  0  0  0  0  0  0
  2  3  1  0
  2  1  1  1
  4  3  1  0
  4  5  1  0
  5  6  2  0
  7  2  1  0
  8  7  2  0
  9  5  1  0
 11 10  1  1
 12 11  1  0
 13 11  1  0
 14 13  1  1
 14 15  1  0
 15  7  1  0
 16 17  2  0
 16 14  1  0
 18 16  1  0
 19 18  1  0
 19 20  1  6
 21 20  1  0
 22 21  2  0
 23 24  1  0
 23 22  1  0
 24 25  2  0
 25 21  1  0
 26 19  1  0
 27 26  1  0
 28 26  2  0
M  END
$$$$
