ELH.pdb
     RDKit          3D

 28 28  0  0  1  0  0  0  0  0999 V2000
   27.9302  -22.4118  -16.3776 N   0  0  0  0  0  0  0  0  0  0  0  0
   27.2706  -21.1762  -16.0627 C   0  0  1  0  0  0  0  0  0  0  0  0
   26.8888  -20.3179  -17.2122 C   0  0  0  0  0  0  0  0  0  0  0  0
   27.9949  -19.8644  -18.0784 C   0  0  0  0  0  0  0  0  0  0  0  0
   28.8271  -20.8838  -18.7165 C   0  0  0  0  0  0  0  0  0  0  0  0
   28.4003  -21.7155  -19.5286 O   0  0  0  0  0  0  0  0  0  0  0  0
   26.0844  -21.5220  -15.2102 C   0  0  0  0  0  0  0  0  0  0  0  0
   25.4108  -22.5333  -15.4545 O   0  0  0  0  0  0  0  0  0  0  0  0
   30.1936  -20.9418  -18.4041 O   0  0  0  0  0  0  0  0  0  0  0  0
   25.8779  -22.7449  -11.0882 C   0  0  0  0  0  0  0  0  0  0  0  0
   26.2064  -21.2770  -11.2463 C   0  0  2  0  0  0  0  0  0  0  0  0
   26.4244  -20.7308   -9.8387 C   0  0  0  0  0  0  0  0  0  0  0  0
   24.9993  -20.5223  -11.8157 C   0  0  0  0  0  0  0  0  0  0  0  0
   24.7279  -20.9059  -13.2231 C   0  0  2  0  0  0  0  0  0  0  0  0
   25.7838  -20.6581  -14.1427 N   0  0  0  0  0  0  0  0  0  0  0  0
   23.3991  -20.4047  -13.7349 C   0  0  0  0  0  0  0  0  0  0  0  0
   23.1553  -19.1937  -13.9527 O   0  0  0  0  0  0  0  0  0  0  0  0
   22.3332  -21.3052  -14.0011 N   0  0  0  0  0  0  0  0  0  0  0  0
   21.0399  -20.8559  -14.5372 C   0  0  1  0  0  0  0  0  0  0  0  0
   20.3325  -21.9605  -15.2419 C   0  0  0  0  0  0  0  0  0  0  0  0
   20.9886  -22.2391  -16.5357 C   0  0  0  0  0  0  0  0  0  0  0  0
   22.0285  -21.4851  -17.0786 C   0  0  0  0  0  0  0  0  0  0  0  0
   22.4000  -21.9999  -18.2637 N   0  0  0  0  0  0  0  0  0  0  0  0
   21.6070  -23.0699  -18.4756 C   0  0  0  0  0  0  0  0  0  0  0  0
   20.7692  -23.2055  -17.4418 N   0  0  0  0  0  0  0  0  0  0  0  0
   20.2199  -20.3237  -13.4265 C   0  0  0  0  0  0  0  0  0  0  0  0
   19.0652  -19.5812  -13.7136 O   0  0  0  0  0  0  0  0  0  0  0  0
   20.4916  -20.4940  -12.2263 O   0  0  0  0  0  0  0  0  0  0  0  0
  2  3  1  0
  2  1  1  6
  4  3  1  0
  4  5  1  0
  5  6  2  0
  7  2  1  0
  8  7  2  0
  9  5  1  0
 11 10  1  1
 12 11  1  0
 13 11  1  0
 14 13  1  1
 14 15  1  0
 15  7  1  0
 16 17  2  0
 16 14  1  0
 18 16  1  0
 19 18  1  0
 19 20  1  1
 21 20  1  0
 22 21  2  0
 23 24  1  0
 23 22  1  0
 24 25  2  0
 25 21  1  0
 26 19  1  0
 27 26  1  0
 28 26  2  0
M  END
$$$$
