ELH.pdb
     RDKit          3D

 28 28  0  0  1  0  0  0  0  0999 V2000
   27.4824  -21.3284  -15.7712 N   0  0  0  0  0  0  0  0  0  0  0  0
   26.9270  -20.3676  -14.8606 C   0  0  1  0  0  0  0  0  0  0  0  0
   26.3670  -19.1316  -15.4626 C   0  0  0  0  0  0  0  0  0  0  0  0
   25.5678  -19.3130  -16.6905 C   0  0  0  0  0  0  0  0  0  0  0  0
   24.1970  -18.8034  -16.6968 C   0  0  0  0  0  0  0  0  0  0  0  0
   23.8032  -17.8701  -15.9846 O   0  0  0  0  0  0  0  0  0  0  0  0
   25.9064  -21.0933  -14.0328 C   0  0  0  0  0  0  0  0  0  0  0  0
   25.5506  -22.2399  -14.3404 O   0  0  0  0  0  0  0  0  0  0  0  0
   23.2546  -19.3927  -17.5530 O   0  0  0  0  0  0  0  0  0  0  0  0
   26.3574  -22.0378   -9.7719 C   0  0  0  0  0  0  0  0  0  0  0  0
   25.9810  -20.5944  -10.0218 C   0  0  2  0  0  0  0  0  0  0  0  0
   25.9258  -19.9210   -8.6541 C   0  0  0  0  0  0  0  0  0  0  0  0
   24.5627  -20.5090  -10.5982 C   0  0  0  0  0  0  0  0  0  0  0  0
   24.5027  -21.0338  -11.9848 C   0  0  2  0  0  0  0  0  0  0  0  0
   25.3866  -20.4194  -12.9138 N   0  0  0  0  0  0  0  0  0  0  0  0
   23.0968  -21.1419  -12.5238 C   0  0  0  0  0  0  0  0  0  0  0  0
   22.0957  -21.3656  -11.8018 O   0  0  0  0  0  0  0  0  0  0  0  0
   22.8340  -20.9911  -13.9117 N   0  0  0  0  0  0  0  0  0  0  0  0
   21.4798  -20.7567  -14.4343 C   0  0  1  0  0  0  0  0  0  0  0  0
   21.0531  -19.3463  -14.2198 C   0  0  0  0  0  0  0  0  0  0  0  0
   19.7561  -19.3106  -13.5138 C   0  0  0  0  0  0  0  0  0  0  0  0
   19.0771  -20.4329  -13.0407 C   0  0  0  0  0  0  0  0  0  0  0  0
   17.9293  -20.0603  -12.4480 N   0  0  0  0  0  0  0  0  0  0  0  0
   17.8755  -18.7160  -12.5414 C   0  0  0  0  0  0  0  0  0  0  0  0
   18.9673  -18.2774  -13.1774 N   0  0  0  0  0  0  0  0  0  0  0  0
   21.4542  -21.1063  -15.8718 C   0  0  0  0  0  0  0  0  0  0  0  0
   20.2305  -21.1270  -16.5567 O   0  0  0  0  0  0  0  0  0  0  0  0
   22.4687  -21.3903  -16.5302 O   0  0  0  0  0  0  0  0  0  0  0  0
  2  3  1  0
  2  1  1  6
  4  3  1  0
  4  5  1  0
  5  6  2  0
  7  2  1  0
  8  7  2  0
  9  5  1  0
 11 10  1  1
 12 11  1  0
 13 11  1  0
 14 13  1  1
 14 15  1  0
 15  7  1  0
 16 17  2  0
 16 14  1  0
 18 16  1  0
 19 18  1  0
 19 20  1  6
 21 20  1  0
 22 21  2  0
 23 24  1  0
 23 22  1  0
 24 25  2  0
 25 21  1  0
 26 19  1  0
 27 26  1  0
 28 26  2  0
M  END
$$$$
