ELH.pdb
     RDKit          3D

 28 28  0  0  1  0  0  0  0  0999 V2000
   20.0425  -11.7717  -18.3692 N   0  0  0  0  0  0  0  0  0  0  0  0
   19.2974  -11.3173  -17.2293 C   0  0  1  0  0  0  0  0  0  0  0  0
   18.4920  -12.3391  -16.5146 C   0  0  0  0  0  0  0  0  0  0  0  0
   18.9487  -13.7364  -16.6509 C   0  0  0  0  0  0  0  0  0  0  0  0
   18.2769  -14.7578  -15.8483 C   0  0  0  0  0  0  0  0  0  0  0  0
   18.5869  -15.9566  -15.8549 O   0  0  0  0  0  0  0  0  0  0  0  0
   20.2753  -10.6409  -16.3128 C   0  0  0  0  0  0  0  0  0  0  0  0
   19.9000  -10.1838  -15.2237 O   0  0  0  0  0  0  0  0  0  0  0  0
   17.2143  -14.3793  -15.0139 O   0  0  0  0  0  0  0  0  0  0  0  0
   26.3899  -10.0920  -15.5181 C   0  0  0  0  0  0  0  0  0  0  0  0
   24.9847   -9.5761  -15.3013 C   0  0  2  0  0  0  0  0  0  0  0  0
   24.6447   -9.8545  -13.8403 C   0  0  0  0  0  0  0  0  0  0  0  0
   23.9874  -10.3893  -16.1349 C   0  0  0  0  0  0  0  0  0  0  0  0
   22.6106   -9.8470  -16.0236 C   0  0  2  0  0  0  0  0  0  0  0  0
   21.6104  -10.5552  -16.7445 N   0  0  0  0  0  0  0  0  0  0  0  0
   22.5330   -8.3577  -16.2577 C   0  0  0  0  0  0  0  0  0  0  0  0
   22.9643   -7.7982  -17.2942 O   0  0  0  0  0  0  0  0  0  0  0  0
   21.9519   -7.4963  -15.2891 N   0  0  0  0  0  0  0  0  0  0  0  0
   21.8559   -6.0425  -15.4868 C   0  0  1  0  0  0  0  0  0  0  0  0
   20.4375   -5.6040  -15.6016 C   0  0  0  0  0  0  0  0  0  0  0  0
   20.3762   -4.1624  -15.9179 C   0  0  0  0  0  0  0  0  0  0  0  0
   21.4770   -3.3740  -16.2512 C   0  0  0  0  0  0  0  0  0  0  0  0
   21.0842   -2.1087  -16.4800 N   0  0  0  0  0  0  0  0  0  0  0  0
   19.7485   -2.0888  -16.2949 C   0  0  0  0  0  0  0  0  0  0  0  0
   19.3347   -3.3160  -15.9605 N   0  0  0  0  0  0  0  0  0  0  0  0
   22.5330   -5.3604  -14.3618 C   0  0  0  0  0  0  0  0  0  0  0  0
   23.3930   -4.2837  -14.6227 O   0  0  0  0  0  0  0  0  0  0  0  0
   22.3881   -5.6850  -13.1715 O   0  0  0  0  0  0  0  0  0  0  0  0
  2  3  1  0
  2  1  1  6
  4  3  1  0
  4  5  1  0
  5  6  2  0
  7  2  1  0
  8  7  2  0
  9  5  1  0
 11 10  1  6
 12 11  1  0
 13 11  1  0
 14 13  1  6
 14 15  1  0
 15  7  1  0
 16 17  2  0
 16 14  1  0
 18 16  1  0
 19 18  1  0
 19 20  1  1
 21 20  1  0
 22 21  2  0
 23 24  1  0
 23 22  1  0
 24 25  2  0
 25 21  1  0
 26 19  1  0
 27 26  1  0
 28 26  2  0
M  END
$$$$
