ELH.pdb
     RDKit          3D

 28 28  0  0  1  0  0  0  0  0999 V2000
   27.3867  -22.4623  -16.5083 N   0  0  0  0  0  0  0  0  0  0  0  0
   27.0396  -21.2615  -15.8022 C   0  0  1  0  0  0  0  0  0  0  0  0
   26.7979  -20.0532  -16.6300 C   0  0  0  0  0  0  0  0  0  0  0  0
   25.6045  -20.0902  -17.4983 C   0  0  0  0  0  0  0  0  0  0  0  0
   25.3803  -18.9628  -18.4024 C   0  0  0  0  0  0  0  0  0  0  0  0
   24.3798  -18.8423  -19.1221 O   0  0  0  0  0  0  0  0  0  0  0  0
   25.8545  -21.5907  -14.9416 C   0  0  0  0  0  0  0  0  0  0  0  0
   25.1465  -22.5745  -15.2002 O   0  0  0  0  0  0  0  0  0  0  0  0
   26.3436  -17.9454  -18.4754 O   0  0  0  0  0  0  0  0  0  0  0  0
   26.0080  -22.3820  -10.6354 C   0  0  0  0  0  0  0  0  0  0  0  0
   26.0843  -20.9004  -10.9294 C   0  0  2  0  0  0  0  0  0  0  0  0
   26.1957  -20.1989   -9.5793 C   0  0  0  0  0  0  0  0  0  0  0  0
   24.7712  -20.4163  -11.5559 C   0  0  0  0  0  0  0  0  0  0  0  0
   24.5624  -20.9958  -12.9058 C   0  0  2  0  0  0  0  0  0  0  0  0
   25.5953  -20.7437  -13.8500 N   0  0  0  0  0  0  0  0  0  0  0  0
   23.1922  -20.7134  -13.4732 C   0  0  0  0  0  0  0  0  0  0  0  0
   22.8724  -19.6173  -13.9926 O   0  0  0  0  0  0  0  0  0  0  0  0
   22.1729  -21.7024  -13.4450 N   0  0  0  0  0  0  0  0  0  0  0  0
   20.8377  -21.4716  -14.0159 C   0  0  1  0  0  0  0  0  0  0  0  0
   20.0428  -22.7299  -14.0604 C   0  0  0  0  0  0  0  0  0  0  0  0
   18.7777  -22.5052  -14.7890 C   0  0  0  0  0  0  0  0  0  0  0  0
   18.4321  -21.3188  -15.4351 C   0  0  0  0  0  0  0  0  0  0  0  0
   17.2179  -21.4393  -15.9997 N   0  0  0  0  0  0  0  0  0  0  0  0
   16.7926  -22.6875  -15.7175 C   0  0  0  0  0  0  0  0  0  0  0  0
   17.7275  -23.3158  -14.9962 N   0  0  0  0  0  0  0  0  0  0  0  0
   20.1475  -20.4356  -13.2161 C   0  0  0  0  0  0  0  0  0  0  0  0
   19.2439  -19.5657  -13.8435 O   0  0  0  0  0  0  0  0  0  0  0  0
   20.3184  -20.2799  -11.9955 O   0  0  0  0  0  0  0  0  0  0  0  0
  2  3  1  0
  2  1  1  6
  4  3  1  0
  4  5  1  0
  5  6  2  0
  7  2  1  0
  8  7  2  0
  9  5  1  0
 11 10  1  1
 12 11  1  0
 13 11  1  0
 14 13  1  1
 14 15  1  0
 15  7  1  0
 16 17  2  0
 16 14  1  0
 18 16  1  0
 19 18  1  0
 19 20  1  1
 21 20  1  0
 22 21  2  0
 23 24  1  0
 23 22  1  0
 24 25  2  0
 25 21  1  0
 26 19  1  0
 27 26  1  0
 28 26  2  0
M  END
$$$$
