ELH.pdb
     RDKit          3D

 28 28  0  0  1  0  0  0  0  0999 V2000
   20.0358  -12.9946  -15.7989 N   0  0  0  0  0  0  0  0  0  0  0  0
   20.1823  -11.8492  -16.6518 C   0  0  1  0  0  0  0  0  0  0  0  0
   18.9328  -11.2795  -17.2157 C   0  0  0  0  0  0  0  0  0  0  0  0
   18.1080  -12.1992  -18.0241 C   0  0  0  0  0  0  0  0  0  0  0  0
   17.5901  -11.7110  -19.3017 C   0  0  0  0  0  0  0  0  0  0  0  0
   17.7267  -10.5478  -19.7038 O   0  0  0  0  0  0  0  0  0  0  0  0
   20.9576  -10.8253  -15.8746 C   0  0  0  0  0  0  0  0  0  0  0  0
   20.6051  -10.5092  -14.7293 O   0  0  0  0  0  0  0  0  0  0  0  0
   16.8931  -12.5962  -20.1377 O   0  0  0  0  0  0  0  0  0  0  0  0
   25.1092  -10.6792  -14.3685 C   0  0  0  0  0  0  0  0  0  0  0  0
   24.9975  -10.5722  -15.8730 C   0  0  2  0  0  0  0  0  0  0  0  0
   26.4246  -10.4847  -16.4053 C   0  0  0  0  0  0  0  0  0  0  0  0
   24.3148   -9.2554  -16.2613 C   0  0  0  0  0  0  0  0  0  0  0  0
   22.8791   -9.2519  -15.8865 C   0  0  2  0  0  0  0  0  0  0  0  0
   22.0807  -10.2560  -16.4998 N   0  0  0  0  0  0  0  0  0  0  0  0
   22.2409   -7.8865  -15.9734 C   0  0  0  0  0  0  0  0  0  0  0  0
   21.8746   -7.3629  -17.0527 O   0  0  0  0  0  0  0  0  0  0  0  0
   22.0191   -7.1093  -14.8052 N   0  0  0  0  0  0  0  0  0  0  0  0
   21.3877   -5.7822  -14.8522 C   0  0  1  0  0  0  0  0  0  0  0  0
   20.1361   -5.7490  -14.0462 C   0  0  0  0  0  0  0  0  0  0  0  0
   19.0594   -6.4738  -14.7512 C   0  0  0  0  0  0  0  0  0  0  0  0
   19.2225   -7.1751  -15.9454 C   0  0  0  0  0  0  0  0  0  0  0  0
   18.0525   -7.7192  -16.3229 N   0  0  0  0  0  0  0  0  0  0  0  0
   17.1525   -7.3697  -15.3814 C   0  0  0  0  0  0  0  0  0  0  0  0
   17.7602   -6.6281  -14.4488 N   0  0  0  0  0  0  0  0  0  0  0  0
   22.3567   -4.7735  -14.3698 C   0  0  0  0  0  0  0  0  0  0  0  0
   22.0191   -3.4130  -14.4153 O   0  0  0  0  0  0  0  0  0  0  0  0
   23.4778   -5.0568  -13.9157 O   0  0  0  0  0  0  0  0  0  0  0  0
  2  3  1  0
  2  1  1  1
  4  3  1  0
  4  5  1  0
  5  6  2  0
  7  2  1  0
  8  7  2  0
  9  5  1  0
 11 10  1  1
 12 11  1  0
 13 11  1  0
 14 13  1  6
 14 15  1  0
 15  7  1  0
 16 17  2  0
 16 14  1  0
 18 16  1  0
 19 18  1  0
 19 20  1  1
 21 20  1  0
 22 21  2  0
 23 24  1  0
 23 22  1  0
 24 25  2  0
 25 21  1  0
 26 19  1  0
 27 26  1  0
 28 26  2  0
M  END
$$$$
