ELH.pdb
     RDKit          3D

 28 28  0  0  1  0  0  0  0  0999 V2000
   19.2843  -11.1593  -18.5911 N   0  0  0  0  0  0  0  0  0  0  0  0
   18.5466  -10.7448  -17.4314 C   0  0  1  0  0  0  0  0  0  0  0  0
   17.6925  -11.7739  -16.7873 C   0  0  0  0  0  0  0  0  0  0  0  0
   18.3589  -13.0445  -16.4394 C   0  0  0  0  0  0  0  0  0  0  0  0
   17.5548  -14.0882  -15.8047 C   0  0  0  0  0  0  0  0  0  0  0  0
   16.3737  -13.9393  -15.4636 O   0  0  0  0  0  0  0  0  0  0  0  0
   19.5417  -10.1668  -16.4674 C   0  0  0  0  0  0  0  0  0  0  0  0
   19.1725   -9.7518  -15.3595 O   0  0  0  0  0  0  0  0  0  0  0  0
   18.1360  -15.3409  -15.5575 O   0  0  0  0  0  0  0  0  0  0  0  0
   25.6856  -10.0089  -15.6541 C   0  0  0  0  0  0  0  0  0  0  0  0
   24.2843   -9.5867  -15.2727 C   0  0  2  0  0  0  0  0  0  0  0  0
   23.9821  -10.2559  -13.9355 C   0  0  0  0  0  0  0  0  0  0  0  0
   23.2696  -10.1527  -16.2732 C   0  0  0  0  0  0  0  0  0  0  0  0
   21.9199   -9.5695  -16.0733 C   0  0  2  0  0  0  0  0  0  0  0  0
   20.8856  -10.1223  -16.8774 N   0  0  0  0  0  0  0  0  0  0  0  0
   21.9108   -8.0600  -16.0942 C   0  0  0  0  0  0  0  0  0  0  0  0
   22.2247   -7.3814  -17.1014 O   0  0  0  0  0  0  0  0  0  0  0  0
   21.5360   -7.3167  -14.9431 N   0  0  0  0  0  0  0  0  0  0  0  0
   21.5449   -5.8466  -14.9194 C   0  0  1  0  0  0  0  0  0  0  0  0
   20.2008   -5.3023  -14.5811 C   0  0  0  0  0  0  0  0  0  0  0  0
   19.3396   -5.2956  -15.7812 C   0  0  0  0  0  0  0  0  0  0  0  0
   19.7332   -5.7343  -17.0449 C   0  0  0  0  0  0  0  0  0  0  0  0
   18.7192   -5.5952  -17.9167 N   0  0  0  0  0  0  0  0  0  0  0  0
   17.6900   -5.0738  -17.2185 C   0  0  0  0  0  0  0  0  0  0  0  0
   18.0677   -4.8984  -15.9474 N   0  0  0  0  0  0  0  0  0  0  0  0
   22.5627   -5.3895  -13.9476 C   0  0  0  0  0  0  0  0  0  0  0  0
   23.2391   -6.3321  -13.1596 O   0  0  0  0  0  0  0  0  0  0  0  0
   22.8666   -4.1969  -13.7777 O   0  0  0  0  0  0  0  0  0  0  0  0
  2  3  1  0
  2  1  1  6
  4  3  1  0
  4  5  1  0
  5  6  2  0
  7  2  1  0
  8  7  2  0
  9  5  1  0
 11 10  1  6
 12 11  1  0
 13 11  1  0
 14 13  1  6
 14 15  1  0
 15  7  1  0
 16 17  2  0
 16 14  1  0
 18 16  1  0
 19 18  1  0
 19 20  1  1
 21 20  1  0
 22 21  2  0
 23 24  1  0
 23 22  1  0
 24 25  2  0
 25 21  1  0
 26 19  1  0
 27 26  1  0
 28 26  2  0
M  END
$$$$
