TDK.pdb
     RDKit          3D

 25 24  0  0  1  0  0  0  0  0999 V2000
   14.4369  -13.1051  -10.3179 C   0  0  0  0  0  0  0  0  0  0  0  0
   14.7519  -11.6883  -10.6643 C   0  0  1  0  0  0  0  0  0  0  0  0
   14.4361  -11.4501  -11.9825 O   0  0  0  0  0  0  0  0  0  0  0  0
   14.0059  -10.6782   -9.8099 C   0  0  2  0  0  0  0  0  0  0  0  0
   12.5824  -10.7872   -9.9292 N   0  0  0  0  0  0  0  0  0  0  0  0
   14.5377   -9.3487  -10.1399 C   0  0  0  0  0  0  0  0  0  0  0  0
   14.0280   -8.7562  -11.1341 O   0  0  0  0  0  0  0  0  0  0  0  0
   15.5753   -8.6785   -9.4336 N   0  0  0  0  0  0  0  0  0  0  0  0
   16.1354   -7.4307   -9.8629 C   0  0  1  0  0  0  0  0  0  0  0  0
   16.0840   -6.4404   -8.7240 C   0  0  0  0  0  0  0  0  0  0  0  0
   16.6198   -5.1183   -9.0790 C   0  0  0  0  0  0  0  0  0  0  0  0
   16.8553   -4.8609  -10.2817 O   0  0  0  0  0  0  0  0  0  0  0  0
   17.5038   -7.5743  -10.4162 C   0  0  0  0  0  0  0  0  0  0  0  0
   18.4044   -8.1842   -9.7736 O   0  0  0  0  0  0  0  0  0  0  0  0
   16.8776   -4.1387   -8.1386 O   0  0  0  0  0  0  0  0  0  0  0  0
   17.8874   -7.0490  -11.6761 N   0  0  0  0  0  0  0  0  0  0  0  0
   19.2190   -7.2488  -12.2599 C   0  0  1  0  0  0  0  0  0  0  0  0
   19.2051   -8.3092  -13.2880 C   0  0  0  0  0  0  0  0  0  0  0  0
   20.5494   -8.4899  -13.9271 C   0  0  0  0  0  0  0  0  0  0  0  0
   20.4916   -9.5625  -15.0227 C   0  0  0  0  0  0  0  0  0  0  0  0
   21.8386   -9.5893  -15.6989 C   0  0  0  0  0  0  0  0  0  0  0  0
   21.9297  -10.5691  -16.7363 N   0  0  0  0  0  0  0  0  0  0  0  0
   19.6916   -5.9676  -12.8059 C   0  0  0  0  0  0  0  0  0  0  0  0
   18.8300   -5.1466  -13.2370 O   0  0  0  0  0  0  0  0  0  0  0  0
   21.0021   -5.5601  -12.8947 O   0  0  0  0  0  0  0  0  0  0  0  0
  2  1  1  1
  2  3  1  0
  4  2  1  0
  4  5  1  6
  6  8  1  0
  6  4  1  0
  7  6  2  0
  9 10  1  1
  9  8  1  0
 11 10  1  0
 12 11  2  0
 13 14  2  0
 13  9  1  0
 15 11  1  0
 16 13  1  0
 17 23  1  0
 17 16  1  0
 17 18  1  6
 19 20  1  0
 19 18  1  0
 20 21  1  0
 21 22  1  0
 23 25  1  0
 24 23  2  0
M  END
$$$$
