TDK.pdb
     RDKit          3D

 25 24  0  0  1  0  0  0  0  0999 V2000
   16.0368  -12.3791  -15.8564 C   0  0  0  0  0  0  0  0  0  0  0  0
   15.5627  -12.4129  -14.4420 C   0  0  1  0  0  0  0  0  0  0  0  0
   15.0707  -13.6636  -14.1458 O   0  0  0  0  0  0  0  0  0  0  0  0
   16.6490  -12.0816  -13.4335 C   0  0  2  0  0  0  0  0  0  0  0  0
   16.2336  -12.2827  -12.0772 N   0  0  0  0  0  0  0  0  0  0  0  0
   17.1152  -10.7188  -13.7248 C   0  0  0  0  0  0  0  0  0  0  0  0
   16.3605   -9.7661  -13.3753 O   0  0  0  0  0  0  0  0  0  0  0  0
   18.3417  -10.3876  -14.3654 N   0  0  0  0  0  0  0  0  0  0  0  0
   18.7609   -9.0376  -14.6043 C   0  0  1  0  0  0  0  0  0  0  0  0
   20.2696   -8.9774  -14.6230 C   0  0  0  0  0  0  0  0  0  0  0  0
   20.8359   -8.2395  -13.4847 C   0  0  0  0  0  0  0  0  0  0  0  0
   20.0604   -7.6683  -12.6844 O   0  0  0  0  0  0  0  0  0  0  0  0
   18.1641   -8.4585  -15.8322 C   0  0  0  0  0  0  0  0  0  0  0  0
   18.2490   -9.0574  -16.9413 O   0  0  0  0  0  0  0  0  0  0  0  0
   22.1958   -8.1465  -13.2556 O   0  0  0  0  0  0  0  0  0  0  0  0
   17.4725   -7.2208  -15.8461 N   0  0  0  0  0  0  0  0  0  0  0  0
   16.8817   -6.6425  -17.0587 C   0  0  1  0  0  0  0  0  0  0  0  0
   15.4203   -6.4770  -16.9222 C   0  0  0  0  0  0  0  0  0  0  0  0
   14.8038   -5.8875  -18.1553 C   0  0  0  0  0  0  0  0  0  0  0  0
   13.2939   -5.6897  -17.9679 C   0  0  0  0  0  0  0  0  0  0  0  0
   12.7603   -5.0670  -19.2327 C   0  0  0  0  0  0  0  0  0  0  0  0
   11.3776   -4.7129  -19.1476 N   0  0  0  0  0  0  0  0  0  0  0  0
   17.5496   -5.3640  -17.3451 C   0  0  0  0  0  0  0  0  0  0  0  0
   17.3390   -4.3905  -16.5639 O   0  0  0  0  0  0  0  0  0  0  0  0
   18.4009   -5.1134  -18.3958 O   0  0  0  0  0  0  0  0  0  0  0  0
  2  1  1  6
  2  3  1  0
  4  2  1  0
  4  5  1  1
  6  8  1  0
  6  4  1  0
  7  6  2  0
  9 10  1  6
  9  8  1  0
 11 10  1  0
 12 11  2  0
 13 14  2  0
 13  9  1  0
 15 11  1  0
 16 13  1  0
 17 23  1  0
 17 16  1  0
 17 18  1  1
 19 20  1  0
 19 18  1  0
 20 21  1  0
 21 22  1  0
 23 25  1  0
 24 23  2  0
M  END
$$$$
