TDK.pdb
     RDKit          3D

 25 24  0  0  1  0  0  0  0  0999 V2000
   27.3160  -10.2996  -15.1436 C   0  0  0  0  0  0  0  0  0  0  0  0
   26.0372   -9.7693  -15.7002 C   0  0  1  0  0  0  0  0  0  0  0  0
   26.2385   -9.3243  -16.9869 O   0  0  0  0  0  0  0  0  0  0  0  0
   24.9184  -10.7963  -15.7252 C   0  0  2  0  0  0  0  0  0  0  0  0
   25.2105  -11.9218  -16.5621 N   0  0  0  0  0  0  0  0  0  0  0  0
   23.6814  -10.0868  -16.0803 C   0  0  0  0  0  0  0  0  0  0  0  0
   23.1962  -10.3151  -17.2256 O   0  0  0  0  0  0  0  0  0  0  0  0
   22.9898   -9.1680  -15.2423 N   0  0  0  0  0  0  0  0  0  0  0  0
   21.7345   -8.5747  -15.5991 C   0  0  1  0  0  0  0  0  0  0  0  0
   20.7326   -8.8212  -14.4965 C   0  0  0  0  0  0  0  0  0  0  0  0
   20.2051  -10.1933  -14.4867 C   0  0  0  0  0  0  0  0  0  0  0  0
   20.2153  -10.8558  -15.5493 O   0  0  0  0  0  0  0  0  0  0  0  0
   21.8530   -7.1349  -15.9337 C   0  0  0  0  0  0  0  0  0  0  0  0
   22.5271   -6.3517  -15.2069 O   0  0  0  0  0  0  0  0  0  0  0  0
   19.6944  -10.7902  -13.3494 O   0  0  0  0  0  0  0  0  0  0  0  0
   21.2323   -6.5508  -17.0668 N   0  0  0  0  0  0  0  0  0  0  0  0
   21.4059   -5.1430  -17.4435 C   0  0  1  0  0  0  0  0  0  0  0  0
   20.8888   -4.8790  -18.8017 C   0  0  0  0  0  0  0  0  0  0  0  0
   21.2862   -3.5220  -19.3003 C   0  0  0  0  0  0  0  0  0  0  0  0
   20.8480   -3.3276  -20.7579 C   0  0  0  0  0  0  0  0  0  0  0  0
   21.3297   -1.9682  -21.1961 C   0  0  0  0  0  0  0  0  0  0  0  0
   21.1898   -1.7461  -22.6017 N   0  0  0  0  0  0  0  0  0  0  0  0
   20.7444   -4.3002  -16.4361 C   0  0  0  0  0  0  0  0  0  0  0  0
   19.5716   -4.6095  -16.0738 O   0  0  0  0  0  0  0  0  0  0  0  0
   21.2826   -3.1883  -15.8317 O   0  0  0  0  0  0  0  0  0  0  0  0
  2  1  1  6
  2  3  1  0
  4  2  1  0
  4  5  1  6
  6  8  1  0
  6  4  1  0
  7  6  2  0
  9 10  1  1
  9  8  1  0
 11 10  1  0
 12 11  2  0
 13 14  2  0
 13  9  1  0
 15 11  1  0
 16 13  1  0
 17 23  1  0
 17 16  1  0
 17 18  1  6
 19 20  1  0
 19 18  1  0
 20 21  1  0
 21 22  1  0
 23 25  1  0
 24 23  2  0
M  END
$$$$
