TDK.pdb
     RDKit          3D

 25 24  0  0  1  0  0  0  0  0999 V2000
   16.8424  -15.0205  -15.7139 C   0  0  0  0  0  0  0  0  0  0  0  0
   17.7242  -13.8282  -15.5492 C   0  0  1  0  0  0  0  0  0  0  0  0
   18.9934  -14.2322  -15.2027 O   0  0  0  0  0  0  0  0  0  0  0  0
   17.8255  -12.9753  -16.8020 C   0  0  2  0  0  0  0  0  0  0  0  0
   18.3931  -13.6787  -17.9135 N   0  0  0  0  0  0  0  0  0  0  0  0
   18.5434  -11.7461  -16.4371 C   0  0  0  0  0  0  0  0  0  0  0  0
   18.0889  -11.0831  -15.4608 O   0  0  0  0  0  0  0  0  0  0  0  0
   19.7032  -11.2450  -17.0917 N   0  0  0  0  0  0  0  0  0  0  0  0
   20.4272  -10.0963  -16.6318 C   0  0  1  0  0  0  0  0  0  0  0  0
   21.8193  -10.1144  -17.2167 C   0  0  0  0  0  0  0  0  0  0  0  0
   22.6322   -8.9564  -16.8179 C   0  0  0  0  0  0  0  0  0  0  0  0
   22.5940   -7.9177  -17.5163 O   0  0  0  0  0  0  0  0  0  0  0  0
   19.7215   -8.8220  -16.9102 C   0  0  0  0  0  0  0  0  0  0  0  0
   19.0681   -8.6606  -17.9793 O   0  0  0  0  0  0  0  0  0  0  0  0
   23.4433   -8.9617  -15.6987 O   0  0  0  0  0  0  0  0  0  0  0  0
   19.7309   -7.7217  -16.0161 N   0  0  0  0  0  0  0  0  0  0  0  0
   18.9417   -6.5031  -16.2309 C   0  0  1  0  0  0  0  0  0  0  0  0
   17.4931   -6.7712  -16.1236 C   0  0  0  0  0  0  0  0  0  0  0  0
   16.6743   -5.5379  -16.3614 C   0  0  0  0  0  0  0  0  0  0  0  0
   15.1860   -5.8160  -16.1122 C   0  0  0  0  0  0  0  0  0  0  0  0
   14.4255   -4.5699  -16.4875 C   0  0  0  0  0  0  0  0  0  0  0  0
   13.0067   -4.7471  -16.4669 N   0  0  0  0  0  0  0  0  0  0  0  0
   19.3790   -5.4820  -15.2671 C   0  0  0  0  0  0  0  0  0  0  0  0
   19.9471   -5.8672  -14.2036 O   0  0  0  0  0  0  0  0  0  0  0  0
   19.2337   -4.1217  -15.4078 O   0  0  0  0  0  0  0  0  0  0  0  0
  2  1  1  6
  2  3  1  0
  4  2  1  0
  4  5  1  6
  6  8  1  0
  6  4  1  0
  7  6  2  0
  9 10  1  6
  9  8  1  0
 11 10  1  0
 12 11  2  0
 13 14  2  0
 13  9  1  0
 15 11  1  0
 16 13  1  0
 17 23  1  0
 17 16  1  0
 17 18  1  1
 19 20  1  0
 19 18  1  0
 20 21  1  0
 21 22  1  0
 23 25  1  0
 24 23  2  0
M  END
$$$$
