TDK.pdb
     RDKit          3D

 25 24  0  0  1  0  0  0  0  0999 V2000
   16.8445  -10.4950  -17.5817 C   0  0  0  0  0  0  0  0  0  0  0  0
   17.1307   -9.8764  -16.2545 C   0  0  1  0  0  0  0  0  0  0  0  0
   15.9784   -9.8316  -15.5035 O   0  0  0  0  0  0  0  0  0  0  0  0
   18.1860  -10.6222  -15.4563 C   0  0  2  0  0  0  0  0  0  0  0  0
   17.8168  -11.9762  -15.1685 N   0  0  0  0  0  0  0  0  0  0  0  0
   18.4864   -9.8141  -14.2662 C   0  0  0  0  0  0  0  0  0  0  0  0
   18.0886  -10.2613  -13.1522 O   0  0  0  0  0  0  0  0  0  0  0  0
   19.1857   -8.5749  -14.2677 N   0  0  0  0  0  0  0  0  0  0  0  0
   19.5519   -7.8809  -13.0679 C   0  0  1  0  0  0  0  0  0  0  0  0
   20.6553   -6.8970  -13.3754 C   0  0  0  0  0  0  0  0  0  0  0  0
   21.0986   -6.1348  -12.1991 C   0  0  0  0  0  0  0  0  0  0  0  0
   21.1089   -6.6961  -11.0798 O   0  0  0  0  0  0  0  0  0  0  0  0
   18.3959   -7.2330  -12.4022 C   0  0  0  0  0  0  0  0  0  0  0  0
   17.6156   -6.4758  -13.0455 O   0  0  0  0  0  0  0  0  0  0  0  0
   21.5076   -4.8165  -12.2728 O   0  0  0  0  0  0  0  0  0  0  0  0
   18.0932   -7.4144  -11.0290 N   0  0  0  0  0  0  0  0  0  0  0  0
   16.9462   -6.7816  -10.3672 C   0  0  1  0  0  0  0  0  0  0  0  0
   15.9900   -7.7881   -9.8629 C   0  0  0  0  0  0  0  0  0  0  0  0
   14.7356   -7.1575   -9.3369 C   0  0  0  0  0  0  0  0  0  0  0  0
   13.7760   -8.2246   -8.7938 C   0  0  0  0  0  0  0  0  0  0  0  0
   12.5059   -7.5230   -8.3855 C   0  0  0  0  0  0  0  0  0  0  0  0
   11.5272   -8.4055   -7.8306 N   0  0  0  0  0  0  0  0  0  0  0  0
   17.4436   -5.9149   -9.2881 C   0  0  0  0  0  0  0  0  0  0  0  0
   18.6078   -6.1269   -8.8388 O   0  0  0  0  0  0  0  0  0  0  0  0
   16.7596   -4.8729   -8.7071 O   0  0  0  0  0  0  0  0  0  0  0  0
  2  1  1  6
  2  3  1  0
  4  2  1  0
  4  5  1  1
  6  8  1  0
  6  4  1  0
  7  6  2  0
  9 10  1  6
  9  8  1  0
 11 10  1  0
 12 11  2  0
 13 14  2  0
 13  9  1  0
 15 11  1  0
 16 13  1  0
 17 23  1  0
 17 16  1  0
 17 18  1  1
 19 20  1  0
 19 18  1  0
 20 21  1  0
 21 22  1  0
 23 25  1  0
 24 23  2  0
M  END
$$$$
