TDK.pdb
     RDKit          3D

 25 24  0  0  1  0  0  0  0  0999 V2000
   25.7433  -32.2706   -3.4980 C   0  0  0  0  0  0  0  0  0  0  0  0
   25.2796  -33.3973   -4.3594 C   0  0  1  0  0  0  0  0  0  0  0  0
   24.5036  -32.9095   -5.3860 O   0  0  0  0  0  0  0  0  0  0  0  0
   26.4171  -34.1996   -4.9673 C   0  0  2  0  0  0  0  0  0  0  0  0
   25.9794  -35.1096   -5.9836 N   0  0  0  0  0  0  0  0  0  0  0  0
   27.1429  -34.8372   -3.8600 C   0  0  0  0  0  0  0  0  0  0  0  0
   26.4860  -35.6247   -3.1199 O   0  0  0  0  0  0  0  0  0  0  0  0
   28.5189  -34.6402   -3.5559 N   0  0  0  0  0  0  0  0  0  0  0  0
   29.1481  -35.1821   -2.3873 C   0  0  1  0  0  0  0  0  0  0  0  0
   30.6113  -34.8089   -2.3876 C   0  0  0  0  0  0  0  0  0  0  0  0
   31.3652  -35.4130   -1.2797 C   0  0  0  0  0  0  0  0  0  0  0  0
   31.7236  -34.6892   -0.3226 O   0  0  0  0  0  0  0  0  0  0  0  0
   28.4701  -34.7815   -1.1307 C   0  0  0  0  0  0  0  0  0  0  0  0
   27.9720  -33.6279   -0.9998 O   0  0  0  0  0  0  0  0  0  0  0  0
   31.6994  -36.7538   -1.2458 O   0  0  0  0  0  0  0  0  0  0  0  0
   28.3370  -35.6457   -0.0146 N   0  0  0  0  0  0  0  0  0  0  0  0
   27.7087  -35.2391    1.2479 C   0  0  1  0  0  0  0  0  0  0  0  0
   26.2350  -35.2725    1.1538 C   0  0  0  0  0  0  0  0  0  0  0  0
   25.5807  -34.9245    2.4572 C   0  0  0  0  0  0  0  0  0  0  0  0
   24.0526  -34.9881    2.3333 C   0  0  0  0  0  0  0  0  0  0  0  0
   23.4823  -33.9288    3.2416 C   0  0  0  0  0  0  0  0  0  0  0  0
   22.0533  -33.8801    3.2238 N   0  0  0  0  0  0  0  0  0  0  0  0
   28.2052  -36.1102    2.3238 C   0  0  0  0  0  0  0  0  0  0  0  0
   28.9729  -37.0672    2.0127 O   0  0  0  0  0  0  0  0  0  0  0  0
   27.9171  -35.9865    3.6628 O   0  0  0  0  0  0  0  0  0  0  0  0
  2  1  1  6
  2  3  1  0
  4  2  1  0
  4  5  1  6
  6  8  1  0
  6  4  1  0
  7  6  2  0
  9 10  1  1
  9  8  1  0
 11 10  1  0
 12 11  2  0
 13 14  2  0
 13  9  1  0
 15 11  1  0
 16 13  1  0
 17 23  1  0
 17 16  1  0
 17 18  1  6
 19 20  1  0
 19 18  1  0
 20 21  1  0
 21 22  1  0
 23 25  1  0
 24 23  2  0
M  END
$$$$
