TDK.pdb
     RDKit          3D

 25 24  0  0  1  0  0  0  0  0999 V2000
   24.9612  -23.0905  -18.1056 C   0  0  0  0  0  0  0  0  0  0  0  0
   25.7045  -22.2951  -17.0852 C   0  0  1  0  0  0  0  0  0  0  0  0
   25.9745  -23.0813  -15.9884 O   0  0  0  0  0  0  0  0  0  0  0  0
   27.0189  -21.7332  -17.5986 C   0  0  2  0  0  0  0  0  0  0  0  0
   26.8434  -20.7381  -18.6143 N   0  0  0  0  0  0  0  0  0  0  0  0
   27.8509  -22.8727  -18.0093 C   0  0  0  0  0  0  0  0  0  0  0  0
   27.5597  -23.4315  -19.1058 O   0  0  0  0  0  0  0  0  0  0  0  0
   28.9525  -23.3946  -17.2752 N   0  0  0  0  0  0  0  0  0  0  0  0
   29.7457  -24.4979  -17.7320 C   0  0  1  0  0  0  0  0  0  0  0  0
   31.1933  -24.2547  -17.3778 C   0  0  0  0  0  0  0  0  0  0  0  0
   32.1194  -25.1744  -18.0541 C   0  0  0  0  0  0  0  0  0  0  0  0
   31.6702  -25.9649  -18.9152 O   0  0  0  0  0  0  0  0  0  0  0  0
   29.2593  -25.8045  -17.2263 C   0  0  0  0  0  0  0  0  0  0  0  0
   29.1255  -26.0133  -15.9876 O   0  0  0  0  0  0  0  0  0  0  0  0
   33.4740  -25.2068  -17.7808 O   0  0  0  0  0  0  0  0  0  0  0  0
   28.9186  -26.8851  -18.0786 N   0  0  0  0  0  0  0  0  0  0  0  0
   28.3716  -28.1556  -17.5882 C   0  0  1  0  0  0  0  0  0  0  0  0
   27.4993  -28.7934  -18.5952 C   0  0  0  0  0  0  0  0  0  0  0  0
   26.9219  -30.0858  -18.1008 C   0  0  0  0  0  0  0  0  0  0  0  0
   25.7084  -29.8297  -17.1974 C   0  0  0  0  0  0  0  0  0  0  0  0
   25.1690  -31.1726  -16.7755 C   0  0  0  0  0  0  0  0  0  0  0  0
   23.9988  -31.0794  -15.9592 N   0  0  0  0  0  0  0  0  0  0  0  0
   29.4877  -29.0318  -17.2019 C   0  0  0  0  0  0  0  0  0  0  0  0
   30.5364  -29.0128  -17.9105 O   0  0  0  0  0  0  0  0  0  0  0  0
   29.5104  -29.8858  -16.1241 O   0  0  0  0  0  0  0  0  0  0  0  0
  2  1  1  6
  2  3  1  0
  4  2  1  0
  4  5  1  6
  6  8  1  0
  6  4  1  0
  7  6  2  0
  9 10  1  1
  9  8  1  0
 11 10  1  0
 12 11  2  0
 13 14  2  0
 13  9  1  0
 15 11  1  0
 16 13  1  0
 17 23  1  0
 17 16  1  0
 17 18  1  6
 19 20  1  0
 19 18  1  0
 20 21  1  0
 21 22  1  0
 23 25  1  0
 24 23  2  0
M  END
$$$$
