TDK.pdb
     RDKit          3D

 25 24  0  0  1  0  0  0  0  0999 V2000
   25.6314  -23.1720  -16.8036 C   0  0  0  0  0  0  0  0  0  0  0  0
   24.6522  -22.5340  -15.8760 C   0  0  1  0  0  0  0  0  0  0  0  0
   24.8802  -22.9660  -14.5893 O   0  0  0  0  0  0  0  0  0  0  0  0
   24.7153  -21.0164  -15.8828 C   0  0  2  0  0  0  0  0  0  0  0  0
   26.0538  -20.5116  -15.8055 N   0  0  0  0  0  0  0  0  0  0  0  0
   23.8283  -20.5371  -14.8137 C   0  0  0  0  0  0  0  0  0  0  0  0
   24.1624  -19.4686  -14.2254 O   0  0  0  0  0  0  0  0  0  0  0  0
   22.6297  -21.1762  -14.3901 N   0  0  0  0  0  0  0  0  0  0  0  0
   21.6730  -20.5515  -13.5242 C   0  0  1  0  0  0  0  0  0  0  0  0
   21.1128  -19.3229  -14.2003 C   0  0  0  0  0  0  0  0  0  0  0  0
   20.1468  -18.5912  -13.3681 C   0  0  0  0  0  0  0  0  0  0  0  0
   20.3415  -18.5178  -12.1333 O   0  0  0  0  0  0  0  0  0  0  0  0
   20.6053  -21.4804  -13.0810 C   0  0  0  0  0  0  0  0  0  0  0  0
   19.8549  -22.0558  -13.9187 O   0  0  0  0  0  0  0  0  0  0  0  0
   19.0248  -17.9759  -13.8904 O   0  0  0  0  0  0  0  0  0  0  0  0
   20.3584  -21.7803  -11.7174 N   0  0  0  0  0  0  0  0  0  0  0  0
   19.3774  -22.7794  -11.2778 C   0  0  1  0  0  0  0  0  0  0  0  0
   19.5345  -23.0971   -9.8439 C   0  0  0  0  0  0  0  0  0  0  0  0
   18.6237  -24.2066   -9.4110 C   0  0  0  0  0  0  0  0  0  0  0  0
   18.8544  -24.5559   -7.9348 C   0  0  0  0  0  0  0  0  0  0  0  0
   17.9122  -25.6791   -7.5847 C   0  0  0  0  0  0  0  0  0  0  0  0
   18.1714  -26.2536   -6.3012 N   0  0  0  0  0  0  0  0  0  0  0  0
   18.0276  -22.2797  -11.5797 C   0  0  0  0  0  0  0  0  0  0  0  0
   17.8122  -21.0368  -11.4745 O   0  0  0  0  0  0  0  0  0  0  0  0
   16.9531  -23.0407  -11.9767 O   0  0  0  0  0  0  0  0  0  0  0  0
  2  1  1  6
  2  3  1  0
  4  2  1  0
  4  5  1  1
  6  8  1  0
  6  4  1  0
  7  6  2  0
  9 10  1  6
  9  8  1  0
 11 10  1  0
 12 11  2  0
 13 14  2  0
 13  9  1  0
 15 11  1  0
 16 13  1  0
 17 23  1  0
 17 16  1  0
 17 18  1  1
 19 20  1  0
 19 18  1  0
 20 21  1  0
 21 22  1  0
 23 25  1  0
 24 23  2  0
M  END
$$$$
