TDK.pdb
     RDKit          3D

 25 24  0  0  1  0  0  0  0  0999 V2000
   20.7537  -10.4919  -15.4624 C   0  0  0  0  0  0  0  0  0  0  0  0
   19.5764  -11.2387  -15.9939 C   0  0  1  0  0  0  0  0  0  0  0  0
   19.9878  -12.4407  -16.5231 O   0  0  0  0  0  0  0  0  0  0  0  0
   18.5176  -11.5230  -14.9427 C   0  0  2  0  0  0  0  0  0  0  0  0
   17.5758  -12.5216  -15.3529 N   0  0  0  0  0  0  0  0  0  0  0  0
   17.9096  -10.2366  -14.5753 C   0  0  0  0  0  0  0  0  0  0  0  0
   17.3942   -9.5569  -15.5089 O   0  0  0  0  0  0  0  0  0  0  0  0
   17.8550   -9.6978  -13.2595 N   0  0  0  0  0  0  0  0  0  0  0  0
   17.3250   -8.3984  -12.9668 C   0  0  1  0  0  0  0  0  0  0  0  0
   17.1934   -8.2364  -11.4713 C   0  0  0  0  0  0  0  0  0  0  0  0
   16.1641   -9.1042  -10.8811 C   0  0  0  0  0  0  0  0  0  0  0  0
   15.4277   -9.7757  -11.6393 O   0  0  0  0  0  0  0  0  0  0  0  0
   18.1154   -7.3032  -13.5794 C   0  0  0  0  0  0  0  0  0  0  0  0
   19.3694   -7.3958  -13.7013 O   0  0  0  0  0  0  0  0  0  0  0  0
   15.9705   -9.2137   -9.5169 O   0  0  0  0  0  0  0  0  0  0  0  0
   17.5316   -6.1037  -14.0599 N   0  0  0  0  0  0  0  0  0  0  0  0
   18.2789   -5.0910  -14.8147 C   0  0  1  0  0  0  0  0  0  0  0  0
   18.7563   -5.6230  -16.1073 C   0  0  0  0  0  0  0  0  0  0  0  0
   19.3630   -4.5537  -16.9655 C   0  0  0  0  0  0  0  0  0  0  0  0
   19.7448   -5.1122  -18.3427 C   0  0  0  0  0  0  0  0  0  0  0  0
   20.3581   -3.9843  -19.1325 C   0  0  0  0  0  0  0  0  0  0  0  0
   20.5885   -4.3160  -20.5041 N   0  0  0  0  0  0  0  0  0  0  0  0
   17.4215   -3.9098  -14.9957 C   0  0  0  0  0  0  0  0  0  0  0  0
   16.1687   -4.0583  -14.8926 O   0  0  0  0  0  0  0  0  0  0  0  0
   17.8512   -2.6321  -15.2679 O   0  0  0  0  0  0  0  0  0  0  0  0
  2  1  1  1
  2  3  1  0
  4  2  1  0
  4  5  1  6
  6  8  1  0
  6  4  1  0
  7  6  2  0
  9 10  1  1
  9  8  1  0
 11 10  1  0
 12 11  2  0
 13 14  2  0
 13  9  1  0
 15 11  1  0
 16 13  1  0
 17 23  1  0
 17 16  1  0
 17 18  1  6
 19 20  1  0
 19 18  1  0
 20 21  1  0
 21 22  1  0
 23 25  1  0
 24 23  2  0
M  END
$$$$
