TDK.pdb
     RDKit          3D

 25 24  0  0  1  0  0  0  0  0999 V2000
   28.5539  -17.7595  -15.4136 C   0  0  0  0  0  0  0  0  0  0  0  0
   27.3400  -18.4804  -14.9307 C   0  0  1  0  0  0  0  0  0  0  0  0
   26.3248  -18.3505  -15.8508 O   0  0  0  0  0  0  0  0  0  0  0  0
   27.5736  -19.9619  -14.6910 C   0  0  2  0  0  0  0  0  0  0  0  0
   27.9763  -20.6635  -15.8735 N   0  0  0  0  0  0  0  0  0  0  0  0
   26.3620  -20.4985  -14.0557 C   0  0  0  0  0  0  0  0  0  0  0  0
   25.7274  -21.3901  -14.6894 O   0  0  0  0  0  0  0  0  0  0  0  0
   25.8487  -20.0966  -12.7909 N   0  0  0  0  0  0  0  0  0  0  0  0
   24.6482  -20.6385  -12.2250 C   0  0  1  0  0  0  0  0  0  0  0  0
   24.6667  -20.4412  -10.7280 C   0  0  0  0  0  0  0  0  0  0  0  0
   25.3948  -21.4983  -10.0116 C   0  0  0  0  0  0  0  0  0  0  0  0
   25.7074  -22.5441  -10.6254 O   0  0  0  0  0  0  0  0  0  0  0  0
   23.4195  -20.0866  -12.8454 C   0  0  0  0  0  0  0  0  0  0  0  0
   23.1846  -18.8453  -12.8305 O   0  0  0  0  0  0  0  0  0  0  0  0
   25.7528  -21.3900   -8.6809 O   0  0  0  0  0  0  0  0  0  0  0  0
   22.4454  -20.8952  -13.4839 N   0  0  0  0  0  0  0  0  0  0  0  0
   21.2516  -20.3500  -14.1407 C   0  0  1  0  0  0  0  0  0  0  0  0
   21.1903  -20.7425  -15.5634 C   0  0  0  0  0  0  0  0  0  0  0  0
   19.9540  -20.2258  -16.2361 C   0  0  0  0  0  0  0  0  0  0  0  0
   19.8140  -20.8160  -17.6455 C   0  0  0  0  0  0  0  0  0  0  0  0
   18.6221  -20.1586  -18.2932 C   0  0  0  0  0  0  0  0  0  0  0  0
   18.3836  -20.6125  -19.6280 N   0  0  0  0  0  0  0  0  0  0  0  0
   20.0612  -20.7964  -13.4013 C   0  0  0  0  0  0  0  0  0  0  0  0
   20.0718  -21.9560  -12.8941 O   0  0  0  0  0  0  0  0  0  0  0  0
   18.9142  -20.0655  -13.1974 O   0  0  0  0  0  0  0  0  0  0  0  0
  2  1  1  6
  2  3  1  0
  4  2  1  0
  4  5  1  6
  6  8  1  0
  6  4  1  0
  7  6  2  0
  9 10  1  1
  9  8  1  0
 11 10  1  0
 12 11  2  0
 13 14  2  0
 13  9  1  0
 15 11  1  0
 16 13  1  0
 17 23  1  0
 17 16  1  0
 17 18  1  6
 19 20  1  0
 19 18  1  0
 20 21  1  0
 21 22  1  0
 23 25  1  0
 24 23  2  0
M  END
$$$$
