TDK.pdb
     RDKit          3D

 25 24  0  0  1  0  0  0  0  0999 V2000
   14.6973  -11.9910   -9.8113 C   0  0  0  0  0  0  0  0  0  0  0  0
   15.1318  -10.6781  -10.3716 C   0  0  1  0  0  0  0  0  0  0  0  0
   14.9082  -10.6545  -11.7293 O   0  0  0  0  0  0  0  0  0  0  0  0
   14.4131   -9.4911   -9.7538 C   0  0  2  0  0  0  0  0  0  0  0  0
   13.0043   -9.4923  -10.0145 N   0  0  0  0  0  0  0  0  0  0  0  0
   15.1077   -8.2769  -10.2038 C   0  0  0  0  0  0  0  0  0  0  0  0
   14.7961   -7.8251  -11.3432 O   0  0  0  0  0  0  0  0  0  0  0  0
   16.0979   -7.5726   -9.4635 N   0  0  0  0  0  0  0  0  0  0  0  0
   16.7221   -6.3716   -9.9357 C   0  0  1  0  0  0  0  0  0  0  0  0
   16.6002   -5.2963   -8.8825 C   0  0  0  0  0  0  0  0  0  0  0  0
   15.2442   -4.7389   -8.7754 C   0  0  0  0  0  0  0  0  0  0  0  0
   14.4718   -4.8267   -9.7571 O   0  0  0  0  0  0  0  0  0  0  0  0
   18.1279   -6.5817  -10.3586 C   0  0  0  0  0  0  0  0  0  0  0  0
   18.9960   -7.0039   -9.5436 O   0  0  0  0  0  0  0  0  0  0  0  0
   14.7792   -4.1174   -7.6317 O   0  0  0  0  0  0  0  0  0  0  0  0
   18.5847   -6.3291  -11.6769 N   0  0  0  0  0  0  0  0  0  0  0  0
   19.9544   -6.6111  -12.1221 C   0  0  1  0  0  0  0  0  0  0  0  0
   19.9661   -7.4610  -13.3301 C   0  0  0  0  0  0  0  0  0  0  0  0
   21.3606   -7.7826  -13.7775 C   0  0  0  0  0  0  0  0  0  0  0  0
   21.3468   -8.4782  -15.1451 C   0  0  0  0  0  0  0  0  0  0  0  0
   21.2874   -9.9634  -14.8949 C   0  0  0  0  0  0  0  0  0  0  0  0
   21.1586  -10.7327  -16.0933 N   0  0  0  0  0  0  0  0  0  0  0  0
   20.6491   -5.3348  -12.3480 C   0  0  0  0  0  0  0  0  0  0  0  0
   21.9121   -5.3476  -12.4326 O   0  0  0  0  0  0  0  0  0  0  0  0
   20.0539   -4.1024  -12.4830 O   0  0  0  0  0  0  0  0  0  0  0  0
  2  1  1  1
  2  3  1  0
  4  2  1  0
  4  5  1  6
  6  8  1  0
  6  4  1  0
  7  6  2  0
  9 10  1  1
  9  8  1  0
 11 10  1  0
 12 11  2  0
 13 14  2  0
 13  9  1  0
 15 11  1  0
 16 13  1  0
 17 23  1  0
 17 16  1  0
 17 18  1  6
 19 20  1  0
 19 18  1  0
 20 21  1  0
 21 22  1  0
 23 25  1  0
 24 23  2  0
M  END
$$$$
