TDK.pdb
     RDKit          3D

 25 24  0  0  1  0  0  0  0  0999 V2000
   21.2480  -10.2519  -17.7466 C   0  0  0  0  0  0  0  0  0  0  0  0
   22.0540  -11.0453  -16.7734 C   0  0  1  0  0  0  0  0  0  0  0  0
   22.6385  -12.1136  -17.4147 O   0  0  0  0  0  0  0  0  0  0  0  0
   23.1522  -10.2396  -16.1012 C   0  0  2  0  0  0  0  0  0  0  0  0
   24.0394  -11.0471  -15.3181 N   0  0  0  0  0  0  0  0  0  0  0  0
   22.5025   -9.1565  -15.3500 C   0  0  0  0  0  0  0  0  0  0  0  0
   21.6558   -9.4928  -14.4729 O   0  0  0  0  0  0  0  0  0  0  0  0
   22.7490   -7.7668  -15.5300 N   0  0  0  0  0  0  0  0  0  0  0  0
   22.0168   -6.7457  -14.8398 C   0  0  1  0  0  0  0  0  0  0  0  0
   22.9389   -5.5910  -14.5294 C   0  0  0  0  0  0  0  0  0  0  0  0
   22.2753   -4.4948  -13.8090 C   0  0  0  0  0  0  0  0  0  0  0  0
   21.8715   -4.6925  -12.6402 O   0  0  0  0  0  0  0  0  0  0  0  0
   20.8048   -6.3100  -15.5751 C   0  0  0  0  0  0  0  0  0  0  0  0
   20.8666   -5.9798  -16.7929 O   0  0  0  0  0  0  0  0  0  0  0  0
   22.0751   -3.2462  -14.3671 O   0  0  0  0  0  0  0  0  0  0  0  0
   19.5219   -6.2355  -14.9758 N   0  0  0  0  0  0  0  0  0  0  0  0
   18.3137   -5.8371  -15.7074 C   0  0  1  0  0  0  0  0  0  0  0  0
   17.1528   -6.6673  -15.3271 C   0  0  0  0  0  0  0  0  0  0  0  0
   15.9235   -6.3046  -16.1051 C   0  0  0  0  0  0  0  0  0  0  0  0
   14.7343   -7.1770  -15.6820 C   0  0  0  0  0  0  0  0  0  0  0  0
   13.5466   -6.7508  -16.5066 C   0  0  0  0  0  0  0  0  0  0  0  0
   12.3352   -7.4141  -16.1361 N   0  0  0  0  0  0  0  0  0  0  0  0
   18.0643   -4.4084  -15.4634 C   0  0  0  0  0  0  0  0  0  0  0  0
   17.5127   -3.7321  -16.3803 O   0  0  0  0  0  0  0  0  0  0  0  0
   18.3727   -3.7178  -14.3148 O   0  0  0  0  0  0  0  0  0  0  0  0
  2  1  1  6
  2  3  1  0
  4  2  1  0
  4  5  1  1
  6  8  1  0
  6  4  1  0
  7  6  2  0
  9 10  1  6
  9  8  1  0
 11 10  1  0
 12 11  2  0
 13 14  2  0
 13  9  1  0
 15 11  1  0
 16 13  1  0
 17 23  1  0
 17 16  1  0
 17 18  1  1
 19 20  1  0
 19 18  1  0
 20 21  1  0
 21 22  1  0
 23 25  1  0
 24 23  2  0
M  END
$$$$
