TDK.pdb
     RDKit          3D

 25 24  0  0  1  0  0  0  0  0999 V2000
   20.8999  -12.9968  -17.5814 C   0  0  0  0  0  0  0  0  0  0  0  0
   20.8032  -11.8334  -16.6522 C   0  0  1  0  0  0  0  0  0  0  0  0
   21.7418  -11.9562  -15.6532 O   0  0  0  0  0  0  0  0  0  0  0  0
   21.0154  -10.4947  -17.3376 C   0  0  2  0  0  0  0  0  0  0  0  0
   22.3068  -10.3761  -17.9463 N   0  0  0  0  0  0  0  0  0  0  0  0
   20.7155   -9.4465  -16.3523 C   0  0  0  0  0  0  0  0  0  0  0  0
   19.5628   -9.4591  -15.8323 O   0  0  0  0  0  0  0  0  0  0  0  0
   21.6144   -8.4239  -15.9388 N   0  0  0  0  0  0  0  0  0  0  0  0
   21.2639   -7.4112  -14.9866 C   0  0  1  0  0  0  0  0  0  0  0  0
   22.5101   -6.6741  -14.5578 C   0  0  0  0  0  0  0  0  0  0  0  0
   22.2442   -5.5918  -13.5992 C   0  0  0  0  0  0  0  0  0  0  0  0
   21.7053   -5.8694  -12.5034 O   0  0  0  0  0  0  0  0  0  0  0  0
   20.2147   -6.4899  -15.4864 C   0  0  0  0  0  0  0  0  0  0  0  0
   20.3079   -5.9560  -16.6275 O   0  0  0  0  0  0  0  0  0  0  0  0
   22.5641   -4.2715  -13.8541 O   0  0  0  0  0  0  0  0  0  0  0  0
   19.0606   -6.1521  -14.7352 N   0  0  0  0  0  0  0  0  0  0  0  0
   17.9564   -5.3491  -15.2734 C   0  0  1  0  0  0  0  0  0  0  0  0
   16.6472   -5.9726  -14.9923 C   0  0  0  0  0  0  0  0  0  0  0  0
   15.5129   -5.1860  -15.5775 C   0  0  0  0  0  0  0  0  0  0  0  0
   14.1649   -5.8251  -15.2186 C   0  0  0  0  0  0  0  0  0  0  0  0
   13.0833   -4.9615  -15.8158 C   0  0  0  0  0  0  0  0  0  0  0  0
   11.7688   -5.4905  -15.6240 N   0  0  0  0  0  0  0  0  0  0  0  0
   18.0440   -3.9918  -14.7141 C   0  0  0  0  0  0  0  0  0  0  0  0
   17.5328   -3.0391  -15.3723 O   0  0  0  0  0  0  0  0  0  0  0  0
   18.6345   -3.6447  -13.5215 O   0  0  0  0  0  0  0  0  0  0  0  0
  2  1  1  6
  2  3  1  0
  4  2  1  0
  4  5  1  1
  6  8  1  0
  6  4  1  0
  7  6  2  0
  9 10  1  6
  9  8  1  0
 11 10  1  0
 12 11  2  0
 13 14  2  0
 13  9  1  0
 15 11  1  0
 16 13  1  0
 17 23  1  0
 17 16  1  0
 17 18  1  1
 19 20  1  0
 19 18  1  0
 20 21  1  0
 21 22  1  0
 23 25  1  0
 24 23  2  0
M  END
$$$$
