TDK.pdb
     RDKit          3D

 25 24  0  0  1  0  0  0  0  0999 V2000
   20.7906  -12.7278  -17.0467 C   0  0  0  0  0  0  0  0  0  0  0  0
   19.3081  -12.8208  -16.9056 C   0  0  1  0  0  0  0  0  0  0  0  0
   18.9311  -14.1412  -16.8141 O   0  0  0  0  0  0  0  0  0  0  0  0
   18.7712  -12.0907  -15.6867 C   0  0  2  0  0  0  0  0  0  0  0  0
   17.3845  -12.3548  -15.4420 N   0  0  0  0  0  0  0  0  0  0  0  0
   19.0926  -10.6665  -15.8533 C   0  0  0  0  0  0  0  0  0  0  0  0
   18.5108  -10.0518  -16.7929 O   0  0  0  0  0  0  0  0  0  0  0  0
   20.0019   -9.9278  -15.0456 N   0  0  0  0  0  0  0  0  0  0  0  0
   20.3960   -8.5815  -15.3409 C   0  0  1  0  0  0  0  0  0  0  0  0
   21.1283   -8.0022  -14.1541 C   0  0  0  0  0  0  0  0  0  0  0  0
   21.5679   -6.6151  -14.3630 C   0  0  0  0  0  0  0  0  0  0  0  0
   21.3006   -6.0499  -15.4480 O   0  0  0  0  0  0  0  0  0  0  0  0
   21.1865   -8.4744  -16.5910 C   0  0  0  0  0  0  0  0  0  0  0  0
   22.0581   -9.3402  -16.8854 O   0  0  0  0  0  0  0  0  0  0  0  0
   22.2683   -5.9008  -13.4092 O   0  0  0  0  0  0  0  0  0  0  0  0
   21.0226   -7.4171  -17.5213 N   0  0  0  0  0  0  0  0  0  0  0  0
   21.7314   -7.3572  -18.8050 C   0  0  1  0  0  0  0  0  0  0  0  0
   21.3864   -8.5057  -19.6673 C   0  0  0  0  0  0  0  0  0  0  0  0
   22.0735   -8.4357  -20.9981 C   0  0  0  0  0  0  0  0  0  0  0  0
   21.7314   -9.6633  -21.8527 C   0  0  0  0  0  0  0  0  0  0  0  0
   22.4942   -9.5385  -23.1468 C   0  0  0  0  0  0  0  0  0  0  0  0
   22.1409  -10.5360  -24.1084 N   0  0  0  0  0  0  0  0  0  0  0  0
   21.4208   -6.0755  -19.4559 C   0  0  0  0  0  0  0  0  0  0  0  0
   22.0181   -5.7923  -20.5354 O   0  0  0  0  0  0  0  0  0  0  0  0
   20.5259   -5.1343  -19.0036 O   0  0  0  0  0  0  0  0  0  0  0  0
  2  1  1  1
  2  3  1  0
  4  2  1  0
  4  5  1  6
  6  8  1  0
  6  4  1  0
  7  6  2  0
  9 10  1  1
  9  8  1  0
 11 10  1  0
 12 11  2  0
 13 14  2  0
 13  9  1  0
 15 11  1  0
 16 13  1  0
 17 23  1  0
 17 16  1  0
 17 18  1  6
 19 20  1  0
 19 18  1  0
 20 21  1  0
 21 22  1  0
 23 25  1  0
 24 23  2  0
M  END
$$$$
