QCS.pdb
     RDKit          3D

 22 21  0  0  1  0  0  0  0  0999 V2000
   12.5619  -18.2608   13.3772 N   0  0  0  0  0  0  0  0  0  0  0  0
   11.2888  -17.6166   13.5307 C   0  0  0  0  0  0  0  0  0  0  0  0
   10.2585  -18.0652   12.9765 O   0  0  0  0  0  0  0  0  0  0  0  0
   11.2297  -16.4061   14.3589 C   0  0  0  0  0  0  0  0  0  0  0  0
   10.8762  -16.6206   15.7781 C   0  0  0  0  0  0  0  0  0  0  0  0
   11.7811  -17.4654   16.5975 C   0  0  2  0  0  0  0  0  0  0  0  0
   11.5157  -18.8554   16.5784 N   0  0  0  0  0  0  0  0  0  0  0  0
   11.7302  -16.9067   18.0007 C   0  0  0  0  0  0  0  0  0  0  0  0
   11.9998  -15.6880   18.2200 O   0  0  0  0  0  0  0  0  0  0  0  0
   11.3857  -17.6974   19.1218 N   0  0  0  0  0  0  0  0  0  0  0  0
   11.4015  -17.1840   20.4779 C   0  0  1  0  0  0  0  0  0  0  0  0
   10.4941  -18.0247   21.3827 C   0  0  0  0  0  0  0  0  0  0  0  0
    8.7420  -17.7270   20.9674 S   0  0  0  0  0  0  0  0  0  0  0  0
   12.7464  -17.2014   21.0744 C   0  0  0  0  0  0  0  0  0  0  0  0
   13.5136  -18.1669   20.8269 O   0  0  0  0  0  0  0  0  0  0  0  0
   16.4209  -14.8671   23.2598 O   0  0  0  0  0  0  0  0  0  0  0  0
   15.1622  -14.8460   22.7015 C   0  0  0  0  0  0  0  0  0  0  0  0
   14.5581  -16.2224   22.5307 C   0  0  2  0  0  0  0  0  0  0  0  0
   13.2581  -16.1863   21.9298 N   0  0  0  0  0  0  0  0  0  0  0  0
   14.4497  -16.8631   23.8612 C   0  0  0  0  0  0  0  0  0  0  0  0
   15.4947  -17.6084   24.3546 O   0  0  0  0  0  0  0  0  0  0  0  0
   13.4057  -16.7403   24.5650 O   0  0  0  0  0  0  0  0  0  0  0  0
  1  2  1  0
  2  3  2  0
  4  5  1  0
  4  2  1  0
  6  8  1  0
  6  5  1  0
  6  7  1  1
  8 10  1  0
  9  8  2  0
 10 11  1  0
 11 14  1  0
 11 12  1  1
 13 12  1  0
 14 15  2  0
 14 19  1  0
 16 17  1  0
 18 17  1  1
 18 20  1  0
 19 18  1  0
 20 21  1  0
 22 20  2  0
M  END
$$$$
