QCS.pdb
     RDKit          3D

 22 21  0  0  1  0  0  0  0  0999 V2000
    6.5933  -18.4267   20.0811 N   0  0  0  0  0  0  0  0  0  0  0  0
    6.4888  -17.6240   18.8963 C   0  0  0  0  0  0  0  0  0  0  0  0
    5.8938  -18.0404   17.8753 O   0  0  0  0  0  0  0  0  0  0  0  0
    7.1069  -16.2927   18.9148 C   0  0  0  0  0  0  0  0  0  0  0  0
    7.6725  -15.8698   20.2135 C   0  0  0  0  0  0  0  0  0  0  0  0
    7.3510  -14.5037   20.6975 C   0  0  2  0  0  0  0  0  0  0  0  0
    7.7129  -13.4410   19.8358 N   0  0  0  0  0  0  0  0  0  0  0  0
    8.0023  -14.3687   22.0544 C   0  0  0  0  0  0  0  0  0  0  0  0
    9.2607  -14.2606   22.1579 O   0  0  0  0  0  0  0  0  0  0  0  0
    7.2580  -14.3555   23.2570 N   0  0  0  0  0  0  0  0  0  0  0  0
    7.8814  -14.4042   24.5654 C   0  0  1  0  0  0  0  0  0  0  0  0
    6.8752  -14.0212   25.6561 C   0  0  0  0  0  0  0  0  0  0  0  0
    6.4010  -12.2670   25.4864 S   0  0  0  0  0  0  0  0  0  0  0  0
    8.3951  -15.7421   24.8985 C   0  0  0  0  0  0  0  0  0  0  0  0
    7.6426  -16.7399   24.7564 O   0  0  0  0  0  0  0  0  0  0  0  0
   11.5664  -17.4661   23.7461 O   0  0  0  0  0  0  0  0  0  0  0  0
   11.5443  -17.6059   25.1159 C   0  0  0  0  0  0  0  0  0  0  0  0
   10.1948  -17.3022   25.7286 C   0  0  2  0  0  0  0  0  0  0  0  0
    9.7085  -16.0003   25.3804 N   0  0  0  0  0  0  0  0  0  0  0  0
   10.3107  -17.3885   27.2022 C   0  0  0  0  0  0  0  0  0  0  0  0
   10.7244  -18.5589   27.7938 O   0  0  0  0  0  0  0  0  0  0  0  0
   10.0349  -16.3990   27.9406 O   0  0  0  0  0  0  0  0  0  0  0  0
  1  2  1  0
  2  3  2  0
  4  5  1  0
  4  2  1  0
  6  8  1  0
  6  5  1  0
  6  7  1  6
  8 10  1  0
  9  8  2  0
 10 11  1  0
 11 14  1  0
 11 12  1  1
 13 12  1  0
 14 15  2  0
 14 19  1  0
 16 17  1  0
 18 17  1  6
 18 20  1  0
 19 18  1  0
 20 21  1  0
 22 20  2  0
M  END
$$$$
