QCS.pdb
     RDKit          3D

 22 21  0  0  1  0  0  0  0  0999 V2000
    8.9689  -12.5985   17.2456 N   0  0  0  0  0  0  0  0  0  0  0  0
    8.1762  -13.6840   16.7430 C   0  0  0  0  0  0  0  0  0  0  0  0
    7.9826  -13.8377   15.5147 O   0  0  0  0  0  0  0  0  0  0  0  0
    7.5918  -14.6133   17.7176 C   0  0  0  0  0  0  0  0  0  0  0  0
    7.8885  -14.3204   19.1358 C   0  0  0  0  0  0  0  0  0  0  0  0
    7.3808  -15.2677   20.1599 C   0  0  2  0  0  0  0  0  0  0  0  0
    5.9732  -15.3540   20.2790 N   0  0  0  0  0  0  0  0  0  0  0  0
    8.0280  -14.8694   21.4661 C   0  0  0  0  0  0  0  0  0  0  0  0
    8.1505  -13.6476   21.7791 O   0  0  0  0  0  0  0  0  0  0  0  0
    8.5215  -15.8192   22.3907 N   0  0  0  0  0  0  0  0  0  0  0  0
    9.2413  -15.4433   23.5921 C   0  0  1  0  0  0  0  0  0  0  0  0
    8.3146  -14.7105   24.5683 C   0  0  0  0  0  0  0  0  0  0  0  0
    6.6717  -15.5050   24.5925 S   0  0  0  0  0  0  0  0  0  0  0  0
    9.7952  -16.6039   24.3070 C   0  0  0  0  0  0  0  0  0  0  0  0
    9.1192  -17.6626   24.3723 O   0  0  0  0  0  0  0  0  0  0  0  0
   13.7303  -17.4560   24.1759 O   0  0  0  0  0  0  0  0  0  0  0  0
   13.2107  -17.7124   25.4252 C   0  0  0  0  0  0  0  0  0  0  0  0
   11.7009  -17.8071   25.4395 C   0  0  2  0  0  0  0  0  0  0  0  0
   11.0666  -16.6214   24.9451 N   0  0  0  0  0  0  0  0  0  0  0  0
   11.2518  -18.0423   26.8307 C   0  0  0  0  0  0  0  0  0  0  0  0
   11.6365  -19.1827   27.4958 O   0  0  0  0  0  0  0  0  0  0  0  0
   10.5130  -17.2090   27.4309 O   0  0  0  0  0  0  0  0  0  0  0  0
  1  2  1  0
  2  3  2  0
  4  5  1  0
  4  2  1  0
  6  8  1  0
  6  5  1  0
  6  7  1  1
  8 10  1  0
  9  8  2  0
 10 11  1  0
 11 14  1  0
 11 12  1  1
 13 12  1  0
 14 15  2  0
 14 19  1  0
 16 17  1  0
 18 17  1  1
 18 20  1  0
 19 18  1  0
 20 21  1  0
 22 20  2  0
M  END
$$$$
