QCS.pdb
     RDKit          3D

 22 21  0  0  1  0  0  0  0  0999 V2000
    6.4365  -17.3397   21.4348 N   0  0  0  0  0  0  0  0  0  0  0  0
    7.2443  -17.0945   20.2743 C   0  0  0  0  0  0  0  0  0  0  0  0
    7.8322  -18.0268   19.6785 O   0  0  0  0  0  0  0  0  0  0  0  0
    7.3650  -15.7089   19.8048 C   0  0  0  0  0  0  0  0  0  0  0  0
    6.6322  -14.7000   20.5988 C   0  0  0  0  0  0  0  0  0  0  0  0
    7.2999  -13.3983   20.8510 C   0  0  2  0  0  0  0  0  0  0  0  0
    8.2279  -12.9783   19.8685 N   0  0  0  0  0  0  0  0  0  0  0  0
    7.9416  -13.5063   22.2149 C   0  0  0  0  0  0  0  0  0  0  0  0
    9.1844  -13.7270   22.3273 O   0  0  0  0  0  0  0  0  0  0  0  0
    7.2050  -13.3695   23.4146 N   0  0  0  0  0  0  0  0  0  0  0  0
    7.8126  -13.4903   24.7258 C   0  0  1  0  0  0  0  0  0  0  0  0
    6.9612  -12.7772   25.7818 C   0  0  0  0  0  0  0  0  0  0  0  0
    7.6585  -13.0564   27.4452 S   0  0  0  0  0  0  0  0  0  0  0  0
    7.9567  -14.8899   25.1563 C   0  0  0  0  0  0  0  0  0  0  0  0
    6.9468  -15.6396   25.1498 O   0  0  0  0  0  0  0  0  0  0  0  0
   11.4696  -17.0571   24.9453 O   0  0  0  0  0  0  0  0  0  0  0  0
   10.2334  -17.6388   25.1189 C   0  0  0  0  0  0  0  0  0  0  0  0
    9.3128  -16.8368   26.0122 C   0  0  2  0  0  0  0  0  0  0  0  0
    9.1792  -15.4743   25.5898 N   0  0  0  0  0  0  0  0  0  0  0  0
    9.8512  -16.8568   27.3914 C   0  0  0  0  0  0  0  0  0  0  0  0
   10.0672  -18.0554   28.0298 O   0  0  0  0  0  0  0  0  0  0  0  0
   10.1212  -15.7842   28.0054 O   0  0  0  0  0  0  0  0  0  0  0  0
  1  2  1  0
  2  3  2  0
  4  5  1  0
  4  2  1  0
  6  8  1  0
  6  5  1  0
  6  7  1  6
  8 10  1  0
  9  8  2  0
 10 11  1  0
 11 14  1  0
 11 12  1  1
 13 12  1  0
 14 15  2  0
 14 19  1  0
 16 17  1  0
 18 17  1  6
 18 20  1  0
 19 18  1  0
 20 21  1  0
 22 20  2  0
M  END
$$$$
