QCS.pdb
     RDKit          3D

 22 21  0  0  1  0  0  0  0  0999 V2000
    9.1579  -20.2990   20.0950 N   0  0  0  0  0  0  0  0  0  0  0  0
    8.6763  -19.8234   18.8297 C   0  0  0  0  0  0  0  0  0  0  0  0
    8.7770  -20.5156   17.7902 O   0  0  0  0  0  0  0  0  0  0  0  0
    8.0613  -18.4912   18.7883 C   0  0  0  0  0  0  0  0  0  0  0  0
    7.9870  -17.7822   20.0833 C   0  0  0  0  0  0  0  0  0  0  0  0
    8.4325  -16.3667   20.1250 C   0  0  2  0  0  0  0  0  0  0  0  0
    9.3069  -15.9626   19.0880 N   0  0  0  0  0  0  0  0  0  0  0  0
    9.0482  -16.1543   21.4886 C   0  0  0  0  0  0  0  0  0  0  0  0
   10.2312  -16.5393   21.7293 O   0  0  0  0  0  0  0  0  0  0  0  0
    8.3517  -15.5268   22.5477 N   0  0  0  0  0  0  0  0  0  0  0  0
    8.9285  -15.3437   23.8656 C   0  0  1  0  0  0  0  0  0  0  0  0
    8.1571  -14.2749   24.6474 C   0  0  0  0  0  0  0  0  0  0  0  0
    6.5157  -14.9106   25.1298 S   0  0  0  0  0  0  0  0  0  0  0  0
    8.9028  -16.5747   24.6711 C   0  0  0  0  0  0  0  0  0  0  0  0
    8.1450  -17.5171   24.3252 O   0  0  0  0  0  0  0  0  0  0  0  0
   12.0798  -19.5477   25.4516 O   0  0  0  0  0  0  0  0  0  0  0  0
   11.3573  -18.4273   25.1062 C   0  0  0  0  0  0  0  0  0  0  0  0
   10.3436  -18.0205   26.1528 C   0  0  2  0  0  0  0  0  0  0  0  0
    9.6877  -16.7862   25.8387 N   0  0  0  0  0  0  0  0  0  0  0  0
   11.0352  -17.8742   27.4539 C   0  0  0  0  0  0  0  0  0  0  0  0
   11.1429  -16.6359   28.0419 O   0  0  0  0  0  0  0  0  0  0  0  0
   11.5362  -18.8735   28.0461 O   0  0  0  0  0  0  0  0  0  0  0  0
  1  2  1  0
  2  3  2  0
  4  5  1  0
  4  2  1  0
  6  8  1  0
  6  5  1  0
  6  7  1  6
  8 10  1  0
  9  8  2  0
 10 11  1  0
 11 14  1  0
 11 12  1  1
 13 12  1  0
 14 15  2  0
 14 19  1  0
 16 17  1  0
 18 17  1  6
 18 20  1  0
 19 18  1  0
 20 21  1  0
 22 20  2  0
M  END
$$$$
