QCS.pdb
     RDKit          3D

 22 21  0  0  1  0  0  0  0  0999 V2000
   13.6028  -14.6408    9.6207 N   0  0  0  0  0  0  0  0  0  0  0  0
   12.9796  -13.5738   10.3504 C   0  0  0  0  0  0  0  0  0  0  0  0
   13.6533  -12.6423   10.8487 O   0  0  0  0  0  0  0  0  0  0  0  0
   11.5197  -13.6081   10.4997 C   0  0  0  0  0  0  0  0  0  0  0  0
   11.0178  -14.2995   11.7061 C   0  0  0  0  0  0  0  0  0  0  0  0
    9.5480  -14.4299   11.8688 C   0  0  2  0  0  0  0  0  0  0  0  0
    8.7803  -13.3064   11.4795 N   0  0  0  0  0  0  0  0  0  0  0  0
    9.3107  -14.7934   13.3163 C   0  0  0  0  0  0  0  0  0  0  0  0
    9.0419  -13.8970   14.1708 O   0  0  0  0  0  0  0  0  0  0  0  0
    9.3742  -16.1261   13.7857 N   0  0  0  0  0  0  0  0  0  0  0  0
    9.0456  -16.4936   15.1495 C   0  0  1  0  0  0  0  0  0  0  0  0
    8.1155  -17.7114   15.1701 C   0  0  0  0  0  0  0  0  0  0  0  0
    8.8066  -19.0483   14.1377 S   0  0  0  0  0  0  0  0  0  0  0  0
   10.2341  -16.8410   15.9444 C   0  0  0  0  0  0  0  0  0  0  0  0
   11.3047  -17.1301   15.3508 O   0  0  0  0  0  0  0  0  0  0  0  0
   10.0565  -17.3251   20.1245 O   0  0  0  0  0  0  0  0  0  0  0  0
   11.2644  -16.9131   19.6068 C   0  0  0  0  0  0  0  0  0  0  0  0
   11.4241  -17.2241   18.1350 C   0  0  2  0  0  0  0  0  0  0  0  0
   10.2663  -16.8760   17.3662 N   0  0  0  0  0  0  0  0  0  0  0  0
   11.6797  -18.6744   17.9799 C   0  0  0  0  0  0  0  0  0  0  0  0
   12.8449  -19.2242   18.4606 O   0  0  0  0  0  0  0  0  0  0  0  0
   10.8417  -19.4304   17.4086 O   0  0  0  0  0  0  0  0  0  0  0  0
  1  2  1  0
  2  3  2  0
  4  5  1  0
  4  2  1  0
  6  8  1  0
  6  5  1  0
  6  7  1  1
  8 10  1  0
  9  8  2  0
 10 11  1  0
 11 14  1  0
 11 12  1  6
 13 12  1  0
 14 15  2  0
 14 19  1  0
 16 17  1  0
 18 17  1  1
 18 20  1  0
 19 18  1  0
 20 21  1  0
 22 20  2  0
M  END
$$$$
