QCS.pdb
     RDKit          3D

 22 21  0  0  1  0  0  0  0  0999 V2000
    9.7921  -13.8267   17.9178 N   0  0  0  0  0  0  0  0  0  0  0  0
    8.4287  -13.4291   17.7118 C   0  0  0  0  0  0  0  0  0  0  0  0
    7.9091  -13.4437   16.5718 O   0  0  0  0  0  0  0  0  0  0  0  0
    7.6568  -12.9984   18.8837 C   0  0  0  0  0  0  0  0  0  0  0  0
    8.2533  -13.3256   20.1961 C   0  0  0  0  0  0  0  0  0  0  0  0
    7.9021  -14.6304   20.8109 C   0  0  2  0  0  0  0  0  0  0  0  0
    6.5284  -14.9708   20.7975 N   0  0  0  0  0  0  0  0  0  0  0  0
    8.4562  -14.6014   22.2166 C   0  0  0  0  0  0  0  0  0  0  0  0
    9.7002  -14.4662   22.4168 O   0  0  0  0  0  0  0  0  0  0  0  0
    7.6333  -14.7208   23.3607 N   0  0  0  0  0  0  0  0  0  0  0  0
    8.1657  -14.7560   24.7091 C   0  0  1  0  0  0  0  0  0  0  0  0
    7.0918  -14.3469   25.7231 C   0  0  0  0  0  0  0  0  0  0  0  0
    6.7019  -12.5729   25.5451 S   0  0  0  0  0  0  0  0  0  0  0  0
    8.6411  -16.0937   25.0955 C   0  0  0  0  0  0  0  0  0  0  0  0
    7.8445  -17.0656   25.0427 O   0  0  0  0  0  0  0  0  0  0  0  0
   12.6889  -17.0538   25.2453 O   0  0  0  0  0  0  0  0  0  0  0  0
   11.7294  -18.0360   25.1395 C   0  0  0  0  0  0  0  0  0  0  0  0
   10.4389  -17.6935   25.8508 C   0  0  2  0  0  0  0  0  0  0  0  0
    9.9638  -16.3794   25.5346 N   0  0  0  0  0  0  0  0  0  0  0  0
   10.6632  -17.7797   27.3119 C   0  0  0  0  0  0  0  0  0  0  0  0
   11.0198  -18.9777   27.8851 O   0  0  0  0  0  0  0  0  0  0  0  0
   10.5333  -16.7650   28.0561 O   0  0  0  0  0  0  0  0  0  0  0  0
  1  2  1  0
  2  3  2  0
  4  5  1  0
  4  2  1  0
  6  8  1  0
  6  5  1  0
  6  7  1  1
  8 10  1  0
  9  8  2  0
 10 11  1  0
 11 14  1  0
 11 12  1  1
 13 12  1  0
 14 15  2  0
 14 19  1  0
 16 17  1  0
 18 17  1  6
 18 20  1  0
 19 18  1  0
 20 21  1  0
 22 20  2  0
M  END
$$$$
