QCS.pdb
     RDKit          3D

 22 21  0  0  1  0  0  0  0  0999 V2000
    8.8218  -12.3508   18.4300 N   0  0  0  0  0  0  0  0  0  0  0  0
    8.4170  -13.5608   17.7732 C   0  0  0  0  0  0  0  0  0  0  0  0
    8.3069  -13.6221   16.5266 O   0  0  0  0  0  0  0  0  0  0  0  0
    8.1303  -14.7315   18.6111 C   0  0  0  0  0  0  0  0  0  0  0  0
    8.1896  -14.5018   20.0702 C   0  0  0  0  0  0  0  0  0  0  0  0
    7.9198  -15.6553   20.9648 C   0  0  2  0  0  0  0  0  0  0  0  0
    6.5654  -16.0520   21.0714 N   0  0  0  0  0  0  0  0  0  0  0  0
    8.5036  -15.2953   22.3113 C   0  0  0  0  0  0  0  0  0  0  0  0
    9.7476  -15.0920   22.4415 O   0  0  0  0  0  0  0  0  0  0  0  0
    7.7094  -15.1681   23.4748 N   0  0  0  0  0  0  0  0  0  0  0  0
    8.2787  -15.0189   24.8002 C   0  0  1  0  0  0  0  0  0  0  0  0
    7.2603  -14.3879   25.7559 C   0  0  0  0  0  0  0  0  0  0  0  0
    6.3765  -13.0255   24.9231 S   0  0  0  0  0  0  0  0  0  0  0  0
    8.6885  -16.3039   25.3884 C   0  0  0  0  0  0  0  0  0  0  0  0
    7.9097  -17.2885   25.3117 O   0  0  0  0  0  0  0  0  0  0  0  0
   12.6313  -17.2408   25.7338 O   0  0  0  0  0  0  0  0  0  0  0  0
   11.6682  -18.2250   25.7510 C   0  0  0  0  0  0  0  0  0  0  0  0
   10.4001  -17.8116   26.4649 C   0  0  2  0  0  0  0  0  0  0  0  0
    9.9271  -16.5235   26.0529 N   0  0  0  0  0  0  0  0  0  0  0  0
   10.6632  -17.7783   27.9217 C   0  0  0  0  0  0  0  0  0  0  0  0
   11.0274  -18.9277   28.5829 O   0  0  0  0  0  0  0  0  0  0  0  0
   10.5598  -16.7043   28.5822 O   0  0  0  0  0  0  0  0  0  0  0  0
  1  2  1  0
  2  3  2  0
  4  5  1  0
  4  2  1  0
  6  8  1  0
  6  5  1  0
  6  7  1  1
  8 10  1  0
  9  8  2  0
 10 11  1  0
 11 14  1  0
 11 12  1  1
 13 12  1  0
 14 15  2  0
 14 19  1  0
 16 17  1  0
 18 17  1  6
 18 20  1  0
 19 18  1  0
 20 21  1  0
 22 20  2  0
M  END
$$$$
