QCS.pdb
     RDKit          3D

 22 21  0  0  1  0  0  0  0  0999 V2000
    9.7837  -14.3617   17.8141 N   0  0  0  0  0  0  0  0  0  0  0  0
    8.4808  -13.8741   17.4621 C   0  0  0  0  0  0  0  0  0  0  0  0
    8.0363  -13.9812   16.2956 O   0  0  0  0  0  0  0  0  0  0  0  0
    7.6802  -13.2385   18.5156 C   0  0  0  0  0  0  0  0  0  0  0  0
    8.1750  -13.4288   19.8955 C   0  0  0  0  0  0  0  0  0  0  0  0
    7.8876  -14.7237   20.5623 C   0  0  2  0  0  0  0  0  0  0  0  0
    6.5315  -15.1287   20.5686 N   0  0  0  0  0  0  0  0  0  0  0  0
    8.4438  -14.6138   21.9631 C   0  0  0  0  0  0  0  0  0  0  0  0
    9.6708  -14.3598   22.1517 O   0  0  0  0  0  0  0  0  0  0  0  0
    7.6413  -14.7845   23.1152 N   0  0  0  0  0  0  0  0  0  0  0  0
    8.1865  -14.7749   24.4589 C   0  0  1  0  0  0  0  0  0  0  0  0
    7.1197  -14.3410   25.4700 C   0  0  0  0  0  0  0  0  0  0  0  0
    6.8601  -12.5370   25.3753 S   0  0  0  0  0  0  0  0  0  0  0  0
    8.6738  -16.0973   24.8818 C   0  0  0  0  0  0  0  0  0  0  0  0
    7.8955  -17.0836   24.8249 O   0  0  0  0  0  0  0  0  0  0  0  0
   12.7684  -16.9145   25.1767 O   0  0  0  0  0  0  0  0  0  0  0  0
   11.8407  -17.9018   24.9293 C   0  0  0  0  0  0  0  0  0  0  0  0
   10.5123  -17.6620   25.6122 C   0  0  2  0  0  0  0  0  0  0  0  0
    9.9887  -16.3522   25.3614 N   0  0  0  0  0  0  0  0  0  0  0  0
   10.6902  -17.8317   27.0723 C   0  0  0  0  0  0  0  0  0  0  0  0
   11.0804  -19.0477   27.5825 O   0  0  0  0  0  0  0  0  0  0  0  0
   10.4894  -16.8732   27.8731 O   0  0  0  0  0  0  0  0  0  0  0  0
  1  2  1  0
  2  3  2  0
  4  5  1  0
  4  2  1  0
  6  8  1  0
  6  5  1  0
  6  7  1  1
  8 10  1  0
  9  8  2  0
 10 11  1  0
 11 14  1  0
 11 12  1  1
 13 12  1  0
 14 15  2  0
 14 19  1  0
 16 17  1  0
 18 17  1  6
 18 20  1  0
 19 18  1  0
 20 21  1  0
 22 20  2  0
M  END
$$$$
