QCS.pdb
     RDKit          3D

 22 21  0  0  1  0  0  0  0  0999 V2000
   11.5904  -21.2939   17.3899 N   0  0  0  0  0  0  0  0  0  0  0  0
   12.4869  -20.2739   16.9260 C   0  0  0  0  0  0  0  0  0  0  0  0
   13.6593  -20.5443   16.5762 O   0  0  0  0  0  0  0  0  0  0  0  0
   11.9875  -18.8945   16.8763 C   0  0  0  0  0  0  0  0  0  0  0  0
   10.5788  -18.7108   17.2849 C   0  0  0  0  0  0  0  0  0  0  0  0
    9.9974  -17.3492   17.1756 C   0  0  2  0  0  0  0  0  0  0  0  0
   10.3536  -16.6156   16.0189 N   0  0  0  0  0  0  0  0  0  0  0  0
   10.3838  -16.6187   18.4408 C   0  0  0  0  0  0  0  0  0  0  0  0
   11.4483  -15.9331   18.4902 O   0  0  0  0  0  0  0  0  0  0  0  0
    9.5941  -16.6596   19.6135 N   0  0  0  0  0  0  0  0  0  0  0  0
    9.9736  -15.9821   20.8382 C   0  0  1  0  0  0  0  0  0  0  0  0
    8.8106  -15.9821   21.8364 C   0  0  0  0  0  0  0  0  0  0  0  0
    9.3345  -15.2255   23.4125 S   0  0  0  0  0  0  0  0  0  0  0  0
   11.1195  -16.6192   21.5061 C   0  0  0  0  0  0  0  0  0  0  0  0
   11.1810  -17.8746   21.5523 O   0  0  0  0  0  0  0  0  0  0  0  0
   15.5951  -16.2033   23.4682 O   0  0  0  0  0  0  0  0  0  0  0  0
   14.5097  -15.6161   22.8568 C   0  0  0  0  0  0  0  0  0  0  0  0
   13.3113  -16.5333   22.7513 C   0  0  2  0  0  0  0  0  0  0  0  0
   12.1886  -15.9076   22.1182 N   0  0  0  0  0  0  0  0  0  0  0  0
   12.9144  -16.9566   24.1136 C   0  0  0  0  0  0  0  0  0  0  0  0
   13.6057  -17.9588   24.7529 O   0  0  0  0  0  0  0  0  0  0  0  0
   11.9420  -16.4120   24.7122 O   0  0  0  0  0  0  0  0  0  0  0  0
  1  2  1  0
  2  3  2  0
  4  5  1  0
  4  2  1  0
  6  8  1  0
  6  5  1  0
  6  7  1  6
  8 10  1  0
  9  8  2  0
 10 11  1  0
 11 14  1  0
 11 12  1  1
 13 12  1  0
 14 15  2  0
 14 19  1  0
 16 17  1  0
 18 17  1  1
 18 20  1  0
 19 18  1  0
 20 21  1  0
 22 20  2  0
M  END
$$$$
