YHC.pdb
     RDKit          3D

 29 30  0  0  1  0  0  0  0  0999 V2000
   15.4169  -23.6827  -19.0339 O   0  0  0  0  0  0  0  0  0  0  0  0
   15.2734  -22.6880  -18.0538 C   0  0  0  0  0  0  0  0  0  0  0  0
   14.5272  -21.5661  -18.3106 C   0  0  0  0  0  0  0  0  0  0  0  0
   14.3872  -20.5944  -17.3527 C   0  0  0  0  0  0  0  0  0  0  0  0
   14.9742  -20.6839  -16.1028 C   0  0  0  0  0  0  0  0  0  0  0  0
   14.7989  -19.6079  -15.0894 C   0  0  0  0  0  0  0  0  0  0  0  0
   15.7953  -18.5301  -15.4162 C   0  0  2  0  0  0  0  0  0  0  0  0
   17.0791  -18.9514  -14.9198 N   0  0  0  0  0  0  0  0  0  0  0  0
   15.4564  -17.2138  -14.8964 C   0  0  0  0  0  0  0  0  0  0  0  0
   15.7663  -16.9397  -13.7110 O   0  0  0  0  0  0  0  0  0  0  0  0
   15.7226  -21.8172  -15.8563 C   0  0  0  0  0  0  0  0  0  0  0  0
   15.8728  -22.8102  -16.8182 C   0  0  0  0  0  0  0  0  0  0  0  0
   14.7923  -16.1919  -15.6277 N   0  0  0  0  0  0  0  0  0  0  0  0
   14.4770  -14.8933  -15.1426 C   0  0  1  0  0  0  0  0  0  0  0  0
   14.9781  -13.7643  -15.9916 C   0  0  0  0  0  0  0  0  0  0  0  0
   16.4529  -13.6617  -16.0104 C   0  0  0  0  0  0  0  0  0  0  0  0
   17.1638  -12.9355  -15.0772 C   0  0  0  0  0  0  0  0  0  0  0  0
   18.4579  -13.0233  -15.3412 N   0  0  0  0  0  0  0  0  0  0  0  0
   18.5832  -13.8009  -16.4375 C   0  0  0  0  0  0  0  0  0  0  0  0
   17.3559  -14.1902  -16.8450 N   0  0  0  0  0  0  0  0  0  0  0  0
   13.0279  -14.7482  -14.8471 C   0  0  0  0  0  0  0  0  0  0  0  0
   12.2158  -14.9992  -15.7737 O   0  0  0  0  0  0  0  0  0  0  0  0
   12.5234  -14.3488  -13.5983 N   0  0  0  0  0  0  0  0  0  0  0  0
   11.1163  -14.1899  -13.2991 C   0  0  1  0  0  0  0  0  0  0  0  0
   10.9173  -14.2534  -11.7914 C   0  0  0  0  0  0  0  0  0  0  0  0
    9.1675  -14.0802  -11.4292 S   0  0  0  0  0  0  0  0  0  0  0  0
   10.5849  -12.9177  -13.8618 C   0  0  0  0  0  0  0  0  0  0  0  0
   11.1837  -11.8274  -13.7068 O   0  0  0  0  0  0  0  0  0  0  0  0
    9.3964  -12.8881  -14.5857 O   0  0  0  0  0  0  0  0  0  0  0  0
  2  1  1  0
  3  2  2  0
  4  3  1  0
  5 11  1  0
  5  4  2  0
  6  5  1  0
  7  9  1  0
  7  6  1  0
  7  8  1  1
  9 10  2  0
 11 12  2  0
 12  2  1  0
 13 14  1  0
 13  9  1  0
 14 15  1  6
 16 15  1  0
 17 16  2  0
 18 19  1  0
 18 17  1  0
 19 20  2  0
 20 16  1  0
 21 22  2  0
 21 14  1  0
 23 21  1  0
 24 23  1  0
 24 27  1  0
 24 25  1  1
 26 25  1  0
 27 29  1  0
 28 27  2  0
M  END
$$$$
