YHC.pdb
     RDKit          3D

 29 30  0  0  1  0  0  0  0  0999 V2000
   24.3190  -19.0446  -24.5781 O   0  0  0  0  0  0  0  0  0  0  0  0
   24.5912  -19.2670  -23.2190 C   0  0  0  0  0  0  0  0  0  0  0  0
   23.5637  -19.4342  -22.3259 C   0  0  0  0  0  0  0  0  0  0  0  0
   23.8301  -19.6515  -20.9980 C   0  0  0  0  0  0  0  0  0  0  0  0
   25.1165  -19.7137  -20.4919 C   0  0  0  0  0  0  0  0  0  0  0  0
   25.3651  -19.9514  -19.0438 C   0  0  0  0  0  0  0  0  0  0  0  0
   24.7752  -18.7854  -18.2996 C   0  0  2  0  0  0  0  0  0  0  0  0
   25.7076  -17.6918  -18.3833 N   0  0  0  0  0  0  0  0  0  0  0  0
   24.4381  -19.0608  -16.9111 C   0  0  0  0  0  0  0  0  0  0  0  0
   25.3724  -19.2445  -16.0927 O   0  0  0  0  0  0  0  0  0  0  0  0
   26.1418  -19.5439  -21.4003 C   0  0  0  0  0  0  0  0  0  0  0  0
   25.8862  -19.3229  -22.7492 C   0  0  0  0  0  0  0  0  0  0  0  0
   23.1181  -19.1415  -16.3906 N   0  0  0  0  0  0  0  0  0  0  0  0
   22.7712  -19.4613  -15.0495 C   0  0  1  0  0  0  0  0  0  0  0  0
   21.4980  -18.8386  -14.5619 C   0  0  0  0  0  0  0  0  0  0  0  0
   21.1281  -19.2661  -13.1958 C   0  0  0  0  0  0  0  0  0  0  0  0
   22.0313  -19.3028  -12.1535 C   0  0  0  0  0  0  0  0  0  0  0  0
   21.4226  -19.7226  -11.0556 N   0  0  0  0  0  0  0  0  0  0  0  0
   20.1345  -19.9557  -11.3854 C   0  0  0  0  0  0  0  0  0  0  0  0
   19.9566  -19.6760  -12.6946 N   0  0  0  0  0  0  0  0  0  0  0  0
   22.7856  -20.9274  -14.8071 C   0  0  0  0  0  0  0  0  0  0  0  0
   22.1882  -21.6611  -15.6351 O   0  0  0  0  0  0  0  0  0  0  0  0
   23.4260  -21.5298  -13.7115 N   0  0  0  0  0  0  0  0  0  0  0  0
   23.3785  -22.9457  -13.4155 C   0  0  1  0  0  0  0  0  0  0  0  0
   24.5773  -23.3149  -12.5531 C   0  0  0  0  0  0  0  0  0  0  0  0
   25.8819  -22.1127  -12.8277 S   0  0  0  0  0  0  0  0  0  0  0  0
   22.0989  -23.3157  -12.7497 C   0  0  0  0  0  0  0  0  0  0  0  0
   21.2918  -22.4466  -12.3435 O   0  0  0  0  0  0  0  0  0  0  0  0
   21.7459  -24.6473  -12.5509 O   0  0  0  0  0  0  0  0  0  0  0  0
  2  1  1  0
  3  2  2  0
  4  3  1  0
  5 11  1  0
  5  4  2  0
  6  5  1  0
  7  9  1  0
  7  6  1  0
  7  8  1  1
  9 10  2  0
 11 12  2  0
 12  2  1  0
 13 14  1  0
 13  9  1  0
 14 15  1  6
 16 15  1  0
 17 16  2  0
 18 19  1  0
 18 17  1  0
 19 20  2  0
 20 16  1  0
 21 22  2  0
 21 14  1  0
 23 21  1  0
 24 23  1  0
 24 27  1  0
 24 25  1  1
 26 25  1  0
 27 29  1  0
 28 27  2  0
M  END
$$$$
