YHC.pdb
     RDKit          3D

 29 30  0  0  1  0  0  0  0  0999 V2000
   18.3996  -21.7034  -23.5263 O   0  0  0  0  0  0  0  0  0  0  0  0
   19.3716  -21.1746  -22.6625 C   0  0  0  0  0  0  0  0  0  0  0  0
   19.4631  -19.8195  -22.4706 C   0  0  0  0  0  0  0  0  0  0  0  0
   20.4130  -19.3032  -21.6264 C   0  0  0  0  0  0  0  0  0  0  0  0
   21.3126  -20.0960  -20.9357 C   0  0  0  0  0  0  0  0  0  0  0  0
   22.3294  -19.4979  -20.0282 C   0  0  0  0  0  0  0  0  0  0  0  0
   21.8174  -19.6642  -18.6242 C   0  0  2  0  0  0  0  0  0  0  0  0
   20.7871  -18.6816  -18.4114 N   0  0  0  0  0  0  0  0  0  0  0  0
   22.8373  -19.5630  -17.5912 C   0  0  0  0  0  0  0  0  0  0  0  0
   23.2040  -18.4207  -17.2211 O   0  0  0  0  0  0  0  0  0  0  0  0
   21.2106  -21.4577  -21.1371 C   0  0  0  0  0  0  0  0  0  0  0  0
   20.2524  -21.9947  -21.9899 C   0  0  0  0  0  0  0  0  0  0  0  0
   23.4667  -20.6657  -16.9526 N   0  0  0  0  0  0  0  0  0  0  0  0
   24.4457  -20.5835  -15.9251 C   0  0  1  0  0  0  0  0  0  0  0  0
   24.1470  -21.3981  -14.7029 C   0  0  0  0  0  0  0  0  0  0  0  0
   23.0339  -20.8512  -13.8980 C   0  0  0  0  0  0  0  0  0  0  0  0
   22.4417  -19.6350  -14.1699 C   0  0  0  0  0  0  0  0  0  0  0  0
   21.4796  -19.4053  -13.2902 N   0  0  0  0  0  0  0  0  0  0  0  0
   21.4497  -20.4655  -12.4552 C   0  0  0  0  0  0  0  0  0  0  0  0
   22.4009  -21.3485  -12.8286 N   0  0  0  0  0  0  0  0  0  0  0  0
   25.8132  -20.8571  -16.4384 C   0  0  0  0  0  0  0  0  0  0  0  0
   25.9453  -21.7789  -17.2833 O   0  0  0  0  0  0  0  0  0  0  0  0
   26.9546  -20.1459  -16.0325 N   0  0  0  0  0  0  0  0  0  0  0  0
   28.2888  -20.3851  -16.5400 C   0  0  1  0  0  0  0  0  0  0  0  0
   29.2285  -19.3202  -15.9922 C   0  0  0  0  0  0  0  0  0  0  0  0
   28.5414  -17.7006  -16.3493 S   0  0  0  0  0  0  0  0  0  0  0  0
   28.7614  -21.7539  -16.1928 C   0  0  0  0  0  0  0  0  0  0  0  0
   28.0799  -22.5246  -15.4765 O   0  0  0  0  0  0  0  0  0  0  0  0
   29.9843  -22.2347  -16.6518 O   0  0  0  0  0  0  0  0  0  0  0  0
  2  1  1  0
  3  2  2  0
  4  3  1  0
  5 11  1  0
  5  4  2  0
  6  5  1  0
  7  9  1  0
  7  6  1  0
  7  8  1  1
  9 10  2  0
 11 12  2  0
 12  2  1  0
 13 14  1  0
 13  9  1  0
 14 15  1  1
 16 15  1  0
 17 16  2  0
 18 19  1  0
 18 17  1  0
 19 20  2  0
 20 16  1  0
 21 22  2  0
 21 14  1  0
 23 21  1  0
 24 23  1  0
 24 27  1  0
 24 25  1  1
 26 25  1  0
 27 29  1  0
 28 27  2  0
M  END
$$$$
