YHC.pdb
     RDKit          3D

 29 30  0  0  1  0  0  0  0  0999 V2000
   27.8096  -23.4529  -18.0767 O   0  0  0  0  0  0  0  0  0  0  0  0
   27.6383  -24.8454  -18.0290 C   0  0  0  0  0  0  0  0  0  0  0  0
   27.5580  -25.4916  -16.8217 C   0  0  0  0  0  0  0  0  0  0  0  0
   27.3905  -26.8522  -16.7755 C   0  0  0  0  0  0  0  0  0  0  0  0
   27.2950  -27.6348  -17.9127 C   0  0  0  0  0  0  0  0  0  0  0  0
   27.1136  -29.1093  -17.8213 C   0  0  0  0  0  0  0  0  0  0  0  0
   28.3590  -29.6669  -17.1894 C   0  0  2  0  0  0  0  0  0  0  0  0
   29.4046  -29.6411  -18.1784 N   0  0  0  0  0  0  0  0  0  0  0  0
   28.2121  -31.0063  -16.6399 C   0  0  0  0  0  0  0  0  0  0  0  0
   28.2999  -31.9867  -17.4194 O   0  0  0  0  0  0  0  0  0  0  0  0
   27.3772  -26.9731  -19.1213 C   0  0  0  0  0  0  0  0  0  0  0  0
   27.5469  -25.5943  -19.1828 C   0  0  0  0  0  0  0  0  0  0  0  0
   27.9733  -31.3072  -15.2716 N   0  0  0  0  0  0  0  0  0  0  0  0
   27.7780  -32.6061  -14.7277 C   0  0  1  0  0  0  0  0  0  0  0  0
   27.6895  -32.6567  -13.2323 C   0  0  0  0  0  0  0  0  0  0  0  0
   27.4980  -34.0256  -12.7076 C   0  0  0  0  0  0  0  0  0  0  0  0
   27.4510  -35.1386  -13.5217 C   0  0  0  0  0  0  0  0  0  0  0  0
   27.2709  -36.2208  -12.7810 N   0  0  0  0  0  0  0  0  0  0  0  0
   27.2019  -35.8106  -11.4968 C   0  0  0  0  0  0  0  0  0  0  0  0
   27.3410  -34.4680  -11.4542 N   0  0  0  0  0  0  0  0  0  0  0  0
   26.6320  -33.3071  -15.3629 C   0  0  0  0  0  0  0  0  0  0  0  0
   25.5464  -32.6802  -15.4603 O   0  0  0  0  0  0  0  0  0  0  0  0
   26.6983  -34.6211  -15.8554 N   0  0  0  0  0  0  0  0  0  0  0  0
   25.5895  -35.3196  -16.4697 C   0  0  1  0  0  0  0  0  0  0  0  0
   26.1109  -36.1656  -17.6227 C   0  0  0  0  0  0  0  0  0  0  0  0
   24.7234  -36.9813  -18.4178 S   0  0  0  0  0  0  0  0  0  0  0  0
   24.8582  -36.1526  -15.4752 C   0  0  0  0  0  0  0  0  0  0  0  0
   25.4555  -36.9610  -14.7260 O   0  0  0  0  0  0  0  0  0  0  0  0
   23.4759  -36.0665  -15.3368 O   0  0  0  0  0  0  0  0  0  0  0  0
  2  1  1  0
  3  2  2  0
  4  3  1  0
  5 11  1  0
  5  4  2  0
  6  5  1  0
  7  9  1  0
  7  6  1  0
  7  8  1  6
  9 10  2  0
 11 12  2  0
 12  2  1  0
 13 14  1  0
 13  9  1  0
 14 15  1  1
 16 15  1  0
 17 16  2  0
 18 19  1  0
 18 17  1  0
 19 20  2  0
 20 16  1  0
 21 22  2  0
 21 14  1  0
 23 21  1  0
 24 23  1  0
 24 27  1  0
 24 25  1  6
 26 25  1  0
 27 29  1  0
 28 27  2  0
M  END
$$$$
