YHC.pdb
     RDKit          3D

 29 30  0  0  1  0  0  0  0  0999 V2000
   15.1422  -16.3830  -16.6173 O   0  0  0  0  0  0  0  0  0  0  0  0
   16.1873  -17.0571  -15.9662 C   0  0  0  0  0  0  0  0  0  0  0  0
   17.4872  -16.8596  -16.3568 C   0  0  0  0  0  0  0  0  0  0  0  0
   18.5082  -17.5185  -15.7204 C   0  0  0  0  0  0  0  0  0  0  0  0
   18.2951  -18.3985  -14.6740 C   0  0  0  0  0  0  0  0  0  0  0  0
   19.4299  -19.0948  -14.0084 C   0  0  0  0  0  0  0  0  0  0  0  0
   20.0519  -20.0011  -15.0345 C   0  0  2  0  0  0  0  0  0  0  0  0
   19.2660  -21.2058  -15.0929 N   0  0  0  0  0  0  0  0  0  0  0  0
   21.4515  -20.3186  -14.7937 C   0  0  0  0  0  0  0  0  0  0  0  0
   21.7261  -21.2586  -14.0081 O   0  0  0  0  0  0  0  0  0  0  0  0
   16.9830  -18.5888  -14.2901 C   0  0  0  0  0  0  0  0  0  0  0  0
   15.9383  -17.9275  -14.9264 C   0  0  0  0  0  0  0  0  0  0  0  0
   22.5558  -19.6442  -15.3817 N   0  0  0  0  0  0  0  0  0  0  0  0
   23.9273  -19.9493  -15.1652 C   0  0  1  0  0  0  0  0  0  0  0  0
   24.8842  -19.2189  -16.0582 C   0  0  0  0  0  0  0  0  0  0  0  0
   26.2958  -19.5923  -15.8262 C   0  0  0  0  0  0  0  0  0  0  0  0
   26.6883  -20.4364  -14.8077 C   0  0  0  0  0  0  0  0  0  0  0  0
   28.0026  -20.5896  -14.8423 N   0  0  0  0  0  0  0  0  0  0  0  0
   28.4572  -19.8499  -15.8759 C   0  0  0  0  0  0  0  0  0  0  0  0
   27.4118  -19.2409  -16.4762 N   0  0  0  0  0  0  0  0  0  0  0  0
   24.3073  -19.8120  -13.7351 C   0  0  0  0  0  0  0  0  0  0  0  0
   23.7543  -18.8995  -13.0699 O   0  0  0  0  0  0  0  0  0  0  0  0
   25.2433  -20.6408  -13.0945 N   0  0  0  0  0  0  0  0  0  0  0  0
   25.5500  -20.5858  -11.6811 C   0  0  1  0  0  0  0  0  0  0  0  0
   24.2742  -20.8215  -10.8849 C   0  0  0  0  0  0  0  0  0  0  0  0
   24.3481  -19.8581   -9.3720 S   0  0  0  0  0  0  0  0  0  0  0  0
   26.6042  -21.5731  -11.3184 C   0  0  0  0  0  0  0  0  0  0  0  0
   26.6914  -22.6847  -11.8913 O   0  0  0  0  0  0  0  0  0  0  0  0
   27.5392  -21.3000  -10.3241 O   0  0  0  0  0  0  0  0  0  0  0  0
  2  1  1  0
  3  2  2  0
  4  3  1  0
  5 11  1  0
  5  4  2  0
  6  5  1  0
  7  9  1  0
  7  6  1  0
  7  8  1  1
  9 10  2  0
 11 12  2  0
 12  2  1  0
 13 14  1  0
 13  9  1  0
 14 15  1  6
 16 15  1  0
 17 16  2  0
 18 19  1  0
 18 17  1  0
 19 20  2  0
 20 16  1  0
 21 22  2  0
 21 14  1  0
 23 21  1  0
 24 23  1  0
 24 27  1  0
 24 25  1  1
 26 25  1  0
 27 29  1  0
 28 27  2  0
M  END
$$$$
