YHC.pdb
     RDKit          3D

 29 30  0  0  1  0  0  0  0  0999 V2000
   28.2048  -19.0789   -4.6822 O   0  0  0  0  0  0  0  0  0  0  0  0
   27.8351  -19.5999   -5.9321 C   0  0  0  0  0  0  0  0  0  0  0  0
   28.7578  -19.6940   -6.9427 C   0  0  0  0  0  0  0  0  0  0  0  0
   28.3962  -20.2032   -8.1639 C   0  0  0  0  0  0  0  0  0  0  0  0
   27.1137  -20.6412   -8.4436 C   0  0  0  0  0  0  0  0  0  0  0  0
   26.7600  -21.1878   -9.7821 C   0  0  0  0  0  0  0  0  0  0  0  0
   25.7029  -20.2874  -10.3591 C   0  0  2  0  0  0  0  0  0  0  0  0
   24.4268  -20.9243  -10.1640 N   0  0  0  0  0  0  0  0  0  0  0  0
   25.8937  -19.9505  -11.7618 C   0  0  0  0  0  0  0  0  0  0  0  0
   25.6347  -20.8218  -12.6279 O   0  0  0  0  0  0  0  0  0  0  0  0
   26.1944  -20.5414   -7.4189 C   0  0  0  0  0  0  0  0  0  0  0  0
   26.5472  -20.0272   -6.1760 C   0  0  0  0  0  0  0  0  0  0  0  0
   26.3564  -18.6970  -12.2462 N   0  0  0  0  0  0  0  0  0  0  0  0
   26.5506  -18.3537  -13.6120 C   0  0  1  0  0  0  0  0  0  0  0  0
   26.9132  -16.9201  -13.8564 C   0  0  0  0  0  0  0  0  0  0  0  0
   26.9401  -16.5641  -15.2911 C   0  0  0  0  0  0  0  0  0  0  0  0
   26.7446  -17.4901  -16.2951 C   0  0  0  0  0  0  0  0  0  0  0  0
   26.8230  -16.8893  -17.4720 N   0  0  0  0  0  0  0  0  0  0  0  0
   27.0674  -15.5838  -17.2310 C   0  0  0  0  0  0  0  0  0  0  0  0
   27.1387  -15.3871  -15.8967 N   0  0  0  0  0  0  0  0  0  0  0  0
   27.5007  -19.2762  -14.2864 C   0  0  0  0  0  0  0  0  0  0  0  0
   28.4619  -19.7209  -13.6087 O   0  0  0  0  0  0  0  0  0  0  0  0
   27.3814  -19.6731  -15.6287 N   0  0  0  0  0  0  0  0  0  0  0  0
   28.2091  -20.6792  -16.2592 C   0  0  1  0  0  0  0  0  0  0  0  0
   28.0771  -21.9863  -15.4903 C   0  0  0  0  0  0  0  0  0  0  0  0
   29.0404  -23.2503  -16.3252 S   0  0  0  0  0  0  0  0  0  0  0  0
   27.8467  -20.8558  -17.6927 C   0  0  0  0  0  0  0  0  0  0  0  0
   26.6520  -20.8999  -18.0701 O   0  0  0  0  0  0  0  0  0  0  0  0
   28.8244  -20.9797  -18.6757 O   0  0  0  0  0  0  0  0  0  0  0  0
  2  1  1  0
  3  2  2  0
  4  3  1  0
  5 11  1  0
  5  4  2  0
  6  5  1  0
  7  9  1  0
  7  6  1  0
  7  8  1  6
  9 10  2  0
 11 12  2  0
 12  2  1  0
 13 14  1  0
 13  9  1  0
 14 15  1  1
 16 15  1  0
 17 16  2  0
 18 19  1  0
 18 17  1  0
 19 20  2  0
 20 16  1  0
 21 22  2  0
 21 14  1  0
 23 21  1  0
 24 23  1  0
 24 27  1  0
 24 25  1  1
 26 25  1  0
 27 29  1  0
 28 27  2  0
M  END
$$$$
