YHC.pdb
     RDKit          3D

 29 30  0  0  1  0  0  0  0  0999 V2000
   32.5550   -8.4488  -18.4492 O   0  0  0  0  0  0  0  0  0  0  0  0
   31.1664   -8.6546  -18.4580 C   0  0  0  0  0  0  0  0  0  0  0  0
   30.3083   -7.5857  -18.4078 C   0  0  0  0  0  0  0  0  0  0  0  0
   28.9515   -7.7872  -18.4164 C   0  0  0  0  0  0  0  0  0  0  0  0
   28.3810   -9.0466  -18.4747 C   0  0  0  0  0  0  0  0  0  0  0  0
   26.9033   -9.2244  -18.4821 C   0  0  0  0  0  0  0  0  0  0  0  0
   26.4055   -8.8216  -17.1216 C   0  0  2  0  0  0  0  0  0  0  0  0
   26.9990   -9.7077  -16.1548 N   0  0  0  0  0  0  0  0  0  0  0  0
   24.9568   -8.8157  -16.9837 C   0  0  0  0  0  0  0  0  0  0  0  0
   24.2775   -8.1768  -17.8243 O   0  0  0  0  0  0  0  0  0  0  0  0
   29.2547  -10.1140  -18.5249 C   0  0  0  0  0  0  0  0  0  0  0  0
   30.6323   -9.9243  -18.5168 C   0  0  0  0  0  0  0  0  0  0  0  0
   24.2301   -9.4831  -15.9608 N   0  0  0  0  0  0  0  0  0  0  0  0
   22.8143   -9.5224  -15.8371 C   0  0  1  0  0  0  0  0  0  0  0  0
   22.2970  -10.4963  -14.8219 C   0  0  0  0  0  0  0  0  0  0  0  0
   20.8240  -10.6231  -14.8365 C   0  0  0  0  0  0  0  0  0  0  0  0
   20.0206   -9.9098  -15.7022 C   0  0  0  0  0  0  0  0  0  0  0  0
   18.7526  -10.2245  -15.4894 N   0  0  0  0  0  0  0  0  0  0  0  0
   18.7359  -11.1350  -14.4930 C   0  0  0  0  0  0  0  0  0  0  0  0
   20.0036  -11.3773  -14.0952 N   0  0  0  0  0  0  0  0  0  0  0  0
   22.2373   -8.1683  -15.6331 C   0  0  0  0  0  0  0  0  0  0  0  0
   22.7589   -7.4390  -14.7515 O   0  0  0  0  0  0  0  0  0  0  0  0
   21.1501   -7.6658  -16.3671 N   0  0  0  0  0  0  0  0  0  0  0  0
   20.5842   -6.3458  -16.1878 C   0  0  1  0  0  0  0  0  0  0  0  0
   20.5013   -5.6514  -17.5398 C   0  0  0  0  0  0  0  0  0  0  0  0
   19.4739   -6.6350  -18.6352 S   0  0  0  0  0  0  0  0  0  0  0  0
   19.2487   -6.4152  -15.5326 C   0  0  0  0  0  0  0  0  0  0  0  0
   18.6385   -5.3824  -15.1687 O   0  0  0  0  0  0  0  0  0  0  0  0
   18.6216   -7.6353  -15.2968 O   0  0  0  0  0  0  0  0  0  0  0  0
  2  1  1  0
  3  2  2  0
  4  3  1  0
  5 11  1  0
  5  4  2  0
  6  5  1  0
  7  9  1  0
  7  6  1  0
  7  8  1  1
  9 10  2  0
 11 12  2  0
 12  2  1  0
 13 14  1  0
 13  9  1  0
 14 15  1  1
 16 15  1  0
 17 16  2  0
 18 19  1  0
 18 17  1  0
 19 20  2  0
 20 16  1  0
 21 22  2  0
 21 14  1  0
 23 21  1  0
 24 23  1  0
 24 27  1  0
 24 25  1  6
 26 25  1  0
 27 29  1  0
 28 27  2  0
M  END
$$$$
