YHC.pdb
     RDKit          3D

 29 30  0  0  1  0  0  0  0  0999 V2000
   39.5415  -10.3830   -6.1616 O   0  0  0  0  0  0  0  0  0  0  0  0
   40.6527  -11.0996   -6.6331 C   0  0  0  0  0  0  0  0  0  0  0  0
   41.8863  -10.5028   -6.6928 C   0  0  0  0  0  0  0  0  0  0  0  0
   42.9718  -11.2034   -7.1536 C   0  0  0  0  0  0  0  0  0  0  0  0
   42.8911  -12.5190   -7.5749 C   0  0  0  0  0  0  0  0  0  0  0  0
   44.0925  -13.2458   -8.0688 C   0  0  0  0  0  0  0  0  0  0  0  0
   43.9621  -13.3454   -9.5635 C   0  0  2  0  0  0  0  0  0  0  0  0
   45.1274  -14.0270  -10.0632 N   0  0  0  0  0  0  0  0  0  0  0  0
   43.7888  -12.0703  -10.2429 C   0  0  0  0  0  0  0  0  0  0  0  0
   44.7996  -11.3503  -10.4328 O   0  0  0  0  0  0  0  0  0  0  0  0
   41.6447  -13.1084   -7.5101 C   0  0  0  0  0  0  0  0  0  0  0  0
   40.5358  -12.4101   -7.0452 C   0  0  0  0  0  0  0  0  0  0  0  0
   42.5512  -11.5592  -10.7193 N   0  0  0  0  0  0  0  0  0  0  0  0
   42.3615  -10.3051  -11.3615 C   0  0  1  0  0  0  0  0  0  0  0  0
   41.3392  -10.3063  -12.4576 C   0  0  0  0  0  0  0  0  0  0  0  0
   41.8478  -10.8707  -13.7259 C   0  0  0  0  0  0  0  0  0  0  0  0
   43.1567  -11.2740  -13.8931 C   0  0  0  0  0  0  0  0  0  0  0  0
   43.3236  -11.7347  -15.1228 N   0  0  0  0  0  0  0  0  0  0  0  0
   42.1311  -11.6303  -15.7465 C   0  0  0  0  0  0  0  0  0  0  0  0
   41.2301  -11.1017  -14.8906 N   0  0  0  0  0  0  0  0  0  0  0  0
   42.1083   -9.2142  -10.3847 C   0  0  0  0  0  0  0  0  0  0  0  0
   41.0202   -9.2362   -9.7551 O   0  0  0  0  0  0  0  0  0  0  0  0
   43.0131   -8.1700  -10.1310 N   0  0  0  0  0  0  0  0  0  0  0  0
   42.7360   -7.0411   -9.2686 C   0  0  1  0  0  0  0  0  0  0  0  0
   44.0022   -6.6722   -8.5085 C   0  0  0  0  0  0  0  0  0  0  0  0
   44.6891   -8.1573   -7.7701 S   0  0  0  0  0  0  0  0  0  0  0  0
   42.2149   -5.8828  -10.0460 C   0  0  0  0  0  0  0  0  0  0  0  0
   42.1467   -5.9059  -11.2975 O   0  0  0  0  0  0  0  0  0  0  0  0
   41.7807   -4.7226   -9.4112 O   0  0  0  0  0  0  0  0  0  0  0  0
  2  1  1  0
  3  2  2  0
  4  3  1  0
  5 11  1  0
  5  4  2  0
  6  5  1  0
  7  9  1  0
  7  6  1  0
  7  8  1  6
  9 10  2  0
 11 12  2  0
 12  2  1  0
 13 14  1  0
 13  9  1  0
 14 15  1  6
 16 15  1  0
 17 16  2  0
 18 19  1  0
 18 17  1  0
 19 20  2  0
 20 16  1  0
 21 22  2  0
 21 14  1  0
 23 21  1  0
 24 23  1  0
 24 27  1  0
 24 25  1  6
 26 25  1  0
 27 29  1  0
 28 27  2  0
M  END
$$$$
