YHC.pdb
     RDKit          3D

 29 30  0  0  1  0  0  0  0  0999 V2000
   19.3203  -14.4305  -22.8386 O   0  0  0  0  0  0  0  0  0  0  0  0
   19.3255  -13.4348  -21.8491 C   0  0  0  0  0  0  0  0  0  0  0  0
   18.5164  -13.5499  -20.7476 C   0  0  0  0  0  0  0  0  0  0  0  0
   18.5218  -12.5767  -19.7809 C   0  0  0  0  0  0  0  0  0  0  0  0
   19.3218  -11.4502  -19.8557 C   0  0  0  0  0  0  0  0  0  0  0  0
   19.2994  -10.4157  -18.7858 C   0  0  0  0  0  0  0  0  0  0  0  0
   20.5488  -10.6006  -17.9696 C   0  0  2  0  0  0  0  0  0  0  0  0
   20.3578  -11.7511  -17.1258 N   0  0  0  0  0  0  0  0  0  0  0  0
   20.9290   -9.4435  -17.1732 C   0  0  0  0  0  0  0  0  0  0  0  0
   20.2945   -9.2096  -16.1153 O   0  0  0  0  0  0  0  0  0  0  0  0
   20.1315  -11.3458  -20.9687 C   0  0  0  0  0  0  0  0  0  0  0  0
   20.1361  -12.3247  -21.9563 C   0  0  0  0  0  0  0  0  0  0  0  0
   21.9760   -8.5378  -17.4947 N   0  0  0  0  0  0  0  0  0  0  0  0
   22.3239   -7.3734  -16.7569 C   0  0  1  0  0  0  0  0  0  0  0  0
   23.7967   -7.1377  -16.6085 C   0  0  0  0  0  0  0  0  0  0  0  0
   24.5185   -8.3028  -16.0540 C   0  0  0  0  0  0  0  0  0  0  0  0
   23.8848   -9.4768  -15.7021 C   0  0  0  0  0  0  0  0  0  0  0  0
   24.7761  -10.3382  -15.2377 N   0  0  0  0  0  0  0  0  0  0  0  0
   25.9779   -9.7257  -15.2889 C   0  0  0  0  0  0  0  0  0  0  0  0
   25.8181   -8.4812  -15.7883 N   0  0  0  0  0  0  0  0  0  0  0  0
   21.6299   -6.1637  -17.2699 C   0  0  0  0  0  0  0  0  0  0  0  0
   21.7134   -5.9214  -18.5008 O   0  0  0  0  0  0  0  0  0  0  0  0
   20.8925   -5.2854  -16.4584 N   0  0  0  0  0  0  0  0  0  0  0  0
   20.2017   -4.1102  -16.9447 C   0  0  1  0  0  0  0  0  0  0  0  0
   18.8020   -4.0725  -16.3477 C   0  0  0  0  0  0  0  0  0  0  0  0
   17.9014   -5.5286  -16.8876 S   0  0  0  0  0  0  0  0  0  0  0  0
   20.9591   -2.8682  -16.6264 C   0  0  0  0  0  0  0  0  0  0  0  0
   22.0359   -2.8987  -15.9852 O   0  0  0  0  0  0  0  0  0  0  0  0
   20.4998   -1.6178  -17.0301 O   0  0  0  0  0  0  0  0  0  0  0  0
  2  1  1  0
  3  2  2  0
  4  3  1  0
  5 11  1  0
  5  4  2  0
  6  5  1  0
  7  9  1  0
  7  6  1  0
  7  8  1  1
  9 10  2  0
 11 12  2  0
 12  2  1  0
 13 14  1  0
 13  9  1  0
 14 15  1  6
 16 15  1  0
 17 16  2  0
 18 19  1  0
 18 17  1  0
 19 20  2  0
 20 16  1  0
 21 22  2  0
 21 14  1  0
 23 21  1  0
 24 23  1  0
 24 27  1  0
 24 25  1  1
 26 25  1  0
 27 29  1  0
 28 27  2  0
M  END
$$$$
