YHC.pdb
     RDKit          3D

 29 30  0  0  1  0  0  0  0  0999 V2000
   32.3092  -42.2827  -11.7151 O   0  0  0  0  0  0  0  0  0  0  0  0
   32.5840  -41.7437  -10.4484 C   0  0  0  0  0  0  0  0  0  0  0  0
   33.6433  -42.2108   -9.7128 C   0  0  0  0  0  0  0  0  0  0  0  0
   33.9115  -41.6838   -8.4751 C   0  0  0  0  0  0  0  0  0  0  0  0
   33.1509  -40.6763   -7.9084 C   0  0  0  0  0  0  0  0  0  0  0  0
   33.4740  -40.1302   -6.5620 C   0  0  0  0  0  0  0  0  0  0  0  0
   33.8791  -38.6951   -6.7557 C   0  0  2  0  0  0  0  0  0  0  0  0
   35.1576  -38.6833   -7.4172 N   0  0  0  0  0  0  0  0  0  0  0  0
   33.9331  -37.9102   -5.5315 C   0  0  0  0  0  0  0  0  0  0  0  0
   35.0024  -37.8988   -4.8737 O   0  0  0  0  0  0  0  0  0  0  0  0
   32.0879  -40.2147   -8.6582 C   0  0  0  0  0  0  0  0  0  0  0  0
   31.8045  -40.7398   -9.9143 C   0  0  0  0  0  0  0  0  0  0  0  0
   32.8602  -37.1407   -5.0054 N   0  0  0  0  0  0  0  0  0  0  0  0
   32.8899  -36.3874   -3.8001 C   0  0  1  0  0  0  0  0  0  0  0  0
   33.6805  -35.1160   -3.8707 C   0  0  0  0  0  0  0  0  0  0  0  0
   33.5810  -34.4421   -5.1829 C   0  0  0  0  0  0  0  0  0  0  0  0
   32.9831  -35.0267   -6.2803 C   0  0  0  0  0  0  0  0  0  0  0  0
   33.0403  -34.1965   -7.3096 N   0  0  0  0  0  0  0  0  0  0  0  0
   33.6709  -33.0825   -6.8810 C   0  0  0  0  0  0  0  0  0  0  0  0
   34.0007  -33.2348   -5.5803 N   0  0  0  0  0  0  0  0  0  0  0  0
   31.5258  -36.1489   -3.2610 C   0  0  0  0  0  0  0  0  0  0  0  0
   30.5500  -36.5467   -3.9470 O   0  0  0  0  0  0  0  0  0  0  0  0
   31.2729  -35.5083   -2.0367 N   0  0  0  0  0  0  0  0  0  0  0  0
   29.9527  -35.3029   -1.4802 C   0  0  1  0  0  0  0  0  0  0  0  0
   29.1972  -36.6244   -1.4888 C   0  0  0  0  0  0  0  0  0  0  0  0
   27.5552  -36.3585   -0.8136 S   0  0  0  0  0  0  0  0  0  0  0  0
   30.0283  -34.7320   -0.1069 C   0  0  0  0  0  0  0  0  0  0  0  0
   31.0301  -34.9079    0.6259 O   0  0  0  0  0  0  0  0  0  0  0  0
   28.9849  -33.9767    0.4206 O   0  0  0  0  0  0  0  0  0  0  0  0
  2  1  1  0
  3  2  2  0
  4  3  1  0
  5 11  1  0
  5  4  2  0
  6  5  1  0
  7  9  1  0
  7  6  1  0
  7  8  1  1
  9 10  2  0
 11 12  2  0
 12  2  1  0
 13 14  1  0
 13  9  1  0
 14 15  1  6
 16 15  1  0
 17 16  2  0
 18 19  1  0
 18 17  1  0
 19 20  2  0
 20 16  1  0
 21 22  2  0
 21 14  1  0
 23 21  1  0
 24 23  1  0
 24 27  1  0
 24 25  1  1
 26 25  1  0
 27 29  1  0
 28 27  2  0
M  END
$$$$
