YHC.pdb
     RDKit          3D

 29 30  0  0  1  0  0  0  0  0999 V2000
   25.5839  -23.4836  -22.1298 O   0  0  0  0  0  0  0  0  0  0  0  0
   25.1776  -24.7566  -21.6998 C   0  0  0  0  0  0  0  0  0  0  0  0
   25.2061  -25.8207  -22.5648 C   0  0  0  0  0  0  0  0  0  0  0  0
   24.8090  -27.0645  -22.1443 C   0  0  0  0  0  0  0  0  0  0  0  0
   24.3672  -27.3150  -20.8570 C   0  0  0  0  0  0  0  0  0  0  0  0
   23.9444  -28.6793  -20.4384 C   0  0  0  0  0  0  0  0  0  0  0  0
   25.0802  -29.2682  -19.6484 C   0  0  2  0  0  0  0  0  0  0  0  0
   26.1405  -29.5843  -20.5693 N   0  0  0  0  0  0  0  0  0  0  0  0
   24.7267  -30.4387  -18.8593 C   0  0  0  0  0  0  0  0  0  0  0  0
   24.6001  -31.5412  -19.4464 O   0  0  0  0  0  0  0  0  0  0  0  0
   24.3430  -26.2363  -19.9961 C   0  0  0  0  0  0  0  0  0  0  0  0
   24.7428  -24.9701  -20.4090 C   0  0  0  0  0  0  0  0  0  0  0  0
   24.5079  -30.4425  -17.4550 N   0  0  0  0  0  0  0  0  0  0  0  0
   24.1614  -31.5764  -16.6706 C   0  0  1  0  0  0  0  0  0  0  0  0
   24.9391  -31.7241  -15.3978 C   0  0  0  0  0  0  0  0  0  0  0  0
   26.3482  -32.1128  -15.6198 C   0  0  0  0  0  0  0  0  0  0  0  0
   26.8652  -32.3667  -16.8736 C   0  0  0  0  0  0  0  0  0  0  0  0
   28.1443  -32.6903  -16.7671 N   0  0  0  0  0  0  0  0  0  0  0  0
   28.4525  -32.6460  -15.4536 C   0  0  0  0  0  0  0  0  0  0  0  0
   27.3528  -32.2926  -14.7539 N   0  0  0  0  0  0  0  0  0  0  0  0
   22.6980  -31.6545  -16.4243 C   0  0  0  0  0  0  0  0  0  0  0  0
   22.0393  -30.5850  -16.4812 O   0  0  0  0  0  0  0  0  0  0  0  0
   22.0194  -32.8498  -16.1341 N   0  0  0  0  0  0  0  0  0  0  0  0
   20.5805  -32.9672  -16.0304 C   0  0  1  0  0  0  0  0  0  0  0  0
   19.9486  -32.5237  -17.3423 C   0  0  0  0  0  0  0  0  0  0  0  0
   18.1926  -32.8936  -17.2948 S   0  0  0  0  0  0  0  0  0  0  0  0
   20.1761  -34.3563  -15.6776 C   0  0  0  0  0  0  0  0  0  0  0  0
   20.6730  -35.3535  -16.2520 O   0  0  0  0  0  0  0  0  0  0  0  0
   19.2257  -34.6041  -14.6913 O   0  0  0  0  0  0  0  0  0  0  0  0
  2  1  1  0
  3  2  2  0
  4  3  1  0
  5 11  1  0
  5  4  2  0
  6  5  1  0
  7  9  1  0
  7  6  1  0
  7  8  1  6
  9 10  2  0
 11 12  2  0
 12  2  1  0
 13 14  1  0
 13  9  1  0
 14 15  1  1
 16 15  1  0
 17 16  2  0
 18 19  1  0
 18 17  1  0
 19 20  2  0
 20 16  1  0
 21 22  2  0
 21 14  1  0
 23 21  1  0
 24 23  1  0
 24 27  1  0
 24 25  1  6
 26 25  1  0
 27 29  1  0
 28 27  2  0
M  END
$$$$
