YHC.pdb
     RDKit          3D

 29 30  0  0  1  0  0  0  0  0999 V2000
   26.6244   -3.9869  -18.3088 O   0  0  0  0  0  0  0  0  0  0  0  0
   26.6292   -5.3267  -17.8898 C   0  0  0  0  0  0  0  0  0  0  0  0
   27.4629   -6.2360  -18.4894 C   0  0  0  0  0  0  0  0  0  0  0  0
   27.4673   -7.5451  -18.0797 C   0  0  0  0  0  0  0  0  0  0  0  0
   26.6533   -8.0156  -17.0643 C   0  0  0  0  0  0  0  0  0  0  0  0
   26.6870   -9.4442  -16.6480 C   0  0  0  0  0  0  0  0  0  0  0  0
   25.5909  -10.1470  -17.4002 C   0  0  2  0  0  0  0  0  0  0  0  0
   25.8588  -10.0025  -18.8071 N   0  0  0  0  0  0  0  0  0  0  0  0
   24.2477   -9.6822  -17.0882 C   0  0  0  0  0  0  0  0  0  0  0  0
   23.6879   -8.8892  -17.8846 O   0  0  0  0  0  0  0  0  0  0  0  0
   25.8190   -7.0911  -16.4689 C   0  0  0  0  0  0  0  0  0  0  0  0
   25.8042   -5.7610  -16.8742 C   0  0  0  0  0  0  0  0  0  0  0  0
   23.4998  -10.0549  -15.9386 N   0  0  0  0  0  0  0  0  0  0  0  0
   22.1851   -9.6151  -15.6234 C   0  0  1  0  0  0  0  0  0  0  0  0
   21.3943  -10.5559  -14.7653 C   0  0  0  0  0  0  0  0  0  0  0  0
   19.9625  -10.1982  -14.6779 C   0  0  0  0  0  0  0  0  0  0  0  0
   19.4158   -9.1297  -15.3583 C   0  0  0  0  0  0  0  0  0  0  0  0
   18.1216   -9.0512  -15.0917 N   0  0  0  0  0  0  0  0  0  0  0  0
   17.8331  -10.0620  -14.2448 C   0  0  0  0  0  0  0  0  0  0  0  0
   18.9602  -10.7621  -13.9930 N   0  0  0  0  0  0  0  0  0  0  0  0
   22.1794   -8.2376  -15.0660 C   0  0  0  0  0  0  0  0  0  0  0  0
   23.1874   -7.8697  -14.4106 O   0  0  0  0  0  0  0  0  0  0  0  0
   21.1165   -7.3342  -15.2319 N   0  0  0  0  0  0  0  0  0  0  0  0
   21.1463   -5.9514  -14.8055 C   0  0  1  0  0  0  0  0  0  0  0  0
   22.4114   -5.2931  -15.3376 C   0  0  0  0  0  0  0  0  0  0  0  0
   22.4541   -3.5860  -14.7838 S   0  0  0  0  0  0  0  0  0  0  0  0
   19.9276   -5.2220  -15.2532 C   0  0  0  0  0  0  0  0  0  0  0  0
   19.4127   -5.4265  -16.3777 O   0  0  0  0  0  0  0  0  0  0  0  0
   19.3085   -4.2795  -14.4371 O   0  0  0  0  0  0  0  0  0  0  0  0
  2  1  1  0
  3  2  2  0
  4  3  1  0
  5 11  1  0
  5  4  2  0
  6  5  1  0
  7  9  1  0
  7  6  1  0
  7  8  1  6
  9 10  2  0
 11 12  2  0
 12  2  1  0
 13 14  1  0
 13  9  1  0
 14 15  1  1
 16 15  1  0
 17 16  2  0
 18 19  1  0
 18 17  1  0
 19 20  2  0
 20 16  1  0
 21 22  2  0
 21 14  1  0
 23 21  1  0
 24 23  1  0
 24 27  1  0
 24 25  1  6
 26 25  1  0
 27 29  1  0
 28 27  2  0
M  END
$$$$
