YHC.pdb
     RDKit          3D

 29 30  0  0  1  0  0  0  0  0999 V2000
   29.2369  -19.5661   -5.8969 O   0  0  0  0  0  0  0  0  0  0  0  0
   28.6123  -19.7892   -7.1341 C   0  0  0  0  0  0  0  0  0  0  0  0
   29.0663  -20.7773   -7.9701 C   0  0  0  0  0  0  0  0  0  0  0  0
   28.4558  -20.9950   -9.1790 C   0  0  0  0  0  0  0  0  0  0  0  0
   27.3741  -20.2515   -9.6172 C   0  0  0  0  0  0  0  0  0  0  0  0
   26.7384  -20.5182  -10.9363 C   0  0  0  0  0  0  0  0  0  0  0  0
   25.2516  -20.5355  -10.7120 C   0  0  2  0  0  0  0  0  0  0  0  0
   24.9312  -21.7282   -9.9723 N   0  0  0  0  0  0  0  0  0  0  0  0
   24.4546  -20.4617  -11.9273 C   0  0  0  0  0  0  0  0  0  0  0  0
   23.7868  -21.4688  -12.2680 O   0  0  0  0  0  0  0  0  0  0  0  0
   26.9265  -19.2603   -8.7672 C   0  0  0  0  0  0  0  0  0  0  0  0
   27.5360  -19.0287   -7.5390 C   0  0  0  0  0  0  0  0  0  0  0  0
   24.3645  -19.3271  -12.7784 N   0  0  0  0  0  0  0  0  0  0  0  0
   23.4821  -19.1851  -13.8841 C   0  0  1  0  0  0  0  0  0  0  0  0
   23.4148  -17.8044  -14.4637 C   0  0  0  0  0  0  0  0  0  0  0  0
   22.4301  -17.6819  -15.5597 C   0  0  0  0  0  0  0  0  0  0  0  0
   21.7194  -18.7580  -16.0501 C   0  0  0  0  0  0  0  0  0  0  0  0
   20.9173  -18.3522  -17.0218 N   0  0  0  0  0  0  0  0  0  0  0  0
   21.1079  -17.0229  -17.1590 C   0  0  0  0  0  0  0  0  0  0  0  0
   22.0334  -16.6150  -16.2639 N   0  0  0  0  0  0  0  0  0  0  0  0
   23.7417  -20.2027  -14.9354 C   0  0  0  0  0  0  0  0  0  0  0  0
   24.9344  -20.3836  -15.2899 O   0  0  0  0  0  0  0  0  0  0  0  0
   22.7333  -20.9655  -15.5475 N   0  0  0  0  0  0  0  0  0  0  0  0
   22.9667  -21.9386  -16.5931 C   0  0  1  0  0  0  0  0  0  0  0  0
   23.4779  -23.2289  -15.9678 C   0  0  0  0  0  0  0  0  0  0  0  0
   22.2435  -23.8462  -14.8199 S   0  0  0  0  0  0  0  0  0  0  0  0
   21.7340  -22.1770  -17.3940 C   0  0  0  0  0  0  0  0  0  0  0  0
   20.6353  -21.6602  -17.0823 O   0  0  0  0  0  0  0  0  0  0  0  0
   21.7526  -22.9868  -18.5259 O   0  0  0  0  0  0  0  0  0  0  0  0
  2  1  1  0
  3  2  2  0
  4  3  1  0
  5 11  1  0
  5  4  2  0
  6  5  1  0
  7  9  1  0
  7  6  1  0
  7  8  1  6
  9 10  2  0
 11 12  2  0
 12  2  1  0
 13 14  1  0
 13  9  1  0
 14 15  1  6
 16 15  1  0
 17 16  2  0
 18 19  1  0
 18 17  1  0
 19 20  2  0
 20 16  1  0
 21 22  2  0
 21 14  1  0
 23 21  1  0
 24 23  1  0
 24 27  1  0
 24 25  1  1
 26 25  1  0
 27 29  1  0
 28 27  2  0
M  END
$$$$
