FGD.pdb
     RDKit          3D

 24 24  0  0  1  0  0  0  0  0999 V2000
   21.8083  -11.1265  -18.3751 N   0  0  0  0  0  0  0  0  0  0  0  0
   23.1383  -10.8813  -17.8842 C   0  0  1  0  0  0  0  0  0  0  0  0
   23.9671  -10.1982  -18.9472 C   0  0  0  0  0  0  0  0  0  0  0  0
   24.1673  -11.0914  -20.0903 C   0  0  0  0  0  0  0  0  0  0  0  0
   23.4036  -10.9351  -21.2315 C   0  0  0  0  0  0  0  0  0  0  0  0
   23.5889  -11.7780  -22.3172 C   0  0  0  0  0  0  0  0  0  0  0  0
   24.5526  -12.7746  -22.2302 C   0  0  0  0  0  0  0  0  0  0  0  0
   25.2985  -12.9097  -21.0857 C   0  0  0  0  0  0  0  0  0  0  0  0
   25.1298  -12.0819  -19.9951 C   0  0  0  0  0  0  0  0  0  0  0  0
   23.1349  -10.0981  -16.6210 C   0  0  0  0  0  0  0  0  0  0  0  0
   24.2428   -9.8302  -16.0995 O   0  0  0  0  0  0  0  0  0  0  0  0
   21.9601   -9.6469  -15.9877 N   0  0  0  0  0  0  0  0  0  0  0  0
   21.8994   -8.7956  -14.8501 C   0  0  0  0  0  0  0  0  0  0  0  0
   21.8078   -7.3566  -15.1167 C   0  0  0  0  0  0  0  0  0  0  0  0
   22.7675   -6.8343  -15.7816 O   0  0  0  0  0  0  0  0  0  0  0  0
   20.7800   -6.4792  -14.7252 N   0  0  0  0  0  0  0  0  0  0  0  0
   20.6959   -5.0834  -15.1045 C   0  0  1  0  0  0  0  0  0  0  0  0
   19.2777   -4.5695  -15.1470 C   0  0  0  0  0  0  0  0  0  0  0  0
   19.2107   -3.1552  -15.5774 C   0  0  0  0  0  0  0  0  0  0  0  0
   20.1604   -2.6767  -16.2402 O   0  0  0  0  0  0  0  0  0  0  0  0
   21.5106   -4.2955  -14.1503 C   0  0  0  0  0  0  0  0  0  0  0  0
   22.1172   -4.9308  -13.0869 O   0  0  0  0  0  0  0  0  0  0  0  0
   18.1408   -2.3630  -15.2695 O   0  0  0  0  0  0  0  0  0  0  0  0
   21.6644   -3.0591  -14.2840 O   0  0  0  0  0  0  0  0  0  0  0  0
  2  1  1  6
  3  2  1  0
  4  9  2  0
  4  3  1  0
  5  4  1  0
  6  7  1  0
  6  5  2  0
  7  8  2  0
  8  9  1  0
 10  2  1  0
 10 12  1  0
 11 10  2  0
 13 12  1  0
 13 14  1  0
 14 16  1  0
 15 14  2  0
 16 17  1  0
 17 21  1  0
 17 18  1  1
 19 18  1  0
 20 19  2  0
 21 24  2  0
 21 22  1  0
 23 19  1  0
M  END
$$$$
