FGD.pdb
     RDKit          3D

 24 24  0  0  1  0  0  0  0  0999 V2000
   23.9739  -11.4966  -15.3621 N   0  0  0  0  0  0  0  0  0  0  0  0
   24.8937  -10.5118  -15.8663 C   0  0  1  0  0  0  0  0  0  0  0  0
   25.7928  -11.1279  -16.9129 C   0  0  0  0  0  0  0  0  0  0  0  0
   26.5742  -12.2227  -16.3336 C   0  0  0  0  0  0  0  0  0  0  0  0
   27.6562  -11.9445  -15.5202 C   0  0  0  0  0  0  0  0  0  0  0  0
   28.3999  -12.9772  -14.9689 C   0  0  0  0  0  0  0  0  0  0  0  0
   28.0337  -14.2869  -15.2520 C   0  0  0  0  0  0  0  0  0  0  0  0
   26.9548  -14.5376  -16.0629 C   0  0  0  0  0  0  0  0  0  0  0  0
   26.2023  -13.5249  -16.6209 C   0  0  0  0  0  0  0  0  0  0  0  0
   24.1957   -9.3120  -16.3978 C   0  0  0  0  0  0  0  0  0  0  0  0
   23.0250   -9.4596  -16.8207 O   0  0  0  0  0  0  0  0  0  0  0  0
   24.7792   -8.0307  -16.4490 N   0  0  0  0  0  0  0  0  0  0  0  0
   24.1728   -6.8580  -16.9781 C   0  0  0  0  0  0  0  0  0  0  0  0
   23.3273   -6.0897  -16.0590 C   0  0  0  0  0  0  0  0  0  0  0  0
   23.1538   -6.5825  -14.8916 O   0  0  0  0  0  0  0  0  0  0  0  0
   22.6826   -4.8653  -16.3132 N   0  0  0  0  0  0  0  0  0  0  0  0
   21.8827   -4.1368  -15.3495 C   0  0  1  0  0  0  0  0  0  0  0  0
   21.7711   -2.6662  -15.6688 C   0  0  0  0  0  0  0  0  0  0  0  0
   21.0084   -1.9288  -14.6372 C   0  0  0  0  0  0  0  0  0  0  0  0
   20.6712   -2.5263  -13.5886 O   0  0  0  0  0  0  0  0  0  0  0  0
   20.5416   -4.7643  -15.2937 C   0  0  0  0  0  0  0  0  0  0  0  0
   19.7975   -4.6780  -14.1356 O   0  0  0  0  0  0  0  0  0  0  0  0
   20.6651   -0.6165  -14.8019 O   0  0  0  0  0  0  0  0  0  0  0  0
   20.0619   -5.3754  -16.2768 O   0  0  0  0  0  0  0  0  0  0  0  0
  2  1  1  6
  3  2  1  0
  4  9  2  0
  4  3  1  0
  5  4  1  0
  6  7  1  0
  6  5  2  0
  7  8  2  0
  8  9  1  0
 10  2  1  0
 10 12  1  0
 11 10  2  0
 13 12  1  0
 13 14  1  0
 14 16  1  0
 15 14  2  0
 16 17  1  0
 17 21  1  0
 17 18  1  6
 19 18  1  0
 20 19  2  0
 21 24  2  0
 21 22  1  0
 23 19  1  0
M  END
$$$$
