FGD.pdb
     RDKit          3D

 24 24  0  0  1  0  0  0  0  0999 V2000
   25.6810  -21.5458   -9.1201 N   0  0  0  0  0  0  0  0  0  0  0  0
   26.6966  -20.5861   -9.4626 C   0  0  1  0  0  0  0  0  0  0  0  0
   27.9955  -20.9356   -8.7740 C   0  0  0  0  0  0  0  0  0  0  0  0
   28.0298  -20.3611   -7.4274 C   0  0  0  0  0  0  0  0  0  0  0  0
   29.0265  -20.7297   -6.5439 C   0  0  0  0  0  0  0  0  0  0  0  0
   29.0640  -20.1889   -5.2673 C   0  0  0  0  0  0  0  0  0  0  0  0
   28.0835  -19.2754   -4.9017 C   0  0  0  0  0  0  0  0  0  0  0  0
   27.1038  -18.9252   -5.7972 C   0  0  0  0  0  0  0  0  0  0  0  0
   27.0488  -19.4515   -7.0712 C   0  0  0  0  0  0  0  0  0  0  0  0
   26.8837  -20.4669  -10.9322 C   0  0  0  0  0  0  0  0  0  0  0  0
   27.1494  -19.3326  -11.3949 O   0  0  0  0  0  0  0  0  0  0  0  0
   26.7784  -21.5546  -11.8214 N   0  0  0  0  0  0  0  0  0  0  0  0
   26.4480  -21.4748  -13.2024 C   0  0  0  0  0  0  0  0  0  0  0  0
   25.0379  -21.6793  -13.5484 C   0  0  0  0  0  0  0  0  0  0  0  0
   24.5899  -22.8731  -13.4477 O   0  0  0  0  0  0  0  0  0  0  0  0
   24.1147  -20.7088  -13.9790 N   0  0  0  0  0  0  0  0  0  0  0  0
   22.6914  -20.9326  -14.1319 C   0  0  1  0  0  0  0  0  0  0  0  0
   21.8634  -20.1571  -13.1368 C   0  0  0  0  0  0  0  0  0  0  0  0
   21.7834  -20.8404  -11.8267 C   0  0  0  0  0  0  0  0  0  0  0  0
   22.1786  -22.0260  -11.7352 O   0  0  0  0  0  0  0  0  0  0  0  0
   22.3140  -20.5750  -15.5194 C   0  0  0  0  0  0  0  0  0  0  0  0
   21.2672  -21.2328  -16.1309 O   0  0  0  0  0  0  0  0  0  0  0  0
   21.2903  -20.2099  -10.7192 O   0  0  0  0  0  0  0  0  0  0  0  0
   22.9243  -19.6852  -16.1566 O   0  0  0  0  0  0  0  0  0  0  0  0
  2  1  1  6
  3  2  1  0
  4  9  2  0
  4  3  1  0
  5  4  1  0
  6  7  1  0
  6  5  2  0
  7  8  2  0
  8  9  1  0
 10  2  1  0
 10 12  1  0
 11 10  2  0
 13 12  1  0
 13 14  1  0
 14 16  1  0
 15 14  2  0
 16 17  1  0
 17 21  1  0
 17 18  1  1
 19 18  1  0
 20 19  2  0
 21 24  2  0
 21 22  1  0
 23 19  1  0
M  END
$$$$
