FGD.pdb
     RDKit          3D

 24 24  0  0  1  0  0  0  0  0999 V2000
   23.8264  -12.7254  -15.4990 N   0  0  0  0  0  0  0  0  0  0  0  0
   24.1354  -11.6960  -16.4554 C   0  0  1  0  0  0  0  0  0  0  0  0
   25.2394  -12.1581  -17.3779 C   0  0  0  0  0  0  0  0  0  0  0  0
   26.4760  -12.3764  -16.6244 C   0  0  0  0  0  0  0  0  0  0  0  0
   26.7825  -13.6376  -16.1496 C   0  0  0  0  0  0  0  0  0  0  0  0
   27.9521  -13.8503  -15.4354 C   0  0  0  0  0  0  0  0  0  0  0  0
   28.8009  -12.7738  -15.2109 C   0  0  0  0  0  0  0  0  0  0  0  0
   28.4743  -11.5306  -15.6927 C   0  0  0  0  0  0  0  0  0  0  0  0
   27.3161  -11.2981  -16.4052 C   0  0  0  0  0  0  0  0  0  0  0  0
   22.9383  -11.2666  -17.2245 C   0  0  0  0  0  0  0  0  0  0  0  0
   22.3707  -12.1225  -17.9434 O   0  0  0  0  0  0  0  0  0  0  0  0
   22.4156   -9.9589  -17.1857 N   0  0  0  0  0  0  0  0  0  0  0  0
   21.2889   -9.4884  -17.9150 C   0  0  0  0  0  0  0  0  0  0  0  0
   20.9275   -8.0808  -17.7201 C   0  0  0  0  0  0  0  0  0  0  0  0
   19.9372   -7.6432  -18.4012 O   0  0  0  0  0  0  0  0  0  0  0  0
   21.5460   -7.1508  -16.8645 N   0  0  0  0  0  0  0  0  0  0  0  0
   21.2017   -5.7457  -16.7840 C   0  0  1  0  0  0  0  0  0  0  0  0
   20.6393   -5.3536  -15.4397 C   0  0  0  0  0  0  0  0  0  0  0  0
   19.2738   -5.8845  -15.2312 C   0  0  0  0  0  0  0  0  0  0  0  0
   18.4934   -5.9535  -16.2091 O   0  0  0  0  0  0  0  0  0  0  0  0
   22.4149   -4.9543  -17.0956 C   0  0  0  0  0  0  0  0  0  0  0  0
   22.3381   -3.5776  -17.1339 O   0  0  0  0  0  0  0  0  0  0  0  0
   18.8469   -6.2993  -14.0012 O   0  0  0  0  0  0  0  0  0  0  0  0
   23.5162   -5.5054  -17.3269 O   0  0  0  0  0  0  0  0  0  0  0  0
  2  1  1  1
  3  2  1  0
  4  9  2  0
  4  3  1  0
  5  4  1  0
  6  7  1  0
  6  5  2  0
  7  8  2  0
  8  9  1  0
 10  2  1  0
 10 12  1  0
 11 10  2  0
 13 12  1  0
 13 14  1  0
 14 16  1  0
 15 14  2  0
 16 17  1  0
 17 21  1  0
 17 18  1  1
 19 18  1  0
 20 19  2  0
 21 24  2  0
 21 22  1  0
 23 19  1  0
M  END
$$$$
