FGD.pdb
     RDKit          3D

 24 24  0  0  1  0  0  0  0  0999 V2000
   23.3580  -12.1435  -15.1080 N   0  0  0  0  0  0  0  0  0  0  0  0
   23.4976  -10.8697  -15.7620 C   0  0  1  0  0  0  0  0  0  0  0  0
   24.5218  -10.9631  -16.8690 C   0  0  0  0  0  0  0  0  0  0  0  0
   25.8053  -11.4280  -16.3387 C   0  0  0  0  0  0  0  0  0  0  0  0
   26.7131  -10.5186  -15.8300 C   0  0  0  0  0  0  0  0  0  0  0  0
   27.9301  -10.9531  -15.3265 C   0  0  0  0  0  0  0  0  0  0  0  0
   28.2119  -12.3132  -15.3458 C   0  0  0  0  0  0  0  0  0  0  0  0
   27.2937  -13.1969  -15.8564 C   0  0  0  0  0  0  0  0  0  0  0  0
   26.0779  -12.7851  -16.3618 C   0  0  0  0  0  0  0  0  0  0  0  0
   22.2000  -10.3562  -16.2736 C   0  0  0  0  0  0  0  0  0  0  0  0
   21.4632  -11.1557  -16.8974 O   0  0  0  0  0  0  0  0  0  0  0  0
   21.7623   -9.0292  -16.0938 N   0  0  0  0  0  0  0  0  0  0  0  0
   20.5185   -8.4944  -16.5293 C   0  0  0  0  0  0  0  0  0  0  0  0
   20.2835   -7.0753  -16.2447 C   0  0  0  0  0  0  0  0  0  0  0  0
   21.1572   -6.4828  -15.5226 O   0  0  0  0  0  0  0  0  0  0  0  0
   19.2032   -6.2848  -16.6779 N   0  0  0  0  0  0  0  0  0  0  0  0
   19.0493   -4.8715  -16.3989 C   0  0  1  0  0  0  0  0  0  0  0  0
   18.3121   -4.1332  -17.4892 C   0  0  0  0  0  0  0  0  0  0  0  0
   18.2391   -2.6789  -17.2257 C   0  0  0  0  0  0  0  0  0  0  0  0
   17.2588   -2.0314  -17.6615 O   0  0  0  0  0  0  0  0  0  0  0  0
   18.3461   -4.7303  -15.1024 C   0  0  0  0  0  0  0  0  0  0  0  0
   17.8591   -5.8532  -14.4666 O   0  0  0  0  0  0  0  0  0  0  0  0
   19.2128   -2.0292  -16.5206 O   0  0  0  0  0  0  0  0  0  0  0  0
   18.1808   -3.6108  -14.5643 O   0  0  0  0  0  0  0  0  0  0  0  0
  2  1  1  6
  3  2  1  0
  4  9  2  0
  4  3  1  0
  5  4  1  0
  6  7  1  0
  6  5  2  0
  7  8  2  0
  8  9  1  0
 10  2  1  0
 10 12  1  0
 11 10  2  0
 13 12  1  0
 13 14  1  0
 14 16  1  0
 15 14  2  0
 16 17  1  0
 17 21  1  0
 17 18  1  6
 19 18  1  0
 20 19  2  0
 21 24  2  0
 21 22  1  0
 23 19  1  0
M  END
$$$$
