FGD.pdb
     RDKit          3D

 24 24  0  0  1  0  0  0  0  0999 V2000
   26.4758  -17.9649  -19.1627 N   0  0  0  0  0  0  0  0  0  0  0  0
   25.1459  -17.4629  -18.9415 C   0  0  1  0  0  0  0  0  0  0  0  0
   24.5711  -16.9272  -20.2322 C   0  0  0  0  0  0  0  0  0  0  0  0
   25.4647  -15.9212  -20.8100 C   0  0  0  0  0  0  0  0  0  0  0  0
   25.5156  -14.6501  -20.2699 C   0  0  0  0  0  0  0  0  0  0  0  0
   26.3600  -13.6933  -20.8130 C   0  0  0  0  0  0  0  0  0  0  0  0
   27.1468  -14.0409  -21.9038 C   0  0  0  0  0  0  0  0  0  0  0  0
   27.0784  -15.3101  -22.4223 C   0  0  0  0  0  0  0  0  0  0  0  0
   26.2453  -16.2760  -21.8970 C   0  0  0  0  0  0  0  0  0  0  0  0
   24.2520  -18.4869  -18.3404 C   0  0  0  0  0  0  0  0  0  0  0  0
   24.5797  -19.6905  -18.4649 O   0  0  0  0  0  0  0  0  0  0  0  0
   23.0671  -18.1748  -17.6451 N   0  0  0  0  0  0  0  0  0  0  0  0
   22.1456  -19.1128  -17.1032 C   0  0  0  0  0  0  0  0  0  0  0  0
   21.0261  -18.5582  -16.3356 C   0  0  0  0  0  0  0  0  0  0  0  0
   21.0372  -17.2948  -16.1367 O   0  0  0  0  0  0  0  0  0  0  0  0
   19.9341  -19.2584  -15.7908 N   0  0  0  0  0  0  0  0  0  0  0  0
   18.8796  -18.6582  -14.9990 C   0  0  1  0  0  0  0  0  0  0  0  0
   17.5302  -19.2889  -15.2410 C   0  0  0  0  0  0  0  0  0  0  0  0
   16.4563  -18.6166  -14.4765 C   0  0  0  0  0  0  0  0  0  0  0  0
   16.1313  -19.0737  -13.3560 O   0  0  0  0  0  0  0  0  0  0  0  0
   19.2583  -18.7625  -13.5703 C   0  0  0  0  0  0  0  0  0  0  0  0
   18.7890  -17.8271  -12.6719 O   0  0  0  0  0  0  0  0  0  0  0  0
   15.8139  -17.5131  -14.9632 O   0  0  0  0  0  0  0  0  0  0  0  0
   19.9982  -19.6838  -13.1534 O   0  0  0  0  0  0  0  0  0  0  0  0
  2  1  1  6
  3  2  1  0
  4  9  2  0
  4  3  1  0
  5  4  1  0
  6  7  1  0
  6  5  2  0
  7  8  2  0
  8  9  1  0
 10  2  1  0
 10 12  1  0
 11 10  2  0
 13 12  1  0
 13 14  1  0
 14 16  1  0
 15 14  2  0
 16 17  1  0
 17 21  1  0
 17 18  1  1
 19 18  1  0
 20 19  2  0
 21 24  2  0
 21 22  1  0
 23 19  1  0
M  END
$$$$
