FGD.pdb
     RDKit          3D

 24 24  0  0  1  0  0  0  0  0999 V2000
   25.2587  -20.0422   -8.3999 N   0  0  0  0  0  0  0  0  0  0  0  0
   26.5052  -20.4364   -9.0007 C   0  0  1  0  0  0  0  0  0  0  0  0
   27.2668  -21.3483   -8.0671 C   0  0  0  0  0  0  0  0  0  0  0  0
   27.6907  -20.6161   -6.8718 C   0  0  0  0  0  0  0  0  0  0  0  0
   28.8319  -19.8375   -6.9068 C   0  0  0  0  0  0  0  0  0  0  0  0
   29.2382  -19.1418   -5.7778 C   0  0  0  0  0  0  0  0  0  0  0  0
   28.4764  -19.2459   -4.6210 C   0  0  0  0  0  0  0  0  0  0  0  0
   27.3467  -20.0258   -4.6113 C   0  0  0  0  0  0  0  0  0  0  0  0
   26.9256  -20.7255   -5.7232 C   0  0  0  0  0  0  0  0  0  0  0  0
   26.3114  -21.0709  -10.3307 C   0  0  0  0  0  0  0  0  0  0  0  0
   25.6184  -22.1141  -10.3822 O   0  0  0  0  0  0  0  0  0  0  0  0
   26.8625  -20.5628  -11.5236 N   0  0  0  0  0  0  0  0  0  0  0  0
   26.2172  -19.6775  -12.4304 C   0  0  0  0  0  0  0  0  0  0  0  0
   24.9938  -20.1746  -13.0678 C   0  0  0  0  0  0  0  0  0  0  0  0
   24.9452  -20.1101  -14.3442 O   0  0  0  0  0  0  0  0  0  0  0  0
   23.8616  -20.7191  -12.4346 N   0  0  0  0  0  0  0  0  0  0  0  0
   22.6118  -21.0284  -13.0992 C   0  0  1  0  0  0  0  0  0  0  0  0
   22.1557  -22.4476  -12.8643 C   0  0  0  0  0  0  0  0  0  0  0  0
   20.8162  -22.7041  -13.4384 C   0  0  0  0  0  0  0  0  0  0  0  0
   20.5491  -22.2588  -14.5788 O   0  0  0  0  0  0  0  0  0  0  0  0
   21.5886  -20.0647  -12.6307 C   0  0  0  0  0  0  0  0  0  0  0  0
   20.5806  -19.6726  -13.4865 O   0  0  0  0  0  0  0  0  0  0  0  0
   19.8682  -23.4127  -12.7555 O   0  0  0  0  0  0  0  0  0  0  0  0
   21.6143  -19.5930  -11.4701 O   0  0  0  0  0  0  0  0  0  0  0  0
  2  1  1  1
  3  2  1  0
  4  9  2  0
  4  3  1  0
  5  4  1  0
  6  7  1  0
  6  5  2  0
  7  8  2  0
  8  9  1  0
 10  2  1  0
 10 12  1  0
 11 10  2  0
 13 12  1  0
 13 14  1  0
 14 16  1  0
 15 14  2  0
 16 17  1  0
 17 21  1  0
 17 18  1  1
 19 18  1  0
 20 19  2  0
 21 24  2  0
 21 22  1  0
 23 19  1  0
M  END
$$$$
