FGD.pdb
     RDKit          3D

 24 24  0  0  1  0  0  0  0  0999 V2000
   26.4603  -22.0674  -13.0717 N   0  0  0  0  0  0  0  0  0  0  0  0
   25.9131  -21.0240  -12.2460 C   0  0  1  0  0  0  0  0  0  0  0  0
   26.9957  -20.0411  -11.8648 C   0  0  0  0  0  0  0  0  0  0  0  0
   28.0439  -20.7110  -11.0920 C   0  0  0  0  0  0  0  0  0  0  0  0
   29.2417  -21.0439  -11.6956 C   0  0  0  0  0  0  0  0  0  0  0  0
   30.2380  -21.6783  -10.9687 C   0  0  0  0  0  0  0  0  0  0  0  0
   30.0045  -21.9684   -9.6305 C   0  0  0  0  0  0  0  0  0  0  0  0
   28.8063  -21.6276   -9.0536 C   0  0  0  0  0  0  0  0  0  0  0  0
   27.8028  -20.9964   -9.7590 C   0  0  0  0  0  0  0  0  0  0  0  0
   24.7682  -20.3353  -12.8970 C   0  0  0  0  0  0  0  0  0  0  0  0
   24.1362  -19.4905  -12.2200 O   0  0  0  0  0  0  0  0  0  0  0  0
   24.3627  -20.5825  -14.2233 N   0  0  0  0  0  0  0  0  0  0  0  0
   23.2771  -19.9554  -14.8949 C   0  0  0  0  0  0  0  0  0  0  0  0
   21.9824  -20.6397  -14.8216 C   0  0  0  0  0  0  0  0  0  0  0  0
   21.8720  -21.7304  -15.4805 O   0  0  0  0  0  0  0  0  0  0  0  0
   20.8415  -20.2343  -14.1051 N   0  0  0  0  0  0  0  0  0  0  0  0
   19.5865  -20.9576  -14.0714 C   0  0  1  0  0  0  0  0  0  0  0  0
   19.0800  -21.1924  -12.6694 C   0  0  0  0  0  0  0  0  0  0  0  0
   19.6903  -22.3899  -12.0502 C   0  0  0  0  0  0  0  0  0  0  0  0
   20.1973  -23.2645  -12.7906 O   0  0  0  0  0  0  0  0  0  0  0  0
   18.5939  -20.1980  -14.8670 C   0  0  0  0  0  0  0  0  0  0  0  0
   17.7248  -20.8752  -15.6967 O   0  0  0  0  0  0  0  0  0  0  0  0
   19.7131  -22.5623  -10.6949 O   0  0  0  0  0  0  0  0  0  0  0  0
   18.5221  -18.9485  -14.8060 O   0  0  0  0  0  0  0  0  0  0  0  0
  2  1  1  6
  3  2  1  0
  4  9  2  0
  4  3  1  0
  5  4  1  0
  6  7  1  0
  6  5  2  0
  7  8  2  0
  8  9  1  0
 10  2  1  0
 10 12  1  0
 11 10  2  0
 13 12  1  0
 13 14  1  0
 14 16  1  0
 15 14  2  0
 16 17  1  0
 17 21  1  0
 17 18  1  1
 19 18  1  0
 20 19  2  0
 21 24  2  0
 21 22  1  0
 23 19  1  0
M  END
$$$$
