FGD.pdb
     RDKit          3D

 24 24  0  0  1  0  0  0  0  0999 V2000
   25.6907  -21.2393   -7.2321 N   0  0  0  0  0  0  0  0  0  0  0  0
   26.2197  -20.3049   -8.1898 C   0  0  1  0  0  0  0  0  0  0  0  0
   27.7179  -20.1897   -8.0308 C   0  0  0  0  0  0  0  0  0  0  0  0
   28.0539  -19.7282   -6.6821 C   0  0  0  0  0  0  0  0  0  0  0  0
   28.7230  -20.5672   -5.8113 C   0  0  0  0  0  0  0  0  0  0  0  0
   29.0438  -20.1356   -4.5329 C   0  0  0  0  0  0  0  0  0  0  0  0
   28.6791  -18.8503   -4.1524 C   0  0  0  0  0  0  0  0  0  0  0  0
   28.0149  -18.0358   -5.0356 C   0  0  0  0  0  0  0  0  0  0  0  0
   27.6867  -18.4460   -6.3112 C   0  0  0  0  0  0  0  0  0  0  0  0
   25.8543  -20.6638   -9.5850 C   0  0  0  0  0  0  0  0  0  0  0  0
   25.9975  -21.8590   -9.9349 O   0  0  0  0  0  0  0  0  0  0  0  0
   25.3603  -19.7366  -10.5237 N   0  0  0  0  0  0  0  0  0  0  0  0
   24.9290  -20.0363  -11.8454 C   0  0  0  0  0  0  0  0  0  0  0  0
   23.5050  -20.3435  -12.0127 C   0  0  0  0  0  0  0  0  0  0  0  0
   22.8723  -20.7182  -10.9662 O   0  0  0  0  0  0  0  0  0  0  0  0
   22.7492  -20.2717  -13.1972 N   0  0  0  0  0  0  0  0  0  0  0  0
   21.3170  -20.4751  -13.2772 C   0  0  1  0  0  0  0  0  0  0  0  0
   20.6879  -19.7744  -14.4564 C   0  0  0  0  0  0  0  0  0  0  0  0
   20.6640  -18.3050  -14.2830 C   0  0  0  0  0  0  0  0  0  0  0  0
   21.0398  -17.5758  -15.2302 O   0  0  0  0  0  0  0  0  0  0  0  0
   21.0600  -21.9331  -13.3357 C   0  0  0  0  0  0  0  0  0  0  0  0
   22.0239  -22.7739  -13.8518 O   0  0  0  0  0  0  0  0  0  0  0  0
   20.2431  -17.7282  -13.1179 O   0  0  0  0  0  0  0  0  0  0  0  0
   19.9833  -22.4264  -12.9263 O   0  0  0  0  0  0  0  0  0  0  0  0
  2  1  1  1
  3  2  1  0
  4  9  2  0
  4  3  1  0
  5  4  1  0
  6  7  1  0
  6  5  2  0
  7  8  2  0
  8  9  1  0
 10  2  1  0
 10 12  1  0
 11 10  2  0
 13 12  1  0
 13 14  1  0
 14 16  1  0
 15 14  2  0
 16 17  1  0
 17 21  1  0
 17 18  1  6
 19 18  1  0
 20 19  2  0
 21 24  2  0
 21 22  1  0
 23 19  1  0
M  END
$$$$
