FGD.pdb
     RDKit          3D

 24 24  0  0  1  0  0  0  0  0999 V2000
   27.8224  -22.0874   -8.5075 N   0  0  0  0  0  0  0  0  0  0  0  0
   27.6635  -20.7012   -8.8582 C   0  0  1  0  0  0  0  0  0  0  0  0
   28.7667  -19.8776   -8.2353 C   0  0  0  0  0  0  0  0  0  0  0  0
   28.5779  -19.7847   -6.7860 C   0  0  0  0  0  0  0  0  0  0  0  0
   27.5275  -19.0486   -6.2717 C   0  0  0  0  0  0  0  0  0  0  0  0
   27.3438  -18.9570   -4.9001 C   0  0  0  0  0  0  0  0  0  0  0  0
   28.2339  -19.6178   -4.0630 C   0  0  0  0  0  0  0  0  0  0  0  0
   29.2695  -20.3428   -4.5981 C   0  0  0  0  0  0  0  0  0  0  0  0
   29.4696  -20.4463   -5.9591 C   0  0  0  0  0  0  0  0  0  0  0  0
   27.6072  -20.4972  -10.3293 C   0  0  0  0  0  0  0  0  0  0  0  0
   28.6090  -20.8356  -11.0025 O   0  0  0  0  0  0  0  0  0  0  0  0
   26.4950  -19.9480  -10.9973 N   0  0  0  0  0  0  0  0  0  0  0  0
   25.1292  -20.1929  -10.6850 C   0  0  0  0  0  0  0  0  0  0  0  0
   24.2469  -20.4999  -11.8151 C   0  0  0  0  0  0  0  0  0  0  0  0
   24.2629  -19.6780  -12.7951 O   0  0  0  0  0  0  0  0  0  0  0  0
   23.3810  -21.6008  -11.9482 N   0  0  0  0  0  0  0  0  0  0  0  0
   22.0473  -21.5400  -12.5110 C   0  0  1  0  0  0  0  0  0  0  0  0
   20.9806  -22.0009  -11.5482 C   0  0  0  0  0  0  0  0  0  0  0  0
   19.6276  -21.9367  -12.1440 C   0  0  0  0  0  0  0  0  0  0  0  0
   19.5074  -21.5868  -13.3412 O   0  0  0  0  0  0  0  0  0  0  0  0
   21.7931  -20.1471  -12.9473 C   0  0  0  0  0  0  0  0  0  0  0  0
   21.2669  -19.2389  -12.0525 O   0  0  0  0  0  0  0  0  0  0  0  0
   18.5112  -22.2492  -11.4207 O   0  0  0  0  0  0  0  0  0  0  0  0
   22.0450  -19.7692  -14.1152 O   0  0  0  0  0  0  0  0  0  0  0  0
  2  1  1  6
  3  2  1  0
  4  9  2  0
  4  3  1  0
  5  4  1  0
  6  7  1  0
  6  5  2  0
  7  8  2  0
  8  9  1  0
 10  2  1  0
 10 12  1  0
 11 10  2  0
 13 12  1  0
 13 14  1  0
 14 16  1  0
 15 14  2  0
 16 17  1  0
 17 21  1  0
 17 18  1  1
 19 18  1  0
 20 19  2  0
 21 24  2  0
 21 22  1  0
 23 19  1  0
M  END
$$$$
