NPP.pdb
     RDKit          3D

 23 24  0  0  1  0  0  0  0  0999 V2000
   13.4809  -14.5233   17.8423 N   0  0  0  0  0  0  0  0  0  0  0  0
   13.4178  -14.8811   19.2070 C   0  0  0  0  0  0  0  0  0  0  0  0
   14.2604  -15.7510   19.6205 O   0  0  0  0  0  0  0  0  0  0  0  0
   12.4055  -14.2582   20.0826 C   0  0  0  0  0  0  0  0  0  0  0  0
   11.4026  -15.2989   20.5913 C   0  0  2  0  0  0  0  0  0  0  0  0
   10.6904  -15.9048   19.5334 N   0  0  0  0  0  0  0  0  0  0  0  0
   10.5970  -14.7512   21.6935 C   0  0  0  0  0  0  0  0  0  0  0  0
   11.2874  -14.6220   22.7801 O   0  0  0  0  0  0  0  0  0  0  0  0
    9.2472  -14.3695   21.7149 N   0  0  0  0  0  0  0  0  0  0  0  0
    8.5400  -13.7416   20.5786 C   0  0  0  0  0  0  0  0  0  0  0  0
    7.1459  -14.3922   20.6309 C   0  0  0  0  0  0  0  0  0  0  0  0
    7.1986  -15.2959   21.8727 C   0  0  0  0  0  0  0  0  0  0  0  0
    8.1979  -14.4363   22.6858 C   0  0  1  0  0  0  0  0  0  0  0  0
    8.4137  -14.9190   24.0061 C   0  0  0  0  0  0  0  0  0  0  0  0
    9.1816  -15.8333   24.4305 O   0  0  0  0  0  0  0  0  0  0  0  0
    7.6453  -14.2796   25.0647 N   0  0  0  0  0  0  0  0  0  0  0  0
    6.5723  -13.3216   24.9352 C   0  0  0  0  0  0  0  0  0  0  0  0
    6.6957  -12.4034   26.1407 C   0  0  0  0  0  0  0  0  0  0  0  0
    7.7173  -13.0581   27.0369 C   0  0  0  0  0  0  0  0  0  0  0  0
    7.7964  -14.4652   26.4989 C   0  0  1  0  0  0  0  0  0  0  0  0
    6.6698  -15.2422   27.0672 C   0  0  0  0  0  0  0  0  0  0  0  0
    5.5951  -15.3463   26.4314 O   0  0  0  0  0  0  0  0  0  0  0  0
    6.7485  -15.8755   28.2984 O   0  0  0  0  0  0  0  0  0  0  0  0
  2  1  1  0
  3  2  2  0
  4  5  1  0
  4  2  1  0
  5  6  1  6
  7  9  1  0
  7  5  1  0
  8  7  2  0
  9 13  1  0
 10 11  1  0
 10  9  1  0
 11 12  1  0
 12 13  1  0
 13 14  1  1
 14 16  1  0
 15 14  2  0
 16 20  1  0
 16 17  1  0
 17 18  1  0
 19 18  1  0
 20 19  1  0
 21 23  1  0
 20 21  1  1
 22 21  2  0
M  END
$$$$
