NPP.pdb
     RDKit          3D

 23 24  0  0  1  0  0  0  0  0999 V2000
    9.2832  -20.4760   20.2450 N   0  0  0  0  0  0  0  0  0  0  0  0
   10.3001  -19.6833   20.8209 C   0  0  0  0  0  0  0  0  0  0  0  0
   11.5099  -20.0393   20.6028 O   0  0  0  0  0  0  0  0  0  0  0  0
    9.9398  -18.5063   21.6360 C   0  0  0  0  0  0  0  0  0  0  0  0
    9.9527  -17.2276   20.7919 C   0  0  2  0  0  0  0  0  0  0  0  0
   11.0470  -17.1961   19.9003 N   0  0  0  0  0  0  0  0  0  0  0  0
    9.7656  -16.0408   21.6406 C   0  0  0  0  0  0  0  0  0  0  0  0
   10.8369  -15.7459   22.3035 O   0  0  0  0  0  0  0  0  0  0  0  0
    8.6340  -15.2297   21.8123 N   0  0  0  0  0  0  0  0  0  0  0  0
    7.7918  -14.7282   20.7056 C   0  0  0  0  0  0  0  0  0  0  0  0
    6.3665  -14.8230   21.2794 C   0  0  0  0  0  0  0  0  0  0  0  0
    6.5724  -15.3204   22.7187 C   0  0  0  0  0  0  0  0  0  0  0  0
    7.9597  -14.6695   22.9435 C   0  0  1  0  0  0  0  0  0  0  0  0
    8.4466  -14.8226   24.2711 C   0  0  0  0  0  0  0  0  0  0  0  0
    9.4343  -15.4826   24.7121 O   0  0  0  0  0  0  0  0  0  0  0  0
    7.7160  -14.1190   25.3156 N   0  0  0  0  0  0  0  0  0  0  0  0
    6.4933  -13.3600   25.1936 C   0  0  0  0  0  0  0  0  0  0  0  0
    6.6081  -12.2332   26.2079 C   0  0  0  0  0  0  0  0  0  0  0  0
    7.8224  -12.5671   27.0382 C   0  0  0  0  0  0  0  0  0  0  0  0
    8.0654  -14.0223   26.7237 C   0  0  1  0  0  0  0  0  0  0  0  0
    7.1568  -14.8358   27.5654 C   0  0  0  0  0  0  0  0  0  0  0  0
    6.0538  -15.2184   27.1102 O   0  0  0  0  0  0  0  0  0  0  0  0
    7.4752  -15.2039   28.8639 O   0  0  0  0  0  0  0  0  0  0  0  0
  2  1  1  0
  3  2  2  0
  4  5  1  0
  4  2  1  0
  5  6  1  1
  7  9  1  0
  7  5  1  0
  8  7  2  0
  9 13  1  0
 10 11  1  0
 10  9  1  0
 11 12  1  0
 12 13  1  0
 13 14  1  1
 14 16  1  0
 15 14  2  0
 16 20  1  0
 16 17  1  0
 17 18  1  0
 19 18  1  0
 20 19  1  0
 21 23  1  0
 20 21  1  1
 22 21  2  0
M  END
$$$$
