NPP.pdb
     RDKit          3D

 23 24  0  0  1  0  0  0  0  0999 V2000
   11.1838  -20.3621   21.0637 N   0  0  0  0  0  0  0  0  0  0  0  0
   10.0957  -19.4874   20.8511 C   0  0  0  0  0  0  0  0  0  0  0  0
    9.2876  -19.7828   19.9038 O   0  0  0  0  0  0  0  0  0  0  0  0
    9.9370  -18.2930   21.7042 C   0  0  0  0  0  0  0  0  0  0  0  0
   10.1122  -17.0074   20.8892 C   0  0  2  0  0  0  0  0  0  0  0  0
   11.3171  -17.0105   20.1534 N   0  0  0  0  0  0  0  0  0  0  0  0
    9.8577  -15.8228   21.7232 C   0  0  0  0  0  0  0  0  0  0  0  0
   10.9228  -15.4294   22.3436 O   0  0  0  0  0  0  0  0  0  0  0  0
    8.6703  -15.1020   21.9198 N   0  0  0  0  0  0  0  0  0  0  0  0
    7.8121  -14.5950   20.8279 C   0  0  0  0  0  0  0  0  0  0  0  0
    6.3883  -14.8200   21.3682 C   0  0  0  0  0  0  0  0  0  0  0  0
    6.6066  -15.3858   22.7802 C   0  0  0  0  0  0  0  0  0  0  0  0
    7.9420  -14.6563   23.0683 C   0  0  1  0  0  0  0  0  0  0  0  0
    8.4184  -14.8535   24.3939 C   0  0  0  0  0  0  0  0  0  0  0  0
    9.3784  -15.5598   24.8246 O   0  0  0  0  0  0  0  0  0  0  0  0
    7.7125  -14.1420   25.4499 N   0  0  0  0  0  0  0  0  0  0  0  0
    6.5238  -13.3293   25.3386 C   0  0  0  0  0  0  0  0  0  0  0  0
    6.6805  -12.2305   26.3776 C   0  0  0  0  0  0  0  0  0  0  0  0
    7.8748  -12.6334   27.2062 C   0  0  0  0  0  0  0  0  0  0  0  0
    8.0576  -14.0905   26.8614 C   0  0  1  0  0  0  0  0  0  0  0  0
    7.1106  -14.8826   27.6810 C   0  0  0  0  0  0  0  0  0  0  0  0
    5.9983  -15.2151   27.2093 O   0  0  0  0  0  0  0  0  0  0  0  0
    7.4020  -15.2839   28.9759 O   0  0  0  0  0  0  0  0  0  0  0  0
  2  1  1  0
  3  2  2  0
  4  5  1  0
  4  2  1  0
  5  6  1  1
  7  9  1  0
  7  5  1  0
  8  7  2  0
  9 13  1  0
 10 11  1  0
 10  9  1  0
 11 12  1  0
 12 13  1  0
 13 14  1  1
 14 16  1  0
 15 14  2  0
 16 20  1  0
 16 17  1  0
 17 18  1  0
 19 18  1  0
 20 19  1  0
 21 23  1  0
 20 21  1  1
 22 21  2  0
M  END
$$$$
