NPP.pdb
     RDKit          3D

 23 24  0  0  1  0  0  0  0  0999 V2000
   10.4412  -19.6120   19.5149 N   0  0  0  0  0  0  0  0  0  0  0  0
   11.2510  -19.2579   20.6163 C   0  0  0  0  0  0  0  0  0  0  0  0
   12.3585  -19.8850   20.7504 O   0  0  0  0  0  0  0  0  0  0  0  0
   10.7998  -18.2080   21.5510 C   0  0  0  0  0  0  0  0  0  0  0  0
   10.2529  -16.9942   20.7927 C   0  0  2  0  0  0  0  0  0  0  0  0
   11.0801  -16.6355   19.7062 N   0  0  0  0  0  0  0  0  0  0  0  0
    9.8935  -15.9153   21.7257 C   0  0  0  0  0  0  0  0  0  0  0  0
   10.8972  -15.5538   22.4578 O   0  0  0  0  0  0  0  0  0  0  0  0
    8.6663  -15.2614   21.9118 N   0  0  0  0  0  0  0  0  0  0  0  0
    7.7333  -14.9125   20.8193 C   0  0  0  0  0  0  0  0  0  0  0  0
    6.3507  -15.1839   21.4393 C   0  0  0  0  0  0  0  0  0  0  0  0
    6.6622  -15.6059   22.8836 C   0  0  0  0  0  0  0  0  0  0  0  0
    7.9525  -14.7655   23.0487 C   0  0  1  0  0  0  0  0  0  0  0  0
    8.4918  -14.8115   24.3640 C   0  0  0  0  0  0  0  0  0  0  0  0
    9.5166  -15.4083   24.8105 O   0  0  0  0  0  0  0  0  0  0  0  0
    7.7759  -14.0610   25.3857 N   0  0  0  0  0  0  0  0  0  0  0  0
    6.5215  -13.3561   25.2613 C   0  0  0  0  0  0  0  0  0  0  0  0
    6.6324  -12.1562   26.1883 C   0  0  0  0  0  0  0  0  0  0  0  0
    7.8897  -12.3869   26.9893 C   0  0  0  0  0  0  0  0  0  0  0  0
    8.1755  -13.8514   26.7680 C   0  0  1  0  0  0  0  0  0  0  0  0
    7.3316  -14.6340   27.7014 C   0  0  0  0  0  0  0  0  0  0  0  0
    7.6608  -14.7412   28.9057 O   0  0  0  0  0  0  0  0  0  0  0  0
    6.1667  -15.2688   27.2978 O   0  0  0  0  0  0  0  0  0  0  0  0
  2  1  1  0
  3  2  2  0
  4  5  1  0
  4  2  1  0
  5  6  1  6
  7  9  1  0
  7  5  1  0
  8  7  2  0
  9 13  1  0
 10 11  1  0
 10  9  1  0
 11 12  1  0
 12 13  1  0
 13 14  1  1
 14 16  1  0
 15 14  2  0
 16 20  1  0
 16 17  1  0
 17 18  1  0
 19 18  1  0
 20 19  1  0
 21 23  1  0
 20 21  1  1
 22 21  2  0
M  END
$$$$
