NPP.pdb
     RDKit          3D

 23 24  0  0  1  0  0  0  0  0999 V2000
   12.2885  -18.8661   19.5903 N   0  0  0  0  0  0  0  0  0  0  0  0
   12.9404  -17.7361   20.1310 C   0  0  0  0  0  0  0  0  0  0  0  0
   14.2166  -17.7838   20.2130 O   0  0  0  0  0  0  0  0  0  0  0  0
   12.1461  -16.5733   20.5744 C   0  0  0  0  0  0  0  0  0  0  0  0
   10.8769  -17.0209   21.3067 C   0  0  2  0  0  0  0  0  0  0  0  0
    9.7347  -16.9353   20.4812 N   0  0  0  0  0  0  0  0  0  0  0  0
   10.7811  -16.3761   22.6254 C   0  0  0  0  0  0  0  0  0  0  0  0
   11.9135  -16.3833   23.2513 O   0  0  0  0  0  0  0  0  0  0  0  0
    9.6771  -15.7839   23.2567 N   0  0  0  0  0  0  0  0  0  0  0  0
    8.5789  -15.0967   22.5445 C   0  0  0  0  0  0  0  0  0  0  0  0
    7.3295  -15.5146   23.3408 C   0  0  0  0  0  0  0  0  0  0  0  0
    7.8850  -16.3654   24.4936 C   0  0  0  0  0  0  0  0  0  0  0  0
    9.2503  -15.6444   24.6155 C   0  0  1  0  0  0  0  0  0  0  0  0
   10.0350  -16.1029   25.7095 C   0  0  0  0  0  0  0  0  0  0  0  0
   10.8864  -17.0394   25.7735 O   0  0  0  0  0  0  0  0  0  0  0  0
    9.8570  -15.4037   26.9741 N   0  0  0  0  0  0  0  0  0  0  0  0
    8.8308  -14.4523   27.3316 C   0  0  0  0  0  0  0  0  0  0  0  0
    9.4973  -13.4684   28.2797 C   0  0  0  0  0  0  0  0  0  0  0  0
   10.8407  -14.0738   28.6022 C   0  0  0  0  0  0  0  0  0  0  0  0
   10.6861  -15.5089   28.1640 C   0  0  1  0  0  0  0  0  0  0  0  0
    9.9937  -16.2507   29.2440 C   0  0  0  0  0  0  0  0  0  0  0  0
    8.7677  -16.4930   29.1530 O   0  0  0  0  0  0  0  0  0  0  0  0
   10.6523  -16.7011   30.3782 O   0  0  0  0  0  0  0  0  0  0  0  0
  2  1  1  0
  3  2  2  0
  4  5  1  0
  4  2  1  0
  5  6  1  6
  7  9  1  0
  7  5  1  0
  8  7  2  0
  9 13  1  0
 10 11  1  0
 10  9  1  0
 11 12  1  0
 12 13  1  0
 13 14  1  1
 14 16  1  0
 15 14  2  0
 16 20  1  0
 16 17  1  0
 17 18  1  0
 19 18  1  0
 20 19  1  0
 21 23  1  0
 20 21  1  1
 22 21  2  0
M  END
$$$$
