NPP.pdb
     RDKit          3D

 23 24  0  0  1  0  0  0  0  0999 V2000
    9.2435  -19.1479   18.8759 N   0  0  0  0  0  0  0  0  0  0  0  0
    9.9681  -19.4298   20.0547 C   0  0  0  0  0  0  0  0  0  0  0  0
   10.7090  -20.4732   20.0474 O   0  0  0  0  0  0  0  0  0  0  0  0
    9.8440  -18.5363   21.2235 C   0  0  0  0  0  0  0  0  0  0  0  0
   10.0709  -17.0743   20.8250 C   0  0  2  0  0  0  0  0  0  0  0  0
   11.0748  -16.9465   19.8406 N   0  0  0  0  0  0  0  0  0  0  0  0
   10.2118  -16.2249   22.0177 C   0  0  0  0  0  0  0  0  0  0  0  0
   11.4127  -16.2598   22.4978 O   0  0  0  0  0  0  0  0  0  0  0  0
    9.2607  -15.4226   22.6655 N   0  0  0  0  0  0  0  0  0  0  0  0
    8.1888  -14.6761   21.9730 C   0  0  0  0  0  0  0  0  0  0  0  0
    6.9857  -14.8304   22.9210 C   0  0  0  0  0  0  0  0  0  0  0  0
    7.5469  -15.6159   24.1165 C   0  0  0  0  0  0  0  0  0  0  0  0
    8.9964  -15.0773   24.0289 C   0  0  1  0  0  0  0  0  0  0  0  0
    9.8264  -15.5140   25.0982 C   0  0  0  0  0  0  0  0  0  0  0  0
   10.7424  -16.3894   25.1214 O   0  0  0  0  0  0  0  0  0  0  0  0
    9.6169  -14.8703   26.3872 N   0  0  0  0  0  0  0  0  0  0  0  0
    8.5650  -13.9572   26.7687 C   0  0  0  0  0  0  0  0  0  0  0  0
    9.1971  -12.9975   27.7640 C   0  0  0  0  0  0  0  0  0  0  0  0
   10.5500  -13.5852   28.0798 C   0  0  0  0  0  0  0  0  0  0  0  0
   10.4335  -15.0047   27.5827 C   0  0  1  0  0  0  0  0  0  0  0  0
    9.7451  -15.8044   28.6231 C   0  0  0  0  0  0  0  0  0  0  0  0
   10.3533  -16.1307   29.6689 O   0  0  0  0  0  0  0  0  0  0  0  0
    8.4283  -16.2195   28.4931 O   0  0  0  0  0  0  0  0  0  0  0  0
  2  1  1  0
  3  2  2  0
  4  5  1  0
  4  2  1  0
  5  6  1  6
  7  9  1  0
  7  5  1  0
  8  7  2  0
  9 13  1  0
 10 11  1  0
 10  9  1  0
 11 12  1  0
 12 13  1  0
 13 14  1  1
 14 16  1  0
 15 14  2  0
 16 20  1  0
 16 17  1  0
 17 18  1  0
 19 18  1  0
 20 19  1  0
 21 23  1  0
 20 21  1  1
 22 21  2  0
M  END
$$$$
