NPP.pdb
     RDKit          3D

 23 24  0  0  1  0  0  0  0  0999 V2000
    9.0955  -19.9787   19.4901 N   0  0  0  0  0  0  0  0  0  0  0  0
   10.0605  -19.5594   20.4320 C   0  0  0  0  0  0  0  0  0  0  0  0
   11.1670  -20.2018   20.4573 O   0  0  0  0  0  0  0  0  0  0  0  0
    9.7635  -18.4280   21.3326 C   0  0  0  0  0  0  0  0  0  0  0  0
   10.0244  -17.0879   20.6371 C   0  0  2  0  0  0  0  0  0  0  0  0
   11.2466  -17.0907   19.9302 N   0  0  0  0  0  0  0  0  0  0  0  0
    9.8081  -15.9678   21.5658 C   0  0  0  0  0  0  0  0  0  0  0  0
   10.8561  -15.7257   22.2848 O   0  0  0  0  0  0  0  0  0  0  0  0
    8.6709  -15.1695   21.7594 N   0  0  0  0  0  0  0  0  0  0  0  0
    7.8532  -14.6035   20.6655 C   0  0  0  0  0  0  0  0  0  0  0  0
    6.4153  -14.7339   21.1994 C   0  0  0  0  0  0  0  0  0  0  0  0
    6.5891  -15.3164   22.6106 C   0  0  0  0  0  0  0  0  0  0  0  0
    7.9693  -14.6788   22.9062 C   0  0  1  0  0  0  0  0  0  0  0  0
    8.4257  -14.9108   24.2332 C   0  0  0  0  0  0  0  0  0  0  0  0
    9.3640  -15.6469   24.6616 O   0  0  0  0  0  0  0  0  0  0  0  0
    7.7245  -14.2018   25.2940 N   0  0  0  0  0  0  0  0  0  0  0  0
    6.5320  -13.3935   25.1910 C   0  0  0  0  0  0  0  0  0  0  0  0
    6.6919  -12.2941   26.2288 C   0  0  0  0  0  0  0  0  0  0  0  0
    7.8933  -12.6926   27.0492 C   0  0  0  0  0  0  0  0  0  0  0  0
    8.0792  -14.1490   26.7031 C   0  0  1  0  0  0  0  0  0  0  0  0
    7.1407  -14.9445   27.5292 C   0  0  0  0  0  0  0  0  0  0  0  0
    6.0211  -15.2699   27.0701 O   0  0  0  0  0  0  0  0  0  0  0  0
    7.4484  -15.3570   28.8169 O   0  0  0  0  0  0  0  0  0  0  0  0
  2  1  1  0
  3  2  2  0
  4  5  1  0
  4  2  1  0
  5  6  1  1
  7  9  1  0
  7  5  1  0
  8  7  2  0
  9 13  1  0
 10 11  1  0
 10  9  1  0
 11 12  1  0
 12 13  1  0
 13 14  1  1
 14 16  1  0
 15 14  2  0
 16 20  1  0
 16 17  1  0
 17 18  1  0
 19 18  1  0
 20 19  1  0
 21 23  1  0
 20 21  1  1
 22 21  2  0
M  END
$$$$
