NPP.pdb
     RDKit          3D

 23 24  0  0  1  0  0  0  0  0999 V2000
    6.5382  -17.7262   23.2072 N   0  0  0  0  0  0  0  0  0  0  0  0
    6.8244  -16.9353   22.0728 C   0  0  0  0  0  0  0  0  0  0  0  0
    7.4935  -17.4872   21.1319 O   0  0  0  0  0  0  0  0  0  0  0  0
    6.3573  -15.5359   22.0174 C   0  0  0  0  0  0  0  0  0  0  0  0
    7.5347  -14.5687   21.8570 C   0  0  2  0  0  0  0  0  0  0  0  0
    8.3277  -14.8863   20.7328 N   0  0  0  0  0  0  0  0  0  0  0  0
    8.2466  -14.3979   23.1328 C   0  0  0  0  0  0  0  0  0  0  0  0
    9.4200  -14.9425   23.1093 O   0  0  0  0  0  0  0  0  0  0  0  0
    7.8376  -13.7521   24.3092 N   0  0  0  0  0  0  0  0  0  0  0  0
    7.0532  -12.4994   24.3433 C   0  0  0  0  0  0  0  0  0  0  0  0
    6.0860  -12.7237   25.5197 C   0  0  0  0  0  0  0  0  0  0  0  0
    6.4890  -14.0958   26.0820 C   0  0  0  0  0  0  0  0  0  0  0  0
    7.9897  -14.0167   25.7074 C   0  0  1  0  0  0  0  0  0  0  0  0
    8.7517  -15.1144   26.1947 C   0  0  0  0  0  0  0  0  0  0  0  0
    8.9863  -16.2460   25.6748 O   0  0  0  0  0  0  0  0  0  0  0  0
    9.3784  -14.9420   27.4975 N   0  0  0  0  0  0  0  0  0  0  0  0
    8.9816  -14.0590   28.5693 C   0  0  0  0  0  0  0  0  0  0  0  0
   10.2735  -13.6340   29.2490 C   0  0  0  0  0  0  0  0  0  0  0  0
   11.3443  -14.5148   28.6548 C   0  0  0  0  0  0  0  0  0  0  0  0
   10.5563  -15.6257   28.0065 C   0  0  1  0  0  0  0  0  0  0  0  0
   10.2010  -16.6129   29.0530 C   0  0  0  0  0  0  0  0  0  0  0  0
    9.0565  -16.6026   29.5630 O   0  0  0  0  0  0  0  0  0  0  0  0
   11.0947  -17.5714   29.5064 O   0  0  0  0  0  0  0  0  0  0  0  0
  2  1  1  0
  3  2  2  0
  4  5  1  0
  4  2  1  0
  5  6  1  6
  7  9  1  0
  7  5  1  0
  8  7  2  0
  9 13  1  0
 10 11  1  0
 10  9  1  0
 11 12  1  0
 12 13  1  0
 13 14  1  6
 14 16  1  0
 15 14  2  0
 16 20  1  0
 16 17  1  0
 17 18  1  0
 19 18  1  0
 20 19  1  0
 21 23  1  0
 20 21  1  1
 22 21  2  0
M  END
$$$$
