NPP.pdb
     RDKit          3D

 23 24  0  0  1  0  0  0  0  0999 V2000
   10.8171  -20.5613   20.8569 N   0  0  0  0  0  0  0  0  0  0  0  0
   10.0593  -19.4399   20.4540 C   0  0  0  0  0  0  0  0  0  0  0  0
    9.5814  -19.4560   19.2669 O   0  0  0  0  0  0  0  0  0  0  0  0
    9.8552  -18.3173   21.3908 C   0  0  0  0  0  0  0  0  0  0  0  0
   10.1341  -16.9739   20.7090 C   0  0  2  0  0  0  0  0  0  0  0  0
   11.3805  -16.9686   20.0458 N   0  0  0  0  0  0  0  0  0  0  0  0
    9.8795  -15.8577   21.6327 C   0  0  0  0  0  0  0  0  0  0  0  0
   10.9177  -15.5784   22.3525 O   0  0  0  0  0  0  0  0  0  0  0  0
    8.7163  -15.0964   21.8212 N   0  0  0  0  0  0  0  0  0  0  0  0
    7.9119  -14.5172   20.7244 C   0  0  0  0  0  0  0  0  0  0  0  0
    6.4648  -14.7027   21.2157 C   0  0  0  0  0  0  0  0  0  0  0  0
    6.6183  -15.3256   22.6120 C   0  0  0  0  0  0  0  0  0  0  0  0
    7.9725  -14.6616   22.9639 C   0  0  1  0  0  0  0  0  0  0  0  0
    8.4009  -14.9240   24.2945 C   0  0  0  0  0  0  0  0  0  0  0  0
    9.2741  -15.7317   24.7315 O   0  0  0  0  0  0  0  0  0  0  0  0
    7.7533  -14.1560   25.3483 N   0  0  0  0  0  0  0  0  0  0  0  0
    6.5646  -13.3406   25.2571 C   0  0  0  0  0  0  0  0  0  0  0  0
    6.7796  -12.1933   26.2312 C   0  0  0  0  0  0  0  0  0  0  0  0
    8.0124  -12.5642   27.0174 C   0  0  0  0  0  0  0  0  0  0  0  0
    8.1700  -14.0378   26.7363 C   0  0  1  0  0  0  0  0  0  0  0  0
    7.2617  -14.7814   27.6408 C   0  0  0  0  0  0  0  0  0  0  0  0
    6.1186  -15.1127   27.2490 O   0  0  0  0  0  0  0  0  0  0  0  0
    7.6238  -15.1375   28.9312 O   0  0  0  0  0  0  0  0  0  0  0  0
  2  1  1  0
  3  2  2  0
  4  5  1  0
  4  2  1  0
  5  6  1  1
  7  9  1  0
  7  5  1  0
  8  7  2  0
  9 13  1  0
 10 11  1  0
 10  9  1  0
 11 12  1  0
 12 13  1  0
 13 14  1  1
 14 16  1  0
 15 14  2  0
 16 20  1  0
 16 17  1  0
 17 18  1  0
 19 18  1  0
 20 19  1  0
 21 23  1  0
 20 21  1  1
 22 21  2  0
M  END
$$$$
