NPP.pdb
     RDKit          3D

 23 24  0  0  1  0  0  0  0  0999 V2000
   11.1056  -20.3886   21.2710 N   0  0  0  0  0  0  0  0  0  0  0  0
   10.2148  -19.4857   20.6499 C   0  0  0  0  0  0  0  0  0  0  0  0
    9.9313  -19.7002   19.4206 O   0  0  0  0  0  0  0  0  0  0  0  0
    9.6614  -18.3544   21.4203 C   0  0  0  0  0  0  0  0  0  0  0  0
   10.0501  -17.0146   20.7866 C   0  0  2  0  0  0  0  0  0  0  0  0
   11.3198  -17.0716   20.1717 N   0  0  0  0  0  0  0  0  0  0  0  0
    9.8290  -15.9081   21.7303 C   0  0  0  0  0  0  0  0  0  0  0  0
   10.8648  -15.6925   22.4750 O   0  0  0  0  0  0  0  0  0  0  0  0
    8.6985  -15.0982   21.9145 N   0  0  0  0  0  0  0  0  0  0  0  0
    7.9058  -14.5099   20.8139 C   0  0  0  0  0  0  0  0  0  0  0  0
    6.4578  -14.6287   21.3227 C   0  0  0  0  0  0  0  0  0  0  0  0
    6.6014  -15.2292   22.7298 C   0  0  0  0  0  0  0  0  0  0  0  0
    7.9841  -14.6119   23.0552 C   0  0  1  0  0  0  0  0  0  0  0  0
    8.4157  -14.8643   24.3867 C   0  0  0  0  0  0  0  0  0  0  0  0
    9.3633  -15.5858   24.8195 O   0  0  0  0  0  0  0  0  0  0  0  0
    7.6714  -14.2004   25.4473 N   0  0  0  0  0  0  0  0  0  0  0  0
    6.5042  -13.3583   25.3266 C   0  0  0  0  0  0  0  0  0  0  0  0
    6.6290  -12.3246   26.4344 C   0  0  0  0  0  0  0  0  0  0  0  0
    7.7737  -12.7991   27.2946 C   0  0  0  0  0  0  0  0  0  0  0  0
    7.9474  -14.2374   26.8743 C   0  0  1  0  0  0  0  0  0  0  0  0
    6.9472  -15.0557   27.5996 C   0  0  0  0  0  0  0  0  0  0  0  0
    7.1694  -15.4199   28.7778 O   0  0  0  0  0  0  0  0  0  0  0  0
    5.7478  -15.4475   27.0243 O   0  0  0  0  0  0  0  0  0  0  0  0
  2  1  1  0
  3  2  2  0
  4  5  1  0
  4  2  1  0
  5  6  1  1
  7  9  1  0
  7  5  1  0
  8  7  2  0
  9 13  1  0
 10 11  1  0
 10  9  1  0
 11 12  1  0
 12 13  1  0
 13 14  1  1
 14 16  1  0
 15 14  2  0
 16 20  1  0
 16 17  1  0
 17 18  1  0
 19 18  1  0
 20 19  1  0
 21 23  1  0
 20 21  1  1
 22 21  2  0
M  END
$$$$
