NPP.pdb
     RDKit          3D

 23 24  0  0  1  0  0  0  0  0999 V2000
    6.2028  -17.9488   20.1919 N   0  0  0  0  0  0  0  0  0  0  0  0
    7.4795  -17.5217   20.6182 C   0  0  0  0  0  0  0  0  0  0  0  0
    8.4608  -17.7385   19.8258 O   0  0  0  0  0  0  0  0  0  0  0  0
    7.6323  -16.8620   21.9301 C   0  0  0  0  0  0  0  0  0  0  0  0
    8.0075  -15.3859   21.7634 C   0  0  2  0  0  0  0  0  0  0  0  0
    8.5900  -15.1297   20.5031 N   0  0  0  0  0  0  0  0  0  0  0  0
    8.7487  -14.9007   22.9377 C   0  0  0  0  0  0  0  0  0  0  0  0
   10.0043  -15.2069   22.8784 O   0  0  0  0  0  0  0  0  0  0  0  0
    8.2919  -14.1842   24.0540 N   0  0  0  0  0  0  0  0  0  0  0  0
    7.3607  -13.0380   23.9853 C   0  0  0  0  0  0  0  0  0  0  0  0
    6.4569  -13.2469   25.2139 C   0  0  0  0  0  0  0  0  0  0  0  0
    7.0387  -14.4916   25.9019 C   0  0  0  0  0  0  0  0  0  0  0  0
    8.5089  -14.2750   25.4657 C   0  0  1  0  0  0  0  0  0  0  0  0
    9.4115  -15.2141   26.0371 C   0  0  0  0  0  0  0  0  0  0  0  0
    9.9795  -16.2237   25.5236 O   0  0  0  0  0  0  0  0  0  0  0  0
    9.7615  -15.0099   27.4355 N   0  0  0  0  0  0  0  0  0  0  0  0
    9.1572  -14.1038   28.3840 C   0  0  0  0  0  0  0  0  0  0  0  0
   10.2852  -13.6593   29.3013 C   0  0  0  0  0  0  0  0  0  0  0  0
   11.4529  -14.5501   28.9569 C   0  0  0  0  0  0  0  0  0  0  0  0
   10.8108  -15.6781   28.1882 C   0  0  1  0  0  0  0  0  0  0  0  0
   10.2493  -16.6422   29.1635 C   0  0  0  0  0  0  0  0  0  0  0  0
    9.0291  -16.6099   29.4467 O   0  0  0  0  0  0  0  0  0  0  0  0
   11.0269  -17.6021   29.7934 O   0  0  0  0  0  0  0  0  0  0  0  0
  2  1  1  0
  3  2  2  0
  4  5  1  0
  4  2  1  0
  5  6  1  6
  7  9  1  0
  7  5  1  0
  8  7  2  0
  9 13  1  0
 10 11  1  0
 10  9  1  0
 11 12  1  0
 12 13  1  0
 13 14  1  6
 14 16  1  0
 15 14  2  0
 16 20  1  0
 16 17  1  0
 17 18  1  0
 19 18  1  0
 20 19  1  0
 21 23  1  0
 20 21  1  1
 22 21  2  0
M  END
$$$$
