NPP.pdb
     RDKit          3D

 23 24  0  0  1  0  0  0  0  0999 V2000
   10.9498  -19.2752   17.5342 N   0  0  0  0  0  0  0  0  0  0  0  0
   10.1949  -18.0824   17.4966 C   0  0  0  0  0  0  0  0  0  0  0  0
    9.7861  -17.6878   16.3499 O   0  0  0  0  0  0  0  0  0  0  0  0
    9.9160  -17.3510   18.7483 C   0  0  0  0  0  0  0  0  0  0  0  0
   10.4925  -15.9323   18.6968 C   0  0  2  0  0  0  0  0  0  0  0  0
   11.8549  -15.9307   18.3261 N   0  0  0  0  0  0  0  0  0  0  0  0
   10.1447  -15.1838   19.9143 C   0  0  0  0  0  0  0  0  0  0  0  0
   11.0558  -15.2924   20.8265 O   0  0  0  0  0  0  0  0  0  0  0  0
    9.0115  -14.4064   20.1968 N   0  0  0  0  0  0  0  0  0  0  0  0
    8.4409  -13.3990   19.2774 C   0  0  0  0  0  0  0  0  0  0  0  0
    6.9229  -13.5762   19.4621 C   0  0  0  0  0  0  0  0  0  0  0  0
    6.7994  -14.6532   20.5512 C   0  0  0  0  0  0  0  0  0  0  0  0
    8.1088  -14.3083   21.3030 C   0  0  1  0  0  0  0  0  0  0  0  0
    8.2874  -15.0578   22.4985 C   0  0  0  0  0  0  0  0  0  0  0  0
    8.9477  -16.1182   22.7117 O   0  0  0  0  0  0  0  0  0  0  0  0
    7.6186  -14.5511   23.6884 N   0  0  0  0  0  0  0  0  0  0  0  0
    6.6778  -13.4597   23.7873 C   0  0  0  0  0  0  0  0  0  0  0  0
    6.9308  -12.8230   25.1444 C   0  0  0  0  0  0  0  0  0  0  0  0
    7.8672  -13.7658   25.8583 C   0  0  0  0  0  0  0  0  0  0  0  0
    7.7580  -15.0361   25.0520 C   0  0  1  0  0  0  0  0  0  0  0  0
    6.5456  -15.7633   25.4959 C   0  0  0  0  0  0  0  0  0  0  0  0
    5.4804  -15.6650   24.8433 O   0  0  0  0  0  0  0  0  0  0  0  0
    6.5317  -16.5674   26.6256 O   0  0  0  0  0  0  0  0  0  0  0  0
  2  1  1  0
  3  2  2  0
  4  5  1  0
  4  2  1  0
  5  6  1  1
  7  9  1  0
  7  5  1  0
  8  7  2  0
  9 13  1  0
 10 11  1  0
 10  9  1  0
 11 12  1  0
 12 13  1  0
 13 14  1  1
 14 16  1  0
 15 14  2  0
 16 20  1  0
 16 17  1  0
 17 18  1  0
 19 18  1  0
 20 19  1  0
 21 23  1  0
 20 21  1  1
 22 21  2  0
M  END
$$$$
