NPP.pdb
     RDKit          3D

 23 24  0  0  1  0  0  0  0  0999 V2000
    9.6681  -18.6157   18.4204 N   0  0  0  0  0  0  0  0  0  0  0  0
    9.0596  -19.0391   19.6224 C   0  0  0  0  0  0  0  0  0  0  0  0
    8.3731  -20.1182   19.5789 O   0  0  0  0  0  0  0  0  0  0  0  0
    9.2296  -18.2398   20.8519 C   0  0  0  0  0  0  0  0  0  0  0  0
   10.0432  -16.9712   20.5755 C   0  0  2  0  0  0  0  0  0  0  0  0
   11.3928  -17.2647   20.2824 N   0  0  0  0  0  0  0  0  0  0  0  0
    9.8045  -15.9614   21.6181 C   0  0  0  0  0  0  0  0  0  0  0  0
   10.7715  -15.9136   22.4764 O   0  0  0  0  0  0  0  0  0  0  0  0
    8.7201  -15.0882   21.7902 N   0  0  0  0  0  0  0  0  0  0  0  0
    8.0568  -14.3556   20.6906 C   0  0  0  0  0  0  0  0  0  0  0  0
    6.5689  -14.4086   21.0819 C   0  0  0  0  0  0  0  0  0  0  0  0
    6.5619  -15.1305   22.4384 C   0  0  0  0  0  0  0  0  0  0  0  0
    7.9535  -14.6451   22.9144 C   0  0  1  0  0  0  0  0  0  0  0  0
    8.2624  -15.0362   24.2466 C   0  0  0  0  0  0  0  0  0  0  0  0
    8.9932  -15.9776   24.6772 O   0  0  0  0  0  0  0  0  0  0  0  0
    7.6593  -14.2470   25.3111 N   0  0  0  0  0  0  0  0  0  0  0  0
    6.7007  -13.1731   25.1931 C   0  0  0  0  0  0  0  0  0  0  0  0
    7.0248  -12.2092   26.3232 C   0  0  0  0  0  0  0  0  0  0  0  0
    8.0275  -12.9319   27.1878 C   0  0  0  0  0  0  0  0  0  0  0  0
    7.8974  -14.3667   26.7405 C   0  0  1  0  0  0  0  0  0  0  0  0
    6.7339  -14.9648   27.4364 C   0  0  0  0  0  0  0  0  0  0  0  0
    6.8471  -15.3652   28.6184 O   0  0  0  0  0  0  0  0  0  0  0  0
    5.4954  -15.1066   26.8289 O   0  0  0  0  0  0  0  0  0  0  0  0
  2  1  1  0
  3  2  2  0
  4  5  1  0
  4  2  1  0
  5  6  1  1
  7  9  1  0
  7  5  1  0
  8  7  2  0
  9 13  1  0
 10 11  1  0
 10  9  1  0
 11 12  1  0
 12 13  1  0
 13 14  1  1
 14 16  1  0
 15 14  2  0
 16 20  1  0
 16 17  1  0
 17 18  1  0
 19 18  1  0
 20 19  1  0
 21 23  1  0
 20 21  1  1
 22 21  2  0
M  END
$$$$
