NPP.pdb
     RDKit          3D

 23 24  0  0  1  0  0  0  0  0999 V2000
    9.2075  -20.6123   26.4985 N   0  0  0  0  0  0  0  0  0  0  0  0
    9.1544  -19.2051   26.6044 C   0  0  0  0  0  0  0  0  0  0  0  0
    9.4704  -18.6938   27.7342 O   0  0  0  0  0  0  0  0  0  0  0  0
    8.7427  -18.3968   25.4396 C   0  0  0  0  0  0  0  0  0  0  0  0
    7.2394  -18.1032   25.4773 C   0  0  2  0  0  0  0  0  0  0  0  0
    6.4730  -19.2874   25.5390 N   0  0  0  0  0  0  0  0  0  0  0  0
    6.8703  -17.1386   24.4299 C   0  0  0  0  0  0  0  0  0  0  0  0
    6.3072  -17.7149   23.4175 O   0  0  0  0  0  0  0  0  0  0  0  0
    7.0402  -15.7466   24.3917 N   0  0  0  0  0  0  0  0  0  0  0  0
    6.5038  -14.8129   25.4048 C   0  0  0  0  0  0  0  0  0  0  0  0
    7.6283  -13.7719   25.5520 C   0  0  0  0  0  0  0  0  0  0  0  0
    8.6825  -14.2086   24.5229 C   0  0  0  0  0  0  0  0  0  0  0  0
    7.6992  -14.8372   23.5047 C   0  0  1  0  0  0  0  0  0  0  0  0
    8.3287  -15.2683   22.3043 C   0  0  0  0  0  0  0  0  0  0  0  0
    8.7924  -16.4028   21.9822 O   0  0  0  0  0  0  0  0  0  0  0  0
    8.4783  -14.2699   21.2551 N   0  0  0  0  0  0  0  0  0  0  0  0
    8.1997  -12.8544   21.3234 C   0  0  0  0  0  0  0  0  0  0  0  0
    7.7101  -12.4663   19.9374 C   0  0  0  0  0  0  0  0  0  0  0  0
    7.9729  -13.6722   19.0701 C   0  0  0  0  0  0  0  0  0  0  0  0
    8.9412  -14.4844   19.8936 C   0  0  1  0  0  0  0  0  0  0  0  0
   10.3005  -13.9309   19.6891 C   0  0  0  0  0  0  0  0  0  0  0  0
   10.7652  -13.0929   20.4965 O   0  0  0  0  0  0  0  0  0  0  0  0
   11.1035  -14.3043   18.6219 O   0  0  0  0  0  0  0  0  0  0  0  0
  2  1  1  0
  3  2  2  0
  4  5  1  0
  4  2  1  0
  5  6  1  6
  7  9  1  0
  7  5  1  0
  8  7  2  0
  9 13  1  0
 10 11  1  0
 10  9  1  0
 11 12  1  0
 12 13  1  0
 13 14  1  6
 14 16  1  0
 15 14  2  0
 16 20  1  0
 16 17  1  0
 17 18  1  0
 19 18  1  0
 20 19  1  0
 21 23  1  0
 20 21  1  1
 22 21  2  0
M  END
$$$$
