VGS.pdb
     RDKit          3D

 18 17  0  0  1  0  0  0  0  0999 V2000
   24.1668  -13.1769  -16.4837 C   0  0  0  0  0  0  0  0  0  0  0  0
   22.9719  -12.5101  -15.8509 C   0  0  1  0  0  0  0  0  0  0  0  0
   23.2629  -11.8753  -14.5326 C   0  0  0  0  0  0  0  0  0  0  0  0
   22.2606  -11.5847  -16.8071 C   0  0  2  0  0  0  0  0  0  0  0  0
   23.1344  -10.5267  -17.2463 N   0  0  0  0  0  0  0  0  0  0  0  0
   21.0066  -11.0445  -16.3017 C   0  0  0  0  0  0  0  0  0  0  0  0
   20.0030  -11.7917  -16.1813 O   0  0  0  0  0  0  0  0  0  0  0  0
   20.9120   -9.6767  -15.9439 N   0  0  0  0  0  0  0  0  0  0  0  0
   19.7453   -9.0568  -15.4060 C   0  0  0  0  0  0  0  0  0  0  0  0
   19.8881   -7.6526  -15.0185 C   0  0  0  0  0  0  0  0  0  0  0  0
   18.8658   -7.0921  -14.5220 O   0  0  0  0  0  0  0  0  0  0  0  0
   22.1142   -6.1445  -12.6869 O   0  0  0  0  0  0  0  0  0  0  0  0
   22.2350   -5.2314  -13.7313 C   0  0  0  0  0  0  0  0  0  0  0  0
   21.1083   -5.4757  -14.6853 C   0  0  2  0  0  0  0  0  0  0  0  0
   21.0474   -6.8534  -15.1372 N   0  0  0  0  0  0  0  0  0  0  0  0
   21.1856   -4.5364  -15.8456 C   0  0  0  0  0  0  0  0  0  0  0  0
   21.1397   -3.1743  -15.5841 O   0  0  0  0  0  0  0  0  0  0  0  0
   21.2881   -4.9329  -17.0188 O   0  0  0  0  0  0  0  0  0  0  0  0
  2  1  1  6
  2  3  1  0
  4  2  1  0
  4  5  1  1
  6  8  1  0
  6  4  1  0
  7  6  2  0
  9  8  1  0
 10 15  1  0
 10  9  1  0
 11 10  2  0
 13 12  1  0
 14 13  1  1
 14 15  1  0
 16 17  1  0
 16 14  1  0
 18 16  2  0
M  END
$$$$
