VGS.pdb
     RDKit          3D

 18 17  0  0  1  0  0  0  0  0999 V2000
   17.3824  -11.3206  -18.7966 C   0  0  0  0  0  0  0  0  0  0  0  0
   18.2186  -10.5394  -17.8152 C   0  0  1  0  0  0  0  0  0  0  0  0
   17.4295   -9.6103  -16.9552 C   0  0  0  0  0  0  0  0  0  0  0  0
   19.1507  -11.4255  -17.0259 C   0  0  2  0  0  0  0  0  0  0  0  0
   18.4237  -12.4792  -16.3650 N   0  0  0  0  0  0  0  0  0  0  0  0
   20.0035  -10.7147  -16.0839 C   0  0  0  0  0  0  0  0  0  0  0  0
   19.6791  -10.6439  -14.8715 O   0  0  0  0  0  0  0  0  0  0  0  0
   21.2006  -10.1007  -16.5286 N   0  0  0  0  0  0  0  0  0  0  0  0
   22.0625   -9.3132  -15.7090 C   0  0  0  0  0  0  0  0  0  0  0  0
   21.5823   -7.9699  -15.3816 C   0  0  0  0  0  0  0  0  0  0  0  0
   20.5647   -7.5588  -16.0152 O   0  0  0  0  0  0  0  0  0  0  0  0
   21.7204   -3.7822  -12.9482 O   0  0  0  0  0  0  0  0  0  0  0  0
   22.3329   -5.0219  -13.1122 C   0  0  0  0  0  0  0  0  0  0  0  0
   21.6399   -5.7299  -14.2338 C   0  0  2  0  0  0  0  0  0  0  0  0
   22.1320   -7.0807  -14.4309 N   0  0  0  0  0  0  0  0  0  0  0  0
   21.7354   -4.9374  -15.4977 C   0  0  0  0  0  0  0  0  0  0  0  0
   20.7173   -4.0377  -15.7800 O   0  0  0  0  0  0  0  0  0  0  0  0
   22.6845   -5.0585  -16.2906 O   0  0  0  0  0  0  0  0  0  0  0  0
  2  1  1  1
  2  3  1  0
  4  2  1  0
  4  5  1  1
  6  8  1  0
  6  4  1  0
  7  6  2  0
  9  8  1  0
 10 15  1  0
 10  9  1  0
 11 10  2  0
 13 12  1  0
 14 13  1  1
 14 15  1  0
 16 17  1  0
 16 14  1  0
 18 16  2  0
M  END
$$$$
