VGS.pdb
     RDKit          3D

 18 17  0  0  1  0  0  0  0  0999 V2000
   18.6140  -10.8940  -19.9560 C   0  0  0  0  0  0  0  0  0  0  0  0
   19.3336   -9.7179  -19.3463 C   0  0  1  0  0  0  0  0  0  0  0  0
   18.7329   -9.2399  -18.0672 C   0  0  0  0  0  0  0  0  0  0  0  0
   20.8221   -9.9455  -19.2503 C   0  0  2  0  0  0  0  0  0  0  0  0
   21.1167  -11.0834  -18.4171 N   0  0  0  0  0  0  0  0  0  0  0  0
   21.5832   -8.7801  -18.8234 C   0  0  0  0  0  0  0  0  0  0  0  0
   21.5746   -7.7336  -19.5197 O   0  0  0  0  0  0  0  0  0  0  0  0
   22.3357   -8.8201  -17.6234 N   0  0  0  0  0  0  0  0  0  0  0  0
   23.0323   -7.7081  -17.0641 C   0  0  0  0  0  0  0  0  0  0  0  0
   22.2284   -6.7914  -16.2543 C   0  0  0  0  0  0  0  0  0  0  0  0
   21.6444   -5.8503  -16.8700 O   0  0  0  0  0  0  0  0  0  0  0  0
   20.7517   -7.5333  -12.4765 O   0  0  0  0  0  0  0  0  0  0  0  0
   20.0951   -6.6797  -13.3592 C   0  0  0  0  0  0  0  0  0  0  0  0
   21.1355   -5.9490  -14.1485 C   0  0  2  0  0  0  0  0  0  0  0  0
   22.0317   -6.8447  -14.8560 N   0  0  0  0  0  0  0  0  0  0  0  0
   21.9011   -5.0108  -13.2720 C   0  0  0  0  0  0  0  0  0  0  0  0
   21.1915   -4.0331  -12.5891 O   0  0  0  0  0  0  0  0  0  0  0  0
   23.1347   -5.0793  -13.1389 O   0  0  0  0  0  0  0  0  0  0  0  0
  2  1  1  1
  2  3  1  0
  4  2  1  0
  4  5  1  1
  6  8  1  0
  6  4  1  0
  7  6  2  0
  9  8  1  0
 10 15  1  0
 10  9  1  0
 11 10  2  0
 13 12  1  0
 14 13  1  1
 14 15  1  0
 16 17  1  0
 16 14  1  0
 18 16  2  0
M  END
$$$$
