VGS.pdb
     RDKit          3D

 18 17  0  0  1  0  0  0  0  0999 V2000
   15.9815  -13.1888  -15.8570 C   0  0  0  0  0  0  0  0  0  0  0  0
   16.7602  -12.0631  -16.4888 C   0  0  1  0  0  0  0  0  0  0  0  0
   15.9273  -10.8766  -16.8412 C   0  0  0  0  0  0  0  0  0  0  0  0
   17.9924  -11.7043  -15.6952 C   0  0  2  0  0  0  0  0  0  0  0  0
   17.6472  -11.3367  -14.3457 N   0  0  0  0  0  0  0  0  0  0  0  0
   18.8300  -10.6853  -16.3116 C   0  0  0  0  0  0  0  0  0  0  0  0
   19.4457  -10.9377  -17.3780 O   0  0  0  0  0  0  0  0  0  0  0  0
   18.9546   -9.4069  -15.7132 N   0  0  0  0  0  0  0  0  0  0  0  0
   19.6361   -8.2991  -16.2988 C   0  0  0  0  0  0  0  0  0  0  0  0
   20.5604   -7.5800  -15.4208 C   0  0  0  0  0  0  0  0  0  0  0  0
   20.5500   -7.9037  -14.1956 O   0  0  0  0  0  0  0  0  0  0  0  0
   23.9650   -5.8557  -16.5775 O   0  0  0  0  0  0  0  0  0  0  0  0
   23.4209   -5.1011  -15.5413 C   0  0  0  0  0  0  0  0  0  0  0  0
   22.3856   -5.9392  -14.8596 C   0  0  2  0  0  0  0  0  0  0  0  0
   21.4667   -6.5623  -15.7941 N   0  0  0  0  0  0  0  0  0  0  0  0
   21.6454   -5.1370  -13.8381 C   0  0  0  0  0  0  0  0  0  0  0  0
   22.2456   -4.9453  -12.6017 O   0  0  0  0  0  0  0  0  0  0  0  0
   20.5263   -4.6445  -14.0599 O   0  0  0  0  0  0  0  0  0  0  0  0
  2  1  1  1
  2  3  1  0
  4  2  1  0
  4  5  1  1
  6  8  1  0
  6  4  1  0
  7  6  2  0
  9  8  1  0
 10 15  1  0
 10  9  1  0
 11 10  2  0
 13 12  1  0
 14 13  1  6
 14 15  1  0
 16 17  1  0
 16 14  1  0
 18 16  2  0
M  END
$$$$
