VGS.pdb
     RDKit          3D

 18 17  0  0  1  0  0  0  0  0999 V2000
   21.0294   -8.7157  -18.8674 C   0  0  0  0  0  0  0  0  0  0  0  0
   20.4410  -10.0261  -18.4098 C   0  0  1  0  0  0  0  0  0  0  0  0
   20.3767  -11.0648  -19.4787 C   0  0  0  0  0  0  0  0  0  0  0  0
   21.0805  -10.5270  -17.1383 C   0  0  2  0  0  0  0  0  0  0  0  0
   20.5718  -11.8272  -16.7831 N   0  0  0  0  0  0  0  0  0  0  0  0
   20.9841   -9.6079  -16.0132 C   0  0  0  0  0  0  0  0  0  0  0  0
   19.8905   -9.4643  -15.4103 O   0  0  0  0  0  0  0  0  0  0  0  0
   22.1204   -8.8726  -15.5935 N   0  0  0  0  0  0  0  0  0  0  0  0
   22.1202   -7.9061  -14.5445 C   0  0  0  0  0  0  0  0  0  0  0  0
   21.9408   -6.5135  -14.9578 C   0  0  0  0  0  0  0  0  0  0  0  0
   21.9494   -6.2838  -16.2040 O   0  0  0  0  0  0  0  0  0  0  0  0
   19.9218   -2.4790  -15.2910 O   0  0  0  0  0  0  0  0  0  0  0  0
   20.0456   -3.7594  -14.7580 C   0  0  0  0  0  0  0  0  0  0  0  0
   21.5052   -4.0574  -14.6171 C   0  0  2  0  0  0  0  0  0  0  0  0
   21.7567   -5.3951  -14.1141 N   0  0  0  0  0  0  0  0  0  0  0  0
   22.1735   -3.0307  -13.7604 C   0  0  0  0  0  0  0  0  0  0  0  0
   22.3530   -1.7598  -14.2881 O   0  0  0  0  0  0  0  0  0  0  0  0
   22.5670   -3.2777  -12.6079 O   0  0  0  0  0  0  0  0  0  0  0  0
  2  1  1  6
  2  3  1  0
  4  2  1  0
  4  5  1  1
  6  8  1  0
  6  4  1  0
  7  6  2  0
  9  8  1  0
 10 15  1  0
 10  9  1  0
 11 10  2  0
 13 12  1  0
 14 13  1  1
 14 15  1  0
 16 17  1  0
 16 14  1  0
 18 16  2  0
M  END
$$$$
