VGS.pdb
     RDKit          3D

 18 17  0  0  1  0  0  0  0  0999 V2000
   26.7256  -11.2361  -15.1426 C   0  0  0  0  0  0  0  0  0  0  0  0
   25.7728  -10.1506  -15.5742 C   0  0  1  0  0  0  0  0  0  0  0  0
   26.4384   -8.9926  -16.2388 C   0  0  0  0  0  0  0  0  0  0  0  0
   24.6071  -10.6936  -16.3636 C   0  0  2  0  0  0  0  0  0  0  0  0
   25.0631  -11.4860  -17.4770 N   0  0  0  0  0  0  0  0  0  0  0  0
   23.6543   -9.6838  -16.8021 C   0  0  0  0  0  0  0  0  0  0  0  0
   23.8395   -9.0722  -17.8846 O   0  0  0  0  0  0  0  0  0  0  0  0
   22.5160   -9.3866  -16.0122 N   0  0  0  0  0  0  0  0  0  0  0  0
   21.5996   -8.3257  -16.2753 C   0  0  0  0  0  0  0  0  0  0  0  0
   21.5486   -7.2611  -15.2720 C   0  0  0  0  0  0  0  0  0  0  0  0
   21.9983   -7.5414  -14.1210 O   0  0  0  0  0  0  0  0  0  0  0  0
   23.1734   -4.1580  -15.2053 O   0  0  0  0  0  0  0  0  0  0  0  0
   22.5210   -4.5747  -14.0478 C   0  0  0  0  0  0  0  0  0  0  0  0
   21.1160   -4.9326  -14.4180 C   0  0  2  0  0  0  0  0  0  0  0  0
   21.0520   -5.9503  -15.4505 N   0  0  0  0  0  0  0  0  0  0  0  0
   20.3494   -3.7143  -14.8214 C   0  0  0  0  0  0  0  0  0  0  0  0
   20.1940   -2.7033  -13.8835 O   0  0  0  0  0  0  0  0  0  0  0  0
   19.8551   -3.5820  -15.9538 O   0  0  0  0  0  0  0  0  0  0  0  0
  2  1  1  6
  2  3  1  0
  4  2  1  0
  4  5  1  6
  6  8  1  0
  6  4  1  0
  7  6  2  0
  9  8  1  0
 10 15  1  0
 10  9  1  0
 11 10  2  0
 13 12  1  0
 14 13  1  6
 14 15  1  0
 16 17  1  0
 16 14  1  0
 18 16  2  0
M  END
$$$$
