VGS.pdb
     RDKit          3D

 18 17  0  0  1  0  0  0  0  0999 V2000
   12.7778  -23.1119   -4.5904 C   0  0  0  0  0  0  0  0  0  0  0  0
   13.7108  -23.6413   -3.5312 C   0  0  1  0  0  0  0  0  0  0  0  0
   15.1557  -23.5003   -3.8747 C   0  0  0  0  0  0  0  0  0  0  0  0
   13.3764  -23.1120   -2.1583 C   0  0  2  0  0  0  0  0  0  0  0  0
   13.4491  -21.6735   -2.1288 N   0  0  0  0  0  0  0  0  0  0  0  0
   14.1646  -23.6927   -1.0807 C   0  0  0  0  0  0  0  0  0  0  0  0
   13.9670  -24.8829   -0.7277 O   0  0  0  0  0  0  0  0  0  0  0  0
   15.1562  -22.9204   -0.4262 N   0  0  0  0  0  0  0  0  0  0  0  0
   16.0088  -23.4034    0.6103 C   0  0  0  0  0  0  0  0  0  0  0  0
   16.1411  -22.5393    1.7843 C   0  0  0  0  0  0  0  0  0  0  0  0
   16.9069  -22.9470    2.7079 O   0  0  0  0  0  0  0  0  0  0  0  0
   15.8830  -18.2950    4.0264 O   0  0  0  0  0  0  0  0  0  0  0  0
   15.5857  -19.0012    2.8638 C   0  0  0  0  0  0  0  0  0  0  0  0
   15.7752  -20.4574    3.1518 C   0  0  2  0  0  0  0  0  0  0  0  0
   15.5063  -21.2951    1.9977 N   0  0  0  0  0  0  0  0  0  0  0  0
   14.9438  -20.8771    4.3211 C   0  0  0  0  0  0  0  0  0  0  0  0
   15.4203  -20.5939    5.5933 O   0  0  0  0  0  0  0  0  0  0  0  0
   13.8558  -21.4628    4.1897 O   0  0  0  0  0  0  0  0  0  0  0  0
  2  1  1  6
  2  3  1  0
  4  2  1  0
  4  5  1  6
  6  8  1  0
  6  4  1  0
  7  6  2  0
  9  8  1  0
 10 15  1  0
 10  9  1  0
 11 10  2  0
 13 12  1  0
 14 13  1  6
 14 15  1  0
 16 17  1  0
 16 14  1  0
 18 16  2  0
M  END
$$$$
