VGS.pdb
     RDKit          3D

 18 17  0  0  1  0  0  0  0  0999 V2000
   17.4891  -14.2766  -16.5206 C   0  0  0  0  0  0  0  0  0  0  0  0
   17.9961  -12.9763  -17.0906 C   0  0  1  0  0  0  0  0  0  0  0  0
   16.9759  -11.8880  -17.1116 C   0  0  0  0  0  0  0  0  0  0  0  0
   19.3018  -12.5490  -16.4666 C   0  0  2  0  0  0  0  0  0  0  0  0
   19.1748  -12.4298  -15.0364 N   0  0  0  0  0  0  0  0  0  0  0  0
   19.8749  -11.3389  -17.0384 C   0  0  0  0  0  0  0  0  0  0  0  0
   20.3521  -11.3575  -18.2011 O   0  0  0  0  0  0  0  0  0  0  0  0
   19.8973  -10.1370  -16.2881 N   0  0  0  0  0  0  0  0  0  0  0  0
   20.4053   -8.8920  -16.7640 C   0  0  0  0  0  0  0  0  0  0  0  0
   21.2161   -8.1274  -15.8151 C   0  0  0  0  0  0  0  0  0  0  0  0
   21.2788   -8.5735  -14.6308 O   0  0  0  0  0  0  0  0  0  0  0  0
   24.1964   -5.7074  -16.7380 O   0  0  0  0  0  0  0  0  0  0  0  0
   23.5654   -5.1634  -15.6222 C   0  0  0  0  0  0  0  0  0  0  0  0
   22.6585   -6.2094  -15.0541 C   0  0  2  0  0  0  0  0  0  0  0  0
   21.9399   -6.9429  -16.0795 N   0  0  0  0  0  0  0  0  0  0  0  0
   21.7119   -5.6075  -14.0660 C   0  0  0  0  0  0  0  0  0  0  0  0
   22.1988   -5.2975  -12.8041 O   0  0  0  0  0  0  0  0  0  0  0  0
   20.5207   -5.3801  -14.3370 O   0  0  0  0  0  0  0  0  0  0  0  0
  2  1  1  1
  2  3  1  0
  4  2  1  0
  4  5  1  1
  6  8  1  0
  6  4  1  0
  7  6  2  0
  9  8  1  0
 10 15  1  0
 10  9  1  0
 11 10  2  0
 13 12  1  0
 14 13  1  6
 14 15  1  0
 16 17  1  0
 16 14  1  0
 18 16  2  0
M  END
$$$$
