VGS.pdb
     RDKit          3D

 18 17  0  0  1  0  0  0  0  0999 V2000
   10.2075  -12.4360  -11.5970 C   0  0  0  0  0  0  0  0  0  0  0  0
   11.5903  -12.1087  -11.0935 C   0  0  1  0  0  0  0  0  0  0  0  0
   11.9133  -12.7242   -9.7735 C   0  0  0  0  0  0  0  0  0  0  0  0
   12.6522  -12.3578  -12.1362 C   0  0  2  0  0  0  0  0  0  0  0  0
   12.7275  -13.7571  -12.4710 N   0  0  0  0  0  0  0  0  0  0  0  0
   13.9673  -11.8358  -11.7930 C   0  0  0  0  0  0  0  0  0  0  0  0
   14.9807  -12.5736  -11.8857 O   0  0  0  0  0  0  0  0  0  0  0  0
   14.1105  -10.4962  -11.3537 N   0  0  0  0  0  0  0  0  0  0  0  0
   15.3584   -9.8537  -11.1002 C   0  0  0  0  0  0  0  0  0  0  0  0
   15.2971   -8.4124  -10.8528 C   0  0  0  0  0  0  0  0  0  0  0  0
   14.2518   -7.8116  -11.2429 O   0  0  0  0  0  0  0  0  0  0  0  0
   14.7053   -5.3949   -7.8084 O   0  0  0  0  0  0  0  0  0  0  0  0
   15.0163   -6.6330   -8.3645 C   0  0  0  0  0  0  0  0  0  0  0  0
   15.9677   -6.4005   -9.4959 C   0  0  2  0  0  0  0  0  0  0  0  0
   16.2804   -7.6173  -10.2222 N   0  0  0  0  0  0  0  0  0  0  0  0
   17.2143   -5.7342   -9.0093 C   0  0  0  0  0  0  0  0  0  0  0  0
   18.3887   -6.4734   -9.0071 O   0  0  0  0  0  0  0  0  0  0  0  0
   17.2297   -4.5566   -8.6130 O   0  0  0  0  0  0  0  0  0  0  0  0
  2  1  1  6
  2  3  1  0
  4  2  1  0
  4  5  1  1
  6  8  1  0
  6  4  1  0
  7  6  2  0
  9  8  1  0
 10 15  1  0
 10  9  1  0
 11 10  2  0
 13 12  1  0
 14 13  1  1
 14 15  1  0
 16 17  1  0
 16 14  1  0
 18 16  2  0
M  END
$$$$
