VGS.pdb
     RDKit          3D

 18 17  0  0  1  0  0  0  0  0999 V2000
   19.3953  -13.0188  -19.0638 C   0  0  0  0  0  0  0  0  0  0  0  0
   18.6435  -12.8980  -17.7627 C   0  0  1  0  0  0  0  0  0  0  0  0
   17.7435  -14.0528  -17.4763 C   0  0  0  0  0  0  0  0  0  0  0  0
   19.5518  -12.5572  -16.6070 C   0  0  2  0  0  0  0  0  0  0  0  0
   18.7958  -12.3714  -15.3948 N   0  0  0  0  0  0  0  0  0  0  0  0
   20.4324  -11.4229  -16.8474 C   0  0  0  0  0  0  0  0  0  0  0  0
   21.3830  -11.5264  -17.6632 O   0  0  0  0  0  0  0  0  0  0  0  0
   20.2221  -10.1995  -16.1641 N   0  0  0  0  0  0  0  0  0  0  0  0
   21.0480   -9.0439  -16.2947 C   0  0  0  0  0  0  0  0  0  0  0  0
   20.6601   -7.8859  -15.4879 C   0  0  0  0  0  0  0  0  0  0  0  0
   19.5034   -7.9138  -14.9711 O   0  0  0  0  0  0  0  0  0  0  0  0
   23.1008   -5.3504  -13.4748 O   0  0  0  0  0  0  0  0  0  0  0  0
   21.7598   -5.4973  -13.1295 C   0  0  0  0  0  0  0  0  0  0  0  0
   20.9743   -5.6397  -14.3952 C   0  0  2  0  0  0  0  0  0  0  0  0
   21.4399   -6.7381  -15.2214 N   0  0  0  0  0  0  0  0  0  0  0  0
   20.9734   -4.3572  -15.1633 C   0  0  0  0  0  0  0  0  0  0  0  0
   20.3556   -3.2553  -14.5889 O   0  0  0  0  0  0  0  0  0  0  0  0
   21.5011   -4.2504  -16.2832 O   0  0  0  0  0  0  0  0  0  0  0  0
  2  1  1  6
  2  3  1  0
  4  2  1  0
  4  5  1  1
  6  8  1  0
  6  4  1  0
  7  6  2  0
  9  8  1  0
 10 15  1  0
 10  9  1  0
 11 10  2  0
 13 12  1  0
 14 13  1  1
 14 15  1  0
 16 17  1  0
 16 14  1  0
 18 16  2  0
M  END
$$$$
