VGS.pdb
     RDKit          3D

 18 17  0  0  1  0  0  0  0  0999 V2000
   17.0414  -13.8106  -16.2878 C   0  0  0  0  0  0  0  0  0  0  0  0
   17.6492  -12.4776  -16.6430 C   0  0  1  0  0  0  0  0  0  0  0  0
   16.8126  -11.6604  -17.5693 C   0  0  0  0  0  0  0  0  0  0  0  0
   18.0996  -11.7114  -15.4236 C   0  0  2  0  0  0  0  0  0  0  0  0
   16.9889  -11.4378  -14.5477 N   0  0  0  0  0  0  0  0  0  0  0  0
   18.8398  -10.4926  -15.7177 C   0  0  0  0  0  0  0  0  0  0  0  0
   19.9793  -10.5603  -16.2440 O   0  0  0  0  0  0  0  0  0  0  0  0
   18.2801   -9.2271  -15.4125 N   0  0  0  0  0  0  0  0  0  0  0  0
   18.8255   -7.9763  -15.8282 C   0  0  0  0  0  0  0  0  0  0  0  0
   19.8972   -7.4359  -14.9905 C   0  0  0  0  0  0  0  0  0  0  0  0
   19.8849   -7.7656  -13.7671 O   0  0  0  0  0  0  0  0  0  0  0  0
   23.0352   -4.9181  -16.2086 O   0  0  0  0  0  0  0  0  0  0  0  0
   23.3090   -5.9284  -15.2902 C   0  0  0  0  0  0  0  0  0  0  0  0
   22.0496   -6.2125  -14.5335 C   0  0  2  0  0  0  0  0  0  0  0  0
   20.9480   -6.5852  -15.4015 N   0  0  0  0  0  0  0  0  0  0  0  0
   21.6788   -5.0502  -13.6698 C   0  0  0  0  0  0  0  0  0  0  0  0
   20.4812   -4.4003  -13.9325 O   0  0  0  0  0  0  0  0  0  0  0  0
   22.3999   -4.6549  -12.7381 O   0  0  0  0  0  0  0  0  0  0  0  0
  2  1  1  1
  2  3  1  0
  4  2  1  0
  4  5  1  6
  6  8  1  0
  6  4  1  0
  7  6  2  0
  9  8  1  0
 10 15  1  0
 10  9  1  0
 11 10  2  0
 13 12  1  0
 14 13  1  6
 14 15  1  0
 16 17  1  0
 16 14  1  0
 18 16  2  0
M  END
$$$$
