VGS.pdb
     RDKit          3D

 18 17  0  0  1  0  0  0  0  0999 V2000
   13.4275  -13.8510  -13.3499 C   0  0  0  0  0  0  0  0  0  0  0  0
   12.3125  -13.5967  -12.3677 C   0  0  1  0  0  0  0  0  0  0  0  0
   12.0382  -14.7449  -11.4556 C   0  0  0  0  0  0  0  0  0  0  0  0
   12.4835  -12.2888  -11.6347 C   0  0  2  0  0  0  0  0  0  0  0  0
   11.4182  -12.0867  -10.6861 N   0  0  0  0  0  0  0  0  0  0  0  0
   12.6330  -11.1282  -12.5009 C   0  0  0  0  0  0  0  0  0  0  0  0
   11.6160  -10.5090  -12.9040 O   0  0  0  0  0  0  0  0  0  0  0  0
   13.9230  -10.6922  -12.8928 N   0  0  0  0  0  0  0  0  0  0  0  0
   14.1773   -9.6618  -13.8458 C   0  0  0  0  0  0  0  0  0  0  0  0
   15.5834   -9.3070  -14.0444 C   0  0  0  0  0  0  0  0  0  0  0  0
   16.4223   -9.8442  -13.2611 O   0  0  0  0  0  0  0  0  0  0  0  0
   17.1036   -8.3594  -17.4343 O   0  0  0  0  0  0  0  0  0  0  0  0
   17.8956   -7.6717  -16.5184 C   0  0  0  0  0  0  0  0  0  0  0  0
   17.5242   -8.1431  -15.1476 C   0  0  2  0  0  0  0  0  0  0  0  0
   16.1072   -8.4288  -15.0196 N   0  0  0  0  0  0  0  0  0  0  0  0
   17.9657   -7.1587  -14.1129 C   0  0  0  0  0  0  0  0  0  0  0  0
   19.3226   -7.0707  -13.8356 O   0  0  0  0  0  0  0  0  0  0  0  0
   17.1662   -6.4283  -13.5033 O   0  0  0  0  0  0  0  0  0  0  0  0
  2  1  1  1
  2  3  1  0
  4  2  1  0
  4  5  1  1
  6  8  1  0
  6  4  1  0
  7  6  2  0
  9  8  1  0
 10 15  1  0
 10  9  1  0
 11 10  2  0
 13 12  1  0
 14 13  1  6
 14 15  1  0
 16 17  1  0
 16 14  1  0
 18 16  2  0
M  END
$$$$
