VGS.pdb
     RDKit          3D

 18 17  0  0  1  0  0  0  0  0999 V2000
   19.0565  -13.1766  -17.5671 C   0  0  0  0  0  0  0  0  0  0  0  0
   20.2079  -12.2171  -17.4050 C   0  0  1  0  0  0  0  0  0  0  0  0
   20.4508  -11.3584  -18.6005 C   0  0  0  0  0  0  0  0  0  0  0  0
   20.1193  -11.4294  -16.1211 C   0  0  2  0  0  0  0  0  0  0  0  0
   18.8939  -10.6740  -16.0634 N   0  0  0  0  0  0  0  0  0  0  0  0
   21.2680  -10.5740  -15.8590 C   0  0  0  0  0  0  0  0  0  0  0  0
   22.4005  -11.0836  -15.6649 O   0  0  0  0  0  0  0  0  0  0  0  0
   21.1147   -9.1658  -15.8217 N   0  0  0  0  0  0  0  0  0  0  0  0
   22.1887   -8.2348  -15.7017 C   0  0  0  0  0  0  0  0  0  0  0  0
   21.8104   -6.8210  -15.6813 C   0  0  0  0  0  0  0  0  0  0  0  0
   21.1717   -6.3879  -16.6863 O   0  0  0  0  0  0  0  0  0  0  0  0
   19.3549   -3.4925  -14.3341 O   0  0  0  0  0  0  0  0  0  0  0  0
   19.9090   -4.7662  -14.4317 C   0  0  0  0  0  0  0  0  0  0  0  0
   21.3929   -4.6120  -14.5480 C   0  0  2  0  0  0  0  0  0  0  0  0
   22.0803   -5.8854  -14.6574 N   0  0  0  0  0  0  0  0  0  0  0  0
   21.9317   -3.8111  -13.4066 C   0  0  0  0  0  0  0  0  0  0  0  0
   21.5868   -2.4689  -13.3336 O   0  0  0  0  0  0  0  0  0  0  0  0
   22.6678   -4.3037  -12.5350 O   0  0  0  0  0  0  0  0  0  0  0  0
  2  1  1  6
  2  3  1  0
  4  2  1  0
  4  5  1  6
  6  8  1  0
  6  4  1  0
  7  6  2  0
  9  8  1  0
 10 15  1  0
 10  9  1  0
 11 10  2  0
 13 12  1  0
 14 13  1  1
 14 15  1  0
 16 17  1  0
 16 14  1  0
 18 16  2  0
M  END
$$$$
