VGS.pdb
     RDKit          3D

 18 17  0  0  1  0  0  0  0  0999 V2000
   18.9830  -10.1651  -18.8009 C   0  0  0  0  0  0  0  0  0  0  0  0
   19.6042  -11.5386  -18.7996 C   0  0  1  0  0  0  0  0  0  0  0  0
   18.8007  -12.5651  -19.5251 C   0  0  0  0  0  0  0  0  0  0  0  0
   21.0512  -11.5121  -19.2266 C   0  0  2  0  0  0  0  0  0  0  0  0
   21.5767  -12.8479  -19.3501 N   0  0  0  0  0  0  0  0  0  0  0  0
   21.9122  -10.6924  -18.3860 C   0  0  0  0  0  0  0  0  0  0  0  0
   22.4589  -11.1912  -17.3700 O   0  0  0  0  0  0  0  0  0  0  0  0
   22.1373   -9.3311  -18.7089 N   0  0  0  0  0  0  0  0  0  0  0  0
   22.9329   -8.4341  -17.9363 C   0  0  0  0  0  0  0  0  0  0  0  0
   22.2318   -7.7087  -16.8757 C   0  0  0  0  0  0  0  0  0  0  0  0
   20.9980   -7.9601  -16.7336 O   0  0  0  0  0  0  0  0  0  0  0  0
   22.0123   -4.7556  -13.0481 O   0  0  0  0  0  0  0  0  0  0  0  0
   22.8576   -5.3538  -13.9790 C   0  0  0  0  0  0  0  0  0  0  0  0
   22.0042   -6.0697  -14.9783 C   0  0  2  0  0  0  0  0  0  0  0  0
   22.7853   -6.7571  -15.9899 N   0  0  0  0  0  0  0  0  0  0  0  0
   21.0258   -5.1303  -15.6067 C   0  0  0  0  0  0  0  0  0  0  0  0
   19.7788   -4.9964  -15.0127 O   0  0  0  0  0  0  0  0  0  0  0  0
   21.2918   -4.4760  -16.6291 O   0  0  0  0  0  0  0  0  0  0  0  0
  2  1  1  6
  2  3  1  0
  4  2  1  0
  4  5  1  1
  6  8  1  0
  6  4  1  0
  7  6  2  0
  9  8  1  0
 10 15  1  0
 10  9  1  0
 11 10  2  0
 13 12  1  0
 14 13  1  1
 14 15  1  0
 16 17  1  0
 16 14  1  0
 18 16  2  0
M  END
$$$$
