VGS.pdb
     RDKit          3D

 18 17  0  0  1  0  0  0  0  0999 V2000
   23.1665  -11.2410  -14.4598 C   0  0  0  0  0  0  0  0  0  0  0  0
   23.1974  -11.9923  -15.7664 C   0  0  1  0  0  0  0  0  0  0  0  0
   23.6496  -13.4082  -15.6378 C   0  0  0  0  0  0  0  0  0  0  0  0
   21.9075  -11.8527  -16.5368 C   0  0  2  0  0  0  0  0  0  0  0  0
   21.9467  -12.6259  -17.7518 N   0  0  0  0  0  0  0  0  0  0  0  0
   21.5154  -10.4775  -16.8104 C   0  0  0  0  0  0  0  0  0  0  0  0
   22.1014   -9.8233  -17.7096 O   0  0  0  0  0  0  0  0  0  0  0  0
   20.4732   -9.8715  -16.0656 N   0  0  0  0  0  0  0  0  0  0  0  0
   20.0044   -8.5386  -16.2610 C   0  0  0  0  0  0  0  0  0  0  0  0
   20.3957   -7.5667  -15.2389 C   0  0  0  0  0  0  0  0  0  0  0  0
   20.8559   -8.0345  -14.1548 O   0  0  0  0  0  0  0  0  0  0  0  0
   22.8127   -4.5098  -13.2576 O   0  0  0  0  0  0  0  0  0  0  0  0
   22.3632   -5.4524  -14.1787 C   0  0  0  0  0  0  0  0  0  0  0  0
   20.8871   -5.2670  -14.3400 C   0  0  2  0  0  0  0  0  0  0  0  0
   20.3168   -6.1590  -15.3324 N   0  0  0  0  0  0  0  0  0  0  0  0
   20.5653   -3.8417  -14.6558 C   0  0  0  0  0  0  0  0  0  0  0  0
   20.4198   -2.9574  -13.5963 O   0  0  0  0  0  0  0  0  0  0  0  0
   20.4263   -3.4318  -15.8206 O   0  0  0  0  0  0  0  0  0  0  0  0
  2  1  1  1
  2  3  1  0
  4  2  1  0
  4  5  1  6
  6  8  1  0
  6  4  1  0
  7  6  2  0
  9  8  1  0
 10 15  1  0
 10  9  1  0
 11 10  2  0
 13 12  1  0
 14 13  1  6
 14 15  1  0
 16 17  1  0
 16 14  1  0
 18 16  2  0
M  END
$$$$
