VGS.pdb
     RDKit          3D

 18 17  0  0  1  0  0  0  0  0999 V2000
   20.7249  -12.3075  -17.4761 C   0  0  0  0  0  0  0  0  0  0  0  0
   19.2245  -12.1632  -17.4481 C   0  0  1  0  0  0  0  0  0  0  0  0
   18.4945  -13.4622  -17.3769 C   0  0  0  0  0  0  0  0  0  0  0  0
   18.7650  -11.1705  -16.4088 C   0  0  2  0  0  0  0  0  0  0  0  0
   17.3301  -11.0409  -16.4188 N   0  0  0  0  0  0  0  0  0  0  0  0
   19.4036   -9.8652  -16.4989 C   0  0  0  0  0  0  0  0  0  0  0  0
   20.6195   -9.7383  -16.2066 O   0  0  0  0  0  0  0  0  0  0  0  0
   18.6587   -8.7341  -16.9157 N   0  0  0  0  0  0  0  0  0  0  0  0
   19.1669   -7.4025  -16.9710 C   0  0  0  0  0  0  0  0  0  0  0  0
   19.4764   -6.7819  -15.6820 C   0  0  0  0  0  0  0  0  0  0  0  0
   18.6033   -6.8964  -14.7707 O   0  0  0  0  0  0  0  0  0  0  0  0
   22.2195   -7.2870  -13.2704 O   0  0  0  0  0  0  0  0  0  0  0  0
   21.0533   -6.5840  -12.9794 C   0  0  0  0  0  0  0  0  0  0  0  0
   20.8873   -5.5220  -14.0205 C   0  0  2  0  0  0  0  0  0  0  0  0
   20.6483   -6.0687  -15.3434 N   0  0  0  0  0  0  0  0  0  0  0  0
   22.0651   -4.6015  -14.0284 C   0  0  0  0  0  0  0  0  0  0  0  0
   22.3157   -3.8558  -12.8852 O   0  0  0  0  0  0  0  0  0  0  0  0
   22.8146   -4.4860  -15.0128 O   0  0  0  0  0  0  0  0  0  0  0  0
  2  1  1  1
  2  3  1  0
  4  2  1  0
  4  5  1  6
  6  8  1  0
  6  4  1  0
  7  6  2  0
  9  8  1  0
 10 15  1  0
 10  9  1  0
 11 10  2  0
 13 12  1  0
 14 13  1  1
 14 15  1  0
 16 17  1  0
 16 14  1  0
 18 16  2  0
M  END
$$$$
