FAG.pdb
     RDKit          3D

 21 21  0  0  1  0  0  0  0  0999 V2000
   38.5593   -1.2972    1.2042 N   0  0  0  0  0  0  0  0  0  0  0  0
   37.1753   -0.8926    1.1002 C   0  0  1  0  0  0  0  0  0  0  0  0
   36.3307   -2.1143    0.8380 C   0  0  0  0  0  0  0  0  0  0  0  0
   36.7034   -2.6364   -0.5048 C   0  0  0  0  0  0  0  0  0  0  0  0
   37.4028   -3.8265   -0.6480 C   0  0  0  0  0  0  0  0  0  0  0  0
   37.7311   -4.2808   -1.8927 C   0  0  0  0  0  0  0  0  0  0  0  0
   37.3864   -3.5880   -3.0261 C   0  0  0  0  0  0  0  0  0  0  0  0
   36.6860   -2.3953   -2.8931 C   0  0  0  0  0  0  0  0  0  0  0  0
   36.3513   -1.9318   -1.6263 C   0  0  0  0  0  0  0  0  0  0  0  0
   36.8026   -0.1884    2.3328 C   0  0  0  0  0  0  0  0  0  0  0  0
   37.2596   -0.5221    3.4569 O   0  0  0  0  0  0  0  0  0  0  0  0
   35.1825    3.0718    3.1595 C   0  0  0  0  0  0  0  0  0  0  0  0
   35.5876    1.6460    3.5617 C   0  0  2  0  0  0  0  0  0  0  0  0
   35.8930    0.9274    2.3425 N   0  0  0  0  0  0  0  0  0  0  0  0
   34.3776    1.0403    4.1694 C   0  0  0  0  0  0  0  0  0  0  0  0
   33.9655    1.4962    5.2627 O   0  0  0  0  0  0  0  0  0  0  0  0
   33.6780   -0.0357    3.5491 N   0  0  0  0  0  0  0  0  0  0  0  0
   32.5113   -0.5531    4.2327 C   0  0  0  0  0  0  0  0  0  0  0  0
   32.7872   -1.9111    4.7582 C   0  0  0  0  0  0  0  0  0  0  0  0
   33.9409   -2.3909    4.7755 O   0  0  0  0  0  0  0  0  0  0  0  0
   31.7604   -2.7131    5.2580 O   0  0  0  0  0  0  0  0  0  0  0  0
  2  1  1  1
  2  3  1  0
  3  4  1  0
  4  5  2  0
  5  6  1  0
  7  6  2  0
  8  7  1  0
  9  4  1  0
  9  8  2  0
 10 14  1  0
 10  2  1  0
 11 10  2  0
 13 12  1  6
 13 14  1  0
 15 13  1  0
 15 17  1  0
 16 15  2  0
 18 17  1  0
 18 19  1  0
 19 21  1  0
 20 19  2  0
M  END
$$$$
