FAG.pdb
     RDKit          3D

 21 21  0  0  1  0  0  0  0  0999 V2000
   19.6828  -11.8987  -18.3086 N   0  0  0  0  0  0  0  0  0  0  0  0
   20.6451  -10.8213  -18.2513 C   0  0  1  0  0  0  0  0  0  0  0  0
   20.2713   -9.7814  -19.2778 C   0  0  0  0  0  0  0  0  0  0  0  0
   20.5380  -10.3626  -20.6215 C   0  0  0  0  0  0  0  0  0  0  0  0
   21.8320  -10.6141  -21.0553 C   0  0  0  0  0  0  0  0  0  0  0  0
   22.0462  -11.1479  -22.2933 C   0  0  0  0  0  0  0  0  0  0  0  0
   21.0067  -11.4490  -23.1372 C   0  0  0  0  0  0  0  0  0  0  0  0
   19.7074  -11.2008  -22.7120 C   0  0  0  0  0  0  0  0  0  0  0  0
   19.4881  -10.6573  -21.4516 C   0  0  0  0  0  0  0  0  0  0  0  0
   20.6730  -10.2947  -16.8816 C   0  0  0  0  0  0  0  0  0  0  0  0
   19.6272  -10.1694  -16.1929 O   0  0  0  0  0  0  0  0  0  0  0  0
   23.3536   -9.5784  -14.3521 C   0  0  0  0  0  0  0  0  0  0  0  0
   21.9073   -9.4511  -14.8528 C   0  0  2  0  0  0  0  0  0  0  0  0
   21.8919   -9.8869  -16.2333 N   0  0  0  0  0  0  0  0  0  0  0  0
   21.5957   -8.0012  -14.8180 C   0  0  0  0  0  0  0  0  0  0  0  0
   21.8442   -7.3116  -15.8357 O   0  0  0  0  0  0  0  0  0  0  0  0
   21.0268   -7.3777  -13.6693 N   0  0  0  0  0  0  0  0  0  0  0  0
   20.6925   -5.9727  -13.7714 C   0  0  0  0  0  0  0  0  0  0  0  0
   21.8879   -5.1414  -13.4953 C   0  0  0  0  0  0  0  0  0  0  0  0
   21.8492   -3.8932  -13.5403 O   0  0  0  0  0  0  0  0  0  0  0  0
   23.1132   -5.7256  -13.1716 O   0  0  0  0  0  0  0  0  0  0  0  0
  2  1  1  1
  2  3  1  0
  3  4  1  0
  4  5  2  0
  5  6  1  0
  7  6  2  0
  8  7  1  0
  9  4  1  0
  9  8  2  0
 10 14  1  0
 10  2  1  0
 11 10  2  0
 13 12  1  6
 13 14  1  0
 15 13  1  0
 15 17  1  0
 16 15  2  0
 18 17  1  0
 18 19  1  0
 19 21  1  0
 20 19  2  0
M  END
$$$$
