FAG.pdb
     RDKit          3D

 21 21  0  0  1  0  0  0  0  0999 V2000
   28.7001  -21.0516   -9.1135 N   0  0  0  0  0  0  0  0  0  0  0  0
   27.3119  -20.6685   -8.9861 C   0  0  1  0  0  0  0  0  0  0  0  0
   27.2375  -19.3452   -8.2663 C   0  0  0  0  0  0  0  0  0  0  0  0
   27.6590  -19.5771   -6.8582 C   0  0  0  0  0  0  0  0  0  0  0  0
   28.8596  -19.0785   -6.3725 C   0  0  0  0  0  0  0  0  0  0  0  0
   29.2202  -19.3072   -5.0759 C   0  0  0  0  0  0  0  0  0  0  0  0
   28.4212  -20.0260   -4.2225 C   0  0  0  0  0  0  0  0  0  0  0  0
   27.2171  -20.5295   -4.6994 C   0  0  0  0  0  0  0  0  0  0  0  0
   26.8489  -20.2972   -6.0194 C   0  0  0  0  0  0  0  0  0  0  0  0
   26.7151  -20.6295  -10.3265 C   0  0  0  0  0  0  0  0  0  0  0  0
   27.2774  -20.0491  -11.2912 O   0  0  0  0  0  0  0  0  0  0  0  0
   24.6375  -22.4861  -12.5215 C   0  0  0  0  0  0  0  0  0  0  0  0
   24.8170  -21.0841  -11.9207 C   0  0  2  0  0  0  0  0  0  0  0  0
   25.4517  -21.2492  -10.6300 N   0  0  0  0  0  0  0  0  0  0  0  0
   23.4461  -20.5612  -11.7029 C   0  0  0  0  0  0  0  0  0  0  0  0
   22.9078  -20.7422  -10.5847 O   0  0  0  0  0  0  0  0  0  0  0  0
   22.7318  -19.8652  -12.7214 N   0  0  0  0  0  0  0  0  0  0  0  0
   21.4121  -19.3707  -12.3897 C   0  0  0  0  0  0  0  0  0  0  0  0
   20.3904  -20.4026  -12.6855 C   0  0  0  0  0  0  0  0  0  0  0  0
   20.6939  -21.5113  -13.1756 O   0  0  0  0  0  0  0  0  0  0  0  0
   19.0385  -20.1739  -12.4259 O   0  0  0  0  0  0  0  0  0  0  0  0
  2  1  1  6
  2  3  1  0
  3  4  1  0
  4  5  2  0
  5  6  1  0
  7  6  2  0
  8  7  1  0
  9  4  1  0
  9  8  2  0
 10 14  1  0
 10  2  1  0
 11 10  2  0
 13 12  1  1
 13 14  1  0
 15 13  1  0
 15 17  1  0
 16 15  2  0
 18 17  1  0
 18 19  1  0
 19 21  1  0
 20 19  2  0
M  END
$$$$
