FAG.pdb
     RDKit          3D

 21 21  0  0  1  0  0  0  0  0999 V2000
   28.5150  -21.2315   -9.3778 N   0  0  0  0  0  0  0  0  0  0  0  0
   27.1482  -20.7675   -9.4591 C   0  0  1  0  0  0  0  0  0  0  0  0
   27.0601  -19.4029   -8.8229 C   0  0  0  0  0  0  0  0  0  0  0  0
   27.3499  -19.5656   -7.3724 C   0  0  0  0  0  0  0  0  0  0  0  0
   28.4351  -18.9371   -6.7781 C   0  0  0  0  0  0  0  0  0  0  0  0
   28.6762  -19.1048   -5.4450 C   0  0  0  0  0  0  0  0  0  0  0  0
   27.8674  -19.8876   -4.6599 C   0  0  0  0  0  0  0  0  0  0  0  0
   26.7783  -20.5212   -5.2457 C   0  0  0  0  0  0  0  0  0  0  0  0
   26.5318  -20.3511   -6.6030 C   0  0  0  0  0  0  0  0  0  0  0  0
   26.7379  -20.7737  -10.8683 C   0  0  0  0  0  0  0  0  0  0  0  0
   27.3697  -20.1364  -11.7507 O   0  0  0  0  0  0  0  0  0  0  0  0
   24.8201  -22.8578  -13.1673 C   0  0  0  0  0  0  0  0  0  0  0  0
   25.1538  -21.4282  -12.7159 C   0  0  2  0  0  0  0  0  0  0  0  0
   25.5902  -21.5051  -11.3376 N   0  0  0  0  0  0  0  0  0  0  0  0
   23.8717  -20.6834  -12.7582 C   0  0  0  0  0  0  0  0  0  0  0  0
   23.3938  -20.3788  -13.8771 O   0  0  0  0  0  0  0  0  0  0  0  0
   23.1757  -20.3086  -11.5720 N   0  0  0  0  0  0  0  0  0  0  0  0
   21.9733  -19.5174  -11.7276 C   0  0  0  0  0  0  0  0  0  0  0  0
   20.7929  -20.4029  -11.8652 C   0  0  0  0  0  0  0  0  0  0  0  0
   20.8724  -21.6395  -11.7031 O   0  0  0  0  0  0  0  0  0  0  0  0
   19.5367  -19.8856  -12.1839 O   0  0  0  0  0  0  0  0  0  0  0  0
  2  1  1  6
  2  3  1  0
  3  4  1  0
  4  5  2  0
  5  6  1  0
  7  6  2  0
  8  7  1  0
  9  4  1  0
  9  8  2  0
 10 14  1  0
 10  2  1  0
 11 10  2  0
 13 12  1  1
 13 14  1  0
 15 13  1  0
 15 17  1  0
 16 15  2  0
 18 17  1  0
 18 19  1  0
 19 21  1  0
 20 19  2  0
M  END
$$$$
