FAG.pdb
     RDKit          3D

 21 21  0  0  1  0  0  0  0  0999 V2000
   26.5547  -10.6189  -16.0278 N   0  0  0  0  0  0  0  0  0  0  0  0
   25.4213  -10.1455  -16.7902 C   0  0  1  0  0  0  0  0  0  0  0  0
   24.2633  -11.0874  -16.5743 C   0  0  0  0  0  0  0  0  0  0  0  0
   24.5365  -12.3205  -17.3612 C   0  0  0  0  0  0  0  0  0  0  0  0
   24.9844  -13.4829  -16.7494 C   0  0  0  0  0  0  0  0  0  0  0  0
   25.2267  -14.5990  -17.4970 C   0  0  0  0  0  0  0  0  0  0  0  0
   25.0389  -14.6098  -18.8564 C   0  0  0  0  0  0  0  0  0  0  0  0
   24.5907  -13.4509  -19.4782 C   0  0  0  0  0  0  0  0  0  0  0  0
   24.3436  -12.3138  -18.7181 C   0  0  0  0  0  0  0  0  0  0  0  0
   25.1273   -8.7674  -16.3797 C   0  0  0  0  0  0  0  0  0  0  0  0
   25.1741   -8.4050  -15.1754 O   0  0  0  0  0  0  0  0  0  0  0  0
   24.6462   -5.4829  -18.1362 C   0  0  0  0  0  0  0  0  0  0  0  0
   24.5119   -6.3787  -16.8959 C   0  0  2  0  0  0  0  0  0  0  0  0
   24.7666   -7.7392  -17.3204 N   0  0  0  0  0  0  0  0  0  0  0  0
   23.0918   -6.2784  -16.4792 C   0  0  0  0  0  0  0  0  0  0  0  0
   22.3032   -7.1929  -16.8179 O   0  0  0  0  0  0  0  0  0  0  0  0
   22.6052   -5.1804  -15.7113 N   0  0  0  0  0  0  0  0  0  0  0  0
   21.1941   -5.1681  -15.3873 C   0  0  0  0  0  0  0  0  0  0  0  0
   20.8456   -3.9201  -14.6682 C   0  0  0  0  0  0  0  0  0  0  0  0
   21.0984   -3.7645  -13.4543 O   0  0  0  0  0  0  0  0  0  0  0  0
   20.2161   -2.8616  -15.3245 O   0  0  0  0  0  0  0  0  0  0  0  0
  2  1  1  1
  2  3  1  0
  3  4  1  0
  4  5  2  0
  5  6  1  0
  7  6  2  0
  8  7  1  0
  9  4  1  0
  9  8  2  0
 10 14  1  0
 10  2  1  0
 11 10  2  0
 13 12  1  6
 13 14  1  0
 15 13  1  0
 15 17  1  0
 16 15  2  0
 18 17  1  0
 18 19  1  0
 19 21  1  0
 20 19  2  0
M  END
$$$$
