FAG.pdb
     RDKit          3D

 21 21  0  0  1  0  0  0  0  0999 V2000
   19.9910  -10.1956  -19.4875 N   0  0  0  0  0  0  0  0  0  0  0  0
   20.7235  -10.3067  -18.2461 C   0  0  1  0  0  0  0  0  0  0  0  0
   22.2005  -10.2605  -18.5481 C   0  0  0  0  0  0  0  0  0  0  0  0
   22.5255  -11.4528  -19.3770 C   0  0  0  0  0  0  0  0  0  0  0  0
   22.9077  -11.3264  -20.7051 C   0  0  0  0  0  0  0  0  0  0  0  0
   23.1999  -12.4383  -21.4411 C   0  0  0  0  0  0  0  0  0  0  0  0
   23.1270  -13.6982  -20.9019 C   0  0  0  0  0  0  0  0  0  0  0  0
   22.7453  -13.8352  -19.5730 C   0  0  0  0  0  0  0  0  0  0  0  0
   22.4476  -12.7038  -18.8226 C   0  0  0  0  0  0  0  0  0  0  0  0
   20.2850   -9.2309  -17.3492 C   0  0  0  0  0  0  0  0  0  0  0  0
   20.2289   -8.0306  -17.7234 O   0  0  0  0  0  0  0  0  0  0  0  0
   18.6995   -9.0575  -13.9411 C   0  0  0  0  0  0  0  0  0  0  0  0
   19.4088   -8.4033  -15.1359 C   0  0  2  0  0  0  0  0  0  0  0  0
   19.8903   -9.4718  -15.9859 N   0  0  0  0  0  0  0  0  0  0  0  0
   20.5817   -7.6942  -14.5685 C   0  0  0  0  0  0  0  0  0  0  0  0
   21.6817   -8.2953  -14.5279 O   0  0  0  0  0  0  0  0  0  0  0  0
   20.4918   -6.3606  -14.0731 N   0  0  0  0  0  0  0  0  0  0  0  0
   21.7110   -5.7455  -13.5921 C   0  0  0  0  0  0  0  0  0  0  0  0
   21.8574   -4.3859  -14.1632 C   0  0  0  0  0  0  0  0  0  0  0  0
   22.7415   -3.5955  -13.7690 O   0  0  0  0  0  0  0  0  0  0  0  0
   21.0063   -3.9319  -15.1716 O   0  0  0  0  0  0  0  0  0  0  0  0
  2  1  1  6
  2  3  1  0
  3  4  1  0
  4  5  2  0
  5  6  1  0
  7  6  2  0
  8  7  1  0
  9  4  1  0
  9  8  2  0
 10 14  1  0
 10  2  1  0
 11 10  2  0
 13 12  1  1
 13 14  1  0
 15 13  1  0
 15 17  1  0
 16 15  2  0
 18 17  1  0
 18 19  1  0
 19 21  1  0
 20 19  2  0
M  END
$$$$
