FAG.pdb
     RDKit          3D

 21 21  0  0  1  0  0  0  0  0999 V2000
   26.2586  -22.4401  -12.6489 N   0  0  0  0  0  0  0  0  0  0  0  0
   25.6541  -21.5139  -11.7180 C   0  0  1  0  0  0  0  0  0  0  0  0
   26.5115  -20.2756  -11.6392 C   0  0  0  0  0  0  0  0  0  0  0  0
   27.7101  -20.6122  -10.8240 C   0  0  0  0  0  0  0  0  0  0  0  0
   28.9455  -20.8366  -11.4151 C   0  0  0  0  0  0  0  0  0  0  0  0
   30.0276  -21.1437  -10.6417 C   0  0  0  0  0  0  0  0  0  0  0  0
   29.9325  -21.2394   -9.2759 C   0  0  0  0  0  0  0  0  0  0  0  0
   28.6999  -21.0165   -8.6747 C   0  0  0  0  0  0  0  0  0  0  0  0
   27.5974  -20.7038   -9.4611 C   0  0  0  0  0  0  0  0  0  0  0  0
   24.2825  -21.2375  -12.1613 C   0  0  0  0  0  0  0  0  0  0  0  0
   23.9239  -21.3899  -13.3580 O   0  0  0  0  0  0  0  0  0  0  0  0
   21.0637  -20.2239  -10.4522 C   0  0  0  0  0  0  0  0  0  0  0  0
   21.8643  -20.7366  -11.6584 C   0  0  2  0  0  0  0  0  0  0  0  0
   23.2566  -20.7754  -11.2633 N   0  0  0  0  0  0  0  0  0  0  0  0
   21.7075  -19.7053  -12.7131 C   0  0  0  0  0  0  0  0  0  0  0  0
   22.2497  -18.5875  -12.5418 O   0  0  0  0  0  0  0  0  0  0  0  0
   20.9637  -19.9495  -13.9044 N   0  0  0  0  0  0  0  0  0  0  0  0
   20.8666  -18.8680  -14.8620 C   0  0  0  0  0  0  0  0  0  0  0  0
   19.5015  -18.2915  -14.8452 C   0  0  0  0  0  0  0  0  0  0  0  0
   19.1146  -17.5365  -13.9277 O   0  0  0  0  0  0  0  0  0  0  0  0
   18.5878  -18.5719  -15.8620 O   0  0  0  0  0  0  0  0  0  0  0  0
  2  1  1  6
  2  3  1  0
  3  4  1  0
  4  5  2  0
  5  6  1  0
  7  6  2  0
  8  7  1  0
  9  4  1  0
  9  8  2  0
 10 14  1  0
 10  2  1  0
 11 10  2  0
 13 12  1  1
 13 14  1  0
 15 13  1  0
 15 17  1  0
 16 15  2  0
 18 17  1  0
 18 19  1  0
 19 21  1  0
 20 19  2  0
M  END
$$$$
