FAG.pdb
     RDKit          3D

 21 21  0  0  1  0  0  0  0  0999 V2000
   17.6836  -11.3891  -17.9794 N   0  0  0  0  0  0  0  0  0  0  0  0
   18.7348  -11.0943  -17.0316 C   0  0  1  0  0  0  0  0  0  0  0  0
   19.8479  -12.0955  -17.2141 C   0  0  0  0  0  0  0  0  0  0  0  0
   19.3307  -13.4232  -16.7851 C   0  0  0  0  0  0  0  0  0  0  0  0
   19.3543  -13.8110  -15.4528 C   0  0  0  0  0  0  0  0  0  0  0  0
   18.8728  -15.0353  -15.0887 C   0  0  0  0  0  0  0  0  0  0  0  0
   18.3576  -15.9101  -16.0122 C   0  0  0  0  0  0  0  0  0  0  0  0
   18.3296  -15.5310  -17.3486 C   0  0  0  0  0  0  0  0  0  0  0  0
   18.8196  -14.2846  -17.7205 C   0  0  0  0  0  0  0  0  0  0  0  0
   19.1687   -9.7070  -17.2346 C   0  0  0  0  0  0  0  0  0  0  0  0
   19.0393   -9.1220  -18.3414 O   0  0  0  0  0  0  0  0  0  0  0  0
   19.0822   -6.6772  -16.6957 C   0  0  0  0  0  0  0  0  0  0  0  0
   20.2874   -7.5938  -16.4384 C   0  0  2  0  0  0  0  0  0  0  0  0
   19.7694   -8.9223  -16.1878 N   0  0  0  0  0  0  0  0  0  0  0  0
   20.9133   -7.0942  -15.1898 C   0  0  0  0  0  0  0  0  0  0  0  0
   20.3779   -7.3865  -14.0940 O   0  0  0  0  0  0  0  0  0  0  0  0
   22.0959   -6.2984  -15.2031 N   0  0  0  0  0  0  0  0  0  0  0  0
   22.6847   -5.9596  -13.9245 C   0  0  0  0  0  0  0  0  0  0  0  0
   22.0950   -4.7022  -13.4073 C   0  0  0  0  0  0  0  0  0  0  0  0
   22.4615   -4.1972  -12.3246 O   0  0  0  0  0  0  0  0  0  0  0  0
   21.0994   -4.0281  -14.1155 O   0  0  0  0  0  0  0  0  0  0  0  0
  2  1  1  6
  2  3  1  0
  3  4  1  0
  4  5  2  0
  5  6  1  0
  7  6  2  0
  8  7  1  0
  9  4  1  0
  9  8  2  0
 10 14  1  0
 10  2  1  0
 11 10  2  0
 13 12  1  1
 13 14  1  0
 15 13  1  0
 15 17  1  0
 16 15  2  0
 18 17  1  0
 18 19  1  0
 19 21  1  0
 20 19  2  0
M  END
$$$$
