FAG.pdb
     RDKit          3D

 21 21  0  0  1  0  0  0  0  0999 V2000
   22.2858  -10.5210  -18.1301 N   0  0  0  0  0  0  0  0  0  0  0  0
   21.3757  -10.0512  -17.1099 C   0  0  1  0  0  0  0  0  0  0  0  0
   21.9734  -10.3400  -15.7556 C   0  0  0  0  0  0  0  0  0  0  0  0
   23.3869   -9.8755  -15.7818 C   0  0  0  0  0  0  0  0  0  0  0  0
   24.4429  -10.7708  -15.6864 C   0  0  0  0  0  0  0  0  0  0  0  0
   25.7295  -10.3156  -15.7133 C   0  0  0  0  0  0  0  0  0  0  0  0
   26.0180   -8.9793  -15.8335 C   0  0  0  0  0  0  0  0  0  0  0  0
   24.9676   -8.0749  -15.9296 C   0  0  0  0  0  0  0  0  0  0  0  0
   23.6571   -8.5373  -15.9024 C   0  0  0  0  0  0  0  0  0  0  0  0
   21.1217   -8.6232  -17.3348 C   0  0  0  0  0  0  0  0  0  0  0  0
   21.9446   -7.8852  -17.9364 O   0  0  0  0  0  0  0  0  0  0  0  0
   18.1624   -6.3420  -17.0601 C   0  0  0  0  0  0  0  0  0  0  0  0
   19.6797   -6.5655  -17.1409 C   0  0  2  0  0  0  0  0  0  0  0  0
   19.9200   -7.9701  -16.8854 N   0  0  0  0  0  0  0  0  0  0  0  0
   20.2618   -5.7821  -16.0238 C   0  0  0  0  0  0  0  0  0  0  0  0
   20.2841   -6.2969  -14.8804 O   0  0  0  0  0  0  0  0  0  0  0  0
   20.7911   -4.4723  -16.2144 N   0  0  0  0  0  0  0  0  0  0  0  0
   21.3138   -3.7896  -15.0496 C   0  0  0  0  0  0  0  0  0  0  0  0
   22.5703   -4.4342  -14.6002 C   0  0  0  0  0  0  0  0  0  0  0  0
   22.6379   -5.0742  -13.5291 O   0  0  0  0  0  0  0  0  0  0  0  0
   23.7362   -4.3504  -15.3623 O   0  0  0  0  0  0  0  0  0  0  0  0
  2  1  1  6
  2  3  1  0
  3  4  1  0
  4  5  2  0
  5  6  1  0
  7  6  2  0
  8  7  1  0
  9  4  1  0
  9  8  2  0
 10 14  1  0
 10  2  1  0
 11 10  2  0
 13 12  1  1
 13 14  1  0
 15 13  1  0
 15 17  1  0
 16 15  2  0
 18 17  1  0
 18 19  1  0
 19 21  1  0
 20 19  2  0
M  END
$$$$
