FAG.pdb
     RDKit          3D

 21 21  0  0  1  0  0  0  0  0999 V2000
   27.6484  -23.8933  -16.5084 N   0  0  0  0  0  0  0  0  0  0  0  0
   26.2389  -24.2089  -16.5689 C   0  0  1  0  0  0  0  0  0  0  0  0
   25.9883  -25.4660  -15.7740 C   0  0  0  0  0  0  0  0  0  0  0  0
   26.6221  -26.5941  -16.5087 C   0  0  0  0  0  0  0  0  0  0  0  0
   26.0076  -27.1750  -17.6091 C   0  0  0  0  0  0  0  0  0  0  0  0
   26.6130  -28.2088  -18.2635 C   0  0  0  0  0  0  0  0  0  0  0  0
   27.8297  -28.7008  -17.8625 C   0  0  0  0  0  0  0  0  0  0  0  0
   28.4531  -28.1258  -16.7618 C   0  0  0  0  0  0  0  0  0  0  0  0
   27.8376  -27.0732  -16.0947 C   0  0  0  0  0  0  0  0  0  0  0  0
   25.4817  -23.0534  -16.0733 C   0  0  0  0  0  0  0  0  0  0  0  0
   25.9703  -22.2393  -15.2472 O   0  0  0  0  0  0  0  0  0  0  0  0
   23.3152  -20.6427  -17.2484 C   0  0  0  0  0  0  0  0  0  0  0  0
   23.4306  -21.5894  -16.0445 C   0  0  2  0  0  0  0  0  0  0  0  0
   24.1344  -22.7716  -16.4950 N   0  0  0  0  0  0  0  0  0  0  0  0
   22.0401  -21.9765  -15.7024 C   0  0  0  0  0  0  0  0  0  0  0  0
   21.2320  -21.0752  -15.3744 O   0  0  0  0  0  0  0  0  0  0  0  0
   21.6030  -23.3328  -15.7364 N   0  0  0  0  0  0  0  0  0  0  0  0
   20.1983  -23.5858  -15.4936 C   0  0  0  0  0  0  0  0  0  0  0  0
   19.9941  -24.0370  -14.0969 C   0  0  0  0  0  0  0  0  0  0  0  0
   18.8883  -24.4564  -13.6932 O   0  0  0  0  0  0  0  0  0  0  0  0
   21.0376  -24.0106  -13.1708 O   0  0  0  0  0  0  0  0  0  0  0  0
  2  1  1  1
  2  3  1  0
  3  4  1  0
  4  5  2  0
  5  6  1  0
  7  6  2  0
  8  7  1  0
  9  4  1  0
  9  8  2  0
 10 14  1  0
 10  2  1  0
 11 10  2  0
 13 12  1  6
 13 14  1  0
 15 13  1  0
 15 17  1  0
 16 15  2  0
 18 17  1  0
 18 19  1  0
 19 21  1  0
 20 19  2  0
M  END
$$$$
