FAG.pdb
     RDKit          3D

 21 21  0  0  1  0  0  0  0  0999 V2000
   28.3581  -21.0226   -8.7039 N   0  0  0  0  0  0  0  0  0  0  0  0
   26.9602  -20.6540   -8.7098 C   0  0  1  0  0  0  0  0  0  0  0  0
   26.7945  -19.3656   -7.9435 C   0  0  0  0  0  0  0  0  0  0  0  0
   27.3058  -19.5957   -6.5650 C   0  0  0  0  0  0  0  0  0  0  0  0
   26.6270  -20.4106   -5.6699 C   0  0  0  0  0  0  0  0  0  0  0  0
   27.1200  -20.6033   -4.4117 C   0  0  0  0  0  0  0  0  0  0  0  0
   28.2844  -20.0077   -3.9957 C   0  0  0  0  0  0  0  0  0  0  0  0
   28.9713  -19.1900   -4.8845 C   0  0  0  0  0  0  0  0  0  0  0  0
   28.4702  -18.9931   -6.1659 C   0  0  0  0  0  0  0  0  0  0  0  0
   26.5105  -20.5571  -10.1036 C   0  0  0  0  0  0  0  0  0  0  0  0
   27.0061  -19.7266  -10.9090 O   0  0  0  0  0  0  0  0  0  0  0  0
   25.3108  -22.5835  -12.7285 C   0  0  0  0  0  0  0  0  0  0  0  0
   25.0190  -21.2577  -12.0103 C   0  0  2  0  0  0  0  0  0  0  0  0
   25.4768  -21.4006  -10.6443 N   0  0  0  0  0  0  0  0  0  0  0  0
   23.5416  -21.1249  -11.9955 C   0  0  0  0  0  0  0  0  0  0  0  0
   22.9061  -21.3988  -13.0414 O   0  0  0  0  0  0  0  0  0  0  0  0
   22.8326  -20.6983  -10.8347 N   0  0  0  0  0  0  0  0  0  0  0  0
   21.3974  -20.5463  -10.9496 C   0  0  0  0  0  0  0  0  0  0  0  0
   21.0722  -19.2926  -11.6698 C   0  0  0  0  0  0  0  0  0  0  0  0
   21.9266  -18.6763  -12.3421 O   0  0  0  0  0  0  0  0  0  0  0  0
   19.7886  -18.7472  -11.6245 O   0  0  0  0  0  0  0  0  0  0  0  0
  2  1  1  6
  2  3  1  0
  3  4  1  0
  4  5  2  0
  5  6  1  0
  7  6  2  0
  8  7  1  0
  9  4  1  0
  9  8  2  0
 10 14  1  0
 10  2  1  0
 11 10  2  0
 13 12  1  6
 13 14  1  0
 15 13  1  0
 15 17  1  0
 16 15  2  0
 18 17  1  0
 18 19  1  0
 19 21  1  0
 20 19  2  0
M  END
$$$$
