FAG.pdb
     RDKit          3D

 21 21  0  0  1  0  0  0  0  0999 V2000
   20.3831   -9.4859  -19.3592 N   0  0  0  0  0  0  0  0  0  0  0  0
   21.1888   -8.5756  -18.5769 C   0  0  1  0  0  0  0  0  0  0  0  0
   20.6074   -7.1889  -18.6944 C   0  0  0  0  0  0  0  0  0  0  0  0
   20.8057   -6.7379  -20.0986 C   0  0  0  0  0  0  0  0  0  0  0  0
   22.0741   -6.4952  -20.6067 C   0  0  0  0  0  0  0  0  0  0  0  0
   22.2253   -6.0823  -21.8989 C   0  0  0  0  0  0  0  0  0  0  0  0
   21.1462   -5.8960  -22.7262 C   0  0  0  0  0  0  0  0  0  0  0  0
   19.8721   -6.1364  -22.2268 C   0  0  0  0  0  0  0  0  0  0  0  0
   19.7169   -6.5569  -20.9111 C   0  0  0  0  0  0  0  0  0  0  0  0
   21.2347   -9.0657  -17.1941 C   0  0  0  0  0  0  0  0  0  0  0  0
   20.2198   -9.5379  -16.6190 O   0  0  0  0  0  0  0  0  0  0  0  0
   23.8007  -10.1317  -14.7534 C   0  0  0  0  0  0  0  0  0  0  0  0
   22.4430   -9.4647  -15.0188 C   0  0  2  0  0  0  0  0  0  0  0  0
   22.4373   -9.0408  -16.4031 N   0  0  0  0  0  0  0  0  0  0  0  0
   22.4144   -8.2551  -14.1606 C   0  0  0  0  0  0  0  0  0  0  0  0
   22.5112   -8.4006  -12.9187 O   0  0  0  0  0  0  0  0  0  0  0  0
   22.2812   -6.9446  -14.7055 N   0  0  0  0  0  0  0  0  0  0  0  0
   22.1473   -5.8460  -13.7722 C   0  0  0  0  0  0  0  0  0  0  0  0
   21.9581   -4.5722  -14.5056 C   0  0  0  0  0  0  0  0  0  0  0  0
   22.0963   -4.4971  -15.7454 O   0  0  0  0  0  0  0  0  0  0  0  0
   21.6156   -3.3977  -13.8345 O   0  0  0  0  0  0  0  0  0  0  0  0
  2  1  1  6
  2  3  1  0
  3  4  1  0
  4  5  2  0
  5  6  1  0
  7  6  2  0
  8  7  1  0
  9  4  1  0
  9  8  2  0
 10 14  1  0
 10  2  1  0
 11 10  2  0
 13 12  1  1
 13 14  1  0
 15 13  1  0
 15 17  1  0
 16 15  2  0
 18 17  1  0
 18 19  1  0
 19 21  1  0
 20 19  2  0
M  END
$$$$
