IAE.pdb
     RDKit          3D

 23 22  0  0  1  0  0  0  0  0999 V2000
   23.6796  -14.6865  -14.4823 C   0  0  0  0  0  0  0  0  0  0  0  0
   23.2772  -14.5946  -15.9181 C   0  0  0  0  0  0  0  0  0  0  0  0
   22.6890  -13.2768  -16.3292 C   0  0  2  0  0  0  0  0  0  0  0  0
   21.3717  -13.1406  -15.5571 C   0  0  0  0  0  0  0  0  0  0  0  0
   22.3782  -13.2002  -17.7923 C   0  0  2  0  0  0  0  0  0  0  0  0
   23.4721  -13.5208  -18.6647 N   0  0  0  0  0  0  0  0  0  0  0  0
   21.8978  -11.8352  -18.1104 C   0  0  0  0  0  0  0  0  0  0  0  0
   22.6721  -10.8573  -17.9271 O   0  0  0  0  0  0  0  0  0  0  0  0
   18.9528  -10.2409  -19.9084 C   0  0  0  0  0  0  0  0  0  0  0  0
   20.1218  -10.2823  -18.9715 C   0  0  2  0  0  0  0  0  0  0  0  0
   20.5894  -11.5837  -18.6163 N   0  0  0  0  0  0  0  0  0  0  0  0
   19.7920   -9.5266  -17.7021 C   0  0  0  0  0  0  0  0  0  0  0  0
   19.2771  -10.1595  -16.7553 O   0  0  0  0  0  0  0  0  0  0  0  0
   20.0723   -8.1549  -17.6421 N   0  0  0  0  0  0  0  0  0  0  0  0
   19.8117   -7.3518  -16.4388 C   0  0  1  0  0  0  0  0  0  0  0  0
   21.0834   -6.8813  -15.8408 C   0  0  0  0  0  0  0  0  0  0  0  0
   20.9628   -5.9607  -14.6698 C   0  0  0  0  0  0  0  0  0  0  0  0
   22.2927   -5.4995  -14.1892 C   0  0  0  0  0  0  0  0  0  0  0  0
   23.3405   -5.8454  -14.7888 O   0  0  0  0  0  0  0  0  0  0  0  0
   18.8110   -6.3050  -16.7388 C   0  0  0  0  0  0  0  0  0  0  0  0
   17.9772   -5.7177  -15.8130 O   0  0  0  0  0  0  0  0  0  0  0  0
   22.4550   -4.6670  -13.0658 O   0  0  0  0  0  0  0  0  0  0  0  0
   18.7013   -5.9068  -17.9454 O   0  0  0  0  0  0  0  0  0  0  0  0
  1  2  1  0
  2  3  1  0
  3  4  1  1
  3  5  1  0
  5  7  1  0
  5  6  1  6
  7  8  2  0
 10  9  1  6
 10 12  1  0
 11 10  1  0
 11  7  1  0
 12 13  2  0
 12 14  1  0
 14 15  1  0
 15 16  1  6
 16 17  1  0
 18 22  1  0
 18 17  1  0
 19 18  2  0
 20 15  1  0
 20 21  1  0
 23 20  2  0
M  END
$$$$
