IAE.pdb
     RDKit          3D

 23 22  0  0  1  0  0  0  0  0999 V2000
   25.4731  -16.5899  -16.1498 C   0  0  0  0  0  0  0  0  0  0  0  0
   24.1592  -16.0341  -15.7064 C   0  0  0  0  0  0  0  0  0  0  0  0
   23.8927  -14.6197  -16.1309 C   0  0  2  0  0  0  0  0  0  0  0  0
   24.8917  -13.7497  -15.3594 C   0  0  0  0  0  0  0  0  0  0  0  0
   22.5115  -14.1517  -15.7900 C   0  0  2  0  0  0  0  0  0  0  0  0
   21.4509  -15.0136  -16.2291 N   0  0  0  0  0  0  0  0  0  0  0  0
   22.3037  -12.8046  -16.3708 C   0  0  0  0  0  0  0  0  0  0  0  0
   23.2022  -11.9321  -16.2258 O   0  0  0  0  0  0  0  0  0  0  0  0
   19.6471  -10.9671  -18.4144 C   0  0  0  0  0  0  0  0  0  0  0  0
   20.8089  -11.1187  -17.4798 C   0  0  2  0  0  0  0  0  0  0  0  0
   21.1231  -12.4553  -17.0886 N   0  0  0  0  0  0  0  0  0  0  0  0
   20.5774  -10.2940  -16.2318 C   0  0  0  0  0  0  0  0  0  0  0  0
   20.1373  -10.8727  -15.2152 O   0  0  0  0  0  0  0  0  0  0  0  0
   20.8606   -8.9221  -16.2683 N   0  0  0  0  0  0  0  0  0  0  0  0
   20.6582   -8.0470  -15.1046 C   0  0  1  0  0  0  0  0  0  0  0  0
   21.5509   -6.8663  -15.1788 C   0  0  0  0  0  0  0  0  0  0  0  0
   21.4813   -5.9115  -14.0313 C   0  0  0  0  0  0  0  0  0  0  0  0
   22.4284   -4.7767  -14.1974 C   0  0  0  0  0  0  0  0  0  0  0  0
   23.2309   -4.7545  -15.1631 O   0  0  0  0  0  0  0  0  0  0  0  0
   19.2174   -7.7597  -14.9350 C   0  0  0  0  0  0  0  0  0  0  0  0
   18.5843   -7.5712  -13.7263 O   0  0  0  0  0  0  0  0  0  0  0  0
   22.4806   -3.6859  -13.3093 O   0  0  0  0  0  0  0  0  0  0  0  0
   18.4937   -7.6782  -15.9819 O   0  0  0  0  0  0  0  0  0  0  0  0
  1  2  1  0
  2  3  1  0
  3  4  1  1
  3  5  1  0
  5  7  1  0
  5  6  1  6
  7  8  2  0
 10  9  1  6
 10 12  1  0
 11 10  1  0
 11  7  1  0
 12 13  2  0
 12 14  1  0
 14 15  1  0
 15 16  1  6
 16 17  1  0
 18 22  1  0
 18 17  1  0
 19 18  2  0
 20 15  1  0
 20 21  1  0
 23 20  2  0
M  END
$$$$
