IAE.pdb
     RDKit          3D

 23 22  0  0  1  0  0  0  0  0999 V2000
   24.8790  -13.3404  -15.6476 C   0  0  0  0  0  0  0  0  0  0  0  0
   24.2855  -12.7129  -16.8664 C   0  0  0  0  0  0  0  0  0  0  0  0
   23.4803  -11.4722  -16.6132 C   0  0  2  0  0  0  0  0  0  0  0  0
   24.1280  -10.7849  -15.4056 C   0  0  0  0  0  0  0  0  0  0  0  0
   22.0499  -11.7565  -16.2719 C   0  0  2  0  0  0  0  0  0  0  0  0
   21.3247  -12.5023  -17.2610 N   0  0  0  0  0  0  0  0  0  0  0  0
   21.3491  -10.4733  -16.0323 C   0  0  0  0  0  0  0  0  0  0  0  0
   21.4823   -9.5395  -16.8688 O   0  0  0  0  0  0  0  0  0  0  0  0
   18.7942   -9.0466  -13.5885 C   0  0  0  0  0  0  0  0  0  0  0  0
   19.8922   -9.0055  -14.6076 C   0  0  2  0  0  0  0  0  0  0  0  0
   20.5282  -10.2524  -14.8884 N   0  0  0  0  0  0  0  0  0  0  0  0
   20.9509   -8.0099  -14.1847 C   0  0  0  0  0  0  0  0  0  0  0  0
   22.0609   -8.4499  -13.8153 O   0  0  0  0  0  0  0  0  0  0  0  0
   20.6437   -6.6432  -14.2205 N   0  0  0  0  0  0  0  0  0  0  0  0
   21.6835   -5.6054  -14.2735 C   0  0  1  0  0  0  0  0  0  0  0  0
   22.3835   -5.6352  -15.5795 C   0  0  0  0  0  0  0  0  0  0  0  0
   23.4760   -4.6330  -15.7672 C   0  0  0  0  0  0  0  0  0  0  0  0
   24.0804   -4.7208  -17.1235 C   0  0  0  0  0  0  0  0  0  0  0  0
   23.7267   -5.6250  -17.9199 O   0  0  0  0  0  0  0  0  0  0  0  0
   21.1136   -4.3004  -13.8740 C   0  0  0  0  0  0  0  0  0  0  0  0
   21.8054   -3.2974  -13.2315 O   0  0  0  0  0  0  0  0  0  0  0  0
   25.0567   -3.8190  -17.5871 O   0  0  0  0  0  0  0  0  0  0  0  0
   19.8869   -4.0742  -14.1389 O   0  0  0  0  0  0  0  0  0  0  0  0
  1  2  1  0
  2  3  1  0
  3  4  1  1
  3  5  1  0
  5  7  1  0
  5  6  1  6
  7  8  2  0
 10  9  1  1
 10 12  1  0
 11 10  1  0
 11  7  1  0
 12 13  2  0
 12 14  1  0
 14 15  1  0
 15 16  1  6
 16 17  1  0
 18 22  1  0
 18 17  1  0
 19 18  2  0
 20 15  1  0
 20 21  1  0
 23 20  2  0
M  END
$$$$
