IAE.pdb
     RDKit          3D

 23 22  0  0  1  0  0  0  0  0999 V2000
   25.8730  -20.6953   -5.8795 C   0  0  0  0  0  0  0  0  0  0  0  0
   26.6958  -19.9938   -6.9102 C   0  0  0  0  0  0  0  0  0  0  0  0
   26.1845  -20.1088   -8.3163 C   0  0  2  0  0  0  0  0  0  0  0  0
   26.2190  -21.6024   -8.6597 C   0  0  0  0  0  0  0  0  0  0  0  0
   27.0347  -19.3846   -9.3143 C   0  0  2  0  0  0  0  0  0  0  0  0
   27.1617  -17.9717   -9.0944 N   0  0  0  0  0  0  0  0  0  0  0  0
   26.4807  -19.6091  -10.6700 C   0  0  0  0  0  0  0  0  0  0  0  0
   25.3291  -19.1722  -10.9389 O   0  0  0  0  0  0  0  0  0  0  0  0
   27.7302  -20.9471  -14.0209 C   0  0  0  0  0  0  0  0  0  0  0  0
   26.7290  -20.4458  -13.0248 C   0  0  2  0  0  0  0  0  0  0  0  0
   27.2012  -20.3031  -11.6850 N   0  0  0  0  0  0  0  0  0  0  0  0
   25.5157  -21.3508  -13.0134 C   0  0  0  0  0  0  0  0  0  0  0  0
   25.5149  -22.3270  -12.2330 O   0  0  0  0  0  0  0  0  0  0  0  0
   24.4505  -21.0610  -13.8765 N   0  0  0  0  0  0  0  0  0  0  0  0
   23.2035  -21.8394  -13.8742 C   0  0  1  0  0  0  0  0  0  0  0  0
   22.3485  -21.4507  -12.7279 C   0  0  0  0  0  0  0  0  0  0  0  0
   21.3868  -20.3326  -12.9694 C   0  0  0  0  0  0  0  0  0  0  0  0
   20.1140  -20.5269  -12.2246 C   0  0  0  0  0  0  0  0  0  0  0  0
   19.8453  -21.6375  -11.7037 O   0  0  0  0  0  0  0  0  0  0  0  0
   22.5671  -21.7751  -15.2077 C   0  0  0  0  0  0  0  0  0  0  0  0
   21.6683  -22.6946  -15.7016 O   0  0  0  0  0  0  0  0  0  0  0  0
   19.1596  -19.5055  -12.0589 O   0  0  0  0  0  0  0  0  0  0  0  0
   22.8661  -20.7970  -15.9696 O   0  0  0  0  0  0  0  0  0  0  0  0
  1  2  1  0
  2  3  1  0
  3  4  1  6
  3  5  1  0
  5  7  1  0
  5  6  1  1
  7  8  2  0
 10  9  1  6
 10 12  1  0
 11 10  1  0
 11  7  1  0
 12 13  2  0
 12 14  1  0
 14 15  1  0
 15 16  1  1
 16 17  1  0
 18 22  1  0
 18 17  1  0
 19 18  2  0
 20 15  1  0
 20 21  1  0
 23 20  2  0
M  END
$$$$
