IAE.pdb
     RDKit          3D

 23 22  0  0  1  0  0  0  0  0999 V2000
   29.4886  -11.4177  -17.1913 C   0  0  0  0  0  0  0  0  0  0  0  0
   28.2473  -12.1696  -16.8373 C   0  0  0  0  0  0  0  0  0  0  0  0
   27.0133  -11.3272  -16.6976 C   0  0  2  0  0  0  0  0  0  0  0  0
   27.2477  -10.4304  -15.4765 C   0  0  0  0  0  0  0  0  0  0  0  0
   25.7746  -12.1319  -16.4500 C   0  0  2  0  0  0  0  0  0  0  0  0
   25.5309  -13.1816  -17.3983 N   0  0  0  0  0  0  0  0  0  0  0  0
   24.6057  -11.2216  -16.4344 C   0  0  0  0  0  0  0  0  0  0  0  0
   24.3585  -10.5278  -17.4576 O   0  0  0  0  0  0  0  0  0  0  0  0
   21.5701  -10.5637  -14.2434 C   0  0  0  0  0  0  0  0  0  0  0  0
   22.6110  -10.2352  -15.2703 C   0  0  2  0  0  0  0  0  0  0  0  0
   23.7476  -11.0984  -15.3032 N   0  0  0  0  0  0  0  0  0  0  0  0
   23.0925   -8.8129  -15.0796 C   0  0  0  0  0  0  0  0  0  0  0  0
   24.2177   -8.6347  -14.5655 O   0  0  0  0  0  0  0  0  0  0  0  0
   22.2599   -7.7598  -15.4812 N   0  0  0  0  0  0  0  0  0  0  0  0
   22.6898   -6.3550  -15.4294 C   0  0  1  0  0  0  0  0  0  0  0  0
   22.9594   -5.8418  -16.7933 C   0  0  0  0  0  0  0  0  0  0  0  0
   23.4286   -4.4260  -16.8864 C   0  0  0  0  0  0  0  0  0  0  0  0
   23.6247   -3.9998  -18.2979 C   0  0  0  0  0  0  0  0  0  0  0  0
   23.8465   -2.7948  -18.5733 O   0  0  0  0  0  0  0  0  0  0  0  0
   21.7377   -5.5665  -14.6175 C   0  0  0  0  0  0  0  0  0  0  0  0
   20.3687   -5.7180  -14.6328 O   0  0  0  0  0  0  0  0  0  0  0  0
   23.5785   -4.8960  -19.3825 O   0  0  0  0  0  0  0  0  0  0  0  0
   22.2085   -4.6730  -13.8388 O   0  0  0  0  0  0  0  0  0  0  0  0
  1  2  1  0
  2  3  1  0
  3  4  1  1
  3  5  1  0
  5  7  1  0
  5  6  1  6
  7  8  2  0
 10  9  1  1
 10 12  1  0
 11 10  1  0
 11  7  1  0
 12 13  2  0
 12 14  1  0
 14 15  1  0
 15 16  1  6
 16 17  1  0
 18 22  1  0
 18 17  1  0
 19 18  2  0
 20 15  1  0
 20 21  1  0
 23 20  2  0
M  END
$$$$
