IAE.pdb
     RDKit          3D

 23 22  0  0  1  0  0  0  0  0999 V2000
   15.1870  -11.2342  -17.4527 C   0  0  0  0  0  0  0  0  0  0  0  0
   16.5328  -11.8707  -17.3300 C   0  0  0  0  0  0  0  0  0  0  0  0
   17.5358  -11.0862  -16.5359 C   0  0  2  0  0  0  0  0  0  0  0  0
   17.8467   -9.8339  -17.3637 C   0  0  0  0  0  0  0  0  0  0  0  0
   18.8197  -11.8246  -16.3132 C   0  0  2  0  0  0  0  0  0  0  0  0
   18.6805  -13.1197  -15.7100 N   0  0  0  0  0  0  0  0  0  0  0  0
   19.7094  -10.9963  -15.4662 C   0  0  0  0  0  0  0  0  0  0  0  0
   19.2267  -10.4221  -14.4528 O   0  0  0  0  0  0  0  0  0  0  0  0
   23.4132  -10.1115  -15.2357 C   0  0  0  0  0  0  0  0  0  0  0  0
   21.9401   -9.9285  -15.0296 C   0  0  2  0  0  0  0  0  0  0  0  0
   21.0942  -10.8218  -15.7540 N   0  0  0  0  0  0  0  0  0  0  0  0
   21.5444   -8.5080  -15.3712 C   0  0  0  0  0  0  0  0  0  0  0  0
   20.9605   -8.3029  -16.4570 O   0  0  0  0  0  0  0  0  0  0  0  0
   21.8509   -7.4859  -14.4629 N   0  0  0  0  0  0  0  0  0  0  0  0
   21.5007   -6.0805  -14.7143 C   0  0  1  0  0  0  0  0  0  0  0  0
   20.0334   -5.9260  -14.8543 C   0  0  0  0  0  0  0  0  0  0  0  0
   19.5247   -4.5264  -14.9792 C   0  0  0  0  0  0  0  0  0  0  0  0
   18.0390   -4.4804  -15.0333 C   0  0  0  0  0  0  0  0  0  0  0  0
   17.3684   -5.5417  -15.0005 O   0  0  0  0  0  0  0  0  0  0  0  0
   22.1501   -5.2119  -13.7087 C   0  0  0  0  0  0  0  0  0  0  0  0
   22.4356   -3.8756  -13.8824 O   0  0  0  0  0  0  0  0  0  0  0  0
   17.3122   -3.2779  -15.1187 O   0  0  0  0  0  0  0  0  0  0  0  0
   22.4766   -5.7288  -12.5895 O   0  0  0  0  0  0  0  0  0  0  0  0
  1  2  1  0
  2  3  1  0
  3  4  1  6
  3  5  1  0
  5  7  1  0
  5  6  1  1
  7  8  2  0
 10  9  1  6
 10 12  1  0
 11 10  1  0
 11  7  1  0
 12 13  2  0
 12 14  1  0
 14 15  1  0
 15 16  1  1
 16 17  1  0
 18 22  1  0
 18 17  1  0
 19 18  2  0
 20 15  1  0
 20 21  1  0
 23 20  2  0
M  END
$$$$
