IAE.pdb
     RDKit          3D

 23 22  0  0  1  0  0  0  0  0999 V2000
   15.6322  -13.3892  -18.4668 C   0  0  0  0  0  0  0  0  0  0  0  0
   16.9561  -14.0792  -18.5203 C   0  0  0  0  0  0  0  0  0  0  0  0
   18.1099  -13.2804  -17.9887 C   0  0  2  0  0  0  0  0  0  0  0  0
   18.2893  -12.1013  -18.9518 C   0  0  0  0  0  0  0  0  0  0  0  0
   19.3943  -14.0500  -17.9546 C   0  0  2  0  0  0  0  0  0  0  0  0
   19.3765  -15.2283  -17.1350 N   0  0  0  0  0  0  0  0  0  0  0  0
   20.4775  -13.1561  -17.4826 C   0  0  0  0  0  0  0  0  0  0  0  0
   20.4315  -12.7110  -16.3039 O   0  0  0  0  0  0  0  0  0  0  0  0
   23.8810  -11.9520  -18.6869 C   0  0  0  0  0  0  0  0  0  0  0  0
   22.6164  -11.9028  -17.8842 C   0  0  2  0  0  0  0  0  0  0  0  0
   21.5725  -12.7776  -18.3124 N   0  0  0  0  0  0  0  0  0  0  0  0
   22.0778  -10.4885  -17.8568 C   0  0  0  0  0  0  0  0  0  0  0  0
   21.2019  -10.1743  -18.6911 O   0  0  0  0  0  0  0  0  0  0  0  0
   22.5836   -9.5929  -16.9051 N   0  0  0  0  0  0  0  0  0  0  0  0
   22.0689   -8.2232  -16.7639 C   0  0  1  0  0  0  0  0  0  0  0  0
   22.2966   -7.7200  -15.3887 C   0  0  0  0  0  0  0  0  0  0  0  0
   21.8835   -6.3084  -15.1241 C   0  0  0  0  0  0  0  0  0  0  0  0
   22.1944   -5.8929  -13.7302 C   0  0  0  0  0  0  0  0  0  0  0  0
   21.6281   -6.4519  -12.7587 O   0  0  0  0  0  0  0  0  0  0  0  0
   22.5886   -7.3746  -17.8581 C   0  0  0  0  0  0  0  0  0  0  0  0
   21.9263   -6.3002  -18.4100 O   0  0  0  0  0  0  0  0  0  0  0  0
   23.1195   -4.8777  -13.4215 O   0  0  0  0  0  0  0  0  0  0  0  0
   23.7381   -7.6490  -18.3371 O   0  0  0  0  0  0  0  0  0  0  0  0
  1  2  1  0
  2  3  1  0
  3  4  1  6
  3  5  1  0
  5  7  1  0
  5  6  1  1
  7  8  2  0
 10  9  1  6
 10 12  1  0
 11 10  1  0
 11  7  1  0
 12 13  2  0
 12 14  1  0
 14 15  1  0
 15 16  1  1
 16 17  1  0
 18 22  1  0
 18 17  1  0
 19 18  2  0
 20 15  1  0
 20 21  1  0
 23 20  2  0
M  END
$$$$
