IAE.pdb
     RDKit          3D

 23 22  0  0  1  0  0  0  0  0999 V2000
   23.1731  -10.1475    8.0047 C   0  0  0  0  0  0  0  0  0  0  0  0
   21.7534  -10.2110    7.5445 C   0  0  0  0  0  0  0  0  0  0  0  0
   20.9762  -11.3930    8.0451 C   0  0  2  0  0  0  0  0  0  0  0  0
   21.6504  -12.6306    7.4418 C   0  0  0  0  0  0  0  0  0  0  0  0
   19.5441  -11.3860    7.6069 C   0  0  2  0  0  0  0  0  0  0  0  0
   18.7405  -10.3377    8.1690 N   0  0  0  0  0  0  0  0  0  0  0  0
   18.9316  -12.6916    7.9464 C   0  0  0  0  0  0  0  0  0  0  0  0
   18.8787  -13.0453    9.1553 O   0  0  0  0  0  0  0  0  0  0  0  0
   16.8842  -15.4200    6.3058 C   0  0  0  0  0  0  0  0  0  0  0  0
   17.9206  -14.8807    7.2445 C   0  0  2  0  0  0  0  0  0  0  0  0
   18.3989  -13.5669    6.9558 N   0  0  0  0  0  0  0  0  0  0  0  0
   19.1045  -15.8221    7.3010 C   0  0  0  0  0  0  0  0  0  0  0  0
   19.9251  -15.7956    6.3587 O   0  0  0  0  0  0  0  0  0  0  0  0
   19.2293  -16.6830    8.3996 N   0  0  0  0  0  0  0  0  0  0  0  0
   20.3711  -17.5954    8.5569 C   0  0  1  0  0  0  0  0  0  0  0  0
   21.1910  -17.2071    9.7288 C   0  0  0  0  0  0  0  0  0  0  0  0
   22.3565  -18.0885   10.0417 C   0  0  0  0  0  0  0  0  0  0  0  0
   23.0546  -17.6624   11.2841 C   0  0  0  0  0  0  0  0  0  0  0  0
   22.5495  -16.7865   12.0288 O   0  0  0  0  0  0  0  0  0  0  0  0
   19.9026  -18.9979    8.5306 C   0  0  0  0  0  0  0  0  0  0  0  0
   20.5574  -20.0403    7.9126 O   0  0  0  0  0  0  0  0  0  0  0  0
   24.2890  -18.2017   11.6929 O   0  0  0  0  0  0  0  0  0  0  0  0
   18.8078  -19.2768    9.1222 O   0  0  0  0  0  0  0  0  0  0  0  0
  1  2  1  0
  2  3  1  0
  3  4  1  6
  3  5  1  0
  5  7  1  0
  5  6  1  1
  7  8  2  0
 10  9  1  6
 10 12  1  0
 11 10  1  0
 11  7  1  0
 12 13  2  0
 12 14  1  0
 14 15  1  0
 15 16  1  1
 16 17  1  0
 18 22  1  0
 18 17  1  0
 19 18  2  0
 20 15  1  0
 20 21  1  0
 23 20  2  0
M  END
$$$$
