IAE.pdb
     RDKit          3D

 23 22  0  0  1  0  0  0  0  0999 V2000
   15.2865  -10.9369  -18.6379 C   0  0  0  0  0  0  0  0  0  0  0  0
   16.3971  -11.6971  -17.9896 C   0  0  0  0  0  0  0  0  0  0  0  0
   17.3808  -10.8577  -17.2283 C   0  0  2  0  0  0  0  0  0  0  0  0
   18.1476  -10.0454  -18.2781 C   0  0  0  0  0  0  0  0  0  0  0  0
   18.3740  -11.6688  -16.4544 C   0  0  2  0  0  0  0  0  0  0  0  0
   17.8047  -12.6227  -15.5453 N   0  0  0  0  0  0  0  0  0  0  0  0
   19.2552  -10.7516  -15.6945 C   0  0  0  0  0  0  0  0  0  0  0  0
   18.7315   -9.8620  -14.9707 O   0  0  0  0  0  0  0  0  0  0  0  0
   22.9669  -10.4011  -14.9040 C   0  0  0  0  0  0  0  0  0  0  0  0
   21.5441   -9.9508  -15.0416 C   0  0  2  0  0  0  0  0  0  0  0  0
   20.6767  -10.8356  -15.7509 N   0  0  0  0  0  0  0  0  0  0  0  0
   21.4955   -8.5926  -15.7079 C   0  0  0  0  0  0  0  0  0  0  0  0
   21.3067   -8.5474  -16.9426 O   0  0  0  0  0  0  0  0  0  0  0  0
   21.6672   -7.4478  -14.9182 N   0  0  0  0  0  0  0  0  0  0  0  0
   21.5870   -6.0899  -15.4755 C   0  0  1  0  0  0  0  0  0  0  0  0
   20.2271   -5.8210  -15.9994 C   0  0  0  0  0  0  0  0  0  0  0  0
   19.1582   -5.5954  -14.9796 C   0  0  0  0  0  0  0  0  0  0  0  0
   17.8702   -5.1957  -15.6072 C   0  0  0  0  0  0  0  0  0  0  0  0
   17.8207   -4.2118  -16.3860 O   0  0  0  0  0  0  0  0  0  0  0  0
   22.1087   -5.1120  -14.4963 C   0  0  0  0  0  0  0  0  0  0  0  0
   22.3753   -3.7875  -14.7647 O   0  0  0  0  0  0  0  0  0  0  0  0
   16.6610   -5.8783  -15.3763 O   0  0  0  0  0  0  0  0  0  0  0  0
   22.3341   -5.5142  -13.3073 O   0  0  0  0  0  0  0  0  0  0  0  0
  1  2  1  0
  2  3  1  0
  3  4  1  6
  3  5  1  0
  5  7  1  0
  5  6  1  1
  7  8  2  0
 10  9  1  6
 10 12  1  0
 11 10  1  0
 11  7  1  0
 12 13  2  0
 12 14  1  0
 14 15  1  0
 15 16  1  1
 16 17  1  0
 18 22  1  0
 18 17  1  0
 19 18  2  0
 20 15  1  0
 20 21  1  0
 23 20  2  0
M  END
$$$$
