IAE.pdb
     RDKit          3D

 23 22  0  0  1  0  0  0  0  0999 V2000
   28.3103  -18.4288  -17.6091 C   0  0  0  0  0  0  0  0  0  0  0  0
   28.9942  -19.4011  -16.7044 C   0  0  0  0  0  0  0  0  0  0  0  0
   28.0779  -20.2141  -15.8377 C   0  0  2  0  0  0  0  0  0  0  0  0
   27.3077  -21.1403  -16.7859 C   0  0  0  0  0  0  0  0  0  0  0  0
   27.0805  -19.3829  -15.0910 C   0  0  2  0  0  0  0  0  0  0  0  0
   27.6431  -18.4554  -14.1509 N   0  0  0  0  0  0  0  0  0  0  0  0
   26.1464  -20.2822  -14.3742 C   0  0  0  0  0  0  0  0  0  0  0  0
   25.4171  -21.0635  -15.0429 O   0  0  0  0  0  0  0  0  0  0  0  0
   25.2609  -21.1647  -10.7638 C   0  0  0  0  0  0  0  0  0  0  0  0
   25.0701  -21.0731  -12.2474 C   0  0  2  0  0  0  0  0  0  0  0  0
   26.0392  -20.2977  -12.9531 N   0  0  0  0  0  0  0  0  0  0  0  0
   23.6949  -20.5220  -12.5572 C   0  0  0  0  0  0  0  0  0  0  0  0
   23.5033  -19.2958  -12.4092 O   0  0  0  0  0  0  0  0  0  0  0  0
   22.6969  -21.4049  -12.9910 N   0  0  0  0  0  0  0  0  0  0  0  0
   21.3260  -20.9599  -13.2803 C   0  0  1  0  0  0  0  0  0  0  0  0
   21.2345  -20.4136  -14.6549 C   0  0  0  0  0  0  0  0  0  0  0  0
   19.8645  -20.0607  -15.1364 C   0  0  0  0  0  0  0  0  0  0  0  0
   19.6084  -18.5978  -15.0528 C   0  0  0  0  0  0  0  0  0  0  0  0
   20.5431  -17.7776  -15.2277 O   0  0  0  0  0  0  0  0  0  0  0  0
   20.3665  -22.0345  -12.9455 C   0  0  0  0  0  0  0  0  0  0  0  0
   19.0942  -21.8361  -12.4565 O   0  0  0  0  0  0  0  0  0  0  0  0
   18.3371  -18.0567  -14.7833 O   0  0  0  0  0  0  0  0  0  0  0  0
   20.7341  -23.2434  -13.1180 O   0  0  0  0  0  0  0  0  0  0  0  0
  1  2  1  0
  2  3  1  0
  3  4  1  6
  3  5  1  0
  5  7  1  0
  5  6  1  1
  7  8  2  0
 10  9  1  1
 10 12  1  0
 11 10  1  0
 11  7  1  0
 12 13  2  0
 12 14  1  0
 14 15  1  0
 15 16  1  6
 16 17  1  0
 18 22  1  0
 18 17  1  0
 19 18  2  0
 20 15  1  0
 20 21  1  0
 23 20  2  0
M  END
$$$$
