IAE.pdb
     RDKit          3D

 23 22  0  0  1  0  0  0  0  0999 V2000
   18.4002  -13.5420  -15.5611 C   0  0  0  0  0  0  0  0  0  0  0  0
   17.1025  -12.8363  -15.7842 C   0  0  0  0  0  0  0  0  0  0  0  0
   17.0177  -11.4610  -15.1900 C   0  0  2  0  0  0  0  0  0  0  0  0
   17.0440  -11.6534  -13.6693 C   0  0  0  0  0  0  0  0  0  0  0  0
   15.7521  -10.7425  -15.5439 C   0  0  2  0  0  0  0  0  0  0  0  0
   15.5072  -10.5979  -16.9509 N   0  0  0  0  0  0  0  0  0  0  0  0
   15.7733   -9.3978  -14.9221 C   0  0  0  0  0  0  0  0  0  0  0  0
   16.5942   -8.5411  -15.3481 O   0  0  0  0  0  0  0  0  0  0  0  0
   13.6785   -7.3074  -12.5614 C   0  0  0  0  0  0  0  0  0  0  0  0
   14.9568   -7.7733  -13.1897 C   0  0  2  0  0  0  0  0  0  0  0  0
   14.8995   -9.0344  -13.8566 N   0  0  0  0  0  0  0  0  0  0  0  0
   16.0529   -7.8299  -12.1473 C   0  0  0  0  0  0  0  0  0  0  0  0
   16.1135   -8.8362  -11.4086 O   0  0  0  0  0  0  0  0  0  0  0  0
   16.9475   -6.7556  -12.0508 N   0  0  0  0  0  0  0  0  0  0  0  0
   18.1085   -6.7787  -11.1495 C   0  0  1  0  0  0  0  0  0  0  0  0
   19.3385   -6.3798  -11.8736 C   0  0  0  0  0  0  0  0  0  0  0  0
   20.5839   -6.2756  -11.0542 C   0  0  0  0  0  0  0  0  0  0  0  0
   21.7200   -5.7263  -11.8416 C   0  0  0  0  0  0  0  0  0  0  0  0
   21.5568   -5.3825  -13.0383 O   0  0  0  0  0  0  0  0  0  0  0  0
   17.8059   -6.0167   -9.9186 C   0  0  0  0  0  0  0  0  0  0  0  0
   18.3867   -6.2352   -8.6889 O   0  0  0  0  0  0  0  0  0  0  0  0
   23.0120   -5.5593  -11.3084 O   0  0  0  0  0  0  0  0  0  0  0  0
   16.9409   -5.0822   -9.9879 O   0  0  0  0  0  0  0  0  0  0  0  0
  1  2  1  0
  2  3  1  0
  3  4  1  1
  3  5  1  0
  5  7  1  0
  5  6  1  6
  7  8  2  0
 10  9  1  1
 10 12  1  0
 11 10  1  0
 11  7  1  0
 12 13  2  0
 12 14  1  0
 14 15  1  0
 15 16  1  6
 16 17  1  0
 18 22  1  0
 18 17  1  0
 19 18  2  0
 20 15  1  0
 20 21  1  0
 23 20  2  0
M  END
$$$$
