IAE.pdb
     RDKit          3D

 23 22  0  0  1  0  0  0  0  0999 V2000
   18.3450  -18.8053  -19.5313 C   0  0  0  0  0  0  0  0  0  0  0  0
   19.7602  -18.3762  -19.7425 C   0  0  0  0  0  0  0  0  0  0  0  0
   20.0786  -16.9866  -19.2742 C   0  0  2  0  0  0  0  0  0  0  0  0
   19.2999  -16.0397  -20.1946 C   0  0  0  0  0  0  0  0  0  0  0  0
   21.5330  -16.6460  -19.3832 C   0  0  2  0  0  0  0  0  0  0  0  0
   22.4168  -17.5090  -18.6520 N   0  0  0  0  0  0  0  0  0  0  0  0
   21.7359  -15.2527  -18.9219 C   0  0  0  0  0  0  0  0  0  0  0  0
   21.4063  -14.9455  -17.7444 O   0  0  0  0  0  0  0  0  0  0  0  0
   23.1547  -11.9883  -20.3273 C   0  0  0  0  0  0  0  0  0  0  0  0
   22.4623  -12.8868  -19.3479 C   0  0  2  0  0  0  0  0  0  0  0  0
   22.2900  -14.2426  -19.7607 N   0  0  0  0  0  0  0  0  0  0  0  0
   21.1060  -12.3156  -18.9940 C   0  0  0  0  0  0  0  0  0  0  0  0
   20.1015  -12.7743  -19.5792 O   0  0  0  0  0  0  0  0  0  0  0  0
   21.0329  -11.2985  -18.0328 N   0  0  0  0  0  0  0  0  0  0  0  0
   19.7647  -10.6490  -17.6713 C   0  0  1  0  0  0  0  0  0  0  0  0
   18.9138  -11.5704  -16.8818 C   0  0  0  0  0  0  0  0  0  0  0  0
   17.6132  -11.0172  -16.3964 C   0  0  0  0  0  0  0  0  0  0  0  0
   16.9090  -11.9683  -15.4954 C   0  0  0  0  0  0  0  0  0  0  0  0
   17.5522  -12.8488  -14.8725 O   0  0  0  0  0  0  0  0  0  0  0  0
   20.0311   -9.3293  -17.0592 C   0  0  0  0  0  0  0  0  0  0  0  0
   19.0813   -8.3608  -16.8202 O   0  0  0  0  0  0  0  0  0  0  0  0
   15.5170  -11.9395  -15.2879 O   0  0  0  0  0  0  0  0  0  0  0  0
   21.2300   -9.0542  -16.7226 O   0  0  0  0  0  0  0  0  0  0  0  0
  1  2  1  0
  2  3  1  0
  3  4  1  6
  3  5  1  0
  5  7  1  0
  5  6  1  1
  7  8  2  0
 10  9  1  6
 10 12  1  0
 11 10  1  0
 11  7  1  0
 12 13  2  0
 12 14  1  0
 14 15  1  0
 15 16  1  1
 16 17  1  0
 18 22  1  0
 18 17  1  0
 19 18  2  0
 20 15  1  0
 20 21  1  0
 23 20  2  0
M  END
$$$$
