IAE.pdb
     RDKit          3D

 23 22  0  0  1  0  0  0  0  0999 V2000
   28.5563  -12.2598  -16.4778 C   0  0  0  0  0  0  0  0  0  0  0  0
   27.1470  -12.7549  -16.4900 C   0  0  0  0  0  0  0  0  0  0  0  0
   26.0976  -11.6822  -16.4985 C   0  0  2  0  0  0  0  0  0  0  0  0
   26.2000  -10.9776  -15.1409 C   0  0  0  0  0  0  0  0  0  0  0  0
   24.7064  -12.2190  -16.6378 C   0  0  2  0  0  0  0  0  0  0  0  0
   24.5007  -13.0941  -17.7570 N   0  0  0  0  0  0  0  0  0  0  0  0
   23.7611  -11.0827  -16.7399 C   0  0  0  0  0  0  0  0  0  0  0  0
   23.9756  -10.1855  -17.5993 O   0  0  0  0  0  0  0  0  0  0  0  0
   20.2696  -10.2529  -15.5228 C   0  0  0  0  0  0  0  0  0  0  0  0
   21.6358   -9.9358  -16.0510 C   0  0  2  0  0  0  0  0  0  0  0  0
   22.6155  -10.9634  -15.9006 N   0  0  0  0  0  0  0  0  0  0  0  0
   22.1595   -8.6731  -15.4011 C   0  0  0  0  0  0  0  0  0  0  0  0
   22.8158   -8.7824  -14.3431 O   0  0  0  0  0  0  0  0  0  0  0  0
   21.8850   -7.4396  -16.0066 N   0  0  0  0  0  0  0  0  0  0  0  0
   22.3562   -6.1660  -15.4437 C   0  0  1  0  0  0  0  0  0  0  0  0
   22.4069   -5.1197  -16.4921 C   0  0  0  0  0  0  0  0  0  0  0  0
   22.8005   -3.7504  -16.0413 C   0  0  0  0  0  0  0  0  0  0  0  0
   22.7578   -2.7671  -17.1565 C   0  0  0  0  0  0  0  0  0  0  0  0
   22.4686   -3.1383  -18.3208 O   0  0  0  0  0  0  0  0  0  0  0  0
   21.5764   -5.8315  -14.2324 C   0  0  0  0  0  0  0  0  0  0  0  0
   20.2730   -6.2114  -13.9995 O   0  0  0  0  0  0  0  0  0  0  0  0
   23.0281   -1.3968  -16.9807 O   0  0  0  0  0  0  0  0  0  0  0  0
   22.1435   -5.1371  -13.3255 O   0  0  0  0  0  0  0  0  0  0  0  0
  1  2  1  0
  2  3  1  0
  3  4  1  1
  3  5  1  0
  5  7  1  0
  5  6  1  6
  7  8  2  0
 10  9  1  1
 10 12  1  0
 11 10  1  0
 11  7  1  0
 12 13  2  0
 12 14  1  0
 14 15  1  0
 15 16  1  6
 16 17  1  0
 18 22  1  0
 18 17  1  0
 19 18  2  0
 20 15  1  0
 20 21  1  0
 23 20  2  0
M  END
$$$$
