IAE.pdb
     RDKit          3D

 23 22  0  0  1  0  0  0  0  0999 V2000
   18.0957  -14.3058  -18.6896 C   0  0  0  0  0  0  0  0  0  0  0  0
   17.8030  -13.2717  -17.6521 C   0  0  0  0  0  0  0  0  0  0  0  0
   18.8308  -13.1549  -16.5649 C   0  0  2  0  0  0  0  0  0  0  0  0
   18.7838  -14.4782  -15.7925 C   0  0  0  0  0  0  0  0  0  0  0  0
   18.5456  -12.0453  -15.6002 C   0  0  2  0  0  0  0  0  0  0  0  0
   17.1910  -11.9809  -15.1295 N   0  0  0  0  0  0  0  0  0  0  0  0
   18.8916  -10.7536  -16.2380 C   0  0  0  0  0  0  0  0  0  0  0  0
   20.0449  -10.6024  -16.7244 O   0  0  0  0  0  0  0  0  0  0  0  0
   17.1596   -7.4759  -17.1458 C   0  0  0  0  0  0  0  0  0  0  0  0
   18.3108   -8.3860  -16.8418 C   0  0  2  0  0  0  0  0  0  0  0  0
   17.9685   -9.6711  -16.3224 N   0  0  0  0  0  0  0  0  0  0  0  0
   19.2585   -7.7124  -15.8727 C   0  0  0  0  0  0  0  0  0  0  0  0
   19.1277   -7.9559  -14.6538 O   0  0  0  0  0  0  0  0  0  0  0  0
   20.2358   -6.8448  -16.3785 N   0  0  0  0  0  0  0  0  0  0  0  0
   21.1650   -6.1136  -15.5052 C   0  0  1  0  0  0  0  0  0  0  0  0
   22.4242   -5.8072  -16.2241 C   0  0  0  0  0  0  0  0  0  0  0  0
   23.4598   -5.0549  -15.4529 C   0  0  0  0  0  0  0  0  0  0  0  0
   24.6201   -4.6797  -16.3047 C   0  0  0  0  0  0  0  0  0  0  0  0
   24.7195   -3.5164  -16.7672 O   0  0  0  0  0  0  0  0  0  0  0  0
   20.4745   -4.9602  -14.8884 C   0  0  0  0  0  0  0  0  0  0  0  0
   19.4818   -4.2177  -15.4889 O   0  0  0  0  0  0  0  0  0  0  0  0
   25.6519   -5.5790  -16.6335 O   0  0  0  0  0  0  0  0  0  0  0  0
   20.8162   -4.6159  -13.7090 O   0  0  0  0  0  0  0  0  0  0  0  0
  1  2  1  0
  2  3  1  0
  3  4  1  1
  3  5  1  0
  5  7  1  0
  5  6  1  6
  7  8  2  0
 10  9  1  1
 10 12  1  0
 11 10  1  0
 11  7  1  0
 12 13  2  0
 12 14  1  0
 14 15  1  0
 15 16  1  6
 16 17  1  0
 18 22  1  0
 18 17  1  0
 19 18  2  0
 20 15  1  0
 20 21  1  0
 23 20  2  0
M  END
$$$$
