DKE.pdb
     RDKit          3D

 27 26  0  0  1  0  0  0  0  0999 V2000
   19.0203  -17.5259  -15.9581 N   0  0  0  0  0  0  0  0  0  0  0  0
   19.4953  -16.5937  -14.9835 C   0  0  1  0  0  0  0  0  0  0  0  0
   20.2090  -17.1761  -13.8171 C   0  0  0  0  0  0  0  0  0  0  0  0
   19.3869  -18.2365  -13.1989 C   0  0  0  0  0  0  0  0  0  0  0  0
   18.3550  -17.8956  -12.5553 O   0  0  0  0  0  0  0  0  0  0  0  0
   20.2320  -15.5026  -15.6809 C   0  0  0  0  0  0  0  0  0  0  0  0
   20.8432  -14.5877  -15.0588 O   0  0  0  0  0  0  0  0  0  0  0  0
   19.6781  -19.5849  -13.2809 O   0  0  0  0  0  0  0  0  0  0  0  0
   20.2926  -15.4184  -17.1204 N   0  0  0  0  0  0  0  0  0  0  0  0
   21.0417  -14.3805  -17.7875 C   0  0  1  0  0  0  0  0  0  0  0  0
   21.4183  -14.7855  -19.1567 C   0  0  0  0  0  0  0  0  0  0  0  0
   22.4349  -15.8476  -19.3308 C   0  0  0  0  0  0  0  0  0  0  0  0
   22.7394  -16.2838  -20.7165 C   0  0  0  0  0  0  0  0  0  0  0  0
   23.7692  -17.4216  -20.6057 C   0  0  0  0  0  0  0  0  0  0  0  0
   23.1380  -18.6428  -20.1804 N   0  0  0  0  0  0  0  0  0  0  0  0
   20.1687  -13.1486  -17.9520 C   0  0  0  0  0  0  0  0  0  0  0  0
   19.0237  -13.3468  -18.4047 O   0  0  0  0  0  0  0  0  0  0  0  0
   20.5949  -11.8503  -17.6233 N   0  0  0  0  0  0  0  0  0  0  0  0
   19.6914  -10.7237  -17.7231 C   0  0  1  0  0  0  0  0  0  0  0  0
   19.0069  -10.3643  -16.4478 C   0  0  0  0  0  0  0  0  0  0  0  0
   18.1469   -9.1595  -16.4590 C   0  0  0  0  0  0  0  0  0  0  0  0
   17.6099   -8.8386  -15.1209 C   0  0  0  0  0  0  0  0  0  0  0  0
   17.9174   -9.5559  -14.1520 O   0  0  0  0  0  0  0  0  0  0  0  0
   20.3988   -9.6071  -18.3524 C   0  0  0  0  0  0  0  0  0  0  0  0
   19.7278   -8.4504  -18.6911 O   0  0  0  0  0  0  0  0  0  0  0  0
   16.7761   -7.7387  -14.9932 O   0  0  0  0  0  0  0  0  0  0  0  0
   21.6245   -9.6975  -18.5871 O   0  0  0  0  0  0  0  0  0  0  0  0
  2  1  1  6
  2  3  1  0
  2  6  1  0
  4  3  1  0
  4  8  1  0
  5  4  2  0
  6  7  2  0
  9  6  1  0
  9 10  1  0
 10 11  1  6
 11 12  1  0
 13 12  1  0
 13 14  1  0
 14 15  1  0
 16 17  2  0
 16 10  1  0
 18 16  1  0
 19 20  1  1
 19 18  1  0
 20 21  1  0
 22 21  1  0
 22 23  2  0
 24 19  1  0
 25 24  1  0
 26 22  1  0
 27 24  2  0
M  END
$$$$
