DKE.pdb
     RDKit          3D

 27 26  0  0  1  0  0  0  0  0999 V2000
   15.5660  -11.6137  -14.7529 N   0  0  0  0  0  0  0  0  0  0  0  0
   16.5813  -11.1604  -13.8540 C   0  0  1  0  0  0  0  0  0  0  0  0
   17.9149  -10.8973  -14.4551 C   0  0  0  0  0  0  0  0  0  0  0  0
   18.4877  -12.1520  -14.9843 C   0  0  0  0  0  0  0  0  0  0  0  0
   17.8334  -13.2213  -14.8293 O   0  0  0  0  0  0  0  0  0  0  0  0
   16.0356  -10.0393  -13.0385 C   0  0  0  0  0  0  0  0  0  0  0  0
   15.5002   -9.0181  -13.5563 O   0  0  0  0  0  0  0  0  0  0  0  0
   19.7009  -12.2294  -15.6414 O   0  0  0  0  0  0  0  0  0  0  0  0
   16.0866  -10.0464  -11.5961 N   0  0  0  0  0  0  0  0  0  0  0  0
   15.5630   -8.9518  -10.8143 C   0  0  1  0  0  0  0  0  0  0  0  0
   14.6904   -9.4378   -9.7268 C   0  0  0  0  0  0  0  0  0  0  0  0
   13.2804   -9.7653  -10.0378 C   0  0  0  0  0  0  0  0  0  0  0  0
   12.4226  -10.2309   -8.9195 C   0  0  0  0  0  0  0  0  0  0  0  0
   10.9954  -10.3578   -9.4800 C   0  0  0  0  0  0  0  0  0  0  0  0
   10.0985  -10.8781   -8.4823 N   0  0  0  0  0  0  0  0  0  0  0  0
   16.7059   -8.2254  -10.1267 C   0  0  0  0  0  0  0  0  0  0  0  0
   17.6641   -8.9355   -9.7624 O   0  0  0  0  0  0  0  0  0  0  0  0
   16.7142   -6.8385   -9.8995 N   0  0  0  0  0  0  0  0  0  0  0  0
   17.9604   -6.1172   -9.7499 C   0  0  1  0  0  0  0  0  0  0  0  0
   18.9565   -6.3717  -10.8302 C   0  0  0  0  0  0  0  0  0  0  0  0
   20.1979   -5.5658  -10.8079 C   0  0  0  0  0  0  0  0  0  0  0  0
   21.0147   -5.7562  -12.0240 C   0  0  0  0  0  0  0  0  0  0  0  0
   21.5697   -4.7728  -12.5463 O   0  0  0  0  0  0  0  0  0  0  0  0
   17.6616   -4.6995   -9.5399 C   0  0  0  0  0  0  0  0  0  0  0  0
   18.4957   -3.9105   -8.7752 O   0  0  0  0  0  0  0  0  0  0  0  0
   21.1343   -7.0362  -12.5422 O   0  0  0  0  0  0  0  0  0  0  0  0
   16.6410   -4.1934  -10.0574 O   0  0  0  0  0  0  0  0  0  0  0  0
  2  1  1  6
  2  3  1  0
  2  6  1  0
  4  3  1  0
  4  8  1  0
  5  4  2  0
  6  7  2  0
  9  6  1  0
  9 10  1  0
 10 11  1  1
 11 12  1  0
 13 12  1  0
 13 14  1  0
 14 15  1  0
 16 17  2  0
 16 10  1  0
 18 16  1  0
 19 20  1  6
 19 18  1  0
 20 21  1  0
 22 21  1  0
 22 23  2  0
 24 19  1  0
 25 24  1  0
 26 22  1  0
 27 24  2  0
M  END
$$$$
