DKE.pdb
     RDKit          3D

 27 26  0  0  1  0  0  0  0  0999 V2000
   23.6786  -11.4505  -17.9901 N   0  0  0  0  0  0  0  0  0  0  0  0
   23.0424  -11.5703  -16.7153 C   0  0  1  0  0  0  0  0  0  0  0  0
   23.8604  -11.1771  -15.5383 C   0  0  0  0  0  0  0  0  0  0  0  0
   25.0861  -11.9994  -15.4766 C   0  0  0  0  0  0  0  0  0  0  0  0
   26.2004  -11.4091  -15.4043 O   0  0  0  0  0  0  0  0  0  0  0  0
   21.7022  -10.9231  -16.7843 C   0  0  0  0  0  0  0  0  0  0  0  0
   21.4957   -9.8507  -17.4206 O   0  0  0  0  0  0  0  0  0  0  0  0
   25.0898  -13.3812  -15.4935 O   0  0  0  0  0  0  0  0  0  0  0  0
   20.5476  -11.4812  -16.1223 N   0  0  0  0  0  0  0  0  0  0  0  0
   19.2633  -10.8232  -16.1561 C   0  0  1  0  0  0  0  0  0  0  0  0
   18.1866  -11.7229  -15.6961 C   0  0  0  0  0  0  0  0  0  0  0  0
   16.8029  -11.2006  -15.6280 C   0  0  0  0  0  0  0  0  0  0  0  0
   16.0794  -11.0086  -16.9098 C   0  0  0  0  0  0  0  0  0  0  0  0
   14.7005  -10.4250  -16.5561 C   0  0  0  0  0  0  0  0  0  0  0  0
   13.8912  -10.2739  -17.7362 N   0  0  0  0  0  0  0  0  0  0  0  0
   19.2637   -9.6567  -15.1834 C   0  0  0  0  0  0  0  0  0  0  0  0
   19.9487   -9.8055  -14.1520 O   0  0  0  0  0  0  0  0  0  0  0  0
   18.5467   -8.4679  -15.4026 N   0  0  0  0  0  0  0  0  0  0  0  0
   18.8584   -7.2644  -14.6611 C   0  0  1  0  0  0  0  0  0  0  0  0
   20.2928   -6.8596  -14.7125 C   0  0  0  0  0  0  0  0  0  0  0  0
   20.6476   -5.5523  -14.1156 C   0  0  0  0  0  0  0  0  0  0  0  0
   22.1015   -5.2936  -14.1500 C   0  0  0  0  0  0  0  0  0  0  0  0
   22.7431   -5.5535  -15.1838 O   0  0  0  0  0  0  0  0  0  0  0  0
   17.9286   -6.2082  -15.0653 C   0  0  0  0  0  0  0  0  0  0  0  0
   17.8438   -5.0330  -14.3479 O   0  0  0  0  0  0  0  0  0  0  0  0
   22.7025   -4.7647  -13.0185 O   0  0  0  0  0  0  0  0  0  0  0  0
   17.2018   -6.3679  -16.0712 O   0  0  0  0  0  0  0  0  0  0  0  0
  2  1  1  6
  2  3  1  0
  2  6  1  0
  4  3  1  0
  4  8  1  0
  5  4  2  0
  6  7  2  0
  9  6  1  0
  9 10  1  0
 10 11  1  1
 11 12  1  0
 13 12  1  0
 13 14  1  0
 14 15  1  0
 16 17  2  0
 16 10  1  0
 18 16  1  0
 19 20  1  6
 19 18  1  0
 20 21  1  0
 22 21  1  0
 22 23  2  0
 24 19  1  0
 25 24  1  0
 26 22  1  0
 27 24  2  0
M  END
$$$$
