DKE.pdb
     RDKit          3D

 27 26  0  0  1  0  0  0  0  0999 V2000
   23.0158  -10.6996  -18.5073 N   0  0  0  0  0  0  0  0  0  0  0  0
   22.3794  -10.8500  -17.2357 C   0  0  1  0  0  0  0  0  0  0  0  0
   23.2441  -10.6426  -16.0448 C   0  0  0  0  0  0  0  0  0  0  0  0
   24.3501  -11.6220  -16.0459 C   0  0  0  0  0  0  0  0  0  0  0  0
   24.3804  -12.4902  -16.9628 O   0  0  0  0  0  0  0  0  0  0  0  0
   21.1179  -10.0574  -17.2328 C   0  0  0  0  0  0  0  0  0  0  0  0
   21.0196   -8.9316  -17.7988 O   0  0  0  0  0  0  0  0  0  0  0  0
   25.3585  -11.6481  -15.1013 O   0  0  0  0  0  0  0  0  0  0  0  0
   19.9208  -10.5262  -16.5768 N   0  0  0  0  0  0  0  0  0  0  0  0
   18.7158   -9.7325  -16.5422 C   0  0  1  0  0  0  0  0  0  0  0  0
   17.5486  -10.5451  -16.1452 C   0  0  0  0  0  0  0  0  0  0  0  0
   16.2283   -9.8855  -16.0286 C   0  0  0  0  0  0  0  0  0  0  0  0
   15.0790  -10.7236  -15.6044 C   0  0  0  0  0  0  0  0  0  0  0  0
   13.8562   -9.7927  -15.5309 C   0  0  0  0  0  0  0  0  0  0  0  0
   13.9984   -8.8455  -14.4571 N   0  0  0  0  0  0  0  0  0  0  0  0
   18.8453   -8.6571  -15.4776 C   0  0  0  0  0  0  0  0  0  0  0  0
   19.5377   -8.9529  -14.4835 O   0  0  0  0  0  0  0  0  0  0  0  0
   18.2350   -7.3949  -15.5762 N   0  0  0  0  0  0  0  0  0  0  0  0
   18.6109   -6.3159  -14.6874 C   0  0  1  0  0  0  0  0  0  0  0  0
   20.0814   -6.1044  -14.5578 C   0  0  0  0  0  0  0  0  0  0  0  0
   20.5292   -4.9585  -13.7346 C   0  0  0  0  0  0  0  0  0  0  0  0
   22.0003   -4.8866  -13.6225 C   0  0  0  0  0  0  0  0  0  0  0  0
   22.6507   -4.2913  -14.5003 O   0  0  0  0  0  0  0  0  0  0  0  0
   17.8692   -5.1123  -15.0679 C   0  0  0  0  0  0  0  0  0  0  0  0
   17.6827   -4.0861  -14.1652 O   0  0  0  0  0  0  0  0  0  0  0  0
   22.6071   -5.4900  -12.5321 O   0  0  0  0  0  0  0  0  0  0  0  0
   17.3983   -5.0083  -16.2225 O   0  0  0  0  0  0  0  0  0  0  0  0
  2  1  1  6
  2  3  1  0
  2  6  1  0
  4  3  1  0
  4  8  1  0
  5  4  2  0
  6  7  2  0
  9  6  1  0
  9 10  1  0
 10 11  1  1
 11 12  1  0
 13 12  1  0
 13 14  1  0
 14 15  1  0
 16 17  2  0
 16 10  1  0
 18 16  1  0
 19 20  1  6
 19 18  1  0
 20 21  1  0
 22 21  1  0
 22 23  2  0
 24 19  1  0
 25 24  1  0
 26 22  1  0
 27 24  2  0
M  END
$$$$
