DKE.pdb
     RDKit          3D

 27 26  0  0  1  0  0  0  0  0999 V2000
   16.7136  -20.5593    1.4437 N   0  0  0  0  0  0  0  0  0  0  0  0
   16.4703  -20.6867    2.8469 C   0  0  1  0  0  0  0  0  0  0  0  0
   16.7666  -22.0159    3.4425 C   0  0  0  0  0  0  0  0  0  0  0  0
   16.0849  -23.0778    2.6742 C   0  0  0  0  0  0  0  0  0  0  0  0
   15.4776  -22.7548    1.6149 O   0  0  0  0  0  0  0  0  0  0  0  0
   17.1025  -19.5359    3.5508 C   0  0  0  0  0  0  0  0  0  0  0  0
   18.2326  -19.0745    3.2229 O   0  0  0  0  0  0  0  0  0  0  0  0
   16.0698  -24.4091    3.0443 O   0  0  0  0  0  0  0  0  0  0  0  0
   16.4624  -18.8723    4.6611 N   0  0  0  0  0  0  0  0  0  0  0  0
   17.0333  -17.6955    5.2715 C   0  0  1  0  0  0  0  0  0  0  0  0
   16.0091  -16.6556    5.4948 C   0  0  0  0  0  0  0  0  0  0  0  0
   16.2726  -15.2813    5.0112 C   0  0  0  0  0  0  0  0  0  0  0  0
   15.2134  -14.2641    5.2278 C   0  0  0  0  0  0  0  0  0  0  0  0
   15.7303  -12.9504    4.6162 C   0  0  0  0  0  0  0  0  0  0  0  0
   14.7333  -11.9169    4.7072 N   0  0  0  0  0  0  0  0  0  0  0  0
   17.5669  -18.0453    6.6498 C   0  0  0  0  0  0  0  0  0  0  0  0
   17.3635  -19.2142    7.0340 O   0  0  0  0  0  0  0  0  0  0  0  0
   18.2525  -17.1309    7.4677 N   0  0  0  0  0  0  0  0  0  0  0  0
   18.7777  -17.5337    8.7551 C   0  0  1  0  0  0  0  0  0  0  0  0
   19.9022  -18.5108    8.6866 C   0  0  0  0  0  0  0  0  0  0  0  0
   20.5522  -18.8833    9.9634 C   0  0  0  0  0  0  0  0  0  0  0  0
   21.7106  -19.7782    9.7654 C   0  0  0  0  0  0  0  0  0  0  0  0
   22.2715  -20.2786   10.7568 O   0  0  0  0  0  0  0  0  0  0  0  0
   19.0810  -16.3333    9.5364 C   0  0  0  0  0  0  0  0  0  0  0  0
   19.4305  -16.4298   10.8674 O   0  0  0  0  0  0  0  0  0  0  0  0
   22.1330  -20.0304    8.4695 O   0  0  0  0  0  0  0  0  0  0  0  0
   19.0246  -15.2061    8.9961 O   0  0  0  0  0  0  0  0  0  0  0  0
  2  1  1  6
  2  3  1  0
  2  6  1  0
  4  3  1  0
  4  8  1  0
  5  4  2  0
  6  7  2  0
  9  6  1  0
  9 10  1  0
 10 11  1  1
 11 12  1  0
 13 12  1  0
 13 14  1  0
 14 15  1  0
 16 17  2  0
 16 10  1  0
 18 16  1  0
 19 20  1  6
 19 18  1  0
 20 21  1  0
 22 21  1  0
 22 23  2  0
 24 19  1  0
 25 24  1  0
 26 22  1  0
 27 24  2  0
M  END
$$$$
