DKE.pdb
     RDKit          3D

 27 26  0  0  1  0  0  0  0  0999 V2000
   18.2755  -12.3296  -14.9069 N   0  0  0  0  0  0  0  0  0  0  0  0
   17.8849  -11.3730  -15.8952 C   0  0  1  0  0  0  0  0  0  0  0  0
   16.7761  -11.7818  -16.7966 C   0  0  0  0  0  0  0  0  0  0  0  0
   16.9388  -13.1967  -17.1892 C   0  0  0  0  0  0  0  0  0  0  0  0
   17.8999  -13.8492  -16.6932 O   0  0  0  0  0  0  0  0  0  0  0  0
   17.6934  -10.0511  -15.2352 C   0  0  0  0  0  0  0  0  0  0  0  0
   17.3803   -9.0083  -15.8773 O   0  0  0  0  0  0  0  0  0  0  0  0
   16.1011  -13.8542  -18.0699 O   0  0  0  0  0  0  0  0  0  0  0  0
   17.8573   -9.8750  -13.8122 N   0  0  0  0  0  0  0  0  0  0  0  0
   17.7098   -8.5825  -13.1869 C   0  0  1  0  0  0  0  0  0  0  0  0
   17.1632   -8.7060  -11.8208 C   0  0  0  0  0  0  0  0  0  0  0  0
   16.8941   -7.4724  -11.0474 C   0  0  0  0  0  0  0  0  0  0  0  0
   16.3013   -7.6272   -9.6954 C   0  0  0  0  0  0  0  0  0  0  0  0
   15.9815   -6.2104   -9.1880 C   0  0  0  0  0  0  0  0  0  0  0  0
   15.2431   -6.2638   -7.9541 N   0  0  0  0  0  0  0  0  0  0  0  0
   19.0752   -7.9377  -13.0233 C   0  0  0  0  0  0  0  0  0  0  0  0
   19.9782   -8.6752  -12.5809 O   0  0  0  0  0  0  0  0  0  0  0  0
   19.3383   -6.5944  -13.3422 N   0  0  0  0  0  0  0  0  0  0  0  0
   20.6934   -6.1335  -13.5587 C   0  0  1  0  0  0  0  0  0  0  0  0
   20.9933   -5.7305  -14.9628 C   0  0  0  0  0  0  0  0  0  0  0  0
   22.2977   -5.0774  -15.2143 C   0  0  0  0  0  0  0  0  0  0  0  0
   22.4726   -4.6956  -16.6305 C   0  0  0  0  0  0  0  0  0  0  0  0
   21.6166   -5.0397  -17.4653 O   0  0  0  0  0  0  0  0  0  0  0  0
   21.0046   -5.1035  -12.5660 C   0  0  0  0  0  0  0  0  0  0  0  0
   22.3026   -4.9018  -12.1447 O   0  0  0  0  0  0  0  0  0  0  0  0
   23.5943   -3.9599  -16.9798 O   0  0  0  0  0  0  0  0  0  0  0  0
   20.0878   -4.3959  -12.0923 O   0  0  0  0  0  0  0  0  0  0  0  0
  2  1  1  1
  2  3  1  0
  2  6  1  0
  4  3  1  0
  4  8  1  0
  5  4  2  0
  6  7  2  0
  9  6  1  0
  9 10  1  0
 10 11  1  1
 11 12  1  0
 13 12  1  0
 13 14  1  0
 14 15  1  0
 16 17  2  0
 16 10  1  0
 18 16  1  0
 19 20  1  6
 19 18  1  0
 20 21  1  0
 22 21  1  0
 22 23  2  0
 24 19  1  0
 25 24  1  0
 26 22  1  0
 27 24  2  0
M  END
$$$$
