DKE.pdb
     RDKit          3D

 27 26  0  0  1  0  0  0  0  0999 V2000
   16.5882  -15.0875  -16.6469 N   0  0  0  0  0  0  0  0  0  0  0  0
   17.1686  -14.3259  -15.5851 C   0  0  1  0  0  0  0  0  0  0  0  0
   18.5244  -14.7473  -15.1454 C   0  0  0  0  0  0  0  0  0  0  0  0
   18.4769  -16.1217  -14.6058 C   0  0  0  0  0  0  0  0  0  0  0  0
   17.5341  -16.4251  -13.8217 O   0  0  0  0  0  0  0  0  0  0  0  0
   17.0430  -12.8770  -15.9083 C   0  0  0  0  0  0  0  0  0  0  0  0
   17.6908  -12.3296  -16.8454 O   0  0  0  0  0  0  0  0  0  0  0  0
   19.4042  -17.1011  -14.9065 O   0  0  0  0  0  0  0  0  0  0  0  0
   16.1703  -11.9998  -15.1654 N   0  0  0  0  0  0  0  0  0  0  0  0
   15.9895  -10.6173  -15.5387 C   0  0  1  0  0  0  0  0  0  0  0  0
   14.7281  -10.0748  -14.9956 C   0  0  0  0  0  0  0  0  0  0  0  0
   14.3716   -8.6688  -15.2923 C   0  0  0  0  0  0  0  0  0  0  0  0
   13.1026   -8.1494  -14.7239 C   0  0  0  0  0  0  0  0  0  0  0  0
   12.9445   -6.7083  -15.2390 C   0  0  0  0  0  0  0  0  0  0  0  0
   11.6867   -6.1500  -14.8185 N   0  0  0  0  0  0  0  0  0  0  0  0
   17.0940   -9.7757  -14.9233 C   0  0  0  0  0  0  0  0  0  0  0  0
   17.3884  -10.0406  -13.7408 O   0  0  0  0  0  0  0  0  0  0  0  0
   17.7637   -8.7532  -15.6171 N   0  0  0  0  0  0  0  0  0  0  0  0
   18.8403   -8.0133  -14.9934 C   0  0  1  0  0  0  0  0  0  0  0  0
   20.1664   -8.1724  -15.6569 C   0  0  0  0  0  0  0  0  0  0  0  0
   21.2989   -7.4012  -15.0966 C   0  0  0  0  0  0  0  0  0  0  0  0
   22.5350   -7.5595  -15.8898 C   0  0  0  0  0  0  0  0  0  0  0  0
   22.9112   -8.7008  -16.2120 O   0  0  0  0  0  0  0  0  0  0  0  0
   18.4214   -6.6201  -14.8303 C   0  0  0  0  0  0  0  0  0  0  0  0
   17.4537   -6.0759  -15.6490 O   0  0  0  0  0  0  0  0  0  0  0  0
   23.2358   -6.4191  -16.2501 O   0  0  0  0  0  0  0  0  0  0  0  0
   18.9429   -5.9116  -13.9404 O   0  0  0  0  0  0  0  0  0  0  0  0
  2  1  1  6
  2  3  1  0
  2  6  1  0
  4  3  1  0
  4  8  1  0
  5  4  2  0
  6  7  2  0
  9  6  1  0
  9 10  1  0
 10 11  1  1
 11 12  1  0
 13 12  1  0
 13 14  1  0
 14 15  1  0
 16 17  2  0
 16 10  1  0
 18 16  1  0
 19 20  1  6
 19 18  1  0
 20 21  1  0
 22 21  1  0
 22 23  2  0
 24 19  1  0
 25 24  1  0
 26 22  1  0
 27 24  2  0
M  END
$$$$
