DKE.pdb
     RDKit          3D

 27 26  0  0  1  0  0  0  0  0999 V2000
   20.9422  -12.1394  -16.7770 N   0  0  0  0  0  0  0  0  0  0  0  0
   20.3146  -11.2681  -15.8330 C   0  0  1  0  0  0  0  0  0  0  0  0
   19.5742  -11.9292  -14.7267 C   0  0  0  0  0  0  0  0  0  0  0  0
   18.4689  -12.7430  -15.2731 C   0  0  0  0  0  0  0  0  0  0  0  0
   17.8703  -12.3251  -16.3038 O   0  0  0  0  0  0  0  0  0  0  0  0
   21.3029  -10.2435  -15.3937 C   0  0  0  0  0  0  0  0  0  0  0  0
   21.1363   -9.5358  -14.3597 O   0  0  0  0  0  0  0  0  0  0  0  0
   18.0468  -13.9388  -14.7239 O   0  0  0  0  0  0  0  0  0  0  0  0
   22.5199   -9.9899  -16.1269 N   0  0  0  0  0  0  0  0  0  0  0  0
   23.4527   -8.9679  -15.7161 C   0  0  1  0  0  0  0  0  0  0  0  0
   24.7555   -9.1264  -16.3927 C   0  0  0  0  0  0  0  0  0  0  0  0
   25.5776  -10.3184  -16.0842 C   0  0  0  0  0  0  0  0  0  0  0  0
   26.7789  -10.5577  -16.9226 C   0  0  0  0  0  0  0  0  0  0  0  0
   27.3913  -11.8871  -16.4485 C   0  0  0  0  0  0  0  0  0  0  0  0
   28.6324  -12.1494  -17.1279 N   0  0  0  0  0  0  0  0  0  0  0  0
   22.9347   -7.6053  -16.1425 C   0  0  0  0  0  0  0  0  0  0  0  0
   22.3110   -7.5711  -17.2218 O   0  0  0  0  0  0  0  0  0  0  0  0
   23.1291   -6.4346  -15.3893 N   0  0  0  0  0  0  0  0  0  0  0  0
   22.3763   -5.2321  -15.6770 C   0  0  1  0  0  0  0  0  0  0  0  0
   20.8974   -5.4207  -15.7103 C   0  0  0  0  0  0  0  0  0  0  0  0
   20.0637   -4.2035  -15.8322 C   0  0  0  0  0  0  0  0  0  0  0  0
   18.6183   -4.5081  -15.8254 C   0  0  0  0  0  0  0  0  0  0  0  0
   18.0869   -4.9680  -16.8521 O   0  0  0  0  0  0  0  0  0  0  0  0
   22.8193   -4.1712  -14.7706 C   0  0  0  0  0  0  0  0  0  0  0  0
   22.4079   -2.8680  -14.9585 O   0  0  0  0  0  0  0  0  0  0  0  0
   17.9011   -4.2687  -14.6637 O   0  0  0  0  0  0  0  0  0  0  0  0
   23.5782   -4.4441  -13.8139 O   0  0  0  0  0  0  0  0  0  0  0  0
  2  1  1  1
  2  3  1  0
  2  6  1  0
  4  3  1  0
  4  8  1  0
  5  4  2  0
  6  7  2  0
  9  6  1  0
  9 10  1  0
 10 11  1  6
 11 12  1  0
 13 12  1  0
 13 14  1  0
 14 15  1  0
 16 17  2  0
 16 10  1  0
 18 16  1  0
 19 20  1  1
 19 18  1  0
 20 21  1  0
 22 21  1  0
 22 23  2  0
 24 19  1  0
 25 24  1  0
 26 22  1  0
 27 24  2  0
M  END
$$$$
