DKE.pdb
     RDKit          3D

 27 26  0  0  1  0  0  0  0  0999 V2000
   22.4584  -12.0047  -17.7771 N   0  0  0  0  0  0  0  0  0  0  0  0
   22.1485  -11.5342  -16.4630 C   0  0  1  0  0  0  0  0  0  0  0  0
   23.2988  -11.0523  -15.6543 C   0  0  0  0  0  0  0  0  0  0  0  0
   24.2768  -12.1434  -15.4656 C   0  0  0  0  0  0  0  0  0  0  0  0
   25.5066  -11.8644  -15.5377 O   0  0  0  0  0  0  0  0  0  0  0  0
   21.0079  -10.5797  -16.5507 C   0  0  0  0  0  0  0  0  0  0  0  0
   21.0300   -9.5587  -17.2955 O   0  0  0  0  0  0  0  0  0  0  0  0
   23.9284  -13.4568  -15.2140 O   0  0  0  0  0  0  0  0  0  0  0  0
   19.7986  -10.7595  -15.7838 N   0  0  0  0  0  0  0  0  0  0  0  0
   18.7168   -9.8056  -15.8407 C   0  0  1  0  0  0  0  0  0  0  0  0
   17.4641  -10.3820  -15.3125 C   0  0  0  0  0  0  0  0  0  0  0  0
   16.2333   -9.5598  -15.3439 C   0  0  0  0  0  0  0  0  0  0  0  0
   15.0010  -10.1489  -14.7626 C   0  0  0  0  0  0  0  0  0  0  0  0
   13.8855   -9.1042  -14.9397 C   0  0  0  0  0  0  0  0  0  0  0  0
   12.6145   -9.6384  -14.5273 N   0  0  0  0  0  0  0  0  0  0  0  0
   19.0331   -8.6235  -14.9410 C   0  0  0  0  0  0  0  0  0  0  0  0
   19.4892   -8.9012  -13.8141 O   0  0  0  0  0  0  0  0  0  0  0  0
   18.8356   -7.2860  -15.3250 N   0  0  0  0  0  0  0  0  0  0  0  0
   19.2297   -6.1973  -14.4561 C   0  0  1  0  0  0  0  0  0  0  0  0
   20.5499   -5.5879  -14.7869 C   0  0  0  0  0  0  0  0  0  0  0  0
   20.9632   -4.4034  -14.0011 C   0  0  0  0  0  0  0  0  0  0  0  0
   22.2622   -3.8582  -14.4454 C   0  0  0  0  0  0  0  0  0  0  0  0
   23.3108   -4.4535  -14.1385 O   0  0  0  0  0  0  0  0  0  0  0  0
   18.1316   -5.2317  -14.3835 C   0  0  0  0  0  0  0  0  0  0  0  0
   17.9807   -4.4196  -13.2787 O   0  0  0  0  0  0  0  0  0  0  0  0
   22.2645   -2.6929  -15.1959 O   0  0  0  0  0  0  0  0  0  0  0  0
   17.3194   -5.1378  -15.3306 O   0  0  0  0  0  0  0  0  0  0  0  0
  2  1  1  6
  2  3  1  0
  2  6  1  0
  4  3  1  0
  4  8  1  0
  5  4  2  0
  6  7  2  0
  9  6  1  0
  9 10  1  0
 10 11  1  1
 11 12  1  0
 13 12  1  0
 13 14  1  0
 14 15  1  0
 16 17  2  0
 16 10  1  0
 18 16  1  0
 19 20  1  6
 19 18  1  0
 20 21  1  0
 22 21  1  0
 22 23  2  0
 24 19  1  0
 25 24  1  0
 26 22  1  0
 27 24  2  0
M  END
$$$$
