KGY.pdb
     RDKit          3D

 26 26  0  0  1  0  0  0  0  0999 V2000
    6.9876  -18.7996   21.4837 N   0  0  0  0  0  0  0  0  0  0  0  0
    6.5824  -17.5873   20.8507 C   0  0  1  0  0  0  0  0  0  0  0  0
    5.2725  -17.0487   21.3578 C   0  0  0  0  0  0  0  0  0  0  0  0
    4.3139  -18.1108   21.7812 C   0  0  0  0  0  0  0  0  0  0  0  0
    3.0519  -18.1619   20.9822 C   0  0  0  0  0  0  0  0  0  0  0  0
    2.0253  -19.1110   21.5397 C   0  0  0  0  0  0  0  0  0  0  0  0
    0.8555  -19.1924   20.6871 N   0  0  0  0  0  0  0  0  0  0  0  0
    7.6258  -16.5440   21.0116 C   0  0  0  0  0  0  0  0  0  0  0  0
    7.5111  -15.3867   20.5385 O   0  0  0  0  0  0  0  0  0  0  0  0
    8.8283  -16.8344   21.7315 N   0  0  0  0  0  0  0  0  0  0  0  0
    9.8725  -15.8682   21.9200 C   0  0  0  0  0  0  0  0  0  0  0  0
   10.1650  -15.7227   23.3773 C   0  0  0  0  0  0  0  0  0  0  0  0
   11.2152  -15.1399   23.7704 O   0  0  0  0  0  0  0  0  0  0  0  0
    5.8786  -11.2388   26.0386 O   0  0  0  0  0  0  0  0  0  0  0  0
    6.4855  -12.4912   26.1625 C   0  0  0  0  0  0  0  0  0  0  0  0
    7.7598  -12.6149   26.6584 C   0  0  0  0  0  0  0  0  0  0  0  0
    8.3265  -13.8590   26.7672 C   0  0  0  0  0  0  0  0  0  0  0  0
    7.6381  -15.0081   26.3849 C   0  0  0  0  0  0  0  0  0  0  0  0
    8.2653  -16.3356   26.4935 C   0  0  0  0  0  0  0  0  0  0  0  0
    9.5863  -16.3163   25.7653 C   0  0  2  0  0  0  0  0  0  0  0  0
    9.2631  -16.2395   24.3442 N   0  0  0  0  0  0  0  0  0  0  0  0
   10.4357  -17.4912   26.0490 C   0  0  0  0  0  0  0  0  0  0  0  0
   11.0846  -17.7203   27.2463 O   0  0  0  0  0  0  0  0  0  0  0  0
    6.3655  -14.8505   25.8927 C   0  0  0  0  0  0  0  0  0  0  0  0
    5.7605  -13.6001   25.7693 C   0  0  0  0  0  0  0  0  0  0  0  0
   10.5792  -18.3547   25.1175 O   0  0  0  0  0  0  0  0  0  0  0  0
  2  3  1  0
  2  1  1  1
  4  5  1  0
  4  3  1  0
  6  7  1  0
  6  5  1  0
  8  2  1  0
  9  8  2  0
 10  8  1  0
 11 10  1  0
 12 11  1  0
 12 21  1  0
 13 12  2  0
 15 14  1  0
 16 15  2  0
 17 16  1  0
 18 17  2  0
 18 24  1  0
 19 18  1  0
 20 22  1  0
 20 21  1  0
 20 19  1  1
 22 23  1  0
 24 25  2  0
 25 15  1  0
 26 22  2  0
M  END
$$$$
