KGY.pdb
     RDKit          3D

 26 26  0  0  1  0  0  0  0  0999 V2000
   10.3520  -14.5187   19.7094 N   0  0  0  0  0  0  0  0  0  0  0  0
    9.1484  -13.9568   20.2293 C   0  0  1  0  0  0  0  0  0  0  0  0
    8.0644  -13.7906   19.1995 C   0  0  0  0  0  0  0  0  0  0  0  0
    8.5660  -13.8189   17.7946 C   0  0  0  0  0  0  0  0  0  0  0  0
    7.5117  -13.6149   16.7552 C   0  0  0  0  0  0  0  0  0  0  0  0
    8.0512  -13.5796   15.3504 C   0  0  0  0  0  0  0  0  0  0  0  0
    6.9919  -13.4012   14.3766 N   0  0  0  0  0  0  0  0  0  0  0  0
    8.6284  -14.7858   21.3452 C   0  0  0  0  0  0  0  0  0  0  0  0
    7.6348  -14.4522   22.0365 O   0  0  0  0  0  0  0  0  0  0  0  0
    9.2622  -16.0257   21.6761 N   0  0  0  0  0  0  0  0  0  0  0  0
    8.7865  -16.8857   22.7218 C   0  0  0  0  0  0  0  0  0  0  0  0
    9.3356  -16.4316   24.0343 C   0  0  0  0  0  0  0  0  0  0  0  0
   10.4970  -15.9397   24.1134 O   0  0  0  0  0  0  0  0  0  0  0  0
    5.9964  -10.8358   25.6663 O   0  0  0  0  0  0  0  0  0  0  0  0
    6.4804  -12.0707   26.1054 C   0  0  0  0  0  0  0  0  0  0  0  0
    7.6211  -12.1551   26.8649 C   0  0  0  0  0  0  0  0  0  0  0  0
    8.0693  -13.3829   27.2798 C   0  0  0  0  0  0  0  0  0  0  0  0
    7.3926  -14.5546   26.9485 C   0  0  0  0  0  0  0  0  0  0  0  0
    7.8943  -15.8668   27.3887 C   0  0  0  0  0  0  0  0  0  0  0  0
    9.0841  -16.2473   26.5428 C   0  0  2  0  0  0  0  0  0  0  0  0
    8.5566  -16.5472   25.2155 N   0  0  0  0  0  0  0  0  0  0  0  0
    9.8476  -17.3937   27.0769 C   0  0  0  0  0  0  0  0  0  0  0  0
   10.0004  -18.6047   26.4310 O   0  0  0  0  0  0  0  0  0  0  0  0
    6.2552  -14.4363   26.1877 C   0  0  0  0  0  0  0  0  0  0  0  0
    5.7728  -13.2033   25.7498 C   0  0  0  0  0  0  0  0  0  0  0  0
   10.4039  -17.2518   28.2189 O   0  0  0  0  0  0  0  0  0  0  0  0
  2  3  1  0
  2  1  1  6
  4  5  1  0
  4  3  1  0
  6  7  1  0
  6  5  1  0
  8  2  1  0
  9  8  2  0
 10  8  1  0
 11 10  1  0
 12 11  1  0
 12 21  1  0
 13 12  2  0
 15 14  1  0
 16 15  2  0
 17 16  1  0
 18 17  2  0
 18 24  1  0
 19 18  1  0
 20 22  1  0
 20 21  1  0
 20 19  1  1
 22 23  1  0
 24 25  2  0
 25 15  1  0
 26 22  2  0
M  END
$$$$
