KGY.pdb
     RDKit          3D

 26 26  0  0  1  0  0  0  0  0999 V2000
    6.7868  -18.4896   20.6577 N   0  0  0  0  0  0  0  0  0  0  0  0
    8.1112  -18.2269   20.1978 C   0  0  1  0  0  0  0  0  0  0  0  0
    8.3358  -18.5971   18.7571 C   0  0  0  0  0  0  0  0  0  0  0  0
    8.3104  -20.0680   18.5076 C   0  0  0  0  0  0  0  0  0  0  0  0
    8.4198  -20.4550   17.0682 C   0  0  0  0  0  0  0  0  0  0  0  0
    8.2482  -21.9310   16.8279 C   0  0  0  0  0  0  0  0  0  0  0  0
    8.3163  -22.2529   15.4158 N   0  0  0  0  0  0  0  0  0  0  0  0
    8.4507  -16.7941   20.3846 C   0  0  0  0  0  0  0  0  0  0  0  0
    9.2546  -16.1815   19.6397 O   0  0  0  0  0  0  0  0  0  0  0  0
    7.8547  -16.0467   21.4498 N   0  0  0  0  0  0  0  0  0  0  0  0
    8.1107  -14.6497   21.6555 C   0  0  0  0  0  0  0  0  0  0  0  0
    8.7835  -14.4512   22.9740 C   0  0  0  0  0  0  0  0  0  0  0  0
    9.2418  -13.3200   23.3017 O   0  0  0  0  0  0  0  0  0  0  0  0
    5.6796  -11.0367   26.9620 O   0  0  0  0  0  0  0  0  0  0  0  0
    6.4421  -12.1924   26.7745 C   0  0  0  0  0  0  0  0  0  0  0  0
    5.8724  -13.3476   26.2990 C   0  0  0  0  0  0  0  0  0  0  0  0
    6.6491  -14.4646   26.1263 C   0  0  0  0  0  0  0  0  0  0  0  0
    8.0101  -14.4575   26.4229 C   0  0  0  0  0  0  0  0  0  0  0  0
    8.8280  -15.6689   26.2466 C   0  0  0  0  0  0  0  0  0  0  0  0
    9.7554  -15.4696   25.0736 C   0  0  2  0  0  0  0  0  0  0  0  0
    8.9175  -15.5355   23.8805 N   0  0  0  0  0  0  0  0  0  0  0  0
   10.8462  -16.4635   25.0060 C   0  0  0  0  0  0  0  0  0  0  0  0
   11.0610  -17.3227   23.9465 O   0  0  0  0  0  0  0  0  0  0  0  0
    8.5495  -13.2866   26.8970 C   0  0  0  0  0  0  0  0  0  0  0  0
    7.7878  -12.1335   27.0838 C   0  0  0  0  0  0  0  0  0  0  0  0
   11.6454  -16.5314   26.0012 O   0  0  0  0  0  0  0  0  0  0  0  0
  2  3  1  0
  2  1  1  6
  4  5  1  0
  4  3  1  0
  6  7  1  0
  6  5  1  0
  8  2  1  0
  9  8  2  0
 10  8  1  0
 11 10  1  0
 12 11  1  0
 12 21  1  0
 13 12  2  0
 15 14  1  0
 16 15  2  0
 17 16  1  0
 18 17  2  0
 18 24  1  0
 19 18  1  0
 20 22  1  0
 20 21  1  0
 20 19  1  1
 22 23  1  0
 24 25  2  0
 25 15  1  0
 26 22  2  0
M  END
$$$$
