KGY.pdb
     RDKit          3D

 26 26  0  0  1  0  0  0  0  0999 V2000
    7.4104  -15.4446   20.5497 N   0  0  0  0  0  0  0  0  0  0  0  0
    8.5897  -15.0427   19.8551 C   0  0  1  0  0  0  0  0  0  0  0  0
    8.4458  -13.7350   19.1254 C   0  0  0  0  0  0  0  0  0  0  0  0
    7.6148  -13.8291   17.8898 C   0  0  0  0  0  0  0  0  0  0  0  0
    8.3881  -14.1092   16.6419 C   0  0  0  0  0  0  0  0  0  0  0  0
    7.5215  -14.2774   15.4226 C   0  0  0  0  0  0  0  0  0  0  0  0
    8.3146  -14.5301   14.2355 N   0  0  0  0  0  0  0  0  0  0  0  0
    9.7367  -14.9467   20.7923 C   0  0  0  0  0  0  0  0  0  0  0  0
   10.9290  -14.8770   20.4052 O   0  0  0  0  0  0  0  0  0  0  0  0
    9.5112  -14.9300   22.2056 N   0  0  0  0  0  0  0  0  0  0  0  0
   10.5630  -14.7097   23.1566 C   0  0  0  0  0  0  0  0  0  0  0  0
   10.2874  -15.4896   24.4001 C   0  0  0  0  0  0  0  0  0  0  0  0
   11.1595  -15.5851   25.3096 O   0  0  0  0  0  0  0  0  0  0  0  0
    7.0277  -10.7382   26.6313 O   0  0  0  0  0  0  0  0  0  0  0  0
    7.0826  -12.1294   26.5141 C   0  0  0  0  0  0  0  0  0  0  0  0
    7.7748  -12.8901   27.4237 C   0  0  0  0  0  0  0  0  0  0  0  0
    7.8088  -14.2535   27.2800 C   0  0  0  0  0  0  0  0  0  0  0  0
    7.1549  -14.8908   26.2280 C   0  0  0  0  0  0  0  0  0  0  0  0
    7.2130  -16.3542   26.0782 C   0  0  0  0  0  0  0  0  0  0  0  0
    8.6432  -16.7671   25.8336 C   0  0  2  0  0  0  0  0  0  0  0  0
    9.0363  -16.1369   24.5773 N   0  0  0  0  0  0  0  0  0  0  0  0
    8.8341  -18.2306   25.7703 C   0  0  0  0  0  0  0  0  0  0  0  0
    8.8207  -19.0722   26.8651 O   0  0  0  0  0  0  0  0  0  0  0  0
    6.4717  -14.1017   25.3352 C   0  0  0  0  0  0  0  0  0  0  0  0
    6.4174  -12.7132   25.4528 C   0  0  0  0  0  0  0  0  0  0  0  0
    9.0265  -18.7517   24.6191 O   0  0  0  0  0  0  0  0  0  0  0  0
  2  3  1  0
  2  1  1  1
  4  5  1  0
  4  3  1  0
  6  7  1  0
  6  5  1  0
  8  2  1  0
  9  8  2  0
 10  8  1  0
 11 10  1  0
 12 11  1  0
 12 21  1  0
 13 12  2  0
 15 14  1  0
 16 15  2  0
 17 16  1  0
 18 17  2  0
 18 24  1  0
 19 18  1  0
 20 22  1  0
 20 21  1  0
 20 19  1  6
 22 23  1  0
 24 25  2  0
 25 15  1  0
 26 22  2  0
M  END
$$$$
