KGY.pdb
     RDKit          3D

 26 26  0  0  1  0  0  0  0  0999 V2000
    9.9887  -18.5227   19.1827 N   0  0  0  0  0  0  0  0  0  0  0  0
    8.8016  -18.0801   18.5272 C   0  0  1  0  0  0  0  0  0  0  0  0
    7.7803  -19.1664   18.3272 C   0  0  0  0  0  0  0  0  0  0  0  0
    7.9732  -19.9428   17.0678 C   0  0  0  0  0  0  0  0  0  0  0  0
    6.9322  -20.9851   16.8159 C   0  0  0  0  0  0  0  0  0  0  0  0
    7.2171  -21.8404   15.6105 C   0  0  0  0  0  0  0  0  0  0  0  0
    6.1867  -22.8408   15.4108 N   0  0  0  0  0  0  0  0  0  0  0  0
    8.1766  -16.9656   19.2825 C   0  0  0  0  0  0  0  0  0  0  0  0
    7.1320  -16.3840   18.8991 O   0  0  0  0  0  0  0  0  0  0  0  0
    8.7627  -16.5077   20.5053 N   0  0  0  0  0  0  0  0  0  0  0  0
    8.1192  -15.5565   21.3659 C   0  0  0  0  0  0  0  0  0  0  0  0
    8.9645  -15.3200   22.5741 C   0  0  0  0  0  0  0  0  0  0  0  0
   10.1511  -14.9003   22.4604 O   0  0  0  0  0  0  0  0  0  0  0  0
    5.7232  -10.4750   26.3844 O   0  0  0  0  0  0  0  0  0  0  0  0
    6.3446  -11.7258   26.3425 C   0  0  0  0  0  0  0  0  0  0  0  0
    5.6100  -12.8775   26.2043 C   0  0  0  0  0  0  0  0  0  0  0  0
    6.2509  -14.0893   26.1666 C   0  0  0  0  0  0  0  0  0  0  0  0
    7.6372  -14.1826   26.2656 C   0  0  0  0  0  0  0  0  0  0  0  0
    8.3100  -15.4918   26.2387 C   0  0  0  0  0  0  0  0  0  0  0  0
    9.2692  -15.5279   25.0749 C   0  0  2  0  0  0  0  0  0  0  0  0
    8.4437  -15.5645   23.8720 N   0  0  0  0  0  0  0  0  0  0  0  0
   10.1993  -16.6751   25.1099 C   0  0  0  0  0  0  0  0  0  0  0  0
   11.3093  -16.7613   25.9270 O   0  0  0  0  0  0  0  0  0  0  0  0
    8.3431  -13.0124   26.4032 C   0  0  0  0  0  0  0  0  0  0  0  0
    7.7222  -11.7644   26.4449 C   0  0  0  0  0  0  0  0  0  0  0  0
    9.9574  -17.6553   24.3261 O   0  0  0  0  0  0  0  0  0  0  0  0
  2  3  1  0
  2  1  1  1
  4  5  1  0
  4  3  1  0
  6  7  1  0
  6  5  1  0
  8  2  1  0
  9  8  2  0
 10  8  1  0
 11 10  1  0
 12 11  1  0
 12 21  1  0
 13 12  2  0
 15 14  1  0
 16 15  2  0
 17 16  1  0
 18 17  2  0
 18 24  1  0
 19 18  1  0
 20 22  1  0
 20 21  1  0
 20 19  1  1
 22 23  1  0
 24 25  2  0
 25 15  1  0
 26 22  2  0
M  END
$$$$
