KGY.pdb
     RDKit          3D

 26 26  0  0  1  0  0  0  0  0999 V2000
    7.4000  -15.5651   23.3128 N   0  0  0  0  0  0  0  0  0  0  0  0
    7.8094  -16.6357   22.4638 C   0  0  1  0  0  0  0  0  0  0  0  0
    8.2980  -16.1845   21.1143 C   0  0  0  0  0  0  0  0  0  0  0  0
    7.7157  -14.8836   20.6728 C   0  0  0  0  0  0  0  0  0  0  0  0
    8.1983  -14.4081   19.3407 C   0  0  0  0  0  0  0  0  0  0  0  0
    7.5636  -13.1174   18.8969 C   0  0  0  0  0  0  0  0  0  0  0  0
    8.0729  -12.6877   17.6092 N   0  0  0  0  0  0  0  0  0  0  0  0
    8.8739  -17.4379   23.1169 C   0  0  0  0  0  0  0  0  0  0  0  0
    9.2727  -18.5387   22.6635 O   0  0  0  0  0  0  0  0  0  0  0  0
    9.4951  -16.9671   24.3173 N   0  0  0  0  0  0  0  0  0  0  0  0
   10.5008  -17.7157   25.0156 C   0  0  0  0  0  0  0  0  0  0  0  0
   10.9226  -16.9704   26.2392 C   0  0  0  0  0  0  0  0  0  0  0  0
   12.1278  -16.6280   26.4038 O   0  0  0  0  0  0  0  0  0  0  0  0
    6.8485  -12.7560   24.2013 O   0  0  0  0  0  0  0  0  0  0  0  0
    7.4105  -13.3262   25.3464 C   0  0  0  0  0  0  0  0  0  0  0  0
    8.5922  -12.8568   25.8645 C   0  0  0  0  0  0  0  0  0  0  0  0
    9.1169  -13.4388   26.9899 C   0  0  0  0  0  0  0  0  0  0  0  0
    8.4778  -14.5010   27.6253 C   0  0  0  0  0  0  0  0  0  0  0  0
    9.0611  -15.1255   28.8241 C   0  0  0  0  0  0  0  0  0  0  0  0
   10.3136  -15.8689   28.4313 C   0  0  2  0  0  0  0  0  0  0  0  0
    9.9707  -16.6355   27.2378 N   0  0  0  0  0  0  0  0  0  0  0  0
   10.8343  -16.7538   29.4935 C   0  0  0  0  0  0  0  0  0  0  0  0
   11.3739  -16.3149   30.6865 O   0  0  0  0  0  0  0  0  0  0  0  0
    7.2978  -14.9473   27.0821 C   0  0  0  0  0  0  0  0  0  0  0  0
    6.7375  -14.3776   25.9391 C   0  0  0  0  0  0  0  0  0  0  0  0
   10.7813  -18.0145   29.2902 O   0  0  0  0  0  0  0  0  0  0  0  0
  2  3  1  0
  2  1  1  1
  4  5  1  0
  4  3  1  0
  6  7  1  0
  6  5  1  0
  8  2  1  0
  9  8  2  0
 10  8  1  0
 11 10  1  0
 12 11  1  0
 12 21  1  0
 13 12  2  0
 15 14  1  0
 16 15  2  0
 17 16  1  0
 18 17  2  0
 18 24  1  0
 19 18  1  0
 20 22  1  0
 20 21  1  0
 20 19  1  1
 22 23  1  0
 24 25  2  0
 25 15  1  0
 26 22  2  0
M  END
$$$$
