KGY.pdb
     RDKit          3D

 26 26  0  0  1  0  0  0  0  0999 V2000
    7.9308  -16.9085   20.6902 N   0  0  0  0  0  0  0  0  0  0  0  0
    8.8798  -15.9931   20.1460 C   0  0  1  0  0  0  0  0  0  0  0  0
    8.3124  -14.6277   19.8682 C   0  0  0  0  0  0  0  0  0  0  0  0
    7.6096  -14.5289   18.5557 C   0  0  0  0  0  0  0  0  0  0  0  0
    8.1373  -13.4654   17.6479 C   0  0  0  0  0  0  0  0  0  0  0  0
    7.3178  -13.2799   16.3990 C   0  0  0  0  0  0  0  0  0  0  0  0
    7.8296  -12.1976   15.5812 N   0  0  0  0  0  0  0  0  0  0  0  0
   10.0458  -15.8536   21.0537 C   0  0  0  0  0  0  0  0  0  0  0  0
   11.0121  -15.0901   20.8095 O   0  0  0  0  0  0  0  0  0  0  0  0
   10.1051  -16.6068   22.2693 N   0  0  0  0  0  0  0  0  0  0  0  0
   11.2415  -16.5784   23.1452 C   0  0  0  0  0  0  0  0  0  0  0  0
   10.7920  -16.3033   24.5425 C   0  0  0  0  0  0  0  0  0  0  0  0
   11.6260  -15.9965   25.4410 O   0  0  0  0  0  0  0  0  0  0  0  0
    6.9855  -10.5774   25.9823 O   0  0  0  0  0  0  0  0  0  0  0  0
    7.1025  -11.9671   26.0671 C   0  0  0  0  0  0  0  0  0  0  0  0
    7.0559  -12.6093   27.2798 C   0  0  0  0  0  0  0  0  0  0  0  0
    7.1739  -13.9747   27.3282 C   0  0  0  0  0  0  0  0  0  0  0  0
    7.3407  -14.7321   26.1710 C   0  0  0  0  0  0  0  0  0  0  0  0
    7.4810  -16.1960   26.2401 C   0  0  0  0  0  0  0  0  0  0  0  0
    8.9476  -16.5493   26.2535 C   0  0  2  0  0  0  0  0  0  0  0  0
    9.4156  -16.3832   24.8813 N   0  0  0  0  0  0  0  0  0  0  0  0
    9.2225  -17.9164   26.7413 C   0  0  0  0  0  0  0  0  0  0  0  0
    9.2977  -18.2746   28.0729 O   0  0  0  0  0  0  0  0  0  0  0  0
    7.3834  -14.0599   24.9740 C   0  0  0  0  0  0  0  0  0  0  0  0
    7.2665  -12.6728   24.8902 C   0  0  0  0  0  0  0  0  0  0  0  0
    9.4045  -18.8300   25.8661 O   0  0  0  0  0  0  0  0  0  0  0  0
  2  3  1  0
  2  1  1  1
  4  5  1  0
  4  3  1  0
  6  7  1  0
  6  5  1  0
  8  2  1  0
  9  8  2  0
 10  8  1  0
 11 10  1  0
 12 11  1  0
 12 21  1  0
 13 12  2  0
 15 14  1  0
 16 15  2  0
 17 16  1  0
 18 17  2  0
 18 24  1  0
 19 18  1  0
 20 22  1  0
 20 21  1  0
 20 19  1  6
 22 23  1  0
 24 25  2  0
 25 15  1  0
 26 22  2  0
M  END
$$$$
