KGY.pdb
     RDKit          3D

 26 26  0  0  1  0  0  0  0  0999 V2000
   11.0276  -17.5995   17.8867 N   0  0  0  0  0  0  0  0  0  0  0  0
   10.2209  -18.6874   18.3342 C   0  0  1  0  0  0  0  0  0  0  0  0
   11.0136  -19.8932   18.7597 C   0  0  0  0  0  0  0  0  0  0  0  0
   12.0025  -20.3482   17.7392 C   0  0  0  0  0  0  0  0  0  0  0  0
   12.8473  -21.5046   18.1664 C   0  0  0  0  0  0  0  0  0  0  0  0
   13.8166  -21.9636   17.1102 C   0  0  0  0  0  0  0  0  0  0  0  0
   14.7029  -22.9956   17.6120 N   0  0  0  0  0  0  0  0  0  0  0  0
    9.3529  -18.2610   19.4601 C   0  0  0  0  0  0  0  0  0  0  0  0
    8.4241  -18.9744   19.9128 O   0  0  0  0  0  0  0  0  0  0  0  0
    9.5544  -16.9873   20.0812 N   0  0  0  0  0  0  0  0  0  0  0  0
    8.6980  -16.4851   21.1175 C   0  0  0  0  0  0  0  0  0  0  0  0
    9.4754  -16.3377   22.3841 C   0  0  0  0  0  0  0  0  0  0  0  0
   10.6783  -16.7194   22.4521 O   0  0  0  0  0  0  0  0  0  0  0  0
   10.9964  -14.3883   30.8278 O   0  0  0  0  0  0  0  0  0  0  0  0
   10.4049  -14.5267   29.5696 C   0  0  0  0  0  0  0  0  0  0  0  0
   10.3651  -13.4765   28.6861 C   0  0  0  0  0  0  0  0  0  0  0  0
    9.7771  -13.6457   27.4588 C   0  0  0  0  0  0  0  0  0  0  0  0
    9.2154  -14.8637   27.0828 C   0  0  0  0  0  0  0  0  0  0  0  0
    8.5742  -15.0258   25.7675 C   0  0  0  0  0  0  0  0  0  0  0  0
    9.5840  -15.5797   24.7931 C   0  0  2  0  0  0  0  0  0  0  0  0
    8.8706  -15.7644   23.5335 N   0  0  0  0  0  0  0  0  0  0  0  0
   10.2030  -16.8452   25.2377 C   0  0  0  0  0  0  0  0  0  0  0  0
    9.5545  -18.0637   25.2811 O   0  0  0  0  0  0  0  0  0  0  0  0
    9.2713  -15.8943   27.9891 C   0  0  0  0  0  0  0  0  0  0  0  0
    9.8619  -15.7553   29.2447 C   0  0  0  0  0  0  0  0  0  0  0  0
   11.4253  -16.8059   25.6093 O   0  0  0  0  0  0  0  0  0  0  0  0
  2  3  1  0
  2  1  1  1
  4  5  1  0
  4  3  1  0
  6  7  1  0
  6  5  1  0
  8  2  1  0
  9  8  2  0
 10  8  1  0
 11 10  1  0
 12 11  1  0
 12 21  1  0
 13 12  2  0
 15 14  1  0
 16 15  2  0
 17 16  1  0
 18 17  2  0
 18 24  1  0
 19 18  1  0
 20 22  1  0
 20 21  1  0
 20 19  1  1
 22 23  1  0
 24 25  2  0
 25 15  1  0
 26 22  2  0
M  END
$$$$
