KGY.pdb
     RDKit          3D

 26 26  0  0  1  0  0  0  0  0999 V2000
   11.3087  -19.6110   19.2134 N   0  0  0  0  0  0  0  0  0  0  0  0
   11.2774  -18.6605   18.1503 C   0  0  1  0  0  0  0  0  0  0  0  0
   10.9552  -19.2627   16.8099 C   0  0  0  0  0  0  0  0  0  0  0  0
   11.0313  -20.7527   16.7909 C   0  0  0  0  0  0  0  0  0  0  0  0
   10.8080  -21.3682   15.4474 C   0  0  0  0  0  0  0  0  0  0  0  0
   10.7048  -22.8695   15.4835 C   0  0  0  0  0  0  0  0  0  0  0  0
   10.4124  -23.4156   14.1726 N   0  0  0  0  0  0  0  0  0  0  0  0
   10.2959  -17.5864   18.4433 C   0  0  0  0  0  0  0  0  0  0  0  0
   10.2022  -16.5419   17.7528 O   0  0  0  0  0  0  0  0  0  0  0  0
    9.4013  -17.7127   19.5534 N   0  0  0  0  0  0  0  0  0  0  0  0
    8.3977  -16.7329   19.8567 C   0  0  0  0  0  0  0  0  0  0  0  0
    8.7928  -15.9708   21.0788 C   0  0  0  0  0  0  0  0  0  0  0  0
    9.8301  -15.2490   21.0829 O   0  0  0  0  0  0  0  0  0  0  0  0
    6.9939  -10.9277   27.9289 O   0  0  0  0  0  0  0  0  0  0  0  0
    6.9202  -11.8419   26.8748 C   0  0  0  0  0  0  0  0  0  0  0  0
    6.3621  -13.0838   27.0519 C   0  0  0  0  0  0  0  0  0  0  0  0
    6.3052  -13.9576   25.9964 C   0  0  0  0  0  0  0  0  0  0  0  0
    6.8024  -13.6155   24.7410 C   0  0  0  0  0  0  0  0  0  0  0  0
    6.7480  -14.5698   23.6213 C   0  0  0  0  0  0  0  0  0  0  0  0
    8.1358  -15.0998   23.3591 C   0  0  2  0  0  0  0  0  0  0  0  0
    8.0047  -16.0476   22.2571 N   0  0  0  0  0  0  0  0  0  0  0  0
    8.7556  -15.7433   24.5356 C   0  0  0  0  0  0  0  0  0  0  0  0
    8.6534  -17.0863   24.8408 O   0  0  0  0  0  0  0  0  0  0  0  0
    7.3546  -12.3661   24.5967 C   0  0  0  0  0  0  0  0  0  0  0  0
    7.4277  -11.4542   25.6493 C   0  0  0  0  0  0  0  0  0  0  0  0
    9.4326  -15.0013   25.3260 O   0  0  0  0  0  0  0  0  0  0  0  0
  2  3  1  0
  2  1  1  1
  4  5  1  0
  4  3  1  0
  6  7  1  0
  6  5  1  0
  8  2  1  0
  9  8  2  0
 10  8  1  0
 11 10  1  0
 12 11  1  0
 12 21  1  0
 13 12  2  0
 15 14  1  0
 16 15  2  0
 17 16  1  0
 18 17  2  0
 18 24  1  0
 19 18  1  0
 20 22  1  0
 20 21  1  0
 20 19  1  1
 22 23  1  0
 24 25  2  0
 25 15  1  0
 26 22  2  0
M  END
$$$$
