KGY.pdb
     RDKit          3D

 26 26  0  0  1  0  0  0  0  0999 V2000
    6.1997  -19.1536   22.2481 N   0  0  0  0  0  0  0  0  0  0  0  0
    6.1471  -18.6502   20.9145 C   0  0  1  0  0  0  0  0  0  0  0  0
    4.7495  -18.3992   20.4175 C   0  0  0  0  0  0  0  0  0  0  0  0
    3.6888  -18.8908   21.3445 C   0  0  0  0  0  0  0  0  0  0  0  0
    2.2916  -18.6271   20.8842 C   0  0  0  0  0  0  0  0  0  0  0  0
    1.2397  -19.1580   21.8209 C   0  0  0  0  0  0  0  0  0  0  0  0
   -0.0914  -18.7539   21.4122 N   0  0  0  0  0  0  0  0  0  0  0  0
    6.9300  -17.3942   20.8027 C   0  0  0  0  0  0  0  0  0  0  0  0
    6.9836  -16.7161   19.7473 O   0  0  0  0  0  0  0  0  0  0  0  0
    7.6683  -16.9044   21.9268 N   0  0  0  0  0  0  0  0  0  0  0  0
    8.3824  -15.6598   21.9035 C   0  0  0  0  0  0  0  0  0  0  0  0
    9.0482  -15.4380   23.2218 C   0  0  0  0  0  0  0  0  0  0  0  0
    9.7517  -14.4081   23.4252 O   0  0  0  0  0  0  0  0  0  0  0  0
    5.7029  -11.3512   26.4741 O   0  0  0  0  0  0  0  0  0  0  0  0
    6.3980  -12.5624   26.5183 C   0  0  0  0  0  0  0  0  0  0  0  0
    7.6170  -12.6573   27.1428 C   0  0  0  0  0  0  0  0  0  0  0  0
    8.2731  -13.8612   27.1684 C   0  0  0  0  0  0  0  0  0  0  0  0
    7.7312  -14.9980   26.5731 C   0  0  0  0  0  0  0  0  0  0  0  0
    8.4544  -16.2802   26.5956 C   0  0  0  0  0  0  0  0  0  0  0  0
    9.5547  -16.2422   25.5642 C   0  0  2  0  0  0  0  0  0  0  0  0
    8.8988  -16.3856   24.2684 N   0  0  0  0  0  0  0  0  0  0  0  0
   10.5798  -17.2890   25.7537 C   0  0  0  0  0  0  0  0  0  0  0  0
   11.4783  -17.3274   26.8017 O   0  0  0  0  0  0  0  0  0  0  0  0
    6.5105  -14.8700   25.9564 C   0  0  0  0  0  0  0  0  0  0  0  0
    5.8175  -13.6607   25.9127 C   0  0  0  0  0  0  0  0  0  0  0  0
   10.6374  -18.2232   24.8833 O   0  0  0  0  0  0  0  0  0  0  0  0
  2  3  1  0
  2  1  1  1
  4  5  1  0
  4  3  1  0
  6  7  1  0
  6  5  1  0
  8  2  1  0
  9  8  2  0
 10  8  1  0
 11 10  1  0
 12 11  1  0
 12 21  1  0
 13 12  2  0
 15 14  1  0
 16 15  2  0
 17 16  1  0
 18 17  2  0
 18 24  1  0
 19 18  1  0
 20 22  1  0
 20 21  1  0
 20 19  1  1
 22 23  1  0
 24 25  2  0
 25 15  1  0
 26 22  2  0
M  END
$$$$
