KGY.pdb
     RDKit          3D

 26 26  0  0  1  0  0  0  0  0999 V2000
    9.9292  -15.0475   21.4628 N   0  0  0  0  0  0  0  0  0  0  0  0
    8.6097  -14.6534   21.8348 C   0  0  1  0  0  0  0  0  0  0  0  0
    7.6304  -14.6653   20.6929 C   0  0  0  0  0  0  0  0  0  0  0  0
    7.9491  -13.6756   19.6227 C   0  0  0  0  0  0  0  0  0  0  0  0
    7.8328  -14.2077   18.2310 C   0  0  0  0  0  0  0  0  0  0  0  0
    8.0601  -13.1663   17.1682 C   0  0  0  0  0  0  0  0  0  0  0  0
    7.9182  -13.7231   15.8370 N   0  0  0  0  0  0  0  0  0  0  0  0
    8.0941  -15.5256   22.9195 C   0  0  0  0  0  0  0  0  0  0  0  0
    6.9473  -15.3933   23.4133 O   0  0  0  0  0  0  0  0  0  0  0  0
    8.9121  -16.5735   23.4500 N   0  0  0  0  0  0  0  0  0  0  0  0
    8.4287  -17.5251   24.4092 C   0  0  0  0  0  0  0  0  0  0  0  0
    8.9804  -17.2024   25.7589 C   0  0  0  0  0  0  0  0  0  0  0  0
    9.0346  -18.0842   26.6625 O   0  0  0  0  0  0  0  0  0  0  0  0
    6.2155  -10.8251   25.4522 O   0  0  0  0  0  0  0  0  0  0  0  0
    6.8343  -11.8743   26.1366 C   0  0  0  0  0  0  0  0  0  0  0  0
    6.3385  -12.3295   27.3333 C   0  0  0  0  0  0  0  0  0  0  0  0
    6.9698  -13.3613   27.9795 C   0  0  0  0  0  0  0  0  0  0  0  0
    8.1086  -13.9635   27.4496 C   0  0  0  0  0  0  0  0  0  0  0  0
    8.7841  -15.0604   28.1623 C   0  0  0  0  0  0  0  0  0  0  0  0
    9.9750  -15.5122   27.3539 C   0  0  2  0  0  0  0  0  0  0  0  0
    9.4534  -15.8949   26.0457 N   0  0  0  0  0  0  0  0  0  0  0  0
   10.7196  -16.6291   27.9707 C   0  0  0  0  0  0  0  0  0  0  0  0
   11.6457  -16.4897   28.9857 O   0  0  0  0  0  0  0  0  0  0  0  0
    8.5795  -13.4851   26.2513 C   0  0  0  0  0  0  0  0  0  0  0  0
    7.9612  -12.4378   25.5688 C   0  0  0  0  0  0  0  0  0  0  0  0
   10.4891  -17.8067   27.5305 O   0  0  0  0  0  0  0  0  0  0  0  0
  2  3  1  0
  2  1  1  6
  4  5  1  0
  4  3  1  0
  6  7  1  0
  6  5  1  0
  8  2  1  0
  9  8  2  0
 10  8  1  0
 11 10  1  0
 12 11  1  0
 12 21  1  0
 13 12  2  0
 15 14  1  0
 16 15  2  0
 17 16  1  0
 18 17  2  0
 18 24  1  0
 19 18  1  0
 20 22  1  0
 20 21  1  0
 20 19  1  1
 22 23  1  0
 24 25  2  0
 25 15  1  0
 26 22  2  0
M  END
$$$$
