KGY.pdb
     RDKit          3D

 26 26  0  0  1  0  0  0  0  0999 V2000
   10.3135  -15.1122   19.1247 N   0  0  0  0  0  0  0  0  0  0  0  0
    9.5806  -14.0543   19.7397 C   0  0  1  0  0  0  0  0  0  0  0  0
    8.6635  -13.3255   18.7957 C   0  0  0  0  0  0  0  0  0  0  0  0
    8.3668  -14.0848   17.5461 C   0  0  0  0  0  0  0  0  0  0  0  0
    7.5656  -13.3287   16.5361 C   0  0  0  0  0  0  0  0  0  0  0  0
    7.2917  -14.1098   15.2789 C   0  0  0  0  0  0  0  0  0  0  0  0
    6.5524  -13.3220   14.3120 N   0  0  0  0  0  0  0  0  0  0  0  0
    8.7844  -14.5699   20.8813 C   0  0  0  0  0  0  0  0  0  0  0  0
    8.0776  -13.8299   21.6087 O   0  0  0  0  0  0  0  0  0  0  0  0
    8.7990  -15.9661   21.1960 N   0  0  0  0  0  0  0  0  0  0  0  0
    8.0623  -16.5216   22.2951 C   0  0  0  0  0  0  0  0  0  0  0  0
    8.7827  -16.2448   23.5737 C   0  0  0  0  0  0  0  0  0  0  0  0
    9.9456  -15.7502   23.5661 O   0  0  0  0  0  0  0  0  0  0  0  0
    6.2159  -10.6372   26.2318 O   0  0  0  0  0  0  0  0  0  0  0  0
    6.6176  -11.9562   26.4575 C   0  0  0  0  0  0  0  0  0  0  0  0
    7.8241  -12.2380   27.0493 C   0  0  0  0  0  0  0  0  0  0  0  0
    8.1883  -13.5438   27.2566 C   0  0  0  0  0  0  0  0  0  0  0  0
    7.3603  -14.5987   26.8798 C   0  0  0  0  0  0  0  0  0  0  0  0
    7.7716  -15.9958   27.0952 C   0  0  0  0  0  0  0  0  0  0  0  0
    8.8470  -16.3510   26.0985 C   0  0  2  0  0  0  0  0  0  0  0  0
    8.1678  -16.5351   24.8200 N   0  0  0  0  0  0  0  0  0  0  0  0
    9.6171  -17.5576   26.4637 C   0  0  0  0  0  0  0  0  0  0  0  0
   10.6269  -17.5894   27.4052 O   0  0  0  0  0  0  0  0  0  0  0  0
    6.1605  -14.2835   26.2902 C   0  0  0  0  0  0  0  0  0  0  0  0
    5.7603  -12.9667   26.0653 C   0  0  0  0  0  0  0  0  0  0  0  0
    9.3267  -18.6477   25.8628 O   0  0  0  0  0  0  0  0  0  0  0  0
  2  3  1  0
  2  1  1  6
  4  5  1  0
  4  3  1  0
  6  7  1  0
  6  5  1  0
  8  2  1  0
  9  8  2  0
 10  8  1  0
 11 10  1  0
 12 11  1  0
 12 21  1  0
 13 12  2  0
 15 14  1  0
 16 15  2  0
 17 16  1  0
 18 17  2  0
 18 24  1  0
 19 18  1  0
 20 22  1  0
 20 21  1  0
 20 19  1  1
 22 23  1  0
 24 25  2  0
 25 15  1  0
 26 22  2  0
M  END
$$$$
