KGY.pdb
     RDKit          3D

 26 26  0  0  1  0  0  0  0  0999 V2000
    9.2224  -18.9504   21.3168 N   0  0  0  0  0  0  0  0  0  0  0  0
    9.9563  -17.9706   20.5847 C   0  0  1  0  0  0  0  0  0  0  0  0
    9.2149  -17.4235   19.3954 C   0  0  0  0  0  0  0  0  0  0  0  0
    9.1411  -18.3750   18.2484 C   0  0  0  0  0  0  0  0  0  0  0  0
    8.3948  -17.8586   17.0610 C   0  0  0  0  0  0  0  0  0  0  0  0
    8.2797  -18.8584   15.9417 C   0  0  0  0  0  0  0  0  0  0  0  0
    7.4262  -18.3703   14.8762 N   0  0  0  0  0  0  0  0  0  0  0  0
   10.3435  -16.8439   21.4698 C   0  0  0  0  0  0  0  0  0  0  0  0
   11.1153  -15.9237   21.1036 O   0  0  0  0  0  0  0  0  0  0  0  0
    9.8342  -16.7705   22.8053 N   0  0  0  0  0  0  0  0  0  0  0  0
   10.0654  -15.6436   23.6632 C   0  0  0  0  0  0  0  0  0  0  0  0
    8.7892  -15.2519   24.3328 C   0  0  0  0  0  0  0  0  0  0  0  0
    7.7065  -15.8415   24.0552 O   0  0  0  0  0  0  0  0  0  0  0  0
   11.7163  -16.7204   29.8566 O   0  0  0  0  0  0  0  0  0  0  0  0
   10.8020  -15.8632   29.2390 C   0  0  0  0  0  0  0  0  0  0  0  0
    9.4721  -16.1920   29.1487 C   0  0  0  0  0  0  0  0  0  0  0  0
    8.6008  -15.3281   28.5362 C   0  0  0  0  0  0  0  0  0  0  0  0
    9.0331  -14.1175   27.9997 C   0  0  0  0  0  0  0  0  0  0  0  0
    8.0884  -13.2071   27.3317 C   0  0  0  0  0  0  0  0  0  0  0  0
    7.5877  -13.8595   26.0670 C   0  0  2  0  0  0  0  0  0  0  0  0
    8.7758  -14.2074   25.2942 N   0  0  0  0  0  0  0  0  0  0  0  0
    6.6795  -13.0019   25.2782 C   0  0  0  0  0  0  0  0  0  0  0  0
    6.9475  -12.5353   24.0064 O   0  0  0  0  0  0  0  0  0  0  0  0
   10.3693  -13.8180   28.1061 C   0  0  0  0  0  0  0  0  0  0  0  0
   11.2812  -14.6742   28.7226 C   0  0  0  0  0  0  0  0  0  0  0  0
    5.5681  -12.6687   25.8145 O   0  0  0  0  0  0  0  0  0  0  0  0
  2  3  1  0
  2  1  1  1
  4  5  1  0
  4  3  1  0
  6  7  1  0
  6  5  1  0
  8  2  1  0
  9  8  2  0
 10  8  1  0
 11 10  1  0
 12 11  1  0
 12 21  1  0
 13 12  2  0
 15 14  1  0
 16 15  2  0
 17 16  1  0
 18 17  2  0
 18 24  1  0
 19 18  1  0
 20 22  1  0
 20 21  1  0
 20 19  1  1
 22 23  1  0
 24 25  2  0
 25 15  1  0
 26 22  2  0
M  END
$$$$
