PQS.pdb
     RDKit          3D

 23 23  0  0  1  0  0  0  0  0999 V2000
   -2.3386  -24.7093   24.7821 N   0  0  0  0  0  0  0  0  0  0  0  0
   -1.3101  -25.1245   23.8611 C   0  0  0  0  0  0  0  0  0  0  0  0
   -1.9237  -26.0681   22.8792 C   0  0  0  0  0  0  0  0  0  0  0  0
   -3.2967  -26.3335   23.4609 C   0  0  0  0  0  0  0  0  0  0  0  0
   -3.5991  -25.0442   24.1739 C   0  0  1  0  0  0  0  0  0  0  0  0
   -4.6764  -25.2160   25.1948 C   0  0  0  0  0  0  0  0  0  0  0  0
   -5.8432  -25.5207   24.8425 O   0  0  0  0  0  0  0  0  0  0  0  0
   -3.8095  -27.0682   31.1236 N   0  0  0  0  0  0  0  0  0  0  0  0
   -5.2023  -26.8676   31.0780 C   0  0  0  0  0  0  0  0  0  0  0  0
   -5.9293  -27.2181   32.0381 O   0  0  0  0  0  0  0  0  0  0  0  0
   -5.8776  -26.2368   29.9022 C   0  0  0  0  0  0  0  0  0  0  0  0
   -4.9078  -25.9971   28.8082 C   0  0  0  0  0  0  0  0  0  0  0  0
   -5.3702  -25.2363   27.6273 C   0  0  2  0  0  0  0  0  0  0  0  0
   -4.4101  -25.0403   26.5772 N   0  0  0  0  0  0  0  0  0  0  0  0
   -6.2255  -24.0619   27.9148 C   0  0  0  0  0  0  0  0  0  0  0  0
   -5.6707  -22.9589   28.1002 O   0  0  0  0  0  0  0  0  0  0  0  0
  -10.6704  -22.2347   28.4943 O   0  0  0  0  0  0  0  0  0  0  0  0
   -9.9380  -23.3800   28.1858 C   0  0  0  0  0  0  0  0  0  0  0  0
   -8.4764  -22.9962   28.2650 C   0  0  2  0  0  0  0  0  0  0  0  0
   -7.6214  -24.1637   27.9858 N   0  0  0  0  0  0  0  0  0  0  0  0
   -8.2055  -22.5925   29.6774 C   0  0  0  0  0  0  0  0  0  0  0  0
   -7.6182  -23.4604   30.5879 O   0  0  0  0  0  0  0  0  0  0  0  0
   -8.4966  -21.4421   30.1150 O   0  0  0  0  0  0  0  0  0  0  0  0
  1  2  1  0
  2  3  1  0
  4  3  1  0
  5  4  1  0
  5  1  1  0
  5  6  1  1
  6  7  2  0
  9  8  1  0
  9 11  1  0
 10  9  2  0
 11 12  1  0
 13 12  1  1
 13 15  1  0
 13 14  1  0
 14  6  1  0
 15 16  2  0
 15 20  1  0
 17 18  1  0
 19 18  1  1
 19 21  1  0
 20 19  1  0
 21 23  2  0
 21 22  1  0
M  END
$$$$
