PQS.pdb
     RDKit          3D

 23 23  0  0  1  0  0  0  0  0999 V2000
    7.0937  -14.9306   19.9339 N   0  0  0  0  0  0  0  0  0  0  0  0
    6.5683  -14.2911   18.7534 C   0  0  0  0  0  0  0  0  0  0  0  0
    7.3981  -13.0804   18.4766 C   0  0  0  0  0  0  0  0  0  0  0  0
    8.2627  -12.9591   19.7142 C   0  0  0  0  0  0  0  0  0  0  0  0
    8.4116  -14.3925   20.1447 C   0  0  1  0  0  0  0  0  0  0  0  0
    8.8296  -14.5001   21.5751 C   0  0  0  0  0  0  0  0  0  0  0  0
   10.0295  -14.3214   21.9018 O   0  0  0  0  0  0  0  0  0  0  0  0
    5.7962  -12.0832   26.1432 N   0  0  0  0  0  0  0  0  0  0  0  0
    6.7092  -12.8450   26.8970 C   0  0  0  0  0  0  0  0  0  0  0  0
    6.9119  -12.5844   28.1070 O   0  0  0  0  0  0  0  0  0  0  0  0
    7.4731  -13.9863   26.3050 C   0  0  0  0  0  0  0  0  0  0  0  0
    7.1615  -14.1331   24.8641 C   0  0  0  0  0  0  0  0  0  0  0  0
    8.1699  -14.7847   24.0005 C   0  0  2  0  0  0  0  0  0  0  0  0
    7.8885  -14.8044   22.5922 N   0  0  0  0  0  0  0  0  0  0  0  0
    8.7613  -16.0335   24.5338 C   0  0  0  0  0  0  0  0  0  0  0  0
    8.0310  -17.0425   24.6202 O   0  0  0  0  0  0  0  0  0  0  0  0
   12.6448  -16.0684   25.6272 O   0  0  0  0  0  0  0  0  0  0  0  0
   12.2293  -17.3064   25.1392 C   0  0  0  0  0  0  0  0  0  0  0  0
   10.7311  -17.3728   25.3408 C   0  0  2  0  0  0  0  0  0  0  0  0
   10.1006  -16.1022   24.9405 N   0  0  0  0  0  0  0  0  0  0  0  0
   10.4929  -17.5280   26.8072 C   0  0  0  0  0  0  0  0  0  0  0  0
   10.9264  -18.6466   27.5058 O   0  0  0  0  0  0  0  0  0  0  0  0
    9.8855  -16.6505   27.4858 O   0  0  0  0  0  0  0  0  0  0  0  0
  1  2  1  0
  2  3  1  0
  4  3  1  0
  5  4  1  0
  5  1  1  0
  5  6  1  1
  6  7  2  0
  9  8  1  0
  9 11  1  0
 10  9  2  0
 11 12  1  0
 13 12  1  1
 13 15  1  0
 13 14  1  0
 14  6  1  0
 15 16  2  0
 15 20  1  0
 17 18  1  0
 19 18  1  1
 19 21  1  0
 20 19  1  0
 21 23  2  0
 21 22  1  0
M  END
$$$$
