PQS.pdb
     RDKit          3D

 23 23  0  0  1  0  0  0  0  0999 V2000
    8.6923  -15.0002   19.6977 N   0  0  0  0  0  0  0  0  0  0  0  0
    8.4780  -14.5996   18.3295 C   0  0  0  0  0  0  0  0  0  0  0  0
    7.7467  -13.2973   18.3391 C   0  0  0  0  0  0  0  0  0  0  0  0
    7.3600  -13.1246   19.7934 C   0  0  0  0  0  0  0  0  0  0  0  0
    8.4775  -13.8317   20.5098 C   0  0  1  0  0  0  0  0  0  0  0  0
    8.0964  -14.1937   21.9084 C   0  0  0  0  0  0  0  0  0  0  0  0
    7.8179  -13.2974   22.7436 O   0  0  0  0  0  0  0  0  0  0  0  0
    5.9662  -19.7088   26.4626 N   0  0  0  0  0  0  0  0  0  0  0  0
    6.3060  -19.0459   25.2679 C   0  0  0  0  0  0  0  0  0  0  0  0
    5.7946  -19.3947   24.1769 O   0  0  0  0  0  0  0  0  0  0  0  0
    7.2781  -17.9100   25.2365 C   0  0  0  0  0  0  0  0  0  0  0  0
    7.4523  -17.4084   23.8534 C   0  0  0  0  0  0  0  0  0  0  0  0
    7.7981  -15.9819   23.6725 C   0  0  2  0  0  0  0  0  0  0  0  0
    8.0401  -15.5488   22.3247 N   0  0  0  0  0  0  0  0  0  0  0  0
    8.7178  -15.4111   24.6834 C   0  0  0  0  0  0  0  0  0  0  0  0
    9.9462  -15.5511   24.5097 O   0  0  0  0  0  0  0  0  0  0  0  0
    7.5666  -12.4624   26.6005 O   0  0  0  0  0  0  0  0  0  0  0  0
    8.5164  -12.9613   27.4905 C   0  0  0  0  0  0  0  0  0  0  0  0
    9.1558  -14.1571   26.8191 C   0  0  2  0  0  0  0  0  0  0  0  0
    8.2439  -14.7323   25.8142 N   0  0  0  0  0  0  0  0  0  0  0  0
    9.3485  -15.1993   27.8716 C   0  0  0  0  0  0  0  0  0  0  0  0
   10.1079  -14.9606   29.0090 O   0  0  0  0  0  0  0  0  0  0  0  0
    8.8310  -16.3497   27.7808 O   0  0  0  0  0  0  0  0  0  0  0  0
  1  2  1  0
  2  3  1  0
  4  3  1  0
  5  4  1  0
  5  1  1  0
  5  6  1  1
  6  7  2  0
  9  8  1  0
  9 11  1  0
 10  9  2  0
 11 12  1  0
 13 12  1  6
 13 15  1  0
 13 14  1  0
 14  6  1  0
 15 16  2  0
 15 20  1  0
 17 18  1  0
 19 18  1  1
 19 21  1  0
 20 19  1  0
 21 23  2  0
 21 22  1  0
M  END
$$$$
