PQS.pdb
     RDKit          3D

 23 23  0  0  1  0  0  0  0  0999 V2000
    9.0251  -14.9373   19.7425 N   0  0  0  0  0  0  0  0  0  0  0  0
    8.3522  -14.5728   18.5207 C   0  0  0  0  0  0  0  0  0  0  0  0
    7.3244  -13.5404   18.8504 C   0  0  0  0  0  0  0  0  0  0  0  0
    7.3087  -13.5343   20.3649 C   0  0  0  0  0  0  0  0  0  0  0  0
    8.7257  -13.9084   20.7031 C   0  0  1  0  0  0  0  0  0  0  0  0
    8.8458  -14.4102   22.1053 C   0  0  0  0  0  0  0  0  0  0  0  0
    8.4765  -13.6953   23.0701 O   0  0  0  0  0  0  0  0  0  0  0  0
   11.9380  -19.8914   23.9933 N   0  0  0  0  0  0  0  0  0  0  0  0
   11.0094  -19.5370   24.9904 C   0  0  0  0  0  0  0  0  0  0  0  0
   10.6118  -20.3865   25.8233 O   0  0  0  0  0  0  0  0  0  0  0  0
   10.4570  -18.1522   25.1078 C   0  0  0  0  0  0  0  0  0  0  0  0
   10.2340  -17.5625   23.7672 C   0  0  0  0  0  0  0  0  0  0  0  0
    9.6238  -16.2172   23.6953 C   0  0  2  0  0  0  0  0  0  0  0  0
    9.3762  -15.6972   22.3796 N   0  0  0  0  0  0  0  0  0  0  0  0
   10.1375  -15.2264   24.6689 C   0  0  0  0  0  0  0  0  0  0  0  0
   11.2075  -14.6396   24.4051 O   0  0  0  0  0  0  0  0  0  0  0  0
    7.7250  -13.4823   27.1511 O   0  0  0  0  0  0  0  0  0  0  0  0
    8.9800  -12.8778   27.0979 C   0  0  0  0  0  0  0  0  0  0  0  0
    9.9844  -13.9818   26.8490 C   0  0  2  0  0  0  0  0  0  0  0  0
    9.4597  -14.9427   25.8622 N   0  0  0  0  0  0  0  0  0  0  0  0
   10.1428  -14.7276   28.1334 C   0  0  0  0  0  0  0  0  0  0  0  0
   10.6475  -14.1210   29.2757 O   0  0  0  0  0  0  0  0  0  0  0  0
    9.8262  -15.9469   28.2459 O   0  0  0  0  0  0  0  0  0  0  0  0
  1  2  1  0
  2  3  1  0
  4  3  1  0
  5  4  1  0
  5  1  1  0
  5  6  1  1
  6  7  2  0
  9  8  1  0
  9 11  1  0
 10  9  2  0
 11 12  1  0
 13 12  1  6
 13 15  1  0
 13 14  1  0
 14  6  1  0
 15 16  2  0
 15 20  1  0
 17 18  1  0
 19 18  1  1
 19 21  1  0
 20 19  1  0
 21 23  2  0
 21 22  1  0
M  END
$$$$
