PQS.pdb
     RDKit          3D

 23 23  0  0  1  0  0  0  0  0999 V2000
    8.3102  -15.3150   19.6244 N   0  0  0  0  0  0  0  0  0  0  0  0
    8.0189  -14.9306   18.2657 C   0  0  0  0  0  0  0  0  0  0  0  0
    7.5913  -13.4995   18.2726 C   0  0  0  0  0  0  0  0  0  0  0  0
    7.4341  -13.1891   19.7467 C   0  0  0  0  0  0  0  0  0  0  0  0
    8.4537  -14.0971   20.3776 C   0  0  1  0  0  0  0  0  0  0  0  0
    8.1802  -14.3111   21.8308 C   0  0  0  0  0  0  0  0  0  0  0  0
    8.1812  -13.3398   22.6275 O   0  0  0  0  0  0  0  0  0  0  0  0
    6.6521  -19.7814   26.7699 N   0  0  0  0  0  0  0  0  0  0  0  0
    6.5417  -19.0750   25.5571 C   0  0  0  0  0  0  0  0  0  0  0  0
    6.1036  -19.6404   24.5267 O   0  0  0  0  0  0  0  0  0  0  0  0
    6.9342  -17.6371   25.4348 C   0  0  0  0  0  0  0  0  0  0  0  0
    7.2471  -17.2981   24.0269 C   0  0  0  0  0  0  0  0  0  0  0  0
    7.6095  -15.8985   23.7158 C   0  0  2  0  0  0  0  0  0  0  0  0
    7.9145  -15.6073   22.3428 N   0  0  0  0  0  0  0  0  0  0  0  0
    8.4863  -15.2277   24.7031 C   0  0  0  0  0  0  0  0  0  0  0  0
    9.7153  -15.4388   24.6407 O   0  0  0  0  0  0  0  0  0  0  0  0
    6.7727  -12.7456   27.1801 O   0  0  0  0  0  0  0  0  0  0  0  0
    8.1397  -12.4783   27.2353 C   0  0  0  0  0  0  0  0  0  0  0  0
    8.8431  -13.6879   26.6594 C   0  0  2  0  0  0  0  0  0  0  0  0
    7.9716  -14.3785   25.6921 N   0  0  0  0  0  0  0  0  0  0  0  0
    9.0725  -14.6396   27.7876 C   0  0  0  0  0  0  0  0  0  0  0  0
    9.8453  -14.2979   28.8891 O   0  0  0  0  0  0  0  0  0  0  0  0
    8.5755  -15.8025   27.7971 O   0  0  0  0  0  0  0  0  0  0  0  0
  1  2  1  0
  2  3  1  0
  4  3  1  0
  5  4  1  0
  5  1  1  0
  5  6  1  1
  6  7  2  0
  9  8  1  0
  9 11  1  0
 10  9  2  0
 11 12  1  0
 13 12  1  6
 13 15  1  0
 13 14  1  0
 14  6  1  0
 15 16  2  0
 15 20  1  0
 17 18  1  0
 19 18  1  1
 19 21  1  0
 20 19  1  0
 21 23  2  0
 21 22  1  0
M  END
$$$$
