PQS.pdb
     RDKit          3D

 23 23  0  0  1  0  0  0  0  0999 V2000
    8.8514  -14.7726   19.5508 N   0  0  0  0  0  0  0  0  0  0  0  0
    8.2667  -14.2912   18.3241 C   0  0  0  0  0  0  0  0  0  0  0  0
    7.4271  -13.0995   18.6497 C   0  0  0  0  0  0  0  0  0  0  0  0
    7.3933  -13.0993   20.1639 C   0  0  0  0  0  0  0  0  0  0  0  0
    8.7206  -13.7129   20.5157 C   0  0  1  0  0  0  0  0  0  0  0  0
    8.7349  -14.2358   21.9153 C   0  0  0  0  0  0  0  0  0  0  0  0
    8.4275  -13.4874   22.8765 O   0  0  0  0  0  0  0  0  0  0  0  0
   10.7140  -19.6036   21.0785 N   0  0  0  0  0  0  0  0  0  0  0  0
    9.8200  -19.5863   22.1661 C   0  0  0  0  0  0  0  0  0  0  0  0
    9.7869  -20.5400   22.9802 O   0  0  0  0  0  0  0  0  0  0  0  0
    8.8784  -18.4492   22.4046 C   0  0  0  0  0  0  0  0  0  0  0  0
    9.3240  -17.6341   23.5586 C   0  0  0  0  0  0  0  0  0  0  0  0
    9.1053  -16.1726   23.4996 C   0  0  2  0  0  0  0  0  0  0  0  0
    9.0933  -15.5804   22.1912 N   0  0  0  0  0  0  0  0  0  0  0  0
    9.8029  -15.3768   24.5357 C   0  0  0  0  0  0  0  0  0  0  0  0
   11.0056  -15.0956   24.3538 O   0  0  0  0  0  0  0  0  0  0  0  0
    7.6519  -13.4880   27.1954 O   0  0  0  0  0  0  0  0  0  0  0  0
    8.9611  -13.0095   27.1958 C   0  0  0  0  0  0  0  0  0  0  0  0
    9.8410  -14.1492   26.7305 C   0  0  2  0  0  0  0  0  0  0  0  0
    9.1514  -14.9442   25.6987 N   0  0  0  0  0  0  0  0  0  0  0  0
   10.0457  -15.0514   27.9032 C   0  0  0  0  0  0  0  0  0  0  0  0
   10.6869  -14.6202   29.0566 O   0  0  0  0  0  0  0  0  0  0  0  0
    9.6464  -16.2514   27.9056 O   0  0  0  0  0  0  0  0  0  0  0  0
  1  2  1  0
  2  3  1  0
  4  3  1  0
  5  4  1  0
  5  1  1  0
  5  6  1  1
  6  7  2  0
  9  8  1  0
  9 11  1  0
 10  9  2  0
 11 12  1  0
 13 12  1  6
 13 15  1  0
 13 14  1  0
 14  6  1  0
 15 16  2  0
 15 20  1  0
 17 18  1  0
 19 18  1  1
 19 21  1  0
 20 19  1  0
 21 23  2  0
 21 22  1  0
M  END
$$$$
