PQS.pdb
     RDKit          3D

 23 23  0  0  1  0  0  0  0  0999 V2000
    8.3323  -15.0934   19.0802 N   0  0  0  0  0  0  0  0  0  0  0  0
    8.1666  -14.4606   17.7954 C   0  0  0  0  0  0  0  0  0  0  0  0
    7.9235  -13.0050   18.0260 C   0  0  0  0  0  0  0  0  0  0  0  0
    7.7265  -12.9170   19.5252 C   0  0  0  0  0  0  0  0  0  0  0  0
    8.5872  -14.0426   20.0297 C   0  0  1  0  0  0  0  0  0  0  0  0
    8.2099  -14.4486   21.4172 C   0  0  0  0  0  0  0  0  0  0  0  0
    8.2899  -13.6266   22.3640 O   0  0  0  0  0  0  0  0  0  0  0  0
    4.8308  -19.6824   22.8380 N   0  0  0  0  0  0  0  0  0  0  0  0
    4.4066  -18.5723   22.0832 C   0  0  0  0  0  0  0  0  0  0  0  0
    3.3407  -18.6187   21.4235 O   0  0  0  0  0  0  0  0  0  0  0  0
    5.1909  -17.3001   22.0285 C   0  0  0  0  0  0  0  0  0  0  0  0
    6.3376  -17.3518   22.9650 C   0  0  0  0  0  0  0  0  0  0  0  0
    7.2748  -16.2078   22.9759 C   0  0  2  0  0  0  0  0  0  0  0  0
    7.7553  -15.7629   21.6976 N   0  0  0  0  0  0  0  0  0  0  0  0
    8.2923  -16.2216   24.0520 C   0  0  0  0  0  0  0  0  0  0  0  0
    9.4432  -16.6157   23.7710 O   0  0  0  0  0  0  0  0  0  0  0  0
    9.6391  -15.0449   28.5168 O   0  0  0  0  0  0  0  0  0  0  0  0
    8.6670  -14.8902   27.5298 C   0  0  0  0  0  0  0  0  0  0  0  0
    8.9765  -15.9055   26.4514 C   0  0  2  0  0  0  0  0  0  0  0  0
    7.9924  -15.8121   25.3582 N   0  0  0  0  0  0  0  0  0  0  0  0
    8.8126  -17.2582   27.0634 C   0  0  0  0  0  0  0  0  0  0  0  0
    9.8489  -17.8868   27.7403 O   0  0  0  0  0  0  0  0  0  0  0  0
    7.7241  -17.8985   26.9963 O   0  0  0  0  0  0  0  0  0  0  0  0
  1  2  1  0
  2  3  1  0
  4  3  1  0
  5  4  1  0
  5  1  1  0
  5  6  1  1
  6  7  2  0
  9  8  1  0
  9 11  1  0
 10  9  2  0
 11 12  1  0
 13 12  1  6
 13 15  1  0
 13 14  1  0
 14  6  1  0
 15 16  2  0
 15 20  1  0
 17 18  1  0
 19 18  1  1
 19 21  1  0
 20 19  1  0
 21 23  2  0
 21 22  1  0
M  END
$$$$
