PQS.pdb
     RDKit          3D

 23 23  0  0  1  0  0  0  0  0999 V2000
    9.0208  -14.4434   17.8353 N   0  0  0  0  0  0  0  0  0  0  0  0
    8.3920  -13.7082   16.7663 C   0  0  0  0  0  0  0  0  0  0  0  0
    7.3916  -12.7788   17.3716 C   0  0  0  0  0  0  0  0  0  0  0  0
    7.3375  -13.2190   18.8198 C   0  0  0  0  0  0  0  0  0  0  0  0
    8.7319  -13.7324   19.0527 C   0  0  1  0  0  0  0  0  0  0  0  0
    8.7991  -14.6298   20.2454 C   0  0  0  0  0  0  0  0  0  0  0  0
    8.3403  -14.2515   21.3521 O   0  0  0  0  0  0  0  0  0  0  0  0
   10.7295  -20.7693   20.2101 N   0  0  0  0  0  0  0  0  0  0  0  0
    9.3460  -20.5105   20.2421 C   0  0  0  0  0  0  0  0  0  0  0  0
    8.5212  -21.4128   19.9613 O   0  0  0  0  0  0  0  0  0  0  0  0
    8.7954  -19.1686   20.6065 C   0  0  0  0  0  0  0  0  0  0  0  0
    9.8903  -18.2224   20.9237 C   0  0  0  0  0  0  0  0  0  0  0  0
    9.5256  -16.8295   21.2614 C   0  0  2  0  0  0  0  0  0  0  0  0
    9.3786  -15.9218   20.1581 N   0  0  0  0  0  0  0  0  0  0  0  0
   10.2008  -16.2592   22.4499 C   0  0  0  0  0  0  0  0  0  0  0  0
   11.2860  -15.6646   22.2836 O   0  0  0  0  0  0  0  0  0  0  0  0
    8.0760  -15.5215   25.6020 O   0  0  0  0  0  0  0  0  0  0  0  0
    9.3072  -14.8689   25.6409 C   0  0  0  0  0  0  0  0  0  0  0  0
   10.2929  -15.7561   24.9123 C   0  0  2  0  0  0  0  0  0  0  0  0
    9.6567  -16.3757   23.7361 N   0  0  0  0  0  0  0  0  0  0  0  0
   10.6521  -16.8681   25.8427 C   0  0  0  0  0  0  0  0  0  0  0  0
   11.3302  -16.6384   27.0322 O   0  0  0  0  0  0  0  0  0  0  0  0
   10.3576  -18.0729   25.5952 O   0  0  0  0  0  0  0  0  0  0  0  0
  1  2  1  0
  2  3  1  0
  4  3  1  0
  5  4  1  0
  5  1  1  0
  5  6  1  1
  6  7  2  0
  9  8  1  0
  9 11  1  0
 10  9  2  0
 11 12  1  0
 13 12  1  6
 13 15  1  0
 13 14  1  0
 14  6  1  0
 15 16  2  0
 15 20  1  0
 17 18  1  0
 19 18  1  1
 19 21  1  0
 20 19  1  0
 21 23  2  0
 21 22  1  0
M  END
$$$$
