PQS.pdb
     RDKit          3D

 23 23  0  0  1  0  0  0  0  0999 V2000
    7.8405  -14.8312   18.8382 N   0  0  0  0  0  0  0  0  0  0  0  0
    7.2682  -13.6676   18.2082 C   0  0  0  0  0  0  0  0  0  0  0  0
    7.4777  -12.5008   19.1169 C   0  0  0  0  0  0  0  0  0  0  0  0
    7.9872  -13.1388   20.3927 C   0  0  0  0  0  0  0  0  0  0  0  0
    8.7119  -14.3524   19.8786 C   0  0  1  0  0  0  0  0  0  0  0  0
    8.9068  -15.3755   20.9500 C   0  0  0  0  0  0  0  0  0  0  0  0
    7.9289  -16.0316   21.3878 O   0  0  0  0  0  0  0  0  0  0  0  0
   14.2815  -18.4662   21.8732 N   0  0  0  0  0  0  0  0  0  0  0  0
   13.1723  -19.3263   21.9833 C   0  0  0  0  0  0  0  0  0  0  0  0
   13.3172  -20.5691   21.8954 O   0  0  0  0  0  0  0  0  0  0  0  0
   11.7857  -18.8127   22.2070 C   0  0  0  0  0  0  0  0  0  0  0  0
   11.7871  -17.3356   22.3221 C   0  0  0  0  0  0  0  0  0  0  0  0
   10.4838  -16.6507   22.4617 C   0  0  2  0  0  0  0  0  0  0  0  0
   10.1917  -15.6293   21.4951 N   0  0  0  0  0  0  0  0  0  0  0  0
   10.0719  -16.3309   23.8479 C   0  0  0  0  0  0  0  0  0  0  0  0
   10.3951  -15.2205   24.3184 O   0  0  0  0  0  0  0  0  0  0  0  0
    6.8568  -16.6134   25.0476 O   0  0  0  0  0  0  0  0  0  0  0  0
    7.4625  -17.1083   26.2015 C   0  0  0  0  0  0  0  0  0  0  0  0
    8.9543  -16.9332   26.0190 C   0  0  2  0  0  0  0  0  0  0  0  0
    9.3425  -17.2366   24.6299 N   0  0  0  0  0  0  0  0  0  0  0  0
    9.6238  -17.9499   26.8846 C   0  0  0  0  0  0  0  0  0  0  0  0
    9.4820  -17.9444   28.2656 O   0  0  0  0  0  0  0  0  0  0  0  0
   10.3523  -18.8658   26.4048 O   0  0  0  0  0  0  0  0  0  0  0  0
  1  2  1  0
  2  3  1  0
  4  3  1  0
  5  4  1  0
  5  1  1  0
  5  6  1  1
  6  7  2  0
  9  8  1  0
  9 11  1  0
 10  9  2  0
 11 12  1  0
 13 12  1  1
 13 15  1  0
 13 14  1  0
 14  6  1  0
 15 16  2  0
 15 20  1  0
 17 18  1  0
 19 18  1  6
 19 21  1  0
 20 19  1  0
 21 23  2  0
 21 22  1  0
M  END
$$$$
