PQS.pdb
     RDKit          3D

 23 23  0  0  1  0  0  0  0  0999 V2000
    9.1180  -14.2413   17.7935 N   0  0  0  0  0  0  0  0  0  0  0  0
    8.3762  -13.4716   16.8262 C   0  0  0  0  0  0  0  0  0  0  0  0
    7.2659  -12.7759   17.5434 C   0  0  0  0  0  0  0  0  0  0  0  0
    7.2966  -13.3998   18.9233 C   0  0  0  0  0  0  0  0  0  0  0  0
    8.7523  -13.7383   19.0913 C   0  0  1  0  0  0  0  0  0  0  0  0
    8.9627  -14.7617   20.1595 C   0  0  0  0  0  0  0  0  0  0  0  0
    8.5174  -14.5713   21.3187 O   0  0  0  0  0  0  0  0  0  0  0  0
   10.2734  -21.8604   20.6974 N   0  0  0  0  0  0  0  0  0  0  0  0
   10.9921  -20.6543   20.5923 C   0  0  0  0  0  0  0  0  0  0  0  0
   12.0303  -20.5890   19.8914 O   0  0  0  0  0  0  0  0  0  0  0  0
   10.5631  -19.4079   21.2986 C   0  0  0  0  0  0  0  0  0  0  0  0
   10.3509  -18.3054   20.3319 C   0  0  0  0  0  0  0  0  0  0  0  0
    9.9303  -16.9906   20.8626 C   0  0  2  0  0  0  0  0  0  0  0  0
    9.6654  -15.9649   19.8927 N   0  0  0  0  0  0  0  0  0  0  0  0
   10.6444  -16.5297   22.0756 C   0  0  0  0  0  0  0  0  0  0  0  0
   11.6832  -15.8530   21.9277 O   0  0  0  0  0  0  0  0  0  0  0  0
    9.0685  -14.9504   25.1193 O   0  0  0  0  0  0  0  0  0  0  0  0
    9.8510  -15.9804   25.6389 C   0  0  0  0  0  0  0  0  0  0  0  0
   10.8647  -16.3365   24.5734 C   0  0  2  0  0  0  0  0  0  0  0  0
   10.1869  -16.8368   23.3641 N   0  0  0  0  0  0  0  0  0  0  0  0
   11.6823  -17.4669   25.1071 C   0  0  0  0  0  0  0  0  0  0  0  0
   11.7298  -18.7006   24.4723 O   0  0  0  0  0  0  0  0  0  0  0  0
   12.3714  -17.3583   26.1620 O   0  0  0  0  0  0  0  0  0  0  0  0
  1  2  1  0
  2  3  1  0
  4  3  1  0
  5  4  1  0
  5  1  1  0
  5  6  1  1
  6  7  2  0
  9  8  1  0
  9 11  1  0
 10  9  2  0
 11 12  1  0
 13 12  1  6
 13 15  1  0
 13 14  1  0
 14  6  1  0
 15 16  2  0
 15 20  1  0
 17 18  1  0
 19 18  1  1
 19 21  1  0
 20 19  1  0
 21 23  2  0
 21 22  1  0
M  END
$$$$
