PQS.pdb
     RDKit          3D

 23 23  0  0  1  0  0  0  0  0999 V2000
    9.0238  -14.4975   17.8663 N   0  0  0  0  0  0  0  0  0  0  0  0
    8.1792  -13.7383   16.9782 C   0  0  0  0  0  0  0  0  0  0  0  0
    7.2918  -12.8735   17.8124 C   0  0  0  0  0  0  0  0  0  0  0  0
    7.5331  -13.3799   19.2193 C   0  0  0  0  0  0  0  0  0  0  0  0
    8.9593  -13.8527   19.1512 C   0  0  1  0  0  0  0  0  0  0  0  0
    9.2818  -14.7996   20.2611 C   0  0  0  0  0  0  0  0  0  0  0  0
    9.0074  -14.5021   21.4504 O   0  0  0  0  0  0  0  0  0  0  0  0
   10.6917  -21.0684   20.6090 N   0  0  0  0  0  0  0  0  0  0  0  0
   10.1151  -20.4075   19.5077 C   0  0  0  0  0  0  0  0  0  0  0  0
    9.4813  -21.0511   18.6374 O   0  0  0  0  0  0  0  0  0  0  0  0
   10.2256  -18.9280   19.3200 C   0  0  0  0  0  0  0  0  0  0  0  0
   10.8202  -18.2915   20.5184 C   0  0  0  0  0  0  0  0  0  0  0  0
   10.2205  -17.0289   21.0014 C   0  0  2  0  0  0  0  0  0  0  0  0
    9.9016  -16.0490   20.0009 N   0  0  0  0  0  0  0  0  0  0  0  0
   10.8003  -16.4783   22.2481 C   0  0  0  0  0  0  0  0  0  0  0  0
   11.8134  -15.7543   22.1584 O   0  0  0  0  0  0  0  0  0  0  0  0
    8.5830  -16.2891   25.4191 O   0  0  0  0  0  0  0  0  0  0  0  0
    9.7403  -15.5268   25.5697 C   0  0  0  0  0  0  0  0  0  0  0  0
   10.8162  -16.2026   24.7479 C   0  0  2  0  0  0  0  0  0  0  0  0
   10.2459  -16.7533   23.5054 N   0  0  0  0  0  0  0  0  0  0  0  0
   11.3118  -17.3642   25.5455 C   0  0  0  0  0  0  0  0  0  0  0  0
   11.1543  -18.6729   25.1100 O   0  0  0  0  0  0  0  0  0  0  0  0
   11.8990  -17.2153   26.6557 O   0  0  0  0  0  0  0  0  0  0  0  0
  1  2  1  0
  2  3  1  0
  4  3  1  0
  5  4  1  0
  5  1  1  0
  5  6  1  1
  6  7  2  0
  9  8  1  0
  9 11  1  0
 10  9  2  0
 11 12  1  0
 13 12  1  6
 13 15  1  0
 13 14  1  0
 14  6  1  0
 15 16  2  0
 15 20  1  0
 17 18  1  0
 19 18  1  1
 19 21  1  0
 20 19  1  0
 21 23  2  0
 21 22  1  0
M  END
$$$$
