PQS.pdb
     RDKit          3D

 23 23  0  0  1  0  0  0  0  0999 V2000
    9.0776  -14.6448   19.3025 N   0  0  0  0  0  0  0  0  0  0  0  0
    8.5988  -14.1473   18.0370 C   0  0  0  0  0  0  0  0  0  0  0  0
    7.6104  -13.0617   18.3121 C   0  0  0  0  0  0  0  0  0  0  0  0
    7.3954  -13.1562   19.8084 C   0  0  0  0  0  0  0  0  0  0  0  0
    8.7260  -13.6624   20.2936 C   0  0  1  0  0  0  0  0  0  0  0  0
    8.6249  -14.2652   21.6570 C   0  0  0  0  0  0  0  0  0  0  0  0
    8.1325  -13.6078   22.6077 O   0  0  0  0  0  0  0  0  0  0  0  0
    9.4120  -20.4940   23.0213 N   0  0  0  0  0  0  0  0  0  0  0  0
    8.6161  -19.9059   22.0198 C   0  0  0  0  0  0  0  0  0  0  0  0
    8.0714  -20.6142   21.1395 O   0  0  0  0  0  0  0  0  0  0  0  0
    8.3816  -18.4304   21.9535 C   0  0  0  0  0  0  0  0  0  0  0  0
    9.0014  -17.7494   23.1141 C   0  0  0  0  0  0  0  0  0  0  0  0
    8.9417  -16.2725   23.1633 C   0  0  2  0  0  0  0  0  0  0  0  0
    9.0792  -15.5852   21.9097 N   0  0  0  0  0  0  0  0  0  0  0  0
    9.6482  -15.6390   24.3004 C   0  0  0  0  0  0  0  0  0  0  0  0
   10.8219  -15.2513   24.1240 O   0  0  0  0  0  0  0  0  0  0  0  0
    9.4257  -13.2626   28.4210 O   0  0  0  0  0  0  0  0  0  0  0  0
    8.7194  -13.8812   27.3907 C   0  0  0  0  0  0  0  0  0  0  0  0
    9.7043  -14.7664   26.6585 C   0  0  2  0  0  0  0  0  0  0  0  0
    9.0370  -15.4729   25.5504 N   0  0  0  0  0  0  0  0  0  0  0  0
   10.1562  -15.8118   27.6250 C   0  0  0  0  0  0  0  0  0  0  0  0
   11.1453  -15.5611   28.5664 O   0  0  0  0  0  0  0  0  0  0  0  0
    9.6622  -16.9760   27.6352 O   0  0  0  0  0  0  0  0  0  0  0  0
  1  2  1  0
  2  3  1  0
  4  3  1  0
  5  4  1  0
  5  1  1  0
  5  6  1  1
  6  7  2  0
  9  8  1  0
  9 11  1  0
 10  9  2  0
 11 12  1  0
 13 12  1  6
 13 15  1  0
 13 14  1  0
 14  6  1  0
 15 16  2  0
 15 20  1  0
 17 18  1  0
 19 18  1  1
 19 21  1  0
 20 19  1  0
 21 23  2  0
 21 22  1  0
M  END
$$$$
