CRV.pdb
     RDKit          3D

 25 24  0  0  1  0  0  0  0  0999 V2000
   24.9800  -15.2839  -17.4792 N   0  0  0  0  0  0  0  0  0  0  0  0
   24.4210  -14.7397  -16.2571 C   0  0  1  0  0  0  0  0  0  0  0  0
   25.5584  -14.4948  -15.3189 C   0  0  0  0  0  0  0  0  0  0  0  0
   26.4373  -16.0013  -14.8715 S   0  0  0  0  0  0  0  0  0  0  0  0
   23.5840  -13.5730  -16.5530 C   0  0  0  0  0  0  0  0  0  0  0  0
   23.9557  -12.7840  -17.4753 O   0  0  0  0  0  0  0  0  0  0  0  0
   18.8047  -16.8348  -15.0150 N   0  0  0  0  0  0  0  0  0  0  0  0
   17.9995  -16.6570  -16.1814 C   0  0  0  0  0  0  0  0  0  0  0  0
   17.5835  -17.6738  -16.8817 N   0  0  0  0  0  0  0  0  0  0  0  0
   17.6122  -15.3704  -16.6378 N   0  0  0  0  0  0  0  0  0  0  0  0
   17.9660  -14.1412  -15.8651 C   0  0  0  0  0  0  0  0  0  0  0  0
   19.3359  -13.8002  -16.3075 C   0  0  0  0  0  0  0  0  0  0  0  0
   20.0852  -12.6591  -15.8357 C   0  0  0  0  0  0  0  0  0  0  0  0
   21.4289  -12.2597  -16.2834 C   0  0  2  0  0  0  0  0  0  0  0  0
   22.3958  -13.3229  -15.8431 N   0  0  0  0  0  0  0  0  0  0  0  0
   21.9322  -11.0490  -15.5617 C   0  0  0  0  0  0  0  0  0  0  0  0
   22.3573  -11.0841  -14.3918 O   0  0  0  0  0  0  0  0  0  0  0  0
   16.9148  -17.4936  -17.6648 C   0  0  0  0  0  0  0  0  0  0  0  0
   24.6944   -8.7534  -16.4844 C   0  0  2  0  0  0  0  0  0  0  0  0
   23.5125   -7.8446  -16.2124 C   0  0  0  0  0  0  0  0  0  0  0  0
   22.9460   -7.4139  -17.5501 C   0  0  2  0  0  0  0  0  0  0  0  0
   22.4939   -8.6363  -15.4163 N   0  0  0  0  0  0  0  0  0  0  0  0
   21.9585   -9.7427  -16.1807 C   0  0  0  0  0  0  0  0  0  0  0  0
   21.4023   -7.6894  -15.0298 O   0  0  0  0  0  0  0  0  0  0  0  0
   21.6083   -6.6508  -14.1477 O   0  0  0  0  0  0  0  0  0  0  0  0
  2  5  1  0
  2  1  1  6
  3  4  1  0
  3  2  1  0
  5  6  2  0
  7  8  1  0
  8  9  2  0
  8 10  1  0
 10 11  1  0
 11 12  1  0
 12 13  1  0
 14 13  1  1
 15  5  1  0
 15 14  1  0
 16 14  1  0
 16 17  2  0
 19 18  1  6
 19 21  1  0
 20 19  1  0
 21 22  1  1
 21 23  1  0
 22 16  1  0
 23 24  1  0
 25 23  2  0
M  END
$$$$
