CRV.pdb
     RDKit          3D

 25 24  0  0  1  0  0  0  0  0999 V2000
   25.7511  -20.0019   -8.4404 N   0  0  0  0  0  0  0  0  0  0  0  0
   24.9262  -20.5533   -9.4976 C   0  0  1  0  0  0  0  0  0  0  0  0
   23.5168  -20.5659   -9.0004 C   0  0  0  0  0  0  0  0  0  0  0  0
   23.2551  -21.7384   -7.6592 S   0  0  0  0  0  0  0  0  0  0  0  0
   25.1474  -19.8254  -10.7508 C   0  0  0  0  0  0  0  0  0  0  0  0
   25.1856  -18.5572  -10.7115 O   0  0  0  0  0  0  0  0  0  0  0  0
   27.4029  -21.4997  -18.1219 N   0  0  0  0  0  0  0  0  0  0  0  0
   27.6233  -22.4428  -17.0719 C   0  0  0  0  0  0  0  0  0  0  0  0
   27.2013  -23.6720  -17.1625 N   0  0  0  0  0  0  0  0  0  0  0  0
   28.3094  -22.0931  -15.8800 N   0  0  0  0  0  0  0  0  0  0  0  0
   28.7018  -20.6775  -15.6051 C   0  0  0  0  0  0  0  0  0  0  0  0
   27.4750  -20.0435  -15.0746 C   0  0  0  0  0  0  0  0  0  0  0  0
   26.8368  -20.4139  -13.8329 C   0  0  0  0  0  0  0  0  0  0  0  0
   25.6598  -19.7631  -13.2359 C   0  0  2  0  0  0  0  0  0  0  0  0
   25.3168  -20.5016  -11.9725 N   0  0  0  0  0  0  0  0  0  0  0  0
   24.4262  -19.9503  -14.0624 C   0  0  0  0  0  0  0  0  0  0  0  0
   23.7726  -21.0102  -14.0759 O   0  0  0  0  0  0  0  0  0  0  0  0
   27.3058  -24.2928  -16.3279 C   0  0  0  0  0  0  0  0  0  0  0  0
   22.8939  -17.2322  -17.1079 C   0  0  2  0  0  0  0  0  0  0  0  0
   22.0050  -17.8367  -16.0396 C   0  0  0  0  0  0  0  0  0  0  0  0
   20.6451  -18.0861  -16.6597 C   0  0  1  0  0  0  0  0  0  0  0  0
   22.6450  -19.1335  -15.5848 N   0  0  0  0  0  0  0  0  0  0  0  0
   23.9047  -18.9020  -14.9105 C   0  0  0  0  0  0  0  0  0  0  0  0
   22.8499  -19.9764  -16.8035 O   0  0  0  0  0  0  0  0  0  0  0  0
   21.8458  -20.7562  -17.3352 O   0  0  0  0  0  0  0  0  0  0  0  0
  2  5  1  0
  2  1  1  1
  3  4  1  0
  3  2  1  0
  5  6  2  0
  7  8  1  0
  8  9  2  0
  8 10  1  0
 10 11  1  0
 11 12  1  0
 12 13  1  0
 14 13  1  6
 15  5  1  0
 15 14  1  0
 16 14  1  0
 16 17  2  0
 19 18  1  1
 19 21  1  0
 20 19  1  0
 21 22  1  1
 21 23  1  0
 22 16  1  0
 23 24  1  0
 25 23  2  0
M  END
$$$$
