CRV.pdb
     RDKit          3D

 25 24  0  0  1  0  0  0  0  0999 V2000
   20.0449  -22.5238  -13.6253 N   0  0  0  0  0  0  0  0  0  0  0  0
   19.2795  -21.6485  -14.4914 C   0  0  1  0  0  0  0  0  0  0  0  0
   17.9206  -21.5024  -13.8864 C   0  0  0  0  0  0  0  0  0  0  0  0
   17.2223  -23.0695  -13.3401 S   0  0  0  0  0  0  0  0  0  0  0  0
   20.0056  -20.3962  -14.7232 C   0  0  0  0  0  0  0  0  0  0  0  0
   19.8566  -19.4508  -13.8893 O   0  0  0  0  0  0  0  0  0  0  0  0
   26.1576  -22.0449  -11.0559 N   0  0  0  0  0  0  0  0  0  0  0  0
   25.0736  -21.1183  -10.9723 C   0  0  0  0  0  0  0  0  0  0  0  0
   24.5584  -20.7765   -9.8256 N   0  0  0  0  0  0  0  0  0  0  0  0
   24.5025  -20.5243  -12.1276 N   0  0  0  0  0  0  0  0  0  0  0  0
   25.1943  -20.5940  -13.4505 C   0  0  0  0  0  0  0  0  0  0  0  0
   24.3361  -19.8096  -14.3653 C   0  0  0  0  0  0  0  0  0  0  0  0
   23.0212  -20.2181  -14.8014 C   0  0  0  0  0  0  0  0  0  0  0  0
   22.1487  -19.4819  -15.7298 C   0  0  2  0  0  0  0  0  0  0  0  0
   20.8510  -20.2329  -15.8355 N   0  0  0  0  0  0  0  0  0  0  0  0
   22.6565  -19.5185  -17.1372 C   0  0  0  0  0  0  0  0  0  0  0  0
   22.7632  -20.5716  -17.7931 O   0  0  0  0  0  0  0  0  0  0  0  0
   23.7317  -20.1366   -9.8268 C   0  0  0  0  0  0  0  0  0  0  0  0
   22.6680  -16.2413  -19.7542 C   0  0  2  0  0  0  0  0  0  0  0  0
   22.6861  -17.6956  -20.1800 C   0  0  0  0  0  0  0  0  0  0  0  0
   23.2674  -17.7583  -21.5780 C   0  0  1  0  0  0  0  0  0  0  0  0
   23.5506  -18.4556  -19.1935 N   0  0  0  0  0  0  0  0  0  0  0  0
   23.0622  -18.3206  -17.8377 C   0  0  0  0  0  0  0  0  0  0  0  0
   24.9378  -17.9078  -19.3081 O   0  0  0  0  0  0  0  0  0  0  0  0
   25.8075  -18.3096  -20.2987 O   0  0  0  0  0  0  0  0  0  0  0  0
  2  5  1  0
  2  1  1  1
  3  4  1  0
  3  2  1  0
  5  6  2  0
  7  8  1  0
  8  9  2  0
  8 10  1  0
 10 11  1  0
 11 12  1  0
 12 13  1  0
 14 13  1  1
 15  5  1  0
 15 14  1  0
 16 14  1  0
 16 17  2  0
 19 18  1  6
 19 21  1  0
 20 19  1  0
 21 22  1  6
 21 23  1  0
 22 16  1  0
 23 24  1  0
 25 23  2  0
M  END
$$$$
