CRV.pdb
     RDKit          3D

 25 24  0  0  1  0  0  0  0  0999 V2000
   29.1590  -22.9786  -16.8320 N   0  0  0  0  0  0  0  0  0  0  0  0
   28.2844  -21.8222  -16.8338 C   0  0  1  0  0  0  0  0  0  0  0  0
   27.8946  -21.5623  -18.2531 C   0  0  0  0  0  0  0  0  0  0  0  0
   27.0492  -19.9878  -18.4727 S   0  0  0  0  0  0  0  0  0  0  0  0
   27.1721  -22.0211  -15.8997 C   0  0  0  0  0  0  0  0  0  0  0  0
   26.5975  -23.1528  -15.8802 O   0  0  0  0  0  0  0  0  0  0  0  0
   22.8176  -20.7238   -9.9481 N   0  0  0  0  0  0  0  0  0  0  0  0
   23.8535  -21.1259   -9.0505 C   0  0  0  0  0  0  0  0  0  0  0  0
   23.6833  -21.0970   -7.7592 N   0  0  0  0  0  0  0  0  0  0  0  0
   25.1170  -21.5751   -9.5147 N   0  0  0  0  0  0  0  0  0  0  0  0
   25.3073  -22.0045  -10.9334 C   0  0  0  0  0  0  0  0  0  0  0  0
   26.0956  -20.9167  -11.5529 C   0  0  0  0  0  0  0  0  0  0  0  0
   25.8670  -20.3983  -12.8816 C   0  0  0  0  0  0  0  0  0  0  0  0
   25.5972  -21.1961  -14.0883 C   0  0  2  0  0  0  0  0  0  0  0  0
   26.7433  -20.9941  -15.0394 N   0  0  0  0  0  0  0  0  0  0  0  0
   24.4345  -20.6694  -14.8698 C   0  0  0  0  0  0  0  0  0  0  0  0
   24.4716  -19.5974  -15.5023 O   0  0  0  0  0  0  0  0  0  0  0  0
   24.4767  -21.4000   -7.1496 C   0  0  0  0  0  0  0  0  0  0  0  0
   21.6858  -22.9273  -16.8681 C   0  0  2  0  0  0  0  0  0  0  0  0
   21.9998  -21.4621  -17.0949 C   0  0  0  0  0  0  0  0  0  0  0  0
   20.8631  -20.8675  -17.9014 C   0  0  1  0  0  0  0  0  0  0  0  0
   22.1131  -20.7979  -15.7369 N   0  0  0  0  0  0  0  0  0  0  0  0
   23.1761  -21.3773  -14.9436 C   0  0  0  0  0  0  0  0  0  0  0  0
   20.7947  -20.9675  -15.0507 O   0  0  0  0  0  0  0  0  0  0  0  0
   19.6647  -20.2880  -15.4513 O   0  0  0  0  0  0  0  0  0  0  0  0
  2  5  1  0
  2  1  1  6
  3  4  1  0
  3  2  1  0
  5  6  2  0
  7  8  1  0
  8  9  2  0
  8 10  1  0
 10 11  1  0
 11 12  1  0
 12 13  1  0
 14 13  1  1
 15  5  1  0
 15 14  1  0
 16 14  1  0
 16 17  2  0
 19 18  1  6
 19 21  1  0
 20 19  1  0
 21 22  1  6
 21 23  1  0
 22 16  1  0
 23 24  1  0
 25 23  2  0
M  END
$$$$
