CRV.pdb
     RDKit          3D

 25 24  0  0  1  0  0  0  0  0999 V2000
   27.3918  -17.2018  -17.5484 N   0  0  0  0  0  0  0  0  0  0  0  0
   26.1958  -16.6367  -16.9547 C   0  0  1  0  0  0  0  0  0  0  0  0
   25.7275  -15.5407  -17.8565 C   0  0  0  0  0  0  0  0  0  0  0  0
   26.7213  -14.0454  -17.7200 S   0  0  0  0  0  0  0  0  0  0  0  0
   25.2147  -17.6908  -16.6796 C   0  0  0  0  0  0  0  0  0  0  0  0
   25.1272  -18.6594  -17.4954 O   0  0  0  0  0  0  0  0  0  0  0  0
   25.3131  -23.4579  -12.9537 N   0  0  0  0  0  0  0  0  0  0  0  0
   25.4158  -22.2768  -12.1568 C   0  0  0  0  0  0  0  0  0  0  0  0
   26.2568  -22.1970  -11.1650 N   0  0  0  0  0  0  0  0  0  0  0  0
   24.6113  -21.1337  -12.4010 N   0  0  0  0  0  0  0  0  0  0  0  0
   23.1257  -21.2488  -12.5164 C   0  0  0  0  0  0  0  0  0  0  0  0
   22.6849  -19.9311  -13.0241 C   0  0  0  0  0  0  0  0  0  0  0  0
   23.5216  -19.0247  -13.7755 C   0  0  0  0  0  0  0  0  0  0  0  0
   23.4356  -18.7629  -15.2210 C   0  0  2  0  0  0  0  0  0  0  0  0
   24.3865  -17.6445  -15.5436 N   0  0  0  0  0  0  0  0  0  0  0  0
   22.1132  -18.1844  -15.6164 C   0  0  0  0  0  0  0  0  0  0  0  0
   21.7368  -17.0500  -15.2670 O   0  0  0  0  0  0  0  0  0  0  0  0
   26.3464  -21.2828  -10.6660 C   0  0  0  0  0  0  0  0  0  0  0  0
   20.5928  -17.6177  -18.9922 C   0  0  2  0  0  0  0  0  0  0  0  0
   19.5553  -18.3987  -18.2109 C   0  0  0  0  0  0  0  0  0  0  0  0
   19.6156  -19.8388  -18.6782 C   0  0  2  0  0  0  0  0  0  0  0  0
   19.9028  -18.2859  -16.7396 N   0  0  0  0  0  0  0  0  0  0  0  0
   21.1730  -18.9118  -16.4393 C   0  0  0  0  0  0  0  0  0  0  0  0
   18.7997  -18.9445  -15.9734 O   0  0  0  0  0  0  0  0  0  0  0  0
   17.5431  -18.3884  -15.8694 O   0  0  0  0  0  0  0  0  0  0  0  0
  2  5  1  0
  2  1  1  6
  3  4  1  0
  3  2  1  0
  5  6  2  0
  7  8  1  0
  8  9  2  0
  8 10  1  0
 10 11  1  0
 11 12  1  0
 12 13  1  0
 14 13  1  1
 15  5  1  0
 15 14  1  0
 16 14  1  0
 16 17  2  0
 19 18  1  6
 19 21  1  0
 20 19  1  0
 21 22  1  1
 21 23  1  0
 22 16  1  0
 23 24  1  0
 25 23  2  0
M  END
$$$$
