CRV.pdb
     RDKit          3D

 25 24  0  0  1  0  0  0  0  0999 V2000
   28.2323  -16.2763  -18.3298 N   0  0  0  0  0  0  0  0  0  0  0  0
   27.3758  -16.5504  -17.1925 C   0  0  1  0  0  0  0  0  0  0  0  0
   26.5423  -15.3317  -16.9602 C   0  0  0  0  0  0  0  0  0  0  0  0
   27.3606  -14.1077  -15.9238 S   0  0  0  0  0  0  0  0  0  0  0  0
   26.6300  -17.7950  -17.4025 C   0  0  0  0  0  0  0  0  0  0  0  0
   26.3366  -18.1275  -18.5920 O   0  0  0  0  0  0  0  0  0  0  0  0
   24.8343  -25.1720  -15.1468 N   0  0  0  0  0  0  0  0  0  0  0  0
   25.5141  -25.4015  -16.3820 C   0  0  0  0  0  0  0  0  0  0  0  0
   25.1470  -26.3522  -17.1936 N   0  0  0  0  0  0  0  0  0  0  0  0
   26.6202  -24.6110  -16.7887 N   0  0  0  0  0  0  0  0  0  0  0  0
   27.1171  -23.4874  -15.9380 C   0  0  0  0  0  0  0  0  0  0  0  0
   26.1268  -22.4050  -16.1285 C   0  0  0  0  0  0  0  0  0  0  0  0
   26.4601  -21.0036  -16.2345 C   0  0  0  0  0  0  0  0  0  0  0  0
   25.5236  -19.9113  -16.5428 C   0  0  2  0  0  0  0  0  0  0  0  0
   26.2448  -18.6109  -16.3235 N   0  0  0  0  0  0  0  0  0  0  0  0
   24.4026  -19.8275  -15.5547 C   0  0  0  0  0  0  0  0  0  0  0  0
   24.5768  -19.5558  -14.3520 O   0  0  0  0  0  0  0  0  0  0  0  0
   25.6412  -26.4366  -18.1109 C   0  0  0  0  0  0  0  0  0  0  0  0
   21.8355  -17.6831  -14.7887 C   0  0  2  0  0  0  0  0  0  0  0  0
   21.0524  -18.9679  -14.9701 C   0  0  0  0  0  0  0  0  0  0  0  0
   20.3883  -18.9135  -16.3310 C   0  0  2  0  0  0  0  0  0  0  0  0
   22.0315  -20.1222  -14.8849 N   0  0  0  0  0  0  0  0  0  0  0  0
   23.0268  -20.0594  -15.9339 C   0  0  0  0  0  0  0  0  0  0  0  0
   21.2364  -21.3847  -14.9916 O   0  0  0  0  0  0  0  0  0  0  0  0
   20.3851  -21.8040  -13.9923 O   0  0  0  0  0  0  0  0  0  0  0  0
  2  5  1  0
  2  1  1  6
  3  4  1  0
  3  2  1  0
  5  6  2  0
  7  8  1  0
  8  9  2  0
  8 10  1  0
 10 11  1  0
 11 12  1  0
 12 13  1  0
 14 13  1  1
 15  5  1  0
 15 14  1  0
 16 14  1  0
 16 17  2  0
 19 18  1  1
 19 21  1  0
 20 19  1  0
 21 22  1  1
 21 23  1  0
 22 16  1  0
 23 24  1  0
 25 23  2  0
M  END
$$$$
