CRV.pdb
     RDKit          3D

 25 24  0  0  1  0  0  0  0  0999 V2000
   26.9802  -17.0621  -16.7404 N   0  0  0  0  0  0  0  0  0  0  0  0
   25.8568  -16.8984  -15.8386 C   0  0  1  0  0  0  0  0  0  0  0  0
   24.9942  -15.8127  -16.3961 C   0  0  0  0  0  0  0  0  0  0  0  0
   25.6763  -14.1674  -16.1317 S   0  0  0  0  0  0  0  0  0  0  0  0
   25.1886  -18.1842  -15.6158 C   0  0  0  0  0  0  0  0  0  0  0  0
   25.0457  -18.9676  -16.6044 O   0  0  0  0  0  0  0  0  0  0  0  0
   26.4692  -21.3909   -8.1482 N   0  0  0  0  0  0  0  0  0  0  0  0
   25.2186  -21.3363   -8.8364 C   0  0  0  0  0  0  0  0  0  0  0  0
   24.0864  -21.4114   -8.1961 N   0  0  0  0  0  0  0  0  0  0  0  0
   25.1427  -21.1990  -10.2468 N   0  0  0  0  0  0  0  0  0  0  0  0
   26.3808  -21.1343  -11.0812 C   0  0  0  0  0  0  0  0  0  0  0  0
   25.8957  -20.8711  -12.4538 C   0  0  0  0  0  0  0  0  0  0  0  0
   24.5796  -20.3680  -12.7716 C   0  0  0  0  0  0  0  0  0  0  0  0
   24.1220  -19.9131  -14.0941 C   0  0  2  0  0  0  0  0  0  0  0  0
   24.7149  -18.5548  -14.3442 N   0  0  0  0  0  0  0  0  0  0  0  0
   22.6523  -19.6320  -14.1215 C   0  0  0  0  0  0  0  0  0  0  0  0
   22.1417  -18.6346  -13.5782 O   0  0  0  0  0  0  0  0  0  0  0  0
   23.2024  -21.4087   -8.7541 C   0  0  0  0  0  0  0  0  0  0  0  0
   20.2973  -19.4072  -17.0951 C   0  0  2  0  0  0  0  0  0  0  0  0
   19.6563  -20.3670  -16.1130 C   0  0  0  0  0  0  0  0  0  0  0  0
   19.8959  -21.7741  -16.6218 C   0  0  2  0  0  0  0  0  0  0  0  0
   20.3128  -20.1543  -14.7632 N   0  0  0  0  0  0  0  0  0  0  0  0
   21.7158  -20.5094  -14.7874 C   0  0  0  0  0  0  0  0  0  0  0  0
   19.5749  -21.0005  -13.7747 O   0  0  0  0  0  0  0  0  0  0  0  0
   18.2592  -20.7626  -13.4407 O   0  0  0  0  0  0  0  0  0  0  0  0
  2  5  1  0
  2  1  1  6
  3  4  1  0
  3  2  1  0
  5  6  2  0
  7  8  1  0
  8  9  2  0
  8 10  1  0
 10 11  1  0
 11 12  1  0
 12 13  1  0
 14 13  1  1
 15  5  1  0
 15 14  1  0
 16 14  1  0
 16 17  2  0
 19 18  1  6
 19 21  1  0
 20 19  1  0
 21 22  1  1
 21 23  1  0
 22 16  1  0
 23 24  1  0
 25 23  2  0
M  END
$$$$
