CRV.pdb
     RDKit          3D

 25 24  0  0  1  0  0  0  0  0999 V2000
   27.5347  -16.1925  -17.2878 N   0  0  0  0  0  0  0  0  0  0  0  0
   26.5287  -16.1636  -16.2441 C   0  0  1  0  0  0  0  0  0  0  0  0
   25.7899  -14.8710  -16.3749 C   0  0  0  0  0  0  0  0  0  0  0  0
   26.6301  -13.4967  -15.5703 S   0  0  0  0  0  0  0  0  0  0  0  0
   25.7009  -17.3724  -16.2984 C   0  0  0  0  0  0  0  0  0  0  0  0
   25.4943  -17.9101  -17.4296 O   0  0  0  0  0  0  0  0  0  0  0  0
   26.4028  -23.6406  -14.4502 N   0  0  0  0  0  0  0  0  0  0  0  0
   25.4893  -23.4004  -13.3786 C   0  0  0  0  0  0  0  0  0  0  0  0
   24.4966  -24.2089  -13.1373 N   0  0  0  0  0  0  0  0  0  0  0  0
   25.6130  -22.2739  -12.5245 N   0  0  0  0  0  0  0  0  0  0  0  0
   26.7117  -21.2794  -12.7169 C   0  0  0  0  0  0  0  0  0  0  0  0
   26.2541  -20.4250  -13.8345 C   0  0  0  0  0  0  0  0  0  0  0  0
   24.8741  -20.0807  -14.0861 C   0  0  0  0  0  0  0  0  0  0  0  0
   24.3793  -19.2270  -15.1778 C   0  0  2  0  0  0  0  0  0  0  0  0
   25.1453  -17.9345  -15.1349 N   0  0  0  0  0  0  0  0  0  0  0  0
   22.9711  -18.7735  -14.9514 C   0  0  0  0  0  0  0  0  0  0  0  0
   22.6567  -17.9479  -14.0737 O   0  0  0  0  0  0  0  0  0  0  0  0
   23.7858  -23.9200  -12.4273 C   0  0  0  0  0  0  0  0  0  0  0  0
   19.8893  -19.5603  -17.6714 C   0  0  2  0  0  0  0  0  0  0  0  0
   19.7787  -18.4057  -16.6960 C   0  0  0  0  0  0  0  0  0  0  0  0
   18.3079  -18.1916  -16.4014 C   0  0  1  0  0  0  0  0  0  0  0  0
   20.5384  -18.7864  -15.4406 N   0  0  0  0  0  0  0  0  0  0  0  0
   21.8687  -19.2692  -15.7446 C   0  0  0  0  0  0  0  0  0  0  0  0
   19.7422  -19.8457  -14.7465 O   0  0  0  0  0  0  0  0  0  0  0  0
   20.1746  -21.1512  -14.6587 O   0  0  0  0  0  0  0  0  0  0  0  0
  2  5  1  0
  2  1  1  6
  3  4  1  0
  3  2  1  0
  5  6  2  0
  7  8  1  0
  8  9  2  0
  8 10  1  0
 10 11  1  0
 11 12  1  0
 12 13  1  0
 14 13  1  1
 15  5  1  0
 15 14  1  0
 16 14  1  0
 16 17  2  0
 19 18  1  6
 19 21  1  0
 20 19  1  0
 21 22  1  6
 21 23  1  0
 22 16  1  0
 23 24  1  0
 25 23  2  0
M  END
$$$$
