CRV.pdb
     RDKit          3D

 25 24  0  0  1  0  0  0  0  0999 V2000
   21.4828  -14.6834  -17.5964 N   0  0  0  0  0  0  0  0  0  0  0  0
   20.0762  -14.3674  -17.4419 C   0  0  1  0  0  0  0  0  0  0  0  0
   19.3949  -15.6030  -16.9492 C   0  0  0  0  0  0  0  0  0  0  0  0
   17.6451  -15.3518  -16.6067 S   0  0  0  0  0  0  0  0  0  0  0  0
   19.9090  -13.1768  -16.6030 C   0  0  0  0  0  0  0  0  0  0  0  0
   20.3783  -13.2006  -15.4238 O   0  0  0  0  0  0  0  0  0  0  0  0
   20.2579   -5.9210  -14.3069 N   0  0  0  0  0  0  0  0  0  0  0  0
   21.4949   -6.6337  -14.2600 C   0  0  0  0  0  0  0  0  0  0  0  0
   22.2595   -6.6000  -13.2057 N   0  0  0  0  0  0  0  0  0  0  0  0
   21.9553   -7.4119  -15.3537 N   0  0  0  0  0  0  0  0  0  0  0  0
   21.1675   -7.5007  -16.6205 C   0  0  0  0  0  0  0  0  0  0  0  0
   20.0612   -8.4327  -16.3107 C   0  0  0  0  0  0  0  0  0  0  0  0
   20.1192   -9.8623  -16.5084 C   0  0  0  0  0  0  0  0  0  0  0  0
   19.0461  -10.8229  -16.2069 C   0  0  2  0  0  0  0  0  0  0  0  0
   19.2497  -12.0294  -17.0799 N   0  0  0  0  0  0  0  0  0  0  0  0
   17.7027  -10.3312  -16.6468 C   0  0  0  0  0  0  0  0  0  0  0  0
   17.3938  -10.1798  -17.8436 O   0  0  0  0  0  0  0  0  0  0  0  0
   23.1085   -7.2097  -13.1917 C   0  0  0  0  0  0  0  0  0  0  0  0
   14.3012  -11.7081  -16.1850 C   0  0  2  0  0  0  0  0  0  0  0  0
   14.2274  -10.2934  -15.6465 C   0  0  0  0  0  0  0  0  0  0  0  0
   14.3116  -10.3714  -14.1356 C   0  0  2  0  0  0  0  0  0  0  0  0
   15.3972   -9.5185  -16.2203 N   0  0  0  0  0  0  0  0  0  0  0  0
   16.6618   -9.9946  -15.7015 C   0  0  0  0  0  0  0  0  0  0  0  0
   15.1922   -8.0804  -15.8634 O   0  0  0  0  0  0  0  0  0  0  0  0
   14.2118   -7.3099  -16.4501 O   0  0  0  0  0  0  0  0  0  0  0  0
  2  5  1  0
  2  1  1  1
  3  4  1  0
  3  2  1  0
  5  6  2  0
  7  8  1  0
  8  9  2  0
  8 10  1  0
 10 11  1  0
 11 12  1  0
 12 13  1  0
 14 13  1  6
 15  5  1  0
 15 14  1  0
 16 14  1  0
 16 17  2  0
 19 18  1  1
 19 21  1  0
 20 19  1  0
 21 22  1  6
 21 23  1  0
 22 16  1  0
 23 24  1  0
 25 23  2  0
M  END
$$$$
