CRV.pdb
     RDKit          3D

 25 24  0  0  1  0  0  0  0  0999 V2000
   25.8206  -20.9997   -9.5259 N   0  0  0  0  0  0  0  0  0  0  0  0
   25.1918  -20.6714  -10.7904 C   0  0  1  0  0  0  0  0  0  0  0  0
   24.0005  -19.8215  -10.4866 C   0  0  0  0  0  0  0  0  0  0  0  0
   22.5662  -20.7803   -9.9712 S   0  0  0  0  0  0  0  0  0  0  0  0
   26.1699  -20.0822  -11.7099 C   0  0  0  0  0  0  0  0  0  0  0  0
   27.0310  -19.2776  -11.2380 O   0  0  0  0  0  0  0  0  0  0  0  0
   24.6170  -23.2074  -15.2856 N   0  0  0  0  0  0  0  0  0  0  0  0
   25.4328  -24.2790  -15.7617 C   0  0  0  0  0  0  0  0  0  0  0  0
   25.0125  -25.5120  -15.7464 N   0  0  0  0  0  0  0  0  0  0  0  0
   26.7381  -24.0592  -16.2732 N   0  0  0  0  0  0  0  0  0  0  0  0
   27.2905  -22.6768  -16.4043 C   0  0  0  0  0  0  0  0  0  0  0  0
   27.3938  -22.1799  -15.0147 C   0  0  0  0  0  0  0  0  0  0  0  0
   27.9235  -20.8872  -14.6478 C   0  0  0  0  0  0  0  0  0  0  0  0
   27.1705  -19.7877  -14.0238 C   0  0  2  0  0  0  0  0  0  0  0  0
   26.1679  -20.3930  -13.0817 N   0  0  0  0  0  0  0  0  0  0  0  0
   26.2972  -19.0687  -15.0038 C   0  0  0  0  0  0  0  0  0  0  0  0
   25.1179  -19.3978  -15.2310 O   0  0  0  0  0  0  0  0  0  0  0  0
   25.6504  -26.2557  -16.1107 C   0  0  0  0  0  0  0  0  0  0  0  0
   25.2549  -15.4801  -15.2496 C   0  0  2  0  0  0  0  0  0  0  0  0
   25.8400  -15.8233  -16.6048 C   0  0  0  0  0  0  0  0  0  0  0  0
   27.2379  -15.2416  -16.6631 C   0  0  2  0  0  0  0  0  0  0  0  0
   25.8707  -17.3341  -16.7262 N   0  0  0  0  0  0  0  0  0  0  0  0
   26.7692  -17.9313  -15.7613 C   0  0  0  0  0  0  0  0  0  0  0  0
   26.3084  -17.6567  -18.1198 O   0  0  0  0  0  0  0  0  0  0  0  0
   25.5568  -17.3166  -19.2236 O   0  0  0  0  0  0  0  0  0  0  0  0
  2  5  1  0
  2  1  1  1
  3  4  1  0
  3  2  1  0
  5  6  2  0
  7  8  1  0
  8  9  2  0
  8 10  1  0
 10 11  1  0
 11 12  1  0
 12 13  1  0
 14 13  1  6
 15  5  1  0
 15 14  1  0
 16 14  1  0
 16 17  2  0
 19 18  1  6
 19 21  1  0
 20 19  1  0
 21 22  1  6
 21 23  1  0
 22 16  1  0
 23 24  1  0
 25 23  2  0
M  END
$$$$
