CRV.pdb
     RDKit          3D

 25 24  0  0  1  0  0  0  0  0999 V2000
   28.3345  -22.0267  -16.4386 N   0  0  0  0  0  0  0  0  0  0  0  0
   27.4132  -20.9822  -16.0356 C   0  0  1  0  0  0  0  0  0  0  0  0
   27.0619  -20.2025  -17.2614 C   0  0  0  0  0  0  0  0  0  0  0  0
   28.4333  -19.2155  -17.8835 S   0  0  0  0  0  0  0  0  0  0  0  0
   26.2787  -21.5553  -15.3050 C   0  0  0  0  0  0  0  0  0  0  0  0
   25.9460  -22.7546  -15.5545 O   0  0  0  0  0  0  0  0  0  0  0  0
   23.3033  -19.4644   -9.4643 N   0  0  0  0  0  0  0  0  0  0  0  0
   23.6498  -20.7419   -8.9272 C   0  0  0  0  0  0  0  0  0  0  0  0
   22.8388  -21.3915   -8.1413 N   0  0  0  0  0  0  0  0  0  0  0  0
   24.8894  -21.3681   -9.2186 N   0  0  0  0  0  0  0  0  0  0  0  0
   25.9571  -20.6461   -9.9748 C   0  0  0  0  0  0  0  0  0  0  0  0
   25.8169  -21.1207  -11.3689 C   0  0  0  0  0  0  0  0  0  0  0  0
   24.6090  -21.0053  -12.1524 C   0  0  0  0  0  0  0  0  0  0  0  0
   24.4445  -21.4147  -13.5562 C   0  0  2  0  0  0  0  0  0  0  0  0
   25.5692  -20.8080  -14.3475 N   0  0  0  0  0  0  0  0  0  0  0  0
   23.2368  -20.7987  -14.1903 C   0  0  0  0  0  0  0  0  0  0  0  0
   23.1460  -19.5815  -14.4370 O   0  0  0  0  0  0  0  0  0  0  0  0
   23.1451  -22.3216   -7.7754 C   0  0  0  0  0  0  0  0  0  0  0  0
   21.4616  -21.4088  -17.4210 C   0  0  2  0  0  0  0  0  0  0  0  0
   20.3997  -21.5481  -16.3487 C   0  0  0  0  0  0  0  0  0  0  0  0
   20.1569  -23.0279  -16.1314 C   0  0  2  0  0  0  0  0  0  0  0  0
   20.9255  -20.8892  -15.0888 N   0  0  0  0  0  0  0  0  0  0  0  0
   22.0814  -21.5838  -14.5628 C   0  0  0  0  0  0  0  0  0  0  0  0
   19.8119  -20.8936  -14.0901 O   0  0  0  0  0  0  0  0  0  0  0  0
   18.6454  -20.1866  -14.2865 O   0  0  0  0  0  0  0  0  0  0  0  0
  2  5  1  0
  2  1  1  6
  3  4  1  0
  3  2  1  0
  5  6  2  0
  7  8  1  0
  8  9  2  0
  8 10  1  0
 10 11  1  0
 11 12  1  0
 12 13  1  0
 14 13  1  1
 15  5  1  0
 15 14  1  0
 16 14  1  0
 16 17  2  0
 19 18  1  6
 19 21  1  0
 20 19  1  0
 21 22  1  1
 21 23  1  0
 22 16  1  0
 23 24  1  0
 25 23  2  0
M  END
$$$$
