NWT.pdb
     RDKit          3D

 30 31  0  0  1  0  0  0  0  0999 V2000
    7.0127  -17.9617   18.3376 N   0  0  0  0  0  0  0  0  0  0  0  0
    7.7918  -16.8218   18.1746 C   0  0  0  0  0  0  0  0  0  0  0  0
    7.7412  -16.1897   17.0667 O   0  0  0  0  0  0  0  0  0  0  0  0
    8.6880  -16.2917   19.2384 C   0  0  0  0  0  0  0  0  0  0  0  0
    7.7461  -15.7145   20.3493 C   0  0  2  0  0  0  0  0  0  0  0  0
    7.0465  -14.6338   19.7500 N   0  0  0  0  0  0  0  0  0  0  0  0
    8.6400  -15.3149   21.4964 C   0  0  0  0  0  0  0  0  0  0  0  0
    9.3083  -14.2969   21.3943 O   0  0  0  0  0  0  0  0  0  0  0  0
    8.6977  -16.1314   22.6712 N   0  0  0  0  0  0  0  0  0  0  0  0
    9.4317  -16.0063   23.8311 C   0  0  1  0  0  0  0  0  0  0  0  0
    8.9002  -15.9561   25.2206 C   0  0  0  0  0  0  0  0  0  0  0  0
    7.6986  -15.2100   25.5418 C   0  0  0  0  0  0  0  0  0  0  0  0
    6.3827  -15.7195   25.6394 C   0  0  0  0  0  0  0  0  0  0  0  0
    5.5597  -14.7600   26.0549 N   0  0  0  0  0  0  0  0  0  0  0  0
    6.2985  -13.6203   26.2346 C   0  0  0  0  0  0  0  0  0  0  0  0
    5.9216  -12.3356   26.6139 C   0  0  0  0  0  0  0  0  0  0  0  0
    6.8684  -11.3587   26.6620 C   0  0  0  0  0  0  0  0  0  0  0  0
    8.1721  -11.5961   26.3568 C   0  0  0  0  0  0  0  0  0  0  0  0
    8.5576  -12.8800   25.9790 C   0  0  0  0  0  0  0  0  0  0  0  0
    7.5910  -13.9021   25.9201 C   0  0  0  0  0  0  0  0  0  0  0  0
   10.5818  -17.0136   23.8900 C   0  0  0  0  0  0  0  0  0  0  0  0
   10.2210  -18.2119   23.8909 O   0  0  0  0  0  0  0  0  0  0  0  0
   13.7757  -16.9550   21.7875 C   0  0  0  0  0  0  0  0  0  0  0  0
   14.2062  -17.1576   23.2585 C   0  0  1  0  0  0  0  0  0  0  0  0
   14.6945  -15.9534   23.7437 O   0  0  0  0  0  0  0  0  0  0  0  0
   13.0033  -17.6642   23.9874 C   0  0  2  0  0  0  0  0  0  0  0  0
   11.9234  -16.6608   23.9305 N   0  0  0  0  0  0  0  0  0  0  0  0
   13.3872  -17.8412   25.4312 C   0  0  0  0  0  0  0  0  0  0  0  0
   12.8237  -17.1466   26.3312 O   0  0  0  0  0  0  0  0  0  0  0  0
   14.3475  -18.7511   25.8113 O   0  0  0  0  0  0  0  0  0  0  0  0
  2  1  1  0
  2  3  2  0
  4  2  1  0
  5  7  1  0
  5  4  1  0
  5  6  1  6
  7  8  2  0
  9 10  1  0
  9  7  1  0
 10 21  1  0
 11 12  1  0
 10 11  1  1
 12 13  2  0
 14 13  1  0
 15 14  1  0
 16 15  2  0
 17 16  1  0
 18 19  1  0
 18 17  2  0
 19 20  2  0
 20 15  1  0
 20 12  1  0
 21 22  2  0
 24 23  1  6
 24 25  1  0
 24 26  1  0
 26 28  1  0
 26 27  1  1
 27 21  1  0
 28 29  2  0
 28 30  1  0
M  END
$$$$
