NWT.pdb
     RDKit          3D

 30 31  0  0  1  0  0  0  0  0999 V2000
   12.8330  -17.7200   16.9301 N   0  0  0  0  0  0  0  0  0  0  0  0
   11.9468  -18.0776   17.9399 C   0  0  0  0  0  0  0  0  0  0  0  0
   11.2043  -19.1033   17.7783 O   0  0  0  0  0  0  0  0  0  0  0  0
   11.8211  -17.3209   19.2156 C   0  0  0  0  0  0  0  0  0  0  0  0
   10.3260  -16.8601   19.2993 C   0  0  2  0  0  0  0  0  0  0  0  0
   10.1003  -16.0458   18.1581 N   0  0  0  0  0  0  0  0  0  0  0  0
   10.1786  -16.1383   20.6153 C   0  0  0  0  0  0  0  0  0  0  0  0
   11.0154  -15.3035   20.9252 O   0  0  0  0  0  0  0  0  0  0  0  0
    9.0768  -16.4465   21.4763 N   0  0  0  0  0  0  0  0  0  0  0  0
    8.7034  -15.9276   22.6973 C   0  0  1  0  0  0  0  0  0  0  0  0
    7.3716  -15.3691   23.0583 C   0  0  0  0  0  0  0  0  0  0  0  0
    7.0411  -15.0344   24.4303 C   0  0  0  0  0  0  0  0  0  0  0  0
    6.5543  -15.9135   25.4258 C   0  0  0  0  0  0  0  0  0  0  0  0
    6.4670  -15.2712   26.5879 N   0  0  0  0  0  0  0  0  0  0  0  0
    6.8834  -13.9813   26.3883 C   0  0  0  0  0  0  0  0  0  0  0  0
    6.9469  -12.8954   27.2562 C   0  0  0  0  0  0  0  0  0  0  0  0
    7.3560  -11.6900   26.7738 C   0  0  0  0  0  0  0  0  0  0  0  0
    7.7099  -11.5111   25.4731 C   0  0  0  0  0  0  0  0  0  0  0  0
    7.6515  -12.5938   24.5990 C   0  0  0  0  0  0  0  0  0  0  0  0
    7.2272  -13.8473   25.0795 C   0  0  0  0  0  0  0  0  0  0  0  0
    9.0558  -16.8704   23.8497 C   0  0  0  0  0  0  0  0  0  0  0  0
    8.4036  -17.9384   23.8629 O   0  0  0  0  0  0  0  0  0  0  0  0
   11.8553  -18.7995   24.2518 C   0  0  0  0  0  0  0  0  0  0  0  0
   11.8499  -18.0020   25.5763 C   0  0  1  0  0  0  0  0  0  0  0  0
   12.7324  -16.9390   25.4532 O   0  0  0  0  0  0  0  0  0  0  0  0
   10.4332  -17.5914   25.8193 C   0  0  2  0  0  0  0  0  0  0  0  0
   10.0193  -16.5977   24.8107 N   0  0  0  0  0  0  0  0  0  0  0  0
   10.3772  -16.9254   27.1671 C   0  0  0  0  0  0  0  0  0  0  0  0
   10.0663  -15.6987   27.2604 O   0  0  0  0  0  0  0  0  0  0  0  0
   10.6571  -17.6198   28.3221 O   0  0  0  0  0  0  0  0  0  0  0  0
  2  1  1  0
  2  3  2  0
  4  2  1  0
  5  7  1  0
  5  4  1  0
  5  6  1  6
  7  8  2  0
  9 10  1  0
  9  7  1  0
 10 21  1  0
 11 12  1  0
 10 11  1  6
 12 13  2  0
 14 13  1  0
 15 14  1  0
 16 15  2  0
 17 16  1  0
 18 19  1  0
 18 17  2  0
 19 20  2  0
 20 15  1  0
 20 12  1  0
 21 22  2  0
 24 23  1  6
 24 25  1  0
 24 26  1  0
 26 28  1  0
 26 27  1  6
 27 21  1  0
 28 29  2  0
 28 30  1  0
M  END
$$$$
