NWT.pdb
     RDKit          3D

 30 31  0  0  1  0  0  0  0  0999 V2000
    8.1614  -12.6355   17.9278 N   0  0  0  0  0  0  0  0  0  0  0  0
    7.7165  -13.7552   18.6214 C   0  0  0  0  0  0  0  0  0  0  0  0
    7.1435  -14.6964   17.9769 O   0  0  0  0  0  0  0  0  0  0  0  0
    7.8796  -13.9172   20.0922 C   0  0  0  0  0  0  0  0  0  0  0  0
    8.6165  -15.2846   20.2974 C   0  0  2  0  0  0  0  0  0  0  0  0
    7.6211  -16.2902   20.1775 N   0  0  0  0  0  0  0  0  0  0  0  0
    9.2673  -15.2148   21.6561 C   0  0  0  0  0  0  0  0  0  0  0  0
   10.2251  -14.4721   21.8120 O   0  0  0  0  0  0  0  0  0  0  0  0
    8.7634  -16.0187   22.7285 N   0  0  0  0  0  0  0  0  0  0  0  0
    9.2122  -16.1991   24.0190 C   0  0  1  0  0  0  0  0  0  0  0  0
    8.3950  -16.1457   25.2621 C   0  0  0  0  0  0  0  0  0  0  0  0
    7.3202  -15.1842   25.4171 C   0  0  0  0  0  0  0  0  0  0  0  0
    5.9312  -15.4469   25.3674 C   0  0  0  0  0  0  0  0  0  0  0  0
    5.2543  -14.3385   25.6566 N   0  0  0  0  0  0  0  0  0  0  0  0
    6.1624  -13.3411   25.8964 C   0  0  0  0  0  0  0  0  0  0  0  0
    5.9844  -11.9938   26.1957 C   0  0  0  0  0  0  0  0  0  0  0  0
    7.0812  -11.1994   26.3340 C   0  0  0  0  0  0  0  0  0  0  0  0
    8.3462  -11.6783   26.1947 C   0  0  0  0  0  0  0  0  0  0  0  0
    8.5326  -13.0262   25.8978 C   0  0  0  0  0  0  0  0  0  0  0  0
    7.4096  -13.8620   25.7475 C   0  0  0  0  0  0  0  0  0  0  0  0
   10.0514  -17.4708   24.1588 C   0  0  0  0  0  0  0  0  0  0  0  0
    9.4031  -18.5346   24.0402 O   0  0  0  0  0  0  0  0  0  0  0  0
   12.9098  -18.4511   22.0888 C   0  0  0  0  0  0  0  0  0  0  0  0
   13.4213  -18.5685   23.5431 C   0  0  1  0  0  0  0  0  0  0  0  0
   14.1833  -17.4463   23.8331 O   0  0  0  0  0  0  0  0  0  0  0  0
   12.2118  -18.7226   24.4079 C   0  0  2  0  0  0  0  0  0  0  0  0
   11.4200  -17.4780   24.3887 N   0  0  0  0  0  0  0  0  0  0  0  0
   12.6860  -18.9410   25.8188 C   0  0  0  0  0  0  0  0  0  0  0  0
   12.4736  -18.0602   26.7070 O   0  0  0  0  0  0  0  0  0  0  0  0
   13.3541  -20.0887   26.1810 O   0  0  0  0  0  0  0  0  0  0  0  0
  2  1  1  0
  2  3  2  0
  4  2  1  0
  5  7  1  0
  5  4  1  0
  5  6  1  1
  7  8  2  0
  9 10  1  0
  9  7  1  0
 10 21  1  0
 11 12  1  0
 10 11  1  1
 12 13  2  0
 14 13  1  0
 15 14  1  0
 16 15  2  0
 17 16  1  0
 18 19  1  0
 18 17  2  0
 19 20  2  0
 20 15  1  0
 20 12  1  0
 21 22  2  0
 24 23  1  6
 24 25  1  0
 24 26  1  0
 26 28  1  0
 26 27  1  1
 27 21  1  0
 28 29  2  0
 28 30  1  0
M  END
$$$$
