NWT.pdb
     RDKit          3D

 30 31  0  0  1  0  0  0  0  0999 V2000
   10.0314  -17.0547   18.5142 N   0  0  0  0  0  0  0  0  0  0  0  0
    9.9860  -15.7405   18.9654 C   0  0  0  0  0  0  0  0  0  0  0  0
    9.8863  -14.7955   18.1130 O   0  0  0  0  0  0  0  0  0  0  0  0
   10.0437  -15.3745   20.4072 C   0  0  0  0  0  0  0  0  0  0  0  0
   10.1746  -16.7247   21.1911 C   0  0  2  0  0  0  0  0  0  0  0  0
    8.9590  -17.4258   20.9735 N   0  0  0  0  0  0  0  0  0  0  0  0
   10.4284  -16.3551   22.6310 C   0  0  0  0  0  0  0  0  0  0  0  0
   11.3435  -15.5872   22.8887 O   0  0  0  0  0  0  0  0  0  0  0  0
    9.6073  -16.9115   23.6637 N   0  0  0  0  0  0  0  0  0  0  0  0
    9.6225  -16.7379   25.0309 C   0  0  1  0  0  0  0  0  0  0  0  0
    8.4970  -16.2624   25.8811 C   0  0  0  0  0  0  0  0  0  0  0  0
    7.5630  -15.2603   25.4043 C   0  0  0  0  0  0  0  0  0  0  0  0
    6.5134  -15.4506   24.4755 C   0  0  0  0  0  0  0  0  0  0  0  0
    5.8047  -14.3299   24.3634 N   0  0  0  0  0  0  0  0  0  0  0  0
    6.3608  -13.3952   25.1964 C   0  0  0  0  0  0  0  0  0  0  0  0
    6.0341  -12.0616   25.4233 C   0  0  0  0  0  0  0  0  0  0  0  0
    6.8007  -11.3324   26.2798 C   0  0  0  0  0  0  0  0  0  0  0  0
    7.8728  -11.8637   26.9260 C   0  0  0  0  0  0  0  0  0  0  0  0
    8.2044  -13.1983   26.7062 C   0  0  0  0  0  0  0  0  0  0  0  0
    7.4249  -13.9669   25.8207 C   0  0  0  0  0  0  0  0  0  0  0  0
   10.1650  -17.9708   25.7566 C   0  0  0  0  0  0  0  0  0  0  0  0
    9.4416  -18.9875   25.6618 O   0  0  0  0  0  0  0  0  0  0  0  0
   13.4543  -19.5062   25.1906 C   0  0  0  0  0  0  0  0  0  0  0  0
   13.3590  -19.3530   26.7261 C   0  0  1  0  0  0  0  0  0  0  0  0
   14.1154  -18.2542   27.1062 O   0  0  0  0  0  0  0  0  0  0  0  0
   11.9050  -19.2325   27.0517 C   0  0  2  0  0  0  0  0  0  0  0  0
   11.3601  -17.9950   26.4618 N   0  0  0  0  0  0  0  0  0  0  0  0
   11.7813  -19.1192   28.5467 C   0  0  0  0  0  0  0  0  0  0  0  0
   11.3571  -18.0451   29.0724 O   0  0  0  0  0  0  0  0  0  0  0  0
   12.1194  -20.1650   29.3753 O   0  0  0  0  0  0  0  0  0  0  0  0
  2  1  1  0
  2  3  2  0
  4  2  1  0
  5  7  1  0
  5  4  1  0
  5  6  1  1
  7  8  2  0
  9 10  1  0
  9  7  1  0
 10 21  1  0
 11 12  1  0
 10 11  1  1
 12 13  2  0
 14 13  1  0
 15 14  1  0
 16 15  2  0
 17 16  1  0
 18 19  1  0
 18 17  2  0
 19 20  2  0
 20 15  1  0
 20 12  1  0
 21 22  2  0
 24 23  1  6
 24 25  1  0
 24 26  1  0
 26 28  1  0
 26 27  1  6
 27 21  1  0
 28 29  2  0
 28 30  1  0
M  END
$$$$
