NWT.pdb
     RDKit          3D

 30 31  0  0  1  0  0  0  0  0999 V2000
    8.8679  -12.9183   16.0809 N   0  0  0  0  0  0  0  0  0  0  0  0
    7.9862  -13.6948   16.8243 C   0  0  0  0  0  0  0  0  0  0  0  0
    7.1658  -14.4582   16.2130 O   0  0  0  0  0  0  0  0  0  0  0  0
    7.9521  -13.6854   18.3124 C   0  0  0  0  0  0  0  0  0  0  0  0
    8.7523  -14.9518   18.7712 C   0  0  2  0  0  0  0  0  0  0  0  0
    7.9685  -16.0727   18.3893 N   0  0  0  0  0  0  0  0  0  0  0  0
    8.9500  -14.8112   20.2598 C   0  0  0  0  0  0  0  0  0  0  0  0
    9.8797  -14.1315   20.6680 O   0  0  0  0  0  0  0  0  0  0  0  0
    8.0594  -15.4774   21.1617 N   0  0  0  0  0  0  0  0  0  0  0  0
    7.9956  -15.4836   22.5385 C   0  0  1  0  0  0  0  0  0  0  0  0
    6.7672  -15.3872   23.3738 C   0  0  0  0  0  0  0  0  0  0  0  0
    6.8389  -15.0593   24.7848 C   0  0  0  0  0  0  0  0  0  0  0  0
    6.8546  -15.9680   25.8687 C   0  0  0  0  0  0  0  0  0  0  0  0
    7.0327  -15.3043   27.0082 N   0  0  0  0  0  0  0  0  0  0  0  0
    7.1341  -13.9715   26.7076 C   0  0  0  0  0  0  0  0  0  0  0  0
    7.2823  -12.8570   27.5277 C   0  0  0  0  0  0  0  0  0  0  0  0
    7.3013  -11.6198   26.9603 C   0  0  0  0  0  0  0  0  0  0  0  0
    7.1854  -11.4351   25.6180 C   0  0  0  0  0  0  0  0  0  0  0  0
    7.0395  -12.5458   24.7904 C   0  0  0  0  0  0  0  0  0  0  0  0
    7.0140  -13.8330   25.3602 C   0  0  0  0  0  0  0  0  0  0  0  0
    8.7862  -16.6467   23.1411 C   0  0  0  0  0  0  0  0  0  0  0  0
    8.2864  -17.7751   22.9335 O   0  0  0  0  0  0  0  0  0  0  0  0
   11.8961  -17.9996   22.2479 C   0  0  0  0  0  0  0  0  0  0  0  0
   12.0964  -17.6643   23.7439 C   0  0  1  0  0  0  0  0  0  0  0  0
   12.7714  -16.4561   23.8371 O   0  0  0  0  0  0  0  0  0  0  0  0
   10.7353  -17.6500   24.3620 C   0  0  2  0  0  0  0  0  0  0  0  0
    9.9668  -16.4973   23.8552 N   0  0  0  0  0  0  0  0  0  0  0  0
   10.9109  -17.4660   25.8448 C   0  0  0  0  0  0  0  0  0  0  0  0
   10.4998  -16.4068   26.4095 O   0  0  0  0  0  0  0  0  0  0  0  0
   11.5137  -18.4302   26.6204 O   0  0  0  0  0  0  0  0  0  0  0  0
  2  1  1  0
  2  3  2  0
  4  2  1  0
  5  7  1  0
  5  4  1  0
  5  6  1  1
  7  8  2  0
  9 10  1  0
  9  7  1  0
 10 21  1  0
 11 12  1  0
 10 11  1  6
 12 13  2  0
 14 13  1  0
 15 14  1  0
 16 15  2  0
 17 16  1  0
 18 19  1  0
 18 17  2  0
 19 20  2  0
 20 15  1  0
 20 12  1  0
 21 22  2  0
 24 23  1  6
 24 25  1  0
 24 26  1  0
 26 28  1  0
 26 27  1  6
 27 21  1  0
 28 29  2  0
 28 30  1  0
M  END
$$$$
