NWT.pdb
     RDKit          3D

 30 31  0  0  1  0  0  0  0  0999 V2000
    8.0354  -15.8544   17.6558 N   0  0  0  0  0  0  0  0  0  0  0  0
    8.0727  -14.5887   18.2300 C   0  0  0  0  0  0  0  0  0  0  0  0
    7.9209  -13.5646   17.4832 O   0  0  0  0  0  0  0  0  0  0  0  0
    8.2779  -14.3637   19.6871 C   0  0  0  0  0  0  0  0  0  0  0  0
    8.4631  -15.7841   20.3220 C   0  0  2  0  0  0  0  0  0  0  0  0
    7.1652  -16.3557   20.3938 N   0  0  0  0  0  0  0  0  0  0  0  0
    9.1201  -15.5662   21.6619 C   0  0  0  0  0  0  0  0  0  0  0  0
    9.9512  -14.6772   21.7719 O   0  0  0  0  0  0  0  0  0  0  0  0
    8.7697  -16.4023   22.7703 N   0  0  0  0  0  0  0  0  0  0  0  0
    9.2443  -16.4449   24.0636 C   0  0  1  0  0  0  0  0  0  0  0  0
    8.4512  -16.2627   25.3101 C   0  0  0  0  0  0  0  0  0  0  0  0
    7.4116  -15.2555   25.4018 C   0  0  0  0  0  0  0  0  0  0  0  0
    6.0145  -15.4683   25.3417 C   0  0  0  0  0  0  0  0  0  0  0  0
    5.3760  -14.3228   25.5670 N   0  0  0  0  0  0  0  0  0  0  0  0
    6.3178  -13.3496   25.7743 C   0  0  0  0  0  0  0  0  0  0  0  0
    6.1868  -11.9838   26.0066 C   0  0  0  0  0  0  0  0  0  0  0  0
    7.3109  -11.2252   26.1253 C   0  0  0  0  0  0  0  0  0  0  0  0
    8.5587  -11.7571   26.0295 C   0  0  0  0  0  0  0  0  0  0  0  0
    8.6980  -13.1236   25.7998 C   0  0  0  0  0  0  0  0  0  0  0  0
    7.5464  -13.9232   25.6708 C   0  0  0  0  0  0  0  0  0  0  0  0
   10.0914  -17.6930   24.3197 C   0  0  0  0  0  0  0  0  0  0  0  0
    9.4845  -18.7743   24.1505 O   0  0  0  0  0  0  0  0  0  0  0  0
   13.3939  -18.5264   22.8030 C   0  0  0  0  0  0  0  0  0  0  0  0
   13.5838  -18.7174   24.3254 C   0  0  1  0  0  0  0  0  0  0  0  0
   14.2737  -17.6219   24.8233 O   0  0  0  0  0  0  0  0  0  0  0  0
   12.2171  -18.8907   24.9057 C   0  0  2  0  0  0  0  0  0  0  0  0
   11.4258  -17.6628   24.6998 N   0  0  0  0  0  0  0  0  0  0  0  0
   12.3742  -19.0900   26.3886 C   0  0  0  0  0  0  0  0  0  0  0  0
   11.9476  -18.2120   27.1992 O   0  0  0  0  0  0  0  0  0  0  0  0
   12.9765  -20.2167   26.9006 O   0  0  0  0  0  0  0  0  0  0  0  0
  2  1  1  0
  2  3  2  0
  4  2  1  0
  5  7  1  0
  5  4  1  0
  5  6  1  1
  7  8  2  0
  9 10  1  0
  9  7  1  0
 10 21  1  0
 11 12  1  0
 10 11  1  1
 12 13  2  0
 14 13  1  0
 15 14  1  0
 16 15  2  0
 17 16  1  0
 18 19  1  0
 18 17  2  0
 19 20  2  0
 20 15  1  0
 20 12  1  0
 21 22  2  0
 24 23  1  6
 24 25  1  0
 24 26  1  0
 26 28  1  0
 26 27  1  1
 27 21  1  0
 28 29  2  0
 28 30  1  0
M  END
$$$$
