NWT.pdb
     RDKit          3D

 30 31  0  0  1  0  0  0  0  0999 V2000
    9.7351  -15.9815   18.0318 N   0  0  0  0  0  0  0  0  0  0  0  0
    8.7109  -15.8348   18.9604 C   0  0  0  0  0  0  0  0  0  0  0  0
    7.5029  -16.0000   18.5821 O   0  0  0  0  0  0  0  0  0  0  0  0
    8.9528  -15.4960   20.3895 C   0  0  0  0  0  0  0  0  0  0  0  0
    9.5051  -16.8019   21.0560 C   0  0  2  0  0  0  0  0  0  0  0  0
    8.4155  -17.7113   21.1028 N   0  0  0  0  0  0  0  0  0  0  0  0
   10.0328  -16.3959   22.4092 C   0  0  0  0  0  0  0  0  0  0  0  0
   11.0026  -15.6544   22.4640 O   0  0  0  0  0  0  0  0  0  0  0  0
    9.4011  -16.8881   23.5962 N   0  0  0  0  0  0  0  0  0  0  0  0
    9.7547  -16.7859   24.9243 C   0  0  1  0  0  0  0  0  0  0  0  0
    8.9057  -16.2758   26.0356 C   0  0  0  0  0  0  0  0  0  0  0  0
    7.7430  -15.4481   25.7773 C   0  0  0  0  0  0  0  0  0  0  0  0
    6.4529  -15.8888   25.4002 C   0  0  0  0  0  0  0  0  0  0  0  0
    5.6199  -14.8521   25.3553 N   0  0  0  0  0  0  0  0  0  0  0  0
    6.3276  -13.7285   25.6925 C   0  0  0  0  0  0  0  0  0  0  0  0
    5.9463  -12.3918   25.7568 C   0  0  0  0  0  0  0  0  0  0  0  0
    6.8818  -11.4547   26.0729 C   0  0  0  0  0  0  0  0  0  0  0  0
    8.1761  -11.7804   26.3333 C   0  0  0  0  0  0  0  0  0  0  0  0
    8.5647  -13.1164   26.2736 C   0  0  0  0  0  0  0  0  0  0  0  0
    7.6114  -14.0989   25.9446 C   0  0  0  0  0  0  0  0  0  0  0  0
   10.3526  -18.0895   25.4576 C   0  0  0  0  0  0  0  0  0  0  0  0
    9.5659  -19.0627   25.4459 O   0  0  0  0  0  0  0  0  0  0  0  0
   13.6154  -19.7727   24.4632 C   0  0  0  0  0  0  0  0  0  0  0  0
   13.6213  -19.6462   26.0041 C   0  0  1  0  0  0  0  0  0  0  0  0
   14.4305  -18.5754   26.3542 O   0  0  0  0  0  0  0  0  0  0  0  0
   12.1946  -19.4932   26.4234 C   0  0  2  0  0  0  0  0  0  0  0  0
   11.6567  -18.2173   25.9145 N   0  0  0  0  0  0  0  0  0  0  0  0
   12.1658  -19.4345   27.9264 C   0  0  0  0  0  0  0  0  0  0  0  0
   11.8189  -18.3663   28.5168 O   0  0  0  0  0  0  0  0  0  0  0  0
   12.5096  -20.5246   28.6931 O   0  0  0  0  0  0  0  0  0  0  0  0
  2  1  1  0
  2  3  2  0
  4  2  1  0
  5  7  1  0
  5  4  1  0
  5  6  1  1
  7  8  2  0
  9 10  1  0
  9  7  1  0
 10 21  1  0
 11 12  1  0
 10 11  1  1
 12 13  2  0
 14 13  1  0
 15 14  1  0
 16 15  2  0
 17 16  1  0
 18 19  1  0
 18 17  2  0
 19 20  2  0
 20 15  1  0
 20 12  1  0
 21 22  2  0
 24 23  1  6
 24 25  1  0
 24 26  1  0
 26 28  1  0
 26 27  1  6
 27 21  1  0
 28 29  2  0
 28 30  1  0
M  END
$$$$
