NWT.pdb
     RDKit          3D

 30 31  0  0  1  0  0  0  0  0999 V2000
    8.7561  -15.3113   15.9653 N   0  0  0  0  0  0  0  0  0  0  0  0
    8.3606  -14.1240   16.5708 C   0  0  0  0  0  0  0  0  0  0  0  0
    7.9491  -13.1622   15.8392 O   0  0  0  0  0  0  0  0  0  0  0  0
    8.3879  -13.9156   18.0445 C   0  0  0  0  0  0  0  0  0  0  0  0
    8.9699  -15.2350   18.6569 C   0  0  2  0  0  0  0  0  0  0  0  0
    8.0561  -16.2658   18.3122 N   0  0  0  0  0  0  0  0  0  0  0  0
    9.1002  -14.9917   20.1397 C   0  0  0  0  0  0  0  0  0  0  0  0
   10.0783  -14.3869   20.5528 O   0  0  0  0  0  0  0  0  0  0  0  0
    8.0904  -15.4767   21.0315 N   0  0  0  0  0  0  0  0  0  0  0  0
    8.0006  -15.4474   22.4066 C   0  0  1  0  0  0  0  0  0  0  0  0
    6.7584  -15.3120   23.2156 C   0  0  0  0  0  0  0  0  0  0  0  0
    6.8119  -15.0565   24.6423 C   0  0  0  0  0  0  0  0  0  0  0  0
    6.7314  -16.0137   25.6806 C   0  0  0  0  0  0  0  0  0  0  0  0
    6.9228  -15.4186   26.8553 N   0  0  0  0  0  0  0  0  0  0  0  0
    7.1275  -14.0840   26.6227 C   0  0  0  0  0  0  0  0  0  0  0  0
    7.3305  -13.0228   27.4997 C   0  0  0  0  0  0  0  0  0  0  0  0
    7.4540  -11.7650   26.9939 C   0  0  0  0  0  0  0  0  0  0  0  0
    7.3908  -11.5099   25.6597 C   0  0  0  0  0  0  0  0  0  0  0  0
    7.1905  -12.5671   24.7755 C   0  0  0  0  0  0  0  0  0  0  0  0
    7.0570  -13.8744   25.2810 C   0  0  0  0  0  0  0  0  0  0  0  0
    8.7620  -16.6066   23.0528 C   0  0  0  0  0  0  0  0  0  0  0  0
    8.2333  -17.7289   22.8885 O   0  0  0  0  0  0  0  0  0  0  0  0
   12.2172  -17.6970   22.3831 C   0  0  0  0  0  0  0  0  0  0  0  0
   12.1421  -17.4932   23.9138 C   0  0  1  0  0  0  0  0  0  0  0  0
   12.7043  -16.2631   24.2217 O   0  0  0  0  0  0  0  0  0  0  0  0
   10.6999  -17.6138   24.2883 C   0  0  2  0  0  0  0  0  0  0  0  0
    9.9468  -16.4603   23.7605 N   0  0  0  0  0  0  0  0  0  0  0  0
   10.6142  -17.5674   25.7896 C   0  0  0  0  0  0  0  0  0  0  0  0
   10.0355  -16.5964   26.3661 O   0  0  0  0  0  0  0  0  0  0  0  0
   11.1534  -18.5651   26.5696 O   0  0  0  0  0  0  0  0  0  0  0  0
  2  1  1  0
  2  3  2  0
  4  2  1  0
  5  7  1  0
  5  4  1  0
  5  6  1  1
  7  8  2  0
  9 10  1  0
  9  7  1  0
 10 21  1  0
 11 12  1  0
 10 11  1  6
 12 13  2  0
 14 13  1  0
 15 14  1  0
 16 15  2  0
 17 16  1  0
 18 19  1  0
 18 17  2  0
 19 20  2  0
 20 15  1  0
 20 12  1  0
 21 22  2  0
 24 23  1  6
 24 25  1  0
 24 26  1  0
 26 28  1  0
 26 27  1  6
 27 21  1  0
 28 29  2  0
 28 30  1  0
M  END
$$$$
