NWT.pdb
     RDKit          3D

 30 31  0  0  1  0  0  0  0  0999 V2000
   13.1955  -16.4280   17.1304 N   0  0  0  0  0  0  0  0  0  0  0  0
   11.8546  -16.4546   17.4963 C   0  0  0  0  0  0  0  0  0  0  0  0
   11.0203  -17.0674   16.7494 O   0  0  0  0  0  0  0  0  0  0  0  0
   11.3364  -15.8023   18.7300 C   0  0  0  0  0  0  0  0  0  0  0  0
   10.9498  -16.9664   19.7047 C   0  0  2  0  0  0  0  0  0  0  0  0
    9.8109  -17.5950   19.1354 N   0  0  0  0  0  0  0  0  0  0  0  0
   10.6994  -16.3279   21.0480 C   0  0  0  0  0  0  0  0  0  0  0  0
   11.6188  -15.7446   21.6026 O   0  0  0  0  0  0  0  0  0  0  0  0
    9.4037  -16.4225   21.6502 N   0  0  0  0  0  0  0  0  0  0  0  0
    8.9237  -15.9545   22.8544 C   0  0  1  0  0  0  0  0  0  0  0  0
    7.5482  -15.4582   23.1328 C   0  0  0  0  0  0  0  0  0  0  0  0
    7.1546  -15.0338   24.4627 C   0  0  0  0  0  0  0  0  0  0  0  0
    6.6132  -15.8442   25.4879 C   0  0  0  0  0  0  0  0  0  0  0  0
    6.4751  -15.1276   26.6006 N   0  0  0  0  0  0  0  0  0  0  0  0
    6.9111  -13.8554   26.3388 C   0  0  0  0  0  0  0  0  0  0  0  0
    6.9416  -12.7160   27.1370 C   0  0  0  0  0  0  0  0  0  0  0  0
    7.3832  -11.5463   26.5985 C   0  0  0  0  0  0  0  0  0  0  0  0
    7.8009  -11.4538   25.3077 C   0  0  0  0  0  0  0  0  0  0  0  0
    7.7760  -12.5904   24.5034 C   0  0  0  0  0  0  0  0  0  0  0  0
    7.3188  -13.8081   25.0424 C   0  0  0  0  0  0  0  0  0  0  0  0
    9.2310  -16.9164   24.0038 C   0  0  0  0  0  0  0  0  0  0  0  0
    8.5789  -17.9842   23.9737 O   0  0  0  0  0  0  0  0  0  0  0  0
   12.4805  -18.8241   27.0229 C   0  0  0  0  0  0  0  0  0  0  0  0
   12.0914  -17.8131   25.9198 C   0  0  1  0  0  0  0  0  0  0  0  0
   12.5941  -18.2676   24.7096 O   0  0  0  0  0  0  0  0  0  0  0  0
   10.6013  -17.6984   25.9550 C   0  0  2  0  0  0  0  0  0  0  0  0
   10.1560  -16.6603   25.0061 N   0  0  0  0  0  0  0  0  0  0  0  0
   10.2118  -17.2513   27.3376 C   0  0  0  0  0  0  0  0  0  0  0  0
    9.8076  -16.0648   27.5345 O   0  0  0  0  0  0  0  0  0  0  0  0
   10.2812  -18.1066   28.4138 O   0  0  0  0  0  0  0  0  0  0  0  0
  2  1  1  0
  2  3  2  0
  4  2  1  0
  5  7  1  0
  5  4  1  0
  5  6  1  6
  7  8  2  0
  9 10  1  0
  9  7  1  0
 10 21  1  0
 11 12  1  0
 10 11  1  6
 12 13  2  0
 14 13  1  0
 15 14  1  0
 16 15  2  0
 17 16  1  0
 18 19  1  0
 18 17  2  0
 19 20  2  0
 20 15  1  0
 20 12  1  0
 21 22  2  0
 24 23  1  1
 24 25  1  0
 24 26  1  0
 26 28  1  0
 26 27  1  6
 27 21  1  0
 28 29  2  0
 28 30  1  0
M  END
$$$$
