NWT.pdb
     RDKit          3D

 30 31  0  0  1  0  0  0  0  0999 V2000
    6.9706  -13.6674   18.2705 N   0  0  0  0  0  0  0  0  0  0  0  0
    8.0893  -14.3220   18.7734 C   0  0  0  0  0  0  0  0  0  0  0  0
    8.8174  -15.0052   17.9779 O   0  0  0  0  0  0  0  0  0  0  0  0
    8.4891  -14.2629   20.2060 C   0  0  0  0  0  0  0  0  0  0  0  0
    8.8926  -15.7239   20.6029 C   0  0  2  0  0  0  0  0  0  0  0  0
    7.6912  -16.4809   20.5919 N   0  0  0  0  0  0  0  0  0  0  0  0
    9.5530  -15.6279   21.9554 C   0  0  0  0  0  0  0  0  0  0  0  0
   10.5301  -14.9052   22.0828 O   0  0  0  0  0  0  0  0  0  0  0  0
    9.0355  -16.3848   23.0551 N   0  0  0  0  0  0  0  0  0  0  0  0
    9.4261  -16.4553   24.3750 C   0  0  1  0  0  0  0  0  0  0  0  0
    8.5513  -16.3175   25.5715 C   0  0  0  0  0  0  0  0  0  0  0  0
    7.4505  -15.3735   25.5959 C   0  0  0  0  0  0  0  0  0  0  0  0
    6.0793  -15.6618   25.4026 C   0  0  0  0  0  0  0  0  0  0  0  0
    5.3571  -14.5618   25.6005 N   0  0  0  0  0  0  0  0  0  0  0  0
    6.2179  -13.5450   25.9199 C   0  0  0  0  0  0  0  0  0  0  0  0
    5.9868  -12.1971   26.1772 C   0  0  0  0  0  0  0  0  0  0  0  0
    7.0493  -11.3812   26.4191 C   0  0  0  0  0  0  0  0  0  0  0  0
    8.3298  -11.8391   26.4229 C   0  0  0  0  0  0  0  0  0  0  0  0
    8.5689  -13.1874   26.1689 C   0  0  0  0  0  0  0  0  0  0  0  0
    7.4823  -14.0453   25.9131 C   0  0  0  0  0  0  0  0  0  0  0  0
   10.2741  -17.6981   24.6535 C   0  0  0  0  0  0  0  0  0  0  0  0
    9.6305  -18.7712   24.6691 O   0  0  0  0  0  0  0  0  0  0  0  0
   14.6332  -19.9423   25.1311 C   0  0  0  0  0  0  0  0  0  0  0  0
   13.8914  -18.5918   25.0034 C   0  0  1  0  0  0  0  0  0  0  0  0
   14.2628  -17.9976   23.8063 O   0  0  0  0  0  0  0  0  0  0  0  0
   12.4316  -18.8976   25.1036 C   0  0  2  0  0  0  0  0  0  0  0  0
   11.6453  -17.6723   24.8658 N   0  0  0  0  0  0  0  0  0  0  0  0
   12.1572  -19.3509   26.5116 C   0  0  0  0  0  0  0  0  0  0  0  0
   12.5384  -20.4975   26.8987 O   0  0  0  0  0  0  0  0  0  0  0  0
   11.4943  -18.5438   27.4082 O   0  0  0  0  0  0  0  0  0  0  0  0
  2  1  1  0
  2  3  2  0
  4  2  1  0
  5  7  1  0
  5  4  1  0
  5  6  1  1
  7  8  2  0
  9 10  1  0
  9  7  1  0
 10 21  1  0
 11 12  1  0
 10 11  1  1
 12 13  2  0
 14 13  1  0
 15 14  1  0
 16 15  2  0
 17 16  1  0
 18 19  1  0
 18 17  2  0
 19 20  2  0
 20 15  1  0
 20 12  1  0
 21 22  2  0
 24 23  1  6
 24 25  1  0
 24 26  1  0
 26 28  1  0
 26 27  1  1
 27 21  1  0
 28 29  2  0
 28 30  1  0
M  END
$$$$
