NWT.pdb
     RDKit          3D

 30 31  0  0  1  0  0  0  0  0999 V2000
    6.9638  -12.8235   18.3485 N   0  0  0  0  0  0  0  0  0  0  0  0
    7.9844  -13.6635   18.7796 C   0  0  0  0  0  0  0  0  0  0  0  0
    8.5234  -14.4635   17.9435 O   0  0  0  0  0  0  0  0  0  0  0  0
    8.4898  -13.6750   20.1797 C   0  0  0  0  0  0  0  0  0  0  0  0
    8.7044  -15.1823   20.5494 C   0  0  2  0  0  0  0  0  0  0  0  0
    7.4069  -15.7399   20.6979 N   0  0  0  0  0  0  0  0  0  0  0  0
    9.5331  -15.1951   21.8095 C   0  0  0  0  0  0  0  0  0  0  0  0
   10.5950  -14.5906   21.8212 O   0  0  0  0  0  0  0  0  0  0  0  0
    9.0713  -15.9157   22.9574 N   0  0  0  0  0  0  0  0  0  0  0  0
    9.5800  -16.0153   24.2344 C   0  0  1  0  0  0  0  0  0  0  0  0
    8.8836  -15.6595   25.5011 C   0  0  0  0  0  0  0  0  0  0  0  0
    7.6615  -14.8785   25.4958 C   0  0  0  0  0  0  0  0  0  0  0  0
    6.3422  -15.3657   25.3450 C   0  0  0  0  0  0  0  0  0  0  0  0
    5.4751  -14.3679   25.4972 N   0  0  0  0  0  0  0  0  0  0  0  0
    6.1883  -13.2245   25.7444 C   0  0  0  0  0  0  0  0  0  0  0  0
    5.7733  -11.9097   25.9329 C   0  0  0  0  0  0  0  0  0  0  0  0
    6.7135  -10.9413   26.1096 C   0  0  0  0  0  0  0  0  0  0  0  0
    8.0455  -11.2151   26.1133 C   0  0  0  0  0  0  0  0  0  0  0  0
    8.4686  -12.5290   25.9280 C   0  0  0  0  0  0  0  0  0  0  0  0
    7.5102  -13.5432   25.7400 C   0  0  0  0  0  0  0  0  0  0  0  0
   10.1909  -17.3928   24.4994 C   0  0  0  0  0  0  0  0  0  0  0  0
    9.3781  -18.2483   24.9160 O   0  0  0  0  0  0  0  0  0  0  0  0
   12.8578  -19.2834   22.2499 C   0  0  0  0  0  0  0  0  0  0  0  0
   13.3089  -19.2571   23.7285 C   0  0  1  0  0  0  0  0  0  0  0  0
   14.2605  -18.2593   23.8802 O   0  0  0  0  0  0  0  0  0  0  0  0
   12.0746  -19.0500   24.5459 C   0  0  2  0  0  0  0  0  0  0  0  0
   11.5284  -17.7025   24.2962 N   0  0  0  0  0  0  0  0  0  0  0  0
   12.4713  -19.1212   25.9953 C   0  0  0  0  0  0  0  0  0  0  0  0
   12.4745  -18.0716   26.7083 O   0  0  0  0  0  0  0  0  0  0  0  0
   12.8361  -20.3121   26.5810 O   0  0  0  0  0  0  0  0  0  0  0  0
  2  1  1  0
  2  3  2  0
  4  2  1  0
  5  7  1  0
  5  4  1  0
  5  6  1  1
  7  8  2  0
  9 10  1  0
  9  7  1  0
 10 21  1  0
 11 12  1  0
 10 11  1  1
 12 13  2  0
 14 13  1  0
 15 14  1  0
 16 15  2  0
 17 16  1  0
 18 19  1  0
 18 17  2  0
 19 20  2  0
 20 15  1  0
 20 12  1  0
 21 22  2  0
 24 23  1  6
 24 25  1  0
 24 26  1  0
 26 28  1  0
 26 27  1  1
 27 21  1  0
 28 29  2  0
 28 30  1  0
M  END
$$$$
