AGN.pdb
     RDKit          3D

 18 17  0  0  1  0  0  0  0  0999 V2000
   16.0969  -13.4117  -18.1717 C   0  0  0  0  0  0  0  0  0  0  0  0
   16.5978  -13.1962  -16.7829 C   0  0  2  0  0  0  0  0  0  0  0  0
   15.6589  -12.4490  -16.0136 N   0  0  0  0  0  0  0  0  0  0  0  0
   17.9787  -12.6415  -16.7132 C   0  0  0  0  0  0  0  0  0  0  0  0
   18.9876  -13.2697  -17.1220 O   0  0  0  0  0  0  0  0  0  0  0  0
   18.2300  -11.3421  -16.1680 N   0  0  0  0  0  0  0  0  0  0  0  0
   19.4988  -10.6958  -16.2105 C   0  0  0  0  0  0  0  0  0  0  0  0
   19.5261   -9.3440  -15.6172 C   0  0  0  0  0  0  0  0  0  0  0  0
   18.4685   -8.7250  -15.3758 O   0  0  0  0  0  0  0  0  0  0  0  0
   23.0981   -4.6951  -14.5289 N   0  0  0  0  0  0  0  0  0  0  0  0
   22.4789   -5.7554  -13.8307 C   0  0  0  0  0  0  0  0  0  0  0  0
   22.0327   -5.4937  -12.6689 O   0  0  0  0  0  0  0  0  0  0  0  0
   22.3189   -7.1185  -14.3572 C   0  0  0  0  0  0  0  0  0  0  0  0
   20.9084   -7.4028  -14.7489 C   0  0  2  0  0  0  0  0  0  0  0  0
   20.7685   -8.7421  -15.3187 N   0  0  0  0  0  0  0  0  0  0  0  0
   20.5383   -6.4309  -15.8434 C   0  0  0  0  0  0  0  0  0  0  0  0
   20.8087   -6.5847  -17.0438 O   0  0  0  0  0  0  0  0  0  0  0  0
   19.8465   -5.2765  -15.5060 O   0  0  0  0  0  0  0  0  0  0  0  0
  2  3  1  0
  2  1  1  6
  4  2  1  0
  5  4  2  0
  6  4  1  0
  7  6  1  0
  8  9  2  0
  8  7  1  0
 11 10  1  0
 11 12  2  0
 14 13  1  6
 13 11  1  0
 14 15  1  0
 15  8  1  0
 16 14  1  0
 17 16  2  0
 18 16  1  0
M  END
$$$$
