AGN.pdb
     RDKit          3D

 18 17  0  0  1  0  0  0  0  0999 V2000
   14.8895  -13.8001  -16.5376 C   0  0  0  0  0  0  0  0  0  0  0  0
   16.2825  -13.8076  -16.0032 C   0  0  2  0  0  0  0  0  0  0  0  0
   16.2807  -13.8656  -14.5790 N   0  0  0  0  0  0  0  0  0  0  0  0
   17.1458  -12.7185  -16.5395 C   0  0  0  0  0  0  0  0  0  0  0  0
   17.5289  -12.6781  -17.7359 O   0  0  0  0  0  0  0  0  0  0  0  0
   17.5900  -11.6442  -15.7043 N   0  0  0  0  0  0  0  0  0  0  0  0
   18.3452  -10.5323  -16.1766 C   0  0  0  0  0  0  0  0  0  0  0  0
   18.7061   -9.5434  -15.1413 C   0  0  0  0  0  0  0  0  0  0  0  0
   18.1623   -9.5602  -14.0170 O   0  0  0  0  0  0  0  0  0  0  0  0
   22.7192   -4.9457  -14.0167 N   0  0  0  0  0  0  0  0  0  0  0  0
   22.0904   -6.1942  -13.8143 C   0  0  0  0  0  0  0  0  0  0  0  0
   22.0609   -6.6348  -12.6216 O   0  0  0  0  0  0  0  0  0  0  0  0
   21.4762   -7.0001  -14.8792 C   0  0  0  0  0  0  0  0  0  0  0  0
   20.1810   -7.6001  -14.4475 C   0  0  2  0  0  0  0  0  0  0  0  0
   19.6817   -8.5631  -15.4281 N   0  0  0  0  0  0  0  0  0  0  0  0
   19.1645   -6.4856  -14.3858 C   0  0  0  0  0  0  0  0  0  0  0  0
   18.6813   -5.9165  -15.3760 O   0  0  0  0  0  0  0  0  0  0  0  0
   18.7250   -6.0503  -13.1438 O   0  0  0  0  0  0  0  0  0  0  0  0
  2  3  1  0
  2  1  1  1
  4  2  1  0
  5  4  2  0
  6  4  1  0
  7  6  1  0
  8  9  2  0
  8  7  1  0
 11 10  1  0
 11 12  2  0
 14 13  1  6
 13 11  1  0
 14 15  1  0
 15  8  1  0
 16 14  1  0
 17 16  2  0
 18 16  1  0
M  END
$$$$
