AGN.pdb
     RDKit          3D

 18 17  0  0  1  0  0  0  0  0999 V2000
   23.1279  -17.8365  -18.3022 C   0  0  0  0  0  0  0  0  0  0  0  0
   23.2243  -18.2366  -16.8681 C   0  0  2  0  0  0  0  0  0  0  0  0
   22.5124  -17.3238  -16.0364 N   0  0  0  0  0  0  0  0  0  0  0  0
   24.6156  -18.4869  -16.3985 C   0  0  0  0  0  0  0  0  0  0  0  0
   25.1911  -19.5964  -16.5309 O   0  0  0  0  0  0  0  0  0  0  0  0
   25.3806  -17.4581  -15.7618 N   0  0  0  0  0  0  0  0  0  0  0  0
   26.7246  -17.6268  -15.3205 C   0  0  0  0  0  0  0  0  0  0  0  0
   26.8693  -18.3205  -14.0252 C   0  0  0  0  0  0  0  0  0  0  0  0
   27.3032  -17.7217  -13.0186 O   0  0  0  0  0  0  0  0  0  0  0  0
   25.8807  -21.6618  -10.1633 N   0  0  0  0  0  0  0  0  0  0  0  0
   25.0490  -20.6057  -10.5969 C   0  0  0  0  0  0  0  0  0  0  0  0
   24.0765  -20.2934   -9.8393 O   0  0  0  0  0  0  0  0  0  0  0  0
   25.2376  -19.8565  -11.8475 C   0  0  0  0  0  0  0  0  0  0  0  0
   26.3695  -20.3956  -12.6550 C   0  0  2  0  0  0  0  0  0  0  0  0
   26.5114  -19.6831  -13.9240 N   0  0  0  0  0  0  0  0  0  0  0  0
   26.0362  -21.8266  -13.0022 C   0  0  0  0  0  0  0  0  0  0  0  0
   25.8598  -22.7307  -12.1720 O   0  0  0  0  0  0  0  0  0  0  0  0
   25.9137  -22.1785  -14.3387 O   0  0  0  0  0  0  0  0  0  0  0  0
  2  3  1  0
  2  1  1  6
  4  2  1  0
  5  4  2  0
  6  4  1  0
  7  6  1  0
  8  9  2  0
  8  7  1  0
 11 10  1  0
 11 12  2  0
 14 13  1  1
 13 11  1  0
 14 15  1  0
 15  8  1  0
 16 14  1  0
 17 16  2  0
 18 16  1  0
M  END
$$$$
