AGN.pdb
     RDKit          3D

 18 17  0  0  1  0  0  0  0  0999 V2000
   15.7280  -13.9481  -16.5938 C   0  0  0  0  0  0  0  0  0  0  0  0
   16.7506  -13.2592  -15.7539 C   0  0  2  0  0  0  0  0  0  0  0  0
   16.2501  -13.0138  -14.4420 N   0  0  0  0  0  0  0  0  0  0  0  0
   17.3413  -12.0468  -16.3867 C   0  0  0  0  0  0  0  0  0  0  0  0
   18.0058  -12.0887  -17.4528 O   0  0  0  0  0  0  0  0  0  0  0  0
   17.1786  -10.7504  -15.8022 N   0  0  0  0  0  0  0  0  0  0  0  0
   17.7152   -9.5550  -16.3614 C   0  0  0  0  0  0  0  0  0  0  0  0
   18.1918   -8.5676  -15.3724 C   0  0  0  0  0  0  0  0  0  0  0  0
   17.6313   -8.4449  -14.2630 O   0  0  0  0  0  0  0  0  0  0  0  0
   22.3908   -9.2561  -14.5656 N   0  0  0  0  0  0  0  0  0  0  0  0
   21.7941   -8.1225  -13.9707 C   0  0  0  0  0  0  0  0  0  0  0  0
   21.6168   -8.1618  -12.7120 O   0  0  0  0  0  0  0  0  0  0  0  0
   21.3754   -6.9197  -14.7048 C   0  0  0  0  0  0  0  0  0  0  0  0
   19.8910   -6.7876  -14.7580 C   0  0  2  0  0  0  0  0  0  0  0  0
   19.2990   -7.7490  -15.6872 N   0  0  0  0  0  0  0  0  0  0  0  0
   19.5783   -5.4155  -15.3046 C   0  0  0  0  0  0  0  0  0  0  0  0
   19.7558   -4.3540  -14.6886 O   0  0  0  0  0  0  0  0  0  0  0  0
   19.0541   -5.3099  -16.5849 O   0  0  0  0  0  0  0  0  0  0  0  0
  2  3  1  0
  2  1  1  6
  4  2  1  0
  5  4  2  0
  6  4  1  0
  7  6  1  0
  8  9  2  0
  8  7  1  0
 11 10  1  0
 11 12  2  0
 14 13  1  6
 13 11  1  0
 14 15  1  0
 15  8  1  0
 16 14  1  0
 17 16  2  0
 18 16  1  0
M  END
$$$$
