AGN.pdb
     RDKit          3D

 18 17  0  0  1  0  0  0  0  0999 V2000
   18.3083  -12.9098  -19.1565 C   0  0  0  0  0  0  0  0  0  0  0  0
   18.4541  -11.5297  -18.6087 C   0  0  2  0  0  0  0  0  0  0  0  0
   19.3163  -10.7452  -19.4290 N   0  0  0  0  0  0  0  0  0  0  0  0
   18.8235  -11.4834  -17.1663 C   0  0  0  0  0  0  0  0  0  0  0  0
   18.0525  -11.8695  -16.2519 O   0  0  0  0  0  0  0  0  0  0  0  0
   20.0979  -10.9886  -16.7420 N   0  0  0  0  0  0  0  0  0  0  0  0
   20.5068  -10.9154  -15.3792 C   0  0  0  0  0  0  0  0  0  0  0  0
   20.2683   -9.6111  -14.7297 C   0  0  0  0  0  0  0  0  0  0  0  0
   19.3981   -9.4826  -13.8428 O   0  0  0  0  0  0  0  0  0  0  0  0
   20.9780   -4.6457  -13.2081 N   0  0  0  0  0  0  0  0  0  0  0  0
   22.1704   -5.2010  -13.7229 C   0  0  0  0  0  0  0  0  0  0  0  0
   23.2306   -4.5127  -13.5831 O   0  0  0  0  0  0  0  0  0  0  0  0
   22.2595   -6.5047  -14.3961 C   0  0  0  0  0  0  0  0  0  0  0  0
   20.9305   -7.1742  -14.4924 C   0  0  2  0  0  0  0  0  0  0  0  0
   21.0366   -8.4915  -15.1184 N   0  0  0  0  0  0  0  0  0  0  0  0
   20.0664   -6.3356  -15.4032 C   0  0  0  0  0  0  0  0  0  0  0  0
   19.4668   -5.3072  -15.0560 O   0  0  0  0  0  0  0  0  0  0  0  0
   19.9177   -6.7239  -16.7269 O   0  0  0  0  0  0  0  0  0  0  0  0
  2  3  1  0
  2  1  1  6
  4  2  1  0
  5  4  2  0
  6  4  1  0
  7  6  1  0
  8  9  2  0
  8  7  1  0
 11 10  1  0
 11 12  2  0
 14 13  1  6
 13 11  1  0
 14 15  1  0
 15  8  1  0
 16 14  1  0
 17 16  2  0
 18 16  1  0
M  END
$$$$
