AGN.pdb
     RDKit          3D

 18 17  0  0  1  0  0  0  0  0999 V2000
   15.6127  -13.5248  -15.6672 C   0  0  0  0  0  0  0  0  0  0  0  0
   17.0782  -13.2456  -15.6853 C   0  0  2  0  0  0  0  0  0  0  0  0
   17.6443  -13.4144  -14.3881 N   0  0  0  0  0  0  0  0  0  0  0  0
   17.4421  -11.9448  -16.3136 C   0  0  0  0  0  0  0  0  0  0  0  0
   17.3713  -11.7418  -17.5519 O   0  0  0  0  0  0  0  0  0  0  0  0
   17.8984  -10.8413  -15.5244 N   0  0  0  0  0  0  0  0  0  0  0  0
   18.1874   -9.5515  -16.0560 C   0  0  0  0  0  0  0  0  0  0  0  0
   18.6242   -8.5538  -15.0592 C   0  0  0  0  0  0  0  0  0  0  0  0
   18.1599   -8.5557  -13.8997 O   0  0  0  0  0  0  0  0  0  0  0  0
   21.3347   -4.5967  -12.8771 N   0  0  0  0  0  0  0  0  0  0  0  0
   22.0912   -5.2776  -13.8565 C   0  0  0  0  0  0  0  0  0  0  0  0
   23.3317   -5.0037  -13.9158 O   0  0  0  0  0  0  0  0  0  0  0  0
   21.5422   -6.2686  -14.7932 C   0  0  0  0  0  0  0  0  0  0  0  0
   20.1117   -6.5757  -14.5045 C   0  0  2  0  0  0  0  0  0  0  0  0
   19.5821   -7.5820  -15.4238 N   0  0  0  0  0  0  0  0  0  0  0  0
   19.3199   -5.3137  -14.7487 C   0  0  0  0  0  0  0  0  0  0  0  0
   18.8786   -4.9607  -15.8525 O   0  0  0  0  0  0  0  0  0  0  0  0
   19.0551   -4.4733  -13.6769 O   0  0  0  0  0  0  0  0  0  0  0  0
  2  3  1  0
  2  1  1  1
  4  2  1  0
  5  4  2  0
  6  4  1  0
  7  6  1  0
  8  9  2  0
  8  7  1  0
 11 10  1  0
 11 12  2  0
 14 13  1  6
 13 11  1  0
 14 15  1  0
 15  8  1  0
 16 14  1  0
 17 16  2  0
 18 16  1  0
M  END
$$$$
