AGN.pdb
     RDKit          3D

 18 17  0  0  1  0  0  0  0  0999 V2000
   20.2029  -13.5663  -17.2194 C   0  0  0  0  0  0  0  0  0  0  0  0
   20.1703  -12.1263  -17.6083 C   0  0  2  0  0  0  0  0  0  0  0  0
   21.2349  -11.8171  -18.5043 N   0  0  0  0  0  0  0  0  0  0  0  0
   20.0893  -11.1863  -16.4555 C   0  0  0  0  0  0  0  0  0  0  0  0
   19.1978  -11.2642  -15.5730 O   0  0  0  0  0  0  0  0  0  0  0  0
   21.0400  -10.1288  -16.2919 N   0  0  0  0  0  0  0  0  0  0  0  0
   21.0113   -9.1957  -15.2157 C   0  0  0  0  0  0  0  0  0  0  0  0
   21.3021   -7.7995  -15.5979 C   0  0  0  0  0  0  0  0  0  0  0  0
   21.7274   -7.5190  -16.7383 O   0  0  0  0  0  0  0  0  0  0  0  0
   21.5004   -2.5770  -15.5196 N   0  0  0  0  0  0  0  0  0  0  0  0
   20.3059   -3.1149  -14.9911 C   0  0  0  0  0  0  0  0  0  0  0  0
   19.3561   -2.2976  -14.7734 O   0  0  0  0  0  0  0  0  0  0  0  0
   20.0965   -4.5374  -14.6855 C   0  0  0  0  0  0  0  0  0  0  0  0
   21.3205   -5.3491  -14.9436 C   0  0  2  0  0  0  0  0  0  0  0  0
   21.0961   -6.7655  -14.6580 N   0  0  0  0  0  0  0  0  0  0  0  0
   22.3848   -4.8814  -13.9802 C   0  0  0  0  0  0  0  0  0  0  0  0
   22.4998   -5.2767  -12.8105 O   0  0  0  0  0  0  0  0  0  0  0  0
   23.3109   -3.9428  -14.4121 O   0  0  0  0  0  0  0  0  0  0  0  0
  2  3  1  0
  2  1  1  1
  4  2  1  0
  5  4  2  0
  6  4  1  0
  7  6  1  0
  8  9  2  0
  8  7  1  0
 11 10  1  0
 11 12  2  0
 14 13  1  1
 13 11  1  0
 14 15  1  0
 15  8  1  0
 16 14  1  0
 17 16  2  0
 18 16  1  0
M  END
$$$$
