AGN.pdb
     RDKit          3D

 18 17  0  0  1  0  0  0  0  0999 V2000
   15.7490  -10.7577  -17.0289 C   0  0  0  0  0  0  0  0  0  0  0  0
   16.9909  -10.1987  -17.6384 C   0  0  2  0  0  0  0  0  0  0  0  0
   18.1433  -10.9008  -17.1793 N   0  0  0  0  0  0  0  0  0  0  0  0
   17.1206   -8.7205  -17.5079 C   0  0  0  0  0  0  0  0  0  0  0  0
   16.5031   -7.9135  -18.2477 O   0  0  0  0  0  0  0  0  0  0  0  0
   17.9697   -8.1346  -16.5156 N   0  0  0  0  0  0  0  0  0  0  0  0
   18.1877   -6.7327  -16.3855 C   0  0  0  0  0  0  0  0  0  0  0  0
   18.9935   -6.3369  -15.2133 C   0  0  0  0  0  0  0  0  0  0  0  0
   18.6809   -6.7070  -14.0620 O   0  0  0  0  0  0  0  0  0  0  0  0
   22.0876   -8.0794  -13.4891 N   0  0  0  0  0  0  0  0  0  0  0  0
   22.3811   -7.2821  -14.6175 C   0  0  0  0  0  0  0  0  0  0  0  0
   22.6149   -7.8946  -15.7073 O   0  0  0  0  0  0  0  0  0  0  0  0
   22.4291   -5.8129  -14.6098 C   0  0  0  0  0  0  0  0  0  0  0  0
   21.0915   -5.2129  -14.3368 C   0  0  2  0  0  0  0  0  0  0  0  0
   20.1354   -5.5264  -15.3979 N   0  0  0  0  0  0  0  0  0  0  0  0
   21.2594   -3.7125  -14.3412 C   0  0  0  0  0  0  0  0  0  0  0  0
   20.8538   -2.9604  -15.2398 O   0  0  0  0  0  0  0  0  0  0  0  0
   21.9107   -3.1102  -13.2744 O   0  0  0  0  0  0  0  0  0  0  0  0
  2  3  1  0
  2  1  1  1
  4  2  1  0
  5  4  2  0
  6  4  1  0
  7  6  1  0
  8  9  2  0
  8  7  1  0
 11 10  1  0
 11 12  2  0
 14 13  1  6
 13 11  1  0
 14 15  1  0
 15  8  1  0
 16 14  1  0
 17 16  2  0
 18 16  1  0
M  END
$$$$
