AGN.pdb
     RDKit          3D

 18 17  0  0  1  0  0  0  0  0999 V2000
   12.8948   -8.9768   -8.0865 C   0  0  0  0  0  0  0  0  0  0  0  0
   13.8349   -8.8986   -9.2424 C   0  0  2  0  0  0  0  0  0  0  0  0
   14.7941   -9.9517   -9.1902 N   0  0  0  0  0  0  0  0  0  0  0  0
   14.4542   -7.5573   -9.4334 C   0  0  0  0  0  0  0  0  0  0  0  0
   13.7824   -6.4961   -9.4804 O   0  0  0  0  0  0  0  0  0  0  0  0
   15.8707   -7.4071   -9.5750 N   0  0  0  0  0  0  0  0  0  0  0  0
   16.5285   -6.1477   -9.6778 C   0  0  0  0  0  0  0  0  0  0  0  0
   17.9897   -6.2259   -9.8750 C   0  0  0  0  0  0  0  0  0  0  0  0
   18.7385   -6.6639   -8.9763 O   0  0  0  0  0  0  0  0  0  0  0  0
   21.6968   -8.8916  -13.4075 N   0  0  0  0  0  0  0  0  0  0  0  0
   21.3526   -7.7841  -12.6012 C   0  0  0  0  0  0  0  0  0  0  0  0
   22.3064   -7.0354  -12.2177 O   0  0  0  0  0  0  0  0  0  0  0  0
   19.9825   -7.4484  -12.1879 C   0  0  0  0  0  0  0  0  0  0  0  0
   19.9109   -6.1135  -11.5272 C   0  0  2  0  0  0  0  0  0  0  0  0
   18.5486   -5.7980  -11.0995 N   0  0  0  0  0  0  0  0  0  0  0  0
   20.2866   -5.0773  -12.5590 C   0  0  0  0  0  0  0  0  0  0  0  0
   19.4812   -4.5025  -13.3066 O   0  0  0  0  0  0  0  0  0  0  0  0
   21.6219   -4.7275  -12.6990 O   0  0  0  0  0  0  0  0  0  0  0  0
  2  3  1  0
  2  1  1  1
  4  2  1  0
  5  4  2  0
  6  4  1  0
  7  6  1  0
  8  9  2  0
  8  7  1  0
 11 10  1  0
 11 12  2  0
 14 13  1  6
 13 11  1  0
 14 15  1  0
 15  8  1  0
 16 14  1  0
 17 16  2  0
 18 16  1  0
M  END
$$$$
