YSH.pdb
     RDKit          3D

 29 30  0  0  1  0  0  0  0  0999 V2000
   18.9562  -17.7069  -22.8789 O   0  0  0  0  0  0  0  0  0  0  0  0
   18.8304  -16.6241  -21.9993 C   0  0  0  0  0  0  0  0  0  0  0  0
   19.9107  -15.8300  -21.6751 C   0  0  0  0  0  0  0  0  0  0  0  0
   19.7633  -14.7649  -20.8033 C   0  0  0  0  0  0  0  0  0  0  0  0
   18.5475  -14.4521  -20.2264 C   0  0  0  0  0  0  0  0  0  0  0  0
   18.3913  -13.3028  -19.2866 C   0  0  0  0  0  0  0  0  0  0  0  0
   18.9706  -13.7095  -17.9693 C   0  0  2  0  0  0  0  0  0  0  0  0
   18.1836  -14.7746  -17.4120 N   0  0  0  0  0  0  0  0  0  0  0  0
   19.1452  -12.5762  -17.0345 C   0  0  0  0  0  0  0  0  0  0  0  0
   18.1438  -12.1561  -16.4178 O   0  0  0  0  0  0  0  0  0  0  0  0
   17.4719  -15.2537  -20.5576 C   0  0  0  0  0  0  0  0  0  0  0  0
   17.6144  -16.3160  -21.4259 C   0  0  0  0  0  0  0  0  0  0  0  0
   22.8552  -10.8859  -16.5132 O   0  0  0  0  0  0  0  0  0  0  0  0
   21.9925  -10.7931  -15.4053 C   0  0  0  0  0  0  0  0  0  0  0  0
   20.5666  -10.8107  -15.9160 C   0  0  2  0  0  0  0  0  0  0  0  0
   20.3926  -11.9413  -16.8022 N   0  0  0  0  0  0  0  0  0  0  0  0
   20.3281   -9.5203  -16.6046 C   0  0  0  0  0  0  0  0  0  0  0  0
   20.4907   -9.3275  -17.8240 O   0  0  0  0  0  0  0  0  0  0  0  0
   19.8823   -8.4312  -15.8089 N   0  0  0  0  0  0  0  0  0  0  0  0
   19.6294   -7.1176  -16.3538 C   0  0  1  0  0  0  0  0  0  0  0  0
   18.1448   -6.8355  -16.1023 C   0  0  0  0  0  0  0  0  0  0  0  0
   17.7506   -5.4933  -16.6012 C   0  0  0  0  0  0  0  0  0  0  0  0
   17.8402   -5.0253  -17.8915 C   0  0  0  0  0  0  0  0  0  0  0  0
   17.3845   -3.7626  -17.9438 N   0  0  0  0  0  0  0  0  0  0  0  0
   16.9978   -3.4094  -16.6843 C   0  0  0  0  0  0  0  0  0  0  0  0
   17.2261   -4.4700  -15.8809 N   0  0  0  0  0  0  0  0  0  0  0  0
   20.4833   -6.0807  -15.7628 C   0  0  0  0  0  0  0  0  0  0  0  0
   21.0932   -6.3240  -14.6967 O   0  0  0  0  0  0  0  0  0  0  0  0
   20.6389   -4.8388  -16.3445 O   0  0  0  0  0  0  0  0  0  0  0  0
  2  1  1  0
  3  2  2  0
  4  3  1  0
  5  4  2  0
  5 11  1  0
  6  7  1  0
  6  5  1  0
  7  8  1  1
  7  9  1  0
  9 10  2  0
 11 12  2  0
 12  2  1  0
 13 14  1  0
 15 14  1  6
 16  9  1  0
 16 15  1  0
 17 15  1  0
 17 18  2  0
 19 17  1  0
 20 19  1  0
 20 27  1  0
 20 21  1  1
 22 21  1  0
 22 26  1  0
 23 24  1  0
 23 22  2  0
 24 25  1  0
 25 26  2  0
 27 28  2  0
 27 29  1  0
M  END
$$$$
