YSH.pdb
     RDKit          3D

 29 30  0  0  1  0  0  0  0  0999 V2000
   17.3504  -16.4092  -16.6870 O   0  0  0  0  0  0  0  0  0  0  0  0
   17.4271  -15.0110  -16.6554 C   0  0  0  0  0  0  0  0  0  0  0  0
   18.6252  -14.3598  -16.4473 C   0  0  0  0  0  0  0  0  0  0  0  0
   18.6776  -12.9768  -16.4200 C   0  0  0  0  0  0  0  0  0  0  0  0
   17.5513  -12.1965  -16.5968 C   0  0  0  0  0  0  0  0  0  0  0  0
   17.6106  -10.7051  -16.5670 C   0  0  0  0  0  0  0  0  0  0  0  0
   17.7087  -10.2817  -15.1360 C   0  0  2  0  0  0  0  0  0  0  0  0
   16.4856  -10.6105  -14.4577 N   0  0  0  0  0  0  0  0  0  0  0  0
   18.0905   -8.8617  -14.9733 C   0  0  0  0  0  0  0  0  0  0  0  0
   17.2364   -7.9853  -15.2226 O   0  0  0  0  0  0  0  0  0  0  0  0
   16.3564  -12.8585  -16.8045 C   0  0  0  0  0  0  0  0  0  0  0  0
   16.2997  -14.2364  -16.8325 C   0  0  0  0  0  0  0  0  0  0  0  0
   20.4763   -7.0071  -12.2452 O   0  0  0  0  0  0  0  0  0  0  0  0
   20.9720   -6.9233  -13.5596 C   0  0  0  0  0  0  0  0  0  0  0  0
   19.8033   -7.0608  -14.5133 C   0  0  2  0  0  0  0  0  0  0  0  0
   19.3780   -8.4435  -14.5483 N   0  0  0  0  0  0  0  0  0  0  0  0
   20.2577   -6.5832  -15.8405 C   0  0  0  0  0  0  0  0  0  0  0  0
   20.9467   -7.2498  -16.6353 O   0  0  0  0  0  0  0  0  0  0  0  0
   19.8754   -5.2702  -16.2251 N   0  0  0  0  0  0  0  0  0  0  0  0
   20.1530   -4.7278  -17.5348 C   0  0  1  0  0  0  0  0  0  0  0  0
   18.8073   -4.2444  -18.0846 C   0  0  0  0  0  0  0  0  0  0  0  0
   17.8766   -5.3762  -18.3265 C   0  0  0  0  0  0  0  0  0  0  0  0
   17.9848   -6.3518  -19.2901 C   0  0  0  0  0  0  0  0  0  0  0  0
   16.9476   -7.1997  -19.1891 N   0  0  0  0  0  0  0  0  0  0  0  0
   16.1636   -6.7739  -18.1574 C   0  0  0  0  0  0  0  0  0  0  0  0
   16.7404   -5.6666  -17.6439 N   0  0  0  0  0  0  0  0  0  0  0  0
   21.1441   -3.6460  -17.5060 C   0  0  0  0  0  0  0  0  0  0  0  0
   21.6032   -3.2654  -16.4051 O   0  0  0  0  0  0  0  0  0  0  0  0
   21.5909   -3.0293  -18.6571 O   0  0  0  0  0  0  0  0  0  0  0  0
  2  1  1  0
  3  2  2  0
  4  3  1  0
  5  4  2  0
  5 11  1  0
  6  7  1  0
  6  5  1  0
  7  8  1  6
  7  9  1  0
  9 10  2  0
 11 12  2  0
 12  2  1  0
 13 14  1  0
 15 14  1  1
 16  9  1  0
 16 15  1  0
 17 15  1  0
 17 18  2  0
 19 17  1  0
 20 19  1  0
 20 27  1  0
 20 21  1  1
 22 21  1  0
 22 26  1  0
 23 24  1  0
 23 22  2  0
 24 25  1  0
 25 26  2  0
 27 28  2  0
 27 29  1  0
M  END
$$$$
