YSH.pdb
     RDKit          3D

 29 30  0  0  1  0  0  0  0  0999 V2000
   29.0891  -19.1938   -3.9612 O   0  0  0  0  0  0  0  0  0  0  0  0
   28.5962  -19.6749   -5.1809 C   0  0  0  0  0  0  0  0  0  0  0  0
   29.3354  -19.5857   -6.3421 C   0  0  0  0  0  0  0  0  0  0  0  0
   28.8283  -20.0679   -7.5365 C   0  0  0  0  0  0  0  0  0  0  0  0
   27.5789  -20.6514   -7.6206 C   0  0  0  0  0  0  0  0  0  0  0  0
   27.0344  -21.1706   -8.9099 C   0  0  0  0  0  0  0  0  0  0  0  0
   26.1928  -20.0931   -9.5159 C   0  0  2  0  0  0  0  0  0  0  0  0
   24.9945  -19.9324   -8.7398 N   0  0  0  0  0  0  0  0  0  0  0  0
   25.9199  -20.3063  -10.9542 C   0  0  0  0  0  0  0  0  0  0  0  0
   24.7389  -20.4978  -11.3120 O   0  0  0  0  0  0  0  0  0  0  0  0
   26.8466  -20.7358   -6.4519 C   0  0  0  0  0  0  0  0  0  0  0  0
   27.3481  -20.2566   -5.2595 C   0  0  0  0  0  0  0  0  0  0  0  0
   28.5023  -21.4589  -13.8652 O   0  0  0  0  0  0  0  0  0  0  0  0
   27.9767  -20.1790  -14.1220 C   0  0  0  0  0  0  0  0  0  0  0  0
   26.6815  -20.0381  -13.3493 C   0  0  2  0  0  0  0  0  0  0  0  0
   26.9315  -20.3043  -11.9492 N   0  0  0  0  0  0  0  0  0  0  0  0
   25.7119  -20.9940  -13.9344 C   0  0  0  0  0  0  0  0  0  0  0  0
   25.8269  -22.2333  -13.8942 O   0  0  0  0  0  0  0  0  0  0  0  0
   24.5732  -20.4487  -14.5856 N   0  0  0  0  0  0  0  0  0  0  0  0
   23.2345  -20.9436  -14.3633 C   0  0  1  0  0  0  0  0  0  0  0  0
   22.9969  -20.8524  -12.8525 C   0  0  0  0  0  0  0  0  0  0  0  0
   21.6245  -21.2870  -12.4873 C   0  0  0  0  0  0  0  0  0  0  0  0
   20.9899  -22.4470  -12.8662 C   0  0  0  0  0  0  0  0  0  0  0  0
   19.7571  -22.4791  -12.3333 N   0  0  0  0  0  0  0  0  0  0  0  0
   19.5904  -21.3371  -11.6064 C   0  0  0  0  0  0  0  0  0  0  0  0
   20.7320  -20.6240  -11.7094 N   0  0  0  0  0  0  0  0  0  0  0  0
   22.2184  -20.1982  -15.1152 C   0  0  0  0  0  0  0  0  0  0  0  0
   22.4118  -18.9880  -15.3718 O   0  0  0  0  0  0  0  0  0  0  0  0
   21.0496  -20.7878  -15.5524 O   0  0  0  0  0  0  0  0  0  0  0  0
  2  1  1  0
  3  2  2  0
  4  3  1  0
  5  4  2  0
  5 11  1  0
  6  7  1  0
  6  5  1  0
  7  8  1  1
  7  9  1  0
  9 10  2  0
 11 12  2  0
 12  2  1  0
 13 14  1  0
 15 14  1  6
 16  9  1  0
 16 15  1  0
 17 15  1  0
 17 18  2  0
 19 17  1  0
 20 19  1  0
 20 27  1  0
 20 21  1  1
 22 21  1  0
 22 26  1  0
 23 24  1  0
 23 22  2  0
 24 25  1  0
 25 26  2  0
 27 28  2  0
 27 29  1  0
M  END
$$$$
