YSH.pdb
     RDKit          3D

 29 30  0  0  1  0  0  0  0  0999 V2000
   34.7414  -29.3928  -24.5399 O   0  0  0  0  0  0  0  0  0  0  0  0
   33.8077  -29.4962  -23.5010 C   0  0  0  0  0  0  0  0  0  0  0  0
   33.7639  -30.6034  -22.6794 C   0  0  0  0  0  0  0  0  0  0  0  0
   32.8325  -30.6844  -21.6585 C   0  0  0  0  0  0  0  0  0  0  0  0
   31.9181  -29.6770  -21.4184 C   0  0  0  0  0  0  0  0  0  0  0  0
   30.9147  -29.7668  -20.3167 C   0  0  0  0  0  0  0  0  0  0  0  0
   31.4654  -29.0297  -19.1378 C   0  0  2  0  0  0  0  0  0  0  0  0
   32.4973  -29.8181  -18.5234 N   0  0  0  0  0  0  0  0  0  0  0  0
   30.4231  -28.6022  -18.1789 C   0  0  0  0  0  0  0  0  0  0  0  0
   30.1575  -29.3535  -17.2173 O   0  0  0  0  0  0  0  0  0  0  0  0
   31.9703  -28.5724  -22.2469 C   0  0  0  0  0  0  0  0  0  0  0  0
   32.8968  -28.4877  -23.2653 C   0  0  0  0  0  0  0  0  0  0  0  0
   29.3972  -24.9697  -18.4046 O   0  0  0  0  0  0  0  0  0  0  0  0
   28.4088  -25.4894  -17.5481 C   0  0  0  0  0  0  0  0  0  0  0  0
   28.6597  -26.9743  -17.3858 C   0  0  2  0  0  0  0  0  0  0  0  0
   29.7089  -27.3817  -18.2952 N   0  0  0  0  0  0  0  0  0  0  0  0
   27.3811  -27.6710  -17.6613 C   0  0  0  0  0  0  0  0  0  0  0  0
   27.2525  -28.6332  -18.4413 O   0  0  0  0  0  0  0  0  0  0  0  0
   26.2249  -27.2010  -16.9828 N   0  0  0  0  0  0  0  0  0  0  0  0
   24.9347  -27.8392  -17.1034 C   0  0  1  0  0  0  0  0  0  0  0  0
   25.1075  -29.2503  -16.5323 C   0  0  0  0  0  0  0  0  0  0  0  0
   23.8609  -30.0477  -16.6576 C   0  0  0  0  0  0  0  0  0  0  0  0
   23.2828  -30.5128  -17.8158 C   0  0  0  0  0  0  0  0  0  0  0  0
   22.1635  -31.1933  -17.5172 N   0  0  0  0  0  0  0  0  0  0  0  0
   22.0141  -31.1702  -16.1616 C   0  0  0  0  0  0  0  0  0  0  0  0
   23.0517  -30.4714  -15.6540 N   0  0  0  0  0  0  0  0  0  0  0  0
   23.8681  -27.1047  -16.4133 C   0  0  0  0  0  0  0  0  0  0  0  0
   24.1650  -26.3356  -15.4711 O   0  0  0  0  0  0  0  0  0  0  0  0
   22.5406  -27.2327  -16.7687 O   0  0  0  0  0  0  0  0  0  0  0  0
  2  1  1  0
  3  2  2  0
  4  3  1  0
  5  4  2  0
  5 11  1  0
  6  7  1  0
  6  5  1  0
  7  8  1  1
  7  9  1  0
  9 10  2  0
 11 12  2  0
 12  2  1  0
 13 14  1  0
 15 14  1  6
 16  9  1  0
 16 15  1  0
 17 15  1  0
 17 18  2  0
 19 17  1  0
 20 19  1  0
 20 27  1  0
 20 21  1  1
 22 21  1  0
 22 26  1  0
 23 24  1  0
 23 22  2  0
 24 25  1  0
 25 26  2  0
 27 28  2  0
 27 29  1  0
M  END
$$$$
