YSH.pdb
     RDKit          3D

 29 30  0  0  1  0  0  0  0  0999 V2000
   17.9918  -16.9371  -21.1632 O   0  0  0  0  0  0  0  0  0  0  0  0
   17.9289  -15.7876  -20.3653 C   0  0  0  0  0  0  0  0  0  0  0  0
   16.8121  -15.4951  -19.6102 C   0  0  0  0  0  0  0  0  0  0  0  0
   16.7718  -14.3532  -18.8288 C   0  0  0  0  0  0  0  0  0  0  0  0
   17.8304  -13.4674  -18.7692 C   0  0  0  0  0  0  0  0  0  0  0  0
   17.7843  -12.2368  -17.9255 C   0  0  0  0  0  0  0  0  0  0  0  0
   18.6818  -12.4566  -16.7497 C   0  0  2  0  0  0  0  0  0  0  0  0
   18.1159  -13.4692  -15.9020 N   0  0  0  0  0  0  0  0  0  0  0  0
   19.0013  -11.2104  -16.0192 C   0  0  0  0  0  0  0  0  0  0  0  0
   18.0590  -10.5453  -15.5403 O   0  0  0  0  0  0  0  0  0  0  0  0
   18.9441  -13.7696  -19.5292 C   0  0  0  0  0  0  0  0  0  0  0  0
   18.9884  -14.9064  -20.3092 C   0  0  0  0  0  0  0  0  0  0  0  0
   22.7515   -9.6289  -16.2475 O   0  0  0  0  0  0  0  0  0  0  0  0
   22.1419   -9.3765  -15.0044 C   0  0  0  0  0  0  0  0  0  0  0  0
   20.6415   -9.4770  -15.1867 C   0  0  2  0  0  0  0  0  0  0  0  0
   20.3240  -10.7314  -15.8343 N   0  0  0  0  0  0  0  0  0  0  0  0
   20.2154   -8.3092  -15.9934 C   0  0  0  0  0  0  0  0  0  0  0  0
   19.7045   -8.3798  -17.1268 O   0  0  0  0  0  0  0  0  0  0  0  0
   20.4072   -7.0214  -15.4252 N   0  0  0  0  0  0  0  0  0  0  0  0
   20.0697   -5.8019  -16.1220 C   0  0  1  0  0  0  0  0  0  0  0  0
   18.6189   -5.9689  -16.5851 C   0  0  0  0  0  0  0  0  0  0  0  0
   18.1323   -4.7644  -17.3050 C   0  0  0  0  0  0  0  0  0  0  0  0
   18.8338   -3.9879  -18.1976 C   0  0  0  0  0  0  0  0  0  0  0  0
   18.0505   -2.9879  -18.6352 N   0  0  0  0  0  0  0  0  0  0  0  0
   16.8371   -3.1153  -18.0253 C   0  0  0  0  0  0  0  0  0  0  0  0
   16.9023   -4.1977  -17.2212 N   0  0  0  0  0  0  0  0  0  0  0  0
   20.2361   -4.6046  -15.2900 C   0  0  0  0  0  0  0  0  0  0  0  0
   20.2758   -4.7253  -14.0443 O   0  0  0  0  0  0  0  0  0  0  0  0
   20.3512   -3.3421  -15.8355 O   0  0  0  0  0  0  0  0  0  0  0  0
  2  1  1  0
  3  2  2  0
  4  3  1  0
  5  4  2  0
  5 11  1  0
  6  7  1  0
  6  5  1  0
  7  8  1  1
  7  9  1  0
  9 10  2  0
 11 12  2  0
 12  2  1  0
 13 14  1  0
 15 14  1  6
 16  9  1  0
 16 15  1  0
 17 15  1  0
 17 18  2  0
 19 17  1  0
 20 19  1  0
 20 27  1  0
 20 21  1  1
 22 21  1  0
 22 26  1  0
 23 24  1  0
 23 22  2  0
 24 25  1  0
 25 26  2  0
 27 28  2  0
 27 29  1  0
M  END
$$$$
