YSH.pdb
     RDKit          3D

 29 30  0  0  1  0  0  0  0  0999 V2000
   20.5036  -16.2933  -22.9251 O   0  0  0  0  0  0  0  0  0  0  0  0
   20.8471  -15.6507  -21.7289 C   0  0  0  0  0  0  0  0  0  0  0  0
   19.8964  -15.0286  -20.9466 C   0  0  0  0  0  0  0  0  0  0  0  0
   20.2586  -14.3995  -19.7679 C   0  0  0  0  0  0  0  0  0  0  0  0
   21.5673  -14.3655  -19.3268 C   0  0  0  0  0  0  0  0  0  0  0  0
   21.9552  -13.6864  -18.0552 C   0  0  0  0  0  0  0  0  0  0  0  0
   21.9856  -12.2141  -18.3159 C   0  0  2  0  0  0  0  0  0  0  0  0
   23.0319  -11.9189  -19.2552 N   0  0  0  0  0  0  0  0  0  0  0  0
   22.0790  -11.4053  -17.0807 C   0  0  0  0  0  0  0  0  0  0  0  0
   21.2417  -11.6051  -16.1760 O   0  0  0  0  0  0  0  0  0  0  0  0
   22.5118  -14.9915  -20.1176 C   0  0  0  0  0  0  0  0  0  0  0  0
   22.1552  -15.6196  -21.2928 C   0  0  0  0  0  0  0  0  0  0  0  0
   25.3081   -8.9075  -16.3115 O   0  0  0  0  0  0  0  0  0  0  0  0
   24.5432   -9.4082  -15.2417 C   0  0  0  0  0  0  0  0  0  0  0  0
   23.1101   -9.5474  -15.7120 C   0  0  2  0  0  0  0  0  0  0  0  0
   23.0716  -10.4135  -16.8706 N   0  0  0  0  0  0  0  0  0  0  0  0
   22.6110   -8.1857  -16.0167 C   0  0  0  0  0  0  0  0  0  0  0  0
   22.6811   -7.6390  -17.1333 O   0  0  0  0  0  0  0  0  0  0  0  0
   22.0114   -7.4597  -14.9531 N   0  0  0  0  0  0  0  0  0  0  0  0
   21.5769   -6.0889  -15.0903 C   0  0  1  0  0  0  0  0  0  0  0  0
   20.0490   -6.1182  -14.9812 C   0  0  0  0  0  0  0  0  0  0  0  0
   19.4215   -6.6350  -16.2242 C   0  0  0  0  0  0  0  0  0  0  0  0
   20.0605   -7.0452  -17.3711 C   0  0  0  0  0  0  0  0  0  0  0  0
   19.1497   -7.4456  -18.2739 N   0  0  0  0  0  0  0  0  0  0  0  0
   17.9159   -7.2951  -17.7120 C   0  0  0  0  0  0  0  0  0  0  0  0
   18.0973   -6.8024  -16.4683 N   0  0  0  0  0  0  0  0  0  0  0  0
   22.1724   -5.1985  -14.0874 C   0  0  0  0  0  0  0  0  0  0  0  0
   22.8728   -5.6884  -13.1724 O   0  0  0  0  0  0  0  0  0  0  0  0
   21.9867   -3.8312  -14.1173 O   0  0  0  0  0  0  0  0  0  0  0  0
  2  1  1  0
  3  2  2  0
  4  3  1  0
  5  4  2  0
  5 11  1  0
  6  7  1  0
  6  5  1  0
  7  8  1  6
  7  9  1  0
  9 10  2  0
 11 12  2  0
 12  2  1  0
 13 14  1  0
 15 14  1  6
 16  9  1  0
 16 15  1  0
 17 15  1  0
 17 18  2  0
 19 17  1  0
 20 19  1  0
 20 27  1  0
 20 21  1  1
 22 21  1  0
 22 26  1  0
 23 24  1  0
 23 22  2  0
 24 25  1  0
 25 26  2  0
 27 28  2  0
 27 29  1  0
M  END
$$$$
