YSH.pdb
     RDKit          3D

 29 30  0  0  1  0  0  0  0  0999 V2000
   33.3093   -9.1088  -17.9838 O   0  0  0  0  0  0  0  0  0  0  0  0
   31.9162   -9.1576  -18.1207 C   0  0  0  0  0  0  0  0  0  0  0  0
   31.1069   -8.1643  -17.6097 C   0  0  0  0  0  0  0  0  0  0  0  0
   29.7322   -8.2331  -17.7568 C   0  0  0  0  0  0  0  0  0  0  0  0
   29.1161   -9.2823  -18.4112 C   0  0  0  0  0  0  0  0  0  0  0  0
   27.6333   -9.3540  -18.5685 C   0  0  0  0  0  0  0  0  0  0  0  0
   27.0898  -10.1325  -17.4131 C   0  0  2  0  0  0  0  0  0  0  0  0
   27.6189  -11.4678  -17.4482 N   0  0  0  0  0  0  0  0  0  0  0  0
   25.6128  -10.1031  -17.3337 C   0  0  0  0  0  0  0  0  0  0  0  0
   24.9620  -10.8232  -18.1196 O   0  0  0  0  0  0  0  0  0  0  0  0
   29.9357  -10.2719  -18.9193 C   0  0  0  0  0  0  0  0  0  0  0  0
   31.3060  -10.2073  -18.7751 C   0  0  0  0  0  0  0  0  0  0  0  0
   23.6859   -9.4005  -13.9989 O   0  0  0  0  0  0  0  0  0  0  0  0
   22.9779   -9.9362  -15.0908 C   0  0  0  0  0  0  0  0  0  0  0  0
   23.4524   -9.2374  -16.3482 C   0  0  2  0  0  0  0  0  0  0  0  0
   24.8968   -9.2986  -16.4101 N   0  0  0  0  0  0  0  0  0  0  0  0
   22.9549   -7.8426  -16.2929 C   0  0  0  0  0  0  0  0  0  0  0  0
   23.6684   -6.8305  -16.4242 O   0  0  0  0  0  0  0  0  0  0  0  0
   21.5637   -7.6564  -16.0741 N   0  0  0  0  0  0  0  0  0  0  0  0
   20.9476   -6.3507  -16.0304 C   0  0  1  0  0  0  0  0  0  0  0  0
   21.1174   -5.7573  -17.4326 C   0  0  0  0  0  0  0  0  0  0  0  0
   20.4995   -4.4107  -17.5354 C   0  0  0  0  0  0  0  0  0  0  0  0
   19.1887   -4.1164  -17.8303 C   0  0  0  0  0  0  0  0  0  0  0  0
   19.0166   -2.7839  -17.8301 N   0  0  0  0  0  0  0  0  0  0  0  0
   20.2187   -2.2113  -17.5344 C   0  0  0  0  0  0  0  0  0  0  0  0
   21.1085   -3.2111  -17.3582 N   0  0  0  0  0  0  0  0  0  0  0  0
   19.5360   -6.3989  -15.6321 C   0  0  0  0  0  0  0  0  0  0  0  0
   19.0589   -5.4609  -14.9537 O   0  0  0  0  0  0  0  0  0  0  0  0
   18.7104   -7.4483  -15.9814 O   0  0  0  0  0  0  0  0  0  0  0  0
  2  1  1  0
  3  2  2  0
  4  3  1  0
  5  4  2  0
  5 11  1  0
  6  7  1  0
  6  5  1  0
  7  8  1  6
  7  9  1  0
  9 10  2  0
 11 12  2  0
 12  2  1  0
 13 14  1  0
 15 14  1  1
 16  9  1  0
 16 15  1  0
 17 15  1  0
 17 18  2  0
 19 17  1  0
 20 19  1  0
 20 27  1  0
 20 21  1  6
 22 21  1  0
 22 26  1  0
 23 24  1  0
 23 22  2  0
 24 25  1  0
 25 26  2  0
 27 28  2  0
 27 29  1  0
M  END
$$$$
