YSH.pdb
     RDKit          3D

 29 30  0  0  1  0  0  0  0  0999 V2000
   27.0111  -21.2955   -6.8699 O   0  0  0  0  0  0  0  0  0  0  0  0
   26.7357  -20.9920   -8.2092 C   0  0  0  0  0  0  0  0  0  0  0  0
   25.4411  -20.9168   -8.6793 C   0  0  0  0  0  0  0  0  0  0  0  0
   25.1922  -20.6152  -10.0073 C   0  0  0  0  0  0  0  0  0  0  0  0
   26.2116  -20.3794  -10.9093 C   0  0  0  0  0  0  0  0  0  0  0  0
   25.9404  -20.0543  -12.3409 C   0  0  0  0  0  0  0  0  0  0  0  0
   25.4283  -21.2948  -13.0006 C   0  0  2  0  0  0  0  0  0  0  0  0
   26.5090  -21.9521  -13.6820 N   0  0  0  0  0  0  0  0  0  0  0  0
   24.2623  -21.0497  -13.8776 C   0  0  0  0  0  0  0  0  0  0  0  0
   24.4712  -20.7194  -15.0638 O   0  0  0  0  0  0  0  0  0  0  0  0
   27.5046  -20.4571  -10.4284 C   0  0  0  0  0  0  0  0  0  0  0  0
   27.7571  -20.7573   -9.1059 C   0  0  0  0  0  0  0  0  0  0  0  0
   20.5713  -22.3046  -12.6986 O   0  0  0  0  0  0  0  0  0  0  0  0
   20.8537  -22.2495  -14.0762 C   0  0  0  0  0  0  0  0  0  0  0  0
   21.7742  -21.0718  -14.3215 C   0  0  2  0  0  0  0  0  0  0  0  0
   22.9179  -21.1705  -13.4405 N   0  0  0  0  0  0  0  0  0  0  0  0
   20.9883  -19.8390  -14.0794 C   0  0  0  0  0  0  0  0  0  0  0  0
   20.9155  -19.2489  -12.9852 O   0  0  0  0  0  0  0  0  0  0  0  0
   20.2700  -19.2990  -15.1796 N   0  0  0  0  0  0  0  0  0  0  0  0
   19.4378  -18.1237  -15.0681 C   0  0  1  0  0  0  0  0  0  0  0  0
   19.3945  -17.5035  -16.4683 C   0  0  0  0  0  0  0  0  0  0  0  0
   20.6995  -16.8995  -16.8398 C   0  0  0  0  0  0  0  0  0  0  0  0
   21.6542  -17.4293  -17.6764 C   0  0  0  0  0  0  0  0  0  0  0  0
   22.6952  -16.5843  -17.7617 N   0  0  0  0  0  0  0  0  0  0  0  0
   22.4162  -15.5030  -16.9786 C   0  0  0  0  0  0  0  0  0  0  0  0
   21.2018  -15.7089  -16.4258 N   0  0  0  0  0  0  0  0  0  0  0  0
   18.0908  -18.4236  -14.5690 C   0  0  0  0  0  0  0  0  0  0  0  0
   17.5787  -19.5381  -14.8205 O   0  0  0  0  0  0  0  0  0  0  0  0
   17.3638  -17.5146  -13.8272 O   0  0  0  0  0  0  0  0  0  0  0  0
  2  1  1  0
  3  2  2  0
  4  3  1  0
  5  4  2  0
  5 11  1  0
  6  7  1  0
  6  5  1  0
  7  8  1  6
  7  9  1  0
  9 10  2  0
 11 12  2  0
 12  2  1  0
 13 14  1  0
 15 14  1  1
 16  9  1  0
 16 15  1  0
 17 15  1  0
 17 18  2  0
 19 17  1  0
 20 19  1  0
 20 27  1  0
 20 21  1  6
 22 21  1  0
 22 26  1  0
 23 24  1  0
 23 22  2  0
 24 25  1  0
 25 26  2  0
 27 28  2  0
 27 29  1  0
M  END
$$$$
