YSH.pdb
     RDKit          3D

 29 30  0  0  1  0  0  0  0  0999 V2000
   27.7197  -32.4692  -17.4946 O   0  0  0  0  0  0  0  0  0  0  0  0
   27.2730  -32.8938  -16.2368 C   0  0  0  0  0  0  0  0  0  0  0  0
   25.9856  -33.3513  -16.0463 C   0  0  0  0  0  0  0  0  0  0  0  0
   25.5655  -33.7660  -14.7942 C   0  0  0  0  0  0  0  0  0  0  0  0
   26.4015  -33.7416  -13.6946 C   0  0  0  0  0  0  0  0  0  0  0  0
   25.9459  -34.1894  -12.3455 C   0  0  0  0  0  0  0  0  0  0  0  0
   26.3965  -35.6031  -12.1584 C   0  0  2  0  0  0  0  0  0  0  0  0
   25.5910  -36.4707  -12.9723 N   0  0  0  0  0  0  0  0  0  0  0  0
   26.4342  -36.0199  -10.7395 C   0  0  0  0  0  0  0  0  0  0  0  0
   25.3510  -36.2168  -10.1500 O   0  0  0  0  0  0  0  0  0  0  0  0
   27.6888  -33.2816  -13.8961 C   0  0  0  0  0  0  0  0  0  0  0  0
   28.1116  -32.8674  -15.1421 C   0  0  0  0  0  0  0  0  0  0  0  0
   28.9060  -37.6599   -6.9354 O   0  0  0  0  0  0  0  0  0  0  0  0
   28.9495  -37.2721   -8.2875 C   0  0  0  0  0  0  0  0  0  0  0  0
   27.6856  -36.4963   -8.5958 C   0  0  2  0  0  0  0  0  0  0  0  0
   27.6384  -36.2078  -10.0130 N   0  0  0  0  0  0  0  0  0  0  0  0
   27.7137  -35.2622   -7.7759 C   0  0  0  0  0  0  0  0  0  0  0  0
   28.5119  -34.3207   -7.9403 O   0  0  0  0  0  0  0  0  0  0  0  0
   26.7583  -35.1543   -6.7301 N   0  0  0  0  0  0  0  0  0  0  0  0
   26.7132  -34.0285   -5.8263 C   0  0  1  0  0  0  0  0  0  0  0  0
   25.2860  -33.4780   -5.9096 C   0  0  0  0  0  0  0  0  0  0  0  0
   25.0924  -32.6404   -7.1206 C   0  0  0  0  0  0  0  0  0  0  0  0
   26.0244  -32.3492   -8.0893 C   0  0  0  0  0  0  0  0  0  0  0  0
   25.4688  -31.5609   -9.0246 N   0  0  0  0  0  0  0  0  0  0  0  0
   24.1725  -31.3395   -8.6627 C   0  0  0  0  0  0  0  0  0  0  0  0
   23.9590  -32.0010   -7.5054 N   0  0  0  0  0  0  0  0  0  0  0  0
   27.0738  -34.3870   -4.4497 C   0  0  0  0  0  0  0  0  0  0  0  0
   27.0739  -33.5001   -3.5660 O   0  0  0  0  0  0  0  0  0  0  0  0
   27.4148  -35.6758   -4.0925 O   0  0  0  0  0  0  0  0  0  0  0  0
  2  1  1  0
  3  2  2  0
  4  3  1  0
  5  4  2  0
  5 11  1  0
  6  7  1  0
  6  5  1  0
  7  8  1  6
  7  9  1  0
  9 10  2  0
 11 12  2  0
 12  2  1  0
 13 14  1  0
 15 14  1  6
 16  9  1  0
 16 15  1  0
 17 15  1  0
 17 18  2  0
 19 17  1  0
 20 19  1  0
 20 27  1  0
 20 21  1  1
 22 21  1  0
 22 26  1  0
 23 24  1  0
 23 22  2  0
 24 25  1  0
 25 26  2  0
 27 28  2  0
 27 29  1  0
M  END
$$$$
