YSH.pdb
     RDKit          3D

 29 30  0  0  1  0  0  0  0  0999 V2000
   22.6092  -13.8722  -24.5977 O   0  0  0  0  0  0  0  0  0  0  0  0
   22.2970  -13.1845  -23.4181 C   0  0  0  0  0  0  0  0  0  0  0  0
   21.5835  -13.7848  -22.4015 C   0  0  0  0  0  0  0  0  0  0  0  0
   21.2862  -13.0860  -21.2442 C   0  0  0  0  0  0  0  0  0  0  0  0
   21.6835  -11.7763  -21.0556 C   0  0  0  0  0  0  0  0  0  0  0  0
   21.3616  -11.0250  -19.8064 C   0  0  0  0  0  0  0  0  0  0  0  0
   22.5897  -11.0126  -18.9531 C   0  0  2  0  0  0  0  0  0  0  0  0
   22.8999  -12.3552  -18.5463 N   0  0  0  0  0  0  0  0  0  0  0  0
   22.4974  -10.0750  -17.8124 C   0  0  0  0  0  0  0  0  0  0  0  0
   22.5789  -10.5382  -16.6556 O   0  0  0  0  0  0  0  0  0  0  0  0
   22.3976  -11.1843  -22.0797 C   0  0  0  0  0  0  0  0  0  0  0  0
   22.6960  -11.8770  -23.2346 C   0  0  0  0  0  0  0  0  0  0  0  0
   24.6030   -7.2444  -16.9426 O   0  0  0  0  0  0  0  0  0  0  0  0
   23.6112   -7.8075  -16.1181 C   0  0  0  0  0  0  0  0  0  0  0  0
   22.2912   -7.7436  -16.8583 C   0  0  2  0  0  0  0  0  0  0  0  0
   22.3209   -8.6754  -17.9649 N   0  0  0  0  0  0  0  0  0  0  0  0
   22.1063   -6.3449  -17.3117 C   0  0  0  0  0  0  0  0  0  0  0  0
   22.4619   -5.9074  -18.4220 O   0  0  0  0  0  0  0  0  0  0  0  0
   21.4778   -5.4463  -16.4087 N   0  0  0  0  0  0  0  0  0  0  0  0
   21.1518   -4.0842  -16.7621 C   0  0  1  0  0  0  0  0  0  0  0  0
   20.3176   -4.1695  -18.0443 C   0  0  0  0  0  0  0  0  0  0  0  0
   19.9450   -2.8220  -18.5454 C   0  0  0  0  0  0  0  0  0  0  0  0
   20.7960   -1.8103  -18.9253 C   0  0  0  0  0  0  0  0  0  0  0  0
   20.0790   -0.7450  -19.3202 N   0  0  0  0  0  0  0  0  0  0  0  0
   18.7590   -1.0654  -19.1966 C   0  0  0  0  0  0  0  0  0  0  0  0
   18.6938   -2.3288  -18.7254 N   0  0  0  0  0  0  0  0  0  0  0  0
   20.4334   -3.3747  -15.6973 C   0  0  0  0  0  0  0  0  0  0  0  0
   20.0488   -4.0104  -14.6894 O   0  0  0  0  0  0  0  0  0  0  0  0
   20.1649   -2.0227  -15.7678 O   0  0  0  0  0  0  0  0  0  0  0  0
  2  1  1  0
  3  2  2  0
  4  3  1  0
  5  4  2  0
  5 11  1  0
  6  7  1  0
  6  5  1  0
  7  8  1  1
  7  9  1  0
  9 10  2  0
 11 12  2  0
 12  2  1  0
 13 14  1  0
 15 14  1  6
 16  9  1  0
 16 15  1  0
 17 15  1  0
 17 18  2  0
 19 17  1  0
 20 19  1  0
 20 27  1  0
 20 21  1  6
 22 21  1  0
 22 26  1  0
 23 24  1  0
 23 22  2  0
 24 25  1  0
 25 26  2  0
 27 28  2  0
 27 29  1  0
M  END
$$$$
