YSH.pdb
     RDKit          3D

 29 30  0  0  1  0  0  0  0  0999 V2000
   23.2248   -8.1292  -27.7918 O   0  0  0  0  0  0  0  0  0  0  0  0
   22.9752   -7.9766  -26.4221 C   0  0  0  0  0  0  0  0  0  0  0  0
   21.9081   -8.6010  -25.8103 C   0  0  0  0  0  0  0  0  0  0  0  0
   21.6803   -8.4361  -24.4549 C   0  0  0  0  0  0  0  0  0  0  0  0
   22.4974   -7.6515  -23.6640 C   0  0  0  0  0  0  0  0  0  0  0  0
   22.2496   -7.4754  -22.2025 C   0  0  0  0  0  0  0  0  0  0  0  0
   23.2597   -8.2970  -21.4669 C   0  0  2  0  0  0  0  0  0  0  0  0
   22.9745   -9.6911  -21.6653 N   0  0  0  0  0  0  0  0  0  0  0  0
   23.3773   -7.9337  -20.0376 C   0  0  0  0  0  0  0  0  0  0  0  0
   22.6481   -8.5242  -19.2135 O   0  0  0  0  0  0  0  0  0  0  0  0
   23.5633   -7.0305  -24.2864 C   0  0  0  0  0  0  0  0  0  0  0  0
   23.7939   -7.1922  -25.6368 C   0  0  0  0  0  0  0  0  0  0  0  0
   25.6314   -5.2770  -16.6273 O   0  0  0  0  0  0  0  0  0  0  0  0
   25.5061   -5.5720  -17.9976 C   0  0  0  0  0  0  0  0  0  0  0  0
   24.3593   -6.5471  -18.1665 C   0  0  2  0  0  0  0  0  0  0  0  0
   24.2764   -6.9483  -19.5543 N   0  0  0  0  0  0  0  0  0  0  0  0
   23.1269   -5.8631  -17.7089 C   0  0  0  0  0  0  0  0  0  0  0  0
   22.5063   -5.0070  -18.3666 O   0  0  0  0  0  0  0  0  0  0  0  0
   22.6250   -6.2153  -16.4275 N   0  0  0  0  0  0  0  0  0  0  0  0
   21.4985   -5.5468  -15.8189 C   0  0  1  0  0  0  0  0  0  0  0  0
   20.3859   -6.5959  -15.7255 C   0  0  0  0  0  0  0  0  0  0  0  0
   19.1758   -6.0522  -15.0578 C   0  0  0  0  0  0  0  0  0  0  0  0
   18.9986   -4.7817  -14.5615 C   0  0  0  0  0  0  0  0  0  0  0  0
   17.7686   -4.6740  -14.0319 N   0  0  0  0  0  0  0  0  0  0  0  0
   17.1452   -5.8776  -14.1845 C   0  0  0  0  0  0  0  0  0  0  0  0
   18.0118   -6.7035  -14.8087 N   0  0  0  0  0  0  0  0  0  0  0  0
   21.8151   -4.9776  -14.5039 C   0  0  0  0  0  0  0  0  0  0  0  0
   20.9776   -4.2377  -13.9393 O   0  0  0  0  0  0  0  0  0  0  0  0
   23.0112   -5.2307  -13.8634 O   0  0  0  0  0  0  0  0  0  0  0  0
  2  1  1  0
  3  2  2  0
  4  3  1  0
  5  4  2  0
  5 11  1  0
  6  7  1  0
  6  5  1  0
  7  8  1  1
  7  9  1  0
  9 10  2  0
 11 12  2  0
 12  2  1  0
 13 14  1  0
 15 14  1  6
 16  9  1  0
 16 15  1  0
 17 15  1  0
 17 18  2  0
 19 17  1  0
 20 19  1  0
 20 27  1  0
 20 21  1  1
 22 21  1  0
 22 26  1  0
 23 24  1  0
 23 22  2  0
 24 25  1  0
 25 26  2  0
 27 28  2  0
 27 29  1  0
M  END
$$$$
