FTE.pdb
     RDKit          3D

 28 28  0  0  1  0  0  0  0  0999 V2000
   28.8585  -21.2916   -9.1784 N   0  0  0  0  0  0  0  0  0  0  0  0
   27.4839  -20.8598   -9.0151 C   0  0  1  0  0  0  0  0  0  0  0  0
   27.5122  -19.4940   -8.3420 C   0  0  0  0  0  0  0  0  0  0  0  0
   27.9763  -19.6509   -6.9522 C   0  0  0  0  0  0  0  0  0  0  0  0
   27.0468  -19.8889   -5.9771 C   0  0  0  0  0  0  0  0  0  0  0  0
   27.4275  -20.0419   -4.6711 C   0  0  0  0  0  0  0  0  0  0  0  0
   28.7646  -19.9540   -4.3417 C   0  0  0  0  0  0  0  0  0  0  0  0
   29.7018  -19.7165   -5.3087 C   0  0  0  0  0  0  0  0  0  0  0  0
   29.3116  -19.5617   -6.6327 C   0  0  0  0  0  0  0  0  0  0  0  0
   26.8444  -20.6930  -10.3436 C   0  0  0  0  0  0  0  0  0  0  0  0
   27.5270  -20.2458  -11.2965 O   0  0  0  0  0  0  0  0  0  0  0  0
   24.5971  -21.9607  -14.0514 C   0  0  0  0  0  0  0  0  0  0  0  0
   25.1543  -22.1972  -12.6775 C   0  0  1  0  0  0  0  0  0  0  0  0
   26.5444  -22.3509  -12.8209 O   0  0  0  0  0  0  0  0  0  0  0  0
   24.8922  -20.9400  -11.8568 C   0  0  2  0  0  0  0  0  0  0  0  0
   25.4829  -21.0312  -10.5430 N   0  0  0  0  0  0  0  0  0  0  0  0
   23.4286  -20.7322  -11.7782 C   0  0  0  0  0  0  0  0  0  0  0  0
   22.7291  -21.0888  -10.8058 O   0  0  0  0  0  0  0  0  0  0  0  0
   22.7837  -20.0959  -12.8603 N   0  0  0  0  0  0  0  0  0  0  0  0
   21.3646  -19.7513  -12.8463 C   0  0  1  0  0  0  0  0  0  0  0  0
   21.1984  -18.7445  -13.9579 C   0  0  0  0  0  0  0  0  0  0  0  0
   19.7824  -18.3368  -14.1770 C   0  0  0  0  0  0  0  0  0  0  0  0
   19.7483  -17.3102  -15.2654 C   0  0  0  0  0  0  0  0  0  0  0  0
   20.6079  -17.3082  -16.1606 O   0  0  0  0  0  0  0  0  0  0  0  0
   20.5028  -20.9163  -12.9220 C   0  0  0  0  0  0  0  0  0  0  0  0
   20.7669  -21.8602  -13.6935 O   0  0  0  0  0  0  0  0  0  0  0  0
   18.7320  -16.3375  -15.2746 O   0  0  0  0  0  0  0  0  0  0  0  0
   19.3661  -21.0051  -12.1375 O   0  0  0  0  0  0  0  0  0  0  0  0
  2  1  1  6
  2  3  1  0
  3  4  1  0
  4  9  2  0
  5  6  2  0
  5  4  1  0
  6  7  1  0
  7  8  2  0
  9  8  1  0
 10  2  1  0
 10 16  1  0
 11 10  2  0
 13 15  1  0
 13 12  1  6
 14 13  1  0
 15 16  1  1
 17 15  1  0
 18 17  2  0
 19 17  1  0
 20 19  1  0
 20 25  1  0
 21 22  1  0
 20 21  1  6
 23 22  1  0
 24 23  2  0
 25 28  1  0
 26 25  2  0
 27 23  1  0
M  END
$$$$
