FTE.pdb
     RDKit          3D

 28 28  0  0  1  0  0  0  0  0999 V2000
   28.6618  -22.3684  -13.2091 N   0  0  0  0  0  0  0  0  0  0  0  0
   27.6742  -21.5357  -12.5504 C   0  0  1  0  0  0  0  0  0  0  0  0
   28.3811  -20.2677  -12.0904 C   0  0  0  0  0  0  0  0  0  0  0  0
   29.2606  -20.5913  -10.9532 C   0  0  0  0  0  0  0  0  0  0  0  0
   30.5904  -20.8010  -11.1963 C   0  0  0  0  0  0  0  0  0  0  0  0
   31.4485  -21.1044  -10.1736 C   0  0  0  0  0  0  0  0  0  0  0  0
   30.9601  -21.1980   -8.8864 C   0  0  0  0  0  0  0  0  0  0  0  0
   29.6326  -20.9903   -8.6326 C   0  0  0  0  0  0  0  0  0  0  0  0
   28.7651  -20.6827   -9.6729 C   0  0  0  0  0  0  0  0  0  0  0  0
   26.6214  -21.1379  -13.5173 C   0  0  0  0  0  0  0  0  0  0  0  0
   26.8643  -21.2091  -14.7461 O   0  0  0  0  0  0  0  0  0  0  0  0
   22.5377  -22.6153  -14.5782 C   0  0  0  0  0  0  0  0  0  0  0  0
   23.8370  -22.4469  -13.8450 C   0  0  1  0  0  0  0  0  0  0  0  0
   24.8199  -23.1144  -14.5965 O   0  0  0  0  0  0  0  0  0  0  0  0
   24.1663  -20.9589  -13.8372 C   0  0  2  0  0  0  0  0  0  0  0  0
   25.3565  -20.6828  -13.0689 N   0  0  0  0  0  0  0  0  0  0  0  0
   22.9961  -20.2260  -13.3033 C   0  0  0  0  0  0  0  0  0  0  0  0
   22.7242  -20.1470  -12.0859 O   0  0  0  0  0  0  0  0  0  0  0  0
   22.1373  -19.5790  -14.2173 N   0  0  0  0  0  0  0  0  0  0  0  0
   20.9669  -18.8119  -13.7993 C   0  0  1  0  0  0  0  0  0  0  0  0
   20.4794  -18.1319  -15.0550 C   0  0  0  0  0  0  0  0  0  0  0  0
   21.4910  -17.2241  -15.6645 C   0  0  0  0  0  0  0  0  0  0  0  0
   20.8793  -16.5708  -16.8640 C   0  0  0  0  0  0  0  0  0  0  0  0
   19.6984  -16.7947  -17.1732 O   0  0  0  0  0  0  0  0  0  0  0  0
   19.9842  -19.6213  -13.1031 C   0  0  0  0  0  0  0  0  0  0  0  0
   19.7747  -20.8046  -13.4378 O   0  0  0  0  0  0  0  0  0  0  0  0
   21.6500  -15.6940  -17.6492 O   0  0  0  0  0  0  0  0  0  0  0  0
   19.2561  -19.0961  -12.0497 O   0  0  0  0  0  0  0  0  0  0  0  0
  2  1  1  6
  2  3  1  0
  3  4  1  0
  4  9  2  0
  5  6  2  0
  5  4  1  0
  6  7  1  0
  7  8  2  0
  9  8  1  0
 10  2  1  0
 10 16  1  0
 11 10  2  0
 13 15  1  0
 13 12  1  6
 14 13  1  0
 15 16  1  1
 17 15  1  0
 18 17  2  0
 19 17  1  0
 20 19  1  0
 20 25  1  0
 21 22  1  0
 20 21  1  6
 23 22  1  0
 24 23  2  0
 25 28  1  0
 26 25  2  0
 27 23  1  0
M  END
$$$$
