FTE.pdb
     RDKit          3D

 28 28  0  0  1  0  0  0  0  0999 V2000
   24.7189  -15.0194  -17.3356 N   0  0  0  0  0  0  0  0  0  0  0  0
   23.6785  -14.4174  -16.5245 C   0  0  1  0  0  0  0  0  0  0  0  0
   23.9457  -14.8082  -15.0770 C   0  0  0  0  0  0  0  0  0  0  0  0
   23.5712  -16.2200  -14.8817 C   0  0  0  0  0  0  0  0  0  0  0  0
   22.2425  -16.5397  -14.8207 C   0  0  0  0  0  0  0  0  0  0  0  0
   21.8433  -17.8368  -14.6405 C   0  0  0  0  0  0  0  0  0  0  0  0
   22.7966  -18.8271  -14.5199 C   0  0  0  0  0  0  0  0  0  0  0  0
   24.1273  -18.5183  -14.5795 C   0  0  0  0  0  0  0  0  0  0  0  0
   24.5284  -17.2010  -14.7624 C   0  0  0  0  0  0  0  0  0  0  0  0
   23.7596  -12.9385  -16.6130 C   0  0  0  0  0  0  0  0  0  0  0  0
   24.8873  -12.3886  -16.6060 O   0  0  0  0  0  0  0  0  0  0  0  0
   23.0531  -10.9553  -19.2855 C   0  0  0  0  0  0  0  0  0  0  0  0
   22.1725  -10.2986  -18.2619 C   0  0  1  0  0  0  0  0  0  0  0  0
   20.8797  -10.8219  -18.4387 O   0  0  0  0  0  0  0  0  0  0  0  0
   22.6779  -10.7212  -16.8876 C   0  0  2  0  0  0  0  0  0  0  0  0
   22.5859  -12.1499  -16.7045 N   0  0  0  0  0  0  0  0  0  0  0  0
   21.8983   -9.9933  -15.8609 C   0  0  0  0  0  0  0  0  0  0  0  0
   21.0212  -10.5276  -15.1487 O   0  0  0  0  0  0  0  0  0  0  0  0
   22.1576   -8.6188  -15.6732 N   0  0  0  0  0  0  0  0  0  0  0  0
   21.3439   -7.7692  -14.8079 C   0  0  1  0  0  0  0  0  0  0  0  0
   22.0867   -6.4574  -14.7417 C   0  0  0  0  0  0  0  0  0  0  0  0
   21.4667   -5.4753  -13.8089 C   0  0  0  0  0  0  0  0  0  0  0  0
   22.3012   -4.2330  -13.8059 C   0  0  0  0  0  0  0  0  0  0  0  0
   23.3939   -4.2034  -14.3936 O   0  0  0  0  0  0  0  0  0  0  0  0
   19.9618   -7.6853  -15.2419 C   0  0  0  0  0  0  0  0  0  0  0  0
   19.6738   -7.6005  -16.4526 O   0  0  0  0  0  0  0  0  0  0  0  0
   21.8432   -3.0872  -13.1303 O   0  0  0  0  0  0  0  0  0  0  0  0
   18.9305   -7.6975  -14.3189 O   0  0  0  0  0  0  0  0  0  0  0  0
  2  1  1  6
  2  3  1  0
  3  4  1  0
  4  9  2  0
  5  6  2  0
  5  4  1  0
  6  7  1  0
  7  8  2  0
  9  8  1  0
 10  2  1  0
 10 16  1  0
 11 10  2  0
 13 15  1  0
 13 12  1  6
 14 13  1  0
 15 16  1  1
 17 15  1  0
 18 17  2  0
 19 17  1  0
 20 19  1  0
 20 25  1  0
 21 22  1  0
 20 21  1  6
 23 22  1  0
 24 23  2  0
 25 28  1  0
 26 25  2  0
 27 23  1  0
M  END
$$$$
