FTE.pdb
     RDKit          3D

 28 28  0  0  1  0  0  0  0  0999 V2000
   26.0701  -22.0371   -9.6681 N   0  0  0  0  0  0  0  0  0  0  0  0
   25.9621  -20.6314  -10.0072 C   0  0  1  0  0  0  0  0  0  0  0  0
   27.3673  -20.0455   -9.9748 C   0  0  0  0  0  0  0  0  0  0  0  0
   27.8021  -19.9123   -8.5731 C   0  0  0  0  0  0  0  0  0  0  0  0
   27.2995  -18.8796   -7.8298 C   0  0  0  0  0  0  0  0  0  0  0  0
   27.6723  -18.7128   -6.5231 C   0  0  0  0  0  0  0  0  0  0  0  0
   28.5648  -19.5994   -5.9561 C   0  0  0  0  0  0  0  0  0  0  0  0
   29.0731  -20.6350   -6.6903 C   0  0  0  0  0  0  0  0  0  0  0  0
   28.6924  -20.8009   -8.0158 C   0  0  0  0  0  0  0  0  0  0  0  0
   25.4447  -20.4825  -11.3899 C   0  0  0  0  0  0  0  0  0  0  0  0
   25.6367  -19.4028  -11.9992 O   0  0  0  0  0  0  0  0  0  0  0  0
   25.1641  -23.4669  -14.1920 C   0  0  0  0  0  0  0  0  0  0  0  0
   25.1626  -21.9799  -14.3991 C   0  0  1  0  0  0  0  0  0  0  0  0
   24.6192  -21.7453  -15.6743 O   0  0  0  0  0  0  0  0  0  0  0  0
   24.2262  -21.3759  -13.3593 C   0  0  2  0  0  0  0  0  0  0  0  0
   24.7428  -21.5390  -12.0215 N   0  0  0  0  0  0  0  0  0  0  0  0
   22.8965  -22.0099  -13.5064 C   0  0  0  0  0  0  0  0  0  0  0  0
   22.3695  -22.7265  -12.6285 O   0  0  0  0  0  0  0  0  0  0  0  0
   22.1811  -21.7950  -14.7038 N   0  0  0  0  0  0  0  0  0  0  0  0
   20.7264  -21.8926  -14.7869 C   0  0  1  0  0  0  0  0  0  0  0  0
   20.2126  -20.9492  -13.7272 C   0  0  0  0  0  0  0  0  0  0  0  0
   18.7277  -20.8310  -13.7130 C   0  0  0  0  0  0  0  0  0  0  0  0
   18.2752  -20.7177  -12.2910 C   0  0  0  0  0  0  0  0  0  0  0  0
   19.0474  -20.9882  -11.3578 O   0  0  0  0  0  0  0  0  0  0  0  0
   20.2237  -21.6616  -16.1284 C   0  0  0  0  0  0  0  0  0  0  0  0
   20.7828  -20.8487  -16.8916 O   0  0  0  0  0  0  0  0  0  0  0  0
   16.9617  -20.3005  -12.0086 O   0  0  0  0  0  0  0  0  0  0  0  0
   19.1097  -22.3404  -16.5909 O   0  0  0  0  0  0  0  0  0  0  0  0
  2  1  1  6
  2  3  1  0
  3  4  1  0
  4  9  2  0
  5  6  2  0
  5  4  1  0
  6  7  1  0
  7  8  2  0
  9  8  1  0
 10  2  1  0
 10 16  1  0
 11 10  2  0
 13 15  1  0
 13 12  1  1
 14 13  1  0
 15 16  1  1
 17 15  1  0
 18 17  2  0
 19 17  1  0
 20 19  1  0
 20 25  1  0
 21 22  1  0
 20 21  1  1
 23 22  1  0
 24 23  2  0
 25 28  1  0
 26 25  2  0
 27 23  1  0
M  END
$$$$
