FTE.pdb
     RDKit          3D

 28 28  0  0  1  0  0  0  0  0999 V2000
   17.9043  -12.3626  -16.6222 N   0  0  0  0  0  0  0  0  0  0  0  0
   18.4241  -11.1179  -17.1546 C   0  0  1  0  0  0  0  0  0  0  0  0
   17.2309  -10.2543  -17.5415 C   0  0  0  0  0  0  0  0  0  0  0  0
   16.5831  -10.8323  -18.7322 C   0  0  0  0  0  0  0  0  0  0  0  0
   17.1458  -10.6012  -19.9575 C   0  0  0  0  0  0  0  0  0  0  0  0
   16.5821  -11.1163  -21.0938 C   0  0  0  0  0  0  0  0  0  0  0  0
   15.4342  -11.8756  -20.9948 C   0  0  0  0  0  0  0  0  0  0  0  0
   14.8637  -12.1125  -19.7749 C   0  0  0  0  0  0  0  0  0  0  0  0
   15.4387  -11.5882  -18.6243 C   0  0  0  0  0  0  0  0  0  0  0  0
   19.1806  -10.3943  -16.1030 C   0  0  0  0  0  0  0  0  0  0  0  0
   18.7317  -10.3781  -14.9316 O   0  0  0  0  0  0  0  0  0  0  0  0
   22.2780  -11.0084  -14.7115 C   0  0  0  0  0  0  0  0  0  0  0  0
   22.4744   -9.5757  -15.1154 C   0  0  1  0  0  0  0  0  0  0  0  0
   23.1982   -9.5864  -16.3206 O   0  0  0  0  0  0  0  0  0  0  0  0
   21.0958   -8.9861  -15.3883 C   0  0  2  0  0  0  0  0  0  0  0  0
   20.3935   -9.7281  -16.4078 N   0  0  0  0  0  0  0  0  0  0  0  0
   21.2644   -7.5664  -15.7724 C   0  0  0  0  0  0  0  0  0  0  0  0
   21.0626   -7.1321  -16.9268 O   0  0  0  0  0  0  0  0  0  0  0  0
   21.6761   -6.6492  -14.7820 N   0  0  0  0  0  0  0  0  0  0  0  0
   21.7856   -5.2136  -15.0268 C   0  0  1  0  0  0  0  0  0  0  0  0
   20.3986   -4.7824  -15.4355 C   0  0  0  0  0  0  0  0  0  0  0  0
   19.4361   -4.7388  -14.2993 C   0  0  0  0  0  0  0  0  0  0  0  0
   18.1660   -4.1089  -14.7785 C   0  0  0  0  0  0  0  0  0  0  0  0
   18.1926   -3.0843  -15.4785 O   0  0  0  0  0  0  0  0  0  0  0  0
   22.3602   -4.4947  -13.9049 C   0  0  0  0  0  0  0  0  0  0  0  0
   22.4992   -5.0449  -12.7941 O   0  0  0  0  0  0  0  0  0  0  0  0
   16.9292   -4.6832  -14.4326 O   0  0  0  0  0  0  0  0  0  0  0  0
   22.7674   -3.1793  -14.0439 O   0  0  0  0  0  0  0  0  0  0  0  0
  2  1  1  1
  2  3  1  0
  3  4  1  0
  4  9  2  0
  5  6  2  0
  5  4  1  0
  6  7  1  0
  7  8  2  0
  9  8  1  0
 10  2  1  0
 10 16  1  0
 11 10  2  0
 13 15  1  0
 13 12  1  6
 14 13  1  0
 15 16  1  6
 17 15  1  0
 18 17  2  0
 19 17  1  0
 20 19  1  0
 20 25  1  0
 21 22  1  0
 20 21  1  1
 23 22  1  0
 24 23  2  0
 25 28  1  0
 26 25  2  0
 27 23  1  0
M  END
$$$$
