FTE.pdb
     RDKit          3D

 28 28  0  0  1  0  0  0  0  0999 V2000
   28.9295  -21.2908   -8.9321 N   0  0  0  0  0  0  0  0  0  0  0  0
   27.5248  -20.9813   -8.7484 C   0  0  1  0  0  0  0  0  0  0  0  0
   27.4440  -19.6710   -7.9766 C   0  0  0  0  0  0  0  0  0  0  0  0
   28.0780  -19.8479   -6.6582 C   0  0  0  0  0  0  0  0  0  0  0  0
   28.5344  -21.0911   -6.3156 C   0  0  0  0  0  0  0  0  0  0  0  0
   29.1307  -21.3069   -5.1024 C   0  0  0  0  0  0  0  0  0  0  0  0
   29.2695  -20.2547   -4.2205 C   0  0  0  0  0  0  0  0  0  0  0  0
   28.8168  -19.0081   -4.5530 C   0  0  0  0  0  0  0  0  0  0  0  0
   28.2123  -18.7932   -5.7850 C   0  0  0  0  0  0  0  0  0  0  0  0
   26.8769  -20.7677  -10.0660 C   0  0  0  0  0  0  0  0  0  0  0  0
   27.5975  -20.6024  -11.0796 O   0  0  0  0  0  0  0  0  0  0  0  0
   26.7411  -21.5926  -12.5598 C   0  0  0  0  0  0  0  0  0  0  0  0
   25.2415  -21.5766  -12.4875 C   0  0  1  0  0  0  0  0  0  0  0  0
   24.8426  -22.8316  -11.9950 O   0  0  0  0  0  0  0  0  0  0  0  0
   24.8457  -20.5134  -11.4700 C   0  0  2  0  0  0  0  0  0  0  0  0
   25.4653  -20.7490  -10.1879 N   0  0  0  0  0  0  0  0  0  0  0  0
   23.3692  -20.4989  -11.3623 C   0  0  0  0  0  0  0  0  0  0  0  0
   22.7404  -20.9729  -10.3918 O   0  0  0  0  0  0  0  0  0  0  0  0
   22.6271  -19.9180  -12.4127 N   0  0  0  0  0  0  0  0  0  0  0  0
   21.1945  -19.6507  -12.3183 C   0  0  1  0  0  0  0  0  0  0  0  0
   20.8875  -18.7575  -13.4951 C   0  0  0  0  0  0  0  0  0  0  0  0
   20.8498  -19.4860  -14.7940 C   0  0  0  0  0  0  0  0  0  0  0  0
   20.4262  -18.5274  -15.8623 C   0  0  0  0  0  0  0  0  0  0  0  0
   20.3866  -18.8818  -17.0511 O   0  0  0  0  0  0  0  0  0  0  0  0
   20.4017  -20.8628  -12.2281 C   0  0  0  0  0  0  0  0  0  0  0  0
   20.7922  -21.9250  -12.7526 O   0  0  0  0  0  0  0  0  0  0  0  0
   20.0691  -17.2113  -15.5164 O   0  0  0  0  0  0  0  0  0  0  0  0
   19.1918  -20.8659  -11.5561 O   0  0  0  0  0  0  0  0  0  0  0  0
  2  1  1  6
  2  3  1  0
  3  4  1  0
  4  9  2  0
  5  6  2  0
  5  4  1  0
  6  7  1  0
  7  8  2  0
  9  8  1  0
 10  2  1  0
 10 16  1  0
 11 10  2  0
 13 15  1  0
 13 12  1  1
 14 13  1  0
 15 16  1  1
 17 15  1  0
 18 17  2  0
 19 17  1  0
 20 19  1  0
 20 25  1  0
 21 22  1  0
 20 21  1  6
 23 22  1  0
 24 23  2  0
 25 28  1  0
 26 25  2  0
 27 23  1  0
M  END
$$$$
