FTE.pdb
     RDKit          3D

 28 28  0  0  1  0  0  0  0  0999 V2000
   28.6859  -21.1559   -9.0781 N   0  0  0  0  0  0  0  0  0  0  0  0
   27.2654  -20.8715   -9.0130 C   0  0  1  0  0  0  0  0  0  0  0  0
   27.0956  -19.5749   -8.2325 C   0  0  0  0  0  0  0  0  0  0  0  0
   27.5738  -19.7762   -6.8533 C   0  0  0  0  0  0  0  0  0  0  0  0
   26.7555  -20.4215   -5.9670 C   0  0  0  0  0  0  0  0  0  0  0  0
   27.1538  -20.6330   -4.6744 C   0  0  0  0  0  0  0  0  0  0  0  0
   28.3951  -20.1878   -4.2679 C   0  0  0  0  0  0  0  0  0  0  0  0
   29.2207  -19.5417   -5.1458 C   0  0  0  0  0  0  0  0  0  0  0  0
   28.8130  -19.3290   -6.4565 C   0  0  0  0  0  0  0  0  0  0  0  0
   26.7309  -20.6472  -10.3789 C   0  0  0  0  0  0  0  0  0  0  0  0
   27.5337  -20.5374  -11.3369 O   0  0  0  0  0  0  0  0  0  0  0  0
   26.5878  -21.9826  -12.7526 C   0  0  0  0  0  0  0  0  0  0  0  0
   25.0980  -21.8010  -12.7104 C   0  0  1  0  0  0  0  0  0  0  0  0
   24.5766  -22.8722  -11.9639 O   0  0  0  0  0  0  0  0  0  0  0  0
   24.8179  -20.5076  -11.9546 C   0  0  2  0  0  0  0  0  0  0  0  0
   25.3355  -20.5569  -10.6081 N   0  0  0  0  0  0  0  0  0  0  0  0
   23.3567  -20.2703  -11.9636 C   0  0  0  0  0  0  0  0  0  0  0  0
   22.5939  -20.6083  -11.0331 O   0  0  0  0  0  0  0  0  0  0  0  0
   22.7899  -19.6265  -13.0843 N   0  0  0  0  0  0  0  0  0  0  0  0
   21.3740  -19.2782  -13.1670 C   0  0  1  0  0  0  0  0  0  0  0  0
   21.2069  -18.6517  -14.5295 C   0  0  0  0  0  0  0  0  0  0  0  0
   19.8152  -18.1955  -14.8018 C   0  0  0  0  0  0  0  0  0  0  0  0
   19.7668  -17.6216  -16.1831 C   0  0  0  0  0  0  0  0  0  0  0  0
   18.9436  -18.0385  -17.0131 O   0  0  0  0  0  0  0  0  0  0  0  0
   20.5016  -20.4024  -12.8830 C   0  0  0  0  0  0  0  0  0  0  0  0
   20.7522  -21.5384  -13.3332 O   0  0  0  0  0  0  0  0  0  0  0  0
   20.6631  -16.5994  -16.5450 O   0  0  0  0  0  0  0  0  0  0  0  0
   19.3693  -20.2377  -12.1043 O   0  0  0  0  0  0  0  0  0  0  0  0
  2  1  1  6
  2  3  1  0
  3  4  1  0
  4  9  2  0
  5  6  2  0
  5  4  1  0
  6  7  1  0
  7  8  2  0
  9  8  1  0
 10  2  1  0
 10 16  1  0
 11 10  2  0
 13 15  1  0
 13 12  1  1
 14 13  1  0
 15 16  1  1
 17 15  1  0
 18 17  2  0
 19 17  1  0
 20 19  1  0
 20 25  1  0
 21 22  1  0
 20 21  1  6
 23 22  1  0
 24 23  2  0
 25 28  1  0
 26 25  2  0
 27 23  1  0
M  END
$$$$
