FTE.pdb
     RDKit          3D

 28 28  0  0  1  0  0  0  0  0999 V2000
   19.8689  -13.4101  -17.9298 N   0  0  0  0  0  0  0  0  0  0  0  0
   20.3530  -12.0745  -18.2204 C   0  0  1  0  0  0  0  0  0  0  0  0
   19.2510  -11.3448  -18.9769 C   0  0  0  0  0  0  0  0  0  0  0  0
   19.1101  -11.9407  -20.3173 C   0  0  0  0  0  0  0  0  0  0  0  0
   20.0281  -11.6119  -21.2768 C   0  0  0  0  0  0  0  0  0  0  0  0
   19.9407  -12.1388  -22.5373 C   0  0  0  0  0  0  0  0  0  0  0  0
   18.9134  -13.0102  -22.8363 C   0  0  0  0  0  0  0  0  0  0  0  0
   17.9907  -13.3454  -21.8845 C   0  0  0  0  0  0  0  0  0  0  0  0
   18.0827  -12.8087  -20.6067 C   0  0  0  0  0  0  0  0  0  0  0  0
   20.5941  -11.3371  -16.9556 C   0  0  0  0  0  0  0  0  0  0  0  0
   19.8254  -11.5285  -15.9827 O   0  0  0  0  0  0  0  0  0  0  0  0
   22.7708  -11.6937  -14.5647 C   0  0  0  0  0  0  0  0  0  0  0  0
   23.0441  -10.2380  -14.8108 C   0  0  1  0  0  0  0  0  0  0  0  0
   24.2025  -10.1680  -15.6042 O   0  0  0  0  0  0  0  0  0  0  0  0
   21.8753   -9.6849  -15.6173 C   0  0  2  0  0  0  0  0  0  0  0  0
   21.6745  -10.4277  -16.8385 N   0  0  0  0  0  0  0  0  0  0  0  0
   22.1351   -8.2535  -15.8917 C   0  0  0  0  0  0  0  0  0  0  0  0
   22.2770   -7.7828  -17.0408 O   0  0  0  0  0  0  0  0  0  0  0  0
   22.2284   -7.3681  -14.7968 N   0  0  0  0  0  0  0  0  0  0  0  0
   22.2951   -5.9177  -14.9531 C   0  0  1  0  0  0  0  0  0  0  0  0
   21.0748   -5.5579  -15.7645 C   0  0  0  0  0  0  0  0  0  0  0  0
   20.8382   -4.0898  -15.8538 C   0  0  0  0  0  0  0  0  0  0  0  0
   19.8002   -3.8405  -16.9027 C   0  0  0  0  0  0  0  0  0  0  0  0
   19.2833   -4.7858  -17.5188 O   0  0  0  0  0  0  0  0  0  0  0  0
   22.4332   -5.2220  -13.6871 C   0  0  0  0  0  0  0  0  0  0  0  0
   22.0587   -5.7502  -12.6210 O   0  0  0  0  0  0  0  0  0  0  0  0
   19.4059   -2.5218  -17.1936 O   0  0  0  0  0  0  0  0  0  0  0  0
   22.9850   -3.9537  -13.6356 O   0  0  0  0  0  0  0  0  0  0  0  0
  2  1  1  1
  2  3  1  0
  3  4  1  0
  4  9  2  0
  5  6  2  0
  5  4  1  0
  6  7  1  0
  7  8  2  0
  9  8  1  0
 10  2  1  0
 10 16  1  0
 11 10  2  0
 13 15  1  0
 13 12  1  6
 14 13  1  0
 15 16  1  6
 17 15  1  0
 18 17  2  0
 19 17  1  0
 20 19  1  0
 20 25  1  0
 21 22  1  0
 20 21  1  1
 23 22  1  0
 24 23  2  0
 25 28  1  0
 26 25  2  0
 27 23  1  0
M  END
$$$$
