FTE.pdb
     RDKit          3D

 28 28  0  0  1  0  0  0  0  0999 V2000
   25.4487  -10.8772  -18.5472 N   0  0  0  0  0  0  0  0  0  0  0  0
   24.9753  -10.6022  -17.2044 C   0  0  1  0  0  0  0  0  0  0  0  0
   26.1712  -10.1324  -16.3869 C   0  0  0  0  0  0  0  0  0  0  0  0
   27.1472  -11.2317  -16.2845 C   0  0  0  0  0  0  0  0  0  0  0  0
   26.8376  -12.3074  -15.4981 C   0  0  0  0  0  0  0  0  0  0  0  0
   27.7108  -13.3540  -15.3702 C   0  0  0  0  0  0  0  0  0  0  0  0
   28.9141  -13.3170  -16.0445 C   0  0  0  0  0  0  0  0  0  0  0  0
   29.2333  -12.2465  -16.8331 C   0  0  0  0  0  0  0  0  0  0  0  0
   28.3447  -11.1865  -16.9603 C   0  0  0  0  0  0  0  0  0  0  0  0
   23.9874   -9.4954  -17.2326 C   0  0  0  0  0  0  0  0  0  0  0  0
   23.9651   -8.7237  -18.2216 O   0  0  0  0  0  0  0  0  0  0  0  0
   19.6858   -7.7476  -15.9964 C   0  0  0  0  0  0  0  0  0  0  0  0
   20.6997   -8.8340  -15.7824 C   0  0  1  0  0  0  0  0  0  0  0  0
   20.3343   -9.9045  -16.6172 O   0  0  0  0  0  0  0  0  0  0  0  0
   22.0474   -8.2982  -16.2504 C   0  0  2  0  0  0  0  0  0  0  0  0
   23.0781   -9.3047  -16.1627 N   0  0  0  0  0  0  0  0  0  0  0  0
   22.3833   -7.1082  -15.4363 C   0  0  0  0  0  0  0  0  0  0  0  0
   22.8618   -7.1697  -14.2834 O   0  0  0  0  0  0  0  0  0  0  0  0
   22.1515   -5.8310  -15.9902 N   0  0  0  0  0  0  0  0  0  0  0  0
   22.4725   -4.5916  -15.2876 C   0  0  1  0  0  0  0  0  0  0  0  0
   22.1614   -3.4936  -16.2747 C   0  0  0  0  0  0  0  0  0  0  0  0
   22.3792   -2.1267  -15.7240 C   0  0  0  0  0  0  0  0  0  0  0  0
   21.9776   -1.1279  -16.7636 C   0  0  0  0  0  0  0  0  0  0  0  0
   21.5522   -1.5006  -17.8683 O   0  0  0  0  0  0  0  0  0  0  0  0
   21.8068   -4.4859  -14.0025 C   0  0  0  0  0  0  0  0  0  0  0  0
   20.5820   -4.6965  -13.8955 O   0  0  0  0  0  0  0  0  0  0  0  0
   22.0831    0.2473  -16.4865 O   0  0  0  0  0  0  0  0  0  0  0  0
   22.5189   -4.1482  -12.8648 O   0  0  0  0  0  0  0  0  0  0  0  0
  2  1  1  6
  2  3  1  0
  3  4  1  0
  4  9  2  0
  5  6  2  0
  5  4  1  0
  6  7  1  0
  7  8  2  0
  9  8  1  0
 10  2  1  0
 10 16  1  0
 11 10  2  0
 13 15  1  0
 13 12  1  6
 14 13  1  0
 15 16  1  1
 17 15  1  0
 18 17  2  0
 19 17  1  0
 20 19  1  0
 20 25  1  0
 21 22  1  0
 20 21  1  6
 23 22  1  0
 24 23  2  0
 25 28  1  0
 26 25  2  0
 27 23  1  0
M  END
$$$$
