FTE.pdb
     RDKit          3D

 28 28  0  0  1  0  0  0  0  0999 V2000
   20.1961  -13.8882  -17.7937 N   0  0  0  0  0  0  0  0  0  0  0  0
   19.1469  -12.9864  -17.3593 C   0  0  1  0  0  0  0  0  0  0  0  0
   18.8424  -13.3096  -15.9026 C   0  0  0  0  0  0  0  0  0  0  0  0
   18.1102  -14.5866  -15.8349 C   0  0  0  0  0  0  0  0  0  0  0  0
   16.8123  -14.6178  -16.2660 C   0  0  0  0  0  0  0  0  0  0  0  0
   16.0895  -15.7797  -16.2236 C   0  0  0  0  0  0  0  0  0  0  0  0
   16.6826  -16.9278  -15.7396 C   0  0  0  0  0  0  0  0  0  0  0  0
   17.9794  -16.9074  -15.3062 C   0  0  0  0  0  0  0  0  0  0  0  0
   18.7095  -15.7266  -15.3509 C   0  0  0  0  0  0  0  0  0  0  0  0
   19.6285  -11.5841  -17.4173 C   0  0  0  0  0  0  0  0  0  0  0  0
   20.8512  -11.3527  -17.2573 O   0  0  0  0  0  0  0  0  0  0  0  0
   17.1708   -8.4161  -18.9256 C   0  0  0  0  0  0  0  0  0  0  0  0
   18.6542   -8.5481  -19.1158 C   0  0  1  0  0  0  0  0  0  0  0  0
   19.1684   -7.2452  -19.2363 O   0  0  0  0  0  0  0  0  0  0  0  0
   19.2224   -9.1733  -17.8474 C   0  0  2  0  0  0  0  0  0  0  0  0
   18.7281  -10.5149  -17.6496 N   0  0  0  0  0  0  0  0  0  0  0  0
   18.8813   -8.2974  -16.7036 C   0  0  0  0  0  0  0  0  0  0  0  0
   17.9114   -8.4988  -15.9416 O   0  0  0  0  0  0  0  0  0  0  0  0
   19.6949   -7.1710  -16.4570 N   0  0  0  0  0  0  0  0  0  0  0  0
   19.4790   -6.2682  -15.3296 C   0  0  1  0  0  0  0  0  0  0  0  0
   20.8583   -5.7963  -14.9400 C   0  0  0  0  0  0  0  0  0  0  0  0
   20.8501   -4.8071  -13.8262 C   0  0  0  0  0  0  0  0  0  0  0  0
   22.2495   -4.3204  -13.6150 C   0  0  0  0  0  0  0  0  0  0  0  0
   23.2195   -5.0433  -13.8921 O   0  0  0  0  0  0  0  0  0  0  0  0
   18.5186   -5.2211  -15.6245 C   0  0  0  0  0  0  0  0  0  0  0  0
   18.3480   -4.8177  -16.7924 O   0  0  0  0  0  0  0  0  0  0  0  0
   22.4682   -3.0307  -13.0972 O   0  0  0  0  0  0  0  0  0  0  0  0
   17.7693   -4.6459  -14.6129 O   0  0  0  0  0  0  0  0  0  0  0  0
  2  1  1  1
  2  3  1  0
  3  4  1  0
  4  9  2  0
  5  6  2  0
  5  4  1  0
  6  7  1  0
  7  8  2  0
  9  8  1  0
 10  2  1  0
 10 16  1  0
 11 10  2  0
 13 15  1  0
 13 12  1  1
 14 13  1  0
 15 16  1  1
 17 15  1  0
 18 17  2  0
 19 17  1  0
 20 19  1  0
 20 25  1  0
 21 22  1  0
 20 21  1  6
 23 22  1  0
 24 23  2  0
 25 28  1  0
 26 25  2  0
 27 23  1  0
M  END
$$$$
