FTE.pdb
     RDKit          3D

 28 28  0  0  1  0  0  0  0  0999 V2000
   28.6326  -21.1228   -8.7319 N   0  0  0  0  0  0  0  0  0  0  0  0
   27.2362  -20.7325   -8.7060 C   0  0  1  0  0  0  0  0  0  0  0  0
   27.1340  -19.4606   -7.8747 C   0  0  0  0  0  0  0  0  0  0  0  0
   27.7276  -19.7027   -6.5479 C   0  0  0  0  0  0  0  0  0  0  0  0
   26.9692  -20.3320   -5.5991 C   0  0  0  0  0  0  0  0  0  0  0  0
   27.4750  -20.5798   -4.3514 C   0  0  0  0  0  0  0  0  0  0  0  0
   28.7643  -20.1880   -4.0544 C   0  0  0  0  0  0  0  0  0  0  0  0
   29.5309  -19.5583   -4.9955 C   0  0  0  0  0  0  0  0  0  0  0  0
   29.0140  -19.3086   -6.2603 C   0  0  0  0  0  0  0  0  0  0  0  0
   26.7750  -20.4104  -10.0790 C   0  0  0  0  0  0  0  0  0  0  0  0
   27.5562  -19.8163  -10.8605 O   0  0  0  0  0  0  0  0  0  0  0  0
   27.3484  -20.3328  -12.5727 C   0  0  0  0  0  0  0  0  0  0  0  0
   26.0017  -20.9086  -12.9029 C   0  0  1  0  0  0  0  0  0  0  0  0
   26.1164  -22.3055  -12.7934 O   0  0  0  0  0  0  0  0  0  0  0  0
   25.0247  -20.4220  -11.8392 C   0  0  2  0  0  0  0  0  0  0  0  0
   25.4727  -20.7648  -10.5107 N   0  0  0  0  0  0  0  0  0  0  0  0
   23.6944  -21.0037  -12.1280 C   0  0  0  0  0  0  0  0  0  0  0  0
   22.8782  -21.3403  -11.2434 O   0  0  0  0  0  0  0  0  0  0  0  0
   23.3237  -21.1901  -13.4769 N   0  0  0  0  0  0  0  0  0  0  0  0
   21.9404  -21.3935  -13.8985 C   0  0  1  0  0  0  0  0  0  0  0  0
   21.1835  -20.2199  -13.3268 C   0  0  0  0  0  0  0  0  0  0  0  0
   19.7962  -20.5620  -12.9053 C   0  0  0  0  0  0  0  0  0  0  0  0
   19.0218  -19.2910  -12.7489 C   0  0  0  0  0  0  0  0  0  0  0  0
   18.5631  -18.7033  -13.7412 O   0  0  0  0  0  0  0  0  0  0  0  0
   21.8120  -21.5839  -15.3313 C   0  0  0  0  0  0  0  0  0  0  0  0
   20.9555  -22.3596  -15.8010 O   0  0  0  0  0  0  0  0  0  0  0  0
   18.8113  -18.7566  -11.4647 O   0  0  0  0  0  0  0  0  0  0  0  0
   22.6397  -20.9067  -16.2099 O   0  0  0  0  0  0  0  0  0  0  0  0
  2  1  1  6
  2  3  1  0
  3  4  1  0
  4  9  2  0
  5  6  2  0
  5  4  1  0
  6  7  1  0
  7  8  2  0
  9  8  1  0
 10  2  1  0
 10 16  1  0
 11 10  2  0
 13 15  1  0
 13 12  1  1
 14 13  1  0
 15 16  1  1
 17 15  1  0
 18 17  2  0
 19 17  1  0
 20 19  1  0
 20 25  1  0
 21 22  1  0
 20 21  1  6
 23 22  1  0
 24 23  2  0
 25 28  1  0
 26 25  2  0
 27 23  1  0
M  END
$$$$
