PLI.pdb
     RDKit          3D

 24 24  0  0  1  0  0  0  0  0999 V2000
   27.3881  -19.3028  -14.3547 N   0  0  0  0  0  0  0  0  0  0  0  0
   28.7814  -19.0424  -14.6079 C   0  0  0  0  0  0  0  0  0  0  0  0
   29.4459  -20.3599  -14.8922 C   0  0  0  0  0  0  0  0  0  0  0  0
   28.5237  -21.3270  -14.1535 C   0  0  0  0  0  0  0  0  0  0  0  0
   27.1696  -20.7121  -14.4419 C   0  0  1  0  0  0  0  0  0  0  0  0
   26.1334  -21.1727  -13.4771 C   0  0  0  0  0  0  0  0  0  0  0  0
   25.5955  -22.3021  -13.5585 O   0  0  0  0  0  0  0  0  0  0  0  0
   26.5245  -21.8155   -8.9819 C   0  0  0  0  0  0  0  0  0  0  0  0
   26.2451  -20.4260   -9.4360 C   0  0  2  0  0  0  0  0  0  0  0  0
   26.3410  -19.5124   -8.1819 C   0  0  0  0  0  0  0  0  0  0  0  0
   25.0002  -20.1502  -10.1590 C   0  0  0  0  0  0  0  0  0  0  0  0
   24.6679  -20.7279  -11.4635 C   0  0  2  0  0  0  0  0  0  0  0  0
   25.7388  -20.3242  -12.4403 N   0  0  0  0  0  0  0  0  0  0  0  0
   23.3836  -20.3099  -12.0586 C   0  0  0  0  0  0  0  0  0  0  0  0
   23.0846  -19.1186  -12.2919 O   0  0  0  0  0  0  0  0  0  0  0  0
   21.6533  -22.0479  -16.7217 C   0  0  0  0  0  0  0  0  0  0  0  0
   21.8679  -21.3660  -15.4169 C   0  0  0  0  0  0  0  0  0  0  0  0
   20.8707  -21.6539  -14.3491 C   0  0  2  0  0  0  0  0  0  0  0  0
   19.5225  -21.1360  -14.8709 C   0  0  0  0  0  0  0  0  0  0  0  0
   21.1163  -21.0346  -13.0255 C   0  0  2  0  0  0  0  0  0  0  0  0
   22.3748  -21.2717  -12.4122 N   0  0  0  0  0  0  0  0  0  0  0  0
   19.9277  -21.2339  -12.1207 C   0  0  0  0  0  0  0  0  0  0  0  0
   19.7539  -22.1865  -11.3487 O   0  0  0  0  0  0  0  0  0  0  0  0
   18.8967  -20.2715  -12.1223 O   0  0  0  0  0  0  0  0  0  0  0  0
  1  2  1  0
  2  3  1  0
  4  3  1  0
  5  1  1  0
  5  4  1  0
  6  7  2  0
  5  6  1  1
  9  8  1  1
  9 11  1  0
  9 10  1  0
 12 11  1  1
 12 13  1  0
 12 14  1  0
 13  6  1  0
 14 15  2  0
 14 21  1  0
 17 16  1  0
 18 20  1  0
 18 17  1  0
 18 19  1  6
 20 22  1  0
 20 21  1  1
 22 23  2  0
 22 24  1  0
M  END
$$$$
