PLI.pdb
     RDKit          3D

 24 24  0  0  1  0  0  0  0  0999 V2000
   30.3422  -20.5968  -10.1668 N   0  0  0  0  0  0  0  0  0  0  0  0
   31.6816  -21.1048  -10.3113 C   0  0  0  0  0  0  0  0  0  0  0  0
   31.6578  -22.1492  -11.3915 C   0  0  0  0  0  0  0  0  0  0  0  0
   30.2029  -22.6088  -11.3330 C   0  0  0  0  0  0  0  0  0  0  0  0
   29.4944  -21.2935  -11.0819 C   0  0  1  0  0  0  0  0  0  0  0  0
   28.1278  -21.4957  -10.5267 C   0  0  0  0  0  0  0  0  0  0  0  0
   27.2617  -22.1882  -11.1114 O   0  0  0  0  0  0  0  0  0  0  0  0
   28.4896  -20.9099   -5.7707 C   0  0  0  0  0  0  0  0  0  0  0  0
   27.6552  -20.0737   -6.6761 C   0  0  2  0  0  0  0  0  0  0  0  0
   27.2401  -18.8106   -5.8706 C   0  0  0  0  0  0  0  0  0  0  0  0
   26.4756  -20.6701   -7.3099 C   0  0  0  0  0  0  0  0  0  0  0  0
   26.4106  -21.0469   -8.7240 C   0  0  2  0  0  0  0  0  0  0  0  0
   27.7877  -20.8970   -9.3117 N   0  0  0  0  0  0  0  0  0  0  0  0
   25.5064  -20.2491   -9.5751 C   0  0  0  0  0  0  0  0  0  0  0  0
   25.7062  -19.0487   -9.8615 O   0  0  0  0  0  0  0  0  0  0  0  0
   23.7134  -19.7639  -14.9938 C   0  0  0  0  0  0  0  0  0  0  0  0
   23.1612  -19.7372  -13.6125 C   0  0  0  0  0  0  0  0  0  0  0  0
   23.9772  -20.4060  -12.5616 C   0  0  2  0  0  0  0  0  0  0  0  0
   24.0092  -21.8969  -12.9282 C   0  0  0  0  0  0  0  0  0  0  0  0
   23.4903  -20.2892  -11.1670 C   0  0  2  0  0  0  0  0  0  0  0  0
   24.3120  -20.8191  -10.1374 N   0  0  0  0  0  0  0  0  0  0  0  0
   22.0386  -20.6842  -11.0798 C   0  0  0  0  0  0  0  0  0  0  0  0
   21.1062  -20.1687  -11.7112 O   0  0  0  0  0  0  0  0  0  0  0  0
   21.6646  -21.7316  -10.2125 O   0  0  0  0  0  0  0  0  0  0  0  0
  1  2  1  0
  2  3  1  0
  4  3  1  0
  5  1  1  0
  5  4  1  0
  6  7  2  0
  5  6  1  1
  9  8  1  1
  9 11  1  0
  9 10  1  0
 12 11  1  1
 12 13  1  0
 12 14  1  0
 13  6  1  0
 14 15  2  0
 14 21  1  0
 17 16  1  0
 18 20  1  0
 18 17  1  0
 18 19  1  6
 20 22  1  0
 20 21  1  1
 22 23  2  0
 22 24  1  0
M  END
$$$$
