PLI.pdb
     RDKit          3D

 24 24  0  0  1  0  0  0  0  0999 V2000
   18.6589  -11.9371  -16.3368 N   0  0  0  0  0  0  0  0  0  0  0  0
   18.5451  -13.2181  -16.9843 C   0  0  0  0  0  0  0  0  0  0  0  0
   19.4839  -13.2195  -18.1578 C   0  0  0  0  0  0  0  0  0  0  0  0
   19.5825  -11.7272  -18.4653 C   0  0  0  0  0  0  0  0  0  0  0  0
   19.5971  -11.1445  -17.0670 C   0  0  1  0  0  0  0  0  0  0  0  0
   19.2261   -9.7026  -17.0622 C   0  0  0  0  0  0  0  0  0  0  0  0
   19.9491   -8.8220  -17.5851 O   0  0  0  0  0  0  0  0  0  0  0  0
   13.9102   -6.7068  -15.8449 C   0  0  0  0  0  0  0  0  0  0  0  0
   15.3197   -6.6249  -16.3157 C   0  0  2  0  0  0  0  0  0  0  0  0
   15.2925   -5.9304  -17.7062 C   0  0  0  0  0  0  0  0  0  0  0  0
   16.1186   -7.8518  -16.3875 C   0  0  0  0  0  0  0  0  0  0  0  0
   17.5802   -7.8706  -16.4837 C   0  0  2  0  0  0  0  0  0  0  0  0
   18.0323   -9.3055  -16.4561 N   0  0  0  0  0  0  0  0  0  0  0  0
   18.3179   -7.1817  -15.4070 C   0  0  0  0  0  0  0  0  0  0  0  0
   18.3516   -7.5849  -14.2240 O   0  0  0  0  0  0  0  0  0  0  0  0
   22.2951   -5.5683  -12.3401 C   0  0  0  0  0  0  0  0  0  0  0  0
   22.1578   -4.9435  -13.6833 C   0  0  0  0  0  0  0  0  0  0  0  0
   21.3129   -5.6738  -14.6685 C   0  0  2  0  0  0  0  0  0  0  0  0
   21.9663   -5.4527  -16.0404 C   0  0  0  0  0  0  0  0  0  0  0  0
   19.8943   -5.2569  -14.7659 C   0  0  2  0  0  0  0  0  0  0  0  0
   19.0581   -5.9752  -15.6608 N   0  0  0  0  0  0  0  0  0  0  0  0
   19.7910   -3.7573  -14.8743 C   0  0  0  0  0  0  0  0  0  0  0  0
   19.6346   -3.1136  -15.9206 O   0  0  0  0  0  0  0  0  0  0  0  0
   19.8751   -2.9784  -13.7015 O   0  0  0  0  0  0  0  0  0  0  0  0
  1  2  1  0
  2  3  1  0
  4  3  1  0
  5  1  1  0
  5  4  1  0
  6  7  2  0
  5  6  1  6
  9  8  1  6
  9 11  1  0
  9 10  1  0
 12 11  1  1
 12 13  1  0
 12 14  1  0
 13  6  1  0
 14 15  2  0
 14 21  1  0
 17 16  1  0
 18 20  1  0
 18 17  1  0
 18 19  1  6
 20 22  1  0
 20 21  1  6
 22 23  2  0
 22 24  1  0
M  END
$$$$
