PLI.pdb
     RDKit          3D

 24 24  0  0  1  0  0  0  0  0999 V2000
   28.6623  -21.1971  -15.3309 N   0  0  0  0  0  0  0  0  0  0  0  0
   29.0480  -20.9398  -16.6940 C   0  0  0  0  0  0  0  0  0  0  0  0
   28.3103  -19.7131  -17.1516 C   0  0  0  0  0  0  0  0  0  0  0  0
   27.0870  -19.7402  -16.2383 C   0  0  0  0  0  0  0  0  0  0  0  0
   27.7073  -20.2094  -14.9384 C   0  0  1  0  0  0  0  0  0  0  0  0
   26.6886  -20.7640  -14.0050 C   0  0  0  0  0  0  0  0  0  0  0  0
   26.2714  -21.9431  -14.0907 O   0  0  0  0  0  0  0  0  0  0  0  0
   25.3791  -22.0134   -9.1709 C   0  0  0  0  0  0  0  0  0  0  0  0
   26.1152  -20.7855   -9.5778 C   0  0  2  0  0  0  0  0  0  0  0  0
   26.2951  -19.9211   -8.2984 C   0  0  0  0  0  0  0  0  0  0  0  0
   25.5784  -19.9610  -10.6644 C   0  0  0  0  0  0  0  0  0  0  0  0
   25.2000  -20.4866  -11.9784 C   0  0  2  0  0  0  0  0  0  0  0  0
   26.1722  -19.9505  -12.9941 N   0  0  0  0  0  0  0  0  0  0  0  0
   23.8527  -20.1308  -12.4646 C   0  0  0  0  0  0  0  0  0  0  0  0
   23.4842  -18.9564  -12.6839 O   0  0  0  0  0  0  0  0  0  0  0  0
   20.4074  -24.3119  -14.7984 C   0  0  0  0  0  0  0  0  0  0  0  0
   20.8499  -23.3329  -13.7692 C   0  0  0  0  0  0  0  0  0  0  0  0
   21.0626  -21.9347  -14.2355 C   0  0  2  0  0  0  0  0  0  0  0  0
   22.1102  -22.0113  -15.3557 C   0  0  0  0  0  0  0  0  0  0  0  0
   21.5442  -20.9631  -13.2257 C   0  0  2  0  0  0  0  0  0  0  0  0
   22.8591  -21.1386  -12.7193 N   0  0  0  0  0  0  0  0  0  0  0  0
   20.4907  -20.7290  -12.1738 C   0  0  0  0  0  0  0  0  0  0  0  0
   20.6242  -20.9176  -10.9572 O   0  0  0  0  0  0  0  0  0  0  0  0
   19.2233  -20.2521  -12.5681 O   0  0  0  0  0  0  0  0  0  0  0  0
  1  2  1  0
  2  3  1  0
  4  3  1  0
  5  1  1  0
  5  4  1  0
  6  7  2  0
  5  6  1  1
  9  8  1  1
  9 11  1  0
  9 10  1  0
 12 11  1  1
 12 13  1  0
 12 14  1  0
 13  6  1  0
 14 15  2  0
 14 21  1  0
 17 16  1  0
 18 20  1  0
 18 17  1  0
 18 19  1  6
 20 22  1  0
 20 21  1  1
 22 23  2  0
 22 24  1  0
M  END
$$$$
