PLI.pdb
     RDKit          3D

 24 24  0  0  1  0  0  0  0  0999 V2000
   28.4076  -19.2854  -16.5636 N   0  0  0  0  0  0  0  0  0  0  0  0
   29.2021  -19.2485  -17.7639 C   0  0  0  0  0  0  0  0  0  0  0  0
   28.9966  -20.5507  -18.4854 C   0  0  0  0  0  0  0  0  0  0  0  0
   28.6109  -21.4750  -17.3328 C   0  0  0  0  0  0  0  0  0  0  0  0
   27.7480  -20.5512  -16.4980 C   0  0  1  0  0  0  0  0  0  0  0  0
   27.6130  -21.0333  -15.0959 C   0  0  0  0  0  0  0  0  0  0  0  0
   26.9713  -22.0692  -14.8014 O   0  0  0  0  0  0  0  0  0  0  0  0
   30.4300  -22.6563  -11.0680 C   0  0  0  0  0  0  0  0  0  0  0  0
   30.6302  -21.4391  -11.9008 C   0  0  2  0  0  0  0  0  0  0  0  0
   31.8806  -20.7068  -11.3382 C   0  0  0  0  0  0  0  0  0  0  0  0
   29.5233  -20.4902  -12.0521 C   0  0  0  0  0  0  0  0  0  0  0  0
   28.2307  -20.8313  -12.6510 C   0  0  2  0  0  0  0  0  0  0  0  0
   28.2188  -20.3135  -14.0638 N   0  0  0  0  0  0  0  0  0  0  0  0
   27.0341  -20.2714  -11.9930 C   0  0  0  0  0  0  0  0  0  0  0  0
   26.8137  -19.0455  -11.8857 O   0  0  0  0  0  0  0  0  0  0  0  0
   22.0635  -20.8785  -13.3776 C   0  0  0  0  0  0  0  0  0  0  0  0
   23.3347  -20.4914  -12.7084 C   0  0  0  0  0  0  0  0  0  0  0  0
   23.5488  -21.0278  -11.3358 C   0  0  2  0  0  0  0  0  0  0  0  0
   22.4568  -20.4019  -10.4560 C   0  0  0  0  0  0  0  0  0  0  0  0
   24.8602  -20.7429  -10.7075 C   0  0  2  0  0  0  0  0  0  0  0  0
   26.0273  -21.1239  -11.4209 N   0  0  0  0  0  0  0  0  0  0  0  0
   24.8493  -21.1480   -9.2560 C   0  0  0  0  0  0  0  0  0  0  0  0
   25.1351  -22.2683   -8.8122 O   0  0  0  0  0  0  0  0  0  0  0  0
   24.4867  -20.1950   -8.2817 O   0  0  0  0  0  0  0  0  0  0  0  0
  1  2  1  0
  2  3  1  0
  4  3  1  0
  5  1  1  0
  5  4  1  0
  6  7  2  0
  5  6  1  1
  9  8  1  1
  9 11  1  0
  9 10  1  0
 12 11  1  1
 12 13  1  0
 12 14  1  0
 13  6  1  0
 14 15  2  0
 14 21  1  0
 17 16  1  0
 18 20  1  0
 18 17  1  0
 18 19  1  1
 20 22  1  0
 20 21  1  6
 22 23  2  0
 22 24  1  0
M  END
$$$$
