PLI.pdb
     RDKit          3D

 24 24  0  0  1  0  0  0  0  0999 V2000
   23.0749  -20.7191  -12.8060 N   0  0  0  0  0  0  0  0  0  0  0  0
   22.3864  -20.6596  -14.0691 C   0  0  0  0  0  0  0  0  0  0  0  0
   22.4658  -22.0234  -14.6951 C   0  0  0  0  0  0  0  0  0  0  0  0
   23.7321  -22.5782  -14.0468 C   0  0  0  0  0  0  0  0  0  0  0  0
   23.5950  -22.0393  -12.6377 C   0  0  1  0  0  0  0  0  0  0  0  0
   24.8972  -22.0337  -11.9159 C   0  0  0  0  0  0  0  0  0  0  0  0
   25.4878  -23.0901  -11.5893 O   0  0  0  0  0  0  0  0  0  0  0  0
   28.8323  -21.1029  -13.5534 C   0  0  0  0  0  0  0  0  0  0  0  0
   27.9977  -19.9476  -13.1248 C   0  0  2  0  0  0  0  0  0  0  0  0
   28.7041  -18.6629  -13.6415 C   0  0  0  0  0  0  0  0  0  0  0  0
   27.6663  -19.7968  -11.7049 C   0  0  0  0  0  0  0  0  0  0  0  0
   26.8532  -20.7531  -10.9496 C   0  0  2  0  0  0  0  0  0  0  0  0
   25.4909  -20.8135  -11.5857 N   0  0  0  0  0  0  0  0  0  0  0  0
   26.6326  -20.4445   -9.5233 C   0  0  0  0  0  0  0  0  0  0  0  0
   25.5949  -19.9017   -9.0855 O   0  0  0  0  0  0  0  0  0  0  0  0
   29.8950  -20.9521   -4.0682 C   0  0  0  0  0  0  0  0  0  0  0  0
   28.6749  -20.6444   -4.8622 C   0  0  0  0  0  0  0  0  0  0  0  0
   28.7891  -20.8058   -6.3382 C   0  0  2  0  0  0  0  0  0  0  0  0
   29.9313  -19.8809   -6.7833 C   0  0  0  0  0  0  0  0  0  0  0  0
   27.5891  -20.4671   -7.1389 C   0  0  2  0  0  0  0  0  0  0  0  0
   27.6233  -20.7560   -8.5287 N   0  0  0  0  0  0  0  0  0  0  0  0
   27.0982  -19.0843   -6.7953 C   0  0  0  0  0  0  0  0  0  0  0  0
   26.5695  -18.7455   -5.7280 O   0  0  0  0  0  0  0  0  0  0  0  0
   27.2344  -18.0529   -7.7476 O   0  0  0  0  0  0  0  0  0  0  0  0
  1  2  1  0
  2  3  1  0
  4  3  1  0
  5  1  1  0
  5  4  1  0
  6  7  2  0
  5  6  1  6
  9  8  1  1
  9 11  1  0
  9 10  1  0
 12 11  1  6
 12 13  1  0
 12 14  1  0
 13  6  1  0
 14 15  2  0
 14 21  1  0
 17 16  1  0
 18 20  1  0
 18 17  1  0
 18 19  1  6
 20 22  1  0
 20 21  1  6
 22 23  2  0
 22 24  1  0
M  END
$$$$
