PLI.pdb
     RDKit          3D

 24 24  0  0  1  0  0  0  0  0999 V2000
    7.3616  -62.7970  -54.1430 N   0  0  0  0  0  0  0  0  0  0  0  0
    5.9678  -62.4698  -54.2965 C   0  0  0  0  0  0  0  0  0  0  0  0
    5.1779  -63.7282  -54.0713 C   0  0  0  0  0  0  0  0  0  0  0  0
    6.2043  -64.7971  -54.4393 C   0  0  0  0  0  0  0  0  0  0  0  0
    7.4687  -64.1940  -53.8627 C   0  0  1  0  0  0  0  0  0  0  0  0
    8.6930  -64.7878  -54.4668 C   0  0  0  0  0  0  0  0  0  0  0  0
    8.8646  -64.8549  -55.7068 O   0  0  0  0  0  0  0  0  0  0  0  0
   10.4872  -66.6114  -56.1782 C   0  0  0  0  0  0  0  0  0  0  0  0
   10.9039  -67.4400  -55.0142 C   0  0  2  0  0  0  0  0  0  0  0  0
   11.3883  -68.8043  -55.5804 C   0  0  0  0  0  0  0  0  0  0  0  0
    9.9518  -67.6637  -53.9225 C   0  0  0  0  0  0  0  0  0  0  0  0
    9.5519  -66.6317  -52.9627 C   0  0  2  0  0  0  0  0  0  0  0  0
    9.6927  -65.2913  -53.6316 N   0  0  0  0  0  0  0  0  0  0  0  0
   10.3354  -66.5575  -51.7142 C   0  0  0  0  0  0  0  0  0  0  0  0
   11.5573  -66.2953  -51.6788 O   0  0  0  0  0  0  0  0  0  0  0  0
    6.9653  -63.7594  -48.3434 C   0  0  0  0  0  0  0  0  0  0  0  0
    8.4085  -63.6635  -48.6925 C   0  0  0  0  0  0  0  0  0  0  0  0
    8.8811  -64.5443  -49.7964 C   0  0  2  0  0  0  0  0  0  0  0  0
    7.6544  -64.8234  -50.6769 C   0  0  0  0  0  0  0  0  0  0  0  0
    9.4666  -65.8474  -49.4029 C   0  0  2  0  0  0  0  0  0  0  0  0
    9.7248  -66.7898  -50.4331 N   0  0  0  0  0  0  0  0  0  0  0  0
    8.7484  -66.4080  -48.2025 C   0  0  0  0  0  0  0  0  0  0  0  0
    9.2778  -66.9848  -47.2430 O   0  0  0  0  0  0  0  0  0  0  0  0
    7.3454  -66.2857  -48.1250 O   0  0  0  0  0  0  0  0  0  0  0  0
  1  2  1  0
  2  3  1  0
  4  3  1  0
  5  1  1  0
  5  4  1  0
  6  7  2  0
  5  6  1  6
  9  8  1  6
  9 11  1  0
  9 10  1  0
 12 11  1  6
 12 13  1  0
 12 14  1  0
 13  6  1  0
 14 15  2  0
 14 21  1  0
 17 16  1  0
 18 20  1  0
 18 17  1  0
 18 19  1  6
 20 22  1  0
 20 21  1  6
 22 23  2  0
 22 24  1  0
M  END
$$$$
