PLI.pdb
     RDKit          3D

 24 24  0  0  1  0  0  0  0  0999 V2000
   31.3172  -20.9921  -10.2234 N   0  0  0  0  0  0  0  0  0  0  0  0
   32.6990  -21.3339  -10.4395 C   0  0  0  0  0  0  0  0  0  0  0  0
   32.8059  -22.8327  -10.4155 C   0  0  0  0  0  0  0  0  0  0  0  0
   31.6006  -23.2059   -9.5556 C   0  0  0  0  0  0  0  0  0  0  0  0
   30.5768  -22.2005  -10.0412 C   0  0  1  0  0  0  0  0  0  0  0  0
   29.4637  -22.0266   -9.0679 C   0  0  0  0  0  0  0  0  0  0  0  0
   28.6714  -22.9551   -8.7818 O   0  0  0  0  0  0  0  0  0  0  0  0
   28.1893  -18.2233   -4.3771 C   0  0  0  0  0  0  0  0  0  0  0  0
   27.9504  -19.4854   -5.1290 C   0  0  2  0  0  0  0  0  0  0  0  0
   28.2330  -20.6571   -4.1472 C   0  0  0  0  0  0  0  0  0  0  0  0
   28.6639  -19.7089   -6.3897 C   0  0  0  0  0  0  0  0  0  0  0  0
   28.1612  -20.5559   -7.4741 C   0  0  2  0  0  0  0  0  0  0  0  0
   29.2865  -20.7891   -8.4453 N   0  0  0  0  0  0  0  0  0  0  0  0
   27.0371  -20.0146   -8.2625 C   0  0  0  0  0  0  0  0  0  0  0  0
   26.9117  -18.8037   -8.5471 O   0  0  0  0  0  0  0  0  0  0  0  0
   27.0023  -21.3373  -13.0449 C   0  0  0  0  0  0  0  0  0  0  0  0
   26.6981  -20.7923  -11.6943 C   0  0  0  0  0  0  0  0  0  0  0  0
   25.3483  -21.1006  -11.1461 C   0  0  2  0  0  0  0  0  0  0  0  0
   24.3377  -20.4731  -12.1172 C   0  0  0  0  0  0  0  0  0  0  0  0
   25.0509  -20.5924   -9.7862 C   0  0  2  0  0  0  0  0  0  0  0  0
   25.9931  -20.8689   -8.7607 N   0  0  0  0  0  0  0  0  0  0  0  0
   23.6177  -20.8775   -9.4179 C   0  0  0  0  0  0  0  0  0  0  0  0
   23.2360  -21.5447   -8.4469 O   0  0  0  0  0  0  0  0  0  0  0  0
   22.5861  -20.3557  -10.2258 O   0  0  0  0  0  0  0  0  0  0  0  0
  1  2  1  0
  2  3  1  0
  4  3  1  0
  5  1  1  0
  5  4  1  0
  6  7  2  0
  5  6  1  1
  9  8  1  1
  9 11  1  0
  9 10  1  0
 12 11  1  1
 12 13  1  0
 12 14  1  0
 13  6  1  0
 14 15  2  0
 14 21  1  0
 17 16  1  0
 18 20  1  0
 18 17  1  0
 18 19  1  6
 20 22  1  0
 20 21  1  1
 22 23  2  0
 22 24  1  0
M  END
$$$$
