PLI.pdb
     RDKit          3D

 24 24  0  0  1  0  0  0  0  0999 V2000
   27.9591  -19.4545  -15.0856 N   0  0  0  0  0  0  0  0  0  0  0  0
   29.2892  -19.3254  -15.6215 C   0  0  0  0  0  0  0  0  0  0  0  0
   29.6942  -20.6682  -16.1613 C   0  0  0  0  0  0  0  0  0  0  0  0
   28.8275  -21.6034  -15.3214 C   0  0  0  0  0  0  0  0  0  0  0  0
   27.5387  -20.8109  -15.2438 C   0  0  1  0  0  0  0  0  0  0  0  0
   26.6779  -21.2592  -14.1148 C   0  0  0  0  0  0  0  0  0  0  0  0
   26.0583  -22.3488  -14.1351 O   0  0  0  0  0  0  0  0  0  0  0  0
   26.1269  -19.4633   -8.2446 C   0  0  0  0  0  0  0  0  0  0  0  0
   25.6972  -20.4483   -9.2743 C   0  0  2  0  0  0  0  0  0  0  0  0
   25.8469  -21.8597   -8.6404 C   0  0  0  0  0  0  0  0  0  0  0  0
   26.3368  -20.4243  -10.5930 C   0  0  0  0  0  0  0  0  0  0  0  0
   25.6739  -20.8433  -11.8304 C   0  0  2  0  0  0  0  0  0  0  0  0
   26.5488  -20.4447  -12.9877 N   0  0  0  0  0  0  0  0  0  0  0  0
   24.3446  -20.2584  -12.0935 C   0  0  0  0  0  0  0  0  0  0  0  0
   24.1330  -19.0286  -12.1701 O   0  0  0  0  0  0  0  0  0  0  0  0
   20.5839  -23.2419  -15.3183 C   0  0  0  0  0  0  0  0  0  0  0  0
   21.1167  -22.7077  -14.0360 C   0  0  0  0  0  0  0  0  0  0  0  0
   21.3992  -21.2461  -13.9957 C   0  0  2  0  0  0  0  0  0  0  0  0
   22.4756  -20.9883  -15.0602 C   0  0  0  0  0  0  0  0  0  0  0  0
   21.8895  -20.6989  -12.7088 C   0  0  2  0  0  0  0  0  0  0  0  0
   23.1856  -21.0889  -12.2799 N   0  0  0  0  0  0  0  0  0  0  0  0
   20.8202  -20.7981  -11.6515 C   0  0  0  0  0  0  0  0  0  0  0  0
   19.6712  -20.3436  -11.7353 O   0  0  0  0  0  0  0  0  0  0  0  0
   21.1129  -21.4608  -10.4415 O   0  0  0  0  0  0  0  0  0  0  0  0
  1  2  1  0
  2  3  1  0
  4  3  1  0
  5  1  1  0
  5  4  1  0
  6  7  2  0
  5  6  1  1
  9  8  1  1
  9 11  1  0
  9 10  1  0
 12 11  1  1
 12 13  1  0
 12 14  1  0
 13  6  1  0
 14 15  2  0
 14 21  1  0
 17 16  1  0
 18 20  1  0
 18 17  1  0
 18 19  1  6
 20 22  1  0
 20 21  1  1
 22 23  2  0
 22 24  1  0
M  END
$$$$
