PLI.pdb
     RDKit          3D

 24 24  0  0  1  0  0  0  0  0999 V2000
   29.7638  -20.3772   -5.2568 N   0  0  0  0  0  0  0  0  0  0  0  0
   30.6382  -19.7214   -4.3195 C   0  0  0  0  0  0  0  0  0  0  0  0
   29.9120  -18.5197   -3.7841 C   0  0  0  0  0  0  0  0  0  0  0  0
   28.9404  -18.2234   -4.9241 C   0  0  0  0  0  0  0  0  0  0  0  0
   28.5515  -19.6259   -5.3441 C   0  0  1  0  0  0  0  0  0  0  0  0
   27.9792  -19.6558   -6.7182 C   0  0  0  0  0  0  0  0  0  0  0  0
   27.1004  -18.8460   -7.0968 O   0  0  0  0  0  0  0  0  0  0  0  0
   30.3349  -19.3558  -10.8744 C   0  0  0  0  0  0  0  0  0  0  0  0
   30.2754  -20.6495  -10.1410 C   0  0  2  0  0  0  0  0  0  0  0  0
   31.1801  -21.6496  -10.9142 C   0  0  0  0  0  0  0  0  0  0  0  0
   28.9688  -21.2599   -9.8792 C   0  0  0  0  0  0  0  0  0  0  0  0
   27.9323  -20.6457   -9.0458 C   0  0  2  0  0  0  0  0  0  0  0  0
   28.4301  -20.6164   -7.6262 N   0  0  0  0  0  0  0  0  0  0  0  0
   26.6249  -21.3298   -9.0138 C   0  0  0  0  0  0  0  0  0  0  0  0
   26.4935  -22.5638   -8.8620 O   0  0  0  0  0  0  0  0  0  0  0  0
   22.4368  -20.5373   -5.7751 C   0  0  0  0  0  0  0  0  0  0  0  0
   23.1063  -20.2377   -7.0695 C   0  0  0  0  0  0  0  0  0  0  0  0
   23.3773  -21.4016   -7.9581 C   0  0  2  0  0  0  0  0  0  0  0  0
   24.2541  -22.3658   -7.1459 C   0  0  0  0  0  0  0  0  0  0  0  0
   24.0742  -21.1157   -9.2342 C   0  0  2  0  0  0  0  0  0  0  0  0
   25.3949  -20.5996   -9.1607 N   0  0  0  0  0  0  0  0  0  0  0  0
   23.1618  -20.3782  -10.1801 C   0  0  0  0  0  0  0  0  0  0  0  0
   23.4120  -19.3023  -10.7401 O   0  0  0  0  0  0  0  0  0  0  0  0
   21.8989  -20.9285  -10.4823 O   0  0  0  0  0  0  0  0  0  0  0  0
  1  2  1  0
  2  3  1  0
  4  3  1  0
  5  1  1  0
  5  4  1  0
  6  7  2  0
  5  6  1  6
  9  8  1  6
  9 11  1  0
  9 10  1  0
 12 11  1  6
 12 13  1  0
 12 14  1  0
 13  6  1  0
 14 15  2  0
 14 21  1  0
 17 16  1  0
 18 20  1  0
 18 17  1  0
 18 19  1  1
 20 22  1  0
 20 21  1  1
 22 23  2  0
 22 24  1  0
M  END
$$$$
