PLI.pdb
     RDKit          3D

 24 24  0  0  1  0  0  0  0  0999 V2000
   27.3221  -19.2329  -14.8736 N   0  0  0  0  0  0  0  0  0  0  0  0
   28.7311  -18.9440  -14.9409 C   0  0  0  0  0  0  0  0  0  0  0  0
   29.4357  -20.2079  -15.3462 C   0  0  0  0  0  0  0  0  0  0  0  0
   28.4533  -21.2695  -14.8570 C   0  0  0  0  0  0  0  0  0  0  0  0
   27.1292  -20.6130  -15.1895 C   0  0  1  0  0  0  0  0  0  0  0  0
   26.0047  -21.2065  -14.4150 C   0  0  0  0  0  0  0  0  0  0  0  0
   25.5891  -22.3712  -14.6211 O   0  0  0  0  0  0  0  0  0  0  0  0
   26.4693  -22.0298  -10.3834 C   0  0  0  0  0  0  0  0  0  0  0  0
   25.8084  -20.7045  -10.5311 C   0  0  2  0  0  0  0  0  0  0  0  0
   25.7173  -20.0835   -9.1089 C   0  0  0  0  0  0  0  0  0  0  0  0
   24.5019  -20.6303  -11.1916 C   0  0  0  0  0  0  0  0  0  0  0  0
   24.2680  -21.0155  -12.5855 C   0  0  2  0  0  0  0  0  0  0  0  0
   25.3832  -20.4476  -13.4210 N   0  0  0  0  0  0  0  0  0  0  0  0
   23.0098  -20.5425  -13.1949 C   0  0  0  0  0  0  0  0  0  0  0  0
   22.7152  -19.3343  -13.3240 O   0  0  0  0  0  0  0  0  0  0  0  0
   21.5728  -21.7670  -18.1014 C   0  0  0  0  0  0  0  0  0  0  0  0
   21.7127  -21.2494  -16.7135 C   0  0  0  0  0  0  0  0  0  0  0  0
   20.6536  -21.6535  -15.7478 C   0  0  2  0  0  0  0  0  0  0  0  0
   19.3342  -21.0950  -16.3003 C   0  0  0  0  0  0  0  0  0  0  0  0
   20.8054  -21.1721  -14.3546 C   0  0  2  0  0  0  0  0  0  0  0  0
   22.0234  -21.4660  -13.6866 N   0  0  0  0  0  0  0  0  0  0  0  0
   19.5622  -21.4674  -13.5557 C   0  0  0  0  0  0  0  0  0  0  0  0
   18.5257  -20.7897  -13.5476 O   0  0  0  0  0  0  0  0  0  0  0  0
   19.5345  -22.6099  -12.7292 O   0  0  0  0  0  0  0  0  0  0  0  0
  1  2  1  0
  2  3  1  0
  4  3  1  0
  5  1  1  0
  5  4  1  0
  6  7  2  0
  5  6  1  1
  9  8  1  1
  9 11  1  0
  9 10  1  0
 12 11  1  1
 12 13  1  0
 12 14  1  0
 13  6  1  0
 14 15  2  0
 14 21  1  0
 17 16  1  0
 18 20  1  0
 18 17  1  0
 18 19  1  6
 20 22  1  0
 20 21  1  1
 22 23  2  0
 22 24  1  0
M  END
$$$$
