PLI.pdb
     RDKit          3D

 24 24  0  0  1  0  0  0  0  0999 V2000
   19.3012  -10.1463  -17.7289 N   0  0  0  0  0  0  0  0  0  0  0  0
   18.7330  -11.4105  -18.1190 C   0  0  0  0  0  0  0  0  0  0  0  0
   17.2716  -11.3791  -17.7704 C   0  0  0  0  0  0  0  0  0  0  0  0
   17.2556  -10.3588  -16.6345 C   0  0  0  0  0  0  0  0  0  0  0  0
   18.2717   -9.3530  -17.1354 C   0  0  1  0  0  0  0  0  0  0  0  0
   18.7962   -8.4981  -16.0351 C   0  0  0  0  0  0  0  0  0  0  0  0
   18.0534   -7.7574  -15.3486 O   0  0  0  0  0  0  0  0  0  0  0  0
   20.8158   -9.6660  -11.8616 C   0  0  0  0  0  0  0  0  0  0  0  0
   21.5284   -9.8107  -13.1602 C   0  0  2  0  0  0  0  0  0  0  0  0
   22.8699  -10.5371  -12.8615 C   0  0  0  0  0  0  0  0  0  0  0  0
   21.7790   -8.6160  -13.9716 C   0  0  0  0  0  0  0  0  0  0  0  0
   20.7207   -7.7877  -14.5548 C   0  0  2  0  0  0  0  0  0  0  0  0
   20.1630   -8.5139  -15.7488 N   0  0  0  0  0  0  0  0  0  0  0  0
   21.1221   -6.4500  -15.0322 C   0  0  0  0  0  0  0  0  0  0  0  0
   21.9379   -6.2630  -15.9608 O   0  0  0  0  0  0  0  0  0  0  0  0
   18.0675   -2.6601  -17.0270 C   0  0  0  0  0  0  0  0  0  0  0  0
   19.1528   -3.5285  -16.4964 C   0  0  0  0  0  0  0  0  0  0  0  0
   19.8611   -3.0341  -15.2833 C   0  0  2  0  0  0  0  0  0  0  0  0
   20.5019   -1.6954  -15.6771 C   0  0  0  0  0  0  0  0  0  0  0  0
   20.9258   -3.9058  -14.7335 C   0  0  2  0  0  0  0  0  0  0  0  0
   20.5866   -5.2533  -14.4415 N   0  0  0  0  0  0  0  0  0  0  0  0
   21.6772   -3.1943  -13.6379 C   0  0  0  0  0  0  0  0  0  0  0  0
   21.3139   -3.0872  -12.4589 O   0  0  0  0  0  0  0  0  0  0  0  0
   22.9107   -2.5809  -13.9402 O   0  0  0  0  0  0  0  0  0  0  0  0
  1  2  1  0
  2  3  1  0
  4  3  1  0
  5  1  1  0
  5  4  1  0
  6  7  2  0
  5  6  1  1
  9  8  1  1
  9 11  1  0
  9 10  1  0
 12 11  1  6
 12 13  1  0
 12 14  1  0
 13  6  1  0
 14 15  2  0
 14 21  1  0
 17 16  1  0
 18 20  1  0
 18 17  1  0
 18 19  1  6
 20 22  1  0
 20 21  1  1
 22 23  2  0
 22 24  1  0
M  END
$$$$
