WFE.pdb
     RDKit          3D

 35 37  0  0  1  0  0  0  0  0999 V2000
    8.6317  -17.8127   20.4332 N   0  0  0  0  0  0  0  0  0  0  0  0
    9.9473  -17.3544   20.7385 C   0  0  1  0  0  0  0  0  0  0  0  0
   10.5022  -16.5392   19.5951 C   0  0  0  0  0  0  0  0  0  0  0  0
    9.4087  -15.6906   19.0605 C   0  0  0  0  0  0  0  0  0  0  0  0
    8.7738  -15.9052   17.8313 C   0  0  0  0  0  0  0  0  0  0  0  0
    7.8041  -14.9964   17.6443 N   0  0  0  0  0  0  0  0  0  0  0  0
    7.7870  -14.1897   18.7205 C   0  0  0  0  0  0  0  0  0  0  0  0
    6.9756  -13.0869   19.0153 C   0  0  0  0  0  0  0  0  0  0  0  0
    7.1532  -12.3996   20.1960 C   0  0  0  0  0  0  0  0  0  0  0  0
    8.1388  -12.8255   21.0624 C   0  0  0  0  0  0  0  0  0  0  0  0
    8.9531  -13.9280   20.7730 C   0  0  0  0  0  0  0  0  0  0  0  0
    8.7694  -14.5996   19.6068 C   0  0  0  0  0  0  0  0  0  0  0  0
    9.9039  -16.5709   22.0001 C   0  0  0  0  0  0  0  0  0  0  0  0
   10.9484  -15.9993   22.4350 O   0  0  0  0  0  0  0  0  0  0  0  0
    8.7386  -16.4182   22.7671 N   0  0  0  0  0  0  0  0  0  0  0  0
    8.7286  -15.6298   23.9973 C   0  0  1  0  0  0  0  0  0  0  0  0
    7.3618  -14.9829   24.0596 C   0  0  0  0  0  0  0  0  0  0  0  0
    7.3647  -14.1517   25.3137 C   0  0  0  0  0  0  0  0  0  0  0  0
    8.1416  -13.0242   25.3673 C   0  0  0  0  0  0  0  0  0  0  0  0
    8.1554  -12.2532   26.5046 C   0  0  0  0  0  0  0  0  0  0  0  0
    7.4054  -12.5702   27.6205 C   0  0  0  0  0  0  0  0  0  0  0  0
    6.6335  -13.7156   27.5294 C   0  0  0  0  0  0  0  0  0  0  0  0
    6.6061  -14.4964   26.4059 C   0  0  0  0  0  0  0  0  0  0  0  0
    8.9638  -16.5416   25.1442 C   0  0  0  0  0  0  0  0  0  0  0  0
    8.0789  -17.3718   25.4312 O   0  0  0  0  0  0  0  0  0  0  0  0
   10.1576  -16.4858   25.9067 N   0  0  0  0  0  0  0  0  0  0  0  0
   10.4154  -17.3652   27.0565 C   0  0  1  0  0  0  0  0  0  0  0  0
   11.8107  -17.9193   26.9696 C   0  0  0  0  0  0  0  0  0  0  0  0
   12.0412  -18.5476   25.6245 C   0  0  0  0  0  0  0  0  0  0  0  0
   13.5112  -18.7519   25.3829 C   0  0  0  0  0  0  0  0  0  0  0  0
   13.9296  -18.5577   24.2142 O   0  0  0  0  0  0  0  0  0  0  0  0
   10.1621  -16.6865   28.3156 C   0  0  0  0  0  0  0  0  0  0  0  0
   10.1520  -17.2955   29.5429 O   0  0  0  0  0  0  0  0  0  0  0  0
   14.4006  -19.1316   26.3521 O   0  0  0  0  0  0  0  0  0  0  0  0
    9.9268  -15.4363   28.3045 O   0  0  0  0  0  0  0  0  0  0  0  0
  2  1  1  6
  3  2  1  0
  3  4  1  0
  4  5  2  0
  5  6  1  0
  7  6  1  0
  8  7  2  0
  9  8  1  0
 10 11  1  0
 10  9  2  0
 11 12  2  0
 12  4  1  0
 12  7  1  0
 13 14  2  0
 13  2  1  0
 15 13  1  0
 16 15  1  0
 16 17  1  1
 18 19  2  0
 18 17  1  0
 20 19  1  0
 21 20  2  0
 22 21  1  0
 22 23  2  0
 23 18  1  0
 24 16  1  0
 24 25  2  0
 26 27  1  0
 26 24  1  0
 27 28  1  1
 28 29  1  0
 29 30  1  0
 30 34  1  0
 31 30  2  0
 32 27  1  0
 33 32  1  0
 35 32  2  0
M  END
$$$$
