WFE.pdb
     RDKit          3D

 35 37  0  0  1  0  0  0  0  0999 V2000
    5.3861  -19.9306   22.0395 N   0  0  0  0  0  0  0  0  0  0  0  0
    5.9609  -19.7314   23.3295 C   0  0  1  0  0  0  0  0  0  0  0  0
    7.0857  -20.7108   23.5645 C   0  0  0  0  0  0  0  0  0  0  0  0
    6.6928  -21.6049   24.6816 C   0  0  0  0  0  0  0  0  0  0  0  0
    6.2769  -22.9319   24.5199 C   0  0  0  0  0  0  0  0  0  0  0  0
    6.0263  -23.4891   25.7149 N   0  0  0  0  0  0  0  0  0  0  0  0
    6.2668  -22.5602   26.6574 C   0  0  0  0  0  0  0  0  0  0  0  0
    6.1524  -22.6311   28.0515 C   0  0  0  0  0  0  0  0  0  0  0  0
    6.4501  -21.5285   28.8219 C   0  0  0  0  0  0  0  0  0  0  0  0
    6.8570  -20.3733   28.1866 C   0  0  0  0  0  0  0  0  0  0  0  0
    6.9735  -20.2968   26.7928 C   0  0  0  0  0  0  0  0  0  0  0  0
    6.6788  -21.3896   26.0421 C   0  0  0  0  0  0  0  0  0  0  0  0
    6.4268  -18.3248   23.4375 C   0  0  0  0  0  0  0  0  0  0  0  0
    7.0205  -17.7706   22.4642 O   0  0  0  0  0  0  0  0  0  0  0  0
    6.2443  -17.5437   24.5891 N   0  0  0  0  0  0  0  0  0  0  0  0
    6.8689  -16.2304   24.7314 C   0  0  1  0  0  0  0  0  0  0  0  0
    6.1029  -15.5282   25.8316 C   0  0  0  0  0  0  0  0  0  0  0  0
    6.7859  -14.2004   26.0158 C   0  0  0  0  0  0  0  0  0  0  0  0
    7.3594  -13.9050   27.2248 C   0  0  0  0  0  0  0  0  0  0  0  0
    7.9879  -12.6972   27.4099 C   0  0  0  0  0  0  0  0  0  0  0  0
    8.0696  -11.7467   26.4108 C   0  0  0  0  0  0  0  0  0  0  0  0
    7.4791  -12.0803   25.2041 C   0  0  0  0  0  0  0  0  0  0  0  0
    6.8486  -13.2776   25.0001 C   0  0  0  0  0  0  0  0  0  0  0  0
    8.2971  -16.4228   25.0852 C   0  0  0  0  0  0  0  0  0  0  0  0
    8.5734  -17.1662   26.0472 O   0  0  0  0  0  0  0  0  0  0  0  0
    9.3358  -15.7863   24.3601 N   0  0  0  0  0  0  0  0  0  0  0  0
   10.7605  -16.0728   24.5835 C   0  0  1  0  0  0  0  0  0  0  0  0
   11.5659  -15.5924   23.4079 C   0  0  0  0  0  0  0  0  0  0  0  0
   11.4164  -16.5379   22.2500 C   0  0  0  0  0  0  0  0  0  0  0  0
   12.2414  -16.0751   21.0813 C   0  0  0  0  0  0  0  0  0  0  0  0
   13.4768  -16.2984   21.1310 O   0  0  0  0  0  0  0  0  0  0  0  0
   11.2260  -15.5178   25.8427 C   0  0  0  0  0  0  0  0  0  0  0  0
   12.3561  -15.9215   26.5039 O   0  0  0  0  0  0  0  0  0  0  0  0
   11.7259  -15.4347   19.9862 O   0  0  0  0  0  0  0  0  0  0  0  0
   10.5511  -14.5908   26.3937 O   0  0  0  0  0  0  0  0  0  0  0  0
  2  1  1  6
  3  2  1  0
  3  4  1  0
  4  5  2  0
  5  6  1  0
  7  6  1  0
  8  7  2  0
  9  8  1  0
 10 11  1  0
 10  9  2  0
 11 12  2  0
 12  4  1  0
 12  7  1  0
 13 14  2  0
 13  2  1  0
 15 13  1  0
 16 15  1  0
 16 17  1  1
 18 19  2  0
 18 17  1  0
 20 19  1  0
 21 20  2  0
 22 21  1  0
 22 23  2  0
 23 18  1  0
 24 16  1  0
 24 25  2  0
 26 27  1  0
 26 24  1  0
 27 28  1  6
 28 29  1  0
 29 30  1  0
 30 34  1  0
 31 30  2  0
 32 27  1  0
 33 32  1  0
 35 32  2  0
M  END
$$$$
