WFE.pdb
     RDKit          3D

 35 37  0  0  1  0  0  0  0  0999 V2000
    6.7059  -18.3255   21.8786 N   0  0  0  0  0  0  0  0  0  0  0  0
    7.3127  -17.0765   21.5532 C   0  0  1  0  0  0  0  0  0  0  0  0
    6.2914  -16.1270   20.9742 C   0  0  0  0  0  0  0  0  0  0  0  0
    6.9760  -15.2629   19.9811 C   0  0  0  0  0  0  0  0  0  0  0  0
    7.1529  -15.5986   18.6335 C   0  0  0  0  0  0  0  0  0  0  0  0
    7.7728  -14.6013   17.9837 N   0  0  0  0  0  0  0  0  0  0  0  0
    8.0079  -13.6188   18.8718 C   0  0  0  0  0  0  0  0  0  0  0  0
    8.6305  -12.3754   18.7059 C   0  0  0  0  0  0  0  0  0  0  0  0
    8.7671  -11.5266   19.7823 C   0  0  0  0  0  0  0  0  0  0  0  0
    8.2796  -11.9346   21.0069 C   0  0  0  0  0  0  0  0  0  0  0  0
    7.6558  -13.1770   21.1787 C   0  0  0  0  0  0  0  0  0  0  0  0
    7.5249  -14.0061   20.1109 C   0  0  0  0  0  0  0  0  0  0  0  0
    7.9507  -16.5183   22.7733 C   0  0  0  0  0  0  0  0  0  0  0  0
    8.8203  -15.6009   22.6785 O   0  0  0  0  0  0  0  0  0  0  0  0
    7.6401  -16.9579   24.0694 N   0  0  0  0  0  0  0  0  0  0  0  0
    8.2915  -16.3905   25.2479 C   0  0  1  0  0  0  0  0  0  0  0  0
    7.1708  -15.9585   26.1688 C   0  0  0  0  0  0  0  0  0  0  0  0
    7.2091  -14.4545   26.1744 C   0  0  0  0  0  0  0  0  0  0  0  0
    8.3550  -13.8160   26.5707 C   0  0  0  0  0  0  0  0  0  0  0  0
    8.4074  -12.4429   26.5811 C   0  0  0  0  0  0  0  0  0  0  0  0
    7.3341  -11.6602   26.2019 C   0  0  0  0  0  0  0  0  0  0  0  0
    6.1946  -12.3402   25.8080 C   0  0  0  0  0  0  0  0  0  0  0  0
    6.1226  -13.7066   25.7907 C   0  0  0  0  0  0  0  0  0  0  0  0
    9.1449  -17.4360   25.8648 C   0  0  0  0  0  0  0  0  0  0  0  0
    8.5906  -18.4414   26.3510 O   0  0  0  0  0  0  0  0  0  0  0  0
   10.5565  -17.3132   25.9102 N   0  0  0  0  0  0  0  0  0  0  0  0
   11.4385  -18.3852   26.3949 C   0  0  1  0  0  0  0  0  0  0  0  0
   12.7983  -18.2469   25.7678 C   0  0  0  0  0  0  0  0  0  0  0  0
   13.7056  -19.3481   26.2382 C   0  0  0  0  0  0  0  0  0  0  0  0
   15.0427  -19.2570   25.5567 C   0  0  0  0  0  0  0  0  0  0  0  0
   15.7338  -18.2340   25.7906 O   0  0  0  0  0  0  0  0  0  0  0  0
   11.4940  -18.4160   27.8462 C   0  0  0  0  0  0  0  0  0  0  0  0
   11.9193  -19.4861   28.5889 O   0  0  0  0  0  0  0  0  0  0  0  0
   15.5371  -20.2129   24.7101 O   0  0  0  0  0  0  0  0  0  0  0  0
   11.1232  -17.3886   28.4984 O   0  0  0  0  0  0  0  0  0  0  0  0
  2  1  1  1
  3  2  1  0
  3  4  1  0
  4  5  2  0
  5  6  1  0
  7  6  1  0
  8  7  2  0
  9  8  1  0
 10 11  1  0
 10  9  2  0
 11 12  2  0
 12  4  1  0
 12  7  1  0
 13 14  2  0
 13  2  1  0
 15 13  1  0
 16 15  1  0
 16 17  1  1
 18 19  2  0
 18 17  1  0
 20 19  1  0
 21 20  2  0
 22 21  1  0
 22 23  2  0
 23 18  1  0
 24 16  1  0
 24 25  2  0
 26 27  1  0
 26 24  1  0
 27 28  1  6
 28 29  1  0
 29 30  1  0
 30 34  1  0
 31 30  2  0
 32 27  1  0
 33 32  1  0
 35 32  2  0
M  END
$$$$
