WFE.pdb
     RDKit          3D

 35 37  0  0  1  0  0  0  0  0999 V2000
    6.8942  -18.4485   22.0679 N   0  0  0  0  0  0  0  0  0  0  0  0
    7.2717  -17.1556   21.5989 C   0  0  1  0  0  0  0  0  0  0  0  0
    6.3552  -16.7082   20.4855 C   0  0  0  0  0  0  0  0  0  0  0  0
    7.0125  -15.5868   19.7698 C   0  0  0  0  0  0  0  0  0  0  0  0
    7.4728  -15.6567   18.4494 C   0  0  0  0  0  0  0  0  0  0  0  0
    7.9844  -14.4745   18.0726 N   0  0  0  0  0  0  0  0  0  0  0  0
    7.8720  -13.6301   19.1135 C   0  0  0  0  0  0  0  0  0  0  0  0
    8.2578  -12.2898   19.2406 C   0  0  0  0  0  0  0  0  0  0  0  0
    8.0450  -11.6234   20.4274 C   0  0  0  0  0  0  0  0  0  0  0  0
    7.4506  -12.3075   21.4678 C   0  0  0  0  0  0  0  0  0  0  0  0
    7.0624  -13.6480   21.3463 C   0  0  0  0  0  0  0  0  0  0  0  0
    7.2754  -14.2958   20.1717 C   0  0  0  0  0  0  0  0  0  0  0  0
    7.2529  -16.2046   22.7402 C   0  0  0  0  0  0  0  0  0  0  0  0
    7.1325  -14.9597   22.5344 O   0  0  0  0  0  0  0  0  0  0  0  0
    7.3635  -16.6122   24.0786 N   0  0  0  0  0  0  0  0  0  0  0  0
    8.2944  -15.9671   25.0019 C   0  0  1  0  0  0  0  0  0  0  0  0
    7.5175  -15.7472   26.2819 C   0  0  0  0  0  0  0  0  0  0  0  0
    8.3671  -14.8292   27.1179 C   0  0  0  0  0  0  0  0  0  0  0  0
    8.3537  -13.4837   26.8581 C   0  0  0  0  0  0  0  0  0  0  0  0
    9.1230  -12.6311   27.6125 C   0  0  0  0  0  0  0  0  0  0  0  0
    9.9268  -13.0783   28.6431 C   0  0  0  0  0  0  0  0  0  0  0  0
    9.9144  -14.4428   28.8758 C   0  0  0  0  0  0  0  0  0  0  0  0
    9.1553  -15.3082   28.1359 C   0  0  0  0  0  0  0  0  0  0  0  0
    9.4567  -16.8669   25.2058 C   0  0  0  0  0  0  0  0  0  0  0  0
    9.2379  -18.0702   25.4482 O   0  0  0  0  0  0  0  0  0  0  0  0
   10.7895  -16.3898   25.1310 N   0  0  0  0  0  0  0  0  0  0  0  0
   11.9607  -17.2784   25.1533 C   0  0  1  0  0  0  0  0  0  0  0  0
   13.0909  -16.6488   24.3866 C   0  0  0  0  0  0  0  0  0  0  0  0
   14.2953  -17.5468   24.3987 C   0  0  0  0  0  0  0  0  0  0  0  0
   15.3492  -17.0282   23.4601 C   0  0  0  0  0  0  0  0  0  0  0  0
   15.1643  -15.8865   22.9692 O   0  0  0  0  0  0  0  0  0  0  0  0
   12.3368  -17.6325   26.5110 C   0  0  0  0  0  0  0  0  0  0  0  0
   11.7900  -17.0838   27.6412 O   0  0  0  0  0  0  0  0  0  0  0  0
   16.4789  -17.7226   23.1188 O   0  0  0  0  0  0  0  0  0  0  0  0
   13.2395  -18.5109   26.6904 O   0  0  0  0  0  0  0  0  0  0  0  0
  2  1  1  1
  3  2  1  0
  3  4  1  0
  4  5  2  0
  5  6  1  0
  7  6  1  0
  8  7  2  0
  9  8  1  0
 10 11  1  0
 10  9  2  0
 11 12  2  0
 12  4  1  0
 12  7  1  0
 13 14  2  0
 13  2  1  0
 15 13  1  0
 16 15  1  0
 16 17  1  1
 18 19  2  0
 18 17  1  0
 20 19  1  0
 21 20  2  0
 22 21  1  0
 22 23  2  0
 23 18  1  0
 24 16  1  0
 24 25  2  0
 26 27  1  0
 26 24  1  0
 27 28  1  1
 28 29  1  0
 29 30  1  0
 30 34  1  0
 31 30  2  0
 32 27  1  0
 33 32  1  0
 35 32  2  0
M  END
$$$$
