WFE.pdb
     RDKit          3D

 35 37  0  0  1  0  0  0  0  0999 V2000
    8.8424  -18.0041   21.6580 N   0  0  0  0  0  0  0  0  0  0  0  0
   10.0436  -17.2807   21.9186 C   0  0  1  0  0  0  0  0  0  0  0  0
   10.3230  -16.3002   20.8050 C   0  0  0  0  0  0  0  0  0  0  0  0
    9.0868  -15.5172   20.5591 C   0  0  0  0  0  0  0  0  0  0  0  0
    7.8686  -15.7423   21.2114 C   0  0  0  0  0  0  0  0  0  0  0  0
    6.9516  -14.8513   20.8035 N   0  0  0  0  0  0  0  0  0  0  0  0
    7.5376  -14.0468   19.8987 C   0  0  0  0  0  0  0  0  0  0  0  0
    7.0178  -12.9687   19.1715 C   0  0  0  0  0  0  0  0  0  0  0  0
    7.8203  -12.2906   18.2805 C   0  0  0  0  0  0  0  0  0  0  0  0
    9.1289  -12.7014   18.1304 C   0  0  0  0  0  0  0  0  0  0  0  0
    9.6542  -13.7788   18.8553 C   0  0  0  0  0  0  0  0  0  0  0  0
    8.8553  -14.4401   19.7322 C   0  0  0  0  0  0  0  0  0  0  0  0
    9.9195  -16.5979   23.2323 C   0  0  0  0  0  0  0  0  0  0  0  0
   10.9328  -16.0626   23.7739 O   0  0  0  0  0  0  0  0  0  0  0  0
    8.7085  -16.5046   23.9356 N   0  0  0  0  0  0  0  0  0  0  0  0
    8.5119  -15.5185   24.9957 C   0  0  1  0  0  0  0  0  0  0  0  0
    7.2067  -14.8234   24.6734 C   0  0  0  0  0  0  0  0  0  0  0  0
    7.0362  -13.7711   25.7350 C   0  0  0  0  0  0  0  0  0  0  0  0
    5.9259  -13.8042   26.5375 C   0  0  0  0  0  0  0  0  0  0  0  0
    5.7548  -12.8513   27.5126 C   0  0  0  0  0  0  0  0  0  0  0  0
    6.6711  -11.8396   27.7251 C   0  0  0  0  0  0  0  0  0  0  0  0
    7.7793  -11.8386   26.8956 C   0  0  0  0  0  0  0  0  0  0  0  0
    7.9678  -12.7785   25.9191 C   0  0  0  0  0  0  0  0  0  0  0  0
    8.4555  -16.2293   26.2971 C   0  0  0  0  0  0  0  0  0  0  0  0
    8.2157  -15.5647   27.3244 O   0  0  0  0  0  0  0  0  0  0  0  0
    8.6661  -17.6281   26.3908 N   0  0  0  0  0  0  0  0  0  0  0  0
    8.6729  -18.3531   27.6699 C   0  0  1  0  0  0  0  0  0  0  0  0
    8.1035  -19.7314   27.4759 C   0  0  0  0  0  0  0  0  0  0  0  0
    7.0768  -19.7234   26.3791 C   0  0  0  0  0  0  0  0  0  0  0  0
    6.4977  -21.0980   26.1889 C   0  0  0  0  0  0  0  0  0  0  0  0
    6.5489  -21.8796   27.1713 O   0  0  0  0  0  0  0  0  0  0  0  0
    9.9983  -18.3757   28.2642 C   0  0  0  0  0  0  0  0  0  0  0  0
   10.2883  -18.8734   29.5074 O   0  0  0  0  0  0  0  0  0  0  0  0
    5.9282  -21.5339   25.0225 O   0  0  0  0  0  0  0  0  0  0  0  0
   10.9771  -17.9019   27.6039 O   0  0  0  0  0  0  0  0  0  0  0  0
  2  1  1  6
  3  2  1  0
  3  4  1  0
  4  5  2  0
  5  6  1  0
  7  6  1  0
  8  7  2  0
  9  8  1  0
 10 11  1  0
 10  9  2  0
 11 12  2  0
 12  4  1  0
 12  7  1  0
 13 14  2  0
 13  2  1  0
 15 13  1  0
 16 15  1  0
 16 17  1  6
 18 19  2  0
 18 17  1  0
 20 19  1  0
 21 20  2  0
 22 21  1  0
 22 23  2  0
 23 18  1  0
 24 16  1  0
 24 25  2  0
 26 27  1  0
 26 24  1  0
 27 28  1  6
 28 29  1  0
 29 30  1  0
 30 34  1  0
 31 30  2  0
 32 27  1  0
 33 32  1  0
 35 32  2  0
M  END
$$$$
