WFE.pdb
     RDKit          3D

 35 37  0  0  1  0  0  0  0  0999 V2000
    9.2168  -17.2953   26.3309 N   0  0  0  0  0  0  0  0  0  0  0  0
    7.8979  -17.5747   25.8655 C   0  0  1  0  0  0  0  0  0  0  0  0
    6.8726  -16.8983   26.7434 C   0  0  0  0  0  0  0  0  0  0  0  0
    7.3175  -15.5027   26.9807 C   0  0  0  0  0  0  0  0  0  0  0  0
    6.5379  -14.3709   26.7135 C   0  0  0  0  0  0  0  0  0  0  0  0
    7.1988  -13.2576   27.0670 N   0  0  0  0  0  0  0  0  0  0  0  0
    8.3937  -13.6305   27.5593 C   0  0  0  0  0  0  0  0  0  0  0  0
    9.4518  -12.8587   28.0554 C   0  0  0  0  0  0  0  0  0  0  0  0
   10.5998  -13.4743   28.5034 C   0  0  0  0  0  0  0  0  0  0  0  0
   10.6717  -14.8510   28.4481 C   0  0  0  0  0  0  0  0  0  0  0  0
    9.6165  -15.6281   27.9533 C   0  0  0  0  0  0  0  0  0  0  0  0
    8.4884  -15.0117   27.5150 C   0  0  0  0  0  0  0  0  0  0  0  0
    7.7833  -17.1362   24.4506 C   0  0  0  0  0  0  0  0  0  0  0  0
    6.6898  -17.2738   23.8243 O   0  0  0  0  0  0  0  0  0  0  0  0
    8.8463  -16.5587   23.7391 N   0  0  0  0  0  0  0  0  0  0  0  0
    8.6414  -15.9151   22.4434 C   0  0  1  0  0  0  0  0  0  0  0  0
    8.5196  -14.4350   22.7347 C   0  0  0  0  0  0  0  0  0  0  0  0
    8.2482  -13.7826   21.4064 C   0  0  0  0  0  0  0  0  0  0  0  0
    7.0064  -13.9080   20.8406 C   0  0  0  0  0  0  0  0  0  0  0  0
    6.7414  -13.3179   19.6284 C   0  0  0  0  0  0  0  0  0  0  0  0
    7.6906  -12.5883   18.9392 C   0  0  0  0  0  0  0  0  0  0  0  0
    8.9325  -12.4835   19.5414 C   0  0  0  0  0  0  0  0  0  0  0  0
    9.2161  -13.0637   20.7479 C   0  0  0  0  0  0  0  0  0  0  0  0
    9.8081  -16.2161   21.5772 C   0  0  0  0  0  0  0  0  0  0  0  0
    9.6105  -16.8337   20.5123 O   0  0  0  0  0  0  0  0  0  0  0  0
   11.1217  -15.8200   21.9338 N   0  0  0  0  0  0  0  0  0  0  0  0
   12.3256  -16.5160   21.4561 C   0  0  1  0  0  0  0  0  0  0  0  0
   13.5398  -15.6679   21.7163 C   0  0  0  0  0  0  0  0  0  0  0  0
   14.7666  -16.3223   21.1471 C   0  0  0  0  0  0  0  0  0  0  0  0
   15.9891  -15.4983   21.4428 C   0  0  0  0  0  0  0  0  0  0  0  0
   17.0471  -15.8111   20.8416 O   0  0  0  0  0  0  0  0  0  0  0  0
   12.4389  -17.8444   22.0330 C   0  0  0  0  0  0  0  0  0  0  0  0
   12.8480  -18.9599   21.3507 O   0  0  0  0  0  0  0  0  0  0  0  0
   16.0088  -14.4446   22.3170 O   0  0  0  0  0  0  0  0  0  0  0  0
   12.1393  -18.0110   23.2582 O   0  0  0  0  0  0  0  0  0  0  0  0
  2  1  1  1
  3  2  1  0
  3  4  1  0
  4  5  2  0
  5  6  1  0
  7  6  1  0
  8  7  2  0
  9  8  1  0
 10 11  1  0
 10  9  2  0
 11 12  2  0
 12  4  1  0
 12  7  1  0
 13 14  2  0
 13  2  1  0
 15 13  1  0
 16 15  1  0
 16 17  1  1
 18 19  2  0
 18 17  1  0
 20 19  1  0
 21 20  2  0
 22 21  1  0
 22 23  2  0
 23 18  1  0
 24 16  1  0
 24 25  2  0
 26 27  1  0
 26 24  1  0
 27 28  1  1
 28 29  1  0
 29 30  1  0
 30 34  1  0
 31 30  2  0
 32 27  1  0
 33 32  1  0
 35 32  2  0
M  END
$$$$
