WFE.pdb
     RDKit          3D

 35 37  0  0  1  0  0  0  0  0999 V2000
   11.1675  -16.7729   20.5542 N   0  0  0  0  0  0  0  0  0  0  0  0
    9.9509  -16.2638   21.0972 C   0  0  1  0  0  0  0  0  0  0  0  0
    8.7711  -17.0543   20.5845 C   0  0  0  0  0  0  0  0  0  0  0  0
    7.8832  -16.1272   19.8402 C   0  0  0  0  0  0  0  0  0  0  0  0
    6.7758  -16.5324   19.0855 C   0  0  0  0  0  0  0  0  0  0  0  0
    6.1530  -15.4641   18.5639 N   0  0  0  0  0  0  0  0  0  0  0  0
    6.8248  -14.3671   18.9571 C   0  0  0  0  0  0  0  0  0  0  0  0
    6.5927  -13.0137   18.6819 C   0  0  0  0  0  0  0  0  0  0  0  0
    7.4361  -12.0538   19.1968 C   0  0  0  0  0  0  0  0  0  0  0  0
    8.4977  -12.4622   19.9777 C   0  0  0  0  0  0  0  0  0  0  0  0
    8.7345  -13.8144   20.2564 C   0  0  0  0  0  0  0  0  0  0  0  0
    7.8965  -14.7531   19.7452 C   0  0  0  0  0  0  0  0  0  0  0  0
   10.0327  -16.3001   22.5802 C   0  0  0  0  0  0  0  0  0  0  0  0
   11.0532  -16.7869   23.1533 O   0  0  0  0  0  0  0  0  0  0  0  0
    9.0161  -15.8119   23.4155 N   0  0  0  0  0  0  0  0  0  0  0  0
    9.2824  -15.4188   24.7975 C   0  0  1  0  0  0  0  0  0  0  0  0
    8.0992  -14.5748   25.2197 C   0  0  0  0  0  0  0  0  0  0  0  0
    8.3417  -14.2328   26.6646 C   0  0  0  0  0  0  0  0  0  0  0  0
    7.8831  -15.0804   27.6388 C   0  0  0  0  0  0  0  0  0  0  0  0
    8.0967  -14.7836   28.9634 C   0  0  0  0  0  0  0  0  0  0  0  0
    8.7672  -13.6450   29.3661 C   0  0  0  0  0  0  0  0  0  0  0  0
    9.2155  -12.8133   28.3544 C   0  0  0  0  0  0  0  0  0  0  0  0
    9.0128  -13.0912   27.0299 C   0  0  0  0  0  0  0  0  0  0  0  0
    9.4104  -16.6465   25.6211 C   0  0  0  0  0  0  0  0  0  0  0  0
    8.6116  -17.5819   25.4171 O   0  0  0  0  0  0  0  0  0  0  0  0
   10.4089  -16.7720   26.6196 N   0  0  0  0  0  0  0  0  0  0  0  0
   11.0234  -18.0581   26.9806 C   0  0  1  0  0  0  0  0  0  0  0  0
   12.1517  -18.3654   26.0349 C   0  0  0  0  0  0  0  0  0  0  0  0
   12.7202  -19.7257   26.3236 C   0  0  0  0  0  0  0  0  0  0  0  0
   13.0565  -20.4391   25.0434 C   0  0  0  0  0  0  0  0  0  0  0  0
   12.1660  -21.1751   24.5496 O   0  0  0  0  0  0  0  0  0  0  0  0
   11.4404  -18.0791   28.3720 C   0  0  0  0  0  0  0  0  0  0  0  0
   12.1364  -17.0761   28.9939 O   0  0  0  0  0  0  0  0  0  0  0  0
   14.2603  -20.3305   24.4001 O   0  0  0  0  0  0  0  0  0  0  0  0
   11.1535  -19.0927   29.0853 O   0  0  0  0  0  0  0  0  0  0  0  0
  2  1  1  6
  3  2  1  0
  3  4  1  0
  4  5  2  0
  5  6  1  0
  7  6  1  0
  8  7  2  0
  9  8  1  0
 10 11  1  0
 10  9  2  0
 11 12  2  0
 12  4  1  0
 12  7  1  0
 13 14  2  0
 13  2  1  0
 15 13  1  0
 16 15  1  0
 16 17  1  1
 18 19  2  0
 18 17  1  0
 20 19  1  0
 21 20  2  0
 22 21  1  0
 22 23  2  0
 23 18  1  0
 24 16  1  0
 24 25  2  0
 26 27  1  0
 26 24  1  0
 27 28  1  6
 28 29  1  0
 29 30  1  0
 30 34  1  0
 31 30  2  0
 32 27  1  0
 33 32  1  0
 35 32  2  0
M  END
$$$$
