WFE.pdb
     RDKit          3D

 35 37  0  0  1  0  0  0  0  0999 V2000
   10.5464  -16.3470   19.6767 N   0  0  0  0  0  0  0  0  0  0  0  0
   10.1042  -16.7474   20.9722 C   0  0  1  0  0  0  0  0  0  0  0  0
   11.1469  -17.6078   21.6446 C   0  0  0  0  0  0  0  0  0  0  0  0
   11.2751  -18.8669   20.8701 C   0  0  0  0  0  0  0  0  0  0  0  0
   11.7653  -18.9402   19.5608 C   0  0  0  0  0  0  0  0  0  0  0  0
   11.7946  -20.2164   19.1464 N   0  0  0  0  0  0  0  0  0  0  0  0
   11.3349  -20.9831   20.1515 C   0  0  0  0  0  0  0  0  0  0  0  0
   11.1588  -22.3704   20.2272 C   0  0  0  0  0  0  0  0  0  0  0  0
   10.6550  -22.9370   21.3774 C   0  0  0  0  0  0  0  0  0  0  0  0
   10.3352  -22.1078   22.4328 C   0  0  0  0  0  0  0  0  0  0  0  0
   10.5095  -20.7197   22.3628 C   0  0  0  0  0  0  0  0  0  0  0  0
   11.0080  -20.1709   21.2248 C   0  0  0  0  0  0  0  0  0  0  0  0
    9.7953  -15.5342   21.7722 C   0  0  0  0  0  0  0  0  0  0  0  0
   10.6673  -14.6263   21.9211 O   0  0  0  0  0  0  0  0  0  0  0  0
    8.5554  -15.3224   22.3947 N   0  0  0  0  0  0  0  0  0  0  0  0
    8.4100  -14.4013   23.5197 C   0  0  1  0  0  0  0  0  0  0  0  0
    6.9231  -14.1570   23.6610 C   0  0  0  0  0  0  0  0  0  0  0  0
    6.7680  -13.3104   24.8951 C   0  0  0  0  0  0  0  0  0  0  0  0
    6.0392  -13.7932   25.9503 C   0  0  0  0  0  0  0  0  0  0  0  0
    5.8883  -13.0335   27.0853 C   0  0  0  0  0  0  0  0  0  0  0  0
    6.4500  -11.7780   27.2134 C   0  0  0  0  0  0  0  0  0  0  0  0
    7.1787  -11.3240   26.1276 C   0  0  0  0  0  0  0  0  0  0  0  0
    7.3406  -12.0653   24.9888 C   0  0  0  0  0  0  0  0  0  0  0  0
    8.9851  -15.0395   24.7297 C   0  0  0  0  0  0  0  0  0  0  0  0
    9.1523  -14.3372   25.7462 O   0  0  0  0  0  0  0  0  0  0  0  0
    9.3417  -16.4114   24.7493 N   0  0  0  0  0  0  0  0  0  0  0  0
    9.9002  -17.0768   25.9356 C   0  0  1  0  0  0  0  0  0  0  0  0
    9.7634  -18.5677   25.7935 C   0  0  0  0  0  0  0  0  0  0  0  0
   10.2592  -19.2587   27.0320 C   0  0  0  0  0  0  0  0  0  0  0  0
    9.7887  -20.6865   27.0633 C   0  0  0  0  0  0  0  0  0  0  0  0
   10.4619  -21.5235   26.4115 O   0  0  0  0  0  0  0  0  0  0  0  0
   11.2704  -16.6636   26.1845 C   0  0  0  0  0  0  0  0  0  0  0  0
   12.2910  -16.7544   25.2749 O   0  0  0  0  0  0  0  0  0  0  0  0
    8.6853  -21.1138   27.7523 O   0  0  0  0  0  0  0  0  0  0  0  0
   11.5710  -16.1822   27.3231 O   0  0  0  0  0  0  0  0  0  0  0  0
  2  1  1  6
  3  2  1  0
  3  4  1  0
  4  5  2  0
  5  6  1  0
  7  6  1  0
  8  7  2  0
  9  8  1  0
 10 11  1  0
 10  9  2  0
 11 12  2  0
 12  4  1  0
 12  7  1  0
 13 14  2  0
 13  2  1  0
 15 13  1  0
 16 15  1  0
 16 17  1  1
 18 19  2  0
 18 17  1  0
 20 19  1  0
 21 20  2  0
 22 21  1  0
 22 23  2  0
 23 18  1  0
 24 16  1  0
 24 25  2  0
 26 27  1  0
 26 24  1  0
 27 28  1  6
 28 29  1  0
 29 30  1  0
 30 34  1  0
 31 30  2  0
 32 27  1  0
 33 32  1  0
 35 32  2  0
M  END
$$$$
