WFE.pdb
     RDKit          3D

 35 37  0  0  1  0  0  0  0  0999 V2000
    7.7744  -17.0876   25.5875 N   0  0  0  0  0  0  0  0  0  0  0  0
    6.7784  -16.7842   24.6128 C   0  0  1  0  0  0  0  0  0  0  0  0
    6.4663  -15.3069   24.6175 C   0  0  0  0  0  0  0  0  0  0  0  0
    7.4295  -14.6350   25.5244 C   0  0  0  0  0  0  0  0  0  0  0  0
    8.5644  -15.2513   26.0649 C   0  0  0  0  0  0  0  0  0  0  0  0
    9.2551  -14.3778   26.8140 N   0  0  0  0  0  0  0  0  0  0  0  0
    8.6011  -13.2029   26.7792 C   0  0  0  0  0  0  0  0  0  0  0  0
    8.8977  -11.9806   27.3951 C   0  0  0  0  0  0  0  0  0  0  0  0
    8.0603  -10.9011   27.2177 C   0  0  0  0  0  0  0  0  0  0  0  0
    6.9402  -11.0611   26.4281 C   0  0  0  0  0  0  0  0  0  0  0  0
    6.6388  -12.2811   25.8093 C   0  0  0  0  0  0  0  0  0  0  0  0
    7.4713  -13.3391   25.9894 C   0  0  0  0  0  0  0  0  0  0  0  0
    7.2528  -17.2403   23.2808 C   0  0  0  0  0  0  0  0  0  0  0  0
    7.7549  -18.3958   23.1412 O   0  0  0  0  0  0  0  0  0  0  0  0
    7.1771  -16.4447   22.1272 N   0  0  0  0  0  0  0  0  0  0  0  0
    7.2308  -17.0285   20.7887 C   0  0  1  0  0  0  0  0  0  0  0  0
    6.5118  -16.0504   19.8848 C   0  0  0  0  0  0  0  0  0  0  0  0
    7.2663  -14.7547   20.0099 C   0  0  0  0  0  0  0  0  0  0  0  0
    7.0742  -13.9731   21.1189 C   0  0  0  0  0  0  0  0  0  0  0  0
    7.7557  -12.7871   21.2496 C   0  0  0  0  0  0  0  0  0  0  0  0
    8.6449  -12.3374   20.2928 C   0  0  0  0  0  0  0  0  0  0  0  0
    8.8129  -13.1531   19.1872 C   0  0  0  0  0  0  0  0  0  0  0  0
    8.1436  -14.3375   19.0387 C   0  0  0  0  0  0  0  0  0  0  0  0
    8.6540  -17.1968   20.4038 C   0  0  0  0  0  0  0  0  0  0  0  0
    8.9122  -17.7823   19.3338 O   0  0  0  0  0  0  0  0  0  0  0  0
    9.7077  -16.7114   21.2185 N   0  0  0  0  0  0  0  0  0  0  0  0
   11.1260  -16.8344   20.8510 C   0  0  1  0  0  0  0  0  0  0  0  0
   11.6916  -15.4749   20.5454 C   0  0  0  0  0  0  0  0  0  0  0  0
   13.1442  -15.5834   20.1774 C   0  0  0  0  0  0  0  0  0  0  0  0
   13.7136  -14.2256   19.8721 C   0  0  0  0  0  0  0  0  0  0  0  0
   14.4969  -13.7314   20.7210 O   0  0  0  0  0  0  0  0  0  0  0  0
   11.8835  -17.5369   21.8723 C   0  0  0  0  0  0  0  0  0  0  0  0
   12.9778  -18.3250   21.6295 O   0  0  0  0  0  0  0  0  0  0  0  0
   13.4280  -13.5132   18.7381 O   0  0  0  0  0  0  0  0  0  0  0  0
   11.5229  -17.4315   23.0878 O   0  0  0  0  0  0  0  0  0  0  0  0
  2  1  1  1
  3  2  1  0
  3  4  1  0
  4  5  2  0
  5  6  1  0
  7  6  1  0
  8  7  2  0
  9  8  1  0
 10 11  1  0
 10  9  2  0
 11 12  2  0
 12  4  1  0
 12  7  1  0
 13 14  2  0
 13  2  1  0
 15 13  1  0
 16 15  1  0
 16 17  1  6
 18 19  2  0
 18 17  1  0
 20 19  1  0
 21 20  2  0
 22 21  1  0
 22 23  2  0
 23 18  1  0
 24 16  1  0
 24 25  2  0
 26 27  1  0
 26 24  1  0
 27 28  1  1
 28 29  1  0
 29 30  1  0
 30 34  1  0
 31 30  2  0
 32 27  1  0
 33 32  1  0
 35 32  2  0
M  END
$$$$
