WFE.pdb
     RDKit          3D

 35 37  0  0  1  0  0  0  0  0999 V2000
    7.2944  -18.3633   22.0708 N   0  0  0  0  0  0  0  0  0  0  0  0
    7.5333  -17.0515   21.5645 C   0  0  1  0  0  0  0  0  0  0  0  0
    6.3884  -16.6068   20.6862 C   0  0  0  0  0  0  0  0  0  0  0  0
    6.8910  -15.5506   19.7732 C   0  0  0  0  0  0  0  0  0  0  0  0
    7.1583  -15.7466   18.4130 C   0  0  0  0  0  0  0  0  0  0  0  0
    7.5633  -14.5982   17.8489 N   0  0  0  0  0  0  0  0  0  0  0  0
    7.5692  -13.6528   18.8057 C   0  0  0  0  0  0  0  0  0  0  0  0
    7.9164  -12.2975   18.7403 C   0  0  0  0  0  0  0  0  0  0  0  0
    7.8512  -11.5164   19.8731 C   0  0  0  0  0  0  0  0  0  0  0  0
    7.4404  -12.1025   21.0527 C   0  0  0  0  0  0  0  0  0  0  0  0
    7.0917  -13.4573   21.1240 C   0  0  0  0  0  0  0  0  0  0  0  0
    7.1582  -14.2187   20.0013 C   0  0  0  0  0  0  0  0  0  0  0  0
    7.7403  -16.1245   22.7068 C   0  0  0  0  0  0  0  0  0  0  0  0
    7.8471  -14.8771   22.5079 O   0  0  0  0  0  0  0  0  0  0  0  0
    7.8277  -16.5579   24.0388 N   0  0  0  0  0  0  0  0  0  0  0  0
    8.7362  -15.9253   24.9926 C   0  0  1  0  0  0  0  0  0  0  0  0
    7.9257  -15.7128   26.2529 C   0  0  0  0  0  0  0  0  0  0  0  0
    8.8294  -14.9623   27.1929 C   0  0  0  0  0  0  0  0  0  0  0  0
    9.4899  -15.6496   28.1775 C   0  0  0  0  0  0  0  0  0  0  0  0
   10.3198  -14.9799   29.0440 C   0  0  0  0  0  0  0  0  0  0  0  0
   10.5228  -13.6157   28.9660 C   0  0  0  0  0  0  0  0  0  0  0  0
    9.8392  -12.9556   27.9594 C   0  0  0  0  0  0  0  0  0  0  0  0
    9.0085  -13.6044   27.0868 C   0  0  0  0  0  0  0  0  0  0  0  0
    9.8882  -16.8325   25.2200 C   0  0  0  0  0  0  0  0  0  0  0  0
    9.6624  -17.9764   25.6616 O   0  0  0  0  0  0  0  0  0  0  0  0
   11.2193  -16.4276   24.9484 N   0  0  0  0  0  0  0  0  0  0  0  0
   12.3373  -17.3757   24.8332 C   0  0  1  0  0  0  0  0  0  0  0  0
   13.4150  -16.7875   23.9648 C   0  0  0  0  0  0  0  0  0  0  0  0
   14.5917  -17.7185   23.8889 C   0  0  0  0  0  0  0  0  0  0  0  0
   15.7070  -17.0951   23.0964 C   0  0  0  0  0  0  0  0  0  0  0  0
   15.8401  -15.8486   23.1818 O   0  0  0  0  0  0  0  0  0  0  0  0
   12.8312  -17.7803   26.1381 C   0  0  0  0  0  0  0  0  0  0  0  0
   12.5691  -17.1221   27.3108 O   0  0  0  0  0  0  0  0  0  0  0  0
   16.5691  -17.8020   22.3014 O   0  0  0  0  0  0  0  0  0  0  0  0
   13.5651  -18.8159   26.2244 O   0  0  0  0  0  0  0  0  0  0  0  0
  2  1  1  1
  3  2  1  0
  3  4  1  0
  4  5  2  0
  5  6  1  0
  7  6  1  0
  8  7  2  0
  9  8  1  0
 10 11  1  0
 10  9  2  0
 11 12  2  0
 12  4  1  0
 12  7  1  0
 13 14  2  0
 13  2  1  0
 15 13  1  0
 16 15  1  0
 16 17  1  1
 18 19  2  0
 18 17  1  0
 20 19  1  0
 21 20  2  0
 22 21  1  0
 22 23  2  0
 23 18  1  0
 24 16  1  0
 24 25  2  0
 26 27  1  0
 26 24  1  0
 27 28  1  6
 28 29  1  0
 29 30  1  0
 30 34  1  0
 31 30  2  0
 32 27  1  0
 33 32  1  0
 35 32  2  0
M  END
$$$$
