WFE.pdb
     RDKit          3D

 35 37  0  0  1  0  0  0  0  0999 V2000
    7.0083  -19.1394   26.3218 N   0  0  0  0  0  0  0  0  0  0  0  0
    7.7301  -17.9211   26.1517 C   0  0  1  0  0  0  0  0  0  0  0  0
    9.2041  -18.1412   26.3939 C   0  0  0  0  0  0  0  0  0  0  0  0
    9.5903  -17.3818   27.6087 C   0  0  0  0  0  0  0  0  0  0  0  0
    9.9778  -17.9727   28.8173 C   0  0  0  0  0  0  0  0  0  0  0  0
   10.3017  -17.0277   29.7137 N   0  0  0  0  0  0  0  0  0  0  0  0
   10.1355  -15.8305   29.1234 C   0  0  0  0  0  0  0  0  0  0  0  0
   10.3288  -14.5370   29.6244 C   0  0  0  0  0  0  0  0  0  0  0  0
   10.0802  -13.4454   28.8217 C   0  0  0  0  0  0  0  0  0  0  0  0
    9.6423  -13.6643   27.5318 C   0  0  0  0  0  0  0  0  0  0  0  0
    9.4475  -14.9557   27.0253 C   0  0  0  0  0  0  0  0  0  0  0  0
    9.6965  -16.0254   27.8242 C   0  0  0  0  0  0  0  0  0  0  0  0
    7.4713  -17.3941   24.7870 C   0  0  0  0  0  0  0  0  0  0  0  0
    7.2178  -18.1878   23.8316 O   0  0  0  0  0  0  0  0  0  0  0  0
    7.4898  -16.0252   24.4782 N   0  0  0  0  0  0  0  0  0  0  0  0
    7.4513  -15.5504   23.0968 C   0  0  1  0  0  0  0  0  0  0  0  0
    7.5399  -14.0418   23.1783 C   0  0  0  0  0  0  0  0  0  0  0  0
    7.4399  -13.5537   21.7587 C   0  0  0  0  0  0  0  0  0  0  0  0
    8.3354  -12.6196   21.3077 C   0  0  0  0  0  0  0  0  0  0  0  0
    8.2588  -12.1636   20.0138 C   0  0  0  0  0  0  0  0  0  0  0  0
    7.2993  -12.6138   19.1278 C   0  0  0  0  0  0  0  0  0  0  0  0
    6.4127  -13.5566   19.6189 C   0  0  0  0  0  0  0  0  0  0  0  0
    6.4724  -14.0232   20.9039 C   0  0  0  0  0  0  0  0  0  0  0  0
    8.6017  -16.1353   22.3644 C   0  0  0  0  0  0  0  0  0  0  0  0
    8.3673  -16.8877   21.3983 O   0  0  0  0  0  0  0  0  0  0  0  0
    9.9407  -15.8578   22.7383 N   0  0  0  0  0  0  0  0  0  0  0  0
   11.1022  -16.4029   22.0200 C   0  0  1  0  0  0  0  0  0  0  0  0
   11.6182  -15.3845   21.0413 C   0  0  0  0  0  0  0  0  0  0  0  0
   12.8549  -15.8954   20.3582 C   0  0  0  0  0  0  0  0  0  0  0  0
   13.3896  -14.8686   19.3986 C   0  0  0  0  0  0  0  0  0  0  0  0
   14.4529  -14.2834   19.7234 O   0  0  0  0  0  0  0  0  0  0  0  0
   12.1291  -16.8650   22.9377 C   0  0  0  0  0  0  0  0  0  0  0  0
   13.1717  -17.6850   22.5944 O   0  0  0  0  0  0  0  0  0  0  0  0
   12.7891  -14.5443   18.2116 O   0  0  0  0  0  0  0  0  0  0  0  0
   12.0772  -16.4983   24.1549 O   0  0  0  0  0  0  0  0  0  0  0  0
  2  1  1  6
  3  2  1  0
  3  4  1  0
  4  5  2  0
  5  6  1  0
  7  6  1  0
  8  7  2  0
  9  8  1  0
 10 11  1  0
 10  9  2  0
 11 12  2  0
 12  4  1  0
 12  7  1  0
 13 14  2  0
 13  2  1  0
 15 13  1  0
 16 15  1  0
 16 17  1  1
 18 19  2  0
 18 17  1  0
 20 19  1  0
 21 20  2  0
 22 21  1  0
 22 23  2  0
 23 18  1  0
 24 16  1  0
 24 25  2  0
 26 27  1  0
 26 24  1  0
 27 28  1  6
 28 29  1  0
 29 30  1  0
 30 34  1  0
 31 30  2  0
 32 27  1  0
 33 32  1  0
 35 32  2  0
M  END
$$$$
