TCN.pdb
     RDKit          3D

 22 21  0  0  1  0  0  0  0  0999 V2000
    6.4726  -17.2620   21.0969 C   0  0  0  0  0  0  0  0  0  0  0  0
    7.6863  -16.9006   20.3066 C   0  0  1  0  0  0  0  0  0  0  0  0
    7.4105  -17.1167   18.9569 O   0  0  0  0  0  0  0  0  0  0  0  0
    8.0981  -15.4662   20.4596 C   0  0  2  0  0  0  0  0  0  0  0  0
    9.2322  -15.2088   19.5957 N   0  0  0  0  0  0  0  0  0  0  0  0
    8.5050  -15.1479   21.8582 C   0  0  0  0  0  0  0  0  0  0  0  0
    9.6657  -15.4216   22.2892 O   0  0  0  0  0  0  0  0  0  0  0  0
    7.6350  -14.5249   22.7942 N   0  0  0  0  0  0  0  0  0  0  0  0
    8.0025  -14.2732   24.1659 C   0  0  1  0  0  0  0  0  0  0  0  0
    6.9489  -13.5223   24.9307 C   0  0  0  0  0  0  0  0  0  0  0  0
    7.5829  -13.2431   26.6104 S   0  0  0  0  0  0  0  0  0  0  0  0
    8.1874  -15.5879   24.8453 C   0  0  0  0  0  0  0  0  0  0  0  0
    7.3116  -16.4946   24.8041 O   0  0  0  0  0  0  0  0  0  0  0  0
    8.5006  -19.2982   24.7036 N   0  0  0  0  0  0  0  0  0  0  0  0
    9.8847  -19.0928   24.5088 C   0  0  0  0  0  0  0  0  0  0  0  0
   10.5089  -19.8246   23.7061 O   0  0  0  0  0  0  0  0  0  0  0  0
   10.5578  -18.0123   25.2646 C   0  0  0  0  0  0  0  0  0  0  0  0
    9.5902  -17.2192   26.1112 C   0  0  2  0  0  0  0  0  0  0  0  0
    9.3847  -15.8872   25.5870 N   0  0  0  0  0  0  0  0  0  0  0  0
   10.1176  -17.1692   27.4946 C   0  0  0  0  0  0  0  0  0  0  0  0
   10.0067  -18.2384   28.3511 O   0  0  0  0  0  0  0  0  0  0  0  0
   10.6794  -16.1252   27.8945 O   0  0  0  0  0  0  0  0  0  0  0  0
  2  1  1  1
  3  2  1  0
  4  2  1  0
  4  6  1  0
  4  5  1  6
  6  8  1  0
  6  7  2  0
  8  9  1  0
  9 12  1  0
  9 10  1  1
 11 10  1  0
 12 19  1  0
 12 13  2  0
 15 14  1  0
 15 17  1  0
 16 15  2  0
 18 17  1  6
 18 20  1  0
 19 18  1  0
 20 21  1  0
 22 20  2  0
M  END
$$$$
