TCN.pdb
     RDKit          3D

 22 21  0  0  1  0  0  0  0  0999 V2000
    6.3028  -17.8121   18.6882 C   0  0  0  0  0  0  0  0  0  0  0  0
    7.0840  -17.3647   19.8789 C   0  0  1  0  0  0  0  0  0  0  0  0
    8.0285  -18.3463   20.1772 O   0  0  0  0  0  0  0  0  0  0  0  0
    7.8230  -16.0771   19.6638 C   0  0  2  0  0  0  0  0  0  0  0  0
    8.7439  -16.2435   18.5579 N   0  0  0  0  0  0  0  0  0  0  0  0
    8.6137  -15.6797   20.8637 C   0  0  0  0  0  0  0  0  0  0  0  0
    9.8563  -15.9182   20.9472 O   0  0  0  0  0  0  0  0  0  0  0  0
    8.0408  -15.0156   21.9825 N   0  0  0  0  0  0  0  0  0  0  0  0
    8.7645  -14.7608   23.2038 C   0  0  1  0  0  0  0  0  0  0  0  0
    7.9894  -13.9283   24.1861 C   0  0  0  0  0  0  0  0  0  0  0  0
    6.4398  -14.8054   24.5478 S   0  0  0  0  0  0  0  0  0  0  0  0
    9.0433  -16.0709   23.8597 C   0  0  0  0  0  0  0  0  0  0  0  0
    8.6461  -17.1643   23.3725 O   0  0  0  0  0  0  0  0  0  0  0  0
   12.7684  -19.2703   23.6941 N   0  0  0  0  0  0  0  0  0  0  0  0
   12.9574  -18.0373   24.3573 C   0  0  0  0  0  0  0  0  0  0  0  0
   13.9945  -17.8558   25.0362 O   0  0  0  0  0  0  0  0  0  0  0  0
   11.9169  -16.9921   24.2279 C   0  0  0  0  0  0  0  0  0  0  0  0
   10.8130  -17.1562   25.2460 C   0  0  2  0  0  0  0  0  0  0  0  0
    9.7855  -16.1504   25.0910 N   0  0  0  0  0  0  0  0  0  0  0  0
   11.4159  -17.0944   26.5978 C   0  0  0  0  0  0  0  0  0  0  0  0
   11.8687  -18.2215   27.2411 O   0  0  0  0  0  0  0  0  0  0  0  0
   11.5158  -15.9860   27.1696 O   0  0  0  0  0  0  0  0  0  0  0  0
  2  1  1  6
  3  2  1  0
  4  2  1  0
  4  6  1  0
  4  5  1  6
  6  8  1  0
  6  7  2  0
  8  9  1  0
  9 12  1  0
  9 10  1  1
 11 10  1  0
 12 19  1  0
 12 13  2  0
 15 14  1  0
 15 17  1  0
 16 15  2  0
 18 17  1  6
 18 20  1  0
 19 18  1  0
 20 21  1  0
 22 20  2  0
M  END
$$$$
