TCN.pdb
     RDKit          3D

 22 21  0  0  1  0  0  0  0  0999 V2000
    6.9004  -18.6388   19.9821 C   0  0  0  0  0  0  0  0  0  0  0  0
    7.9928  -18.2146   19.0576 C   0  0  1  0  0  0  0  0  0  0  0  0
    7.6602  -18.6274   17.7678 O   0  0  0  0  0  0  0  0  0  0  0  0
    8.2029  -16.7298   19.0167 C   0  0  2  0  0  0  0  0  0  0  0  0
    9.1947  -16.4238   18.0060 N   0  0  0  0  0  0  0  0  0  0  0  0
    8.6967  -16.1994   20.3197 C   0  0  0  0  0  0  0  0  0  0  0  0
    9.8989  -16.3622   20.6886 O   0  0  0  0  0  0  0  0  0  0  0  0
    7.8687  -15.4844   21.2276 N   0  0  0  0  0  0  0  0  0  0  0  0
    8.3250  -15.0241   22.5159 C   0  0  1  0  0  0  0  0  0  0  0  0
    7.2826  -14.2440   23.2669 C   0  0  0  0  0  0  0  0  0  0  0  0
    7.9918  -13.7858   24.8757 S   0  0  0  0  0  0  0  0  0  0  0  0
    8.6621  -16.2186   23.3427 C   0  0  0  0  0  0  0  0  0  0  0  0
    7.8513  -17.1700   23.5108 O   0  0  0  0  0  0  0  0  0  0  0  0
   12.5857  -18.0236   22.1956 N   0  0  0  0  0  0  0  0  0  0  0  0
   11.6119  -18.5821   23.0532 C   0  0  0  0  0  0  0  0  0  0  0  0
   10.8223  -19.4467   22.6080 O   0  0  0  0  0  0  0  0  0  0  0  0
   11.5553  -18.1245   24.4601 C   0  0  0  0  0  0  0  0  0  0  0  0
   10.2209  -17.5067   24.8064 C   0  0  2  0  0  0  0  0  0  0  0  0
    9.9403  -16.3438   23.9938 N   0  0  0  0  0  0  0  0  0  0  0  0
   10.2312  -17.1577   26.2461 C   0  0  0  0  0  0  0  0  0  0  0  0
    9.9658  -15.8823   26.6841 O   0  0  0  0  0  0  0  0  0  0  0  0
   10.4886  -18.0483   27.0864 O   0  0  0  0  0  0  0  0  0  0  0  0
  2  1  1  1
  3  2  1  0
  4  2  1  0
  4  6  1  0
  4  5  1  6
  6  8  1  0
  6  7  2  0
  8  9  1  0
  9 12  1  0
  9 10  1  1
 11 10  1  0
 12 19  1  0
 12 13  2  0
 15 14  1  0
 15 17  1  0
 16 15  2  0
 18 17  1  6
 18 20  1  0
 19 18  1  0
 20 21  1  0
 22 20  2  0
M  END
$$$$
