TCN.pdb
     RDKit          3D

 22 21  0  0  1  0  0  0  0  0999 V2000
    7.2324  -14.1787   16.6664 C   0  0  0  0  0  0  0  0  0  0  0  0
    7.9737  -14.4055   17.9420 C   0  0  1  0  0  0  0  0  0  0  0  0
    9.3226  -14.5870   17.6384 O   0  0  0  0  0  0  0  0  0  0  0  0
    7.8776  -13.2593   18.9051 C   0  0  2  0  0  0  0  0  0  0  0  0
    8.4481  -12.0790   18.2884 N   0  0  0  0  0  0  0  0  0  0  0  0
    8.6263  -13.5254   20.1666 C   0  0  0  0  0  0  0  0  0  0  0  0
    9.8510  -13.2195   20.2875 O   0  0  0  0  0  0  0  0  0  0  0  0
    8.0309  -14.1314   21.3065 N   0  0  0  0  0  0  0  0  0  0  0  0
    8.7755  -14.4898   22.4884 C   0  0  1  0  0  0  0  0  0  0  0  0
    7.9102  -15.0433   23.5856 C   0  0  0  0  0  0  0  0  0  0  0  0
    6.9737  -13.6590   24.2983 S   0  0  0  0  0  0  0  0  0  0  0  0
    9.7511  -15.5549   22.1169 C   0  0  0  0  0  0  0  0  0  0  0  0
    9.6362  -16.2320   21.0590 O   0  0  0  0  0  0  0  0  0  0  0  0
   14.1126  -17.0202   20.3789 N   0  0  0  0  0  0  0  0  0  0  0  0
   13.9616  -15.6810   20.8030 C   0  0  0  0  0  0  0  0  0  0  0  0
   14.9161  -14.8810   20.6680 O   0  0  0  0  0  0  0  0  0  0  0  0
   12.6716  -15.2633   21.3972 C   0  0  0  0  0  0  0  0  0  0  0  0
   12.1233  -16.2948   22.3551 C   0  0  2  0  0  0  0  0  0  0  0  0
   10.8803  -15.8635   22.9553 N   0  0  0  0  0  0  0  0  0  0  0  0
   13.1493  -16.5575   23.3908 C   0  0  0  0  0  0  0  0  0  0  0  0
   14.2623  -17.3209   23.1306 O   0  0  0  0  0  0  0  0  0  0  0  0
   12.9988  -16.0712   24.5338 O   0  0  0  0  0  0  0  0  0  0  0  0
  2  1  1  6
  3  2  1  0
  4  2  1  0
  4  6  1  0
  4  5  1  6
  6  8  1  0
  6  7  2  0
  8  9  1  0
  9 12  1  0
  9 10  1  1
 11 10  1  0
 12 19  1  0
 12 13  2  0
 15 14  1  0
 15 17  1  0
 16 15  2  0
 18 17  1  6
 18 20  1  0
 19 18  1  0
 20 21  1  0
 22 20  2  0
M  END
$$$$
