TCN.pdb
     RDKit          3D

 22 21  0  0  1  0  0  0  0  0999 V2000
    7.0139  -17.3229   23.5970 C   0  0  0  0  0  0  0  0  0  0  0  0
    7.5135  -16.7349   22.3192 C   0  0  1  0  0  0  0  0  0  0  0  0
    7.0735  -17.5366   21.2665 O   0  0  0  0  0  0  0  0  0  0  0  0
    7.0180  -15.3421   22.0642 C   0  0  2  0  0  0  0  0  0  0  0  0
    7.2844  -14.9947   20.6832 N   0  0  0  0  0  0  0  0  0  0  0  0
    7.7012  -14.3389   22.9299 C   0  0  0  0  0  0  0  0  0  0  0  0
    8.8362  -13.8632   22.6241 O   0  0  0  0  0  0  0  0  0  0  0  0
    7.1386  -13.8511   24.1409 N   0  0  0  0  0  0  0  0  0  0  0  0
    7.8044  -12.8947   24.9907 C   0  0  1  0  0  0  0  0  0  0  0  0
    6.8612  -12.1509   25.8939 C   0  0  0  0  0  0  0  0  0  0  0  0
    5.8477  -13.3824   26.7644 S   0  0  0  0  0  0  0  0  0  0  0  0
    8.7588  -13.6361   25.8646 C   0  0  0  0  0  0  0  0  0  0  0  0
    9.4469  -13.0585   26.7499 O   0  0  0  0  0  0  0  0  0  0  0  0
   10.2600  -13.9188   29.2090 N   0  0  0  0  0  0  0  0  0  0  0  0
   10.0493  -15.3124   29.1115 C   0  0  0  0  0  0  0  0  0  0  0  0
   10.6265  -16.0802   29.9156 O   0  0  0  0  0  0  0  0  0  0  0  0
    9.1472  -15.8241   28.0551 C   0  0  0  0  0  0  0  0  0  0  0  0
    9.7793  -15.7617   26.6845 C   0  0  2  0  0  0  0  0  0  0  0  0
    8.9417  -15.0588   25.7381 N   0  0  0  0  0  0  0  0  0  0  0  0
   10.0434  -17.1473   26.2320 C   0  0  0  0  0  0  0  0  0  0  0  0
   10.9622  -17.9523   26.8621 O   0  0  0  0  0  0  0  0  0  0  0  0
    9.4129  -17.5973   25.2494 O   0  0  0  0  0  0  0  0  0  0  0  0
  2  1  1  1
  3  2  1  0
  4  2  1  0
  4  6  1  0
  4  5  1  6
  6  8  1  0
  6  7  2  0
  8  9  1  0
  9 12  1  0
  9 10  1  1
 11 10  1  0
 12 19  1  0
 12 13  2  0
 15 14  1  0
 15 17  1  0
 16 15  2  0
 18 17  1  1
 18 20  1  0
 19 18  1  0
 20 21  1  0
 22 20  2  0
M  END
$$$$
