TCN.pdb
     RDKit          3D

 22 21  0  0  1  0  0  0  0  0999 V2000
    7.6244  -12.9161   20.5584 C   0  0  0  0  0  0  0  0  0  0  0  0
    8.0957  -14.2662   20.1301 C   0  0  1  0  0  0  0  0  0  0  0  0
    9.4577  -14.1840   19.8429 O   0  0  0  0  0  0  0  0  0  0  0  0
    7.9179  -15.3251   21.1777 C   0  0  2  0  0  0  0  0  0  0  0  0
    6.5015  -15.5524   21.3798 N   0  0  0  0  0  0  0  0  0  0  0  0
    8.5092  -14.9218   22.4857 C   0  0  0  0  0  0  0  0  0  0  0  0
    9.7584  -14.7547   22.6248 O   0  0  0  0  0  0  0  0  0  0  0  0
    7.7276  -14.6991   23.6521 N   0  0  0  0  0  0  0  0  0  0  0  0
    8.2747  -14.1761   24.8799 C   0  0  1  0  0  0  0  0  0  0  0  0
    7.2866  -13.3608   25.6659 C   0  0  0  0  0  0  0  0  0  0  0  0
    8.1597  -12.6770   27.1052 S   0  0  0  0  0  0  0  0  0  0  0  0
    8.6759  -15.3288   25.7370 C   0  0  0  0  0  0  0  0  0  0  0  0
    7.8805  -16.2667   26.0172 O   0  0  0  0  0  0  0  0  0  0  0  0
   10.8599  -18.6085   24.8213 N   0  0  0  0  0  0  0  0  0  0  0  0
   11.6471  -17.5291   25.2805 C   0  0  0  0  0  0  0  0  0  0  0  0
   12.3358  -16.8772   24.4619 O   0  0  0  0  0  0  0  0  0  0  0  0
   11.6330  -17.2006   26.7239 C   0  0  0  0  0  0  0  0  0  0  0  0
   10.3415  -16.5409   27.1469 C   0  0  2  0  0  0  0  0  0  0  0  0
   10.0017  -15.4266   26.2901 N   0  0  0  0  0  0  0  0  0  0  0  0
   10.4839  -16.1031   28.5549 C   0  0  0  0  0  0  0  0  0  0  0  0
   10.7128  -16.9985   29.5723 O   0  0  0  0  0  0  0  0  0  0  0  0
   10.3934  -14.8849   28.8256 O   0  0  0  0  0  0  0  0  0  0  0  0
  2  1  1  1
  3  2  1  0
  4  2  1  0
  4  6  1  0
  4  5  1  1
  6  8  1  0
  6  7  2  0
  8  9  1  0
  9 12  1  0
  9 10  1  1
 11 10  1  0
 12 19  1  0
 12 13  2  0
 15 14  1  0
 15 17  1  0
 16 15  2  0
 18 17  1  6
 18 20  1  0
 19 18  1  0
 20 21  1  0
 22 20  2  0
M  END
$$$$
