TCN.pdb
     RDKit          3D

 22 21  0  0  1  0  0  0  0  0999 V2000
    8.7684  -19.6024   19.3834 C   0  0  0  0  0  0  0  0  0  0  0  0
    9.1127  -18.9265   18.0978 C   0  0  1  0  0  0  0  0  0  0  0  0
    8.6138  -19.6988   17.0494 O   0  0  0  0  0  0  0  0  0  0  0  0
    8.5262  -17.5521   17.9654 C   0  0  2  0  0  0  0  0  0  0  0  0
    8.8745  -17.0164   16.6652 N   0  0  0  0  0  0  0  0  0  0  0  0
    9.0516  -16.6183   19.0022 C   0  0  0  0  0  0  0  0  0  0  0  0
   10.2048  -16.1003   18.9042 O   0  0  0  0  0  0  0  0  0  0  0  0
    8.3095  -16.2475   20.1567 N   0  0  0  0  0  0  0  0  0  0  0  0
    8.8095  -15.3360   21.1564 C   0  0  1  0  0  0  0  0  0  0  0  0
    7.7202  -14.7084   21.9801 C   0  0  0  0  0  0  0  0  0  0  0  0
    6.6301  -16.0423   22.5580 S   0  0  0  0  0  0  0  0  0  0  0  0
    9.6811  -16.1050   22.0908 C   0  0  0  0  0  0  0  0  0  0  0  0
    9.5304  -17.3419   22.2860 O   0  0  0  0  0  0  0  0  0  0  0  0
   13.5468  -17.6914   24.9836 N   0  0  0  0  0  0  0  0  0  0  0  0
   14.0407  -16.5917   24.2469 C   0  0  0  0  0  0  0  0  0  0  0  0
   15.2702  -16.3518   24.2484 O   0  0  0  0  0  0  0  0  0  0  0  0
   13.0829  -15.7525   23.4919 C   0  0  0  0  0  0  0  0  0  0  0  0
   11.6669  -16.2684   23.5947 C   0  0  2  0  0  0  0  0  0  0  0  0
   10.7454  -15.4664   22.8207 N   0  0  0  0  0  0  0  0  0  0  0  0
   11.2824  -16.2860   25.0252 C   0  0  0  0  0  0  0  0  0  0  0  0
   10.2254  -15.5470   25.5002 O   0  0  0  0  0  0  0  0  0  0  0  0
   11.9377  -16.9929   25.8229 O   0  0  0  0  0  0  0  0  0  0  0  0
  2  1  1  1
  3  2  1  0
  4  2  1  0
  4  6  1  0
  4  5  1  6
  6  8  1  0
  6  7  2  0
  8  9  1  0
  9 12  1  0
  9 10  1  1
 11 10  1  0
 12 19  1  0
 12 13  2  0
 15 14  1  0
 15 17  1  0
 16 15  2  0
 18 17  1  1
 18 20  1  0
 19 18  1  0
 20 21  1  0
 22 20  2  0
M  END
$$$$
