TCN.pdb
     RDKit          3D

 22 21  0  0  1  0  0  0  0  0999 V2000
    6.0431  -19.9038   19.0178 C   0  0  0  0  0  0  0  0  0  0  0  0
    6.9802  -18.8868   19.5798 C   0  0  1  0  0  0  0  0  0  0  0  0
    8.1353  -19.5427   20.0043 O   0  0  0  0  0  0  0  0  0  0  0  0
    7.3938  -17.8386   18.5896 C   0  0  2  0  0  0  0  0  0  0  0  0
    8.1435  -18.4703   17.5229 N   0  0  0  0  0  0  0  0  0  0  0  0
    8.2641  -16.7981   19.2084 C   0  0  0  0  0  0  0  0  0  0  0  0
    9.5250  -16.9269   19.2483 O   0  0  0  0  0  0  0  0  0  0  0  0
    7.7514  -15.6059   19.7888 N   0  0  0  0  0  0  0  0  0  0  0  0
    8.5907  -14.5904   20.3756 C   0  0  1  0  0  0  0  0  0  0  0  0
    7.9032  -13.2603   20.5071 C   0  0  0  0  0  0  0  0  0  0  0  0
    7.5819  -12.6394   18.8300 S   0  0  0  0  0  0  0  0  0  0  0  0
    8.9615  -15.0326   21.7508 C   0  0  0  0  0  0  0  0  0  0  0  0
    8.0947  -15.3097   22.6241 O   0  0  0  0  0  0  0  0  0  0  0  0
   11.5337  -19.5368   23.5306 N   0  0  0  0  0  0  0  0  0  0  0  0
   10.7105  -18.4596   23.9277 C   0  0  0  0  0  0  0  0  0  0  0  0
   10.3853  -18.3445   25.1320 O   0  0  0  0  0  0  0  0  0  0  0  0
   10.2555  -17.4948   22.9011 C   0  0  0  0  0  0  0  0  0  0  0  0
   10.6928  -16.0825   23.2110 C   0  0  2  0  0  0  0  0  0  0  0  0
   10.3385  -15.1655   22.1503 N   0  0  0  0  0  0  0  0  0  0  0  0
   12.1565  -16.0897   23.4389 C   0  0  0  0  0  0  0  0  0  0  0  0
   13.0335  -15.5459   22.5310 O   0  0  0  0  0  0  0  0  0  0  0  0
   12.6069  -16.6048   24.4864 O   0  0  0  0  0  0  0  0  0  0  0  0
  2  1  1  6
  3  2  1  0
  4  2  1  0
  4  6  1  0
  4  5  1  6
  6  8  1  0
  6  7  2  0
  8  9  1  0
  9 12  1  0
  9 10  1  1
 11 10  1  0
 12 19  1  0
 12 13  2  0
 15 14  1  0
 15 17  1  0
 16 15  2  0
 18 17  1  6
 18 20  1  0
 19 18  1  0
 20 21  1  0
 22 20  2  0
M  END
$$$$
