TCN.pdb
     RDKit          3D

 22 21  0  0  1  0  0  0  0  0999 V2000
    8.3189  -16.5138   17.8599 C   0  0  0  0  0  0  0  0  0  0  0  0
    8.4261  -15.1089   17.3669 C   0  0  1  0  0  0  0  0  0  0  0  0
    7.8194  -15.0370   16.1134 O   0  0  0  0  0  0  0  0  0  0  0  0
    7.7491  -14.1070   18.2547 C   0  0  2  0  0  0  0  0  0  0  0  0
    7.7132  -12.8274   17.5764 N   0  0  0  0  0  0  0  0  0  0  0  0
    8.4748  -13.9228   19.5440 C   0  0  0  0  0  0  0  0  0  0  0  0
    9.6455  -13.4370   19.5820 O   0  0  0  0  0  0  0  0  0  0  0  0
    7.9156  -14.2728   20.8034 N   0  0  0  0  0  0  0  0  0  0  0  0
    8.6608  -14.2266   22.0373 C   0  0  1  0  0  0  0  0  0  0  0  0
    7.7821  -14.1723   23.2555 C   0  0  0  0  0  0  0  0  0  0  0  0
    6.5360  -15.4847   23.0934 S   0  0  0  0  0  0  0  0  0  0  0  0
    9.4735  -15.4733   22.1353 C   0  0  0  0  0  0  0  0  0  0  0  0
    9.1593  -16.5301   21.5229 O   0  0  0  0  0  0  0  0  0  0  0  0
   13.8606  -18.6561   21.9145 N   0  0  0  0  0  0  0  0  0  0  0  0
   13.7032  -17.7461   22.9836 C   0  0  0  0  0  0  0  0  0  0  0  0
   14.2455  -17.9913   24.0859 O   0  0  0  0  0  0  0  0  0  0  0  0
   12.8969  -16.5237   22.7656 C   0  0  0  0  0  0  0  0  0  0  0  0
   11.4253  -16.7586   23.0128 C   0  0  2  0  0  0  0  0  0  0  0  0
   10.6657  -15.5301   22.9407 N   0  0  0  0  0  0  0  0  0  0  0  0
   11.2743  -17.3983   24.3404 C   0  0  0  0  0  0  0  0  0  0  0  0
   11.4112  -18.7553   24.5103 O   0  0  0  0  0  0  0  0  0  0  0  0
   11.0152  -16.6839   25.3343 O   0  0  0  0  0  0  0  0  0  0  0  0
  2  1  1  1
  3  2  1  0
  4  2  1  0
  4  6  1  0
  4  5  1  6
  6  8  1  0
  6  7  2  0
  8  9  1  0
  9 12  1  0
  9 10  1  1
 11 10  1  0
 12 19  1  0
 12 13  2  0
 15 14  1  0
 15 17  1  0
 16 15  2  0
 18 17  1  1
 18 20  1  0
 19 18  1  0
 20 21  1  0
 22 20  2  0
M  END
$$$$
