TCN.pdb
     RDKit          3D

 22 21  0  0  1  0  0  0  0  0999 V2000
    9.1811  -20.0487   19.8865 C   0  0  0  0  0  0  0  0  0  0  0  0
    9.5364  -19.2348   18.6867 C   0  0  1  0  0  0  0  0  0  0  0  0
    9.1785  -19.9547   17.5473 O   0  0  0  0  0  0  0  0  0  0  0  0
    8.8298  -17.9128   18.6264 C   0  0  2  0  0  0  0  0  0  0  0  0
    9.1448  -17.2693   17.3672 N   0  0  0  0  0  0  0  0  0  0  0  0
    9.2553  -17.0013   19.7268 C   0  0  0  0  0  0  0  0  0  0  0  0
   10.4556  -16.6065   19.8335 O   0  0  0  0  0  0  0  0  0  0  0  0
    8.3605  -16.5169   20.7197 N   0  0  0  0  0  0  0  0  0  0  0  0
    8.7647  -15.6232   21.7770 C   0  0  1  0  0  0  0  0  0  0  0  0
    7.6032  -15.0107   22.5081 C   0  0  0  0  0  0  0  0  0  0  0  0
    6.5234  -14.2329   21.2710 S   0  0  0  0  0  0  0  0  0  0  0  0
    9.5484  -16.4083   22.7738 C   0  0  0  0  0  0  0  0  0  0  0  0
    9.1832  -17.5497   23.1672 O   0  0  0  0  0  0  0  0  0  0  0  0
   13.2195  -17.2536   22.0642 N   0  0  0  0  0  0  0  0  0  0  0  0
   13.6898  -16.3408   23.0345 C   0  0  0  0  0  0  0  0  0  0  0  0
   14.6905  -15.6318   22.7790 O   0  0  0  0  0  0  0  0  0  0  0  0
   12.9804  -16.2508   24.3308 C   0  0  0  0  0  0  0  0  0  0  0  0
   11.5493  -16.7243   24.2327 C   0  0  2  0  0  0  0  0  0  0  0  0
   10.7695  -15.8963   23.3395 N   0  0  0  0  0  0  0  0  0  0  0  0
   10.9677  -16.7284   25.5951 C   0  0  0  0  0  0  0  0  0  0  0  0
   11.4479  -17.5521   26.5851 O   0  0  0  0  0  0  0  0  0  0  0  0
   10.0134  -15.9610   25.8519 O   0  0  0  0  0  0  0  0  0  0  0  0
  2  1  1  1
  3  2  1  0
  4  2  1  0
  4  6  1  0
  4  5  1  6
  6  8  1  0
  6  7  2  0
  8  9  1  0
  9 12  1  0
  9 10  1  1
 11 10  1  0
 12 19  1  0
 12 13  2  0
 15 14  1  0
 15 17  1  0
 16 15  2  0
 18 17  1  1
 18 20  1  0
 19 18  1  0
 20 21  1  0
 22 20  2  0
M  END
$$$$
