TCN.pdb
     RDKit          3D

 22 21  0  0  1  0  0  0  0  0999 V2000
    9.5819  -19.5433   19.3887 C   0  0  0  0  0  0  0  0  0  0  0  0
    9.5804  -18.6519   18.1913 C   0  0  1  0  0  0  0  0  0  0  0  0
    9.0099  -19.3491   17.1269 O   0  0  0  0  0  0  0  0  0  0  0  0
    8.7898  -17.3913   18.3813 C   0  0  2  0  0  0  0  0  0  0  0  0
    8.7484  -16.6695   17.1259 N   0  0  0  0  0  0  0  0  0  0  0  0
    9.4021  -16.4969   19.4050 C   0  0  0  0  0  0  0  0  0  0  0  0
   10.5657  -16.0161   19.2541 O   0  0  0  0  0  0  0  0  0  0  0  0
    8.7362  -16.1246   20.6047 N   0  0  0  0  0  0  0  0  0  0  0  0
    9.3468  -15.3081   21.6247 C   0  0  1  0  0  0  0  0  0  0  0  0
    8.3446  -14.5840   22.4792 C   0  0  0  0  0  0  0  0  0  0  0  0
    7.0173  -15.7570   22.8833 S   0  0  0  0  0  0  0  0  0  0  0  0
   10.1310  -16.2009   22.5259 C   0  0  0  0  0  0  0  0  0  0  0  0
    9.7969  -17.3976   22.7430 O   0  0  0  0  0  0  0  0  0  0  0  0
   14.6463  -14.8427   22.3284 N   0  0  0  0  0  0  0  0  0  0  0  0
   14.1129  -16.1011   22.6858 C   0  0  0  0  0  0  0  0  0  0  0  0
   14.1276  -17.0356   21.8516 O   0  0  0  0  0  0  0  0  0  0  0  0
   13.5499  -16.2763   24.0438 C   0  0  0  0  0  0  0  0  0  0  0  0
   12.0864  -16.6492   24.0115 C   0  0  2  0  0  0  0  0  0  0  0  0
   11.3170  -15.7352   23.1967 N   0  0  0  0  0  0  0  0  0  0  0  0
   11.5825  -16.6707   25.4044 C   0  0  0  0  0  0  0  0  0  0  0  0
   10.5400  -15.8720   25.8099 O   0  0  0  0  0  0  0  0  0  0  0  0
   12.1206  -17.4367   26.2346 O   0  0  0  0  0  0  0  0  0  0  0  0
  2  1  1  1
  3  2  1  0
  4  2  1  0
  4  6  1  0
  4  5  1  6
  6  8  1  0
  6  7  2  0
  8  9  1  0
  9 12  1  0
  9 10  1  1
 11 10  1  0
 12 19  1  0
 12 13  2  0
 15 14  1  0
 15 17  1  0
 16 15  2  0
 18 17  1  1
 18 20  1  0
 19 18  1  0
 20 21  1  0
 22 20  2  0
M  END
$$$$
