TCN.pdb
     RDKit          3D

 22 21  0  0  1  0  0  0  0  0999 V2000
    5.7241  -17.8728   20.6044 C   0  0  0  0  0  0  0  0  0  0  0  0
    6.5556  -17.1324   21.5986 C   0  0  1  0  0  0  0  0  0  0  0  0
    7.8179  -17.7234   21.6407 O   0  0  0  0  0  0  0  0  0  0  0  0
    6.7464  -15.6829   21.2622 C   0  0  2  0  0  0  0  0  0  0  0  0
    7.3330  -15.5809   19.9415 N   0  0  0  0  0  0  0  0  0  0  0  0
    7.6596  -15.0017   22.2239 C   0  0  0  0  0  0  0  0  0  0  0  0
    8.8388  -14.6699   21.8964 O   0  0  0  0  0  0  0  0  0  0  0  0
    7.2803  -14.6803   23.5558 N   0  0  0  0  0  0  0  0  0  0  0  0
    8.1051  -13.8985   24.4437 C   0  0  1  0  0  0  0  0  0  0  0  0
    7.3121  -13.1400   25.4708 C   0  0  0  0  0  0  0  0  0  0  0  0
    5.9033  -14.1800   25.9555 S   0  0  0  0  0  0  0  0  0  0  0  0
    9.0050  -14.8308   25.1821 C   0  0  0  0  0  0  0  0  0  0  0  0
    9.8594  -14.4215   26.0147 O   0  0  0  0  0  0  0  0  0  0  0  0
   11.4004  -17.5751   23.0321 N   0  0  0  0  0  0  0  0  0  0  0  0
   12.0515  -16.7060   23.9358 C   0  0  0  0  0  0  0  0  0  0  0  0
   13.1789  -16.2450   23.6429 O   0  0  0  0  0  0  0  0  0  0  0  0
   11.3760  -16.3655   25.2084 C   0  0  0  0  0  0  0  0  0  0  0  0
   10.0580  -17.0866   25.3661 C   0  0  2  0  0  0  0  0  0  0  0  0
    8.9406  -16.2547   24.9779 N   0  0  0  0  0  0  0  0  0  0  0  0
    9.9320  -17.5191   26.7774 C   0  0  0  0  0  0  0  0  0  0  0  0
    8.9145  -17.0696   27.5846 O   0  0  0  0  0  0  0  0  0  0  0  0
   10.7749  -18.3154   27.2475 O   0  0  0  0  0  0  0  0  0  0  0  0
  2  1  1  6
  3  2  1  0
  4  2  1  0
  4  6  1  0
  4  5  1  6
  6  8  1  0
  6  7  2  0
  8  9  1  0
  9 12  1  0
  9 10  1  1
 11 10  1  0
 12 19  1  0
 12 13  2  0
 15 14  1  0
 15 17  1  0
 16 15  2  0
 18 17  1  1
 18 20  1  0
 19 18  1  0
 20 21  1  0
 22 20  2  0
M  END
$$$$
