MGF.pdb
     RDKit          3D

 24 24  0  0  1  0  0  0  0  0999 V2000
    8.8058  -13.3066   17.3237 C   0  0  0  0  0  0  0  0  0  0  0  0
    8.5880  -12.3550   18.8447 S   0  0  0  0  0  0  0  0  0  0  0  0
    7.6598  -13.2940   20.0996 C   0  0  0  0  0  0  0  0  0  0  0  0
    7.5023  -14.7004   19.6063 C   0  0  0  0  0  0  0  0  0  0  0  0
    6.8135  -15.5715   20.6269 C   0  0  2  0  0  0  0  0  0  0  0  0
    6.1245  -14.6003   21.5174 N   0  0  0  0  0  0  0  0  0  0  0  0
    7.7053  -16.3619   21.4732 C   0  0  0  0  0  0  0  0  0  0  0  0
    8.0920  -17.5009   21.0189 O   0  0  0  0  0  0  0  0  0  0  0  0
    8.1797  -15.9761   22.7494 N   0  0  0  0  0  0  0  0  0  0  0  0
    9.0262  -16.8672   23.4867 C   0  0  0  0  0  0  0  0  0  0  0  0
    9.6001  -16.2471   24.7007 C   0  0  0  0  0  0  0  0  0  0  0  0
   10.5360  -15.4095   24.5704 O   0  0  0  0  0  0  0  0  0  0  0  0
    9.1416  -16.5552   26.0076 N   0  0  0  0  0  0  0  0  0  0  0  0
    9.7198  -15.9460   27.2043 C   0  0  1  0  0  0  0  0  0  0  0  0
    8.6877  -15.1769   27.9726 C   0  0  0  0  0  0  0  0  0  0  0  0
    8.0214  -14.1204   27.1833 C   0  0  0  0  0  0  0  0  0  0  0  0
    8.6344  -12.8855   26.9486 C   0  0  0  0  0  0  0  0  0  0  0  0
    8.0315  -11.8943   26.2032 C   0  0  0  0  0  0  0  0  0  0  0  0
    6.7824  -12.0924   25.6557 C   0  0  0  0  0  0  0  0  0  0  0  0
    6.1689  -13.3034   25.8797 C   0  0  0  0  0  0  0  0  0  0  0  0
    6.7739  -14.3056   26.6309 C   0  0  0  0  0  0  0  0  0  0  0  0
   10.4422  -16.9443   28.0133 C   0  0  0  0  0  0  0  0  0  0  0  0
   11.2357  -16.5650   29.0838 O   0  0  0  0  0  0  0  0  0  0  0  0
   10.3390  -18.1555   27.7304 O   0  0  0  0  0  0  0  0  0  0  0  0
  2  3  1  0
  2  1  1  0
  4  3  1  0
  4  5  1  0
  5  6  1  1
  7  5  1  0
  7  9  1  0
  8  7  2  0
 10  9  1  0
 10 11  1  0
 11 12  2  0
 11 13  1  0
 13 14  1  0
 14 15  1  1
 14 22  1  0
 15 16  1  0
 16 17  2  0
 17 18  1  0
 19 18  2  0
 20 19  1  0
 21 20  2  0
 21 16  1  0
 22 23  1  0
 24 22  2  0
M  END
$$$$
