MGF.pdb
     RDKit          3D

 24 24  0  0  1  0  0  0  0  0999 V2000
    8.3196  -11.2893   18.7683 C   0  0  0  0  0  0  0  0  0  0  0  0
    8.0329  -12.7134   19.8436 S   0  0  0  0  0  0  0  0  0  0  0  0
    6.7788  -13.8385   19.1513 C   0  0  0  0  0  0  0  0  0  0  0  0
    6.4467  -14.8630   20.1933 C   0  0  0  0  0  0  0  0  0  0  0  0
    7.6733  -15.2924   20.9588 C   0  0  2  0  0  0  0  0  0  0  0  0
    8.2385  -16.3950   20.1366 N   0  0  0  0  0  0  0  0  0  0  0  0
    7.4156  -15.8450   22.2871 C   0  0  0  0  0  0  0  0  0  0  0  0
    7.0131  -15.0295   23.1961 O   0  0  0  0  0  0  0  0  0  0  0  0
    7.5705  -17.2029   22.6543 N   0  0  0  0  0  0  0  0  0  0  0  0
    7.3601  -17.5938   24.0170 C   0  0  0  0  0  0  0  0  0  0  0  0
    8.3946  -17.0694   24.9350 C   0  0  0  0  0  0  0  0  0  0  0  0
    9.4711  -16.6255   24.4468 O   0  0  0  0  0  0  0  0  0  0  0  0
    8.2268  -17.0448   26.3436 N   0  0  0  0  0  0  0  0  0  0  0  0
    9.2050  -16.4281   27.2382 C   0  0  1  0  0  0  0  0  0  0  0  0
    8.5603  -15.4019   28.1202 C   0  0  0  0  0  0  0  0  0  0  0  0
    7.9956  -14.2523   27.3834 C   0  0  0  0  0  0  0  0  0  0  0  0
    6.6583  -14.2305   26.9746 C   0  0  0  0  0  0  0  0  0  0  0  0
    6.1129  -13.1598   26.2980 C   0  0  0  0  0  0  0  0  0  0  0  0
    6.8823  -12.0568   25.9972 C   0  0  0  0  0  0  0  0  0  0  0  0
    8.1997  -12.0664   26.3941 C   0  0  0  0  0  0  0  0  0  0  0  0
    8.7534  -13.1444   27.0768 C   0  0  0  0  0  0  0  0  0  0  0  0
    9.9702  -17.4500   27.9753 C   0  0  0  0  0  0  0  0  0  0  0  0
   11.1687  -17.1413   28.5980 O   0  0  0  0  0  0  0  0  0  0  0  0
    9.5322  -18.6168   28.0411 O   0  0  0  0  0  0  0  0  0  0  0  0
  2  3  1  0
  2  1  1  0
  4  3  1  0
  4  5  1  0
  5  6  1  6
  7  5  1  0
  7  9  1  0
  8  7  2  0
 10  9  1  0
 10 11  1  0
 11 12  2  0
 11 13  1  0
 13 14  1  0
 14 15  1  1
 14 22  1  0
 15 16  1  0
 16 17  2  0
 17 18  1  0
 19 18  2  0
 20 19  1  0
 21 20  2  0
 21 16  1  0
 22 23  1  0
 24 22  2  0
M  END
$$$$
