MGF.pdb
     RDKit          3D

 24 24  0  0  1  0  0  0  0  0999 V2000
    8.6087  -12.0213   18.9304 C   0  0  0  0  0  0  0  0  0  0  0  0
    7.2996  -13.0171   19.6794 S   0  0  0  0  0  0  0  0  0  0  0  0
    7.7569  -14.7783   19.7622 C   0  0  0  0  0  0  0  0  0  0  0  0
    8.6126  -15.0934   18.5730 C   0  0  0  0  0  0  0  0  0  0  0  0
    9.1166  -16.5144   18.6140 C   0  0  2  0  0  0  0  0  0  0  0  0
    7.8915  -17.3328   18.4125 N   0  0  0  0  0  0  0  0  0  0  0  0
    9.6985  -16.9313   19.8883 C   0  0  0  0  0  0  0  0  0  0  0  0
   10.8810  -16.5072   20.1624 O   0  0  0  0  0  0  0  0  0  0  0  0
    9.0672  -17.7609   20.8454 N   0  0  0  0  0  0  0  0  0  0  0  0
    9.7328  -18.0433   22.0829 C   0  0  0  0  0  0  0  0  0  0  0  0
    9.6682  -16.9202   23.0433 C   0  0  0  0  0  0  0  0  0  0  0  0
   10.1833  -15.8138   22.7194 O   0  0  0  0  0  0  0  0  0  0  0  0
    9.0504  -17.0352   24.3153 N   0  0  0  0  0  0  0  0  0  0  0  0
    8.8509  -15.8852   25.1959 C   0  0  1  0  0  0  0  0  0  0  0  0
    7.6575  -15.0819   24.7749 C   0  0  0  0  0  0  0  0  0  0  0  0
    7.3492  -13.9538   25.6781 C   0  0  0  0  0  0  0  0  0  0  0  0
    6.1048  -13.8376   26.3057 C   0  0  0  0  0  0  0  0  0  0  0  0
    5.8062  -12.7983   27.1614 C   0  0  0  0  0  0  0  0  0  0  0  0
    6.7416  -11.8227   27.4304 C   0  0  0  0  0  0  0  0  0  0  0  0
    7.9698  -11.9260   26.8188 C   0  0  0  0  0  0  0  0  0  0  0  0
    8.2747  -12.9729   25.9552 C   0  0  0  0  0  0  0  0  0  0  0  0
    8.8215  -16.2976   26.6109 C   0  0  0  0  0  0  0  0  0  0  0  0
    8.5279  -17.6018   26.9743 O   0  0  0  0  0  0  0  0  0  0  0  0
    9.0654  -15.4572   27.5009 O   0  0  0  0  0  0  0  0  0  0  0  0
  2  3  1  0
  2  1  1  0
  4  3  1  0
  4  5  1  0
  5  6  1  1
  7  5  1  0
  7  9  1  0
  8  7  2  0
 10  9  1  0
 10 11  1  0
 11 12  2  0
 11 13  1  0
 13 14  1  0
 14 15  1  6
 14 22  1  0
 15 16  1  0
 16 17  2  0
 17 18  1  0
 19 18  2  0
 20 19  1  0
 21 20  2  0
 21 16  1  0
 22 23  1  0
 24 22  2  0
M  END
$$$$
