MGF.pdb
     RDKit          3D

 24 24  0  0  1  0  0  0  0  0999 V2000
    4.7179  -12.2808   25.8757 C   0  0  0  0  0  0  0  0  0  0  0  0
    6.2487  -12.6949   25.0088 S   0  0  0  0  0  0  0  0  0  0  0  0
    5.9298  -13.6897   23.5167 C   0  0  0  0  0  0  0  0  0  0  0  0
    7.2389  -13.9272   22.8270 C   0  0  0  0  0  0  0  0  0  0  0  0
    7.6245  -15.3850   22.8572 C   0  0  2  0  0  0  0  0  0  0  0  0
    7.4161  -15.7793   24.2758 N   0  0  0  0  0  0  0  0  0  0  0  0
    9.0239  -15.6648   22.5420 C   0  0  0  0  0  0  0  0  0  0  0  0
    9.2583  -16.4772   21.5733 O   0  0  0  0  0  0  0  0  0  0  0  0
   10.1414  -15.1140   23.2132 N   0  0  0  0  0  0  0  0  0  0  0  0
   11.4081  -15.7806   23.1394 C   0  0  0  0  0  0  0  0  0  0  0  0
   11.7655  -16.4826   24.3913 C   0  0  0  0  0  0  0  0  0  0  0  0
   12.9863  -16.6516   24.6656 O   0  0  0  0  0  0  0  0  0  0  0  0
   10.7914  -16.9746   25.2980 N   0  0  0  0  0  0  0  0  0  0  0  0
   11.1488  -17.7310   26.4971 C   0  0  1  0  0  0  0  0  0  0  0  0
   10.3219  -17.3046   27.6724 C   0  0  0  0  0  0  0  0  0  0  0  0
   10.4932  -15.8832   28.0378 C   0  0  0  0  0  0  0  0  0  0  0  0
    9.5469  -14.9169   27.6820 C   0  0  0  0  0  0  0  0  0  0  0  0
    9.6855  -13.5889   28.0268 C   0  0  0  0  0  0  0  0  0  0  0  0
   10.7814  -13.1635   28.7460 C   0  0  0  0  0  0  0  0  0  0  0  0
   11.7196  -14.1049   29.1019 C   0  0  0  0  0  0  0  0  0  0  0  0
   11.5831  -15.4453   28.7561 C   0  0  0  0  0  0  0  0  0  0  0  0
   11.1144  -19.1822   26.2405 C   0  0  0  0  0  0  0  0  0  0  0  0
   10.6535  -19.6893   25.0364 O   0  0  0  0  0  0  0  0  0  0  0  0
   11.5074  -19.9718   27.1237 O   0  0  0  0  0  0  0  0  0  0  0  0
  2  3  1  0
  2  1  1  0
  4  3  1  0
  4  5  1  0
  5  6  1  1
  7  5  1  0
  7  9  1  0
  8  7  2  0
 10  9  1  0
 10 11  1  0
 11 12  2  0
 11 13  1  0
 13 14  1  0
 14 15  1  1
 14 22  1  0
 15 16  1  0
 16 17  2  0
 17 18  1  0
 19 18  2  0
 20 19  1  0
 21 20  2  0
 21 16  1  0
 22 23  1  0
 24 22  2  0
M  END
$$$$
