MGF.pdb
     RDKit          3D

 24 24  0  0  1  0  0  0  0  0999 V2000
    7.5557  -11.5281   20.5526 C   0  0  0  0  0  0  0  0  0  0  0  0
    6.8195  -12.8911   19.6217 S   0  0  0  0  0  0  0  0  0  0  0  0
    6.7603  -14.4235   20.6046 C   0  0  0  0  0  0  0  0  0  0  0  0
    8.1662  -14.8067   20.9545 C   0  0  0  0  0  0  0  0  0  0  0  0
    8.2105  -16.0942   21.7389 C   0  0  2  0  0  0  0  0  0  0  0  0
    7.3761  -15.8107   22.9366 N   0  0  0  0  0  0  0  0  0  0  0  0
    9.5331  -16.4798   22.2270 C   0  0  0  0  0  0  0  0  0  0  0  0
   10.0433  -17.5611   21.7537 O   0  0  0  0  0  0  0  0  0  0  0  0
   10.2989  -15.7605   23.1751 N   0  0  0  0  0  0  0  0  0  0  0  0
   11.2595  -16.4559   23.9801 C   0  0  0  0  0  0  0  0  0  0  0  0
   11.2687  -16.0039   25.3885 C   0  0  0  0  0  0  0  0  0  0  0  0
   12.2334  -15.2968   25.7931 O   0  0  0  0  0  0  0  0  0  0  0  0
   10.2366  -16.3328   26.3047 N   0  0  0  0  0  0  0  0  0  0  0  0
   10.2828  -15.9371   27.7115 C   0  0  1  0  0  0  0  0  0  0  0  0
    8.9524  -15.4237   28.1732 C   0  0  0  0  0  0  0  0  0  0  0  0
    8.4161  -14.3254   27.3428 C   0  0  0  0  0  0  0  0  0  0  0  0
    7.4012  -14.5447   26.4059 C   0  0  0  0  0  0  0  0  0  0  0  0
    6.8810  -13.5281   25.6328 C   0  0  0  0  0  0  0  0  0  0  0  0
    7.3534  -12.2398   25.7609 C   0  0  0  0  0  0  0  0  0  0  0  0
    8.3520  -12.0114   26.6794 C   0  0  0  0  0  0  0  0  0  0  0  0
    8.8792  -13.0342   27.4610 C   0  0  0  0  0  0  0  0  0  0  0  0
   10.8267  -17.0198   28.5511 C   0  0  0  0  0  0  0  0  0  0  0  0
   11.0559  -18.2847   28.0346 O   0  0  0  0  0  0  0  0  0  0  0  0
   11.0865  -16.7953   29.7510 O   0  0  0  0  0  0  0  0  0  0  0  0
  2  3  1  0
  2  1  1  0
  4  3  1  0
  4  5  1  0
  5  6  1  1
  7  5  1  0
  7  9  1  0
  8  7  2  0
 10  9  1  0
 10 11  1  0
 11 12  2  0
 11 13  1  0
 13 14  1  0
 14 15  1  1
 14 22  1  0
 15 16  1  0
 16 17  2  0
 17 18  1  0
 19 18  2  0
 20 19  1  0
 21 20  2  0
 21 16  1  0
 22 23  1  0
 24 22  2  0
M  END
$$$$
