MGF.pdb
     RDKit          3D

 24 24  0  0  1  0  0  0  0  0999 V2000
    6.5212  -18.7575   28.0642 C   0  0  0  0  0  0  0  0  0  0  0  0
    7.6799  -19.7282   27.0734 S   0  0  0  0  0  0  0  0  0  0  0  0
    7.4552  -19.4306   25.2904 C   0  0  0  0  0  0  0  0  0  0  0  0
    5.9864  -19.4630   24.9946 C   0  0  0  0  0  0  0  0  0  0  0  0
    5.7036  -19.1160   23.5544 C   0  0  2  0  0  0  0  0  0  0  0  0
    6.6435  -19.9775   22.7892 N   0  0  0  0  0  0  0  0  0  0  0  0
    5.9957  -17.7341   23.1786 C   0  0  0  0  0  0  0  0  0  0  0  0
    5.3380  -16.8084   23.7818 O   0  0  0  0  0  0  0  0  0  0  0  0
    6.9436  -17.3313   22.2081 N   0  0  0  0  0  0  0  0  0  0  0  0
    7.1804  -15.9347   21.9901 C   0  0  0  0  0  0  0  0  0  0  0  0
    8.1868  -15.3681   22.9143 C   0  0  0  0  0  0  0  0  0  0  0  0
    8.9435  -14.4472   22.4977 O   0  0  0  0  0  0  0  0  0  0  0  0
    8.3370  -15.8176   24.2516 N   0  0  0  0  0  0  0  0  0  0  0  0
    9.3509  -15.2713   25.1522 C   0  0  1  0  0  0  0  0  0  0  0  0
    8.7776  -14.9972   26.5098 C   0  0  0  0  0  0  0  0  0  0  0  0
    7.7001  -13.9861   26.5091 C   0  0  0  0  0  0  0  0  0  0  0  0
    6.3510  -14.3543   26.4962 C   0  0  0  0  0  0  0  0  0  0  0  0
    5.3337  -13.4233   26.5087 C   0  0  0  0  0  0  0  0  0  0  0  0
    5.6193  -12.0753   26.5345 C   0  0  0  0  0  0  0  0  0  0  0  0
    6.9431  -11.7005   26.5473 C   0  0  0  0  0  0  0  0  0  0  0  0
    7.9718  -12.6366   26.5349 C   0  0  0  0  0  0  0  0  0  0  0  0
   10.5552  -16.1211   25.1754 C   0  0  0  0  0  0  0  0  0  0  0  0
   10.6098  -17.3110   24.4680 O   0  0  0  0  0  0  0  0  0  0  0  0
   11.5462  -15.7641   25.8449 O   0  0  0  0  0  0  0  0  0  0  0  0
  2  3  1  0
  2  1  1  0
  4  3  1  0
  4  5  1  0
  5  6  1  6
  7  5  1  0
  7  9  1  0
  8  7  2  0
 10  9  1  0
 10 11  1  0
 11 12  2  0
 11 13  1  0
 13 14  1  0
 14 15  1  1
 14 22  1  0
 15 16  1  0
 16 17  2  0
 17 18  1  0
 19 18  2  0
 20 19  1  0
 21 20  2  0
 21 16  1  0
 22 23  1  0
 24 22  2  0
M  END
$$$$
