MGF.pdb
     RDKit          3D

 24 24  0  0  1  0  0  0  0  0999 V2000
    8.7340  -12.1670   19.5388 C   0  0  0  0  0  0  0  0  0  0  0  0
    7.2635  -13.1517   19.9056 S   0  0  0  0  0  0  0  0  0  0  0  0
    7.6613  -14.9219   20.0671 C   0  0  0  0  0  0  0  0  0  0  0  0
    8.2361  -15.3905   18.7649 C   0  0  0  0  0  0  0  0  0  0  0  0
    8.8206  -16.7757   18.8839 C   0  0  2  0  0  0  0  0  0  0  0  0
    7.6452  -17.6332   19.1911 N   0  0  0  0  0  0  0  0  0  0  0  0
    9.7733  -16.9569   19.9774 C   0  0  0  0  0  0  0  0  0  0  0  0
   10.9288  -16.4078   19.8487 O   0  0  0  0  0  0  0  0  0  0  0  0
    9.5281  -17.6846   21.1662 N   0  0  0  0  0  0  0  0  0  0  0  0
   10.5139  -17.6895   22.2066 C   0  0  0  0  0  0  0  0  0  0  0  0
   10.0349  -17.0662   23.4595 C   0  0  0  0  0  0  0  0  0  0  0  0
   10.8095  -17.0328   24.4560 O   0  0  0  0  0  0  0  0  0  0  0  0
    8.7387  -16.5035   23.5878 N   0  0  0  0  0  0  0  0  0  0  0  0
    8.3339  -15.7283   24.7595 C   0  0  1  0  0  0  0  0  0  0  0  0
    7.8037  -14.3838   24.3620 C   0  0  0  0  0  0  0  0  0  0  0  0
    7.3926  -13.5430   25.5054 C   0  0  0  0  0  0  0  0  0  0  0  0
    6.0486  -13.4046   25.8663 C   0  0  0  0  0  0  0  0  0  0  0  0
    5.6499  -12.6345   26.9385 C   0  0  0  0  0  0  0  0  0  0  0  0
    6.5803  -11.9640   27.7028 C   0  0  0  0  0  0  0  0  0  0  0  0
    7.9060  -12.0923   27.3576 C   0  0  0  0  0  0  0  0  0  0  0  0
    8.3120  -12.8682   26.2769 C   0  0  0  0  0  0  0  0  0  0  0  0
    7.4162  -16.5002   25.6168 C   0  0  0  0  0  0  0  0  0  0  0  0
    7.5900  -16.5554   26.9902 O   0  0  0  0  0  0  0  0  0  0  0  0
    6.4633  -17.1170   25.0979 O   0  0  0  0  0  0  0  0  0  0  0  0
  2  3  1  0
  2  1  1  0
  4  3  1  0
  4  5  1  0
  5  6  1  1
  7  5  1  0
  7  9  1  0
  8  7  2  0
 10  9  1  0
 10 11  1  0
 11 12  2  0
 11 13  1  0
 13 14  1  0
 14 15  1  6
 14 22  1  0
 15 16  1  0
 16 17  2  0
 17 18  1  0
 19 18  2  0
 20 19  1  0
 21 20  2  0
 21 16  1  0
 22 23  1  0
 24 22  2  0
M  END
$$$$
