MGF.pdb
     RDKit          3D

 24 24  0  0  1  0  0  0  0  0999 V2000
    9.2286  -11.8022   20.2774 C   0  0  0  0  0  0  0  0  0  0  0  0
    8.7804  -12.9812   18.9830 S   0  0  0  0  0  0  0  0  0  0  0  0
    7.6427  -14.2616   19.6028 C   0  0  0  0  0  0  0  0  0  0  0  0
    8.1094  -14.6792   20.9643 C   0  0  0  0  0  0  0  0  0  0  0  0
    8.1227  -16.1804   21.1090 C   0  0  2  0  0  0  0  0  0  0  0  0
    6.6839  -16.5411   21.2132 N   0  0  0  0  0  0  0  0  0  0  0  0
    8.7729  -16.6830   22.3177 C   0  0  0  0  0  0  0  0  0  0  0  0
   10.0580  -16.6531   22.3508 O   0  0  0  0  0  0  0  0  0  0  0  0
    8.1051  -17.1973   23.4544 N   0  0  0  0  0  0  0  0  0  0  0  0
    8.8719  -17.7115   24.5508 C   0  0  0  0  0  0  0  0  0  0  0  0
    9.5367  -16.6509   25.3387 C   0  0  0  0  0  0  0  0  0  0  0  0
   10.3234  -15.8588   24.7488 O   0  0  0  0  0  0  0  0  0  0  0  0
    9.3265  -16.4868   26.7322 N   0  0  0  0  0  0  0  0  0  0  0  0
   10.1449  -15.5904   27.5475 C   0  0  1  0  0  0  0  0  0  0  0  0
    9.2896  -14.6993   28.3967 C   0  0  0  0  0  0  0  0  0  0  0  0
    8.2508  -13.9712   27.6391 C   0  0  0  0  0  0  0  0  0  0  0  0
    8.5390  -12.7851   26.9565 C   0  0  0  0  0  0  0  0  0  0  0  0
    7.5840  -12.1008   26.2342 C   0  0  0  0  0  0  0  0  0  0  0  0
    6.2912  -12.5726   26.1607 C   0  0  0  0  0  0  0  0  0  0  0  0
    5.9953  -13.7388   26.8283 C   0  0  0  0  0  0  0  0  0  0  0  0
    6.9558  -14.4317   27.5577 C   0  0  0  0  0  0  0  0  0  0  0  0
   11.1602  -16.3414   28.3078 C   0  0  0  0  0  0  0  0  0  0  0  0
   11.1878  -17.7265   28.2979 O   0  0  0  0  0  0  0  0  0  0  0  0
   12.0127  -15.7197   28.9746 O   0  0  0  0  0  0  0  0  0  0  0  0
  2  3  1  0
  2  1  1  0
  4  3  1  0
  4  5  1  0
  5  6  1  1
  7  5  1  0
  7  9  1  0
  8  7  2  0
 10  9  1  0
 10 11  1  0
 11 12  2  0
 11 13  1  0
 13 14  1  0
 14 15  1  1
 14 22  1  0
 15 16  1  0
 16 17  2  0
 17 18  1  0
 19 18  2  0
 20 19  1  0
 21 20  2  0
 21 16  1  0
 22 23  1  0
 24 22  2  0
M  END
$$$$
