MGF.pdb
     RDKit          3D

 24 24  0  0  1  0  0  0  0  0999 V2000
    8.7887  -13.5240   15.1741 C   0  0  0  0  0  0  0  0  0  0  0  0
    7.9821  -14.3872   16.5418 S   0  0  0  0  0  0  0  0  0  0  0  0
    9.0991  -14.5824   17.9673 C   0  0  0  0  0  0  0  0  0  0  0  0
    8.3546  -15.3093   19.0459 C   0  0  0  0  0  0  0  0  0  0  0  0
    7.4786  -14.3740   19.8412 C   0  0  2  0  0  0  0  0  0  0  0  0
    8.1312  -13.0480   19.6764 N   0  0  0  0  0  0  0  0  0  0  0  0
    7.4243  -14.6427   21.2768 C   0  0  0  0  0  0  0  0  0  0  0  0
    8.1714  -13.9254   22.0388 O   0  0  0  0  0  0  0  0  0  0  0  0
    6.6161  -15.6251   21.8970 N   0  0  0  0  0  0  0  0  0  0  0  0
    7.2366  -16.7400   22.5498 C   0  0  0  0  0  0  0  0  0  0  0  0
    8.1455  -16.3360   23.6447 C   0  0  0  0  0  0  0  0  0  0  0  0
    9.3239  -15.9850   23.3574 O   0  0  0  0  0  0  0  0  0  0  0  0
    7.7470  -16.3266   25.0063 N   0  0  0  0  0  0  0  0  0  0  0  0
    8.6871  -16.0674   26.0957 C   0  0  1  0  0  0  0  0  0  0  0  0
    8.0342  -15.2940   27.2013 C   0  0  0  0  0  0  0  0  0  0  0  0
    7.4215  -14.0241   26.7596 C   0  0  0  0  0  0  0  0  0  0  0  0
    8.1818  -12.8613   26.5995 C   0  0  0  0  0  0  0  0  0  0  0  0
    7.6275  -11.6719   26.1754 C   0  0  0  0  0  0  0  0  0  0  0  0
    6.2816  -11.5895   25.8908 C   0  0  0  0  0  0  0  0  0  0  0  0
    5.5228  -12.7269   26.0446 C   0  0  0  0  0  0  0  0  0  0  0  0
    6.0784  -13.9284   26.4720 C   0  0  0  0  0  0  0  0  0  0  0  0
    9.3380  -17.3118   26.5439 C   0  0  0  0  0  0  0  0  0  0  0  0
    8.9294  -18.5482   26.0710 O   0  0  0  0  0  0  0  0  0  0  0  0
   10.2757  -17.2532   27.3656 O   0  0  0  0  0  0  0  0  0  0  0  0
  2  3  1  0
  2  1  1  0
  4  3  1  0
  4  5  1  0
  5  6  1  1
  7  5  1  0
  7  9  1  0
  8  7  2  0
 10  9  1  0
 10 11  1  0
 11 12  2  0
 11 13  1  0
 13 14  1  0
 14 15  1  1
 14 22  1  0
 15 16  1  0
 16 17  2  0
 17 18  1  0
 19 18  2  0
 20 19  1  0
 21 20  2  0
 21 16  1  0
 22 23  1  0
 24 22  2  0
M  END
$$$$
