MGF.pdb
     RDKit          3D

 24 24  0  0  1  0  0  0  0  0999 V2000
    9.1173  -11.9704   20.1625 C   0  0  0  0  0  0  0  0  0  0  0  0
    8.0432  -12.4549   18.7922 S   0  0  0  0  0  0  0  0  0  0  0  0
    7.7199  -14.2475   18.7912 C   0  0  0  0  0  0  0  0  0  0  0  0
    7.2599  -14.6383   20.1629 C   0  0  0  0  0  0  0  0  0  0  0  0
    8.2302  -15.5851   20.8238 C   0  0  2  0  0  0  0  0  0  0  0  0
    8.1761  -16.8027   19.9718 N   0  0  0  0  0  0  0  0  0  0  0  0
    7.8694  -16.0005   22.1778 C   0  0  0  0  0  0  0  0  0  0  0  0
    6.9760  -15.3059   22.7883 O   0  0  0  0  0  0  0  0  0  0  0  0
    8.4203  -17.1045   22.8709 N   0  0  0  0  0  0  0  0  0  0  0  0
    8.1186  -17.2876   24.2600 C   0  0  0  0  0  0  0  0  0  0  0  0
    9.0637  -16.5840   25.1542 C   0  0  0  0  0  0  0  0  0  0  0  0
   10.1251  -16.1085   24.6628 O   0  0  0  0  0  0  0  0  0  0  0  0
    8.8261  -16.4212   26.5435 N   0  0  0  0  0  0  0  0  0  0  0  0
    9.7508  -15.7002   27.4169 C   0  0  1  0  0  0  0  0  0  0  0  0
    9.0265  -14.6924   28.2575 C   0  0  0  0  0  0  0  0  0  0  0  0
    8.2211  -13.7318   27.4754 C   0  0  0  0  0  0  0  0  0  0  0  0
    8.7372  -12.4926   27.0830 C   0  0  0  0  0  0  0  0  0  0  0  0
    8.0031  -11.5908   26.3418 C   0  0  0  0  0  0  0  0  0  0  0  0
    6.7134  -11.8872   25.9569 C   0  0  0  0  0  0  0  0  0  0  0  0
    6.1943  -13.1035   26.3369 C   0  0  0  0  0  0  0  0  0  0  0  0
    6.9318  -14.0156   27.0845 C   0  0  0  0  0  0  0  0  0  0  0  0
   10.5854  -16.6339   28.1945 C   0  0  0  0  0  0  0  0  0  0  0  0
   11.7139  -16.1985   28.8700 O   0  0  0  0  0  0  0  0  0  0  0  0
   10.2717  -17.8408   28.2468 O   0  0  0  0  0  0  0  0  0  0  0  0
  2  3  1  0
  2  1  1  0
  4  3  1  0
  4  5  1  0
  5  6  1  6
  7  5  1  0
  7  9  1  0
  8  7  2  0
 10  9  1  0
 10 11  1  0
 11 12  2  0
 11 13  1  0
 13 14  1  0
 14 15  1  1
 14 22  1  0
 15 16  1  0
 16 17  2  0
 17 18  1  0
 19 18  2  0
 20 19  1  0
 21 20  2  0
 21 16  1  0
 22 23  1  0
 24 22  2  0
M  END
$$$$
