MGF.pdb
     RDKit          3D

 24 24  0  0  1  0  0  0  0  0999 V2000
    9.1988  -19.6403   26.8647 C   0  0  0  0  0  0  0  0  0  0  0  0
    7.5066  -19.8482   26.2650 S   0  0  0  0  0  0  0  0  0  0  0  0
    7.3194  -19.2481   24.5554 C   0  0  0  0  0  0  0  0  0  0  0  0
    5.8701  -19.3412   24.1856 C   0  0  0  0  0  0  0  0  0  0  0  0
    5.6117  -18.7764   22.8111 C   0  0  2  0  0  0  0  0  0  0  0  0
    6.5568  -19.5205   21.9368 N   0  0  0  0  0  0  0  0  0  0  0  0
    5.9198  -17.3563   22.6543 C   0  0  0  0  0  0  0  0  0  0  0  0
    5.2795  -16.5288   23.4018 O   0  0  0  0  0  0  0  0  0  0  0  0
    6.8656  -16.8176   21.7499 N   0  0  0  0  0  0  0  0  0  0  0  0
    7.0273  -15.3962   21.6614 C   0  0  0  0  0  0  0  0  0  0  0  0
    7.9307  -14.8517   22.6983 C   0  0  0  0  0  0  0  0  0  0  0  0
    8.4127  -13.6958   22.5376 O   0  0  0  0  0  0  0  0  0  0  0  0
    8.2783  -15.5759   23.8677 N   0  0  0  0  0  0  0  0  0  0  0  0
    9.2736  -15.0906   24.8225 C   0  0  1  0  0  0  0  0  0  0  0  0
    8.6681  -14.8860   26.1784 C   0  0  0  0  0  0  0  0  0  0  0  0
    7.8221  -13.6786   26.2776 C   0  0  0  0  0  0  0  0  0  0  0  0
    6.4263  -13.7629   26.3018 C   0  0  0  0  0  0  0  0  0  0  0  0
    5.6232  -12.6469   26.4073 C   0  0  0  0  0  0  0  0  0  0  0  0
    6.1806  -11.3894   26.4936 C   0  0  0  0  0  0  0  0  0  0  0  0
    7.5530  -11.2935   26.4708 C   0  0  0  0  0  0  0  0  0  0  0  0
    8.3663  -12.4169   26.3646 C   0  0  0  0  0  0  0  0  0  0  0  0
   10.4693  -15.9529   24.8288 C   0  0  0  0  0  0  0  0  0  0  0  0
   10.5282  -17.1069   24.0646 O   0  0  0  0  0  0  0  0  0  0  0  0
   11.4490  -15.6395   25.5358 O   0  0  0  0  0  0  0  0  0  0  0  0
  2  3  1  0
  2  1  1  0
  4  3  1  0
  4  5  1  0
  5  6  1  6
  7  5  1  0
  7  9  1  0
  8  7  2  0
 10  9  1  0
 10 11  1  0
 11 12  2  0
 11 13  1  0
 13 14  1  0
 14 15  1  1
 14 22  1  0
 15 16  1  0
 16 17  2  0
 17 18  1  0
 19 18  2  0
 20 19  1  0
 21 20  2  0
 21 16  1  0
 22 23  1  0
 24 22  2  0
M  END
$$$$
