MGF.pdb
     RDKit          3D

 24 24  0  0  1  0  0  0  0  0999 V2000
    9.1444  -20.5293   17.6491 C   0  0  0  0  0  0  0  0  0  0  0  0
    7.5957  -20.7337   16.7403 S   0  0  0  0  0  0  0  0  0  0  0  0
    6.3512  -19.5029   17.2447 C   0  0  0  0  0  0  0  0  0  0  0  0
    6.5836  -19.1704   18.6873 C   0  0  0  0  0  0  0  0  0  0  0  0
    5.9077  -17.8787   19.0739 C   0  0  2  0  0  0  0  0  0  0  0  0
    6.7603  -16.8306   18.4528 N   0  0  0  0  0  0  0  0  0  0  0  0
    5.8729  -17.6000   20.5083 C   0  0  0  0  0  0  0  0  0  0  0  0
    4.7495  -17.7619   21.1125 O   0  0  0  0  0  0  0  0  0  0  0  0
    6.9735  -17.1692   21.2866 N   0  0  0  0  0  0  0  0  0  0  0  0
    6.8367  -17.0731   22.7101 C   0  0  0  0  0  0  0  0  0  0  0  0
    8.0565  -16.5655   23.3750 C   0  0  0  0  0  0  0  0  0  0  0  0
    9.1155  -16.4524   22.6967 O   0  0  0  0  0  0  0  0  0  0  0  0
    8.0856  -16.2000   24.7456 N   0  0  0  0  0  0  0  0  0  0  0  0
    9.2803  -15.6499   25.3842 C   0  0  1  0  0  0  0  0  0  0  0  0
    9.3684  -14.1674   25.1813 C   0  0  0  0  0  0  0  0  0  0  0  0
    8.2513  -13.4149   25.7887 C   0  0  0  0  0  0  0  0  0  0  0  0
    7.0575  -13.1903   25.0956 C   0  0  0  0  0  0  0  0  0  0  0  0
    6.0009  -12.5016   25.6532 C   0  0  0  0  0  0  0  0  0  0  0  0
    6.0892  -12.0032   26.9350 C   0  0  0  0  0  0  0  0  0  0  0  0
    7.2587  -12.2177   27.6273 C   0  0  0  0  0  0  0  0  0  0  0  0
    8.3265  -12.9120   27.0682 C   0  0  0  0  0  0  0  0  0  0  0  0
    9.3666  -16.0633   26.7965 C   0  0  0  0  0  0  0  0  0  0  0  0
   10.4852  -15.7781   27.5626 O   0  0  0  0  0  0  0  0  0  0  0  0
    8.4150  -16.6828   27.3147 O   0  0  0  0  0  0  0  0  0  0  0  0
  2  3  1  0
  2  1  1  0
  4  3  1  0
  4  5  1  0
  5  6  1  6
  7  5  1  0
  7  9  1  0
  8  7  2  0
 10  9  1  0
 10 11  1  0
 11 12  2  0
 11 13  1  0
 13 14  1  0
 14 15  1  1
 14 22  1  0
 15 16  1  0
 16 17  2  0
 17 18  1  0
 19 18  2  0
 20 19  1  0
 21 20  2  0
 21 16  1  0
 22 23  1  0
 24 22  2  0
M  END
$$$$
