MGF.pdb
     RDKit          3D

 24 24  0  0  1  0  0  0  0  0999 V2000
    8.7229  -11.2552   19.9217 C   0  0  0  0  0  0  0  0  0  0  0  0
    7.9092  -12.6381   19.0899 S   0  0  0  0  0  0  0  0  0  0  0  0
    8.0038  -14.1669   20.0756 C   0  0  0  0  0  0  0  0  0  0  0  0
    7.2411  -15.2350   19.3522 C   0  0  0  0  0  0  0  0  0  0  0  0
    7.4032  -16.5787   20.0178 C   0  0  2  0  0  0  0  0  0  0  0  0
    6.4882  -16.5094   21.1879 N   0  0  0  0  0  0  0  0  0  0  0  0
    8.7391  -16.8561   20.5419 C   0  0  0  0  0  0  0  0  0  0  0  0
    9.5725  -17.4356   19.7526 O   0  0  0  0  0  0  0  0  0  0  0  0
    9.1911  -16.5377   21.8445 N   0  0  0  0  0  0  0  0  0  0  0  0
   10.3319  -17.2189   22.3818 C   0  0  0  0  0  0  0  0  0  0  0  0
   10.5045  -17.0001   23.8345 C   0  0  0  0  0  0  0  0  0  0  0  0
   11.5591  -16.4388   24.2431 O   0  0  0  0  0  0  0  0  0  0  0  0
    9.5322  -17.3957   24.7890 N   0  0  0  0  0  0  0  0  0  0  0  0
    8.7815  -16.4292   25.5890 C   0  0  1  0  0  0  0  0  0  0  0  0
    8.3017  -15.2859   24.7465 C   0  0  0  0  0  0  0  0  0  0  0  0
    7.6323  -14.2174   25.5168 C   0  0  0  0  0  0  0  0  0  0  0  0
    8.3625  -13.2723   26.2445 C   0  0  0  0  0  0  0  0  0  0  0  0
    7.7533  -12.2613   26.9575 C   0  0  0  0  0  0  0  0  0  0  0  0
    6.3800  -12.1479   26.9763 C   0  0  0  0  0  0  0  0  0  0  0  0
    5.6504  -13.0719   26.2642 C   0  0  0  0  0  0  0  0  0  0  0  0
    6.2613  -14.0929   25.5438 C   0  0  0  0  0  0  0  0  0  0  0  0
    7.7122  -17.0914   26.3579 C   0  0  0  0  0  0  0  0  0  0  0  0
    6.6072  -17.6404   25.7278 O   0  0  0  0  0  0  0  0  0  0  0  0
    7.8015  -17.1601   27.6009 O   0  0  0  0  0  0  0  0  0  0  0  0
  2  3  1  0
  2  1  1  0
  4  3  1  0
  4  5  1  0
  5  6  1  1
  7  5  1  0
  7  9  1  0
  8  7  2  0
 10  9  1  0
 10 11  1  0
 11 12  2  0
 11 13  1  0
 13 14  1  0
 14 15  1  6
 14 22  1  0
 15 16  1  0
 16 17  2  0
 17 18  1  0
 19 18  2  0
 20 19  1  0
 21 20  2  0
 21 16  1  0
 22 23  1  0
 24 22  2  0
M  END
$$$$
