HEK.pdb
     RDKit          3D

 29 29  0  0  1  0  0  0  0  0999 V2000
   18.5605  -11.5772  -15.4598 N   0  0  0  0  0  0  0  0  0  0  0  0
   18.0646  -10.2391  -15.2678 C   0  0  1  0  0  0  0  0  0  0  0  0
   16.6290  -10.2054  -15.6826 C   0  0  0  0  0  0  0  0  0  0  0  0
   16.5553  -10.4456  -17.1467 C   0  0  0  0  0  0  0  0  0  0  0  0
   16.6969   -9.5361  -18.1751 C   0  0  0  0  0  0  0  0  0  0  0  0
   16.5609  -10.1440  -19.3705 N   0  0  0  0  0  0  0  0  0  0  0  0
   16.3349  -11.4262  -19.1135 C   0  0  0  0  0  0  0  0  0  0  0  0
   16.3268  -11.6340  -17.7781 N   0  0  0  0  0  0  0  0  0  0  0  0
   18.2940   -9.7264  -13.9013 C   0  0  0  0  0  0  0  0  0  0  0  0
   17.8066  -10.3763  -12.9403 O   0  0  0  0  0  0  0  0  0  0  0  0
   19.0178   -8.5638  -13.5887 N   0  0  0  0  0  0  0  0  0  0  0  0
   19.1991   -8.0440  -12.2236 C   0  0  1  0  0  0  0  0  0  0  0  0
   20.4784   -7.2747  -12.1282 C   0  0  0  0  0  0  0  0  0  0  0  0
   20.4436   -6.0860  -13.0430 C   0  0  0  0  0  0  0  0  0  0  0  0
   21.7094   -5.2845  -12.9263 C   0  0  0  0  0  0  0  0  0  0  0  0
   22.8149   -5.6860  -13.3568 O   0  0  0  0  0  0  0  0  0  0  0  0
   18.0061   -7.3481  -11.7614 C   0  0  0  0  0  0  0  0  0  0  0  0
   17.3309   -6.6181  -12.5115 O   0  0  0  0  0  0  0  0  0  0  0  0
   21.6265   -4.0531  -12.3134 O   0  0  0  0  0  0  0  0  0  0  0  0
   17.5212   -7.4497  -10.4191 N   0  0  0  0  0  0  0  0  0  0  0  0
   16.2921   -6.8324   -9.9722 C   0  0  1  0  0  0  0  0  0  0  0  0
   15.4740   -7.7762   -9.1060 C   0  0  0  0  0  0  0  0  0  0  0  0
   14.1838   -7.1863   -8.6810 C   0  0  0  0  0  0  0  0  0  0  0  0
   13.3285   -8.1050   -7.8658 C   0  0  0  0  0  0  0  0  0  0  0  0
   11.9857   -7.5609   -7.4729 C   0  0  0  0  0  0  0  0  0  0  0  0
   11.1748   -8.4395   -6.7009 N   0  0  0  0  0  0  0  0  0  0  0  0
   16.5735   -5.6038   -9.1915 C   0  0  0  0  0  0  0  0  0  0  0  0
   15.6987   -4.5307   -9.1595 O   0  0  0  0  0  0  0  0  0  0  0  0
   17.6367   -5.5165   -8.5307 O   0  0  0  0  0  0  0  0  0  0  0  0
  2  1  1  1
  3  2  1  0
  4  3  1  0
  4  8  1  0
  5  6  1  0
  5  4  2  0
  6  7  1  0
  7  8  2  0
  9 10  2  0
  9  2  1  0
 11  9  1  0
 12 11  1  0
 12 13  1  6
 14 13  1  0
 15 14  1  0
 16 15  2  0
 17 12  1  0
 18 17  2  0
 19 15  1  0
 20 17  1  0
 21 27  1  0
 21 20  1  0
 21 22  1  1
 23 22  1  0
 24 23  1  0
 25 24  1  0
 26 25  1  0
 27 28  1  0
 29 27  2  0
M  END
$$$$
