HEK.pdb
     RDKit          3D

 29 29  0  0  1  0  0  0  0  0999 V2000
   29.9279  -29.9117  -17.4209 N   0  0  0  0  0  0  0  0  0  0  0  0
   29.3316  -30.7062  -18.4632 C   0  0  1  0  0  0  0  0  0  0  0  0
   30.2510  -31.8433  -18.7725 C   0  0  0  0  0  0  0  0  0  0  0  0
   31.5218  -31.2903  -19.3072 C   0  0  0  0  0  0  0  0  0  0  0  0
   32.6166  -30.8222  -18.6091 C   0  0  0  0  0  0  0  0  0  0  0  0
   33.5762  -30.3994  -19.4560 N   0  0  0  0  0  0  0  0  0  0  0  0
   33.1045  -30.5931  -20.6812 C   0  0  0  0  0  0  0  0  0  0  0  0
   31.8658  -31.1301  -20.6184 N   0  0  0  0  0  0  0  0  0  0  0  0
   27.9527  -31.1338  -18.1490 C   0  0  0  0  0  0  0  0  0  0  0  0
   27.3586  -31.8628  -18.9851 O   0  0  0  0  0  0  0  0  0  0  0  0
   27.2487  -30.7886  -16.9834 N   0  0  0  0  0  0  0  0  0  0  0  0
   25.8510  -31.1663  -16.7186 C   0  0  1  0  0  0  0  0  0  0  0  0
   25.7269  -31.7690  -15.3551 C   0  0  0  0  0  0  0  0  0  0  0  0
   24.3269  -32.2563  -15.1239 C   0  0  0  0  0  0  0  0  0  0  0  0
   24.1865  -32.8462  -13.7488 C   0  0  0  0  0  0  0  0  0  0  0  0
   25.1302  -32.8963  -12.9269 O   0  0  0  0  0  0  0  0  0  0  0  0
   24.9430  -30.0652  -17.0087 C   0  0  0  0  0  0  0  0  0  0  0  0
   25.1777  -28.8975  -16.6440 O   0  0  0  0  0  0  0  0  0  0  0  0
   22.9529  -33.3494  -13.3972 O   0  0  0  0  0  0  0  0  0  0  0  0
   23.7201  -30.2391  -17.7308 N   0  0  0  0  0  0  0  0  0  0  0  0
   22.8267  -29.1477  -18.0501 C   0  0  1  0  0  0  0  0  0  0  0  0
   21.6667  -29.6088  -18.9175 C   0  0  0  0  0  0  0  0  0  0  0  0
   20.7389  -28.5070  -19.2619 C   0  0  0  0  0  0  0  0  0  0  0  0
   19.5095  -28.9467  -19.9933 C   0  0  0  0  0  0  0  0  0  0  0  0
   18.5365  -27.8567  -20.3380 C   0  0  0  0  0  0  0  0  0  0  0  0
   17.3195  -28.2925  -20.9333 N   0  0  0  0  0  0  0  0  0  0  0  0
   22.2765  -28.5392  -16.8152 C   0  0  0  0  0  0  0  0  0  0  0  0
   22.1562  -27.1688  -16.6555 O   0  0  0  0  0  0  0  0  0  0  0  0
   21.9019  -29.2769  -15.8718 O   0  0  0  0  0  0  0  0  0  0  0  0
  2  1  1  1
  3  2  1  0
  4  3  1  0
  4  8  1  0
  5  6  1  0
  5  4  2  0
  6  7  1  0
  7  8  2  0
  9 10  2  0
  9  2  1  0
 11  9  1  0
 12 11  1  0
 12 13  1  1
 14 13  1  0
 15 14  1  0
 16 15  2  0
 17 12  1  0
 18 17  2  0
 19 15  1  0
 20 17  1  0
 21 27  1  0
 21 20  1  0
 21 22  1  6
 23 22  1  0
 24 23  1  0
 25 24  1  0
 26 25  1  0
 27 28  1  0
 29 27  2  0
M  END
$$$$
