HEK.pdb
     RDKit          3D

 29 29  0  0  1  0  0  0  0  0999 V2000
   27.2156  -21.4155  -15.8280 N   0  0  0  0  0  0  0  0  0  0  0  0
   26.5093  -20.3470  -15.1699 C   0  0  1  0  0  0  0  0  0  0  0  0
   26.0466  -19.3784  -16.2099 C   0  0  0  0  0  0  0  0  0  0  0  0
   27.2341  -18.6803  -16.7661 C   0  0  0  0  0  0  0  0  0  0  0  0
   28.5650  -18.8633  -16.4498 C   0  0  0  0  0  0  0  0  0  0  0  0
   29.3445  -18.0347  -17.1727 N   0  0  0  0  0  0  0  0  0  0  0  0
   28.5258  -17.3292  -17.9427 C   0  0  0  0  0  0  0  0  0  0  0  0
   27.2461  -17.7002  -17.7160 N   0  0  0  0  0  0  0  0  0  0  0  0
   25.4248  -20.8257  -14.2882 C   0  0  0  0  0  0  0  0  0  0  0  0
   24.5508  -21.5804  -14.7883 O   0  0  0  0  0  0  0  0  0  0  0  0
   25.2919  -20.5029  -12.9275 N   0  0  0  0  0  0  0  0  0  0  0  0
   24.1030  -20.8110  -12.1164 C   0  0  1  0  0  0  0  0  0  0  0  0
   24.3419  -20.4424  -10.6865 C   0  0  0  0  0  0  0  0  0  0  0  0
   25.4364  -21.2874  -10.1042 C   0  0  0  0  0  0  0  0  0  0  0  0
   25.8337  -20.7850   -8.7447 C   0  0  0  0  0  0  0  0  0  0  0  0
   25.2475  -21.1260   -7.6917 O   0  0  0  0  0  0  0  0  0  0  0  0
   22.8965  -20.2607  -12.7186 C   0  0  0  0  0  0  0  0  0  0  0  0
   22.9329  -19.3336  -13.5498 O   0  0  0  0  0  0  0  0  0  0  0  0
   26.8953  -19.9092   -8.6772 O   0  0  0  0  0  0  0  0  0  0  0  0
   21.5856  -20.7401  -12.4041 N   0  0  0  0  0  0  0  0  0  0  0  0
   20.5465  -20.9126  -13.3950 C   0  0  1  0  0  0  0  0  0  0  0  0
   20.9559  -21.9079  -14.4685 C   0  0  0  0  0  0  0  0  0  0  0  0
   20.0042  -21.9473  -15.6025 C   0  0  0  0  0  0  0  0  0  0  0  0
   20.3789  -22.9114  -16.6842 C   0  0  0  0  0  0  0  0  0  0  0  0
   19.4528  -22.9517  -17.8649 C   0  0  0  0  0  0  0  0  0  0  0  0
   19.8620  -22.1773  -18.9867 N   0  0  0  0  0  0  0  0  0  0  0  0
   19.2925  -21.3908  -12.7652 C   0  0  0  0  0  0  0  0  0  0  0  0
   18.0629  -20.8118  -13.0314 O   0  0  0  0  0  0  0  0  0  0  0  0
   19.3282  -22.3529  -11.9603 O   0  0  0  0  0  0  0  0  0  0  0  0
  2  1  1  6
  3  2  1  0
  4  3  1  0
  4  8  1  0
  5  6  1  0
  5  4  2  0
  6  7  1  0
  7  8  2  0
  9 10  2  0
  9  2  1  0
 11  9  1  0
 12 11  1  0
 12 13  1  1
 14 13  1  0
 15 14  1  0
 16 15  2  0
 17 12  1  0
 18 17  2  0
 19 15  1  0
 20 17  1  0
 21 27  1  0
 21 20  1  0
 21 22  1  6
 23 22  1  0
 24 23  1  0
 25 24  1  0
 26 25  1  0
 27 28  1  0
 29 27  2  0
M  END
$$$$
