HEK.pdb
     RDKit          3D

 29 29  0  0  1  0  0  0  0  0999 V2000
   19.5835  -12.0768  -16.8324 N   0  0  0  0  0  0  0  0  0  0  0  0
   20.3294  -11.0603  -17.5280 C   0  0  1  0  0  0  0  0  0  0  0  0
   20.0740  -11.2090  -18.9931 C   0  0  0  0  0  0  0  0  0  0  0  0
   20.5926  -12.5305  -19.4307 C   0  0  0  0  0  0  0  0  0  0  0  0
   21.9016  -12.9120  -19.6452 C   0  0  0  0  0  0  0  0  0  0  0  0
   21.9639  -14.1993  -20.0397 N   0  0  0  0  0  0  0  0  0  0  0  0
   20.7123  -14.6388  -20.0782 C   0  0  0  0  0  0  0  0  0  0  0  0
   19.8654  -13.6501  -19.7148 N   0  0  0  0  0  0  0  0  0  0  0  0
   20.0655   -9.6981  -17.0205 C   0  0  0  0  0  0  0  0  0  0  0  0
   18.8741   -9.2933  -17.0159 O   0  0  0  0  0  0  0  0  0  0  0  0
   21.0459   -8.8143  -16.5396 N   0  0  0  0  0  0  0  0  0  0  0  0
   20.7620   -7.4659  -16.0223 C   0  0  1  0  0  0  0  0  0  0  0  0
   21.5615   -7.2071  -14.7849 C   0  0  0  0  0  0  0  0  0  0  0  0
   21.1781   -5.8885  -14.1804 C   0  0  0  0  0  0  0  0  0  0  0  0
   21.8769   -5.6795  -12.8665 C   0  0  0  0  0  0  0  0  0  0  0  0
   22.6227   -4.6997  -12.6371 O   0  0  0  0  0  0  0  0  0  0  0  0
   20.8780   -6.4630  -17.0720 C   0  0  0  0  0  0  0  0  0  0  0  0
   21.8574   -6.4163  -17.8402 O   0  0  0  0  0  0  0  0  0  0  0  0
   21.6731   -6.6222  -11.8824 O   0  0  0  0  0  0  0  0  0  0  0  0
   19.8820   -5.4614  -17.3001 N   0  0  0  0  0  0  0  0  0  0  0  0
   19.9759   -4.4769  -18.3552 C   0  0  1  0  0  0  0  0  0  0  0  0
   18.6048   -3.9712  -18.7732 C   0  0  0  0  0  0  0  0  0  0  0  0
   18.6716   -2.9930  -19.8832 C   0  0  0  0  0  0  0  0  0  0  0  0
   17.3366   -2.5046  -20.3512 C   0  0  0  0  0  0  0  0  0  0  0  0
   17.3601   -1.6151  -21.5602 C   0  0  0  0  0  0  0  0  0  0  0  0
   16.0861   -1.1756  -22.0178 N   0  0  0  0  0  0  0  0  0  0  0  0
   20.7919   -3.3173  -17.9222 C   0  0  0  0  0  0  0  0  0  0  0  0
   21.1777   -3.1345  -16.6047 O   0  0  0  0  0  0  0  0  0  0  0  0
   21.1544   -2.4619  -18.7657 O   0  0  0  0  0  0  0  0  0  0  0  0
  2  1  1  1
  3  2  1  0
  4  3  1  0
  4  8  1  0
  5  6  1  0
  5  4  2  0
  6  7  1  0
  7  8  2  0
  9 10  2  0
  9  2  1  0
 11  9  1  0
 12 11  1  0
 12 13  1  1
 14 13  1  0
 15 14  1  0
 16 15  2  0
 17 12  1  0
 18 17  2  0
 19 15  1  0
 20 17  1  0
 21 27  1  0
 21 20  1  0
 21 22  1  1
 23 22  1  0
 24 23  1  0
 25 24  1  0
 26 25  1  0
 27 28  1  0
 29 27  2  0
M  END
$$$$
