HEK.pdb
     RDKit          3D

 29 29  0  0  1  0  0  0  0  0999 V2000
   28.9538  -20.5623  -14.0452 N   0  0  0  0  0  0  0  0  0  0  0  0
   27.7785  -20.5806  -13.2135 C   0  0  1  0  0  0  0  0  0  0  0  0
   28.1393  -20.0182  -11.8765 C   0  0  0  0  0  0  0  0  0  0  0  0
   29.2074  -20.8626  -11.2823 C   0  0  0  0  0  0  0  0  0  0  0  0
   29.8389  -21.9610  -11.8296 C   0  0  0  0  0  0  0  0  0  0  0  0
   30.7550  -22.4584  -10.9750 N   0  0  0  0  0  0  0  0  0  0  0  0
   30.7125  -21.6901   -9.8937 C   0  0  0  0  0  0  0  0  0  0  0  0
   29.7860  -20.7193  -10.0544 N   0  0  0  0  0  0  0  0  0  0  0  0
   26.6166  -19.9145  -13.8373 C   0  0  0  0  0  0  0  0  0  0  0  0
   26.7378  -18.7054  -14.1639 O   0  0  0  0  0  0  0  0  0  0  0  0
   25.3800  -20.5287  -14.0963 N   0  0  0  0  0  0  0  0  0  0  0  0
   24.3013  -19.9154  -14.8881 C   0  0  1  0  0  0  0  0  0  0  0  0
   24.4237  -20.3126  -16.3250 C   0  0  0  0  0  0  0  0  0  0  0  0
   24.5187  -21.8048  -16.4491 C   0  0  0  0  0  0  0  0  0  0  0  0
   24.5561  -22.2197  -17.8930 C   0  0  0  0  0  0  0  0  0  0  0  0
   25.3380  -21.7130  -18.7299 O   0  0  0  0  0  0  0  0  0  0  0  0
   23.0003  -20.1474  -14.2759 C   0  0  0  0  0  0  0  0  0  0  0  0
   22.8177  -21.0348  -13.4211 O   0  0  0  0  0  0  0  0  0  0  0  0
   23.6803  -23.2056  -18.2927 O   0  0  0  0  0  0  0  0  0  0  0  0
   21.8400  -19.3785  -14.6072 N   0  0  0  0  0  0  0  0  0  0  0  0
   20.5254  -19.6586  -14.0736 C   0  0  1  0  0  0  0  0  0  0  0  0
   19.5084  -18.6189  -14.5154 C   0  0  0  0  0  0  0  0  0  0  0  0
   18.1372  -18.9283  -14.0493 C   0  0  0  0  0  0  0  0  0  0  0  0
   17.1071  -17.9256  -14.4659 C   0  0  0  0  0  0  0  0  0  0  0  0
   15.6967  -18.2387  -14.0581 C   0  0  0  0  0  0  0  0  0  0  0  0
   14.7313  -17.2488  -14.3949 N   0  0  0  0  0  0  0  0  0  0  0  0
   20.0527  -20.9936  -14.5121 C   0  0  0  0  0  0  0  0  0  0  0  0
   19.3552  -21.8447  -13.6713 O   0  0  0  0  0  0  0  0  0  0  0  0
   20.2839  -21.3818  -15.6828 O   0  0  0  0  0  0  0  0  0  0  0  0
  2  1  1  6
  3  2  1  0
  4  3  1  0
  4  8  1  0
  5  6  1  0
  5  4  2  0
  6  7  1  0
  7  8  2  0
  9 10  2  0
  9  2  1  0
 11  9  1  0
 12 11  1  0
 12 13  1  6
 14 13  1  0
 15 14  1  0
 16 15  2  0
 17 12  1  0
 18 17  2  0
 19 15  1  0
 20 17  1  0
 21 27  1  0
 21 20  1  0
 21 22  1  6
 23 22  1  0
 24 23  1  0
 25 24  1  0
 26 25  1  0
 27 28  1  0
 29 27  2  0
M  END
$$$$
