HEK.pdb
     RDKit          3D

 29 29  0  0  1  0  0  0  0  0999 V2000
   16.4536  -12.3059   -9.9712 N   0  0  0  0  0  0  0  0  0  0  0  0
   15.8812  -11.1120  -10.5373 C   0  0  1  0  0  0  0  0  0  0  0  0
   14.4398  -11.0506  -10.1470 C   0  0  0  0  0  0  0  0  0  0  0  0
   13.7457  -12.2335  -10.7177 C   0  0  0  0  0  0  0  0  0  0  0  0
   13.2887  -13.3601  -10.0643 C   0  0  0  0  0  0  0  0  0  0  0  0
   12.7120  -14.2137  -10.9336 N   0  0  0  0  0  0  0  0  0  0  0  0
   12.7972  -13.6434  -12.1289 C   0  0  0  0  0  0  0  0  0  0  0  0
   13.4173  -12.4469  -12.0253 N   0  0  0  0  0  0  0  0  0  0  0  0
   16.6357   -9.8888  -10.1948 C   0  0  0  0  0  0  0  0  0  0  0  0
   16.8736   -9.6660   -8.9794 O   0  0  0  0  0  0  0  0  0  0  0  0
   17.1114   -8.9496  -11.1248 N   0  0  0  0  0  0  0  0  0  0  0  0
   17.7092   -7.6547  -10.7610 C   0  0  1  0  0  0  0  0  0  0  0  0
   18.8094   -7.3066  -11.7129 C   0  0  0  0  0  0  0  0  0  0  0  0
   19.4819   -6.0331  -11.2922 C   0  0  0  0  0  0  0  0  0  0  0  0
   20.5942   -5.6782  -12.2384 C   0  0  0  0  0  0  0  0  0  0  0  0
   20.7849   -4.5157  -12.6638 O   0  0  0  0  0  0  0  0  0  0  0  0
   16.6862   -6.6348  -10.5760 C   0  0  0  0  0  0  0  0  0  0  0  0
   15.7798   -6.4448  -11.4091 O   0  0  0  0  0  0  0  0  0  0  0  0
   21.4312   -6.6950  -12.6436 O   0  0  0  0  0  0  0  0  0  0  0  0
   16.6438   -5.7788   -9.4303 N   0  0  0  0  0  0  0  0  0  0  0  0
   15.6123   -4.7872   -9.2201 C   0  0  1  0  0  0  0  0  0  0  0  0
   15.1166   -4.7905   -7.7832 C   0  0  0  0  0  0  0  0  0  0  0  0
   14.0704   -3.7712   -7.5384 C   0  0  0  0  0  0  0  0  0  0  0  0
   13.5718   -3.7309   -6.1279 C   0  0  0  0  0  0  0  0  0  0  0  0
   12.4690   -2.7485   -5.8589 C   0  0  0  0  0  0  0  0  0  0  0  0
   11.9745   -2.7384   -4.5244 N   0  0  0  0  0  0  0  0  0  0  0  0
   16.1140   -3.4294   -9.5405 C   0  0  0  0  0  0  0  0  0  0  0  0
   15.2733   -2.4062   -9.9457 O   0  0  0  0  0  0  0  0  0  0  0  0
   17.3405   -3.1813   -9.4466 O   0  0  0  0  0  0  0  0  0  0  0  0
  2  1  1  1
  3  2  1  0
  4  3  1  0
  4  8  1  0
  5  6  1  0
  5  4  2  0
  6  7  1  0
  7  8  2  0
  9 10  2  0
  9  2  1  0
 11  9  1  0
 12 11  1  0
 12 13  1  6
 14 13  1  0
 15 14  1  0
 16 15  2  0
 17 12  1  0
 18 17  2  0
 19 15  1  0
 20 17  1  0
 21 27  1  0
 21 20  1  0
 21 22  1  1
 23 22  1  0
 24 23  1  0
 25 24  1  0
 26 25  1  0
 27 28  1  0
 29 27  2  0
M  END
$$$$
