HEK.pdb
     RDKit          3D

 29 29  0  0  1  0  0  0  0  0999 V2000
   24.1730  -12.8779  -17.8761 N   0  0  0  0  0  0  0  0  0  0  0  0
   24.4179  -11.8181  -16.9326 C   0  0  1  0  0  0  0  0  0  0  0  0
   25.8237  -11.3437  -17.1123 C   0  0  0  0  0  0  0  0  0  0  0  0
   26.7456  -12.4396  -16.7175 C   0  0  0  0  0  0  0  0  0  0  0  0
   27.3677  -13.3717  -17.5233 C   0  0  0  0  0  0  0  0  0  0  0  0
   28.1285  -14.2056  -16.7868 N   0  0  0  0  0  0  0  0  0  0  0  0
   27.9970  -13.8149  -15.5254 C   0  0  0  0  0  0  0  0  0  0  0  0
   27.1671  -12.7503  -15.4570 N   0  0  0  0  0  0  0  0  0  0  0  0
   23.4173  -10.7336  -17.0066 C   0  0  0  0  0  0  0  0  0  0  0  0
   23.0747  -10.3269  -18.1471 O   0  0  0  0  0  0  0  0  0  0  0  0
   22.8148  -10.1171  -15.8974 N   0  0  0  0  0  0  0  0  0  0  0  0
   21.7406   -9.1152  -15.9899 C   0  0  1  0  0  0  0  0  0  0  0  0
   20.4873   -9.6404  -15.3646 C   0  0  0  0  0  0  0  0  0  0  0  0
   19.3737   -8.6454  -15.5092 C   0  0  0  0  0  0  0  0  0  0  0  0
   18.1270   -9.1359  -14.8283 C   0  0  0  0  0  0  0  0  0  0  0  0
   18.0820  -10.1989  -14.1675 O   0  0  0  0  0  0  0  0  0  0  0  0
   22.1896   -7.8148  -15.5117 C   0  0  0  0  0  0  0  0  0  0  0  0
   22.9327   -7.6928  -14.5195 O   0  0  0  0  0  0  0  0  0  0  0  0
   16.9921   -8.3639  -14.9499 O   0  0  0  0  0  0  0  0  0  0  0  0
   21.8143   -6.5860  -16.1412 N   0  0  0  0  0  0  0  0  0  0  0  0
   22.2291   -5.2884  -15.6558 C   0  0  1  0  0  0  0  0  0  0  0  0
   21.7586   -4.1708  -16.5723 C   0  0  0  0  0  0  0  0  0  0  0  0
   22.1730   -2.8308  -16.0969 C   0  0  0  0  0  0  0  0  0  0  0  0
   21.7465   -1.7056  -16.9869 C   0  0  0  0  0  0  0  0  0  0  0  0
   22.1216   -0.3303  -16.5165 C   0  0  0  0  0  0  0  0  0  0  0  0
   21.7726    0.7312  -17.3979 N   0  0  0  0  0  0  0  0  0  0  0  0
   21.6919   -5.0384  -14.2967 C   0  0  0  0  0  0  0  0  0  0  0  0
   20.4671   -5.5343  -13.8822 O   0  0  0  0  0  0  0  0  0  0  0  0
   22.3572   -4.3556  -13.4808 O   0  0  0  0  0  0  0  0  0  0  0  0
  2  1  1  6
  3  2  1  0
  4  3  1  0
  4  8  1  0
  5  6  1  0
  5  4  2  0
  6  7  1  0
  7  8  2  0
  9 10  2  0
  9  2  1  0
 11  9  1  0
 12 11  1  0
 12 13  1  1
 14 13  1  0
 15 14  1  0
 16 15  2  0
 17 12  1  0
 18 17  2  0
 19 15  1  0
 20 17  1  0
 21 27  1  0
 21 20  1  0
 21 22  1  6
 23 22  1  0
 24 23  1  0
 25 24  1  0
 26 25  1  0
 27 28  1  0
 29 27  2  0
M  END
$$$$
