HEK.pdb
     RDKit          3D

 29 29  0  0  1  0  0  0  0  0999 V2000
   18.4844  -11.0816  -15.4528 N   0  0  0  0  0  0  0  0  0  0  0  0
   17.9002   -9.7706  -15.3360 C   0  0  1  0  0  0  0  0  0  0  0  0
   16.4525   -9.8670  -15.6946 C   0  0  0  0  0  0  0  0  0  0  0  0
   16.3271   -9.7979  -17.1732 C   0  0  0  0  0  0  0  0  0  0  0  0
   16.5139  -10.8039  -18.0995 C   0  0  0  0  0  0  0  0  0  0  0  0
   16.3084  -10.3439  -19.3498 N   0  0  0  0  0  0  0  0  0  0  0  0
   15.9940   -9.0603  -19.2283 C   0  0  0  0  0  0  0  0  0  0  0  0
   15.9985   -8.7063  -17.9240 N   0  0  0  0  0  0  0  0  0  0  0  0
   18.1394   -9.1448  -14.0192 C   0  0  0  0  0  0  0  0  0  0  0  0
   17.8637   -9.8156  -12.9909 O   0  0  0  0  0  0  0  0  0  0  0  0
   18.6536   -7.8522  -13.8237 N   0  0  0  0  0  0  0  0  0  0  0  0
   18.9214   -7.2592  -12.5035 C   0  0  1  0  0  0  0  0  0  0  0  0
   19.9350   -6.1656  -12.6229 C   0  0  0  0  0  0  0  0  0  0  0  0
   21.2415   -6.7148  -13.1153 C   0  0  0  0  0  0  0  0  0  0  0  0
   22.2778   -5.6300  -13.2041 C   0  0  0  0  0  0  0  0  0  0  0  0
   22.9215   -5.3835  -14.2498 O   0  0  0  0  0  0  0  0  0  0  0  0
   17.6832   -6.9029  -11.8244 C   0  0  0  0  0  0  0  0  0  0  0  0
   16.7293   -6.3679  -12.4205 O   0  0  0  0  0  0  0  0  0  0  0  0
   22.5144   -4.8842  -12.0699 O   0  0  0  0  0  0  0  0  0  0  0  0
   17.4689   -7.1393  -10.4295 N   0  0  0  0  0  0  0  0  0  0  0  0
   16.2974   -6.6770   -9.7188 C   0  0  1  0  0  0  0  0  0  0  0  0
   15.4238   -7.8354   -9.2656 C   0  0  0  0  0  0  0  0  0  0  0  0
   14.1680   -7.3852   -8.6224 C   0  0  0  0  0  0  0  0  0  0  0  0
   13.2811   -8.4995   -8.1623 C   0  0  0  0  0  0  0  0  0  0  0  0
   11.9692   -8.0787   -7.5663 C   0  0  0  0  0  0  0  0  0  0  0  0
   11.0760   -9.1403   -7.2488 N   0  0  0  0  0  0  0  0  0  0  0  0
   16.6834   -5.8857   -8.5259 C   0  0  0  0  0  0  0  0  0  0  0  0
   15.8730   -4.8919   -8.0030 O   0  0  0  0  0  0  0  0  0  0  0  0
   17.7794   -6.1112   -7.9578 O   0  0  0  0  0  0  0  0  0  0  0  0
  2  1  1  1
  3  2  1  0
  4  3  1  0
  4  8  1  0
  5  6  1  0
  5  4  2  0
  6  7  1  0
  7  8  2  0
  9 10  2  0
  9  2  1  0
 11  9  1  0
 12 11  1  0
 12 13  1  6
 14 13  1  0
 15 14  1  0
 16 15  2  0
 17 12  1  0
 18 17  2  0
 19 15  1  0
 20 17  1  0
 21 27  1  0
 21 20  1  0
 21 22  1  1
 23 22  1  0
 24 23  1  0
 25 24  1  0
 26 25  1  0
 27 28  1  0
 29 27  2  0
M  END
$$$$
