HEK.pdb
     RDKit          3D

 29 29  0  0  1  0  0  0  0  0999 V2000
   26.0526  -20.8527  -14.7412 N   0  0  0  0  0  0  0  0  0  0  0  0
   24.9641  -21.7750  -14.5465 C   0  0  1  0  0  0  0  0  0  0  0  0
   25.5026  -23.0077  -13.8951 C   0  0  0  0  0  0  0  0  0  0  0  0
   25.7554  -24.0253  -14.9474 C   0  0  0  0  0  0  0  0  0  0  0  0
   25.5011  -23.9429  -16.3015 C   0  0  0  0  0  0  0  0  0  0  0  0
   25.8708  -25.0792  -16.9254 N   0  0  0  0  0  0  0  0  0  0  0  0
   26.3558  -25.8804  -15.9852 C   0  0  0  0  0  0  0  0  0  0  0  0
   26.2971  -25.2672  -14.7821 N   0  0  0  0  0  0  0  0  0  0  0  0
   23.8218  -21.1790  -13.8234 C   0  0  0  0  0  0  0  0  0  0  0  0
   24.0151  -20.7810  -12.6454 O   0  0  0  0  0  0  0  0  0  0  0  0
   22.5294  -21.0207  -14.3507 N   0  0  0  0  0  0  0  0  0  0  0  0
   21.3699  -20.5545  -13.5731 C   0  0  1  0  0  0  0  0  0  0  0  0
   20.6933  -19.4232  -14.2801 C   0  0  0  0  0  0  0  0  0  0  0  0
   19.4490  -19.0172  -13.5467 C   0  0  0  0  0  0  0  0  0  0  0  0
   18.6477  -18.0364  -14.3557 C   0  0  0  0  0  0  0  0  0  0  0  0
   18.9996  -17.6364  -15.4892 O   0  0  0  0  0  0  0  0  0  0  0  0
   20.5103  -21.6660  -13.1901 C   0  0  0  0  0  0  0  0  0  0  0  0
   20.2250  -22.5869  -13.9788 O   0  0  0  0  0  0  0  0  0  0  0  0
   17.4744  -17.5687  -13.8051 O   0  0  0  0  0  0  0  0  0  0  0  0
   19.9320  -21.7848  -11.8867 N   0  0  0  0  0  0  0  0  0  0  0  0
   19.1814  -22.9434  -11.4560 C   0  0  1  0  0  0  0  0  0  0  0  0
   19.2283  -23.1115   -9.9460 C   0  0  0  0  0  0  0  0  0  0  0  0
   18.6695  -24.4081   -9.4988 C   0  0  0  0  0  0  0  0  0  0  0  0
   18.7605  -24.6386   -8.0228 C   0  0  0  0  0  0  0  0  0  0  0  0
   18.2508  -25.9662   -7.5423 C   0  0  0  0  0  0  0  0  0  0  0  0
   18.4907  -26.2497   -6.1684 N   0  0  0  0  0  0  0  0  0  0  0  0
   17.7625  -22.8361  -11.8724 C   0  0  0  0  0  0  0  0  0  0  0  0
   17.0094  -23.9431  -12.2265 O   0  0  0  0  0  0  0  0  0  0  0  0
   17.2089  -21.7107  -11.9108 O   0  0  0  0  0  0  0  0  0  0  0  0
  2  1  1  1
  3  2  1  0
  4  3  1  0
  4  8  1  0
  5  6  1  0
  5  4  2  0
  6  7  1  0
  7  8  2  0
  9 10  2  0
  9  2  1  0
 11  9  1  0
 12 11  1  0
 12 13  1  6
 14 13  1  0
 15 14  1  0
 16 15  2  0
 17 12  1  0
 18 17  2  0
 19 15  1  0
 20 17  1  0
 21 27  1  0
 21 20  1  0
 21 22  1  1
 23 22  1  0
 24 23  1  0
 25 24  1  0
 26 25  1  0
 27 28  1  0
 29 27  2  0
M  END
$$$$
