HEK.pdb
     RDKit          3D

 29 29  0  0  1  0  0  0  0  0999 V2000
   23.0565  -13.8892  -19.3876 N   0  0  0  0  0  0  0  0  0  0  0  0
   23.5811  -13.0048  -18.3795 C   0  0  1  0  0  0  0  0  0  0  0  0
   24.9302  -12.5364  -18.8205 C   0  0  0  0  0  0  0  0  0  0  0  0
   25.8415  -13.7082  -18.8761 C   0  0  0  0  0  0  0  0  0  0  0  0
   25.6030  -15.0030  -18.4618 C   0  0  0  0  0  0  0  0  0  0  0  0
   26.6835  -15.7790  -18.6787 N   0  0  0  0  0  0  0  0  0  0  0  0
   27.6035  -14.9937  -19.2248 C   0  0  0  0  0  0  0  0  0  0  0  0
   27.1196  -13.7384  -19.3545 N   0  0  0  0  0  0  0  0  0  0  0  0
   22.6585  -11.9024  -18.0385 C   0  0  0  0  0  0  0  0  0  0  0  0
   22.4313  -11.0326  -18.9189 O   0  0  0  0  0  0  0  0  0  0  0  0
   22.0110  -11.7483  -16.8014 N   0  0  0  0  0  0  0  0  0  0  0  0
   20.9907  -10.7244  -16.5235 C   0  0  1  0  0  0  0  0  0  0  0  0
   19.8533  -11.3214  -15.7570 C   0  0  0  0  0  0  0  0  0  0  0  0
   19.0794  -12.2707  -16.6236 C   0  0  0  0  0  0  0  0  0  0  0  0
   17.8966  -12.8277  -15.8825 C   0  0  0  0  0  0  0  0  0  0  0  0
   16.7839  -12.2541  -15.8410 O   0  0  0  0  0  0  0  0  0  0  0  0
   21.5872   -9.5295  -15.9427 C   0  0  0  0  0  0  0  0  0  0  0  0
   22.4123   -9.5850  -15.0112 O   0  0  0  0  0  0  0  0  0  0  0  0
   18.0669  -14.0267  -15.2252 O   0  0  0  0  0  0  0  0  0  0  0  0
   21.2734   -8.2087  -16.3950 N   0  0  0  0  0  0  0  0  0  0  0  0
   21.8157   -7.0138  -15.7873 C   0  0  1  0  0  0  0  0  0  0  0  0
   21.4270   -5.7653  -16.5624 C   0  0  0  0  0  0  0  0  0  0  0  0
   22.0643   -4.5402  -16.0273 C   0  0  0  0  0  0  0  0  0  0  0  0
   21.7526   -3.2984  -16.8023 C   0  0  0  0  0  0  0  0  0  0  0  0
   22.4115   -2.0437  -16.3070 C   0  0  0  0  0  0  0  0  0  0  0  0
   22.2049   -0.8886  -17.1124 N   0  0  0  0  0  0  0  0  0  0  0  0
   21.3359   -6.8684  -14.3920 C   0  0  0  0  0  0  0  0  0  0  0  0
   20.0916   -7.3212  -13.9863 O   0  0  0  0  0  0  0  0  0  0  0  0
   22.0700   -6.3182  -13.5359 O   0  0  0  0  0  0  0  0  0  0  0  0
  2  1  1  6
  3  2  1  0
  4  3  1  0
  4  8  1  0
  5  6  1  0
  5  4  2  0
  6  7  1  0
  7  8  2  0
  9 10  2  0
  9  2  1  0
 11  9  1  0
 12 11  1  0
 12 13  1  1
 14 13  1  0
 15 14  1  0
 16 15  2  0
 17 12  1  0
 18 17  2  0
 19 15  1  0
 20 17  1  0
 21 27  1  0
 21 20  1  0
 21 22  1  6
 23 22  1  0
 24 23  1  0
 25 24  1  0
 26 25  1  0
 27 28  1  0
 29 27  2  0
M  END
$$$$
