HEK.pdb
     RDKit          3D

 29 29  0  0  1  0  0  0  0  0999 V2000
   25.6953  -36.8162   -7.6774 N   0  0  0  0  0  0  0  0  0  0  0  0
   25.9865  -35.8754   -6.6269 C   0  0  1  0  0  0  0  0  0  0  0  0
   25.0184  -34.7413   -6.7292 C   0  0  0  0  0  0  0  0  0  0  0  0
   25.4624  -33.8394   -7.8230 C   0  0  0  0  0  0  0  0  0  0  0  0
   26.5170  -34.0039   -8.6979 C   0  0  0  0  0  0  0  0  0  0  0  0
   26.5968  -32.9616   -9.5489 N   0  0  0  0  0  0  0  0  0  0  0  0
   25.6071  -32.1389   -9.2251 C   0  0  0  0  0  0  0  0  0  0  0  0
   24.9075  -32.6463   -8.1860 N   0  0  0  0  0  0  0  0  0  0  0  0
   26.0250  -36.4965   -5.2869 C   0  0  0  0  0  0  0  0  0  0  0  0
   25.1060  -37.3016   -4.9857 O   0  0  0  0  0  0  0  0  0  0  0  0
   27.0127  -36.2576   -4.3170 N   0  0  0  0  0  0  0  0  0  0  0  0
   27.0466  -36.9025   -2.9943 C   0  0  1  0  0  0  0  0  0  0  0  0
   28.4154  -36.7949   -2.4007 C   0  0  0  0  0  0  0  0  0  0  0  0
   28.4930  -37.5727   -1.1201 C   0  0  0  0  0  0  0  0  0  0  0  0
   29.8626  -37.4644   -0.5111 C   0  0  0  0  0  0  0  0  0  0  0  0
   30.3179  -36.3979   -0.0378 O   0  0  0  0  0  0  0  0  0  0  0  0
   25.9532  -36.4371   -2.1523 C   0  0  0  0  0  0  0  0  0  0  0  0
   25.5852  -35.2471   -2.1398 O   0  0  0  0  0  0  0  0  0  0  0  0
   30.6363  -38.6042   -0.4826 O   0  0  0  0  0  0  0  0  0  0  0  0
   25.2224  -37.3055   -1.2811 N   0  0  0  0  0  0  0  0  0  0  0  0
   24.1652  -36.8452   -0.4084 C   0  0  1  0  0  0  0  0  0  0  0  0
   23.4742  -38.0031    0.2933 C   0  0  0  0  0  0  0  0  0  0  0  0
   22.2562  -37.5824    1.0234 C   0  0  0  0  0  0  0  0  0  0  0  0
   21.4616  -38.7151    1.5940 C   0  0  0  0  0  0  0  0  0  0  0  0
   20.2140  -38.3238    2.3314 C   0  0  0  0  0  0  0  0  0  0  0  0
   19.4044  -39.4065    2.7761 N   0  0  0  0  0  0  0  0  0  0  0  0
   24.6977  -35.9222    0.6223 C   0  0  0  0  0  0  0  0  0  0  0  0
   26.0254  -35.9389    1.0159 O   0  0  0  0  0  0  0  0  0  0  0  0
   23.9326  -35.0902    1.1674 O   0  0  0  0  0  0  0  0  0  0  0  0
  2  1  1  6
  3  2  1  0
  4  3  1  0
  4  8  1  0
  5  6  1  0
  5  4  2  0
  6  7  1  0
  7  8  2  0
  9 10  2  0
  9  2  1  0
 11  9  1  0
 12 11  1  0
 12 13  1  1
 14 13  1  0
 15 14  1  0
 16 15  2  0
 17 12  1  0
 18 17  2  0
 19 15  1  0
 20 17  1  0
 21 27  1  0
 21 20  1  0
 21 22  1  1
 23 22  1  0
 24 23  1  0
 25 24  1  0
 26 25  1  0
 27 28  1  0
 29 27  2  0
M  END
$$$$
