HEK.pdb
     RDKit          3D

 29 29  0  0  1  0  0  0  0  0999 V2000
   26.8037  -16.5828  -16.8716 N   0  0  0  0  0  0  0  0  0  0  0  0
   25.4358  -16.2094  -17.1223 C   0  0  1  0  0  0  0  0  0  0  0  0
   25.2903  -15.9053  -18.5784 C   0  0  0  0  0  0  0  0  0  0  0  0
   26.0304  -16.9354  -19.3516 C   0  0  0  0  0  0  0  0  0  0  0  0
   25.5315  -18.0488  -19.9971 C   0  0  0  0  0  0  0  0  0  0  0  0
   26.5253  -18.7419  -20.5877 N   0  0  0  0  0  0  0  0  0  0  0  0
   27.6470  -18.0830  -20.3254 C   0  0  0  0  0  0  0  0  0  0  0  0
   27.3750  -16.9885  -19.5805 N   0  0  0  0  0  0  0  0  0  0  0  0
   24.4633  -17.2067  -16.6298 C   0  0  0  0  0  0  0  0  0  0  0  0
   24.8859  -18.3646  -16.3770 O   0  0  0  0  0  0  0  0  0  0  0  0
   23.0959  -16.9624  -16.4204 N   0  0  0  0  0  0  0  0  0  0  0  0
   22.1391  -17.9722  -15.9394 C   0  0  1  0  0  0  0  0  0  0  0  0
   21.0371  -17.3162  -15.1695 C   0  0  0  0  0  0  0  0  0  0  0  0
   20.1236  -18.3499  -14.5797 C   0  0  0  0  0  0  0  0  0  0  0  0
   18.9308  -17.7030  -13.9337 C   0  0  0  0  0  0  0  0  0  0  0  0
   17.7499  -17.9854  -14.2410 O   0  0  0  0  0  0  0  0  0  0  0  0
   21.7186  -18.8562  -17.0177 C   0  0  0  0  0  0  0  0  0  0  0  0
   21.4598  -18.4330  -18.1603 O   0  0  0  0  0  0  0  0  0  0  0  0
   19.1712  -16.7577  -12.9604 O   0  0  0  0  0  0  0  0  0  0  0  0
   21.5720  -20.2694  -16.8484 N   0  0  0  0  0  0  0  0  0  0  0  0
   21.2714  -21.1707  -17.9386 C   0  0  1  0  0  0  0  0  0  0  0  0
   21.8158  -22.5658  -17.6784 C   0  0  0  0  0  0  0  0  0  0  0  0
   21.6283  -23.4756  -18.8318 C   0  0  0  0  0  0  0  0  0  0  0  0
   22.1113  -24.8724  -18.5959 C   0  0  0  0  0  0  0  0  0  0  0  0
   22.0137  -25.7987  -19.7731 C   0  0  0  0  0  0  0  0  0  0  0  0
   22.3477  -27.1567  -19.5089 N   0  0  0  0  0  0  0  0  0  0  0  0
   19.8075  -21.2703  -18.1511 C   0  0  0  0  0  0  0  0  0  0  0  0
   19.2598  -21.6448  -19.3667 O   0  0  0  0  0  0  0  0  0  0  0  0
   19.0228  -21.0096  -17.2072 O   0  0  0  0  0  0  0  0  0  0  0  0
  2  1  1  6
  3  2  1  0
  4  3  1  0
  4  8  1  0
  5  6  1  0
  5  4  2  0
  6  7  1  0
  7  8  2  0
  9 10  2  0
  9  2  1  0
 11  9  1  0
 12 11  1  0
 12 13  1  6
 14 13  1  0
 15 14  1  0
 16 15  2  0
 17 12  1  0
 18 17  2  0
 19 15  1  0
 20 17  1  0
 21 27  1  0
 21 20  1  0
 21 22  1  1
 23 22  1  0
 24 23  1  0
 25 24  1  0
 26 25  1  0
 27 28  1  0
 29 27  2  0
M  END
$$$$
