KKF.pdb
     RDKit          3D

 30 30  0  0  1  0  0  0  0  0999 V2000
   21.7052  -19.6469  -13.5460 N   0  0  0  0  0  0  0  0  0  0  0  0
   21.5411  -21.0408  -13.1734 C   0  0  1  0  0  0  0  0  0  0  0  0
   21.0299  -21.8001  -14.3470 C   0  0  0  0  0  0  0  0  0  0  0  0
   21.4895  -21.2126  -15.6549 C   0  0  0  0  0  0  0  0  0  0  0  0
   22.6807  -21.9732  -16.1417 C   0  0  0  0  0  0  0  0  0  0  0  0
   22.3166  -23.3693  -16.6143 C   0  0  0  0  0  0  0  0  0  0  0  0
   23.3893  -23.9307  -17.4088 N   0  0  0  0  0  0  0  0  0  0  0  0
   22.8655  -21.5788  -12.7001 C   0  0  0  0  0  0  0  0  0  0  0  0
   22.9828  -22.7972  -12.4138 O   0  0  0  0  0  0  0  0  0  0  0  0
   23.9578  -20.6878  -12.5884 N   0  0  0  0  0  0  0  0  0  0  0  0
   25.2886  -21.1240  -12.0973 C   0  0  1  0  0  0  0  0  0  0  0  0
   26.3233  -20.5049  -12.9688 C   0  0  0  0  0  0  0  0  0  0  0  0
   26.1633  -20.6100  -14.4334 C   0  0  0  0  0  0  0  0  0  0  0  0
   27.3022  -20.0136  -15.2293 C   0  0  0  0  0  0  0  0  0  0  0  0
   27.0034  -20.0741  -16.7174 C   0  0  0  0  0  0  0  0  0  0  0  0
   28.1531  -19.4643  -17.3893 N   0  0  0  0  0  0  0  0  0  0  0  0
   25.3828  -20.7775  -10.6561 C   0  0  0  0  0  0  0  0  0  0  0  0
   24.6011  -19.8707  -10.1850 O   0  0  0  0  0  0  0  0  0  0  0  0
   26.2594  -21.3542   -9.7246 N   0  0  0  0  0  0  0  0  0  0  0  0
   26.4980  -20.7710   -8.3993 C   0  0  1  0  0  0  0  0  0  0  0  0
   27.3949  -21.5836   -7.5378 C   0  0  0  0  0  0  0  0  0  0  0  0
   27.8511  -20.8925   -6.3226 C   0  0  0  0  0  0  0  0  0  0  0  0
   27.1718  -20.9779   -5.1267 C   0  0  0  0  0  0  0  0  0  0  0  0
   27.6475  -20.3039   -4.0154 C   0  0  0  0  0  0  0  0  0  0  0  0
   28.7923  -19.5339   -4.0437 C   0  0  0  0  0  0  0  0  0  0  0  0
   29.4673  -19.4526   -5.2434 C   0  0  0  0  0  0  0  0  0  0  0  0
   28.9922  -20.1307   -6.3695 C   0  0  0  0  0  0  0  0  0  0  0  0
   27.0521  -19.4126   -8.5878 C   0  0  0  0  0  0  0  0  0  0  0  0
   27.8814  -19.1697   -9.4874 O   0  0  0  0  0  0  0  0  0  0  0  0
   26.6463  -18.3732   -7.7482 O   0  0  0  0  0  0  0  0  0  0  0  0
  2  1  1  6
  2  8  1  0
  3  2  1  0
  4  3  1  0
  4  5  1  0
  6  5  1  0
  6  7  1  0
  8  9  2  0
 10 11  1  0
 10  8  1  0
 11 17  1  0
 11 12  1  6
 13 12  1  0
 14 13  1  0
 15 14  1  0
 16 15  1  0
 17 18  2  0
 17 19  1  0
 19 20  1  0
 20 28  1  0
 20 21  1  6
 22 21  1  0
 23 22  2  0
 24 23  1  0
 25 26  1  0
 25 24  2  0
 26 27  2  0
 27 22  1  0
 28 29  2  0
 28 30  1  0
M  END
$$$$
