KKF.pdb
     RDKit          3D

 30 30  0  0  1  0  0  0  0  0999 V2000
   23.3191  -21.1409  -15.5690 N   0  0  0  0  0  0  0  0  0  0  0  0
   23.6014  -20.3346  -14.3947 C   0  0  1  0  0  0  0  0  0  0  0  0
   22.3667  -20.2285  -13.5705 C   0  0  0  0  0  0  0  0  0  0  0  0
   21.1929  -19.7116  -14.3592 C   0  0  0  0  0  0  0  0  0  0  0  0
   20.0436  -19.4802  -13.4318 C   0  0  0  0  0  0  0  0  0  0  0  0
   18.7906  -19.0418  -14.1686 C   0  0  0  0  0  0  0  0  0  0  0  0
   19.0461  -17.8362  -14.9291 N   0  0  0  0  0  0  0  0  0  0  0  0
   24.7280  -20.9714  -13.6247 C   0  0  0  0  0  0  0  0  0  0  0  0
   24.6855  -22.1967  -13.3470 O   0  0  0  0  0  0  0  0  0  0  0  0
   25.8191  -20.1640  -13.2285 N   0  0  0  0  0  0  0  0  0  0  0  0
   26.9195  -20.6816  -12.3777 C   0  0  1  0  0  0  0  0  0  0  0  0
   28.1883  -20.0586  -12.8417 C   0  0  0  0  0  0  0  0  0  0  0  0
   28.5225  -20.1310  -14.2786 C   0  0  0  0  0  0  0  0  0  0  0  0
   29.0264  -21.4818  -14.7342 C   0  0  0  0  0  0  0  0  0  0  0  0
   29.4643  -21.4264  -16.1876 C   0  0  0  0  0  0  0  0  0  0  0  0
   29.8338  -22.7954  -16.5546 N   0  0  0  0  0  0  0  0  0  0  0  0
   26.5657  -20.4199  -10.9591 C   0  0  0  0  0  0  0  0  0  0  0  0
   26.1140  -19.2588  -10.6378 O   0  0  0  0  0  0  0  0  0  0  0  0
   26.6729  -21.3338   -9.9000 N   0  0  0  0  0  0  0  0  0  0  0  0
   26.2221  -21.0211   -8.5390 C   0  0  1  0  0  0  0  0  0  0  0  0
   26.7037  -19.7101   -8.0327 C   0  0  0  0  0  0  0  0  0  0  0  0
   27.7084  -19.8097   -6.9637 C   0  0  0  0  0  0  0  0  0  0  0  0
   27.9156  -20.9716   -6.2523 C   0  0  0  0  0  0  0  0  0  0  0  0
   28.8747  -21.0062   -5.2552 C   0  0  0  0  0  0  0  0  0  0  0  0
   29.6514  -19.9131   -4.9293 C   0  0  0  0  0  0  0  0  0  0  0  0
   29.4391  -18.7536   -5.6448 C   0  0  0  0  0  0  0  0  0  0  0  0
   28.4721  -18.7119   -6.6531 C   0  0  0  0  0  0  0  0  0  0  0  0
   24.7439  -21.0716   -8.5215 C   0  0  0  0  0  0  0  0  0  0  0  0
   24.0862  -21.1765   -9.5761 O   0  0  0  0  0  0  0  0  0  0  0  0
   24.0599  -21.0011   -7.3061 O   0  0  0  0  0  0  0  0  0  0  0  0
  2  1  1  6
  2  8  1  0
  3  2  1  0
  4  3  1  0
  4  5  1  0
  6  5  1  0
  6  7  1  0
  8  9  2  0
 10 11  1  0
 10  8  1  0
 11 17  1  0
 11 12  1  6
 13 12  1  0
 14 13  1  0
 15 14  1  0
 16 15  1  0
 17 18  2  0
 17 19  1  0
 19 20  1  0
 20 28  1  0
 20 21  1  6
 22 21  1  0
 23 22  2  0
 24 23  1  0
 25 26  1  0
 25 24  2  0
 26 27  2  0
 27 22  1  0
 28 29  2  0
 28 30  1  0
M  END
$$$$
