KKF.pdb
     RDKit          3D

 30 30  0  0  1  0  0  0  0  0999 V2000
   26.2250  -19.3453  -15.8076 N   0  0  0  0  0  0  0  0  0  0  0  0
   26.6729  -20.2322  -14.7485 C   0  0  1  0  0  0  0  0  0  0  0  0
   28.1586  -20.1851  -14.6720 C   0  0  0  0  0  0  0  0  0  0  0  0
   28.8109  -20.4750  -15.9976 C   0  0  0  0  0  0  0  0  0  0  0  0
   29.2948  -21.8894  -16.0063 C   0  0  0  0  0  0  0  0  0  0  0  0
   30.1128  -22.2088  -17.2448 C   0  0  0  0  0  0  0  0  0  0  0  0
   30.6445  -23.5535  -17.1675 N   0  0  0  0  0  0  0  0  0  0  0  0
   26.0380  -19.8039  -13.4520 C   0  0  0  0  0  0  0  0  0  0  0  0
   25.9226  -18.5815  -13.1825 O   0  0  0  0  0  0  0  0  0  0  0  0
   25.5818  -20.8010  -12.5592 N   0  0  0  0  0  0  0  0  0  0  0  0
   24.9249  -20.4695  -11.2703 C   0  0  1  0  0  0  0  0  0  0  0  0
   23.5555  -21.0505  -11.2920 C   0  0  0  0  0  0  0  0  0  0  0  0
   22.4757  -20.2810  -11.9427 C   0  0  0  0  0  0  0  0  0  0  0  0
   21.1201  -20.9493  -11.8986 C   0  0  0  0  0  0  0  0  0  0  0  0
   20.0799  -20.0948  -12.6023 C   0  0  0  0  0  0  0  0  0  0  0  0
   18.8072  -20.8068  -12.4657 N   0  0  0  0  0  0  0  0  0  0  0  0
   25.8008  -20.9500  -10.1712 C   0  0  0  0  0  0  0  0  0  0  0  0
   26.9714  -21.3972  -10.4629 O   0  0  0  0  0  0  0  0  0  0  0  0
   25.4777  -20.9659   -8.8059 N   0  0  0  0  0  0  0  0  0  0  0  0
   26.4993  -20.9401   -7.7528 C   0  0  1  0  0  0  0  0  0  0  0  0
   27.4069  -19.7662   -7.8245 C   0  0  0  0  0  0  0  0  0  0  0  0
   28.3205  -19.6405   -6.6792 C   0  0  0  0  0  0  0  0  0  0  0  0
   29.4945  -20.3566   -6.5903 C   0  0  0  0  0  0  0  0  0  0  0  0
   30.3150  -20.1988   -5.4870 C   0  0  0  0  0  0  0  0  0  0  0  0
   30.0115  -19.3423   -4.4484 C   0  0  0  0  0  0  0  0  0  0  0  0
   28.8354  -18.6288   -4.5434 C   0  0  0  0  0  0  0  0  0  0  0  0
   28.0022  -18.7835   -5.6549 C   0  0  0  0  0  0  0  0  0  0  0  0
   25.8114  -20.9836   -6.4440 C   0  0  0  0  0  0  0  0  0  0  0  0
   26.3564  -21.4872   -5.4414 O   0  0  0  0  0  0  0  0  0  0  0  0
   24.5260  -20.4532   -6.3160 O   0  0  0  0  0  0  0  0  0  0  0  0
  2  1  1  6
  2  8  1  0
  3  2  1  0
  4  3  1  0
  4  5  1  0
  6  5  1  0
  6  7  1  0
  8  9  2  0
 10 11  1  0
 10  8  1  0
 11 17  1  0
 11 12  1  6
 13 12  1  0
 14 13  1  0
 15 14  1  0
 16 15  1  0
 17 18  2  0
 17 19  1  0
 19 20  1  0
 20 28  1  0
 20 21  1  1
 22 21  1  0
 23 22  2  0
 24 23  1  0
 25 26  1  0
 25 24  2  0
 26 27  2  0
 27 22  1  0
 28 29  2  0
 28 30  1  0
M  END
$$$$
