KKF.pdb
     RDKit          3D

 30 30  0  0  1  0  0  0  0  0999 V2000
   26.4954  -21.5339  -15.8942 N   0  0  0  0  0  0  0  0  0  0  0  0
   27.7081  -21.2842  -15.1354 C   0  0  1  0  0  0  0  0  0  0  0  0
   28.6210  -20.4326  -15.9457 C   0  0  0  0  0  0  0  0  0  0  0  0
   29.0462  -21.1029  -17.2251 C   0  0  0  0  0  0  0  0  0  0  0  0
   29.8734  -22.3040  -16.8971 C   0  0  0  0  0  0  0  0  0  0  0  0
   30.3167  -23.0531  -18.1411 C   0  0  0  0  0  0  0  0  0  0  0  0
   31.4237  -22.3691  -18.7765 N   0  0  0  0  0  0  0  0  0  0  0  0
   27.3417  -20.6208  -13.8341 C   0  0  0  0  0  0  0  0  0  0  0  0
   28.2437  -20.1782  -13.0786 O   0  0  0  0  0  0  0  0  0  0  0  0
   25.9743  -20.5112  -13.4909 N   0  0  0  0  0  0  0  0  0  0  0  0
   25.5227  -19.8658  -12.2331 C   0  0  1  0  0  0  0  0  0  0  0  0
   24.0478  -19.6887  -12.3138 C   0  0  0  0  0  0  0  0  0  0  0  0
   23.2016  -20.8919  -12.4469 C   0  0  0  0  0  0  0  0  0  0  0  0
   21.7155  -20.6135  -12.4335 C   0  0  0  0  0  0  0  0  0  0  0  0
   20.9281  -21.9110  -12.4954 C   0  0  0  0  0  0  0  0  0  0  0  0
   19.5138  -21.5320  -12.4590 N   0  0  0  0  0  0  0  0  0  0  0  0
   26.0014  -20.6918  -11.0952 C   0  0  0  0  0  0  0  0  0  0  0  0
   26.0022  -21.9726  -11.2171 O   0  0  0  0  0  0  0  0  0  0  0  0
   26.4697  -20.2080   -9.8643 N   0  0  0  0  0  0  0  0  0  0  0  0
   26.7702  -21.0915   -8.7318 C   0  0  1  0  0  0  0  0  0  0  0  0
   28.1226  -20.8865   -8.1520 C   0  0  0  0  0  0  0  0  0  0  0  0
   28.1206  -20.2257   -6.8383 C   0  0  0  0  0  0  0  0  0  0  0  0
   28.3326  -20.9166   -5.6650 C   0  0  0  0  0  0  0  0  0  0  0  0
   28.3179  -20.2417   -4.4568 C   0  0  0  0  0  0  0  0  0  0  0  0
   28.0969  -18.8827   -4.3644 C   0  0  0  0  0  0  0  0  0  0  0  0
   27.8855  -18.1973   -5.5421 C   0  0  0  0  0  0  0  0  0  0  0  0
   27.8991  -18.8728   -6.7657 C   0  0  0  0  0  0  0  0  0  0  0  0
   25.7288  -20.8881   -7.7013 C   0  0  0  0  0  0  0  0  0  0  0  0
   24.9698  -19.8988   -7.7329 O   0  0  0  0  0  0  0  0  0  0  0  0
   25.5827  -21.8155   -6.6675 O   0  0  0  0  0  0  0  0  0  0  0  0
  2  1  1  6
  2  8  1  0
  3  2  1  0
  4  3  1  0
  4  5  1  0
  6  5  1  0
  6  7  1  0
  8  9  2  0
 10 11  1  0
 10  8  1  0
 11 17  1  0
 11 12  1  6
 13 12  1  0
 14 13  1  0
 15 14  1  0
 16 15  1  0
 17 18  2  0
 17 19  1  0
 19 20  1  0
 20 28  1  0
 20 21  1  1
 22 21  1  0
 23 22  2  0
 24 23  1  0
 25 26  1  0
 25 24  2  0
 26 27  2  0
 27 22  1  0
 28 29  2  0
 28 30  1  0
M  END
$$$$
