KKF.pdb
     RDKit          3D

 30 30  0  0  1  0  0  0  0  0999 V2000
   24.5137  -24.2282  -14.3288 N   0  0  0  0  0  0  0  0  0  0  0  0
   25.4146  -23.5204  -15.2211 C   0  0  1  0  0  0  0  0  0  0  0  0
   24.6147  -22.6686  -16.1429 C   0  0  0  0  0  0  0  0  0  0  0  0
   23.2295  -23.2131  -16.3706 C   0  0  0  0  0  0  0  0  0  0  0  0
   22.2972  -22.0785  -16.6502 C   0  0  0  0  0  0  0  0  0  0  0  0
   20.8922  -22.5557  -16.9714 C   0  0  0  0  0  0  0  0  0  0  0  0
   19.9981  -21.4276  -17.1294 N   0  0  0  0  0  0  0  0  0  0  0  0
   26.3711  -22.6987  -14.3980 C   0  0  0  0  0  0  0  0  0  0  0  0
   27.6107  -22.8678  -14.5201 O   0  0  0  0  0  0  0  0  0  0  0  0
   25.8433  -21.7453  -13.4969 N   0  0  0  0  0  0  0  0  0  0  0  0
   26.7012  -20.7569  -12.7973 C   0  0  1  0  0  0  0  0  0  0  0  0
   26.2342  -19.3962  -13.1764 C   0  0  0  0  0  0  0  0  0  0  0  0
   26.9854  -18.6584  -14.2122 C   0  0  0  0  0  0  0  0  0  0  0  0
   26.4145  -17.2989  -14.5468 C   0  0  0  0  0  0  0  0  0  0  0  0
   26.1299  -17.1904  -16.0350 C   0  0  0  0  0  0  0  0  0  0  0  0
   25.5689  -15.8541  -16.2466 N   0  0  0  0  0  0  0  0  0  0  0  0
   26.6600  -21.0600  -11.3438 C   0  0  0  0  0  0  0  0  0  0  0  0
   25.5732  -21.5294  -10.8399 O   0  0  0  0  0  0  0  0  0  0  0  0
   27.7142  -20.8855  -10.4346 N   0  0  0  0  0  0  0  0  0  0  0  0
   27.5124  -20.8945   -8.9810 C   0  0  1  0  0  0  0  0  0  0  0  0
   28.5906  -20.2119   -8.2204 C   0  0  0  0  0  0  0  0  0  0  0  0
   28.3443  -20.1249   -6.7733 C   0  0  0  0  0  0  0  0  0  0  0  0
   27.6526  -19.0774   -6.2047 C   0  0  0  0  0  0  0  0  0  0  0  0
   27.4524  -19.0475   -4.8355 C   0  0  0  0  0  0  0  0  0  0  0  0
   27.9200  -20.0344   -3.9918 C   0  0  0  0  0  0  0  0  0  0  0  0
   28.6112  -21.0796   -4.5671 C   0  0  0  0  0  0  0  0  0  0  0  0
   28.8170  -21.1159   -5.9491 C   0  0  0  0  0  0  0  0  0  0  0  0
   26.2022  -20.2704   -8.6951 C   0  0  0  0  0  0  0  0  0  0  0  0
   25.8838  -19.1729   -9.1950 O   0  0  0  0  0  0  0  0  0  0  0  0
   25.2952  -20.9134   -7.8502 O   0  0  0  0  0  0  0  0  0  0  0  0
  2  1  1  1
  2  8  1  0
  3  2  1  0
  4  3  1  0
  4  5  1  0
  6  5  1  0
  6  7  1  0
  8  9  2  0
 10 11  1  0
 10  8  1  0
 11 17  1  0
 11 12  1  1
 13 12  1  0
 14 13  1  0
 15 14  1  0
 16 15  1  0
 17 18  2  0
 17 19  1  0
 19 20  1  0
 20 28  1  0
 20 21  1  1
 22 21  1  0
 23 22  2  0
 24 23  1  0
 25 26  1  0
 25 24  2  0
 26 27  2  0
 27 22  1  0
 28 29  2  0
 28 30  1  0
M  END
$$$$
