KKF.pdb
     RDKit          3D

 30 30  0  0  1  0  0  0  0  0999 V2000
   21.6921  -19.7775  -17.1459 N   0  0  0  0  0  0  0  0  0  0  0  0
   21.0141  -18.6385  -17.7392 C   0  0  1  0  0  0  0  0  0  0  0  0
   20.2014  -19.1056  -18.8952 C   0  0  0  0  0  0  0  0  0  0  0  0
   20.9817  -19.1051  -20.1829 C   0  0  0  0  0  0  0  0  0  0  0  0
   20.3608  -18.1307  -21.1313 C   0  0  0  0  0  0  0  0  0  0  0  0
   21.0668  -18.1081  -22.4752 C   0  0  0  0  0  0  0  0  0  0  0  0
   20.3268  -17.3005  -23.4225 N   0  0  0  0  0  0  0  0  0  0  0  0
   20.1576  -17.9797  -16.6904 C   0  0  0  0  0  0  0  0  0  0  0  0
   19.8381  -18.6120  -15.6520 O   0  0  0  0  0  0  0  0  0  0  0  0
   19.7289  -16.6492  -16.9035 N   0  0  0  0  0  0  0  0  0  0  0  0
   18.7772  -15.9680  -15.9909 C   0  0  1  0  0  0  0  0  0  0  0  0
   18.9021  -14.5019  -16.2110 C   0  0  0  0  0  0  0  0  0  0  0  0
   18.0400  -13.5971  -15.4240 C   0  0  0  0  0  0  0  0  0  0  0  0
   18.2769  -12.1268  -15.6851 C   0  0  0  0  0  0  0  0  0  0  0  0
   17.4158  -11.2756  -14.7678 C   0  0  0  0  0  0  0  0  0  0  0  0
   16.0342  -11.4610  -15.2172 N   0  0  0  0  0  0  0  0  0  0  0  0
   17.4249  -16.5330  -16.2321 C   0  0  0  0  0  0  0  0  0  0  0  0
   16.9471  -16.5071  -17.4264 O   0  0  0  0  0  0  0  0  0  0  0  0
   16.5885  -17.1120  -15.2658 N   0  0  0  0  0  0  0  0  0  0  0  0
   15.2619  -17.6493  -15.5901 C   0  0  1  0  0  0  0  0  0  0  0  0
   15.2844  -19.0530  -16.0759 C   0  0  0  0  0  0  0  0  0  0  0  0
   15.6450  -19.1935  -17.4946 C   0  0  0  0  0  0  0  0  0  0  0  0
   14.8439  -18.7175  -18.5097 C   0  0  0  0  0  0  0  0  0  0  0  0
   15.2339  -18.8799  -19.8277 C   0  0  0  0  0  0  0  0  0  0  0  0
   16.4096  -19.5078  -20.1856 C   0  0  0  0  0  0  0  0  0  0  0  0
   17.2066  -19.9817  -19.1650 C   0  0  0  0  0  0  0  0  0  0  0  0
   16.8186  -19.8210  -17.8319 C   0  0  0  0  0  0  0  0  0  0  0  0
   14.4115  -17.5318  -14.3856 C   0  0  0  0  0  0  0  0  0  0  0  0
   14.8760  -17.1275  -13.3008 O   0  0  0  0  0  0  0  0  0  0  0  0
   13.0602  -17.8773  -14.4519 O   0  0  0  0  0  0  0  0  0  0  0  0
  2  1  1  1
  2  8  1  0
  3  2  1  0
  4  3  1  0
  4  5  1  0
  6  5  1  0
  6  7  1  0
  8  9  2  0
 10 11  1  0
 10  8  1  0
 11 17  1  0
 11 12  1  6
 13 12  1  0
 14 13  1  0
 15 14  1  0
 16 15  1  0
 17 18  2  0
 17 19  1  0
 19 20  1  0
 20 28  1  0
 20 21  1  1
 22 21  1  0
 23 22  2  0
 24 23  1  0
 25 26  1  0
 25 24  2  0
 26 27  2  0
 27 22  1  0
 28 29  2  0
 28 30  1  0
M  END
$$$$
