KKF.pdb
     RDKit          3D

 30 30  0  0  1  0  0  0  0  0999 V2000
   25.5495  -22.2552  -11.2015 N   0  0  0  0  0  0  0  0  0  0  0  0
   24.9018  -20.9580  -11.2820 C   0  0  1  0  0  0  0  0  0  0  0  0
   25.3488  -20.1203  -10.1360 C   0  0  0  0  0  0  0  0  0  0  0  0
   25.3169  -20.8697   -8.8305 C   0  0  0  0  0  0  0  0  0  0  0  0
   23.9155  -20.8880   -8.3105 C   0  0  0  0  0  0  0  0  0  0  0  0
   23.8239  -21.5103   -6.9287 C   0  0  0  0  0  0  0  0  0  0  0  0
   22.4598  -21.4689   -6.4442 N   0  0  0  0  0  0  0  0  0  0  0  0
   25.2478  -20.3207  -12.6018 C   0  0  0  0  0  0  0  0  0  0  0  0
   24.9273  -19.1260  -12.8259 O   0  0  0  0  0  0  0  0  0  0  0  0
   25.9334  -21.0927  -13.5679 N   0  0  0  0  0  0  0  0  0  0  0  0
   26.2328  -20.5768  -14.9268 C   0  0  1  0  0  0  0  0  0  0  0  0
   27.2231  -21.4919  -15.5556 C   0  0  0  0  0  0  0  0  0  0  0  0
   27.6793  -21.1970  -16.9291 C   0  0  0  0  0  0  0  0  0  0  0  0
   28.6480  -22.2106  -17.4953 C   0  0  0  0  0  0  0  0  0  0  0  0
   29.1442  -21.7703  -18.8618 C   0  0  0  0  0  0  0  0  0  0  0  0
   30.0353  -22.8325  -19.3338 N   0  0  0  0  0  0  0  0  0  0  0  0
   24.9477  -20.4337  -15.6576 C   0  0  0  0  0  0  0  0  0  0  0  0
   24.0571  -21.3534  -15.5298 O   0  0  0  0  0  0  0  0  0  0  0  0
   24.5900  -19.3674  -16.4965 N   0  0  0  0  0  0  0  0  0  0  0  0
   23.2377  -19.2145  -17.0455 C   0  0  1  0  0  0  0  0  0  0  0  0
   22.3878  -18.2572  -16.2917 C   0  0  0  0  0  0  0  0  0  0  0  0
   21.0787  -17.9985  -16.9095 C   0  0  0  0  0  0  0  0  0  0  0  0
   20.8413  -16.8947  -17.6995 C   0  0  0  0  0  0  0  0  0  0  0  0
   19.5878  -16.7018  -18.2537 C   0  0  0  0  0  0  0  0  0  0  0  0
   18.5404  -17.5772  -18.0516 C   0  0  0  0  0  0  0  0  0  0  0  0
   18.7846  -18.6797  -17.2601 C   0  0  0  0  0  0  0  0  0  0  0  0
   20.0481  -18.8804  -16.6974 C   0  0  0  0  0  0  0  0  0  0  0  0
   23.3602  -18.7962  -18.4590 C   0  0  0  0  0  0  0  0  0  0  0  0
   22.6430  -19.2973  -19.3480 O   0  0  0  0  0  0  0  0  0  0  0  0
   24.2940  -17.8218  -18.8176 O   0  0  0  0  0  0  0  0  0  0  0  0
  2  1  1  1
  2  8  1  0
  3  2  1  0
  4  3  1  0
  4  5  1  0
  6  5  1  0
  6  7  1  0
  8  9  2  0
 10 11  1  0
 10  8  1  0
 11 17  1  0
 11 12  1  6
 13 12  1  0
 14 13  1  0
 15 14  1  0
 16 15  1  0
 17 18  2  0
 17 19  1  0
 19 20  1  0
 20 28  1  0
 20 21  1  1
 22 21  1  0
 23 22  2  0
 24 23  1  0
 25 26  1  0
 25 24  2  0
 26 27  2  0
 27 22  1  0
 28 29  2  0
 28 30  1  0
M  END
$$$$
