KKF.pdb
     RDKit          3D

 30 30  0  0  1  0  0  0  0  0999 V2000
   22.2950  -13.3216  -21.6283 N   0  0  0  0  0  0  0  0  0  0  0  0
   22.6776  -12.7647  -20.3428 C   0  0  1  0  0  0  0  0  0  0  0  0
   24.1541  -12.8699  -20.1884 C   0  0  0  0  0  0  0  0  0  0  0  0
   24.6343  -14.2966  -20.2210 C   0  0  0  0  0  0  0  0  0  0  0  0
   24.6876  -14.8273  -18.8245 C   0  0  0  0  0  0  0  0  0  0  0  0
   25.0263  -16.3068  -18.7851 C   0  0  0  0  0  0  0  0  0  0  0  0
   24.9033  -16.8187  -17.4361 N   0  0  0  0  0  0  0  0  0  0  0  0
   22.2142  -11.3336  -20.2734 C   0  0  0  0  0  0  0  0  0  0  0  0
   21.9891  -10.6940  -21.3319 O   0  0  0  0  0  0  0  0  0  0  0  0
   22.0421  -10.7381  -19.0025 N   0  0  0  0  0  0  0  0  0  0  0  0
   21.5212   -9.3581  -18.8385 C   0  0  1  0  0  0  0  0  0  0  0  0
   20.1855   -9.2928  -19.4905 C   0  0  0  0  0  0  0  0  0  0  0  0
   19.0307   -9.8883  -18.7881 C   0  0  0  0  0  0  0  0  0  0  0  0
   17.7057   -9.6931  -19.4900 C   0  0  0  0  0  0  0  0  0  0  0  0
   16.5859  -10.3653  -18.7145 C   0  0  0  0  0  0  0  0  0  0  0  0
   16.6806  -11.7950  -19.0182 N   0  0  0  0  0  0  0  0  0  0  0  0
   21.5370   -9.0300  -17.3900 C   0  0  0  0  0  0  0  0  0  0  0  0
   21.1302   -9.9157  -16.5501 O   0  0  0  0  0  0  0  0  0  0  0  0
   21.9643   -7.8199  -16.8229 N   0  0  0  0  0  0  0  0  0  0  0  0
   22.0622   -7.6191  -15.3725 C   0  0  1  0  0  0  0  0  0  0  0  0
   23.4535   -7.4417  -14.8829 C   0  0  0  0  0  0  0  0  0  0  0  0
   24.3578   -8.5499  -15.2243 C   0  0  0  0  0  0  0  0  0  0  0  0
   24.4018   -9.7176  -14.4939 C   0  0  0  0  0  0  0  0  0  0  0  0
   25.2749  -10.7267  -14.8614 C   0  0  0  0  0  0  0  0  0  0  0  0
   26.1224  -10.6215  -15.9453 C   0  0  0  0  0  0  0  0  0  0  0  0
   26.0735   -9.4505  -16.6719 C   0  0  0  0  0  0  0  0  0  0  0  0
   25.1941   -8.4275  -16.3062 C   0  0  0  0  0  0  0  0  0  0  0  0
   21.2338   -6.4473  -15.0139 C   0  0  0  0  0  0  0  0  0  0  0  0
   20.7495   -5.7031  -15.8899 O   0  0  0  0  0  0  0  0  0  0  0  0
   20.9819   -6.1584  -13.6711 O   0  0  0  0  0  0  0  0  0  0  0  0
  2  1  1  6
  2  8  1  0
  3  2  1  0
  4  3  1  0
  4  5  1  0
  6  5  1  0
  6  7  1  0
  8  9  2  0
 10 11  1  0
 10  8  1  0
 11 17  1  0
 11 12  1  1
 13 12  1  0
 14 13  1  0
 15 14  1  0
 16 15  1  0
 17 18  2  0
 17 19  1  0
 19 20  1  0
 20 28  1  0
 20 21  1  6
 22 21  1  0
 23 22  2  0
 24 23  1  0
 25 26  1  0
 25 24  2  0
 26 27  2  0
 27 22  1  0
 28 29  2  0
 28 30  1  0
M  END
$$$$
