KKF.pdb
     RDKit          3D

 30 30  0  0  1  0  0  0  0  0999 V2000
   35.2670  -32.3912  -19.0758 N   0  0  0  0  0  0  0  0  0  0  0  0
   34.2695  -31.5516  -18.4363 C   0  0  1  0  0  0  0  0  0  0  0  0
   34.3360  -30.1857  -19.0237 C   0  0  0  0  0  0  0  0  0  0  0  0
   35.6458  -29.5008  -18.7367 C   0  0  0  0  0  0  0  0  0  0  0  0
   35.6694  -28.1779  -19.4325 C   0  0  0  0  0  0  0  0  0  0  0  0
   37.0064  -27.4742  -19.2828 C   0  0  0  0  0  0  0  0  0  0  0  0
   36.9860  -26.1977  -19.9662 N   0  0  0  0  0  0  0  0  0  0  0  0
   32.9115  -32.1724  -18.6312 C   0  0  0  0  0  0  0  0  0  0  0  0
   32.7825  -33.1831  -19.3675 O   0  0  0  0  0  0  0  0  0  0  0  0
   31.8016  -31.5950  -17.9723 N   0  0  0  0  0  0  0  0  0  0  0  0
   30.4835  -32.2729  -17.8989 C   0  0  1  0  0  0  0  0  0  0  0  0
   30.6858  -33.5981  -17.2537 C   0  0  0  0  0  0  0  0  0  0  0  0
   29.4954  -34.4052  -16.9176 C   0  0  0  0  0  0  0  0  0  0  0  0
   29.8081  -35.7557  -16.3138 C   0  0  0  0  0  0  0  0  0  0  0  0
   28.5289  -36.5275  -16.0393 C   0  0  0  0  0  0  0  0  0  0  0  0
   28.9424  -37.8158  -15.4782 N   0  0  0  0  0  0  0  0  0  0  0  0
   29.5379  -31.3648  -17.2006 C   0  0  0  0  0  0  0  0  0  0  0  0
   29.9023  -30.8267  -16.0902 O   0  0  0  0  0  0  0  0  0  0  0  0
   28.2506  -31.0191  -17.6386 N   0  0  0  0  0  0  0  0  0  0  0  0
   27.4314  -30.0078  -16.9606 C   0  0  1  0  0  0  0  0  0  0  0  0
   27.0738  -28.8496  -17.8195 C   0  0  0  0  0  0  0  0  0  0  0  0
   26.1905  -27.8690  -17.1710 C   0  0  0  0  0  0  0  0  0  0  0  0
   26.6770  -26.8274  -16.4112 C   0  0  0  0  0  0  0  0  0  0  0  0
   25.7974  -25.9354  -15.8228 C   0  0  0  0  0  0  0  0  0  0  0  0
   24.4282  -26.0375  -15.9608 C   0  0  0  0  0  0  0  0  0  0  0  0
   23.9479  -27.0820  -16.7223 C   0  0  0  0  0  0  0  0  0  0  0  0
   24.8307  -27.9864  -17.3192 C   0  0  0  0  0  0  0  0  0  0  0  0
   26.2113  -30.6709  -16.4512 C   0  0  0  0  0  0  0  0  0  0  0  0
   25.6802  -30.3169  -15.3795 O   0  0  0  0  0  0  0  0  0  0  0  0
   25.6332  -31.7153  -17.1758 O   0  0  0  0  0  0  0  0  0  0  0  0
  2  1  1  6
  2  8  1  0
  3  2  1  0
  4  3  1  0
  4  5  1  0
  6  5  1  0
  6  7  1  0
  8  9  2  0
 10 11  1  0
 10  8  1  0
 11 17  1  0
 11 12  1  1
 13 12  1  0
 14 13  1  0
 15 14  1  0
 16 15  1  0
 17 18  2  0
 17 19  1  0
 19 20  1  0
 20 28  1  0
 20 21  1  6
 22 21  1  0
 23 22  2  0
 24 23  1  0
 25 26  1  0
 25 24  2  0
 26 27  2  0
 27 22  1  0
 28 29  2  0
 28 30  1  0
M  END
$$$$
