ICG.pdb
     RDKit          3D

 19 18  0  0  1  0  0  0  0  0999 V2000
    7.4642  -12.1731   19.3700 C   0  0  0  0  0  0  0  0  0  0  0  0
    7.1475  -13.5136   19.9780 C   0  0  0  0  0  0  0  0  0  0  0  0
    8.0580  -13.8184   21.1386 C   0  0  2  0  0  0  0  0  0  0  0  0
    9.4920  -13.7177   20.6817 C   0  0  0  0  0  0  0  0  0  0  0  0
    7.7357  -15.2019   21.6614 C   0  0  2  0  0  0  0  0  0  0  0  0
    6.3437  -15.2325   22.0413 N   0  0  0  0  0  0  0  0  0  0  0  0
    8.6092  -15.5559   22.8084 C   0  0  0  0  0  0  0  0  0  0  0  0
    8.3907  -15.0236   23.9254 O   0  0  0  0  0  0  0  0  0  0  0  0
    9.6869  -16.4713   22.7099 N   0  0  0  0  0  0  0  0  0  0  0  0
   10.6272  -16.5915   23.7840 C   0  0  1  0  0  0  0  0  0  0  0  0
   10.4193  -17.9321   24.4812 C   0  0  0  0  0  0  0  0  0  0  0  0
   11.5269  -18.0041   25.9159 S   0  0  0  0  0  0  0  0  0  0  0  0
   12.0296  -16.4699   23.3261 C   0  0  0  0  0  0  0  0  0  0  0  0
   12.4232  -17.1499   22.3703 O   0  0  0  0  0  0  0  0  0  0  0  0
   12.8956  -15.5848   23.9819 N   0  0  0  0  0  0  0  0  0  0  0  0
   14.2018  -15.2265   23.4949 C   0  0  0  0  0  0  0  0  0  0  0  0
   15.1935  -16.2047   23.9696 C   0  0  0  0  0  0  0  0  0  0  0  0
   16.4885  -15.8063   24.1791 O   0  0  0  0  0  0  0  0  0  0  0  0
   14.9228  -17.4131   24.2012 O   0  0  0  0  0  0  0  0  0  0  0  0
  1  2  1  0
  2  3  1  0
  3  4  1  6
  3  5  1  0
  5  6  1  1
  7  5  1  0
  8  7  2  0
  9  7  1  0
 10  9  1  0
 10 13  1  0
 10 11  1  6
 12 11  1  0
 13 14  2  0
 13 15  1  0
 15 16  1  0
 16 17  1  0
 17 18  1  0
 19 17  2  0
M  END
$$$$
