ICG.pdb
     RDKit          3D

 19 18  0  0  1  0  0  0  0  0999 V2000
    7.5235  -12.3453   18.7623 C   0  0  0  0  0  0  0  0  0  0  0  0
    7.1272  -13.6250   19.4495 C   0  0  0  0  0  0  0  0  0  0  0  0
    7.7079  -13.7049   20.8371 C   0  0  2  0  0  0  0  0  0  0  0  0
    9.2120  -13.6344   20.7484 C   0  0  0  0  0  0  0  0  0  0  0  0
    7.2478  -14.9933   21.4850 C   0  0  2  0  0  0  0  0  0  0  0  0
    5.8112  -15.0726   21.3716 N   0  0  0  0  0  0  0  0  0  0  0  0
    7.6748  -15.0586   22.9053 C   0  0  0  0  0  0  0  0  0  0  0  0
    7.2360  -14.2007   23.7117 O   0  0  0  0  0  0  0  0  0  0  0  0
    8.5597  -16.0465   23.4052 N   0  0  0  0  0  0  0  0  0  0  0  0
    9.1332  -15.9026   24.7101 C   0  0  1  0  0  0  0  0  0  0  0  0
    8.0183  -15.9294   25.7507 C   0  0  0  0  0  0  0  0  0  0  0  0
    6.6818  -16.9838   25.1245 S   0  0  0  0  0  0  0  0  0  0  0  0
   10.1319  -16.9534   25.0096 C   0  0  0  0  0  0  0  0  0  0  0  0
    9.9133  -17.7656   25.9171 O   0  0  0  0  0  0  0  0  0  0  0  0
   11.3145  -17.0154   24.2606 N   0  0  0  0  0  0  0  0  0  0  0  0
   12.1540  -15.8794   23.9847 C   0  0  0  0  0  0  0  0  0  0  0  0
   13.5428  -16.1856   24.3630 C   0  0  0  0  0  0  0  0  0  0  0  0
   13.8343  -17.3930   24.9434 O   0  0  0  0  0  0  0  0  0  0  0  0
   14.5038  -15.3910   24.1836 O   0  0  0  0  0  0  0  0  0  0  0  0
  1  2  1  0
  2  3  1  0
  3  4  1  6
  3  5  1  0
  5  6  1  1
  7  5  1  0
  8  7  2  0
  9  7  1  0
 10  9  1  0
 10 13  1  0
 10 11  1  1
 12 11  1  0
 13 14  2  0
 13 15  1  0
 15 16  1  0
 16 17  1  0
 17 18  1  0
 19 17  2  0
M  END
$$$$
