ICG.pdb
     RDKit          3D

 19 18  0  0  1  0  0  0  0  0999 V2000
    7.8201  -11.6965   26.6971 C   0  0  0  0  0  0  0  0  0  0  0  0
    7.8376  -13.2003   26.6253 C   0  0  0  0  0  0  0  0  0  0  0  0
    6.5741  -13.7345   26.0031 C   0  0  2  0  0  0  0  0  0  0  0  0
    5.3924  -13.3019   26.8347 C   0  0  0  0  0  0  0  0  0  0  0  0
    6.6725  -15.2426   25.9170 C   0  0  2  0  0  0  0  0  0  0  0  0
    7.6037  -15.6965   26.9219 N   0  0  0  0  0  0  0  0  0  0  0  0
    7.0989  -15.6732   24.5618 C   0  0  0  0  0  0  0  0  0  0  0  0
    6.2356  -16.1236   23.7677 O   0  0  0  0  0  0  0  0  0  0  0  0
    8.4410  -15.6027   24.1113 N   0  0  0  0  0  0  0  0  0  0  0  0
    8.7474  -15.8272   22.7301 C   0  0  1  0  0  0  0  0  0  0  0  0
    8.0616  -14.7572   21.8866 C   0  0  0  0  0  0  0  0  0  0  0  0
    6.5483  -15.4702   21.1852 S   0  0  0  0  0  0  0  0  0  0  0  0
   10.2037  -15.8260   22.4649 C   0  0  0  0  0  0  0  0  0  0  0  0
   10.8927  -14.8665   22.8334 O   0  0  0  0  0  0  0  0  0  0  0  0
   10.7851  -16.9129   21.7987 N   0  0  0  0  0  0  0  0  0  0  0  0
   12.1671  -16.9684   21.4006 C   0  0  0  0  0  0  0  0  0  0  0  0
   13.0069  -17.2834   22.5671 C   0  0  0  0  0  0  0  0  0  0  0  0
   13.6109  -18.5113   22.6529 O   0  0  0  0  0  0  0  0  0  0  0  0
   13.2116  -16.4786   23.5146 O   0  0  0  0  0  0  0  0  0  0  0  0
  1  2  1  0
  2  3  1  0
  3  4  1  1
  3  5  1  0
  5  6  1  1
  7  5  1  0
  8  7  2  0
  9  7  1  0
 10  9  1  0
 10 13  1  0
 10 11  1  6
 12 11  1  0
 13 14  2  0
 13 15  1  0
 15 16  1  0
 16 17  1  0
 17 18  1  0
 19 17  2  0
M  END
$$$$
