ICG.pdb
     RDKit          3D

 19 18  0  0  1  0  0  0  0  0999 V2000
    7.8323  -11.8197   20.1571 C   0  0  0  0  0  0  0  0  0  0  0  0
    7.5956  -13.0398   21.0071 C   0  0  0  0  0  0  0  0  0  0  0  0
    8.3610  -14.2280   20.4863 C   0  0  2  0  0  0  0  0  0  0  0  0
    7.9099  -14.5282   19.0785 C   0  0  0  0  0  0  0  0  0  0  0  0
    8.1242  -15.4037   21.4098 C   0  0  2  0  0  0  0  0  0  0  0  0
    6.7205  -15.7372   21.3721 N   0  0  0  0  0  0  0  0  0  0  0  0
    8.5610  -15.0917   22.7939 C   0  0  0  0  0  0  0  0  0  0  0  0
    9.7671  -14.8065   23.0006 O   0  0  0  0  0  0  0  0  0  0  0  0
    7.6817  -15.0984   23.9055 N   0  0  0  0  0  0  0  0  0  0  0  0
    8.2036  -14.9826   25.2345 C   0  0  1  0  0  0  0  0  0  0  0  0
    7.0965  -14.4974   26.1648 C   0  0  0  0  0  0  0  0  0  0  0  0
    6.3176  -13.0431   25.4108 S   0  0  0  0  0  0  0  0  0  0  0  0
    8.7654  -16.2570   25.7361 C   0  0  0  0  0  0  0  0  0  0  0  0
    8.0612  -17.2744   25.7481 O   0  0  0  0  0  0  0  0  0  0  0  0
   10.0899  -16.2957   26.1918 N   0  0  0  0  0  0  0  0  0  0  0  0
   10.8608  -17.5037   26.3260 C   0  0  0  0  0  0  0  0  0  0  0  0
   10.7578  -18.0071   27.7050 C   0  0  0  0  0  0  0  0  0  0  0  0
   11.5044  -19.0922   28.0855 O   0  0  0  0  0  0  0  0  0  0  0  0
   10.0103  -17.4931   28.5791 O   0  0  0  0  0  0  0  0  0  0  0  0
  1  2  1  0
  2  3  1  0
  3  4  1  6
  3  5  1  0
  5  6  1  1
  7  5  1  0
  8  7  2  0
  9  7  1  0
 10  9  1  0
 10 13  1  0
 10 11  1  1
 12 11  1  0
 13 14  2  0
 13 15  1  0
 15 16  1  0
 16 17  1  0
 17 18  1  0
 19 17  2  0
M  END
$$$$
