ICG.pdb
     RDKit          3D

 19 18  0  0  1  0  0  0  0  0999 V2000
    7.5279  -12.2404   19.4965 C   0  0  0  0  0  0  0  0  0  0  0  0
    7.2115  -13.4511   20.3337 C   0  0  0  0  0  0  0  0  0  0  0  0
    8.3987  -13.8725   21.1595 C   0  0  2  0  0  0  0  0  0  0  0  0
    9.5745  -14.1159   20.2466 C   0  0  0  0  0  0  0  0  0  0  0  0
    8.0329  -15.1164   21.9406 C   0  0  2  0  0  0  0  0  0  0  0  0
    6.8603  -14.8294   22.7315 N   0  0  0  0  0  0  0  0  0  0  0  0
    9.1603  -15.5580   22.7996 C   0  0  0  0  0  0  0  0  0  0  0  0
    9.4190  -14.9087   23.8438 O   0  0  0  0  0  0  0  0  0  0  0  0
    9.9684  -16.6838   22.5020 N   0  0  0  0  0  0  0  0  0  0  0  0
   11.1808  -16.9101   23.2307 C   0  0  1  0  0  0  0  0  0  0  0  0
   11.1880  -18.3426   23.7546 C   0  0  0  0  0  0  0  0  0  0  0  0
    9.8760  -18.4998   24.9972 S   0  0  0  0  0  0  0  0  0  0  0  0
   12.3890  -16.6633   22.4119 C   0  0  0  0  0  0  0  0  0  0  0  0
   12.3270  -16.7704   21.1807 O   0  0  0  0  0  0  0  0  0  0  0  0
   13.5899  -16.3110   23.0420 N   0  0  0  0  0  0  0  0  0  0  0  0
   14.8172  -16.0375   22.3416 C   0  0  0  0  0  0  0  0  0  0  0  0
   15.8579  -15.6379   23.3021 C   0  0  0  0  0  0  0  0  0  0  0  0
   17.1148  -15.3318   22.8480 O   0  0  0  0  0  0  0  0  0  0  0  0
   15.6639  -15.5570   24.5443 O   0  0  0  0  0  0  0  0  0  0  0  0
  1  2  1  0
  2  3  1  0
  3  4  1  6
  3  5  1  0
  5  6  1  1
  7  5  1  0
  8  7  2  0
  9  7  1  0
 10  9  1  0
 10 13  1  0
 10 11  1  6
 12 11  1  0
 13 14  2  0
 13 15  1  0
 15 16  1  0
 16 17  1  0
 17 18  1  0
 19 17  2  0
M  END
$$$$
