ICG.pdb
     RDKit          3D

 19 18  0  0  1  0  0  0  0  0999 V2000
    6.0762  -11.7599   27.5159 C   0  0  0  0  0  0  0  0  0  0  0  0
    5.7331  -13.0336   26.7900 C   0  0  0  0  0  0  0  0  0  0  0  0
    6.9567  -13.6618   26.1761 C   0  0  2  0  0  0  0  0  0  0  0  0
    7.6328  -12.6543   25.2799 C   0  0  0  0  0  0  0  0  0  0  0  0
    6.5379  -14.8974   25.4086 C   0  0  2  0  0  0  0  0  0  0  0  0
    5.9951  -15.8527   26.3444 N   0  0  0  0  0  0  0  0  0  0  0  0
    7.6831  -15.4751   24.6611 C   0  0  0  0  0  0  0  0  0  0  0  0
    8.4831  -16.2324   25.2653 O   0  0  0  0  0  0  0  0  0  0  0  0
    7.9245  -15.2155   23.2887 N   0  0  0  0  0  0  0  0  0  0  0  0
    8.9609  -15.9213   22.5960 C   0  0  1  0  0  0  0  0  0  0  0  0
    8.8158  -15.6763   21.0975 C   0  0  0  0  0  0  0  0  0  0  0  0
    7.2100  -16.3325   20.5674 S   0  0  0  0  0  0  0  0  0  0  0  0
   10.3146  -15.5260   23.0459 C   0  0  0  0  0  0  0  0  0  0  0  0
   10.6164  -14.3272   23.1000 O   0  0  0  0  0  0  0  0  0  0  0  0
   11.2391  -16.5157   23.4055 N   0  0  0  0  0  0  0  0  0  0  0  0
   12.5468  -16.2406   23.9400 C   0  0  0  0  0  0  0  0  0  0  0  0
   13.5719  -16.5694   22.9367 C   0  0  0  0  0  0  0  0  0  0  0  0
   14.8943  -16.3518   23.2258 O   0  0  0  0  0  0  0  0  0  0  0  0
   13.3064  -17.0492   21.8025 O   0  0  0  0  0  0  0  0  0  0  0  0
  1  2  1  0
  2  3  1  0
  3  4  1  6
  3  5  1  0
  5  6  1  1
  7  5  1  0
  8  7  2  0
  9  7  1  0
 10  9  1  0
 10 13  1  0
 10 11  1  6
 12 11  1  0
 13 14  2  0
 13 15  1  0
 15 16  1  0
 16 17  1  0
 17 18  1  0
 19 17  2  0
M  END
$$$$
