ICG.pdb
     RDKit          3D

 19 18  0  0  1  0  0  0  0  0999 V2000
    7.1322  -12.2659   19.0620 C   0  0  0  0  0  0  0  0  0  0  0  0
    7.0869  -13.7066   19.4972 C   0  0  0  0  0  0  0  0  0  0  0  0
    7.6722  -13.8824   20.8739 C   0  0  2  0  0  0  0  0  0  0  0  0
    9.1191  -13.4564   20.8540 C   0  0  0  0  0  0  0  0  0  0  0  0
    7.5238  -15.3314   21.2857 C   0  0  2  0  0  0  0  0  0  0  0  0
    6.1287  -15.6899   21.1960 N   0  0  0  0  0  0  0  0  0  0  0  0
    8.0437  -15.5520   22.6586 C   0  0  0  0  0  0  0  0  0  0  0  0
    7.2523  -15.4591   23.6302 O   0  0  0  0  0  0  0  0  0  0  0  0
    9.3983  -15.8649   22.9348 N   0  0  0  0  0  0  0  0  0  0  0  0
    9.7995  -16.2037   24.2677 C   0  0  1  0  0  0  0  0  0  0  0  0
    9.1712  -17.5389   24.6536 C   0  0  0  0  0  0  0  0  0  0  0  0
    9.6859  -18.7818   23.4369 S   0  0  0  0  0  0  0  0  0  0  0  0
   11.2707  -16.2735   24.4165 C   0  0  0  0  0  0  0  0  0  0  0  0
   11.7665  -16.4156   25.5412 O   0  0  0  0  0  0  0  0  0  0  0  0
   12.0849  -16.1776   23.2802 N   0  0  0  0  0  0  0  0  0  0  0  0
   13.4691  -15.7844   23.3117 C   0  0  0  0  0  0  0  0  0  0  0  0
   14.2696  -16.8387   23.9544 C   0  0  0  0  0  0  0  0  0  0  0  0
   15.6301  -16.6945   24.0431 O   0  0  0  0  0  0  0  0  0  0  0  0
   13.7736  -17.8902   24.4398 O   0  0  0  0  0  0  0  0  0  0  0  0
  1  2  1  0
  2  3  1  0
  3  4  1  6
  3  5  1  0
  5  6  1  1
  7  5  1  0
  8  7  2  0
  9  7  1  0
 10  9  1  0
 10 13  1  0
 10 11  1  6
 12 11  1  0
 13 14  2  0
 13 15  1  0
 15 16  1  0
 16 17  1  0
 17 18  1  0
 19 17  2  0
M  END
$$$$
