ICG.pdb
     RDKit          3D

 19 18  0  0  1  0  0  0  0  0999 V2000
   10.4174  -18.2837   29.7011 C   0  0  0  0  0  0  0  0  0  0  0  0
    8.9750  -18.0566   29.3340 C   0  0  0  0  0  0  0  0  0  0  0  0
    8.8450  -17.4948   27.9424 C   0  0  2  0  0  0  0  0  0  0  0  0
    9.5733  -16.1758   27.8719 C   0  0  0  0  0  0  0  0  0  0  0  0
    7.3756  -17.3381   27.6148 C   0  0  2  0  0  0  0  0  0  0  0  0
    6.7820  -18.6517   27.5436 N   0  0  0  0  0  0  0  0  0  0  0  0
    7.1887  -16.5989   26.3410 C   0  0  0  0  0  0  0  0  0  0  0  0
    7.1740  -17.2422   25.2618 O   0  0  0  0  0  0  0  0  0  0  0  0
    7.0243  -15.1925   26.2765 N   0  0  0  0  0  0  0  0  0  0  0  0
    6.9415  -14.5369   25.0055 C   0  0  1  0  0  0  0  0  0  0  0  0
    6.0876  -13.2809   25.1467 C   0  0  0  0  0  0  0  0  0  0  0  0
    6.6416  -12.3799   26.6203 S   0  0  0  0  0  0  0  0  0  0  0  0
    8.2724  -14.1868   24.4603 C   0  0  0  0  0  0  0  0  0  0  0  0
    8.8507  -13.1693   24.8621 O   0  0  0  0  0  0  0  0  0  0  0  0
    8.8621  -15.0131   23.4946 N   0  0  0  0  0  0  0  0  0  0  0  0
   10.1071  -14.7198   22.8347 C   0  0  0  0  0  0  0  0  0  0  0  0
   10.4265  -15.7920   21.8788 C   0  0  0  0  0  0  0  0  0  0  0  0
   11.7292  -16.1882   21.7185 O   0  0  0  0  0  0  0  0  0  0  0  0
    9.5595  -16.3832   21.1816 O   0  0  0  0  0  0  0  0  0  0  0  0
  1  2  1  0
  2  3  1  0
  3  4  1  1
  3  5  1  0
  5  6  1  6
  7  5  1  0
  8  7  2  0
  9  7  1  0
 10  9  1  0
 10 13  1  0
 10 11  1  1
 12 11  1  0
 13 14  2  0
 13 15  1  0
 15 16  1  0
 16 17  1  0
 17 18  1  0
 19 17  2  0
M  END
$$$$
