ICG.pdb
     RDKit          3D

 19 18  0  0  1  0  0  0  0  0999 V2000
    8.1932  -11.9715   20.0708 C   0  0  0  0  0  0  0  0  0  0  0  0
    7.7741  -13.0662   21.0158 C   0  0  0  0  0  0  0  0  0  0  0  0
    8.0873  -14.4274   20.4518 C   0  0  2  0  0  0  0  0  0  0  0  0
    7.3610  -14.5983   19.1408 C   0  0  0  0  0  0  0  0  0  0  0  0
    7.6744  -15.4795   21.4586 C   0  0  2  0  0  0  0  0  0  0  0  0
    6.2541  -15.3604   21.6855 N   0  0  0  0  0  0  0  0  0  0  0  0
    8.4311  -15.3304   22.7271 C   0  0  0  0  0  0  0  0  0  0  0  0
    7.9651  -14.5901   23.6292 O   0  0  0  0  0  0  0  0  0  0  0  0
    9.6631  -15.9848   22.9776 N   0  0  0  0  0  0  0  0  0  0  0  0
   10.3112  -15.8342   24.2463 C   0  0  1  0  0  0  0  0  0  0  0  0
    9.3880  -16.3553   25.3431 C   0  0  0  0  0  0  0  0  0  0  0  0
    8.7090  -14.9313   26.2382 S   0  0  0  0  0  0  0  0  0  0  0  0
   11.6138  -16.5350   24.3044 C   0  0  0  0  0  0  0  0  0  0  0  0
   11.6649  -17.7522   24.0879 O   0  0  0  0  0  0  0  0  0  0  0  0
   12.7749  -15.8102   24.6043 N   0  0  0  0  0  0  0  0  0  0  0  0
   13.7239  -15.3648   23.6180 C   0  0  0  0  0  0  0  0  0  0  0  0
   15.0405  -15.9626   23.8913 C   0  0  0  0  0  0  0  0  0  0  0  0
   15.3432  -17.1955   23.3736 O   0  0  0  0  0  0  0  0  0  0  0  0
   15.9285  -15.4012   24.5867 O   0  0  0  0  0  0  0  0  0  0  0  0
  1  2  1  0
  2  3  1  0
  3  4  1  6
  3  5  1  0
  5  6  1  1
  7  5  1  0
  8  7  2  0
  9  7  1  0
 10  9  1  0
 10 13  1  0
 10 11  1  1
 12 11  1  0
 13 14  2  0
 13 15  1  0
 15 16  1  0
 16 17  1  0
 17 18  1  0
 19 17  2  0
M  END
$$$$
