GLI.pdb
     RDKit          3D

 21 20  0  0  1  0  0  0  0  0999 V2000
   12.8892  -17.0539   19.5827 N   0  0  0  0  0  0  0  0  0  0  0  0
   11.7060  -17.5552   20.2120 C   0  0  0  0  0  0  0  0  0  0  0  0
   11.1901  -16.6237   21.2473 C   0  0  0  0  0  0  0  0  0  0  0  0
   11.9836  -16.1414   22.0816 O   0  0  0  0  0  0  0  0  0  0  0  0
    6.1922  -13.7351   20.9555 C   0  0  0  0  0  0  0  0  0  0  0  0
    7.7062  -14.0262   21.0002 C   0  0  1  0  0  0  0  0  0  0  0  0
    8.4272  -12.7305   20.9379 C   0  0  0  0  0  0  0  0  0  0  0  0
    7.9341  -14.8772   22.1830 C   0  0  0  0  0  0  0  0  0  0  0  0
    9.2774  -15.4584   22.3942 C   0  0  2  0  0  0  0  0  0  0  0  0
    9.8193  -16.2479   21.3379 N   0  0  0  0  0  0  0  0  0  0  0  0
    9.3924  -16.1697   23.7159 C   0  0  0  0  0  0  0  0  0  0  0  0
    9.5349  -17.4014   23.7287 O   0  0  0  0  0  0  0  0  0  0  0  0
   10.0272  -12.6722   28.0685 C   0  0  0  0  0  0  0  0  0  0  0  0
   10.2395  -13.7701   27.0857 C   0  0  0  0  0  0  0  0  0  0  0  0
    9.4788  -15.0152   27.2749 C   0  0  2  0  0  0  0  0  0  0  0  0
    9.6029  -15.5130   28.7153 C   0  0  0  0  0  0  0  0  0  0  0  0
    9.5274  -16.0842   26.2490 C   0  0  2  0  0  0  0  0  0  0  0  0
    9.3393  -15.4519   24.9117 N   0  0  0  0  0  0  0  0  0  0  0  0
    8.4980  -17.0907   26.4080 C   0  0  0  0  0  0  0  0  0  0  0  0
    8.6123  -18.3113   27.0649 O   0  0  0  0  0  0  0  0  0  0  0  0
    7.3409  -16.8872   25.9041 O   0  0  0  0  0  0  0  0  0  0  0  0
  2  1  1  0
  3  2  1  0
  4  3  2  0
  6  5  1  1
  6  8  1  0
  7  6  1  0
  9  8  1  6
  9 10  1  0
  9 11  1  0
 10  3  1  0
 11 12  2  0
 14 13  1  0
 15 14  1  0
 15 16  1  1
 17 15  1  0
 18 11  1  0
 17 18  1  6
 19 20  1  0
 19 17  1  0
 21 19  2  0
M  END
$$$$
