GLI.pdb
     RDKit          3D

 21 20  0  0  1  0  0  0  0  0999 V2000
    6.1070  -19.9610   23.5760 N   0  0  0  0  0  0  0  0  0  0  0  0
    5.6652  -18.6008   23.5322 C   0  0  0  0  0  0  0  0  0  0  0  0
    6.6943  -17.7008   22.9517 C   0  0  0  0  0  0  0  0  0  0  0  0
    7.8604  -18.1227   22.8081 O   0  0  0  0  0  0  0  0  0  0  0  0
    7.9033  -13.8640   19.0445 C   0  0  0  0  0  0  0  0  0  0  0  0
    7.9438  -13.4946   20.5415 C   0  0  1  0  0  0  0  0  0  0  0  0
    7.7865  -12.0235   20.6580 C   0  0  0  0  0  0  0  0  0  0  0  0
    6.9393  -14.3430   21.2094 C   0  0  0  0  0  0  0  0  0  0  0  0
    7.4028  -15.4536   22.0686 C   0  0  2  0  0  0  0  0  0  0  0  0
    6.4151  -16.3646   22.5454 N   0  0  0  0  0  0  0  0  0  0  0  0
    8.2884  -14.9795   23.1898 C   0  0  0  0  0  0  0  0  0  0  0  0
    9.4279  -14.5676   22.9267 O   0  0  0  0  0  0  0  0  0  0  0  0
    6.8438  -11.4568   25.8546 C   0  0  0  0  0  0  0  0  0  0  0  0
    6.6458  -12.9273   25.9757 C   0  0  0  0  0  0  0  0  0  0  0  0
    7.7455  -13.7218   26.5449 C   0  0  2  0  0  0  0  0  0  0  0  0
    8.4667  -12.9406   27.6437 C   0  0  0  0  0  0  0  0  0  0  0  0
    8.6405  -14.5029   25.6578 C   0  0  2  0  0  0  0  0  0  0  0  0
    7.8324  -15.0031   24.5087 N   0  0  0  0  0  0  0  0  0  0  0  0
    9.2433  -15.6506   26.3038 C   0  0  0  0  0  0  0  0  0  0  0  0
   10.4804  -15.7032   26.9372 O   0  0  0  0  0  0  0  0  0  0  0  0
    8.6137  -16.7631   26.3176 O   0  0  0  0  0  0  0  0  0  0  0  0
  2  1  1  0
  3  2  1  0
  4  3  2  0
  6  5  1  6
  6  8  1  0
  7  6  1  0
  9  8  1  1
  9 10  1  0
  9 11  1  0
 10  3  1  0
 11 12  2  0
 14 13  1  0
 15 14  1  0
 15 16  1  6
 17 15  1  0
 18 11  1  0
 17 18  1  6
 19 20  1  0
 19 17  1  0
 21 19  2  0
M  END
$$$$
