GLI.pdb
     RDKit          3D

 21 20  0  0  1  0  0  0  0  0999 V2000
    7.4065  -20.3178   21.3766 N   0  0  0  0  0  0  0  0  0  0  0  0
    7.3936  -19.4560   22.5187 C   0  0  0  0  0  0  0  0  0  0  0  0
    8.0838  -18.1684   22.2510 C   0  0  0  0  0  0  0  0  0  0  0  0
    9.3317  -18.1361   22.2484 O   0  0  0  0  0  0  0  0  0  0  0  0
    8.5776  -13.7434   19.4255 C   0  0  0  0  0  0  0  0  0  0  0  0
    7.8709  -13.3795   20.7474 C   0  0  1  0  0  0  0  0  0  0  0  0
    7.0239  -12.1854   20.5042 C   0  0  0  0  0  0  0  0  0  0  0  0
    7.2009  -14.6070   21.2156 C   0  0  0  0  0  0  0  0  0  0  0  0
    8.0250  -15.6971   21.7807 C   0  0  2  0  0  0  0  0  0  0  0  0
    7.3860  -16.9537   21.9939 N   0  0  0  0  0  0  0  0  0  0  0  0
    8.7881  -15.2633   23.0037 C   0  0  0  0  0  0  0  0  0  0  0  0
    9.9952  -14.9995   22.9006 O   0  0  0  0  0  0  0  0  0  0  0  0
    6.0800  -11.9713   26.1718 C   0  0  0  0  0  0  0  0  0  0  0  0
    7.1662  -12.6949   25.4556 C   0  0  0  0  0  0  0  0  0  0  0  0
    7.8704  -13.7642   26.1805 C   0  0  2  0  0  0  0  0  0  0  0  0
    8.3684  -13.2632   27.5365 C   0  0  0  0  0  0  0  0  0  0  0  0
    8.8199  -14.6514   25.4668 C   0  0  2  0  0  0  0  0  0  0  0  0
    8.1449  -15.1595   24.2380 N   0  0  0  0  0  0  0  0  0  0  0  0
    9.2403  -15.7991   26.2438 C   0  0  0  0  0  0  0  0  0  0  0  0
   10.3503  -15.8873   27.0771 O   0  0  0  0  0  0  0  0  0  0  0  0
    8.5541  -16.8764   26.1900 O   0  0  0  0  0  0  0  0  0  0  0  0
  2  1  1  0
  3  2  1  0
  4  3  2  0
  6  5  1  6
  6  8  1  0
  7  6  1  0
  9  8  1  1
  9 10  1  0
  9 11  1  0
 10  3  1  0
 11 12  2  0
 14 13  1  0
 15 14  1  0
 15 16  1  1
 17 15  1  0
 18 11  1  0
 17 18  1  6
 19 20  1  0
 19 17  1  0
 21 19  2  0
M  END
$$$$
