GLI.pdb
     RDKit          3D

 21 20  0  0  1  0  0  0  0  0999 V2000
    5.9296  -19.5187   22.4939 N   0  0  0  0  0  0  0  0  0  0  0  0
    5.6275  -18.1350   22.6971 C   0  0  0  0  0  0  0  0  0  0  0  0
    6.8122  -17.2684   22.4700 C   0  0  0  0  0  0  0  0  0  0  0  0
    7.9404  -17.7937   22.3725 O   0  0  0  0  0  0  0  0  0  0  0  0
    7.2082  -12.3401   19.4976 C   0  0  0  0  0  0  0  0  0  0  0  0
    7.5282  -13.7772   19.9575 C   0  0  1  0  0  0  0  0  0  0  0  0
    8.7186  -14.2476   19.2064 C   0  0  0  0  0  0  0  0  0  0  0  0
    7.6229  -13.7346   21.4286 C   0  0  0  0  0  0  0  0  0  0  0  0
    7.8506  -14.9969   22.1645 C   0  0  2  0  0  0  0  0  0  0  0  0
    6.7256  -15.8514   22.3564 N   0  0  0  0  0  0  0  0  0  0  0  0
    8.5933  -14.7811   23.4560 C   0  0  0  0  0  0  0  0  0  0  0  0
    9.7485  -14.3319   23.4209 O   0  0  0  0  0  0  0  0  0  0  0  0
    5.7045  -12.2884   26.8275 C   0  0  0  0  0  0  0  0  0  0  0  0
    6.7853  -12.9508   26.0467 C   0  0  0  0  0  0  0  0  0  0  0  0
    7.6505  -13.9093   26.7520 C   0  0  2  0  0  0  0  0  0  0  0  0
    8.2257  -13.2864   28.0243 C   0  0  0  0  0  0  0  0  0  0  0  0
    8.6063  -14.7518   25.9940 C   0  0  2  0  0  0  0  0  0  0  0  0
    7.9892  -15.0828   24.6775 N   0  0  0  0  0  0  0  0  0  0  0  0
    8.9318  -15.9998   26.6531 C   0  0  0  0  0  0  0  0  0  0  0  0
    8.4847  -17.2713   26.3100 O   0  0  0  0  0  0  0  0  0  0  0  0
    9.7067  -15.9868   27.6697 O   0  0  0  0  0  0  0  0  0  0  0  0
  2  1  1  0
  3  2  1  0
  4  3  2  0
  6  5  1  6
  6  8  1  0
  7  6  1  0
  9  8  1  1
  9 10  1  0
  9 11  1  0
 10  3  1  0
 11 12  2  0
 14 13  1  0
 15 14  1  0
 15 16  1  1
 17 15  1  0
 18 11  1  0
 17 18  1  6
 19 20  1  0
 19 17  1  0
 21 19  2  0
M  END
$$$$
