GLI.pdb
     RDKit          3D

 21 20  0  0  1  0  0  0  0  0999 V2000
    9.9355  -16.2118   19.9216 N   0  0  0  0  0  0  0  0  0  0  0  0
    8.9907  -16.6663   20.8952 C   0  0  0  0  0  0  0  0  0  0  0  0
    9.0818  -15.8942   22.1606 C   0  0  0  0  0  0  0  0  0  0  0  0
   10.2003  -15.5086   22.5589 O   0  0  0  0  0  0  0  0  0  0  0  0
    7.5773  -12.1058   25.4604 C   0  0  0  0  0  0  0  0  0  0  0  0
    6.8758  -13.4035   25.9110 C   0  0  1  0  0  0  0  0  0  0  0  0
    5.6068  -13.0320   26.5847 C   0  0  0  0  0  0  0  0  0  0  0  0
    6.7876  -14.2673   24.7190 C   0  0  0  0  0  0  0  0  0  0  0  0
    8.0157  -14.9259   24.2240 C   0  0  2  0  0  0  0  0  0  0  0  0
    7.9441  -15.5672   22.9527 N   0  0  0  0  0  0  0  0  0  0  0  0
    8.6343  -15.8328   25.2540 C   0  0  0  0  0  0  0  0  0  0  0  0
    8.3685  -17.0437   25.2304 O   0  0  0  0  0  0  0  0  0  0  0  0
   11.0035  -13.7193   30.0727 C   0  0  0  0  0  0  0  0  0  0  0  0
   10.2459  -14.5642   29.1091 C   0  0  0  0  0  0  0  0  0  0  0  0
   11.0138  -15.2991   28.0918 C   0  0  2  0  0  0  0  0  0  0  0  0
   12.0943  -14.4077   27.4791 C   0  0  0  0  0  0  0  0  0  0  0  0
   10.3189  -16.1780   27.1209 C   0  0  2  0  0  0  0  0  0  0  0  0
    9.4962  -15.3172   26.2232 N   0  0  0  0  0  0  0  0  0  0  0  0
    9.4322  -17.1419   27.7394 C   0  0  0  0  0  0  0  0  0  0  0  0
    8.0441  -17.0841   27.8043 O   0  0  0  0  0  0  0  0  0  0  0  0
    9.9284  -18.1747   28.3062 O   0  0  0  0  0  0  0  0  0  0  0  0
  2  1  1  0
  3  2  1  0
  4  3  2  0
  6  5  1  6
  6  8  1  0
  7  6  1  0
  9  8  1  1
  9 10  1  0
  9 11  1  0
 10  3  1  0
 11 12  2  0
 14 13  1  0
 15 14  1  0
 15 16  1  6
 17 15  1  0
 18 11  1  0
 17 18  1  6
 19 20  1  0
 19 17  1  0
 21 19  2  0
M  END
$$$$
