GLI.pdb
     RDKit          3D

 21 20  0  0  1  0  0  0  0  0999 V2000
    6.0095  -19.5649   23.7252 N   0  0  0  0  0  0  0  0  0  0  0  0
    5.9607  -18.1616   24.0001 C   0  0  0  0  0  0  0  0  0  0  0  0
    7.0998  -17.4348   23.3837 C   0  0  0  0  0  0  0  0  0  0  0  0
    8.0038  -18.0859   22.8205 O   0  0  0  0  0  0  0  0  0  0  0  0
    7.2945  -12.4574   20.6859 C   0  0  0  0  0  0  0  0  0  0  0  0
    7.4907  -13.9488   21.0272 C   0  0  1  0  0  0  0  0  0  0  0  0
    8.1676  -14.5998   19.8781 C   0  0  0  0  0  0  0  0  0  0  0  0
    8.1720  -13.9930   22.3344 C   0  0  0  0  0  0  0  0  0  0  0  0
    8.3784  -15.3043   22.9861 C   0  0  2  0  0  0  0  0  0  0  0  0
    7.2148  -16.0153   23.4025 N   0  0  0  0  0  0  0  0  0  0  0  0
    9.3985  -15.2405   24.0912 C   0  0  0  0  0  0  0  0  0  0  0  0
   10.5541  -14.8775   23.8265 O   0  0  0  0  0  0  0  0  0  0  0  0
    8.1651  -12.2673   27.8950 C   0  0  0  0  0  0  0  0  0  0  0  0
    8.8869  -13.1622   26.9493 C   0  0  0  0  0  0  0  0  0  0  0  0
    9.4183  -14.4292   27.4759 C   0  0  2  0  0  0  0  0  0  0  0  0
   10.2526  -14.1861   28.7339 C   0  0  0  0  0  0  0  0  0  0  0  0
    9.9790  -15.4455   26.5536 C   0  0  2  0  0  0  0  0  0  0  0  0
    9.0479  -15.5858   25.3974 N   0  0  0  0  0  0  0  0  0  0  0  0
   10.1339  -16.7543   27.1545 C   0  0  0  0  0  0  0  0  0  0  0  0
    9.3706  -17.8892   26.9018 O   0  0  0  0  0  0  0  0  0  0  0  0
   11.0546  -16.9394   28.0219 O   0  0  0  0  0  0  0  0  0  0  0  0
  2  1  1  0
  3  2  1  0
  4  3  2  0
  6  5  1  6
  6  8  1  0
  7  6  1  0
  9  8  1  1
  9 10  1  0
  9 11  1  0
 10  3  1  0
 11 12  2  0
 14 13  1  0
 15 14  1  0
 15 16  1  1
 17 15  1  0
 18 11  1  0
 17 18  1  6
 19 20  1  0
 19 17  1  0
 21 19  2  0
M  END
$$$$
