GLI.pdb
     RDKit          3D

 21 20  0  0  1  0  0  0  0  0999 V2000
    5.8923  -19.8785   22.8642 N   0  0  0  0  0  0  0  0  0  0  0  0
    5.5145  -18.5002   22.9336 C   0  0  0  0  0  0  0  0  0  0  0  0
    6.6034  -17.6017   22.4721 C   0  0  0  0  0  0  0  0  0  0  0  0
    7.7671  -18.0467   22.3935 O   0  0  0  0  0  0  0  0  0  0  0  0
    7.3716  -12.2989   19.4196 C   0  0  0  0  0  0  0  0  0  0  0  0
    7.9429  -13.6531   19.8872 C   0  0  1  0  0  0  0  0  0  0  0  0
    9.3609  -13.4469   20.2737 C   0  0  0  0  0  0  0  0  0  0  0  0
    7.0216  -14.1619   20.9203 C   0  0  0  0  0  0  0  0  0  0  0  0
    7.4204  -15.3474   21.7091 C   0  0  2  0  0  0  0  0  0  0  0  0
    6.3850  -16.2416   22.1103 N   0  0  0  0  0  0  0  0  0  0  0  0
    8.3080  -14.9902   22.8713 C   0  0  0  0  0  0  0  0  0  0  0  0
    9.4479  -14.5556   22.6498 O   0  0  0  0  0  0  0  0  0  0  0  0
    7.0165  -11.6053   27.5075 C   0  0  0  0  0  0  0  0  0  0  0  0
    7.9883  -12.6225   27.0202 C   0  0  0  0  0  0  0  0  0  0  0  0
    7.5814  -13.4720   25.8899 C   0  0  2  0  0  0  0  0  0  0  0  0
    6.1396  -13.9507   26.0627 C   0  0  0  0  0  0  0  0  0  0  0  0
    8.5088  -14.4964   25.3529 C   0  0  2  0  0  0  0  0  0  0  0  0
    7.8534  -15.1463   24.1817 N   0  0  0  0  0  0  0  0  0  0  0  0
    8.8406  -15.5369   26.3042 C   0  0  0  0  0  0  0  0  0  0  0  0
    9.7828  -15.4710   27.3252 O   0  0  0  0  0  0  0  0  0  0  0  0
    8.2342  -16.6605   26.2393 O   0  0  0  0  0  0  0  0  0  0  0  0
  2  1  1  0
  3  2  1  0
  4  3  2  0
  6  5  1  1
  6  8  1  0
  7  6  1  0
  9  8  1  1
  9 10  1  0
  9 11  1  0
 10  3  1  0
 11 12  2  0
 14 13  1  0
 15 14  1  0
 15 16  1  1
 17 15  1  0
 18 11  1  0
 17 18  1  6
 19 20  1  0
 19 17  1  0
 21 19  2  0
M  END
$$$$
