GLI.pdb
     RDKit          3D

 21 20  0  0  1  0  0  0  0  0999 V2000
    5.9519  -19.8969   23.5027 N   0  0  0  0  0  0  0  0  0  0  0  0
    5.5861  -18.5137   23.4926 C   0  0  0  0  0  0  0  0  0  0  0  0
    6.6698  -17.6564   22.9479 C   0  0  0  0  0  0  0  0  0  0  0  0
    7.8299  -18.1122   22.8796 O   0  0  0  0  0  0  0  0  0  0  0  0
    8.5162  -14.1625   19.2607 C   0  0  0  0  0  0  0  0  0  0  0  0
    8.1551  -13.4810   20.5964 C   0  0  1  0  0  0  0  0  0  0  0  0
    7.8436  -12.0569   20.3184 C   0  0  0  0  0  0  0  0  0  0  0  0
    7.0969  -14.3027   21.2130 C   0  0  0  0  0  0  0  0  0  0  0  0
    7.4885  -15.4479   22.0627 C   0  0  2  0  0  0  0  0  0  0  0  0
    6.4501  -16.3244   22.4940 N   0  0  0  0  0  0  0  0  0  0  0  0
    8.3611  -15.0328   23.2170 C   0  0  0  0  0  0  0  0  0  0  0  0
    9.5088  -14.6222   22.9897 O   0  0  0  0  0  0  0  0  0  0  0  0
    5.8026  -12.0897   26.6614 C   0  0  0  0  0  0  0  0  0  0  0  0
    6.8283  -12.7768   25.8293 C   0  0  0  0  0  0  0  0  0  0  0  0
    7.7213  -13.7365   26.4974 C   0  0  2  0  0  0  0  0  0  0  0  0
    8.3543  -13.1128   27.7416 C   0  0  0  0  0  0  0  0  0  0  0  0
    8.6400  -14.5832   25.6994 C   0  0  2  0  0  0  0  0  0  0  0  0
    7.8842  -15.1091   24.5265 N   0  0  0  0  0  0  0  0  0  0  0  0
    9.1658  -15.7189   26.4286 C   0  0  0  0  0  0  0  0  0  0  0  0
   10.3495  -15.7736   27.1566 O   0  0  0  0  0  0  0  0  0  0  0  0
    8.5120  -16.8175   26.4316 O   0  0  0  0  0  0  0  0  0  0  0  0
  2  1  1  0
  3  2  1  0
  4  3  2  0
  6  5  1  6
  6  8  1  0
  7  6  1  0
  9  8  1  1
  9 10  1  0
  9 11  1  0
 10  3  1  0
 11 12  2  0
 14 13  1  0
 15 14  1  0
 15 16  1  1
 17 15  1  0
 18 11  1  0
 17 18  1  6
 19 20  1  0
 19 17  1  0
 21 19  2  0
M  END
$$$$
