GLI.pdb
     RDKit          3D

 21 20  0  0  1  0  0  0  0  0999 V2000
    5.9413  -19.7428   22.9310 N   0  0  0  0  0  0  0  0  0  0  0  0
    5.6260  -18.3696   23.1801 C   0  0  0  0  0  0  0  0  0  0  0  0
    6.7381  -17.4650   22.7917 C   0  0  0  0  0  0  0  0  0  0  0  0
    7.8913  -17.9304   22.6831 O   0  0  0  0  0  0  0  0  0  0  0  0
    7.3680  -12.3700   19.6582 C   0  0  0  0  0  0  0  0  0  0  0  0
    7.6216  -13.8356   20.0669 C   0  0  1  0  0  0  0  0  0  0  0  0
    9.0106  -14.1884   19.6812 C   0  0  0  0  0  0  0  0  0  0  0  0
    7.2624  -13.9405   21.4934 C   0  0  0  0  0  0  0  0  0  0  0  0
    7.6148  -15.1747   22.2278 C   0  0  2  0  0  0  0  0  0  0  0  0
    6.5536  -16.0765   22.5338 N   0  0  0  0  0  0  0  0  0  0  0  0
    8.4570  -14.8969   23.4441 C   0  0  0  0  0  0  0  0  0  0  0  0
    9.6294  -14.5220   23.2944 O   0  0  0  0  0  0  0  0  0  0  0  0
    5.7921  -12.1403   26.8484 C   0  0  0  0  0  0  0  0  0  0  0  0
    6.9165  -12.7438   26.0817 C   0  0  0  0  0  0  0  0  0  0  0  0
    7.7259  -13.7745   26.7504 C   0  0  2  0  0  0  0  0  0  0  0  0
    8.3261  -13.2349   28.0490 C   0  0  0  0  0  0  0  0  0  0  0  0
    8.6401  -14.6352   25.9621 C   0  0  2  0  0  0  0  0  0  0  0  0
    7.9249  -15.0591   24.7242 N   0  0  0  0  0  0  0  0  0  0  0  0
    9.0579  -15.8334   26.6604 C   0  0  0  0  0  0  0  0  0  0  0  0
    8.6927  -17.1438   26.3708 O   0  0  0  0  0  0  0  0  0  0  0  0
    9.8444  -15.7311   27.6631 O   0  0  0  0  0  0  0  0  0  0  0  0
  2  1  1  0
  3  2  1  0
  4  3  2  0
  6  5  1  1
  6  8  1  0
  7  6  1  0
  9  8  1  1
  9 10  1  0
  9 11  1  0
 10  3  1  0
 11 12  2  0
 14 13  1  0
 15 14  1  0
 15 16  1  1
 17 15  1  0
 18 11  1  0
 17 18  1  6
 19 20  1  0
 19 17  1  0
 21 19  2  0
M  END
$$$$
