GLI.pdb
     RDKit          3D

 21 20  0  0  1  0  0  0  0  0999 V2000
   13.0383  -16.8441   19.6912 N   0  0  0  0  0  0  0  0  0  0  0  0
   11.9474  -17.4330   20.4058 C   0  0  0  0  0  0  0  0  0  0  0  0
   11.3495  -16.4886   21.3837 C   0  0  0  0  0  0  0  0  0  0  0  0
   12.1006  -15.8428   22.1434 O   0  0  0  0  0  0  0  0  0  0  0  0
    6.1328  -14.0345   21.0525 C   0  0  0  0  0  0  0  0  0  0  0  0
    7.6642  -14.2123   21.1020 C   0  0  1  0  0  0  0  0  0  0  0  0
    8.2874  -12.8673   21.0314 C   0  0  0  0  0  0  0  0  0  0  0  0
    7.9518  -15.0357   22.2912 C   0  0  0  0  0  0  0  0  0  0  0  0
    9.3392  -15.4922   22.5229 C   0  0  2  0  0  0  0  0  0  0  0  0
    9.9455  -16.2796   21.5006 N   0  0  0  0  0  0  0  0  0  0  0  0
    9.5135  -16.1321   23.8743 C   0  0  0  0  0  0  0  0  0  0  0  0
    9.7067  -17.3550   23.9434 O   0  0  0  0  0  0  0  0  0  0  0  0
   10.0255  -12.3171   27.8873 C   0  0  0  0  0  0  0  0  0  0  0  0
   10.3007  -13.4702   26.9867 C   0  0  0  0  0  0  0  0  0  0  0  0
    9.7335  -14.7770   27.3545 C   0  0  2  0  0  0  0  0  0  0  0  0
   10.1271  -15.1564   28.7824 C   0  0  0  0  0  0  0  0  0  0  0  0
    9.7614  -15.9024   26.3899 C   0  0  2  0  0  0  0  0  0  0  0  0
    9.4584  -15.3587   25.0348 N   0  0  0  0  0  0  0  0  0  0  0  0
    8.7898  -16.9379   26.6754 C   0  0  0  0  0  0  0  0  0  0  0  0
    9.0003  -18.1117   27.3912 O   0  0  0  0  0  0  0  0  0  0  0  0
    7.5943  -16.8111   26.2406 O   0  0  0  0  0  0  0  0  0  0  0  0
  2  1  1  0
  3  2  1  0
  4  3  2  0
  6  5  1  1
  6  8  1  0
  7  6  1  0
  9  8  1  6
  9 10  1  0
  9 11  1  0
 10  3  1  0
 11 12  2  0
 14 13  1  0
 15 14  1  0
 15 16  1  1
 17 15  1  0
 18 11  1  0
 17 18  1  6
 19 20  1  0
 19 17  1  0
 21 19  2  0
M  END
$$$$
