GLI.pdb
     RDKit          3D

 21 20  0  0  1  0  0  0  0  0999 V2000
    5.8259  -19.9463   23.0114 N   0  0  0  0  0  0  0  0  0  0  0  0
    5.6997  -18.6319   23.5624 C   0  0  0  0  0  0  0  0  0  0  0  0
    6.7044  -17.6943   22.9989 C   0  0  0  0  0  0  0  0  0  0  0  0
    7.8989  -18.0507   22.9320 O   0  0  0  0  0  0  0  0  0  0  0  0
    7.1707  -12.2689   20.0111 C   0  0  0  0  0  0  0  0  0  0  0  0
    7.7044  -13.6952   20.2564 C   0  0  1  0  0  0  0  0  0  0  0  0
    9.1500  -13.5980   20.5775 C   0  0  0  0  0  0  0  0  0  0  0  0
    6.8207  -14.3046   21.2676 C   0  0  0  0  0  0  0  0  0  0  0  0
    7.3278  -15.4430   22.0636 C   0  0  2  0  0  0  0  0  0  0  0  0
    6.3704  -16.3934   22.5250 N   0  0  0  0  0  0  0  0  0  0  0  0
    8.2348  -15.0018   23.1811 C   0  0  0  0  0  0  0  0  0  0  0  0
    9.3827  -14.6181   22.9118 O   0  0  0  0  0  0  0  0  0  0  0  0
    5.9169  -12.2202   27.4016 C   0  0  0  0  0  0  0  0  0  0  0  0
    6.4595  -13.3438   26.5894 C   0  0  0  0  0  0  0  0  0  0  0  0
    7.8488  -13.2384   26.1167 C   0  0  2  0  0  0  0  0  0  0  0  0
    8.0312  -11.9981   25.2415 C   0  0  0  0  0  0  0  0  0  0  0  0
    8.5676  -14.4419   25.6343 C   0  0  2  0  0  0  0  0  0  0  0  0
    7.7892  -15.0244   24.5036 N   0  0  0  0  0  0  0  0  0  0  0  0
    8.7183  -15.4723   26.6410 C   0  0  0  0  0  0  0  0  0  0  0  0
    9.5480  -15.4402   27.7568 O   0  0  0  0  0  0  0  0  0  0  0  0
    8.0416  -16.5519   26.5374 O   0  0  0  0  0  0  0  0  0  0  0  0
  2  1  1  0
  3  2  1  0
  4  3  2  0
  6  5  1  1
  6  8  1  0
  7  6  1  0
  9  8  1  1
  9 10  1  0
  9 11  1  0
 10  3  1  0
 11 12  2  0
 14 13  1  0
 15 14  1  0
 15 16  1  6
 17 15  1  0
 18 11  1  0
 17 18  1  6
 19 20  1  0
 19 17  1  0
 21 19  2  0
M  END
$$$$
