GLI.pdb
     RDKit          3D

 21 20  0  0  1  0  0  0  0  0999 V2000
    5.4759  -19.8999   23.0812 N   0  0  0  0  0  0  0  0  0  0  0  0
    5.7035  -18.6872   23.8056 C   0  0  0  0  0  0  0  0  0  0  0  0
    6.6750  -17.8013   23.1147 C   0  0  0  0  0  0  0  0  0  0  0  0
    7.8301  -18.2200   22.8941 O   0  0  0  0  0  0  0  0  0  0  0  0
    7.1087  -12.4231   20.0561 C   0  0  0  0  0  0  0  0  0  0  0  0
    7.6623  -13.8394   20.3142 C   0  0  1  0  0  0  0  0  0  0  0  0
    9.1016  -13.7174   20.6544 C   0  0  0  0  0  0  0  0  0  0  0  0
    6.7749  -14.4596   21.3157 C   0  0  0  0  0  0  0  0  0  0  0  0
    7.3004  -15.5648   22.1459 C   0  0  2  0  0  0  0  0  0  0  0  0
    6.3519  -16.4822   22.6858 N   0  0  0  0  0  0  0  0  0  0  0  0
    8.2514  -15.0814   23.2079 C   0  0  0  0  0  0  0  0  0  0  0  0
    9.3487  -14.6140   22.8690 O   0  0  0  0  0  0  0  0  0  0  0  0
    5.9719  -11.8776   26.3875 C   0  0  0  0  0  0  0  0  0  0  0  0
    7.0056  -12.6304   25.6252 C   0  0  0  0  0  0  0  0  0  0  0  0
    7.8530  -13.5751   26.3698 C   0  0  2  0  0  0  0  0  0  0  0  0
    8.5345  -12.8793   27.5485 C   0  0  0  0  0  0  0  0  0  0  0  0
    8.7141  -14.5392   25.6439 C   0  0  2  0  0  0  0  0  0  0  0  0
    7.9024  -15.1584   24.5571 N   0  0  0  0  0  0  0  0  0  0  0  0
    9.2211  -15.6092   26.4780 C   0  0  0  0  0  0  0  0  0  0  0  0
    8.8451  -16.9479   26.4462 O   0  0  0  0  0  0  0  0  0  0  0  0
   10.1092  -15.3480   27.3597 O   0  0  0  0  0  0  0  0  0  0  0  0
  2  1  1  0
  3  2  1  0
  4  3  2  0
  6  5  1  1
  6  8  1  0
  7  6  1  0
  9  8  1  1
  9 10  1  0
  9 11  1  0
 10  3  1  0
 11 12  2  0
 14 13  1  0
 15 14  1  0
 15 16  1  6
 17 15  1  0
 18 11  1  0
 17 18  1  6
 19 20  1  0
 19 17  1  0
 21 19  2  0
M  END
$$$$
