GLI.pdb
     RDKit          3D

 21 20  0  0  1  0  0  0  0  0999 V2000
    6.7792  -18.5224   20.8510 N   0  0  0  0  0  0  0  0  0  0  0  0
    6.5885  -18.5825   22.2678 C   0  0  0  0  0  0  0  0  0  0  0  0
    7.2097  -17.4255   22.9616 C   0  0  0  0  0  0  0  0  0  0  0  0
    8.3356  -17.0295   22.5955 O   0  0  0  0  0  0  0  0  0  0  0  0
    7.6712  -12.7596   24.9661 C   0  0  0  0  0  0  0  0  0  0  0  0
    6.9947  -13.5539   26.1022 C   0  0  1  0  0  0  0  0  0  0  0  0
    6.1194  -12.6237   26.8578 C   0  0  0  0  0  0  0  0  0  0  0  0
    6.3607  -14.7272   25.4727 C   0  0  0  0  0  0  0  0  0  0  0  0
    7.2222  -15.7463   24.8355 C   0  0  2  0  0  0  0  0  0  0  0  0
    6.5787  -16.7363   24.0364 N   0  0  0  0  0  0  0  0  0  0  0  0
    8.1810  -16.3763   25.8102 C   0  0  0  0  0  0  0  0  0  0  0  0
    7.9009  -17.4771   26.3073 O   0  0  0  0  0  0  0  0  0  0  0  0
   10.9052  -13.5393   29.6484 C   0  0  0  0  0  0  0  0  0  0  0  0
   10.2849  -14.6892   28.9347 C   0  0  0  0  0  0  0  0  0  0  0  0
   11.0409  -15.2968   27.8282 C   0  0  2  0  0  0  0  0  0  0  0  0
   11.7958  -14.2287   27.0364 C   0  0  0  0  0  0  0  0  0  0  0  0
   10.4250  -16.3580   26.9961 C   0  0  2  0  0  0  0  0  0  0  0  0
    9.3703  -15.7295   26.1498 N   0  0  0  0  0  0  0  0  0  0  0  0
    9.7995  -17.4126   27.7670 C   0  0  0  0  0  0  0  0  0  0  0  0
    8.4387  -17.5967   27.9874 O   0  0  0  0  0  0  0  0  0  0  0  0
   10.5332  -18.2939   28.3320 O   0  0  0  0  0  0  0  0  0  0  0  0
  2  1  1  0
  3  2  1  0
  4  3  2  0
  6  5  1  6
  6  8  1  0
  7  6  1  0
  9  8  1  1
  9 10  1  0
  9 11  1  0
 10  3  1  0
 11 12  2  0
 14 13  1  0
 15 14  1  0
 15 16  1  6
 17 15  1  0
 18 11  1  0
 17 18  1  6
 19 20  1  0
 19 17  1  0
 21 19  2  0
M  END
$$$$
