GLI.pdb
     RDKit          3D

 21 20  0  0  1  0  0  0  0  0999 V2000
    6.9964  -20.4081   22.7714 N   0  0  0  0  0  0  0  0  0  0  0  0
    6.4101  -19.1074   22.8793 C   0  0  0  0  0  0  0  0  0  0  0  0
    7.3165  -18.0456   22.3723 C   0  0  0  0  0  0  0  0  0  0  0  0
    8.5396  -18.2798   22.2862 O   0  0  0  0  0  0  0  0  0  0  0  0
    8.3088  -13.8280   18.9654 C   0  0  0  0  0  0  0  0  0  0  0  0
    8.0079  -13.4599   20.4327 C   0  0  1  0  0  0  0  0  0  0  0  0
    7.5097  -12.0623   20.4650 C   0  0  0  0  0  0  0  0  0  0  0  0
    7.1177  -14.5135   20.9545 C   0  0  0  0  0  0  0  0  0  0  0  0
    7.7159  -15.6639   21.6656 C   0  0  2  0  0  0  0  0  0  0  0  0
    6.8556  -16.7581   21.9744 N   0  0  0  0  0  0  0  0  0  0  0  0
    8.5094  -15.2414   22.8730 C   0  0  0  0  0  0  0  0  0  0  0  0
    9.6922  -14.8983   22.7289 O   0  0  0  0  0  0  0  0  0  0  0  0
    6.9120  -11.5868   27.2920 C   0  0  0  0  0  0  0  0  0  0  0  0
    7.9026  -12.6276   26.9023 C   0  0  0  0  0  0  0  0  0  0  0  0
    7.5474  -13.5311   25.7968 C   0  0  2  0  0  0  0  0  0  0  0  0
    6.1217  -14.0578   25.9635 C   0  0  0  0  0  0  0  0  0  0  0  0
    8.5215  -14.5379   25.3117 C   0  0  2  0  0  0  0  0  0  0  0  0
    7.9212  -15.2359   24.1387 N   0  0  0  0  0  0  0  0  0  0  0  0
    8.8577  -15.5446   26.2973 C   0  0  0  0  0  0  0  0  0  0  0  0
    9.7395  -15.4122   27.3648 O   0  0  0  0  0  0  0  0  0  0  0  0
    8.3167  -16.7003   26.2208 O   0  0  0  0  0  0  0  0  0  0  0  0
  2  1  1  0
  3  2  1  0
  4  3  2  0
  6  5  1  6
  6  8  1  0
  7  6  1  0
  9  8  1  1
  9 10  1  0
  9 11  1  0
 10  3  1  0
 11 12  2  0
 14 13  1  0
 15 14  1  0
 15 16  1  1
 17 15  1  0
 18 11  1  0
 17 18  1  6
 19 20  1  0
 19 17  1  0
 21 19  2  0
M  END
$$$$
