GLI.pdb
     RDKit          3D

 21 20  0  0  1  0  0  0  0  0999 V2000
    5.5352  -19.2073   22.3075 N   0  0  0  0  0  0  0  0  0  0  0  0
    5.4758  -17.8192   22.6490 C   0  0  0  0  0  0  0  0  0  0  0  0
    6.7656  -17.1284   22.3933 C   0  0  0  0  0  0  0  0  0  0  0  0
    7.8238  -17.7904   22.4086 O   0  0  0  0  0  0  0  0  0  0  0  0
    7.2741  -12.4101   19.3194 C   0  0  0  0  0  0  0  0  0  0  0  0
    7.3988  -13.8679   19.8078 C   0  0  1  0  0  0  0  0  0  0  0  0
    8.0574  -14.6581   18.7381 C   0  0  0  0  0  0  0  0  0  0  0  0
    8.0638  -13.8133   21.1230 C   0  0  0  0  0  0  0  0  0  0  0  0
    8.0884  -15.0323   21.9599 C   0  0  2  0  0  0  0  0  0  0  0  0
    6.8577  -15.7321   22.1283 N   0  0  0  0  0  0  0  0  0  0  0  0
    8.7675  -14.8045   23.2839 C   0  0  0  0  0  0  0  0  0  0  0  0
    9.9819  -14.5551   23.3051 O   0  0  0  0  0  0  0  0  0  0  0  0
    6.1856  -11.5750   26.3274 C   0  0  0  0  0  0  0  0  0  0  0  0
    7.1861  -12.4539   25.6620 C   0  0  0  0  0  0  0  0  0  0  0  0
    7.7834  -13.5371   26.4587 C   0  0  2  0  0  0  0  0  0  0  0  0
    8.3434  -12.9968   27.7749 C   0  0  0  0  0  0  0  0  0  0  0  0
    8.6295  -14.5654   25.8070 C   0  0  2  0  0  0  0  0  0  0  0  0
    8.0393  -14.8732   24.4726 N   0  0  0  0  0  0  0  0  0  0  0  0
    8.7113  -15.8070   26.5484 C   0  0  0  0  0  0  0  0  0  0  0  0
    9.6736  -16.1612   27.4881 O   0  0  0  0  0  0  0  0  0  0  0  0
    7.8305  -16.7123   26.3518 O   0  0  0  0  0  0  0  0  0  0  0  0
  2  1  1  0
  3  2  1  0
  4  3  2  0
  6  5  1  6
  6  8  1  0
  7  6  1  0
  9  8  1  1
  9 10  1  0
  9 11  1  0
 10  3  1  0
 11 12  2  0
 14 13  1  0
 15 14  1  0
 15 16  1  1
 17 15  1  0
 18 11  1  0
 17 18  1  6
 19 20  1  0
 19 17  1  0
 21 19  2  0
M  END
$$$$
