SRG.pdb
     RDKit          3D

 22 21  0  0  1  0  0  0  0  0999 V2000
   26.5354  -19.4057  -17.6745 O   0  0  0  0  0  0  0  0  0  0  0  0
   27.5526  -19.0194  -16.7897 C   0  0  0  0  0  0  0  0  0  0  0  0
   28.1945  -20.2318  -16.1411 C   0  0  2  0  0  0  0  0  0  0  0  0
   28.6762  -21.0838  -17.2314 N   0  0  0  0  0  0  0  0  0  0  0  0
   27.1843  -20.9467  -15.3535 C   0  0  0  0  0  0  0  0  0  0  0  0
   26.7826  -22.0727  -15.7540 O   0  0  0  0  0  0  0  0  0  0  0  0
   22.2513  -20.3691   -9.3219 N   0  0  0  0  0  0  0  0  0  0  0  0
   23.0698  -21.0091   -8.3565 C   0  0  0  0  0  0  0  0  0  0  0  0
   22.5278  -21.5156   -7.3096 N   0  0  0  0  0  0  0  0  0  0  0  0
   24.4862  -21.1099   -8.5115 N   0  0  0  0  0  0  0  0  0  0  0  0
   25.2086  -20.5238   -9.5909 C   0  0  0  0  0  0  0  0  0  0  0  0
   24.9319  -21.1750  -10.9247 C   0  0  0  0  0  0  0  0  0  0  0  0
   25.8529  -20.5646  -11.9497 C   0  0  0  0  0  0  0  0  0  0  0  0
   25.6597  -21.0638  -13.3446 C   0  0  2  0  0  0  0  0  0  0  0  0
   26.6728  -20.3807  -14.1675 N   0  0  0  0  0  0  0  0  0  0  0  0
   24.3473  -20.7370  -13.9332 C   0  0  0  0  0  0  0  0  0  0  0  0
   24.0875  -19.5568  -14.2649 O   0  0  0  0  0  0  0  0  0  0  0  0
   23.1083  -22.0259   -6.6320 N   0  0  0  0  0  0  0  0  0  0  0  0
   23.3632  -21.7103  -14.1392 C   0  0  0  0  0  0  0  0  0  0  0  0
   22.0610  -21.3705  -14.7216 C   0  0  0  0  0  0  0  0  0  0  0  0
   21.1266  -21.0788  -13.6220 O   0  0  0  0  0  0  0  0  0  0  0  0
   20.6139  -19.8115  -13.4171 O   0  0  0  0  0  0  0  0  0  0  0  0
  1  2  1  0
  3  2  1  0
  3  4  1  6
  5  3  1  0
  6  5  2  0
  7  8  1  0
  8 10  1  0
  9  8  2  0
 10 11  1  0
 11 12  1  0
 12 13  1  0
 14 13  1  1
 14 16  1  0
 14 15  1  0
 15  5  1  0
 16 18  1  0
 17 16  2  0
 18 19  1  0
 20 21  1  0
 20 19  1  0
 22 20  2  0
M  END
$$$$
