SRG.pdb
     RDKit          3D

 22 21  0  0  1  0  0  0  0  0999 V2000
   20.3916  -15.8960  -18.5055 O   0  0  0  0  0  0  0  0  0  0  0  0
   21.5326  -15.2939  -17.9554 C   0  0  0  0  0  0  0  0  0  0  0  0
   22.7475  -16.1885  -18.1171 C   0  0  2  0  0  0  0  0  0  0  0  0
   22.9146  -16.4114  -19.5555 N   0  0  0  0  0  0  0  0  0  0  0  0
   22.4989  -17.4641  -17.4365 C   0  0  0  0  0  0  0  0  0  0  0  0
   22.4631  -18.5233  -18.1193 O   0  0  0  0  0  0  0  0  0  0  0  0
   27.9762  -19.4187  -13.3961 N   0  0  0  0  0  0  0  0  0  0  0  0
   27.1957  -20.4984  -13.8826 C   0  0  0  0  0  0  0  0  0  0  0  0
   27.7576  -21.6306  -14.1032 N   0  0  0  0  0  0  0  0  0  0  0  0
   25.7962  -20.3673  -14.1364 N   0  0  0  0  0  0  0  0  0  0  0  0
   24.8010  -20.3868  -13.1167 C   0  0  0  0  0  0  0  0  0  0  0  0
   23.3990  -20.1850  -13.6394 C   0  0  0  0  0  0  0  0  0  0  0  0
   23.4026  -18.9866  -14.5534 C   0  0  0  0  0  0  0  0  0  0  0  0
   22.1303  -18.7659  -15.3051 C   0  0  2  0  0  0  0  0  0  0  0  0
   22.3038  -17.5012  -16.0404 N   0  0  0  0  0  0  0  0  0  0  0  0
   20.9389  -18.5982  -14.4518 C   0  0  0  0  0  0  0  0  0  0  0  0
   20.6966  -17.4857  -13.9284 O   0  0  0  0  0  0  0  0  0  0  0  0
   27.1954  -22.4197  -14.4464 N   0  0  0  0  0  0  0  0  0  0  0  0
   20.0527  -19.6513  -14.1992 C   0  0  0  0  0  0  0  0  0  0  0  0
   18.9198  -19.4946  -13.2813 C   0  0  0  0  0  0  0  0  0  0  0  0
   17.7024  -19.2889  -14.0831 O   0  0  0  0  0  0  0  0  0  0  0  0
   16.4405  -19.3467  -13.5215 O   0  0  0  0  0  0  0  0  0  0  0  0
  1  2  1  0
  3  2  1  0
  3  4  1  6
  5  3  1  0
  6  5  2  0
  7  8  1  0
  8 10  1  0
  9  8  2  0
 10 11  1  0
 11 12  1  0
 12 13  1  0
 14 13  1  1
 14 16  1  0
 14 15  1  0
 15  5  1  0
 16 18  1  0
 17 16  2  0
 18 19  1  0
 20 21  1  0
 20 19  1  0
 22 20  2  0
M  END
$$$$
