SRG.pdb
     RDKit          3D

 22 21  0  0  1  0  0  0  0  0999 V2000
   27.2738  -21.9372  -19.1118 O   0  0  0  0  0  0  0  0  0  0  0  0
   28.4496  -21.4502  -18.5226 C   0  0  0  0  0  0  0  0  0  0  0  0
   28.8520  -22.3027  -17.3335 C   0  0  2  0  0  0  0  0  0  0  0  0
   29.0890  -23.6537  -17.8484 N   0  0  0  0  0  0  0  0  0  0  0  0
   27.7533  -22.3209  -16.3615 C   0  0  0  0  0  0  0  0  0  0  0  0
   27.0550  -23.3646  -16.2493 O   0  0  0  0  0  0  0  0  0  0  0  0
   25.9351  -20.3063   -8.8282 N   0  0  0  0  0  0  0  0  0  0  0  0
   24.7435  -20.8079   -9.4113 C   0  0  0  0  0  0  0  0  0  0  0  0
   23.6135  -20.5260   -8.8729 N   0  0  0  0  0  0  0  0  0  0  0  0
   24.7590  -21.6211  -10.5855 N   0  0  0  0  0  0  0  0  0  0  0  0
   25.8020  -21.5912  -11.5560 C   0  0  0  0  0  0  0  0  0  0  0  0
   25.9264  -20.2645  -12.2658 C   0  0  0  0  0  0  0  0  0  0  0  0
   26.9100  -20.4230  -13.3967 C   0  0  0  0  0  0  0  0  0  0  0  0
   26.3851  -21.1568  -14.5877 C   0  0  2  0  0  0  0  0  0  0  0  0
   27.4854  -21.1873  -15.5668 N   0  0  0  0  0  0  0  0  0  0  0  0
   25.2446  -20.5010  -15.2544 C   0  0  0  0  0  0  0  0  0  0  0  0
   25.4265  -19.4535  -15.9179 O   0  0  0  0  0  0  0  0  0  0  0  0
   22.7469  -20.8921   -9.2870 N   0  0  0  0  0  0  0  0  0  0  0  0
   23.9441  -21.0114  -15.1738 C   0  0  0  0  0  0  0  0  0  0  0  0
   22.8130  -20.3277  -15.8091 C   0  0  0  0  0  0  0  0  0  0  0  0
   21.7413  -20.1841  -14.8100 O   0  0  0  0  0  0  0  0  0  0  0  0
   20.6482  -19.3657  -15.0251 O   0  0  0  0  0  0  0  0  0  0  0  0
  1  2  1  0
  3  2  1  0
  3  4  1  6
  5  3  1  0
  6  5  2  0
  7  8  1  0
  8 10  1  0
  9  8  2  0
 10 11  1  0
 11 12  1  0
 12 13  1  0
 14 13  1  1
 14 16  1  0
 14 15  1  0
 15  5  1  0
 16 18  1  0
 17 16  2  0
 18 19  1  0
 20 21  1  0
 20 19  1  0
 22 20  2  0
M  END
$$$$
