SRG.pdb
     RDKit          3D

 22 21  0  0  1  0  0  0  0  0999 V2000
   24.3619   -4.3816  -21.8395 O   0  0  0  0  0  0  0  0  0  0  0  0
   23.5494   -4.8393  -20.7920 C   0  0  0  0  0  0  0  0  0  0  0  0
   22.7773   -6.0776  -21.2078 C   0  0  2  0  0  0  0  0  0  0  0  0
   21.8112   -5.6475  -22.2218 N   0  0  0  0  0  0  0  0  0  0  0  0
   22.0730   -6.6192  -20.0404 C   0  0  0  0  0  0  0  0  0  0  0  0
   20.8241   -6.4681  -19.9568 O   0  0  0  0  0  0  0  0  0  0  0  0
   19.0761  -11.3702  -14.4418 N   0  0  0  0  0  0  0  0  0  0  0  0
   18.9367  -11.8045  -15.7847 C   0  0  0  0  0  0  0  0  0  0  0  0
   17.8488  -12.3787  -16.1496 N   0  0  0  0  0  0  0  0  0  0  0  0
   19.9728  -11.6226  -16.7510 N   0  0  0  0  0  0  0  0  0  0  0  0
   20.8521  -10.5014  -16.7680 C   0  0  0  0  0  0  0  0  0  0  0  0
   21.7763  -10.4790  -17.9617 C   0  0  0  0  0  0  0  0  0  0  0  0
   22.7314   -9.3245  -17.7992 C   0  0  0  0  0  0  0  0  0  0  0  0
   22.1066   -7.9718  -17.9090 C   0  0  2  0  0  0  0  0  0  0  0  0
   22.7847   -7.2978  -19.0297 N   0  0  0  0  0  0  0  0  0  0  0  0
   22.2958   -7.1144  -16.7238 C   0  0  0  0  0  0  0  0  0  0  0  0
   23.4498   -6.7622  -16.3850 O   0  0  0  0  0  0  0  0  0  0  0  0
   17.7013  -12.6066  -17.1410 N   0  0  0  0  0  0  0  0  0  0  0  0
   21.2183   -6.6709  -15.9489 C   0  0  0  0  0  0  0  0  0  0  0  0
   21.4218   -5.8269  -14.7671 C   0  0  0  0  0  0  0  0  0  0  0  0
   21.3128   -4.4187  -15.1824 O   0  0  0  0  0  0  0  0  0  0  0  0
   21.1569   -4.0589  -16.5080 O   0  0  0  0  0  0  0  0  0  0  0  0
  1  2  1  0
  3  2  1  0
  3  4  1  6
  5  3  1  0
  6  5  2  0
  7  8  1  0
  8 10  1  0
  9  8  2  0
 10 11  1  0
 11 12  1  0
 12 13  1  0
 14 13  1  1
 14 16  1  0
 14 15  1  0
 15  5  1  0
 16 18  1  0
 17 16  2  0
 18 19  1  0
 20 21  1  0
 20 19  1  0
 22 20  2  0
M  END
$$$$
