SRG.pdb
     RDKit          3D

 22 21  0  0  1  0  0  0  0  0999 V2000
   23.1662  -20.1369  -11.3509 O   0  0  0  0  0  0  0  0  0  0  0  0
   23.8442  -21.3552  -11.1992 C   0  0  0  0  0  0  0  0  0  0  0  0
   25.0406  -21.1975  -10.2793 C   0  0  2  0  0  0  0  0  0  0  0  0
   24.5690  -20.4653   -9.1011 N   0  0  0  0  0  0  0  0  0  0  0  0
   26.0786  -20.4239  -10.9694 C   0  0  0  0  0  0  0  0  0  0  0  0
   26.2268  -19.2060  -10.6788 O   0  0  0  0  0  0  0  0  0  0  0  0
   32.9370  -22.7900   -9.1917 N   0  0  0  0  0  0  0  0  0  0  0  0
   32.5951  -22.9994  -10.5521 C   0  0  0  0  0  0  0  0  0  0  0  0
   33.1564  -23.9530  -11.2016 N   0  0  0  0  0  0  0  0  0  0  0  0
   31.6403  -22.1795  -11.2279 N   0  0  0  0  0  0  0  0  0  0  0  0
   31.0025  -21.0524  -10.6335 C   0  0  0  0  0  0  0  0  0  0  0  0
   29.5071  -21.0283  -10.8402 C   0  0  0  0  0  0  0  0  0  0  0  0
   29.2352  -20.9300  -12.3194 C   0  0  0  0  0  0  0  0  0  0  0  0
   27.9327  -20.2916  -12.6778 C   0  0  2  0  0  0  0  0  0  0  0  0
   26.8962  -21.0360  -11.9417 N   0  0  0  0  0  0  0  0  0  0  0  0
   27.5821  -20.3818  -14.1076 C   0  0  0  0  0  0  0  0  0  0  0  0
   27.3031  -21.4937  -14.6138 O   0  0  0  0  0  0  0  0  0  0  0  0
   32.9055  -24.1159  -12.1849 N   0  0  0  0  0  0  0  0  0  0  0  0
   27.5485  -19.2545  -14.9361 C   0  0  0  0  0  0  0  0  0  0  0  0
   27.5090  -19.3792  -16.3967 C   0  0  0  0  0  0  0  0  0  0  0  0
   26.1215  -19.1658  -16.8400 O   0  0  0  0  0  0  0  0  0  0  0  0
   25.7988  -19.0029  -18.1743 O   0  0  0  0  0  0  0  0  0  0  0  0
  1  2  1  0
  3  2  1  0
  3  4  1  1
  5  3  1  0
  6  5  2  0
  7  8  1  0
  8 10  1  0
  9  8  2  0
 10 11  1  0
 11 12  1  0
 12 13  1  0
 14 13  1  6
 14 16  1  0
 14 15  1  0
 15  5  1  0
 16 18  1  0
 17 16  2  0
 18 19  1  0
 20 21  1  0
 20 19  1  0
 22 20  2  0
M  END
$$$$
