SRG.pdb
     RDKit          3D

 22 21  0  0  1  0  0  0  0  0999 V2000
   23.9474  -13.2534  -17.9307 O   0  0  0  0  0  0  0  0  0  0  0  0
   24.8796  -12.9880  -16.9171 C   0  0  0  0  0  0  0  0  0  0  0  0
   26.0717  -13.9212  -17.0207 C   0  0  2  0  0  0  0  0  0  0  0  0
   26.6051  -13.7697  -18.3768 N   0  0  0  0  0  0  0  0  0  0  0  0
   25.6214  -15.3012  -16.8091 C   0  0  0  0  0  0  0  0  0  0  0  0
   25.4733  -16.0549  -17.8089 O   0  0  0  0  0  0  0  0  0  0  0  0
   26.6793  -21.4308  -11.6913 N   0  0  0  0  0  0  0  0  0  0  0  0
   25.7226  -21.9429  -12.6045 C   0  0  0  0  0  0  0  0  0  0  0  0
   25.1526  -23.0648  -12.3542 N   0  0  0  0  0  0  0  0  0  0  0  0
   25.3696  -21.2471  -13.8010 N   0  0  0  0  0  0  0  0  0  0  0  0
   25.8429  -19.9434  -14.1282 C   0  0  0  0  0  0  0  0  0  0  0  0
   25.1671  -18.8433  -13.3455 C   0  0  0  0  0  0  0  0  0  0  0  0
   25.6016  -17.5189  -13.9187 C   0  0  0  0  0  0  0  0  0  0  0  0
   24.9924  -17.1755  -15.2391 C   0  0  2  0  0  0  0  0  0  0  0  0
   25.3593  -15.7741  -15.5068 N   0  0  0  0  0  0  0  0  0  0  0  0
   23.5190  -17.2387  -15.2661 C   0  0  0  0  0  0  0  0  0  0  0  0
   22.8443  -16.3077  -14.7678 O   0  0  0  0  0  0  0  0  0  0  0  0
   24.4506  -23.4359  -13.0069 N   0  0  0  0  0  0  0  0  0  0  0  0
   22.8327  -18.3168  -15.8362 C   0  0  0  0  0  0  0  0  0  0  0  0
   21.3702  -18.4091  -15.7791 C   0  0  0  0  0  0  0  0  0  0  0  0
   21.0026  -19.1491  -14.5607 O   0  0  0  0  0  0  0  0  0  0  0  0
   19.9818  -18.7258  -13.7301 O   0  0  0  0  0  0  0  0  0  0  0  0
  1  2  1  0
  3  2  1  0
  3  4  1  6
  5  3  1  0
  6  5  2  0
  7  8  1  0
  8 10  1  0
  9  8  2  0
 10 11  1  0
 11 12  1  0
 12 13  1  0
 14 13  1  1
 14 16  1  0
 14 15  1  0
 15  5  1  0
 16 18  1  0
 17 16  2  0
 18 19  1  0
 20 21  1  0
 20 19  1  0
 22 20  2  0
M  END
$$$$
