SRG.pdb
     RDKit          3D

 22 21  0  0  1  0  0  0  0  0999 V2000
   21.5069  -20.9581  -11.4796 O   0  0  0  0  0  0  0  0  0  0  0  0
   22.7474  -20.3747  -11.7757 C   0  0  0  0  0  0  0  0  0  0  0  0
   23.8712  -21.1008  -11.0600 C   0  0  2  0  0  0  0  0  0  0  0  0
   23.5961  -20.9870   -9.6254 N   0  0  0  0  0  0  0  0  0  0  0  0
   25.1455  -20.4486  -11.3805 C   0  0  0  0  0  0  0  0  0  0  0  0
   25.5248  -19.4720  -10.6791 O   0  0  0  0  0  0  0  0  0  0  0  0
   32.3468  -20.8474  -10.0761 N   0  0  0  0  0  0  0  0  0  0  0  0
   32.0229  -22.2273  -10.0271 C   0  0  0  0  0  0  0  0  0  0  0  0
   32.7717  -23.0250   -9.3569 N   0  0  0  0  0  0  0  0  0  0  0  0
   30.8838  -22.7623  -10.7027 N   0  0  0  0  0  0  0  0  0  0  0  0
   30.3165  -22.1870  -11.8765 C   0  0  0  0  0  0  0  0  0  0  0  0
   29.1142  -21.3167  -11.5999 C   0  0  0  0  0  0  0  0  0  0  0  0
   28.2388  -21.3150  -12.8268 C   0  0  0  0  0  0  0  0  0  0  0  0
   27.1898  -20.2512  -12.8488 C   0  0  2  0  0  0  0  0  0  0  0  0
   25.9315  -20.9095  -12.4568 N   0  0  0  0  0  0  0  0  0  0  0  0
   26.9569  -19.6513  -14.1760 C   0  0  0  0  0  0  0  0  0  0  0  0
   26.6651  -20.3835  -15.1502 O   0  0  0  0  0  0  0  0  0  0  0  0
   32.5131  -24.0163   -9.2733 N   0  0  0  0  0  0  0  0  0  0  0  0
   27.0509  -18.2723  -14.3940 C   0  0  0  0  0  0  0  0  0  0  0  0
   26.8417  -17.6919  -15.7244 C   0  0  0  0  0  0  0  0  0  0  0  0
   25.4024  -17.7454  -16.0292 O   0  0  0  0  0  0  0  0  0  0  0  0
   24.5841  -16.6409  -15.8826 O   0  0  0  0  0  0  0  0  0  0  0  0
  1  2  1  0
  3  2  1  0
  3  4  1  1
  5  3  1  0
  6  5  2  0
  7  8  1  0
  8 10  1  0
  9  8  2  0
 10 11  1  0
 11 12  1  0
 12 13  1  0
 14 13  1  6
 14 16  1  0
 14 15  1  0
 15  5  1  0
 16 18  1  0
 17 16  2  0
 18 19  1  0
 20 21  1  0
 20 19  1  0
 22 20  2  0
M  END
$$$$
