SRG.pdb
     RDKit          3D

 22 21  0  0  1  0  0  0  0  0999 V2000
   27.0695  -28.6202  -17.0151 O   0  0  0  0  0  0  0  0  0  0  0  0
   28.1212  -28.3909  -16.1160 C   0  0  0  0  0  0  0  0  0  0  0  0
   29.4320  -28.1964  -16.8552 C   0  0  2  0  0  0  0  0  0  0  0  0
   29.1716  -27.2246  -17.9203 N   0  0  0  0  0  0  0  0  0  0  0  0
   29.8513  -29.4771  -17.4351 C   0  0  0  0  0  0  0  0  0  0  0  0
   29.7775  -29.6350  -18.6837 O   0  0  0  0  0  0  0  0  0  0  0  0
   35.8966  -32.3982  -17.8004 N   0  0  0  0  0  0  0  0  0  0  0  0
   36.3014  -31.6850  -16.6433 C   0  0  0  0  0  0  0  0  0  0  0  0
   37.4037  -31.0285  -16.6633 N   0  0  0  0  0  0  0  0  0  0  0  0
   35.5183  -31.6723  -15.4488 N   0  0  0  0  0  0  0  0  0  0  0  0
   34.1959  -32.1962  -15.3630 C   0  0  0  0  0  0  0  0  0  0  0  0
   33.2722  -31.6790  -16.4396 C   0  0  0  0  0  0  0  0  0  0  0  0
   31.8967  -32.2444  -16.1949 C   0  0  0  0  0  0  0  0  0  0  0  0
   30.8471  -31.7796  -17.1513 C   0  0  2  0  0  0  0  0  0  0  0  0
   30.3291  -30.5129  -16.6060 N   0  0  0  0  0  0  0  0  0  0  0  0
   29.6922  -32.6882  -17.2785 C   0  0  0  0  0  0  0  0  0  0  0  0
   28.8378  -32.7449  -16.3634 O   0  0  0  0  0  0  0  0  0  0  0  0
   37.6625  -30.4434  -15.8588 N   0  0  0  0  0  0  0  0  0  0  0  0
   29.5098  -33.5042  -18.4006 C   0  0  0  0  0  0  0  0  0  0  0  0
   28.1895  -34.0361  -18.7535 C   0  0  0  0  0  0  0  0  0  0  0  0
   28.3641  -35.0252  -19.8298 O   0  0  0  0  0  0  0  0  0  0  0  0
   29.4554  -35.8727  -19.8719 O   0  0  0  0  0  0  0  0  0  0  0  0
  1  2  1  0
  3  2  1  0
  3  4  1  6
  5  3  1  0
  6  5  2  0
  7  8  1  0
  8 10  1  0
  9  8  2  0
 10 11  1  0
 11 12  1  0
 12 13  1  0
 14 13  1  1
 14 16  1  0
 14 15  1  0
 15  5  1  0
 16 18  1  0
 17 16  2  0
 18 19  1  0
 20 21  1  0
 20 19  1  0
 22 20  2  0
M  END
$$$$
