SRG.pdb
     RDKit          3D

 22 21  0  0  1  0  0  0  0  0999 V2000
   20.6488  -18.3829  -14.9845 O   0  0  0  0  0  0  0  0  0  0  0  0
   21.4966  -19.4967  -14.8981 C   0  0  0  0  0  0  0  0  0  0  0  0
   22.9516  -19.0779  -14.9977 C   0  0  2  0  0  0  0  0  0  0  0  0
   23.1448  -18.5548  -16.3526 N   0  0  0  0  0  0  0  0  0  0  0  0
   23.8052  -20.2521  -14.7861 C   0  0  0  0  0  0  0  0  0  0  0  0
   24.2586  -20.8660  -15.7897 O   0  0  0  0  0  0  0  0  0  0  0  0
   30.7632  -21.8569  -10.9656 N   0  0  0  0  0  0  0  0  0  0  0  0
   29.7081  -21.3643  -10.1559 C   0  0  0  0  0  0  0  0  0  0  0  0
   29.9100  -21.1841   -8.9017 N   0  0  0  0  0  0  0  0  0  0  0  0
   28.4201  -21.0597  -10.6930 N   0  0  0  0  0  0  0  0  0  0  0  0
   28.1822  -20.7787  -12.0696 C   0  0  0  0  0  0  0  0  0  0  0  0
   26.7660  -20.3427  -12.3593 C   0  0  0  0  0  0  0  0  0  0  0  0
   25.8475  -21.5062  -12.0874 C   0  0  0  0  0  0  0  0  0  0  0  0
   24.9445  -21.8720  -13.2202 C   0  0  2  0  0  0  0  0  0  0  0  0
   24.1119  -20.6845  -13.4794 N   0  0  0  0  0  0  0  0  0  0  0  0
   24.0179  -22.9817  -12.9279 C   0  0  0  0  0  0  0  0  0  0  0  0
   22.9179  -22.7483  -12.3748 O   0  0  0  0  0  0  0  0  0  0  0  0
   29.1475  -20.8330   -8.3086 N   0  0  0  0  0  0  0  0  0  0  0  0
   24.3242  -24.3087  -13.2495 C   0  0  0  0  0  0  0  0  0  0  0  0
   24.5079  -24.7361  -14.6402 C   0  0  0  0  0  0  0  0  0  0  0  0
   23.1840  -25.0418  -15.2069 O   0  0  0  0  0  0  0  0  0  0  0  0
   22.3585  -24.0524  -15.7074 O   0  0  0  0  0  0  0  0  0  0  0  0
  1  2  1  0
  3  2  1  0
  3  4  1  6
  5  3  1  0
  6  5  2  0
  7  8  1  0
  8 10  1  0
  9  8  2  0
 10 11  1  0
 11 12  1  0
 12 13  1  0
 14 13  1  1
 14 16  1  0
 14 15  1  0
 15  5  1  0
 16 18  1  0
 17 16  2  0
 18 19  1  0
 20 21  1  0
 20 19  1  0
 22 20  2  0
M  END
$$$$
