SRG.pdb
     RDKit          3D

 22 21  0  0  1  0  0  0  0  0999 V2000
   29.8589  -19.2489  -12.1886 O   0  0  0  0  0  0  0  0  0  0  0  0
   29.3861  -19.5327  -10.8992 C   0  0  0  0  0  0  0  0  0  0  0  0
   29.0145  -20.9982  -10.7698 C   0  0  2  0  0  0  0  0  0  0  0  0
   30.2344  -21.7644  -11.0371 N   0  0  0  0  0  0  0  0  0  0  0  0
   27.9883  -21.3236  -11.7664 C   0  0  0  0  0  0  0  0  0  0  0  0
   28.2834  -22.0992  -12.7155 O   0  0  0  0  0  0  0  0  0  0  0  0
   19.9639  -19.3368  -13.7840 N   0  0  0  0  0  0  0  0  0  0  0  0
   19.8342  -20.6860  -13.3667 C   0  0  0  0  0  0  0  0  0  0  0  0
   18.9065  -21.4138  -13.8727 N   0  0  0  0  0  0  0  0  0  0  0  0
   20.7073  -21.2660  -12.3963 N   0  0  0  0  0  0  0  0  0  0  0  0
   21.9005  -20.6415  -11.9309 C   0  0  0  0  0  0  0  0  0  0  0  0
   23.1084  -20.9370  -12.7871 C   0  0  0  0  0  0  0  0  0  0  0  0
   24.3367  -20.8545  -11.9176 C   0  0  0  0  0  0  0  0  0  0  0  0
   25.6288  -21.0842  -12.6320 C   0  0  2  0  0  0  0  0  0  0  0  0
   26.6932  -20.7757  -11.6613 N   0  0  0  0  0  0  0  0  0  0  0  0
   25.8486  -20.2027  -13.7939 C   0  0  0  0  0  0  0  0  0  0  0  0
   26.1461  -18.9982  -13.6173 O   0  0  0  0  0  0  0  0  0  0  0  0
   18.7888  -22.3836  -13.5529 N   0  0  0  0  0  0  0  0  0  0  0  0
   25.7357  -20.6666  -15.1093 C   0  0  0  0  0  0  0  0  0  0  0  0
   26.0895  -19.8191  -16.2526 C   0  0  0  0  0  0  0  0  0  0  0  0
   24.9603  -19.8246  -17.1971 O   0  0  0  0  0  0  0  0  0  0  0  0
   25.0000  -19.1202  -18.3859 O   0  0  0  0  0  0  0  0  0  0  0  0
  1  2  1  0
  3  2  1  0
  3  4  1  6
  5  3  1  0
  6  5  2  0
  7  8  1  0
  8 10  1  0
  9  8  2  0
 10 11  1  0
 11 12  1  0
 12 13  1  0
 14 13  1  1
 14 16  1  0
 14 15  1  0
 15  5  1  0
 16 18  1  0
 17 16  2  0
 18 19  1  0
 20 21  1  0
 20 19  1  0
 22 20  2  0
M  END
$$$$
