SRG.pdb
     RDKit          3D

 22 21  0  0  1  0  0  0  0  0999 V2000
   20.1651  -12.2655  -16.1556 O   0  0  0  0  0  0  0  0  0  0  0  0
   19.7239  -11.0055  -15.7261 C   0  0  0  0  0  0  0  0  0  0  0  0
   18.3676  -11.1078  -15.0534 C   0  0  2  0  0  0  0  0  0  0  0  0
   17.4034  -11.4430  -16.1045 N   0  0  0  0  0  0  0  0  0  0  0  0
   18.0287   -9.8118  -14.4554 C   0  0  0  0  0  0  0  0  0  0  0  0
   17.2560   -9.0351  -15.0793 O   0  0  0  0  0  0  0  0  0  0  0  0
   13.5193   -8.4453   -7.7859 N   0  0  0  0  0  0  0  0  0  0  0  0
   14.1309   -7.1713   -7.9056 C   0  0  0  0  0  0  0  0  0  0  0  0
   13.7100   -6.2015   -7.1786 N   0  0  0  0  0  0  0  0  0  0  0  0
   15.2068   -6.9300   -8.8136 N   0  0  0  0  0  0  0  0  0  0  0  0
   15.8553   -7.9536   -9.5633 C   0  0  0  0  0  0  0  0  0  0  0  0
   16.9809   -7.4436  -10.4308 C   0  0  0  0  0  0  0  0  0  0  0  0
   17.4934   -8.5903  -11.2638 C   0  0  0  0  0  0  0  0  0  0  0  0
   18.1839   -8.1899  -12.5269 C   0  0  2  0  0  0  0  0  0  0  0  0
   18.5605   -9.4438  -13.2023 N   0  0  0  0  0  0  0  0  0  0  0  0
   19.4306   -7.4279  -12.3255 C   0  0  0  0  0  0  0  0  0  0  0  0
   20.4484   -8.0028  -11.8739 O   0  0  0  0  0  0  0  0  0  0  0  0
   14.1244   -5.2670   -7.2867 N   0  0  0  0  0  0  0  0  0  0  0  0
   19.5232   -6.0639  -12.6239 C   0  0  0  0  0  0  0  0  0  0  0  0
   20.7406   -5.2986  -12.3364 C   0  0  0  0  0  0  0  0  0  0  0  0
   21.4987   -5.1510  -13.5897 O   0  0  0  0  0  0  0  0  0  0  0  0
   21.1090   -5.7814  -14.7566 O   0  0  0  0  0  0  0  0  0  0  0  0
  1  2  1  0
  3  2  1  0
  3  4  1  6
  5  3  1  0
  6  5  2  0
  7  8  1  0
  8 10  1  0
  9  8  2  0
 10 11  1  0
 11 12  1  0
 12 13  1  0
 14 13  1  1
 14 16  1  0
 14 15  1  0
 15  5  1  0
 16 18  1  0
 17 16  2  0
 18 19  1  0
 20 21  1  0
 20 19  1  0
 22 20  2  0
M  END
$$$$
