TTF.pdb
     RDKit          3D

 26 26  0  0  1  0  0  0  0  0999 V2000
   10.4855  -13.2707   20.5326 C   0  0  0  0  0  0  0  0  0  0  0  0
    9.6212  -12.9801   19.3584 C   0  0  1  0  0  0  0  0  0  0  0  0
   10.3908  -12.4071   18.3497 O   0  0  0  0  0  0  0  0  0  0  0  0
    8.9550  -14.2080   18.7742 C   0  0  2  0  0  0  0  0  0  0  0  0
    8.1253  -13.8725   17.6342 N   0  0  0  0  0  0  0  0  0  0  0  0
    8.1256  -14.8374   19.8302 C   0  0  0  0  0  0  0  0  0  0  0  0
    6.9262  -15.1840   19.6365 O   0  0  0  0  0  0  0  0  0  0  0  0
    6.9402  -17.1277   20.2479 C   0  0  0  0  0  0  0  0  0  0  0  0
    7.6801  -17.2841   21.5599 C   0  0  1  0  0  0  0  0  0  0  0  0
    8.7977  -18.0525   21.3154 O   0  0  0  0  0  0  0  0  0  0  0  0
    8.0311  -15.9129   22.0995 C   0  0  2  0  0  0  0  0  0  0  0  0
    8.6617  -15.0784   21.1255 N   0  0  0  0  0  0  0  0  0  0  0  0
    8.8056  -16.0034   23.3590 C   0  0  0  0  0  0  0  0  0  0  0  0
   10.0437  -15.9288   23.3429 O   0  0  0  0  0  0  0  0  0  0  0  0
    8.1420  -16.1761   24.5964 N   0  0  0  0  0  0  0  0  0  0  0  0
    8.8212  -16.0531   25.8869 C   0  0  1  0  0  0  0  0  0  0  0  0
    7.8934  -15.5488   26.9438 C   0  0  0  0  0  0  0  0  0  0  0  0
    7.3838  -14.2158   26.6538 C   0  0  0  0  0  0  0  0  0  0  0  0
    8.1506  -13.0745   26.9116 C   0  0  0  0  0  0  0  0  0  0  0  0
    7.6800  -11.8135   26.6247 C   0  0  0  0  0  0  0  0  0  0  0  0
    6.4374  -11.6241   26.0733 C   0  0  0  0  0  0  0  0  0  0  0  0
    5.6487  -12.7396   25.8044 C   0  0  0  0  0  0  0  0  0  0  0  0
    6.1387  -13.9945   26.0992 C   0  0  0  0  0  0  0  0  0  0  0  0
    9.4710  -17.3053   26.2788 C   0  0  0  0  0  0  0  0  0  0  0  0
    9.4092  -18.5121   25.6263 O   0  0  0  0  0  0  0  0  0  0  0  0
   10.1764  -17.2843   27.3479 O   0  0  0  0  0  0  0  0  0  0  0  0
  2  1  1  1
  2  3  1  0
  2  4  1  0
  4  6  1  0
  4  5  1  6
  6  7  2  0
  9 11  1  0
  9  8  1  6
 10  9  1  0
 11 12  1  6
 12  6  1  0
 13 14  2  0
 13 11  1  0
 15 13  1  0
 16 24  1  0
 16 15  1  0
 16 17  1  1
 18 17  1  0
 19 18  2  0
 20 19  1  0
 21 20  2  0
 21 22  1  0
 22 23  2  0
 23 18  1  0
 24 25  1  0
 26 24  2  0
M  END
$$$$
