TTF.pdb
     RDKit          3D

 26 26  0  0  1  0  0  0  0  0999 V2000
   10.6043  -13.1003   20.0259 C   0  0  0  0  0  0  0  0  0  0  0  0
    9.2917  -12.7850   19.4031 C   0  0  1  0  0  0  0  0  0  0  0  0
    9.4909  -11.9587   18.3006 O   0  0  0  0  0  0  0  0  0  0  0  0
    8.5379  -14.0064   18.9204 C   0  0  2  0  0  0  0  0  0  0  0  0
    7.2256  -13.6569   18.4141 N   0  0  0  0  0  0  0  0  0  0  0  0
    8.4024  -14.9513   20.0552 C   0  0  0  0  0  0  0  0  0  0  0  0
    7.5306  -14.8085   20.9585 O   0  0  0  0  0  0  0  0  0  0  0  0
    9.6380  -19.2738   22.1080 C   0  0  0  0  0  0  0  0  0  0  0  0
    9.8079  -18.3460   20.9233 C   0  0  1  0  0  0  0  0  0  0  0  0
    9.1666  -18.9247   19.8494 O   0  0  0  0  0  0  0  0  0  0  0  0
    9.2369  -16.9866   21.2703 C   0  0  2  0  0  0  0  0  0  0  0  0
    9.2665  -16.0753   20.1697 N   0  0  0  0  0  0  0  0  0  0  0  0
    9.8630  -16.4264   22.4905 C   0  0  0  0  0  0  0  0  0  0  0  0
   10.9219  -15.7843   22.4161 O   0  0  0  0  0  0  0  0  0  0  0  0
    9.2606  -16.6172   23.7561 N   0  0  0  0  0  0  0  0  0  0  0  0
    9.8369  -16.0986   24.9974 C   0  0  1  0  0  0  0  0  0  0  0  0
    8.7720  -15.6853   25.9603 C   0  0  0  0  0  0  0  0  0  0  0  0
    9.3144  -15.1383   27.1963 C   0  0  0  0  0  0  0  0  0  0  0  0
    9.4266  -13.7574   27.3902 C   0  0  0  0  0  0  0  0  0  0  0  0
    9.9237  -13.2351   28.5624 C   0  0  0  0  0  0  0  0  0  0  0  0
   10.3302  -14.0489   29.5901 C   0  0  0  0  0  0  0  0  0  0  0  0
   10.2316  -15.4284   29.4291 C   0  0  0  0  0  0  0  0  0  0  0  0
    9.7307  -15.9317   28.2470 C   0  0  0  0  0  0  0  0  0  0  0  0
   10.7793  -17.0466   25.5949 C   0  0  0  0  0  0  0  0  0  0  0  0
   12.0193  -16.7680   26.1152 O   0  0  0  0  0  0  0  0  0  0  0  0
   10.4177  -18.2747   25.6411 O   0  0  0  0  0  0  0  0  0  0  0  0
  2  1  1  6
  2  3  1  0
  2  4  1  0
  4  6  1  0
  4  5  1  1
  6  7  2  0
  9 11  1  0
  9  8  1  1
 10  9  1  0
 11 12  1  6
 12  6  1  0
 13 14  2  0
 13 11  1  0
 15 13  1  0
 16 24  1  0
 16 15  1  0
 16 17  1  1
 18 17  1  0
 19 18  2  0
 20 19  1  0
 21 20  2  0
 21 22  1  0
 22 23  2  0
 23 18  1  0
 24 25  1  0
 26 24  2  0
M  END
$$$$
