TTF.pdb
     RDKit          3D

 26 26  0  0  1  0  0  0  0  0999 V2000
    7.4770  -12.2179   18.7877 C   0  0  0  0  0  0  0  0  0  0  0  0
    8.1130  -13.5114   18.4235 C   0  0  1  0  0  0  0  0  0  0  0  0
    8.8163  -13.3602   17.2317 O   0  0  0  0  0  0  0  0  0  0  0  0
    9.0899  -14.0228   19.4613 C   0  0  2  0  0  0  0  0  0  0  0  0
    9.8786  -15.1271   18.9521 N   0  0  0  0  0  0  0  0  0  0  0  0
    8.3214  -14.4621   20.6510 C   0  0  0  0  0  0  0  0  0  0  0  0
    7.4095  -13.7579   21.1695 O   0  0  0  0  0  0  0  0  0  0  0  0
    6.4142  -17.5994   20.9988 C   0  0  0  0  0  0  0  0  0  0  0  0
    7.3282  -17.5991   22.2062 C   0  0  1  0  0  0  0  0  0  0  0  0
    8.3181  -18.5300   21.9761 O   0  0  0  0  0  0  0  0  0  0  0  0
    7.8850  -16.2049   22.4082 C   0  0  2  0  0  0  0  0  0  0  0  0
    8.5888  -15.7177   21.2636 N   0  0  0  0  0  0  0  0  0  0  0  0
    8.6852  -16.1111   23.6513 C   0  0  0  0  0  0  0  0  0  0  0  0
    9.9205  -16.0106   23.5982 O   0  0  0  0  0  0  0  0  0  0  0  0
    8.0498  -16.1350   24.9150 N   0  0  0  0  0  0  0  0  0  0  0  0
    8.7783  -15.9765   26.1744 C   0  0  1  0  0  0  0  0  0  0  0  0
    7.9520  -15.2632   27.1945 C   0  0  0  0  0  0  0  0  0  0  0  0
    7.5981  -13.9113   26.7847 C   0  0  0  0  0  0  0  0  0  0  0  0
    6.3015  -13.5975   26.3634 C   0  0  0  0  0  0  0  0  0  0  0  0
    5.9578  -12.3182   25.9902 C   0  0  0  0  0  0  0  0  0  0  0  0
    6.8745  -11.2970   26.0160 C   0  0  0  0  0  0  0  0  0  0  0  0
    8.1741  -11.5760   26.4306 C   0  0  0  0  0  0  0  0  0  0  0  0
    8.4982  -12.8643   26.8005 C   0  0  0  0  0  0  0  0  0  0  0  0
    9.2820  -17.2573   26.6740 C   0  0  0  0  0  0  0  0  0  0  0  0
   10.3005  -17.4547   27.5738 O   0  0  0  0  0  0  0  0  0  0  0  0
    8.7182  -18.3175   26.2278 O   0  0  0  0  0  0  0  0  0  0  0  0
  2  1  1  1
  2  3  1  0
  2  4  1  0
  4  6  1  0
  4  5  1  6
  6  7  2  0
  9 11  1  0
  9  8  1  6
 10  9  1  0
 11 12  1  6
 12  6  1  0
 13 14  2  0
 13 11  1  0
 15 13  1  0
 16 24  1  0
 16 15  1  0
 16 17  1  1
 18 17  1  0
 19 18  2  0
 20 19  1  0
 21 20  2  0
 21 22  1  0
 22 23  2  0
 23 18  1  0
 24 25  1  0
 26 24  2  0
M  END
$$$$
