TTF.pdb
     RDKit          3D

 26 26  0  0  1  0  0  0  0  0999 V2000
   10.5759  -13.7453   18.1317 C   0  0  0  0  0  0  0  0  0  0  0  0
    9.8848  -14.1927   19.3695 C   0  0  1  0  0  0  0  0  0  0  0  0
   10.4396  -13.5424   20.4684 O   0  0  0  0  0  0  0  0  0  0  0  0
    8.3989  -13.9009   19.3764 C   0  0  2  0  0  0  0  0  0  0  0  0
    8.1346  -12.4795   19.2743 N   0  0  0  0  0  0  0  0  0  0  0  0
    7.8243  -14.4286   20.6376 C   0  0  0  0  0  0  0  0  0  0  0  0
    7.4480  -13.6764   21.5804 O   0  0  0  0  0  0  0  0  0  0  0  0
    5.9039  -18.2807   23.0624 C   0  0  0  0  0  0  0  0  0  0  0  0
    6.6312  -17.8213   21.8161 C   0  0  1  0  0  0  0  0  0  0  0  0
    5.7476  -17.9164   20.7628 O   0  0  0  0  0  0  0  0  0  0  0  0
    7.1287  -16.4057   22.0240 C   0  0  2  0  0  0  0  0  0  0  0  0
    7.6730  -15.8291   20.8349 N   0  0  0  0  0  0  0  0  0  0  0  0
    8.0556  -16.3162   23.1762 C   0  0  0  0  0  0  0  0  0  0  0  0
    9.2832  -16.3320   22.9987 O   0  0  0  0  0  0  0  0  0  0  0  0
    7.5514  -16.2115   24.4938 N   0  0  0  0  0  0  0  0  0  0  0  0
    8.4154  -16.0774   25.6675 C   0  0  1  0  0  0  0  0  0  0  0  0
    7.6754  -15.4860   26.8228 C   0  0  0  0  0  0  0  0  0  0  0  0
    7.2833  -14.1030   26.5895 C   0  0  0  0  0  0  0  0  0  0  0  0
    6.0223  -13.6327   26.9712 C   0  0  0  0  0  0  0  0  0  0  0  0
    5.6527  -12.3228   26.7674 C   0  0  0  0  0  0  0  0  0  0  0  0
    6.5074  -11.4234   26.1806 C   0  0  0  0  0  0  0  0  0  0  0  0
    7.7704  -11.8596   25.7890 C   0  0  0  0  0  0  0  0  0  0  0  0
    8.1214  -13.1760   26.0021 C   0  0  0  0  0  0  0  0  0  0  0  0
    9.0551  -17.3471   26.0173 C   0  0  0  0  0  0  0  0  0  0  0  0
    8.7618  -18.5907   25.5141 O   0  0  0  0  0  0  0  0  0  0  0  0
    9.9926  -17.3048   26.8894 O   0  0  0  0  0  0  0  0  0  0  0  0
  2  1  1  6
  2  3  1  0
  2  4  1  0
  4  6  1  0
  4  5  1  1
  6  7  2  0
  9 11  1  0
  9  8  1  1
 10  9  1  0
 11 12  1  6
 12  6  1  0
 13 14  2  0
 13 11  1  0
 15 13  1  0
 16 24  1  0
 16 15  1  0
 16 17  1  1
 18 17  1  0
 19 18  2  0
 20 19  1  0
 21 20  2  0
 21 22  1  0
 22 23  2  0
 23 18  1  0
 24 25  1  0
 26 24  2  0
M  END
$$$$
