TTF.pdb
     RDKit          3D

 26 26  0  0  1  0  0  0  0  0999 V2000
    9.8645  -12.2215   18.6487 C   0  0  0  0  0  0  0  0  0  0  0  0
    9.2031  -12.9572   19.7584 C   0  0  1  0  0  0  0  0  0  0  0  0
    8.2689  -12.1261   20.3705 O   0  0  0  0  0  0  0  0  0  0  0  0
    8.4711  -14.2047   19.3105 C   0  0  2  0  0  0  0  0  0  0  0  0
    7.3259  -13.8823   18.4826 N   0  0  0  0  0  0  0  0  0  0  0  0
    8.0259  -14.9444   20.5162 C   0  0  0  0  0  0  0  0  0  0  0  0
    6.8210  -14.9641   20.8955 O   0  0  0  0  0  0  0  0  0  0  0  0
    7.8807  -18.3288   20.9391 C   0  0  0  0  0  0  0  0  0  0  0  0
    8.7266  -17.9671   22.1419 C   0  0  1  0  0  0  0  0  0  0  0  0
   10.0263  -18.3258   21.8564 O   0  0  0  0  0  0  0  0  0  0  0  0
    8.5866  -16.4849   22.4209 C   0  0  2  0  0  0  0  0  0  0  0  0
    8.9587  -15.6730   21.3050 N   0  0  0  0  0  0  0  0  0  0  0  0
    9.2862  -16.0951   23.6672 C   0  0  0  0  0  0  0  0  0  0  0  0
   10.4068  -15.5652   23.6202 O   0  0  0  0  0  0  0  0  0  0  0  0
    8.6842  -16.3228   24.9269 N   0  0  0  0  0  0  0  0  0  0  0  0
    9.3501  -16.0158   26.1936 C   0  0  1  0  0  0  0  0  0  0  0  0
    8.3904  -15.4508   27.1895 C   0  0  0  0  0  0  0  0  0  0  0  0
    7.8409  -14.1678   26.7741 C   0  0  0  0  0  0  0  0  0  0  0  0
    8.5838  -12.9883   26.8926 C   0  0  0  0  0  0  0  0  0  0  0  0
    8.0752  -11.7756   26.4868 C   0  0  0  0  0  0  0  0  0  0  0  0
    6.8166  -11.6739   25.9489 C   0  0  0  0  0  0  0  0  0  0  0  0
    6.0509  -12.8294   25.8172 C   0  0  0  0  0  0  0  0  0  0  0  0
    6.5789  -14.0347   26.2296 C   0  0  0  0  0  0  0  0  0  0  0  0
   10.0704  -17.1757   26.7222 C   0  0  0  0  0  0  0  0  0  0  0  0
   10.1544  -18.4267   26.1618 O   0  0  0  0  0  0  0  0  0  0  0  0
   10.6936  -17.0176   27.8303 O   0  0  0  0  0  0  0  0  0  0  0  0
  2  1  1  6
  2  3  1  0
  2  4  1  0
  4  6  1  0
  4  5  1  6
  6  7  2  0
  9 11  1  0
  9  8  1  6
 10  9  1  0
 11 12  1  6
 12  6  1  0
 13 14  2  0
 13 11  1  0
 15 13  1  0
 16 24  1  0
 16 15  1  0
 16 17  1  1
 18 17  1  0
 19 18  2  0
 20 19  1  0
 21 20  2  0
 21 22  1  0
 22 23  2  0
 23 18  1  0
 24 25  1  0
 26 24  2  0
M  END
$$$$
