TTF.pdb
     RDKit          3D

 26 26  0  0  1  0  0  0  0  0999 V2000
   10.6856  -13.2498   19.8104 C   0  0  0  0  0  0  0  0  0  0  0  0
    9.5825  -13.0082   18.8434 C   0  0  1  0  0  0  0  0  0  0  0  0
   10.1181  -12.5964   17.6262 O   0  0  0  0  0  0  0  0  0  0  0  0
    8.7330  -14.2316   18.5709 C   0  0  2  0  0  0  0  0  0  0  0  0
    7.6985  -13.9552   17.5941 N   0  0  0  0  0  0  0  0  0  0  0  0
    8.1146  -14.6656   19.8470 C   0  0  0  0  0  0  0  0  0  0  0  0
    7.1631  -14.0365   20.3901 O   0  0  0  0  0  0  0  0  0  0  0  0
    6.5545  -17.8576   20.6680 C   0  0  0  0  0  0  0  0  0  0  0  0
    7.5932  -17.7020   21.7589 C   0  0  1  0  0  0  0  0  0  0  0  0
    8.6100  -18.5933   21.4923 O   0  0  0  0  0  0  0  0  0  0  0  0
    8.0776  -16.2669   21.7834 C   0  0  2  0  0  0  0  0  0  0  0  0
    8.5802  -15.8297   20.5190 N   0  0  0  0  0  0  0  0  0  0  0  0
    9.0354  -16.0325   22.8890 C   0  0  0  0  0  0  0  0  0  0  0  0
   10.2542  -15.9782   22.6645 O   0  0  0  0  0  0  0  0  0  0  0  0
    8.5712  -15.8676   24.2151 N   0  0  0  0  0  0  0  0  0  0  0  0
    9.4689  -15.6518   25.3507 C   0  0  1  0  0  0  0  0  0  0  0  0
    9.6693  -14.1953   25.6165 C   0  0  0  0  0  0  0  0  0  0  0  0
    8.4174  -13.4915   25.8580 C   0  0  0  0  0  0  0  0  0  0  0  0
    7.5591  -13.1567   24.8053 C   0  0  0  0  0  0  0  0  0  0  0  0
    6.3676  -12.5057   25.0297 C   0  0  0  0  0  0  0  0  0  0  0  0
    5.9724  -12.1580   26.2973 C   0  0  0  0  0  0  0  0  0  0  0  0
    6.8041  -12.4769   27.3675 C   0  0  0  0  0  0  0  0  0  0  0  0
    7.9937  -13.1294   27.1214 C   0  0  0  0  0  0  0  0  0  0  0  0
    9.0162  -16.3702   26.5435 C   0  0  0  0  0  0  0  0  0  0  0  0
    9.6672  -16.4716   27.7484 O   0  0  0  0  0  0  0  0  0  0  0  0
    7.8901  -16.9760   26.4648 O   0  0  0  0  0  0  0  0  0  0  0  0
  2  1  1  1
  2  3  1  0
  2  4  1  0
  4  6  1  0
  4  5  1  6
  6  7  2  0
  9 11  1  0
  9  8  1  6
 10  9  1  0
 11 12  1  6
 12  6  1  0
 13 14  2  0
 13 11  1  0
 15 13  1  0
 16 24  1  0
 16 15  1  0
 16 17  1  1
 18 17  1  0
 19 18  2  0
 20 19  1  0
 21 20  2  0
 21 22  1  0
 22 23  2  0
 23 18  1  0
 24 25  1  0
 26 24  2  0
M  END
$$$$
