TTF.pdb
     RDKit          3D

 26 26  0  0  1  0  0  0  0  0999 V2000
   11.1352  -14.7904   19.3332 C   0  0  0  0  0  0  0  0  0  0  0  0
   10.2969  -13.5923   19.0650 C   0  0  1  0  0  0  0  0  0  0  0  0
   10.6696  -13.0318   17.8464 O   0  0  0  0  0  0  0  0  0  0  0  0
    8.8144  -13.8913   18.9887 C   0  0  2  0  0  0  0  0  0  0  0  0
    8.0496  -12.7095   18.6440 N   0  0  0  0  0  0  0  0  0  0  0  0
    8.3728  -14.4077   20.3068 C   0  0  0  0  0  0  0  0  0  0  0  0
    8.0966  -13.6473   21.2772 O   0  0  0  0  0  0  0  0  0  0  0  0
    6.6491  -18.2431   22.9012 C   0  0  0  0  0  0  0  0  0  0  0  0
    7.3048  -17.7997   21.6103 C   0  0  1  0  0  0  0  0  0  0  0  0
    6.3723  -17.9354   20.6047 O   0  0  0  0  0  0  0  0  0  0  0  0
    7.7847  -16.3709   21.7612 C   0  0  2  0  0  0  0  0  0  0  0  0
    8.2415  -15.8063   20.5303 N   0  0  0  0  0  0  0  0  0  0  0  0
    8.7795  -16.2411   22.8512 C   0  0  0  0  0  0  0  0  0  0  0  0
    9.9787  -16.4780   22.6399 O   0  0  0  0  0  0  0  0  0  0  0  0
    8.3736  -15.8450   24.1472 N   0  0  0  0  0  0  0  0  0  0  0  0
    9.3166  -15.6374   25.2471 C   0  0  1  0  0  0  0  0  0  0  0  0
    9.5647  -14.1832   25.4835 C   0  0  0  0  0  0  0  0  0  0  0  0
    8.3447  -13.4475   25.7853 C   0  0  0  0  0  0  0  0  0  0  0  0
    7.4320  -13.1131   24.7792 C   0  0  0  0  0  0  0  0  0  0  0  0
    6.2700  -12.4319   25.0614 C   0  0  0  0  0  0  0  0  0  0  0  0
    5.9590  -12.0523   26.3433 C   0  0  0  0  0  0  0  0  0  0  0  0
    6.8465  -12.3699   27.3681 C   0  0  0  0  0  0  0  0  0  0  0  0
    8.0053  -13.0530   27.0643 C   0  0  0  0  0  0  0  0  0  0  0  0
    8.8878  -16.3263   26.4658 C   0  0  0  0  0  0  0  0  0  0  0  0
    7.6883  -16.9585   26.6836 O   0  0  0  0  0  0  0  0  0  0  0  0
    9.7149  -16.3464   27.4438 O   0  0  0  0  0  0  0  0  0  0  0  0
  2  1  1  6
  2  3  1  0
  2  4  1  0
  4  6  1  0
  4  5  1  1
  6  7  2  0
  9 11  1  0
  9  8  1  1
 10  9  1  0
 11 12  1  6
 12  6  1  0
 13 14  2  0
 13 11  1  0
 15 13  1  0
 16 24  1  0
 16 15  1  0
 16 17  1  1
 18 17  1  0
 19 18  2  0
 20 19  1  0
 21 20  2  0
 21 22  1  0
 22 23  2  0
 23 18  1  0
 24 25  1  0
 26 24  2  0
M  END
$$$$
