TTF.pdb
     RDKit          3D

 26 26  0  0  1  0  0  0  0  0999 V2000
   10.0253  -14.5914   16.9842 C   0  0  0  0  0  0  0  0  0  0  0  0
    9.4768  -14.8453   18.3424 C   0  0  1  0  0  0  0  0  0  0  0  0
   10.3317  -14.2977   19.2950 O   0  0  0  0  0  0  0  0  0  0  0  0
    8.1061  -14.2428   18.5678 C   0  0  2  0  0  0  0  0  0  0  0  0
    8.1117  -12.8098   18.3506 N   0  0  0  0  0  0  0  0  0  0  0  0
    7.6885  -14.5373   19.9599 C   0  0  0  0  0  0  0  0  0  0  0  0
    7.6560  -13.6530   20.8616 O   0  0  0  0  0  0  0  0  0  0  0  0
    5.8060  -17.8195   23.1654 C   0  0  0  0  0  0  0  0  0  0  0  0
    6.3164  -17.5936   21.7577 C   0  0  1  0  0  0  0  0  0  0  0  0
    5.2438  -17.7260   20.9025 O   0  0  0  0  0  0  0  0  0  0  0  0
    6.9535  -16.2219   21.6738 C   0  0  2  0  0  0  0  0  0  0  0  0
    7.3019  -15.8530   20.3376 N   0  0  0  0  0  0  0  0  0  0  0  0
    8.0890  -16.0885   22.6158 C   0  0  0  0  0  0  0  0  0  0  0  0
    9.2557  -16.2301   22.2188 O   0  0  0  0  0  0  0  0  0  0  0  0
    7.8564  -15.7978   23.9805 N   0  0  0  0  0  0  0  0  0  0  0  0
    8.9355  -15.6622   24.9599 C   0  0  1  0  0  0  0  0  0  0  0  0
    9.1704  -14.2302   25.3154 C   0  0  0  0  0  0  0  0  0  0  0  0
    8.0253  -13.6213   25.9778 C   0  0  0  0  0  0  0  0  0  0  0  0
    7.9675  -13.5118   27.3713 C   0  0  0  0  0  0  0  0  0  0  0  0
    6.8950  -12.9230   28.0014 C   0  0  0  0  0  0  0  0  0  0  0  0
    5.8369  -12.4187   27.2871 C   0  0  0  0  0  0  0  0  0  0  0  0
    5.8634  -12.5118   25.8981 C   0  0  0  0  0  0  0  0  0  0  0  0
    6.9473  -13.1053   25.2861 C   0  0  0  0  0  0  0  0  0  0  0  0
    8.6998  -16.4903   26.1441 C   0  0  0  0  0  0  0  0  0  0  0  0
    9.5771  -16.7392   27.1709 O   0  0  0  0  0  0  0  0  0  0  0  0
    7.5519  -17.0504   26.2426 O   0  0  0  0  0  0  0  0  0  0  0  0
  2  1  1  6
  2  3  1  0
  2  4  1  0
  4  6  1  0
  4  5  1  1
  6  7  2  0
  9 11  1  0
  9  8  1  1
 10  9  1  0
 11 12  1  6
 12  6  1  0
 13 14  2  0
 13 11  1  0
 15 13  1  0
 16 24  1  0
 16 15  1  0
 16 17  1  1
 18 17  1  0
 19 18  2  0
 20 19  1  0
 21 20  2  0
 21 22  1  0
 22 23  2  0
 23 18  1  0
 24 25  1  0
 26 24  2  0
M  END
$$$$
