TTF.pdb
     RDKit          3D

 26 26  0  0  1  0  0  0  0  0999 V2000
    9.5479  -12.4533   20.3448 C   0  0  0  0  0  0  0  0  0  0  0  0
    8.7619  -12.7440   19.1170 C   0  0  1  0  0  0  0  0  0  0  0  0
    9.3976  -12.1752   18.0168 O   0  0  0  0  0  0  0  0  0  0  0  0
    8.6038  -14.2226   18.8312 C   0  0  2  0  0  0  0  0  0  0  0  0
    7.8082  -14.4533   17.6419 N   0  0  0  0  0  0  0  0  0  0  0  0
    7.9521  -14.8583   20.0018 C   0  0  0  0  0  0  0  0  0  0  0  0
    6.7032  -14.8198   20.1888 O   0  0  0  0  0  0  0  0  0  0  0  0
    7.0336  -17.8916   20.6929 C   0  0  0  0  0  0  0  0  0  0  0  0
    7.9553  -17.6954   21.8783 C   0  0  1  0  0  0  0  0  0  0  0  0
    9.1351  -18.3502   21.5978 O   0  0  0  0  0  0  0  0  0  0  0  0
    8.1608  -16.2124   22.1085 C   0  0  2  0  0  0  0  0  0  0  0  0
    8.7256  -15.5485   20.9758 N   0  0  0  0  0  0  0  0  0  0  0  0
    8.9164  -15.9528   23.3560 C   0  0  0  0  0  0  0  0  0  0  0  0
   10.1261  -15.6813   23.3138 O   0  0  0  0  0  0  0  0  0  0  0  0
    8.2670  -16.0114   24.6113 N   0  0  0  0  0  0  0  0  0  0  0  0
    8.9594  -15.7653   25.8771 C   0  0  1  0  0  0  0  0  0  0  0  0
    8.0308  -15.2059   26.9051 C   0  0  0  0  0  0  0  0  0  0  0  0
    7.5204  -13.8906   26.5439 C   0  0  0  0  0  0  0  0  0  0  0  0
    8.3470  -12.7620   26.5623 C   0  0  0  0  0  0  0  0  0  0  0  0
    7.8737  -11.5197   26.2067 C   0  0  0  0  0  0  0  0  0  0  0  0
    6.5697  -11.3371   25.8191 C   0  0  0  0  0  0  0  0  0  0  0  0
    5.7207  -12.4403   25.7900 C   0  0  0  0  0  0  0  0  0  0  0  0
    6.2144  -13.6765   26.1499 C   0  0  0  0  0  0  0  0  0  0  0  0
    9.6528  -16.9623   26.3570 C   0  0  0  0  0  0  0  0  0  0  0  0
    9.6521  -18.2090   25.7810 O   0  0  0  0  0  0  0  0  0  0  0  0
   10.3376  -16.8451   27.4333 O   0  0  0  0  0  0  0  0  0  0  0  0
  2  1  1  1
  2  3  1  0
  2  4  1  0
  4  6  1  0
  4  5  1  6
  6  7  2  0
  9 11  1  0
  9  8  1  6
 10  9  1  0
 11 12  1  6
 12  6  1  0
 13 14  2  0
 13 11  1  0
 15 13  1  0
 16 24  1  0
 16 15  1  0
 16 17  1  1
 18 17  1  0
 19 18  2  0
 20 19  1  0
 21 20  2  0
 21 22  1  0
 22 23  2  0
 23 18  1  0
 24 25  1  0
 26 24  2  0
M  END
$$$$
