TTF.pdb
     RDKit          3D

 26 26  0  0  1  0  0  0  0  0999 V2000
   12.0113  -18.6552   20.6949 C   0  0  0  0  0  0  0  0  0  0  0  0
   12.4564  -17.5999   19.7471 C   0  0  1  0  0  0  0  0  0  0  0  0
   13.2351  -18.1764   18.7474 O   0  0  0  0  0  0  0  0  0  0  0  0
   11.3160  -16.8725   19.0666 C   0  0  2  0  0  0  0  0  0  0  0  0
   11.7913  -16.0220   17.9935 N   0  0  0  0  0  0  0  0  0  0  0  0
   10.6119  -16.0525   20.0820 C   0  0  0  0  0  0  0  0  0  0  0  0
   11.0951  -14.9806   20.5444 O   0  0  0  0  0  0  0  0  0  0  0  0
    6.6065  -15.4136   20.2776 C   0  0  0  0  0  0  0  0  0  0  0  0
    7.1495  -15.9755   21.5748 C   0  0  1  0  0  0  0  0  0  0  0  0
    6.8116  -17.3108   21.6207 O   0  0  0  0  0  0  0  0  0  0  0  0
    8.6479  -15.7590   21.6221 C   0  0  2  0  0  0  0  0  0  0  0  0
    9.3414  -16.4515   20.5818 N   0  0  0  0  0  0  0  0  0  0  0  0
    9.1997  -16.0496   22.9658 C   0  0  0  0  0  0  0  0  0  0  0  0
    9.9867  -16.9941   23.1319 O   0  0  0  0  0  0  0  0  0  0  0  0
    8.8355  -15.2530   24.0767 N   0  0  0  0  0  0  0  0  0  0  0  0
    9.3778  -15.4655   25.4194 C   0  0  1  0  0  0  0  0  0  0  0  0
    9.5958  -14.1690   26.1292 C   0  0  0  0  0  0  0  0  0  0  0  0
    8.3722  -13.3912   26.2657 C   0  0  0  0  0  0  0  0  0  0  0  0
    7.8341  -12.6899   25.1814 C   0  0  0  0  0  0  0  0  0  0  0  0
    6.6696  -11.9664   25.3009 C   0  0  0  0  0  0  0  0  0  0  0  0
    5.9880  -11.9032   26.4906 C   0  0  0  0  0  0  0  0  0  0  0  0
    6.4969  -12.5901   27.5896 C   0  0  0  0  0  0  0  0  0  0  0  0
    7.6650  -13.3094   27.4489 C   0  0  0  0  0  0  0  0  0  0  0  0
    8.5480  -16.3856   26.1995 C   0  0  0  0  0  0  0  0  0  0  0  0
    8.8592  -16.9647   27.4053 O   0  0  0  0  0  0  0  0  0  0  0  0
    7.4038  -16.6923   25.7119 O   0  0  0  0  0  0  0  0  0  0  0  0
  2  1  1  1
  2  3  1  0
  2  4  1  0
  4  6  1  0
  4  5  1  6
  6  7  2  0
  9 11  1  0
  9  8  1  6
 10  9  1  0
 11 12  1  6
 12  6  1  0
 13 14  2  0
 13 11  1  0
 15 13  1  0
 16 24  1  0
 16 15  1  0
 16 17  1  1
 18 17  1  0
 19 18  2  0
 20 19  1  0
 21 20  2  0
 21 22  1  0
 22 23  2  0
 23 18  1  0
 24 25  1  0
 26 24  2  0
M  END
$$$$
