YRE.pdb
     RDKit          3D

 33 33  0  0  1  0  0  0  0  0999 V2000
   29.0588  -15.8316  -21.2643 O   0  0  0  0  0  0  0  0  0  0  0  0
   28.3362  -16.6489  -20.4071 C   0  0  0  0  0  0  0  0  0  0  0  0
   28.4962  -16.4535  -19.0484 C   0  0  0  0  0  0  0  0  0  0  0  0
   27.8019  -17.2388  -18.1840 C   0  0  0  0  0  0  0  0  0  0  0  0
   26.9288  -18.2400  -18.6004 C   0  0  0  0  0  0  0  0  0  0  0  0
   26.2156  -19.0437  -17.6121 C   0  0  0  0  0  0  0  0  0  0  0  0
   27.2004  -19.8604  -16.8089 C   0  0  2  0  0  0  0  0  0  0  0  0
   27.6457  -20.9394  -17.6721 N   0  0  0  0  0  0  0  0  0  0  0  0
   26.5535  -20.5002  -15.6338 C   0  0  0  0  0  0  0  0  0  0  0  0
   25.8178  -21.4936  -15.8692 O   0  0  0  0  0  0  0  0  0  0  0  0
   26.7831  -18.4192  -19.9577 C   0  0  0  0  0  0  0  0  0  0  0  0
   27.4832  -17.6280  -20.8728 C   0  0  0  0  0  0  0  0  0  0  0  0
   30.9439  -22.1522  -11.6417 N   0  0  0  0  0  0  0  0  0  0  0  0
   30.6484  -21.8924  -10.2837 C   0  0  0  0  0  0  0  0  0  0  0  0
   31.5027  -22.2628   -9.3788 N   0  0  0  0  0  0  0  0  0  0  0  0
   29.4669  -21.2536   -9.8483 N   0  0  0  0  0  0  0  0  0  0  0  0
   28.8268  -20.2582  -10.6373 C   0  0  0  0  0  0  0  0  0  0  0  0
   28.0851  -20.7526  -11.8402 C   0  0  0  0  0  0  0  0  0  0  0  0
   26.6306  -20.4233  -11.8656 C   0  0  0  0  0  0  0  0  0  0  0  0
   25.9945  -20.7595  -13.2227 C   0  0  2  0  0  0  0  0  0  0  0  0
   26.6964  -20.0894  -14.2963 N   0  0  0  0  0  0  0  0  0  0  0  0
   24.5438  -20.4653  -13.2131 C   0  0  0  0  0  0  0  0  0  0  0  0
   24.1886  -19.2585  -13.3533 O   0  0  0  0  0  0  0  0  0  0  0  0
   31.3793  -22.0470   -8.3720 N   0  0  0  0  0  0  0  0  0  0  0  0
   23.5166  -21.4247  -13.0589 C   0  0  2  0  0  0  0  0  0  0  0  0
   22.0866  -21.0854  -13.0925 C   0  0  0  0  0  0  0  0  0  0  0  0
   21.2639  -22.2775  -13.5115 C   0  0  0  0  0  0  0  0  0  0  0  0
   19.7929  -22.0555  -13.5024 C   0  0  0  0  0  0  0  0  0  0  0  0
   18.9799  -23.1836  -13.9577 O   0  0  0  0  0  0  0  0  0  0  0  0
   19.4751  -24.2779  -14.3211 C   0  0  0  0  0  0  0  0  0  0  0  0
   21.7138  -20.6601  -11.7245 O   0  0  0  0  0  0  0  0  0  0  0  0
   22.3956  -20.9989  -10.7294 O   0  0  0  0  0  0  0  0  0  0  0  0
   17.5839  -23.1101  -14.0164 O   0  0  0  0  0  0  0  0  0  0  0  0
  2  1  1  0
  3  2  2  0
  4  3  1  0
  5 11  1  0
  5  4  2  0
  6  5  1  0
  7  9  1  0
  7  6  1  0
  7  8  1  6
  9 10  2  0
  9 21  1  0
 11 12  2  0
 12  2  1  0
 13 14  1  0
 14 15  2  0
 14 16  1  0
 16 17  1  0
 17 18  1  0
 19 18  1  0
 20 19  1  1
 21 20  1  0
 22 24  1  0
 22 20  1  0
 23 22  2  0
 25 30  1  0
 25 24  1  0
 25 26  1  6
 26 27  1  0
 27 28  1  0
 28 32  1  0
 29 28  2  0
 30 33  1  0
 31 30  2  0
M  END
$$$$
