YRE.pdb
     RDKit          3D

 33 33  0  0  1  0  0  0  0  0999 V2000
   29.0087  -19.4022   -3.0650 O   0  0  0  0  0  0  0  0  0  0  0  0
   28.7042  -19.5681   -4.4084 C   0  0  0  0  0  0  0  0  0  0  0  0
   28.9946  -20.7899   -4.9855 C   0  0  0  0  0  0  0  0  0  0  0  0
   28.7080  -20.9821   -6.2995 C   0  0  0  0  0  0  0  0  0  0  0  0
   28.1311  -20.0023   -7.1028 C   0  0  0  0  0  0  0  0  0  0  0  0
   27.8505  -20.2826   -8.5078 C   0  0  0  0  0  0  0  0  0  0  0  0
   26.3680  -20.1569   -8.7691 C   0  0  2  0  0  0  0  0  0  0  0  0
   25.7334  -21.2828   -8.1078 N   0  0  0  0  0  0  0  0  0  0  0  0
   26.0526  -20.2852  -10.2158 C   0  0  0  0  0  0  0  0  0  0  0  0
   26.5305  -19.4030  -10.9753 O   0  0  0  0  0  0  0  0  0  0  0  0
   27.8494  -18.7921   -6.5096 C   0  0  0  0  0  0  0  0  0  0  0  0
   28.1321  -18.5628   -5.1602 C   0  0  0  0  0  0  0  0  0  0  0  0
   28.0851  -23.3382  -16.3893 N   0  0  0  0  0  0  0  0  0  0  0  0
   27.6621  -22.0626  -16.8286 C   0  0  0  0  0  0  0  0  0  0  0  0
   27.6667  -21.8096  -18.1021 N   0  0  0  0  0  0  0  0  0  0  0  0
   27.2365  -21.0363  -15.9572 N   0  0  0  0  0  0  0  0  0  0  0  0
   26.9429  -21.2971  -14.5901 C   0  0  0  0  0  0  0  0  0  0  0  0
   25.8585  -22.2966  -14.3322 C   0  0  0  0  0  0  0  0  0  0  0  0
   25.5576  -22.5458  -12.8928 C   0  0  0  0  0  0  0  0  0  0  0  0
   24.9676  -21.3022  -12.2111 C   0  0  2  0  0  0  0  0  0  0  0  0
   25.2729  -21.3015  -10.7965 N   0  0  0  0  0  0  0  0  0  0  0  0
   23.5176  -21.1872  -12.4861 C   0  0  0  0  0  0  0  0  0  0  0  0
   22.7400  -21.9781  -11.8761 O   0  0  0  0  0  0  0  0  0  0  0  0
   27.3636  -20.8977  -18.4919 N   0  0  0  0  0  0  0  0  0  0  0  0
   22.9260  -20.2636  -13.3783 C   0  0  2  0  0  0  0  0  0  0  0  0
   21.4734  -20.1523  -13.5754 C   0  0  0  0  0  0  0  0  0  0  0  0
   21.0773  -18.7210  -13.8359 C   0  0  0  0  0  0  0  0  0  0  0  0
   19.6285  -18.5124  -14.1022 C   0  0  0  0  0  0  0  0  0  0  0  0
   19.2401  -17.1465  -14.4550 O   0  0  0  0  0  0  0  0  0  0  0  0
   20.0721  -16.2199  -14.6098 C   0  0  0  0  0  0  0  0  0  0  0  0
   21.1318  -20.9992  -14.7405 O   0  0  0  0  0  0  0  0  0  0  0  0
   21.9244  -21.1339  -15.7015 O   0  0  0  0  0  0  0  0  0  0  0  0
   17.9014  -16.7861  -14.6436 O   0  0  0  0  0  0  0  0  0  0  0  0
  2  1  1  0
  3  2  2  0
  4  3  1  0
  5 11  1  0
  5  4  2  0
  6  5  1  0
  7  9  1  0
  7  6  1  0
  7  8  1  1
  9 10  2  0
  9 21  1  0
 11 12  2  0
 12  2  1  0
 13 14  1  0
 14 15  2  0
 14 16  1  0
 16 17  1  0
 17 18  1  0
 19 18  1  0
 20 19  1  1
 21 20  1  0
 22 24  1  0
 22 20  1  0
 23 22  2  0
 25 30  1  0
 25 24  1  0
 25 26  1  1
 26 27  1  0
 27 28  1  0
 28 32  1  0
 29 28  2  0
 30 33  1  0
 31 30  2  0
M  END
$$$$
