YRE.pdb
     RDKit          3D

 33 33  0  0  1  0  0  0  0  0999 V2000
   28.1090  -11.4211  -17.1971 O   0  0  0  0  0  0  0  0  0  0  0  0
   27.5135  -12.6054  -16.7874 C   0  0  0  0  0  0  0  0  0  0  0  0
   26.6273  -13.2118  -17.6573 C   0  0  0  0  0  0  0  0  0  0  0  0
   26.0283  -14.3726  -17.2838 C   0  0  0  0  0  0  0  0  0  0  0  0
   26.2636  -14.9890  -16.0579 C   0  0  0  0  0  0  0  0  0  0  0  0
   25.5833  -16.2376  -15.7264 C   0  0  0  0  0  0  0  0  0  0  0  0
   26.5984  -17.3414  -15.5447 C   0  0  2  0  0  0  0  0  0  0  0  0
   27.0146  -17.7453  -16.8756 N   0  0  0  0  0  0  0  0  0  0  0  0
   25.9959  -18.5420  -14.9088 C   0  0  0  0  0  0  0  0  0  0  0  0
   25.3422  -19.3086  -15.6628 O   0  0  0  0  0  0  0  0  0  0  0  0
   27.1494  -14.3695  -15.2052 C   0  0  0  0  0  0  0  0  0  0  0  0
   27.7819  -13.1747  -15.5597 C   0  0  0  0  0  0  0  0  0  0  0  0
   28.4357  -22.7146  -10.4282 N   0  0  0  0  0  0  0  0  0  0  0  0
   28.1703  -21.7490   -9.4301 C   0  0  0  0  0  0  0  0  0  0  0  0
   29.1650  -21.2712   -8.7459 N   0  0  0  0  0  0  0  0  0  0  0  0
   26.8761  -21.2733   -9.1261 N   0  0  0  0  0  0  0  0  0  0  0  0
   25.7112  -21.9193   -9.6250 C   0  0  0  0  0  0  0  0  0  0  0  0
   25.3464  -21.6083  -11.0433 C   0  0  0  0  0  0  0  0  0  0  0  0
   25.9127  -20.3361  -11.5774 C   0  0  0  0  0  0  0  0  0  0  0  0
   25.4624  -20.0750  -13.0226 C   0  0  2  0  0  0  0  0  0  0  0  0
   26.0972  -18.8858  -13.5488 N   0  0  0  0  0  0  0  0  0  0  0  0
   23.9857  -20.0269  -13.1149 C   0  0  0  0  0  0  0  0  0  0  0  0
   23.4005  -19.0113  -12.6372 O   0  0  0  0  0  0  0  0  0  0  0  0
   29.0461  -20.5312   -8.0292 N   0  0  0  0  0  0  0  0  0  0  0  0
   23.1704  -21.0261  -13.6946 C   0  0  2  0  0  0  0  0  0  0  0  0
   21.7014  -20.9704  -13.6877 C   0  0  0  0  0  0  0  0  0  0  0  0
   21.1172  -22.1814  -14.3702 C   0  0  0  0  0  0  0  0  0  0  0  0
   19.6306  -22.2160  -14.4163 C   0  0  0  0  0  0  0  0  0  0  0  0
   19.0454  -23.3679  -15.1030 O   0  0  0  0  0  0  0  0  0  0  0  0
   17.8075  -23.5571  -15.1829 C   0  0  0  0  0  0  0  0  0  0  0  0
   21.2797  -20.9276  -12.2694 O   0  0  0  0  0  0  0  0  0  0  0  0
   20.1868  -20.4170  -11.9308 O   0  0  0  0  0  0  0  0  0  0  0  0
   19.8401  -24.3403  -15.7198 O   0  0  0  0  0  0  0  0  0  0  0  0
  2  1  1  0
  3  2  2  0
  4  3  1  0
  5 11  1  0
  5  4  2  0
  6  5  1  0
  7  9  1  0
  7  6  1  0
  7  8  1  6
  9 10  2  0
  9 21  1  0
 11 12  2  0
 12  2  1  0
 13 14  1  0
 14 15  2  0
 14 16  1  0
 16 17  1  0
 17 18  1  0
 19 18  1  0
 20 19  1  1
 21 20  1  0
 22 24  1  0
 22 20  1  0
 23 22  2  0
 25 30  1  0
 25 24  1  0
 25 26  1  6
 26 27  1  0
 27 28  1  0
 28 32  1  0
 29 28  2  0
 30 33  1  0
 31 30  2  0
M  END
$$$$
