YRE.pdb
     RDKit          3D

 33 33  0  0  1  0  0  0  0  0999 V2000
   22.0962  -19.4090  -12.8297 O   0  0  0  0  0  0  0  0  0  0  0  0
   21.2778  -20.1096  -11.9554 C   0  0  0  0  0  0  0  0  0  0  0  0
   20.0896  -20.6109  -12.4520 C   0  0  0  0  0  0  0  0  0  0  0  0
   19.2671  -21.3011  -11.6195 C   0  0  0  0  0  0  0  0  0  0  0  0
   19.5625  -21.5320  -10.2788 C   0  0  0  0  0  0  0  0  0  0  0  0
   18.6296  -22.2843   -9.4450 C   0  0  0  0  0  0  0  0  0  0  0  0
   19.0742  -23.7248   -9.3504 C   0  0  2  0  0  0  0  0  0  0  0  0
   18.7807  -24.3347  -10.6348 N   0  0  0  0  0  0  0  0  0  0  0  0
   18.2885  -24.4766   -8.3374 C   0  0  0  0  0  0  0  0  0  0  0  0
   17.1690  -24.9161   -8.7078 O   0  0  0  0  0  0  0  0  0  0  0  0
   20.7507  -21.0246   -9.8030 C   0  0  0  0  0  0  0  0  0  0  0  0
   21.6184  -20.3101  -10.6337 C   0  0  0  0  0  0  0  0  0  0  0  0
   19.1685  -29.1269   -0.6576 N   0  0  0  0  0  0  0  0  0  0  0  0
   17.8540  -28.6092   -0.7142 C   0  0  0  0  0  0  0  0  0  0  0  0
   17.0359  -28.8800    0.2570 N   0  0  0  0  0  0  0  0  0  0  0  0
   17.3717  -27.8131   -1.7759 N   0  0  0  0  0  0  0  0  0  0  0  0
   18.2331  -27.3535   -2.8103 C   0  0  0  0  0  0  0  0  0  0  0  0
   17.5865  -26.5393   -3.8876 C   0  0  0  0  0  0  0  0  0  0  0  0
   18.5144  -26.0309   -4.9389 C   0  0  0  0  0  0  0  0  0  0  0  0
   17.7653  -25.2545   -6.0322 C   0  0  2  0  0  0  0  0  0  0  0  0
   18.6912  -24.7331   -7.0145 N   0  0  0  0  0  0  0  0  0  0  0  0
   16.9051  -24.2055   -5.4396 C   0  0  0  0  0  0  0  0  0  0  0  0
   17.3214  -23.6267   -4.3937 O   0  0  0  0  0  0  0  0  0  0  0  0
   16.0602  -28.5294    0.2799 N   0  0  0  0  0  0  0  0  0  0  0  0
   15.6508  -23.7946   -5.9466 C   0  0  2  0  0  0  0  0  0  0  0  0
   14.4067  -23.8600   -5.1662 C   0  0  0  0  0  0  0  0  0  0  0  0
   13.6794  -25.1548   -5.4270 C   0  0  0  0  0  0  0  0  0  0  0  0
   12.4605  -25.3640   -4.5999 C   0  0  0  0  0  0  0  0  0  0  0  0
   11.7350  -26.6106   -4.8463 O   0  0  0  0  0  0  0  0  0  0  0  0
   12.1657  -27.7326   -4.4854 C   0  0  0  0  0  0  0  0  0  0  0  0
   14.7891  -23.7648   -3.7393 O   0  0  0  0  0  0  0  0  0  0  0  0
   15.8479  -24.2821   -3.3137 O   0  0  0  0  0  0  0  0  0  0  0  0
   10.5019  -26.6276   -5.5072 O   0  0  0  0  0  0  0  0  0  0  0  0
  2  1  1  0
  3  2  2  0
  4  3  1  0
  5 11  1  0
  5  4  2  0
  6  5  1  0
  7  9  1  0
  7  6  1  0
  7  8  1  6
  9 10  2  0
  9 21  1  0
 11 12  2  0
 12  2  1  0
 13 14  1  0
 14 15  2  0
 14 16  1  0
 16 17  1  0
 17 18  1  0
 19 18  1  0
 20 19  1  1
 21 20  1  0
 22 24  1  0
 22 20  1  0
 23 22  2  0
 25 30  1  0
 25 24  1  0
 25 26  1  6
 26 27  1  0
 27 28  1  0
 28 32  1  0
 29 28  2  0
 30 33  1  0
 31 30  2  0
M  END
$$$$
