YRE.pdb
     RDKit          3D

 33 33  0  0  1  0  0  0  0  0999 V2000
   30.3321  -17.0120  -17.4449 O   0  0  0  0  0  0  0  0  0  0  0  0
   29.0184  -17.3158  -17.1179 C   0  0  0  0  0  0  0  0  0  0  0  0
   28.7732  -17.8265  -15.8574 C   0  0  0  0  0  0  0  0  0  0  0  0
   27.4967  -18.1338  -15.5084 C   0  0  0  0  0  0  0  0  0  0  0  0
   26.4120  -17.9590  -16.3634 C   0  0  0  0  0  0  0  0  0  0  0  0
   25.0671  -18.3110  -15.9174 C   0  0  0  0  0  0  0  0  0  0  0  0
   25.0409  -19.7486  -15.4545 C   0  0  2  0  0  0  0  0  0  0  0  0
   25.3777  -20.5622  -16.6087 N   0  0  0  0  0  0  0  0  0  0  0  0
   23.6786  -20.1637  -15.0292 C   0  0  0  0  0  0  0  0  0  0  0  0
   22.9010  -20.5541  -15.9383 O   0  0  0  0  0  0  0  0  0  0  0  0
   26.6767  -17.4493  -17.6146 C   0  0  0  0  0  0  0  0  0  0  0  0
   27.9788  -17.1232  -18.0041 C   0  0  0  0  0  0  0  0  0  0  0  0
   17.9173  -23.2464   -8.8945 N   0  0  0  0  0  0  0  0  0  0  0  0
   19.1695  -23.7973   -9.2516 C   0  0  0  0  0  0  0  0  0  0  0  0
   19.3782  -25.0605   -9.0357 N   0  0  0  0  0  0  0  0  0  0  0  0
   20.2180  -23.0482   -9.8288 N   0  0  0  0  0  0  0  0  0  0  0  0
   20.0521  -21.6766  -10.1667 C   0  0  0  0  0  0  0  0  0  0  0  0
   20.2860  -21.3228  -11.6025 C   0  0  0  0  0  0  0  0  0  0  0  0
   21.6924  -20.9621  -11.9438 C   0  0  0  0  0  0  0  0  0  0  0  0
   21.8249  -20.5073  -13.4049 C   0  0  2  0  0  0  0  0  0  0  0  0
   23.1953  -20.1554  -13.7084 N   0  0  0  0  0  0  0  0  0  0  0  0
   20.8711  -19.4162  -13.7068 C   0  0  0  0  0  0  0  0  0  0  0  0
   21.0176  -18.3210  -13.0894 O   0  0  0  0  0  0  0  0  0  0  0  0
   20.2680  -25.5308   -9.2858 N   0  0  0  0  0  0  0  0  0  0  0  0
   19.8043  -19.4962  -14.6313 C   0  0  2  0  0  0  0  0  0  0  0  0
   18.9360  -18.3560  -14.9590 C   0  0  0  0  0  0  0  0  0  0  0  0
   18.7959  -18.2026  -16.4524 C   0  0  0  0  0  0  0  0  0  0  0  0
   17.9342  -17.0698  -16.8858 C   0  0  0  0  0  0  0  0  0  0  0  0
   17.7779  -16.9108  -18.3319 O   0  0  0  0  0  0  0  0  0  0  0  0
   18.3846  -17.6260  -19.1657 C   0  0  0  0  0  0  0  0  0  0  0  0
   17.6170  -18.6302  -14.3455 O   0  0  0  0  0  0  0  0  0  0  0  0
   17.2334  -19.8023  -14.1245 O   0  0  0  0  0  0  0  0  0  0  0  0
   16.9322  -15.9401  -18.8797 O   0  0  0  0  0  0  0  0  0  0  0  0
  2  1  1  0
  3  2  2  0
  4  3  1  0
  5 11  1  0
  5  4  2  0
  6  5  1  0
  7  9  1  0
  7  6  1  0
  7  8  1  6
  9 10  2  0
  9 21  1  0
 11 12  2  0
 12  2  1  0
 13 14  1  0
 14 15  2  0
 14 16  1  0
 16 17  1  0
 17 18  1  0
 19 18  1  0
 20 19  1  1
 21 20  1  0
 22 24  1  0
 22 20  1  0
 23 22  2  0
 25 30  1  0
 25 24  1  0
 25 26  1  6
 26 27  1  0
 27 28  1  0
 28 32  1  0
 29 28  2  0
 30 33  1  0
 31 30  2  0
M  END
$$$$
