YRE.pdb
     RDKit          3D

 33 33  0  0  1  0  0  0  0  0999 V2000
   22.8313  -20.1400  -23.5105 O   0  0  0  0  0  0  0  0  0  0  0  0
   22.9644  -20.2329  -22.1326 C   0  0  0  0  0  0  0  0  0  0  0  0
   24.0379  -19.5889  -21.5472 C   0  0  0  0  0  0  0  0  0  0  0  0
   24.1947  -19.6622  -20.1997 C   0  0  0  0  0  0  0  0  0  0  0  0
   23.3210  -20.3593  -19.3697 C   0  0  0  0  0  0  0  0  0  0  0  0
   23.5535  -20.3924  -17.9288 C   0  0  0  0  0  0  0  0  0  0  0  0
   22.4825  -19.5983  -17.2188 C   0  0  2  0  0  0  0  0  0  0  0  0
   22.7645  -18.1979  -17.4774 N   0  0  0  0  0  0  0  0  0  0  0  0
   22.5525  -19.7773  -15.7450 C   0  0  0  0  0  0  0  0  0  0  0  0
   23.4568  -19.1411  -15.1443 O   0  0  0  0  0  0  0  0  0  0  0  0
   22.2580  -20.9942  -19.9717 C   0  0  0  0  0  0  0  0  0  0  0  0
   22.0689  -20.9380  -21.3554 C   0  0  0  0  0  0  0  0  0  0  0  0
   17.2069  -23.2861   -9.5762 N   0  0  0  0  0  0  0  0  0  0  0  0
   17.3909  -23.0811  -10.9630 C   0  0  0  0  0  0  0  0  0  0  0  0
   16.4418  -23.4337  -11.7757 N   0  0  0  0  0  0  0  0  0  0  0  0
   18.5577  -22.5161  -11.5224 N   0  0  0  0  0  0  0  0  0  0  0  0
   19.7435  -22.3490  -10.7549 C   0  0  0  0  0  0  0  0  0  0  0  0
   20.8913  -21.6925  -11.4571 C   0  0  0  0  0  0  0  0  0  0  0  0
   20.7039  -21.4912  -12.9230 C   0  0  0  0  0  0  0  0  0  0  0  0
   21.8982  -20.7603  -13.5545 C   0  0  2  0  0  0  0  0  0  0  0  0
   21.6991  -20.5904  -14.9778 N   0  0  0  0  0  0  0  0  0  0  0  0
   23.1689  -21.4468  -13.2300 C   0  0  0  0  0  0  0  0  0  0  0  0
   23.3174  -22.6336  -13.6445 O   0  0  0  0  0  0  0  0  0  0  0  0
   16.5355  -23.3683  -12.8065 N   0  0  0  0  0  0  0  0  0  0  0  0
   24.2356  -20.8849  -12.4913 C   0  0  1  0  0  0  0  0  0  0  0  0
   25.4512  -21.6322  -12.1375 C   0  0  0  0  0  0  0  0  0  0  0  0
   26.6172  -21.1881  -12.9841 C   0  0  0  0  0  0  0  0  0  0  0  0
   27.0056  -19.7621  -12.8136 C   0  0  0  0  0  0  0  0  0  0  0  0
   27.5421  -19.1055  -14.0060 O   0  0  0  0  0  0  0  0  0  0  0  0
   28.3107  -19.6814  -14.8136 C   0  0  0  0  0  0  0  0  0  0  0  0
   25.7221  -21.3599  -10.7079 O   0  0  0  0  0  0  0  0  0  0  0  0
   25.1184  -20.4501  -10.0932 O   0  0  0  0  0  0  0  0  0  0  0  0
   27.2270  -17.7794  -14.3222 O   0  0  0  0  0  0  0  0  0  0  0  0
  2  1  1  0
  3  2  2  0
  4  3  1  0
  5 11  1  0
  5  4  2  0
  6  5  1  0
  7  9  1  0
  7  6  1  0
  7  8  1  1
  9 10  2  0
  9 21  1  0
 11 12  2  0
 12  2  1  0
 13 14  1  0
 14 15  2  0
 14 16  1  0
 16 17  1  0
 17 18  1  0
 19 18  1  0
 20 19  1  6
 21 20  1  0
 22 24  1  0
 22 20  1  0
 23 22  2  0
 25 30  1  0
 25 24  1  0
 25 26  1  1
 26 27  1  0
 27 28  1  0
 28 32  1  0
 29 28  2  0
 30 33  1  0
 31 30  2  0
M  END
$$$$
