YRE.pdb
     RDKit          3D

 33 33  0  0  1  0  0  0  0  0999 V2000
   14.2583  -33.5762  -19.3394 O   0  0  0  0  0  0  0  0  0  0  0  0
   14.4623  -32.3534  -18.7163 C   0  0  0  0  0  0  0  0  0  0  0  0
   15.5977  -31.6424  -19.0558 C   0  0  0  0  0  0  0  0  0  0  0  0
   15.8247  -30.4417  -18.4620 C   0  0  0  0  0  0  0  0  0  0  0  0
   14.9640  -29.8848  -17.5201 C   0  0  0  0  0  0  0  0  0  0  0  0
   15.2737  -28.5880  -16.9252 C   0  0  0  0  0  0  0  0  0  0  0  0
   16.2244  -28.7704  -15.7656 C   0  0  2  0  0  0  0  0  0  0  0  0
   15.4364  -29.2850  -14.6602 N   0  0  0  0  0  0  0  0  0  0  0  0
   16.7914  -27.4738  -15.3114 C   0  0  0  0  0  0  0  0  0  0  0  0
   16.1255  -26.8397  -14.4524 O   0  0  0  0  0  0  0  0  0  0  0  0
   13.8386  -30.6083  -17.1952 C   0  0  0  0  0  0  0  0  0  0  0  0
   13.5765  -31.8466  -17.7880 C   0  0  0  0  0  0  0  0  0  0  0  0
   21.8936  -21.9761  -16.2702 N   0  0  0  0  0  0  0  0  0  0  0  0
   22.6176  -23.1454  -15.9424 C   0  0  0  0  0  0  0  0  0  0  0  0
   23.5718  -23.0615  -15.0658 N   0  0  0  0  0  0  0  0  0  0  0  0
   22.3667  -24.4089  -16.5205 N   0  0  0  0  0  0  0  0  0  0  0  0
   21.3970  -24.5764  -17.5475 C   0  0  0  0  0  0  0  0  0  0  0  0
   20.0252  -24.9703  -17.0952 C   0  0  0  0  0  0  0  0  0  0  0  0
   19.9268  -25.3916  -15.6678 C   0  0  0  0  0  0  0  0  0  0  0  0
   18.4706  -25.6384  -15.2462 C   0  0  2  0  0  0  0  0  0  0  0  0
   17.9978  -26.9063  -15.7592 N   0  0  0  0  0  0  0  0  0  0  0  0
   17.6074  -24.5018  -15.6390 C   0  0  0  0  0  0  0  0  0  0  0  0
   17.2250  -24.4442  -16.8443 O   0  0  0  0  0  0  0  0  0  0  0  0
   24.1792  -23.8660  -14.8222 N   0  0  0  0  0  0  0  0  0  0  0  0
   17.1728  -23.4696  -14.7760 C   0  0  2  0  0  0  0  0  0  0  0  0
   16.2929  -22.3747  -15.2099 C   0  0  0  0  0  0  0  0  0  0  0  0
   15.5511  -21.7876  -14.0358 C   0  0  0  0  0  0  0  0  0  0  0  0
   14.6257  -20.6733  -14.3754 C   0  0  0  0  0  0  0  0  0  0  0  0
   13.8905  -20.0958  -13.2499 O   0  0  0  0  0  0  0  0  0  0  0  0
   14.1095  -18.9397  -12.8140 C   0  0  0  0  0  0  0  0  0  0  0  0
   17.1590  -21.3492  -15.8341 O   0  0  0  0  0  0  0  0  0  0  0  0
   16.7043  -20.5364  -16.6724 O   0  0  0  0  0  0  0  0  0  0  0  0
   12.8864  -20.8063  -12.5830 O   0  0  0  0  0  0  0  0  0  0  0  0
  2  1  1  0
  3  2  2  0
  4  3  1  0
  5 11  1  0
  5  4  2  0
  6  5  1  0
  7  9  1  0
  7  6  1  0
  7  8  1  1
  9 10  2  0
  9 21  1  0
 11 12  2  0
 12  2  1  0
 13 14  1  0
 14 15  2  0
 14 16  1  0
 16 17  1  0
 17 18  1  0
 19 18  1  0
 20 19  1  6
 21 20  1  0
 22 24  1  0
 22 20  1  0
 23 22  2  0
 25 30  1  0
 25 24  1  0
 25 26  1  1
 26 27  1  0
 27 28  1  0
 28 32  1  0
 29 28  2  0
 30 33  1  0
 31 30  2  0
M  END
$$$$
