YRE.pdb
     RDKit          3D

 33 33  0  0  1  0  0  0  0  0999 V2000
   19.2466  -23.3718  -11.5501 O   0  0  0  0  0  0  0  0  0  0  0  0
   20.0440  -22.6588  -12.4337 C   0  0  0  0  0  0  0  0  0  0  0  0
   20.5636  -23.3380  -13.5193 C   0  0  0  0  0  0  0  0  0  0  0  0
   21.3484  -22.6664  -14.4019 C   0  0  0  0  0  0  0  0  0  0  0  0
   21.6591  -21.3160  -14.2680 C   0  0  0  0  0  0  0  0  0  0  0  0
   22.5088  -20.6610  -15.2582 C   0  0  0  0  0  0  0  0  0  0  0  0
   21.7346  -19.5659  -15.9533 C   0  0  2  0  0  0  0  0  0  0  0  0
   20.6904  -20.2196  -16.7214 N   0  0  0  0  0  0  0  0  0  0  0  0
   22.5798  -18.8314  -16.9305 C   0  0  0  0  0  0  0  0  0  0  0  0
   22.7889  -19.4017  -18.0326 O   0  0  0  0  0  0  0  0  0  0  0  0
   21.1321  -20.6571  -13.1800 C   0  0  0  0  0  0  0  0  0  0  0  0
   20.3214  -21.3194  -12.2540 C   0  0  0  0  0  0  0  0  0  0  0  0
   25.2748  -12.0603  -15.4587 N   0  0  0  0  0  0  0  0  0  0  0  0
   26.4530  -12.6024  -16.0218 C   0  0  0  0  0  0  0  0  0  0  0  0
   27.5356  -12.6174  -15.3052 N   0  0  0  0  0  0  0  0  0  0  0  0
   26.5248  -13.1279  -17.3304 N   0  0  0  0  0  0  0  0  0  0  0  0
   25.3561  -13.3254  -18.1166 C   0  0  0  0  0  0  0  0  0  0  0  0
   25.0081  -14.7481  -18.4270 C   0  0  0  0  0  0  0  0  0  0  0  0
   24.2338  -15.4554  -17.3665 C   0  0  0  0  0  0  0  0  0  0  0  0
   23.9136  -16.9037  -17.7657 C   0  0  2  0  0  0  0  0  0  0  0  0
   23.1569  -17.5655  -16.7247 N   0  0  0  0  0  0  0  0  0  0  0  0
   25.1471  -17.6351  -18.1329 C   0  0  0  0  0  0  0  0  0  0  0  0
   25.9833  -17.8745  -17.2134 O   0  0  0  0  0  0  0  0  0  0  0  0
   28.4438  -12.9585  -15.6718 N   0  0  0  0  0  0  0  0  0  0  0  0
   25.4709  -18.0903  -19.4318 C   0  0  2  0  0  0  0  0  0  0  0  0
   26.7081  -18.8207  -19.7436 C   0  0  0  0  0  0  0  0  0  0  0  0
   26.6502  -19.4015  -21.1338 C   0  0  0  0  0  0  0  0  0  0  0  0
   25.6075  -20.4441  -21.3322 C   0  0  0  0  0  0  0  0  0  0  0  0
   25.5353  -21.0192  -22.6757 O   0  0  0  0  0  0  0  0  0  0  0  0
   25.6859  -20.3370  -23.7181 C   0  0  0  0  0  0  0  0  0  0  0  0
   27.8191  -17.8479  -19.6400 O   0  0  0  0  0  0  0  0  0  0  0  0
   28.7270  -17.9856  -18.7876 O   0  0  0  0  0  0  0  0  0  0  0  0
   25.2910  -22.3812  -22.8824 O   0  0  0  0  0  0  0  0  0  0  0  0
  2  1  1  0
  3  2  2  0
  4  3  1  0
  5 11  1  0
  5  4  2  0
  6  5  1  0
  7  9  1  0
  7  6  1  0
  7  8  1  6
  9 10  2  0
  9 21  1  0
 11 12  2  0
 12  2  1  0
 13 14  1  0
 14 15  2  0
 14 16  1  0
 16 17  1  0
 17 18  1  0
 19 18  1  0
 20 19  1  1
 21 20  1  0
 22 24  1  0
 22 20  1  0
 23 22  2  0
 25 30  1  0
 25 24  1  0
 25 26  1  6
 26 27  1  0
 27 28  1  0
 28 32  1  0
 29 28  2  0
 30 33  1  0
 31 30  2  0
M  END
$$$$
