YRE.pdb
     RDKit          3D

 33 33  0  0  1  0  0  0  0  0999 V2000
   29.4825  -20.0225   -3.9861 O   0  0  0  0  0  0  0  0  0  0  0  0
   28.6396  -20.0183   -5.0881 C   0  0  0  0  0  0  0  0  0  0  0  0
   28.7055  -18.9334   -5.9416 C   0  0  0  0  0  0  0  0  0  0  0  0
   27.8921  -18.9010   -7.0293 C   0  0  0  0  0  0  0  0  0  0  0  0
   26.9867  -19.9143   -7.3317 C   0  0  0  0  0  0  0  0  0  0  0  0
   26.1452  -19.8104   -8.5202 C   0  0  0  0  0  0  0  0  0  0  0  0
   26.5521  -20.8585   -9.5291 C   0  0  2  0  0  0  0  0  0  0  0  0
   27.8642  -20.4757  -10.0186 N   0  0  0  0  0  0  0  0  0  0  0  0
   25.6477  -20.8657  -10.7084 C   0  0  0  0  0  0  0  0  0  0  0  0
   25.5581  -19.7894  -11.3541 O   0  0  0  0  0  0  0  0  0  0  0  0
   26.9358  -20.9865   -6.4694 C   0  0  0  0  0  0  0  0  0  0  0  0
   27.7592  -21.0497   -5.3418 C   0  0  0  0  0  0  0  0  0  0  0  0
   25.4057  -22.9273  -17.3300 N   0  0  0  0  0  0  0  0  0  0  0  0
   26.3867  -23.4613  -16.4631 C   0  0  0  0  0  0  0  0  0  0  0  0
   27.6374  -23.2185  -16.7135 N   0  0  0  0  0  0  0  0  0  0  0  0
   26.0854  -24.2548  -15.3347 N   0  0  0  0  0  0  0  0  0  0  0  0
   24.7434  -24.4716  -14.9163 C   0  0  0  0  0  0  0  0  0  0  0  0
   24.0172  -23.2702  -14.3960 C   0  0  0  0  0  0  0  0  0  0  0  0
   23.7867  -23.2597  -12.9225 C   0  0  0  0  0  0  0  0  0  0  0  0
   24.0366  -21.8704  -12.3170 C   0  0  2  0  0  0  0  0  0  0  0  0
   24.8937  -21.9658  -11.1550 N   0  0  0  0  0  0  0  0  0  0  0  0
   22.7580  -21.1805  -12.0329 C   0  0  0  0  0  0  0  0  0  0  0  0
   22.1888  -21.4301  -10.9302 O   0  0  0  0  0  0  0  0  0  0  0  0
   28.4100  -23.6600  -16.1809 N   0  0  0  0  0  0  0  0  0  0  0  0
   22.1160  -20.2621  -12.8951 C   0  0  2  0  0  0  0  0  0  0  0  0
   20.8231  -19.6352  -12.5845 C   0  0  0  0  0  0  0  0  0  0  0  0
   20.4591  -18.6133  -13.6318 C   0  0  0  0  0  0  0  0  0  0  0  0
   19.2025  -17.8635  -13.3628 C   0  0  0  0  0  0  0  0  0  0  0  0
   18.8176  -16.8872  -14.3823 O   0  0  0  0  0  0  0  0  0  0  0  0
   17.7391  -16.2470  -14.3403 C   0  0  0  0  0  0  0  0  0  0  0  0
   19.8159  -20.7197  -12.5541 O   0  0  0  0  0  0  0  0  0  0  0  0
   18.8841  -20.7188  -11.7166 O   0  0  0  0  0  0  0  0  0  0  0  0
   19.6386  -16.6043  -15.4794 O   0  0  0  0  0  0  0  0  0  0  0  0
  2  1  1  0
  3  2  2  0
  4  3  1  0
  5 11  1  0
  5  4  2  0
  6  5  1  0
  7  9  1  0
  7  6  1  0
  7  8  1  6
  9 10  2  0
  9 21  1  0
 11 12  2  0
 12  2  1  0
 13 14  1  0
 14 15  2  0
 14 16  1  0
 16 17  1  0
 17 18  1  0
 19 18  1  0
 20 19  1  1
 21 20  1  0
 22 24  1  0
 22 20  1  0
 23 22  2  0
 25 30  1  0
 25 24  1  0
 25 26  1  1
 26 27  1  0
 27 28  1  0
 28 32  1  0
 29 28  2  0
 30 33  1  0
 31 30  2  0
M  END
$$$$
