YRE.pdb
     RDKit          3D

 33 33  0  0  1  0  0  0  0  0999 V2000
   29.2693  -14.5831  -19.2613 O   0  0  0  0  0  0  0  0  0  0  0  0
   28.1929  -14.8919  -18.4422 C   0  0  0  0  0  0  0  0  0  0  0  0
   28.1688  -16.1452  -17.8604 C   0  0  0  0  0  0  0  0  0  0  0  0
   27.1273  -16.4765  -17.0534 C   0  0  0  0  0  0  0  0  0  0  0  0
   26.0727  -15.6100  -16.7792 C   0  0  0  0  0  0  0  0  0  0  0  0
   24.9878  -16.0362  -15.9001 C   0  0  0  0  0  0  0  0  0  0  0  0
   24.1827  -17.1244  -16.5706 C   0  0  2  0  0  0  0  0  0  0  0  0
   22.8291  -16.6169  -16.7034 N   0  0  0  0  0  0  0  0  0  0  0  0
   24.0950  -18.3430  -15.7243 C   0  0  0  0  0  0  0  0  0  0  0  0
   23.3332  -18.2790  -14.7248 O   0  0  0  0  0  0  0  0  0  0  0  0
   26.1149  -14.3663  -17.3681 C   0  0  0  0  0  0  0  0  0  0  0  0
   27.1722  -13.9950  -18.2034 C   0  0  0  0  0  0  0  0  0  0  0  0
   23.8409  -26.3111  -15.1145 N   0  0  0  0  0  0  0  0  0  0  0  0
   24.4902  -25.8180  -16.2697 C   0  0  0  0  0  0  0  0  0  0  0  0
   24.2538  -26.3926  -17.4097 N   0  0  0  0  0  0  0  0  0  0  0  0
   25.3927  -24.7322  -16.2567 N   0  0  0  0  0  0  0  0  0  0  0  0
   25.9931  -24.2799  -15.0492 C   0  0  0  0  0  0  0  0  0  0  0  0
   25.5025  -22.9656  -14.5261 C   0  0  0  0  0  0  0  0  0  0  0  0
   25.2465  -21.9272  -15.5656 C   0  0  0  0  0  0  0  0  0  0  0  0
   24.8420  -20.5837  -14.9407 C   0  0  2  0  0  0  0  0  0  0  0  0
   24.7864  -19.5471  -15.9488 N   0  0  0  0  0  0  0  0  0  0  0  0
   25.7325  -20.2381  -13.8097 C   0  0  0  0  0  0  0  0  0  0  0  0
   26.9812  -20.2738  -14.0137 O   0  0  0  0  0  0  0  0  0  0  0  0
   23.6286  -27.2149  -17.5022 N   0  0  0  0  0  0  0  0  0  0  0  0
   25.3023  -19.8703  -12.5140 C   0  0  2  0  0  0  0  0  0  0  0  0
   26.0512  -20.2016  -11.2931 C   0  0  0  0  0  0  0  0  0  0  0  0
   25.1103  -20.4995  -10.1531 C   0  0  0  0  0  0  0  0  0  0  0  0
   25.7757  -20.8413   -8.8671 C   0  0  0  0  0  0  0  0  0  0  0  0
   24.8793  -21.0979   -7.7394 O   0  0  0  0  0  0  0  0  0  0  0  0
   23.6409  -21.2497   -7.8740 C   0  0  0  0  0  0  0  0  0  0  0  0
   26.8740  -21.3924  -11.6035 O   0  0  0  0  0  0  0  0  0  0  0  0
   26.3483  -22.4680  -11.9729 O   0  0  0  0  0  0  0  0  0  0  0  0
   25.3541  -21.1909   -6.4266 O   0  0  0  0  0  0  0  0  0  0  0  0
  2  1  1  0
  3  2  2  0
  4  3  1  0
  5 11  1  0
  5  4  2  0
  6  5  1  0
  7  9  1  0
  7  6  1  0
  7  8  1  1
  9 10  2  0
  9 21  1  0
 11 12  2  0
 12  2  1  0
 13 14  1  0
 14 15  2  0
 14 16  1  0
 16 17  1  0
 17 18  1  0
 19 18  1  0
 20 19  1  6
 21 20  1  0
 22 24  1  0
 22 20  1  0
 23 22  2  0
 25 30  1  0
 25 24  1  0
 25 26  1  6
 26 27  1  0
 27 28  1  0
 28 32  1  0
 29 28  2  0
 30 33  1  0
 31 30  2  0
M  END
$$$$
