YRE.pdb
     RDKit          3D

 33 33  0  0  1  0  0  0  0  0999 V2000
   30.1032   -2.1840  -18.6933 O   0  0  0  0  0  0  0  0  0  0  0  0
   28.9374   -2.8626  -18.3688 C   0  0  0  0  0  0  0  0  0  0  0  0
   27.7563   -2.1451  -18.3702 C   0  0  0  0  0  0  0  0  0  0  0  0
   26.5983   -2.7825  -18.0562 C   0  0  0  0  0  0  0  0  0  0  0  0
   26.5394   -4.1347  -17.7300 C   0  0  0  0  0  0  0  0  0  0  0  0
   25.2569   -4.7516  -17.4045 C   0  0  0  0  0  0  0  0  0  0  0  0
   24.8786   -5.7439  -18.4788 C   0  0  2  0  0  0  0  0  0  0  0  0
   24.4721   -4.9674  -19.6362 N   0  0  0  0  0  0  0  0  0  0  0  0
   23.7006   -6.5591  -18.0831 C   0  0  0  0  0  0  0  0  0  0  0  0
   22.5750   -6.1371  -18.4552 O   0  0  0  0  0  0  0  0  0  0  0  0
   27.7265   -4.8321  -17.7340 C   0  0  0  0  0  0  0  0  0  0  0  0
   28.9346   -4.2054  -18.0524 C   0  0  0  0  0  0  0  0  0  0  0  0
   23.9300  -15.1026  -16.8359 N   0  0  0  0  0  0  0  0  0  0  0  0
   23.4711  -14.5968  -18.0738 C   0  0  0  0  0  0  0  0  0  0  0  0
   23.2833  -15.4268  -19.0544 N   0  0  0  0  0  0  0  0  0  0  0  0
   23.2078  -13.2300  -18.3114 N   0  0  0  0  0  0  0  0  0  0  0  0
   23.1711  -12.2851  -17.2489 C   0  0  0  0  0  0  0  0  0  0  0  0
   22.9389  -10.8606  -17.6469 C   0  0  0  0  0  0  0  0  0  0  0  0
   22.8688   -9.8914  -16.5154 C   0  0  0  0  0  0  0  0  0  0  0  0
   22.5350   -8.4729  -17.0008 C   0  0  2  0  0  0  0  0  0  0  0  0
   23.7428   -7.7497  -17.3356 N   0  0  0  0  0  0  0  0  0  0  0  0
   21.6942   -7.7608  -16.0122 C   0  0  0  0  0  0  0  0  0  0  0  0
   22.2531   -7.3510  -14.9531 O   0  0  0  0  0  0  0  0  0  0  0  0
   23.0161  -15.1154  -20.0069 N   0  0  0  0  0  0  0  0  0  0  0  0
   20.3117   -7.4997  -16.1527 C   0  0  2  0  0  0  0  0  0  0  0  0
   19.5190   -6.7916  -15.1371 C   0  0  0  0  0  0  0  0  0  0  0  0
   18.4849   -5.9073  -15.7868 C   0  0  0  0  0  0  0  0  0  0  0  0
   17.6188   -5.1576  -14.8375 C   0  0  0  0  0  0  0  0  0  0  0  0
   16.6359   -4.2628  -15.4492 O   0  0  0  0  0  0  0  0  0  0  0  0
   16.5070   -4.1390  -16.6913 C   0  0  0  0  0  0  0  0  0  0  0  0
   18.8610   -7.8261  -14.3075 O   0  0  0  0  0  0  0  0  0  0  0  0
   18.6806   -8.9884  -14.7392 O   0  0  0  0  0  0  0  0  0  0  0  0
   15.7695   -3.4812  -14.6771 O   0  0  0  0  0  0  0  0  0  0  0  0
  2  1  1  0
  3  2  2  0
  4  3  1  0
  5 11  1  0
  5  4  2  0
  6  5  1  0
  7  9  1  0
  7  6  1  0
  7  8  1  6
  9 10  2  0
  9 21  1  0
 11 12  2  0
 12  2  1  0
 13 14  1  0
 14 15  2  0
 14 16  1  0
 16 17  1  0
 17 18  1  0
 19 18  1  0
 20 19  1  1
 21 20  1  0
 22 24  1  0
 22 20  1  0
 23 22  2  0
 25 30  1  0
 25 24  1  0
 25 26  1  6
 26 27  1  0
 27 28  1  0
 28 32  1  0
 29 28  2  0
 30 33  1  0
 31 30  2  0
M  END
$$$$
