YRE.pdb
     RDKit          3D

 33 33  0  0  1  0  0  0  0  0999 V2000
   26.8709  -12.7939  -17.3496 O   0  0  0  0  0  0  0  0  0  0  0  0
   26.1231  -13.8647  -16.8814 C   0  0  0  0  0  0  0  0  0  0  0  0
   25.0751  -14.3067  -17.6664 C   0  0  0  0  0  0  0  0  0  0  0  0
   24.3246  -15.3534  -17.2341 C   0  0  0  0  0  0  0  0  0  0  0  0
   24.5592  -16.0105  -16.0294 C   0  0  0  0  0  0  0  0  0  0  0  0
   23.7105  -17.1298  -15.6313 C   0  0  0  0  0  0  0  0  0  0  0  0
   24.5608  -18.3519  -15.3759 C   0  0  2  0  0  0  0  0  0  0  0  0
   25.0674  -18.7817  -16.6668 N   0  0  0  0  0  0  0  0  0  0  0  0
   23.7540  -19.4804  -14.8426 C   0  0  0  0  0  0  0  0  0  0  0  0
   23.3280  -20.3132  -15.6842 O   0  0  0  0  0  0  0  0  0  0  0  0
   25.6075  -15.5554  -15.2617 C   0  0  0  0  0  0  0  0  0  0  0  0
   26.3983  -14.4809  -15.6782 C   0  0  0  0  0  0  0  0  0  0  0  0
   27.4527  -20.6936  -12.1454 N   0  0  0  0  0  0  0  0  0  0  0  0
   27.1186  -21.5831  -11.0984 C   0  0  0  0  0  0  0  0  0  0  0  0
   27.9239  -22.5674  -10.8369 N   0  0  0  0  0  0  0  0  0  0  0  0
   25.9482  -21.4675  -10.3170 N   0  0  0  0  0  0  0  0  0  0  0  0
   25.1495  -20.2908  -10.3454 C   0  0  0  0  0  0  0  0  0  0  0  0
   23.7245  -20.4765  -10.7653 C   0  0  0  0  0  0  0  0  0  0  0  0
   23.5072  -21.4971  -11.8309 C   0  0  0  0  0  0  0  0  0  0  0  0
   22.7817  -20.9038  -13.0479 C   0  0  2  0  0  0  0  0  0  0  0  0
   23.4331  -19.6894  -13.4893 N   0  0  0  0  0  0  0  0  0  0  0  0
   21.3418  -20.7125  -12.7626 C   0  0  0  0  0  0  0  0  0  0  0  0
   21.0199  -19.7855  -11.9631 O   0  0  0  0  0  0  0  0  0  0  0  0
   27.7582  -23.2338  -10.0597 N   0  0  0  0  0  0  0  0  0  0  0  0
   20.2908  -21.4833  -13.3109 C   0  0  2  0  0  0  0  0  0  0  0  0
   18.8708  -21.2162  -13.0400 C   0  0  0  0  0  0  0  0  0  0  0  0
   17.9941  -21.9057  -14.0547 C   0  0  0  0  0  0  0  0  0  0  0  0
   18.2212  -21.4864  -15.4640 C   0  0  0  0  0  0  0  0  0  0  0  0
   17.4527  -22.2160  -16.4729 O   0  0  0  0  0  0  0  0  0  0  0  0
   16.4429  -22.9064  -16.1930 C   0  0  0  0  0  0  0  0  0  0  0  0
   18.5878  -21.7332  -11.6821 O   0  0  0  0  0  0  0  0  0  0  0  0
   19.3275  -22.5901  -11.1450 O   0  0  0  0  0  0  0  0  0  0  0  0
   17.8012  -22.1880  -17.8277 O   0  0  0  0  0  0  0  0  0  0  0  0
  2  1  1  0
  3  2  2  0
  4  3  1  0
  5 11  1  0
  5  4  2  0
  6  5  1  0
  7  9  1  0
  7  6  1  0
  7  8  1  6
  9 10  2  0
  9 21  1  0
 11 12  2  0
 12  2  1  0
 13 14  1  0
 14 15  2  0
 14 16  1  0
 16 17  1  0
 17 18  1  0
 19 18  1  0
 20 19  1  1
 21 20  1  0
 22 24  1  0
 22 20  1  0
 23 22  2  0
 25 30  1  0
 25 24  1  0
 25 26  1  6
 26 27  1  0
 27 28  1  0
 28 32  1  0
 29 28  2  0
 30 33  1  0
 31 30  2  0
M  END
$$$$
