YRE.pdb
     RDKit          3D

 33 33  0  0  1  0  0  0  0  0999 V2000
   24.8131  -13.1889  -20.2371 O   0  0  0  0  0  0  0  0  0  0  0  0
   24.3543  -14.3278  -19.5911 C   0  0  0  0  0  0  0  0  0  0  0  0
   24.1537  -14.2536  -18.2257 C   0  0  0  0  0  0  0  0  0  0  0  0
   23.7052  -15.3529  -17.5654 C   0  0  0  0  0  0  0  0  0  0  0  0
   23.4343  -16.5624  -18.1993 C   0  0  0  0  0  0  0  0  0  0  0  0
   22.9531  -17.7014  -17.4231 C   0  0  0  0  0  0  0  0  0  0  0  0
   24.1032  -18.3350  -16.6764 C   0  0  2  0  0  0  0  0  0  0  0  0
   24.9128  -19.0214  -17.6669 N   0  0  0  0  0  0  0  0  0  0  0  0
   23.6331  -19.3736  -15.7230 C   0  0  0  0  0  0  0  0  0  0  0  0
   23.3059  -20.4834  -16.2177 O   0  0  0  0  0  0  0  0  0  0  0  0
   23.6404  -16.6164  -19.5595 C   0  0  0  0  0  0  0  0  0  0  0  0
   24.1013  -15.5031  -20.2678 C   0  0  0  0  0  0  0  0  0  0  0  0
   28.2375  -20.4525  -13.6542 N   0  0  0  0  0  0  0  0  0  0  0  0
   28.3359  -21.2968  -12.5244 C   0  0  0  0  0  0  0  0  0  0  0  0
   29.3380  -22.1187  -12.4469 N   0  0  0  0  0  0  0  0  0  0  0  0
   27.3984  -21.3036  -11.4686 N   0  0  0  0  0  0  0  0  0  0  0  0
   26.3518  -20.3430  -11.3985 C   0  0  0  0  0  0  0  0  0  0  0  0
   25.4207  -20.3021  -12.5702 C   0  0  0  0  0  0  0  0  0  0  0  0
   23.9723  -20.4096  -12.2309 C   0  0  0  0  0  0  0  0  0  0  0  0
   23.0854  -20.3031  -13.4805 C   0  0  2  0  0  0  0  0  0  0  0  0
   23.5265  -19.2173  -14.3293 N   0  0  0  0  0  0  0  0  0  0  0  0
   21.6571  -20.1964  -13.1066 C   0  0  0  0  0  0  0  0  0  0  0  0
   21.2688  -19.1157  -12.5742 O   0  0  0  0  0  0  0  0  0  0  0  0
   29.4756  -22.7580  -11.6419 N   0  0  0  0  0  0  0  0  0  0  0  0
   20.6857  -21.2064  -13.2949 C   0  0  2  0  0  0  0  0  0  0  0  0
   19.2697  -21.0380  -12.9373 C   0  0  0  0  0  0  0  0  0  0  0  0
   18.3778  -21.4170  -14.0924 C   0  0  0  0  0  0  0  0  0  0  0  0
   18.5173  -20.5563  -15.2979 C   0  0  0  0  0  0  0  0  0  0  0  0
   18.0967  -21.1634  -16.5610 O   0  0  0  0  0  0  0  0  0  0  0  0
   17.5205  -22.2764  -16.6237 C   0  0  0  0  0  0  0  0  0  0  0  0
   19.0112  -21.9217  -11.7782 O   0  0  0  0  0  0  0  0  0  0  0  0
   19.8774  -22.7303  -11.3707 O   0  0  0  0  0  0  0  0  0  0  0  0
   18.3139  -20.5322  -17.7906 O   0  0  0  0  0  0  0  0  0  0  0  0
  2  1  1  0
  3  2  2  0
  4  3  1  0
  5 11  1  0
  5  4  2  0
  6  5  1  0
  7  9  1  0
  7  6  1  0
  7  8  1  6
  9 10  2  0
  9 21  1  0
 11 12  2  0
 12  2  1  0
 13 14  1  0
 14 15  2  0
 14 16  1  0
 16 17  1  0
 17 18  1  0
 19 18  1  0
 20 19  1  1
 21 20  1  0
 22 24  1  0
 22 20  1  0
 23 22  2  0
 25 30  1  0
 25 24  1  0
 25 26  1  6
 26 27  1  0
 27 28  1  0
 28 32  1  0
 29 28  2  0
 30 33  1  0
 31 30  2  0
M  END
$$$$
