YRE.pdb
     RDKit          3D

 33 33  0  0  1  0  0  0  0  0999 V2000
   10.7361  -22.2825    0.6995 O   0  0  0  0  0  0  0  0  0  0  0  0
   11.8557  -21.9080    1.4283 C   0  0  0  0  0  0  0  0  0  0  0  0
   11.9216  -20.6025    1.8768 C   0  0  0  0  0  0  0  0  0  0  0  0
   13.0059  -20.2063    2.5930 C   0  0  0  0  0  0  0  0  0  0  0  0
   14.0647  -21.0559    2.9018 C   0  0  0  0  0  0  0  0  0  0  0  0
   15.1970  -20.5587    3.6776 C   0  0  0  0  0  0  0  0  0  0  0  0
   15.8355  -19.3918    2.9618 C   0  0  2  0  0  0  0  0  0  0  0  0
   16.5114  -19.9381    1.7989 N   0  0  0  0  0  0  0  0  0  0  0  0
   16.8836  -18.7445    3.7932 C   0  0  0  0  0  0  0  0  0  0  0  0
   18.0378  -19.2418    3.7294 O   0  0  0  0  0  0  0  0  0  0  0  0
   13.9805  -22.3524    2.4460 C   0  0  0  0  0  0  0  0  0  0  0  0
   12.8785  -22.7910    1.7067 C   0  0  0  0  0  0  0  0  0  0  0  0
   18.6200  -10.5961    7.1927 N   0  0  0  0  0  0  0  0  0  0  0  0
   19.7105  -11.4519    7.4711 C   0  0  0  0  0  0  0  0  0  0  0  0
   20.7445  -10.9629    8.0855 N   0  0  0  0  0  0  0  0  0  0  0  0
   19.7452  -12.8172    7.1126 N   0  0  0  0  0  0  0  0  0  0  0  0
   18.6639  -13.4313    6.4220 C   0  0  0  0  0  0  0  0  0  0  0  0
   18.7510  -14.9169    6.2578 C   0  0  0  0  0  0  0  0  0  0  0  0
   17.6171  -15.5384    5.5145 C   0  0  0  0  0  0  0  0  0  0  0  0
   17.7855  -17.0599    5.3874 C   0  0  2  0  0  0  0  0  0  0  0  0
   16.6910  -17.6342    4.6348 N   0  0  0  0  0  0  0  0  0  0  0  0
   17.9583  -17.6849    6.7181 C   0  0  0  0  0  0  0  0  0  0  0  0
   16.9137  -17.9535    7.3805 O   0  0  0  0  0  0  0  0  0  0  0  0
   21.5692  -11.5391    8.3374 N   0  0  0  0  0  0  0  0  0  0  0  0
   19.1991  -18.0079    7.3141 C   0  0  2  0  0  0  0  0  0  0  0  0
   19.3185  -18.5967    8.6559 C   0  0  0  0  0  0  0  0  0  0  0  0
   20.7016  -19.1564    8.8730 C   0  0  0  0  0  0  0  0  0  0  0  0
   20.9195  -19.7845   10.2039 C   0  0  0  0  0  0  0  0  0  0  0  0
   22.2373  -20.3854   10.4120 O   0  0  0  0  0  0  0  0  0  0  0  0
   22.5819  -20.9136   11.4969 C   0  0  0  0  0  0  0  0  0  0  0  0
   19.0455  -17.5129    9.6265 O   0  0  0  0  0  0  0  0  0  0  0  0
   18.4446  -17.7392   10.7024 O   0  0  0  0  0  0  0  0  0  0  0  0
   23.2051  -20.4079    9.4018 O   0  0  0  0  0  0  0  0  0  0  0  0
  2  1  1  0
  3  2  2  0
  4  3  1  0
  5 11  1  0
  5  4  2  0
  6  5  1  0
  7  9  1  0
  7  6  1  0
  7  8  1  6
  9 10  2  0
  9 21  1  0
 11 12  2  0
 12  2  1  0
 13 14  1  0
 14 15  2  0
 14 16  1  0
 16 17  1  0
 17 18  1  0
 19 18  1  0
 20 19  1  1
 21 20  1  0
 22 24  1  0
 22 20  1  0
 23 22  2  0
 25 30  1  0
 25 24  1  0
 25 26  1  6
 26 27  1  0
 27 28  1  0
 28 32  1  0
 29 28  2  0
 30 33  1  0
 31 30  2  0
M  END
$$$$
