YRE.pdb
     RDKit          3D

 33 33  0  0  1  0  0  0  0  0999 V2000
   20.9012  -10.1236  -19.2043 O   0  0  0  0  0  0  0  0  0  0  0  0
   21.1184  -11.4208  -18.7627 C   0  0  0  0  0  0  0  0  0  0  0  0
   22.0542  -11.6097  -17.7635 C   0  0  0  0  0  0  0  0  0  0  0  0
   22.2888  -12.8689  -17.3107 C   0  0  0  0  0  0  0  0  0  0  0  0
   21.6285  -13.9900  -17.8059 C   0  0  0  0  0  0  0  0  0  0  0  0
   21.9327  -15.3129  -17.2684 C   0  0  0  0  0  0  0  0  0  0  0  0
   23.3166  -15.7359  -17.7018 C   0  0  2  0  0  0  0  0  0  0  0  0
   23.2265  -16.0662  -19.1126 N   0  0  0  0  0  0  0  0  0  0  0  0
   23.7553  -16.9739  -17.0062 C   0  0  0  0  0  0  0  0  0  0  0  0
   23.2708  -18.0564  -17.4269 O   0  0  0  0  0  0  0  0  0  0  0  0
   20.7001  -13.7812  -18.8009 C   0  0  0  0  0  0  0  0  0  0  0  0
   20.4359  -12.4983  -19.2885 C   0  0  0  0  0  0  0  0  0  0  0  0
   27.8890  -22.8448  -15.6807 N   0  0  0  0  0  0  0  0  0  0  0  0
   27.8613  -21.5003  -16.1175 C   0  0  0  0  0  0  0  0  0  0  0  0
   28.5037  -21.1844  -17.2007 N   0  0  0  0  0  0  0  0  0  0  0  0
   27.1756  -20.4705  -15.4372 N   0  0  0  0  0  0  0  0  0  0  0  0
   27.0487  -20.4727  -14.0205 C   0  0  0  0  0  0  0  0  0  0  0  0
   26.3172  -19.3092  -13.4266 C   0  0  0  0  0  0  0  0  0  0  0  0
   26.1593  -18.1335  -14.3306 C   0  0  0  0  0  0  0  0  0  0  0  0
   24.9269  -18.2734  -15.2366 C   0  0  2  0  0  0  0  0  0  0  0  0
   24.6576  -17.0315  -15.9289 N   0  0  0  0  0  0  0  0  0  0  0  0
   23.7613  -18.7682  -14.4697 C   0  0  0  0  0  0  0  0  0  0  0  0
   23.3054  -18.0263  -13.5510 O   0  0  0  0  0  0  0  0  0  0  0  0
   28.5075  -20.2222  -17.5878 N   0  0  0  0  0  0  0  0  0  0  0  0
   23.1121  -20.0067  -14.6785 C   0  0  2  0  0  0  0  0  0  0  0  0
   21.9067  -20.4175  -13.9440 C   0  0  0  0  0  0  0  0  0  0  0  0
   21.2061  -21.5474  -14.6554 C   0  0  0  0  0  0  0  0  0  0  0  0
   20.0068  -22.0791  -13.9538 C   0  0  0  0  0  0  0  0  0  0  0  0
   19.2483  -23.0977  -14.6804 O   0  0  0  0  0  0  0  0  0  0  0  0
   19.5711  -23.5013  -15.8240 C   0  0  0  0  0  0  0  0  0  0  0  0
   22.3499  -20.8536  -12.6006 O   0  0  0  0  0  0  0  0  0  0  0  0
   23.4734  -21.3798  -12.4252 O   0  0  0  0  0  0  0  0  0  0  0  0
   18.1032  -23.6911  -14.1379 O   0  0  0  0  0  0  0  0  0  0  0  0
  2  1  1  0
  3  2  2  0
  4  3  1  0
  5 11  1  0
  5  4  2  0
  6  5  1  0
  7  9  1  0
  7  6  1  0
  7  8  1  6
  9 10  2  0
  9 21  1  0
 11 12  2  0
 12  2  1  0
 13 14  1  0
 14 15  2  0
 14 16  1  0
 16 17  1  0
 17 18  1  0
 19 18  1  0
 20 19  1  1
 21 20  1  0
 22 24  1  0
 22 20  1  0
 23 22  2  0
 25 30  1  0
 25 24  1  0
 25 26  1  6
 26 27  1  0
 27 28  1  0
 28 32  1  0
 29 28  2  0
 30 33  1  0
 31 30  2  0
M  END
$$$$
