YRE.pdb
     RDKit          3D

 33 33  0  0  1  0  0  0  0  0999 V2000
   28.8780  -20.2572   -3.2919 O   0  0  0  0  0  0  0  0  0  0  0  0
   28.2708  -20.1473   -4.5346 C   0  0  0  0  0  0  0  0  0  0  0  0
   28.3482  -18.9280   -5.1803 C   0  0  0  0  0  0  0  0  0  0  0  0
   27.7630  -18.7898   -6.3986 C   0  0  0  0  0  0  0  0  0  0  0  0
   27.0828  -19.8235   -7.0366 C   0  0  0  0  0  0  0  0  0  0  0  0
   26.4798  -19.6005   -8.3474 C   0  0  0  0  0  0  0  0  0  0  0  0
   26.6713  -20.8230   -9.2138 C   0  0  2  0  0  0  0  0  0  0  0  0
   28.1038  -21.0230   -9.3382 N   0  0  0  0  0  0  0  0  0  0  0  0
   26.1547  -20.6066  -10.5905 C   0  0  0  0  0  0  0  0  0  0  0  0
   26.8785  -19.9243  -11.3612 O   0  0  0  0  0  0  0  0  0  0  0  0
   27.0166  -21.0303   -6.3772 C   0  0  0  0  0  0  0  0  0  0  0  0
   27.6081  -21.2046   -5.1229 C   0  0  0  0  0  0  0  0  0  0  0  0
   28.7693  -19.9455  -14.7869 N   0  0  0  0  0  0  0  0  0  0  0  0
   27.9551  -19.4500  -15.8312 C   0  0  0  0  0  0  0  0  0  0  0  0
   28.0992  -18.2134  -16.1998 N   0  0  0  0  0  0  0  0  0  0  0  0
   26.9819  -20.2247  -16.4994 N   0  0  0  0  0  0  0  0  0  0  0  0
   26.3367  -21.3193  -15.8600 C   0  0  0  0  0  0  0  0  0  0  0  0
   25.2901  -20.9636  -14.8502 C   0  0  0  0  0  0  0  0  0  0  0  0
   25.6298  -21.3083  -13.4394 C   0  0  0  0  0  0  0  0  0  0  0  0
   24.5344  -20.8544  -12.4629 C   0  0  2  0  0  0  0  0  0  0  0  0
   24.9369  -21.0977  -11.0944 N   0  0  0  0  0  0  0  0  0  0  0  0
   23.2352  -21.4790  -12.7995 C   0  0  0  0  0  0  0  0  0  0  0  0
   23.0693  -22.6940  -12.4858 O   0  0  0  0  0  0  0  0  0  0  0  0
   27.6010  -17.8117  -17.0158 N   0  0  0  0  0  0  0  0  0  0  0  0
   22.1591  -20.8285  -13.4461 C   0  0  1  0  0  0  0  0  0  0  0  0
   20.7528  -21.0298  -13.0680 C   0  0  0  0  0  0  0  0  0  0  0  0
   20.5670  -20.8473  -11.5829 C   0  0  0  0  0  0  0  0  0  0  0  0
   19.1789  -21.0684  -11.0952 C   0  0  0  0  0  0  0  0  0  0  0  0
   18.7188  -22.4573  -11.1039 O   0  0  0  0  0  0  0  0  0  0  0  0
   19.4969  -23.4338  -10.9788 C   0  0  0  0  0  0  0  0  0  0  0  0
   19.9600  -20.0247  -13.8114 O   0  0  0  0  0  0  0  0  0  0  0  0
   18.9145  -20.3441  -14.4236 O   0  0  0  0  0  0  0  0  0  0  0  0
   17.3669  -22.7852  -11.2541 O   0  0  0  0  0  0  0  0  0  0  0  0
  2  1  1  0
  3  2  2  0
  4  3  1  0
  5 11  1  0
  5  4  2  0
  6  5  1  0
  7  9  1  0
  7  6  1  0
  7  8  1  6
  9 10  2  0
  9 21  1  0
 11 12  2  0
 12  2  1  0
 13 14  1  0
 14 15  2  0
 14 16  1  0
 16 17  1  0
 17 18  1  0
 19 18  1  0
 20 19  1  6
 21 20  1  0
 22 24  1  0
 22 20  1  0
 23 22  2  0
 25 30  1  0
 25 24  1  0
 25 26  1  6
 26 27  1  0
 27 28  1  0
 28 32  1  0
 29 28  2  0
 30 33  1  0
 31 30  2  0
M  END
$$$$
