YRE.pdb
     RDKit          3D

 33 33  0  0  1  0  0  0  0  0999 V2000
   35.9149   -1.3241    0.2709 O   0  0  0  0  0  0  0  0  0  0  0  0
   36.5249   -1.9296   -0.8183 C   0  0  0  0  0  0  0  0  0  0  0  0
   37.1144   -1.1088   -1.7611 C   0  0  0  0  0  0  0  0  0  0  0  0
   37.7193   -1.6728   -2.8389 C   0  0  0  0  0  0  0  0  0  0  0  0
   37.7769   -3.0485   -3.0448 C   0  0  0  0  0  0  0  0  0  0  0  0
   38.4462   -3.5820   -4.2275 C   0  0  0  0  0  0  0  0  0  0  0  0
   39.8408   -4.0360   -3.8657 C   0  0  2  0  0  0  0  0  0  0  0  0
   40.5628   -2.8532   -3.4331 N   0  0  0  0  0  0  0  0  0  0  0  0
   40.5695   -4.5660   -5.0476 C   0  0  0  0  0  0  0  0  0  0  0  0
   41.7293   -4.1174   -5.2400 O   0  0  0  0  0  0  0  0  0  0  0  0
   37.1839   -3.8492   -2.0946 C   0  0  0  0  0  0  0  0  0  0  0  0
   36.5534   -3.2999   -0.9746 C   0  0  0  0  0  0  0  0  0  0  0  0
   42.7632  -11.6104   -6.3102 N   0  0  0  0  0  0  0  0  0  0  0  0
   43.8169  -10.6771   -6.4431 C   0  0  0  0  0  0  0  0  0  0  0  0
   44.8571  -11.0085   -7.1459 N   0  0  0  0  0  0  0  0  0  0  0  0
   43.8081   -9.3970   -5.8473 N   0  0  0  0  0  0  0  0  0  0  0  0
   42.6922   -8.9352   -5.0959 C   0  0  0  0  0  0  0  0  0  0  0  0
   41.6496   -8.1852   -5.8655 C   0  0  0  0  0  0  0  0  0  0  0  0
   42.0830   -6.8574   -6.3885 C   0  0  0  0  0  0  0  0  0  0  0  0
   40.9098   -6.0748   -6.9971 C   0  0  2  0  0  0  0  0  0  0  0  0
   40.0727   -5.5173   -5.9567 N   0  0  0  0  0  0  0  0  0  0  0  0
   40.1546   -6.9148   -7.9539 C   0  0  0  0  0  0  0  0  0  0  0  0
   39.7374   -8.0382   -7.5464 O   0  0  0  0  0  0  0  0  0  0  0  0
   44.9654  -11.9459   -7.5762 N   0  0  0  0  0  0  0  0  0  0  0  0
   39.8595   -6.5654   -9.2918 C   0  0  1  0  0  0  0  0  0  0  0  0
   38.5906   -5.9460   -9.7009 C   0  0  0  0  0  0  0  0  0  0  0  0
   38.3580   -4.6586   -8.9512 C   0  0  0  0  0  0  0  0  0  0  0  0
   37.1547   -3.8954   -9.3789 C   0  0  0  0  0  0  0  0  0  0  0  0
   36.8592   -2.6918   -8.6011 O   0  0  0  0  0  0  0  0  0  0  0  0
   37.0097   -2.6304   -7.3568 C   0  0  0  0  0  0  0  0  0  0  0  0
   38.6899   -5.6826  -11.1542 O   0  0  0  0  0  0  0  0  0  0  0  0
   37.6767   -5.3990  -11.8346 O   0  0  0  0  0  0  0  0  0  0  0  0
   36.3852   -1.5219   -9.2046 O   0  0  0  0  0  0  0  0  0  0  0  0
  2  1  1  0
  3  2  2  0
  4  3  1  0
  5 11  1  0
  5  4  2  0
  6  5  1  0
  7  9  1  0
  7  6  1  0
  7  8  1  6
  9 10  2  0
  9 21  1  0
 11 12  2  0
 12  2  1  0
 13 14  1  0
 14 15  2  0
 14 16  1  0
 16 17  1  0
 17 18  1  0
 19 18  1  0
 20 19  1  1
 21 20  1  0
 22 24  1  0
 22 20  1  0
 23 22  2  0
 25 30  1  0
 25 24  1  0
 25 26  1  1
 26 27  1  0
 27 28  1  0
 28 32  1  0
 29 28  2  0
 30 33  1  0
 31 30  2  0
M  END
$$$$
