YRE.pdb
     RDKit          3D

 33 33  0  0  1  0  0  0  0  0999 V2000
   29.2465  -20.0396   -2.8243 O   0  0  0  0  0  0  0  0  0  0  0  0
   28.5543  -19.8947   -4.0180 C   0  0  0  0  0  0  0  0  0  0  0  0
   29.0122  -18.9471   -4.9136 C   0  0  0  0  0  0  0  0  0  0  0  0
   28.3548  -18.7821   -6.0910 C   0  0  0  0  0  0  0  0  0  0  0  0
   27.2326  -19.5259   -6.4456 C   0  0  0  0  0  0  0  0  0  0  0  0
   26.5790  -19.2932   -7.7302 C   0  0  0  0  0  0  0  0  0  0  0  0
   26.7352  -20.5096   -8.6121 C   0  0  2  0  0  0  0  0  0  0  0  0
   28.1511  -20.8299   -8.6298 N   0  0  0  0  0  0  0  0  0  0  0  0
   26.3506  -20.2212  -10.0184 C   0  0  0  0  0  0  0  0  0  0  0  0
   26.4986  -19.0342  -10.4091 O   0  0  0  0  0  0  0  0  0  0  0  0
   26.7919  -20.4647   -5.5401 C   0  0  0  0  0  0  0  0  0  0  0  0
   27.4460  -20.6586   -4.3203 C   0  0  0  0  0  0  0  0  0  0  0  0
   30.9887  -20.5197  -11.4420 N   0  0  0  0  0  0  0  0  0  0  0  0
   30.8375  -21.6457  -12.2836 C   0  0  0  0  0  0  0  0  0  0  0  0
   31.5382  -22.7094  -12.0322 N   0  0  0  0  0  0  0  0  0  0  0  0
   29.9666  -21.6810  -13.3945 N   0  0  0  0  0  0  0  0  0  0  0  0
   29.1152  -20.5849  -13.7058 C   0  0  0  0  0  0  0  0  0  0  0  0
   27.9370  -20.3934  -12.8020 C   0  0  0  0  0  0  0  0  0  0  0  0
   26.6869  -21.0796  -13.2388 C   0  0  0  0  0  0  0  0  0  0  0  0
   25.5133  -20.7802  -12.2942 C   0  0  2  0  0  0  0  0  0  0  0  0
   25.8412  -21.1574  -10.9361 N   0  0  0  0  0  0  0  0  0  0  0  0
   24.2679  -21.4145  -12.7820 C   0  0  0  0  0  0  0  0  0  0  0  0
   23.9166  -22.5064  -12.2466 O   0  0  0  0  0  0  0  0  0  0  0  0
   31.4875  -23.5636  -12.6182 N   0  0  0  0  0  0  0  0  0  0  0  0
   23.4342  -20.9002  -13.8016 C   0  0  1  0  0  0  0  0  0  0  0  0
   21.9834  -21.1328  -13.8488 C   0  0  0  0  0  0  0  0  0  0  0  0
   21.3191  -20.6232  -12.5947 C   0  0  0  0  0  0  0  0  0  0  0  0
   19.8381  -20.7623  -12.5717 C   0  0  0  0  0  0  0  0  0  0  0  0
   19.3162  -21.8337  -11.7228 O   0  0  0  0  0  0  0  0  0  0  0  0
   19.9470  -22.2931  -10.7401 C   0  0  0  0  0  0  0  0  0  0  0  0
   21.4701  -20.4068  -15.0324 O   0  0  0  0  0  0  0  0  0  0  0  0
   21.9664  -19.3136  -15.3906 O   0  0  0  0  0  0  0  0  0  0  0  0
   18.0669  -22.4182  -11.9580 O   0  0  0  0  0  0  0  0  0  0  0  0
  2  1  1  0
  3  2  2  0
  4  3  1  0
  5 11  1  0
  5  4  2  0
  6  5  1  0
  7  9  1  0
  7  6  1  0
  7  8  1  6
  9 10  2  0
  9 21  1  0
 11 12  2  0
 12  2  1  0
 13 14  1  0
 14 15  2  0
 14 16  1  0
 16 17  1  0
 17 18  1  0
 19 18  1  0
 20 19  1  6
 21 20  1  0
 22 24  1  0
 22 20  1  0
 23 22  2  0
 25 30  1  0
 25 24  1  0
 25 26  1  6
 26 27  1  0
 27 28  1  0
 28 32  1  0
 29 28  2  0
 30 33  1  0
 31 30  2  0
M  END
$$$$
