YTL.pdb
     RDKit          3D

 28 28  0  0  1  0  0  0  0  0999 V2000
   11.7428  -18.9938   30.3583 O   0  0  0  0  0  0  0  0  0  0  0  0
   11.8905  -18.2575   29.1809 C   0  0  0  0  0  0  0  0  0  0  0  0
   11.1200  -18.6429   28.0886 C   0  0  0  0  0  0  0  0  0  0  0  0
   11.2246  -17.9451   26.8855 C   0  0  0  0  0  0  0  0  0  0  0  0
   12.0758  -16.8759   26.7446 C   0  0  0  0  0  0  0  0  0  0  0  0
   12.1431  -16.1871   25.4571 C   0  0  0  0  0  0  0  0  0  0  0  0
   12.3382  -17.0562   24.2616 C   0  0  2  0  0  0  0  0  0  0  0  0
   13.7911  -17.0888   24.0250 N   0  0  0  0  0  0  0  0  0  0  0  0
   11.6234  -16.5017   23.1062 C   0  0  0  0  0  0  0  0  0  0  0  0
   12.1575  -15.6195   22.3870 O   0  0  0  0  0  0  0  0  0  0  0  0
   12.8328  -16.5118   27.8484 C   0  0  0  0  0  0  0  0  0  0  0  0
   12.7354  -17.1978   29.0449 C   0  0  0  0  0  0  0  0  0  0  0  0
    7.2933  -15.3344   21.1022 C   0  0  0  0  0  0  0  0  0  0  0  0
    8.2369  -16.4581   21.4942 C   0  0  1  0  0  0  0  0  0  0  0  0
    8.8468  -16.9278   20.3368 O   0  0  0  0  0  0  0  0  0  0  0  0
    9.2942  -15.9417   22.4785 C   0  0  2  0  0  0  0  0  0  0  0  0
   10.3012  -16.9197   22.7310 N   0  0  0  0  0  0  0  0  0  0  0  0
    8.5702  -15.5055   23.6839 C   0  0  0  0  0  0  0  0  0  0  0  0
    8.5295  -16.3092   24.6569 O   0  0  0  0  0  0  0  0  0  0  0  0
    5.2352  -10.6772   25.8657 C   0  0  0  0  0  0  0  0  0  0  0  0
    5.9122  -12.0433   26.0887 C   0  0  2  0  0  0  0  0  0  0  0  0
    6.9572  -11.8398   27.1479 C   0  0  0  0  0  0  0  0  0  0  0  0
    6.4633  -12.5703   24.7931 C   0  0  0  0  0  0  0  0  0  0  0  0
    7.0885  -13.9001   24.9784 C   0  0  2  0  0  0  0  0  0  0  0  0
    7.9243  -14.2701   23.8347 N   0  0  0  0  0  0  0  0  0  0  0  0
    6.1466  -15.0187   25.1587 C   0  0  0  0  0  0  0  0  0  0  0  0
    5.8644  -15.5758   26.3981 O   0  0  0  0  0  0  0  0  0  0  0  0
    5.5579  -15.5125   24.1757 O   0  0  0  0  0  0  0  0  0  0  0  0
  2 12  2  0
  2  1  1  0
  3  2  1  0
  4  5  1  0
  4  3  2  0
  5 11  2  0
  6  7  1  0
  6  5  1  0
  7  8  1  6
  9  7  1  0
  9 10  2  0
 11 12  1  0
 14 13  1  6
 14 16  1  0
 15 14  1  0
 16 17  1  1
 17  9  1  0
 18 16  1  0
 19 18  2  0
 21 20  1  6
 21 22  1  0
 23 21  1  0
 24 25  1  0
 24 23  1  6
 25 18  1  0
 26 24  1  0
 27 26  1  0
 28 26  2  0
M  END
$$$$
