YTL.pdb
     RDKit          3D

 28 28  0  0  1  0  0  0  0  0999 V2000
   18.7429  -14.5726   18.0491 O   0  0  0  0  0  0  0  0  0  0  0  0
   17.4164  -14.4321   18.4625 C   0  0  0  0  0  0  0  0  0  0  0  0
   16.9545  -15.3182   19.4306 C   0  0  0  0  0  0  0  0  0  0  0  0
   15.6383  -15.2265   19.8829 C   0  0  0  0  0  0  0  0  0  0  0  0
   14.7737  -14.2765   19.3955 C   0  0  0  0  0  0  0  0  0  0  0  0
   13.4050  -14.2332   19.9070 C   0  0  0  0  0  0  0  0  0  0  0  0
   12.4917  -15.3054   19.4181 C   0  0  2  0  0  0  0  0  0  0  0  0
   12.1762  -14.9551   18.0231 N   0  0  0  0  0  0  0  0  0  0  0  0
   11.2779  -15.3556   20.2413 C   0  0  0  0  0  0  0  0  0  0  0  0
   10.3125  -14.5857   20.0050 O   0  0  0  0  0  0  0  0  0  0  0  0
   15.2587  -13.4053   18.4313 C   0  0  0  0  0  0  0  0  0  0  0  0
   16.5620  -13.4889   17.9772 C   0  0  0  0  0  0  0  0  0  0  0  0
    8.7913  -18.0157   20.7157 C   0  0  0  0  0  0  0  0  0  0  0  0
    9.2387  -17.6338   22.1159 C   0  0  1  0  0  0  0  0  0  0  0  0
   10.1375  -18.5986   22.5558 O   0  0  0  0  0  0  0  0  0  0  0  0
    9.9086  -16.2537   22.0990 C   0  0  2  0  0  0  0  0  0  0  0  0
   11.1176  -16.2642   21.3425 N   0  0  0  0  0  0  0  0  0  0  0  0
   10.0876  -15.8551   23.5049 C   0  0  0  0  0  0  0  0  0  0  0  0
   11.1983  -16.1194   24.0442 O   0  0  0  0  0  0  0  0  0  0  0  0
    7.0334  -13.1313   28.2365 C   0  0  0  0  0  0  0  0  0  0  0  0
    8.1957  -14.0122   27.7396 C   0  0  2  0  0  0  0  0  0  0  0  0
    9.4531  -13.4427   28.3314 C   0  0  0  0  0  0  0  0  0  0  0  0
    8.2070  -14.0627   26.2371 C   0  0  0  0  0  0  0  0  0  0  0  0
    9.2031  -15.0403   25.7414 C   0  0  2  0  0  0  0  0  0  0  0  0
    9.1229  -15.2065   24.2891 N   0  0  0  0  0  0  0  0  0  0  0  0
    9.0855  -16.3978   26.3023 C   0  0  0  0  0  0  0  0  0  0  0  0
    8.2250  -17.3562   25.7855 O   0  0  0  0  0  0  0  0  0  0  0  0
    9.7747  -16.7360   27.2858 O   0  0  0  0  0  0  0  0  0  0  0  0
  2 12  2  0
  2  1  1  0
  3  2  1  0
  4  5  1  0
  4  3  2  0
  5 11  2  0
  6  7  1  0
  6  5  1  0
  7  8  1  6
  9  7  1  0
  9 10  2  0
 11 12  1  0
 14 13  1  6
 14 16  1  0
 15 14  1  0
 16 17  1  1
 17  9  1  0
 18 16  1  0
 19 18  2  0
 21 20  1  6
 21 22  1  0
 23 21  1  0
 24 25  1  0
 24 23  1  1
 25 18  1  0
 26 24  1  0
 27 26  1  0
 28 26  2  0
M  END
$$$$
