YTL.pdb
     RDKit          3D

 28 28  0  0  1  0  0  0  0  0999 V2000
    6.5107  -12.5997   23.9616 O   0  0  0  0  0  0  0  0  0  0  0  0
    7.0797  -12.9699   22.7413 C   0  0  0  0  0  0  0  0  0  0  0  0
    8.4654  -12.8998   22.6381 C   0  0  0  0  0  0  0  0  0  0  0  0
    9.0907  -13.2569   21.4437 C   0  0  0  0  0  0  0  0  0  0  0  0
    8.3713  -13.6807   20.3527 C   0  0  0  0  0  0  0  0  0  0  0  0
    9.0841  -14.0379   19.1276 C   0  0  0  0  0  0  0  0  0  0  0  0
    9.3781  -15.4879   18.9431 C   0  0  2  0  0  0  0  0  0  0  0  0
    8.4422  -15.9560   17.9072 N   0  0  0  0  0  0  0  0  0  0  0  0
    9.1817  -16.2123   20.2040 C   0  0  0  0  0  0  0  0  0  0  0  0
    8.0671  -16.7240   20.4806 O   0  0  0  0  0  0  0  0  0  0  0  0
    6.9915  -13.7417   20.4813 C   0  0  0  0  0  0  0  0  0  0  0  0
    6.3633  -13.3897   21.6617 C   0  0  0  0  0  0  0  0  0  0  0  0
    9.8893  -19.3346   21.1988 C   0  0  0  0  0  0  0  0  0  0  0  0
   10.5658  -18.5332   22.2974 C   0  0  1  0  0  0  0  0  0  0  0  0
   11.9224  -18.4636   22.0026 O   0  0  0  0  0  0  0  0  0  0  0  0
    9.9659  -17.1230   22.3693 C   0  0  2  0  0  0  0  0  0  0  0  0
   10.2230  -16.3799   21.1795 N   0  0  0  0  0  0  0  0  0  0  0  0
   10.5016  -16.4990   23.5903 C   0  0  0  0  0  0  0  0  0  0  0  0
   11.7366  -16.2365   23.6118 O   0  0  0  0  0  0  0  0  0  0  0  0
    8.7565  -14.0316   29.0599 C   0  0  0  0  0  0  0  0  0  0  0  0
    9.8657  -14.5844   28.1444 C   0  0  2  0  0  0  0  0  0  0  0  0
   10.8848  -13.4918   27.9921 C   0  0  0  0  0  0  0  0  0  0  0  0
    9.2819  -15.0489   26.8392 C   0  0  0  0  0  0  0  0  0  0  0  0
   10.3115  -15.6917   25.9904 C   0  0  2  0  0  0  0  0  0  0  0  0
    9.7489  -16.1745   24.7280 N   0  0  0  0  0  0  0  0  0  0  0  0
   10.9876  -16.8541   26.5928 C   0  0  0  0  0  0  0  0  0  0  0  0
   10.3093  -17.9940   27.0010 O   0  0  0  0  0  0  0  0  0  0  0  0
   12.2242  -16.8487   26.7586 O   0  0  0  0  0  0  0  0  0  0  0  0
  2 12  2  0
  2  1  1  0
  3  2  1  0
  4  5  1  0
  4  3  2  0
  5 11  2  0
  6  7  1  0
  6  5  1  0
  7  8  1  6
  9  7  1  0
  9 10  2  0
 11 12  1  0
 14 13  1  6
 14 16  1  0
 15 14  1  0
 16 17  1  6
 17  9  1  0
 18 16  1  0
 19 18  2  0
 21 20  1  1
 21 22  1  0
 23 21  1  0
 24 25  1  0
 24 23  1  1
 25 18  1  0
 26 24  1  0
 27 26  1  0
 28 26  2  0
M  END
$$$$
