YTL.pdb
     RDKit          3D

 28 28  0  0  1  0  0  0  0  0999 V2000
    4.5849   -9.7369   26.3640 O   0  0  0  0  0  0  0  0  0  0  0  0
    5.2770  -10.9397   26.2083 C   0  0  0  0  0  0  0  0  0  0  0  0
    6.3261  -10.9564   25.2946 C   0  0  0  0  0  0  0  0  0  0  0  0
    7.0542  -12.1294   25.0962 C   0  0  0  0  0  0  0  0  0  0  0  0
    6.7633  -13.2827   25.7838 C   0  0  0  0  0  0  0  0  0  0  0  0
    7.5607  -14.4810   25.5294 C   0  0  0  0  0  0  0  0  0  0  0  0
    7.0303  -15.4092   24.4903 C   0  0  2  0  0  0  0  0  0  0  0  0
    5.9030  -16.1142   25.1231 N   0  0  0  0  0  0  0  0  0  0  0  0
    8.0742  -16.3489   24.0654 C   0  0  0  0  0  0  0  0  0  0  0  0
    8.0914  -17.5269   24.5044 O   0  0  0  0  0  0  0  0  0  0  0  0
    5.7129  -13.2397   26.6888 C   0  0  0  0  0  0  0  0  0  0  0  0
    4.9859  -12.0813   26.8918 C   0  0  0  0  0  0  0  0  0  0  0  0
    9.3146  -17.1168   20.4983 C   0  0  0  0  0  0  0  0  0  0  0  0
   10.5414  -16.8977   21.3665 C   0  0  1  0  0  0  0  0  0  0  0  0
   11.0816  -15.6596   21.0389 O   0  0  0  0  0  0  0  0  0  0  0  0
   10.1521  -16.9305   22.8501 C   0  0  2  0  0  0  0  0  0  0  0  0
    9.1176  -15.9937   23.1441 N   0  0  0  0  0  0  0  0  0  0  0  0
   11.3905  -16.7119   23.6155 C   0  0  0  0  0  0  0  0  0  0  0  0
   12.2278  -15.8950   23.1402 O   0  0  0  0  0  0  0  0  0  0  0  0
   12.1207  -15.2351   28.2498 C   0  0  0  0  0  0  0  0  0  0  0  0
   10.7002  -15.0819   27.6727 C   0  0  2  0  0  0  0  0  0  0  0  0
    9.7490  -15.5521   28.7355 C   0  0  0  0  0  0  0  0  0  0  0  0
   10.5782  -15.8377   26.3788 C   0  0  0  0  0  0  0  0  0  0  0  0
   11.7825  -16.6613   26.1240 C   0  0  2  0  0  0  0  0  0  0  0  0
   11.7112  -17.3389   24.8281 N   0  0  0  0  0  0  0  0  0  0  0  0
   12.0392  -17.7234   27.1124 C   0  0  0  0  0  0  0  0  0  0  0  0
   13.1344  -17.7129   27.9647 O   0  0  0  0  0  0  0  0  0  0  0  0
   11.2583  -18.6910   27.2160 O   0  0  0  0  0  0  0  0  0  0  0  0
  2 12  2  0
  2  1  1  0
  3  2  1  0
  4  5  1  0
  4  3  2  0
  5 11  2  0
  6  7  1  0
  6  5  1  0
  7  8  1  1
  9  7  1  0
  9 10  2  0
 11 12  1  0
 14 13  1  6
 14 16  1  0
 15 14  1  0
 16 17  1  6
 17  9  1  0
 18 16  1  0
 19 18  2  0
 21 20  1  1
 21 22  1  0
 23 21  1  0
 24 25  1  0
 24 23  1  1
 25 18  1  0
 26 24  1  0
 27 26  1  0
 28 26  2  0
M  END
$$$$
