YTL.pdb
     RDKit          3D

 28 28  0  0  1  0  0  0  0  0999 V2000
    9.2730  -19.5230   29.9260 O   0  0  0  0  0  0  0  0  0  0  0  0
    8.4911  -19.2657   28.7979 C   0  0  0  0  0  0  0  0  0  0  0  0
    7.6689  -20.2930   28.3460 C   0  0  0  0  0  0  0  0  0  0  0  0
    6.8649  -20.0948   27.2236 C   0  0  0  0  0  0  0  0  0  0  0  0
    6.8604  -18.9017   26.5425 C   0  0  0  0  0  0  0  0  0  0  0  0
    5.9982  -18.7563   25.3711 C   0  0  0  0  0  0  0  0  0  0  0  0
    6.5736  -19.2194   24.0760 C   0  0  2  0  0  0  0  0  0  0  0  0
    7.2855  -20.4717   24.3810 N   0  0  0  0  0  0  0  0  0  0  0  0
    7.4867  -18.2072   23.5329 C   0  0  0  0  0  0  0  0  0  0  0  0
    8.7308  -18.3860   23.5634 O   0  0  0  0  0  0  0  0  0  0  0  0
    7.6889  -17.8937   27.0133 C   0  0  0  0  0  0  0  0  0  0  0  0
    8.4891  -18.0815   28.1252 C   0  0  0  0  0  0  0  0  0  0  0  0
    6.4376  -14.0918   22.2504 C   0  0  0  0  0  0  0  0  0  0  0  0
    7.3068  -15.0517   21.4568 C   0  0  1  0  0  0  0  0  0  0  0  0
    8.2707  -14.3044   20.7900 O   0  0  0  0  0  0  0  0  0  0  0  0
    7.9762  -16.0609   22.3985 C   0  0  2  0  0  0  0  0  0  0  0  0
    7.0308  -16.9777   22.9461 N   0  0  0  0  0  0  0  0  0  0  0  0
    8.7015  -15.2758   23.4107 C   0  0  0  0  0  0  0  0  0  0  0  0
    9.6343  -14.5282   23.0039 O   0  0  0  0  0  0  0  0  0  0  0  0
    7.5663  -11.8193   25.6133 C   0  0  0  0  0  0  0  0  0  0  0  0
    6.9944  -13.1301   26.1867 C   0  0  2  0  0  0  0  0  0  0  0  0
    5.9211  -12.7425   27.1632 C   0  0  0  0  0  0  0  0  0  0  0  0
    8.0926  -13.9562   26.7962 C   0  0  0  0  0  0  0  0  0  0  0  0
    9.0607  -14.4027   25.7681 C   0  0  2  0  0  0  0  0  0  0  0  0
    8.4376  -15.2938   24.7878 N   0  0  0  0  0  0  0  0  0  0  0  0
   10.2310  -15.1358   26.2820 C   0  0  0  0  0  0  0  0  0  0  0  0
   11.1970  -14.5475   27.0861 O   0  0  0  0  0  0  0  0  0  0  0  0
   10.3933  -16.3408   26.0020 O   0  0  0  0  0  0  0  0  0  0  0  0
  2 12  2  0
  2  1  1  0
  3  2  1  0
  4  5  1  0
  4  3  2  0
  5 11  2  0
  6  7  1  0
  6  5  1  0
  7  8  1  1
  9  7  1  0
  9 10  2  0
 11 12  1  0
 14 13  1  1
 14 16  1  0
 15 14  1  0
 16 17  1  1
 17  9  1  0
 18 16  1  0
 19 18  2  0
 21 20  1  1
 21 22  1  0
 23 21  1  0
 24 25  1  0
 24 23  1  1
 25 18  1  0
 26 24  1  0
 27 26  1  0
 28 26  2  0
M  END
$$$$
