YTL.pdb
     RDKit          3D

 28 28  0  0  1  0  0  0  0  0999 V2000
    6.3349  -12.8894   25.3922 O   0  0  0  0  0  0  0  0  0  0  0  0
    6.9958  -13.0322   24.1703 C   0  0  0  0  0  0  0  0  0  0  0  0
    6.2089  -13.0928   23.0246 C   0  0  0  0  0  0  0  0  0  0  0  0
    6.8128  -13.2351   21.7754 C   0  0  0  0  0  0  0  0  0  0  0  0
    8.1774  -13.3183   21.6404 C   0  0  0  0  0  0  0  0  0  0  0  0
    8.7505  -13.4701   20.3043 C   0  0  0  0  0  0  0  0  0  0  0  0
    8.9763  -14.8708   19.8465 C   0  0  2  0  0  0  0  0  0  0  0  0
    7.8796  -15.1659   18.9094 N   0  0  0  0  0  0  0  0  0  0  0  0
    8.9603  -15.7898   20.9905 C   0  0  0  0  0  0  0  0  0  0  0  0
    7.9302  -16.4590   21.2588 O   0  0  0  0  0  0  0  0  0  0  0  0
    8.9393  -13.2553   22.7978 C   0  0  0  0  0  0  0  0  0  0  0  0
    8.3491  -13.1143   24.0402 C   0  0  0  0  0  0  0  0  0  0  0  0
   10.0645  -18.8809   21.2840 C   0  0  0  0  0  0  0  0  0  0  0  0
   10.7526  -18.2542   22.4841 C   0  0  1  0  0  0  0  0  0  0  0  0
   12.0685  -17.9814   22.1285 O   0  0  0  0  0  0  0  0  0  0  0  0
   10.0342  -16.9609   22.8900 C   0  0  2  0  0  0  0  0  0  0  0  0
   10.0908  -15.9801   21.8561 N   0  0  0  0  0  0  0  0  0  0  0  0
   10.6372  -16.5247   24.1602 C   0  0  0  0  0  0  0  0  0  0  0  0
   11.6310  -15.7487   24.0925 O   0  0  0  0  0  0  0  0  0  0  0  0
    8.8844  -13.3927   28.6391 C   0  0  0  0  0  0  0  0  0  0  0  0
    9.9550  -14.4409   28.2798 C   0  0  2  0  0  0  0  0  0  0  0  0
   11.2770  -13.7283   28.2870 C   0  0  0  0  0  0  0  0  0  0  0  0
    9.6287  -15.0902   26.9637 C   0  0  0  0  0  0  0  0  0  0  0  0
   10.5482  -16.2160   26.6792 C   0  0  2  0  0  0  0  0  0  0  0  0
   10.1947  -16.9033   25.4358 N   0  0  0  0  0  0  0  0  0  0  0  0
   10.5961  -17.2657   27.7120 C   0  0  0  0  0  0  0  0  0  0  0  0
    9.8167  -18.4128   27.6594 O   0  0  0  0  0  0  0  0  0  0  0  0
   11.3597  -17.1521   28.6921 O   0  0  0  0  0  0  0  0  0  0  0  0
  2 12  2  0
  2  1  1  0
  3  2  1  0
  4  5  1  0
  4  3  2  0
  5 11  2  0
  6  7  1  0
  6  5  1  0
  7  8  1  6
  9  7  1  0
  9 10  2  0
 11 12  1  0
 14 13  1  6
 14 16  1  0
 15 14  1  0
 16 17  1  6
 17  9  1  0
 18 16  1  0
 19 18  2  0
 21 20  1  6
 21 22  1  0
 23 21  1  0
 24 25  1  0
 24 23  1  1
 25 18  1  0
 26 24  1  0
 27 26  1  0
 28 26  2  0
M  END
$$$$
