YTL.pdb
     RDKit          3D

 28 28  0  0  1  0  0  0  0  0999 V2000
   18.0056  -15.3360   19.2300 O   0  0  0  0  0  0  0  0  0  0  0  0
   16.6406  -15.1118   19.4214 C   0  0  0  0  0  0  0  0  0  0  0  0
   16.0786  -14.0170   18.7725 C   0  0  0  0  0  0  0  0  0  0  0  0
   14.7197  -13.7426   18.9259 C   0  0  0  0  0  0  0  0  0  0  0  0
   13.9097  -14.5299   19.7079 C   0  0  0  0  0  0  0  0  0  0  0  0
   12.4938  -14.1887   19.8318 C   0  0  0  0  0  0  0  0  0  0  0  0
   11.5348  -15.1491   19.2148 C   0  0  2  0  0  0  0  0  0  0  0  0
   11.5797  -14.8831   17.7673 N   0  0  0  0  0  0  0  0  0  0  0  0
   10.1857  -14.9388   19.7526 C   0  0  0  0  0  0  0  0  0  0  0  0
    9.4531  -14.0222   19.3013 O   0  0  0  0  0  0  0  0  0  0  0  0
   14.4943  -15.6152   20.3439 C   0  0  0  0  0  0  0  0  0  0  0  0
   15.8405  -15.8947   20.1974 C   0  0  0  0  0  0  0  0  0  0  0  0
    6.9153  -16.5542   19.8167 C   0  0  0  0  0  0  0  0  0  0  0  0
    7.3216  -16.4237   21.2743 C   0  0  1  0  0  0  0  0  0  0  0  0
    7.8022  -17.6578   21.6965 O   0  0  0  0  0  0  0  0  0  0  0  0
    8.4080  -15.3514   21.4266 C   0  0  2  0  0  0  0  0  0  0  0  0
    9.6284  -15.7455   20.8025 N   0  0  0  0  0  0  0  0  0  0  0  0
    8.5348  -15.0819   22.8683 C   0  0  0  0  0  0  0  0  0  0  0  0
    9.5701  -15.5128   23.4486 O   0  0  0  0  0  0  0  0  0  0  0  0
    5.7369  -11.9917   27.5227 C   0  0  0  0  0  0  0  0  0  0  0  0
    6.8883  -12.8900   27.0315 C   0  0  2  0  0  0  0  0  0  0  0  0
    8.1650  -12.2451   27.4895 C   0  0  0  0  0  0  0  0  0  0  0  0
    6.8078  -13.0738   25.5416 C   0  0  0  0  0  0  0  0  0  0  0  0
    7.7185  -14.1487   25.0845 C   0  0  2  0  0  0  0  0  0  0  0  0
    7.5974  -14.3856   23.6448 N   0  0  0  0  0  0  0  0  0  0  0  0
    7.5114  -15.4616   25.7205 C   0  0  0  0  0  0  0  0  0  0  0  0
    8.3143  -15.9381   26.7474 O   0  0  0  0  0  0  0  0  0  0  0  0
    6.5826  -16.2052   25.3448 O   0  0  0  0  0  0  0  0  0  0  0  0
  2 12  2  0
  2  1  1  0
  3  2  1  0
  4  5  1  0
  4  3  2  0
  5 11  2  0
  6  7  1  0
  6  5  1  0
  7  8  1  6
  9  7  1  0
  9 10  2  0
 11 12  1  0
 14 13  1  6
 14 16  1  0
 15 14  1  0
 16 17  1  1
 17  9  1  0
 18 16  1  0
 19 18  2  0
 21 20  1  6
 21 22  1  0
 23 21  1  0
 24 25  1  0
 24 23  1  1
 25 18  1  0
 26 24  1  0
 27 26  1  0
 28 26  2  0
M  END
$$$$
