YTL.pdb
     RDKit          3D

 28 28  0  0  1  0  0  0  0  0999 V2000
    8.1688  -13.1076   15.5135 O   0  0  0  0  0  0  0  0  0  0  0  0
    8.0877  -13.7448   16.7535 C   0  0  0  0  0  0  0  0  0  0  0  0
    7.6364  -12.9873   17.8296 C   0  0  0  0  0  0  0  0  0  0  0  0
    7.5342  -13.5694   19.0930 C   0  0  0  0  0  0  0  0  0  0  0  0
    7.8699  -14.8839   19.3095 C   0  0  0  0  0  0  0  0  0  0  0  0
    7.7444  -15.4357   20.6573 C   0  0  0  0  0  0  0  0  0  0  0  0
    8.1431  -16.8634   20.8174 C   0  0  2  0  0  0  0  0  0  0  0  0
    7.1252  -17.6451   20.0957 N   0  0  0  0  0  0  0  0  0  0  0  0
    8.1826  -17.2252   22.2390 C   0  0  0  0  0  0  0  0  0  0  0  0
    7.5691  -18.2396   22.6579 O   0  0  0  0  0  0  0  0  0  0  0  0
    8.3169  -15.6173   18.2204 C   0  0  0  0  0  0  0  0  0  0  0  0
    8.4212  -15.0484   16.9645 C   0  0  0  0  0  0  0  0  0  0  0  0
    9.2848  -19.3225   23.7037 C   0  0  0  0  0  0  0  0  0  0  0  0
    9.9184  -18.2439   24.5651 C   0  0  1  0  0  0  0  0  0  0  0  0
   11.1825  -17.9753   24.0531 O   0  0  0  0  0  0  0  0  0  0  0  0
    9.0567  -16.9749   24.5425 C   0  0  2  0  0  0  0  0  0  0  0  0
    8.9058  -16.4641   23.2195 N   0  0  0  0  0  0  0  0  0  0  0  0
    9.6786  -16.0265   25.4812 C   0  0  0  0  0  0  0  0  0  0  0  0
   10.9125  -15.7986   25.3407 O   0  0  0  0  0  0  0  0  0  0  0  0
    8.0519  -12.2616   25.8612 C   0  0  0  0  0  0  0  0  0  0  0  0
    7.5001  -13.1378   27.0022 C   0  0  2  0  0  0  0  0  0  0  0  0
    6.3480  -12.3866   27.6054 C   0  0  0  0  0  0  0  0  0  0  0  0
    8.5898  -13.4600   27.9865 C   0  0  0  0  0  0  0  0  0  0  0  0
    9.6126  -14.3449   27.3828 C   0  0  2  0  0  0  0  0  0  0  0  0
    9.0086  -15.3587   26.5163 N   0  0  0  0  0  0  0  0  0  0  0  0
   10.4456  -15.0902   28.3429 C   0  0  0  0  0  0  0  0  0  0  0  0
   10.2523  -16.4352   28.6253 O   0  0  0  0  0  0  0  0  0  0  0  0
   11.3755  -14.5190   28.9477 O   0  0  0  0  0  0  0  0  0  0  0  0
  2 12  2  0
  2  1  1  0
  3  2  1  0
  4  5  1  0
  4  3  2  0
  5 11  2  0
  6  7  1  0
  6  5  1  0
  7  8  1  6
  9  7  1  0
  9 10  2  0
 11 12  1  0
 14 13  1  6
 14 16  1  0
 15 14  1  0
 16 17  1  6
 17  9  1  0
 18 16  1  0
 19 18  2  0
 21 20  1  6
 21 22  1  0
 23 21  1  0
 24 25  1  0
 24 23  1  1
 25 18  1  0
 26 24  1  0
 27 26  1  0
 28 26  2  0
M  END
$$$$
