YTL.pdb
     RDKit          3D

 28 28  0  0  1  0  0  0  0  0999 V2000
   15.6813  -22.2400   20.3508 O   0  0  0  0  0  0  0  0  0  0  0  0
   15.0271  -21.0396   20.6353 C   0  0  0  0  0  0  0  0  0  0  0  0
   13.7865  -21.1235   21.2594 C   0  0  0  0  0  0  0  0  0  0  0  0
   13.0855  -19.9580   21.5686 C   0  0  0  0  0  0  0  0  0  0  0  0
   13.5889  -18.7147   21.2719 C   0  0  0  0  0  0  0  0  0  0  0  0
   12.8051  -17.5304   21.6181 C   0  0  0  0  0  0  0  0  0  0  0  0
   11.7050  -17.1778   20.6757 C   0  0  2  0  0  0  0  0  0  0  0  0
   12.3655  -16.6367   19.4762 N   0  0  0  0  0  0  0  0  0  0  0  0
   10.8111  -16.1856   21.2840 C   0  0  0  0  0  0  0  0  0  0  0  0
   11.0416  -14.9559   21.1595 O   0  0  0  0  0  0  0  0  0  0  0  0
   14.8275  -18.6582   20.6499 C   0  0  0  0  0  0  0  0  0  0  0  0
   15.5293  -19.8085   20.3398 C   0  0  0  0  0  0  0  0  0  0  0  0
    7.4260  -15.2052   20.4942 C   0  0  0  0  0  0  0  0  0  0  0  0
    7.3880  -15.5939   21.9619 C   0  0  1  0  0  0  0  0  0  0  0  0
    6.8924  -16.8897   22.0486 O   0  0  0  0  0  0  0  0  0  0  0  0
    8.7972  -15.5238   22.5642 C   0  0  2  0  0  0  0  0  0  0  0  0
    9.6448  -16.5450   22.0417 N   0  0  0  0  0  0  0  0  0  0  0  0
    8.6335  -15.5742   24.0264 C   0  0  0  0  0  0  0  0  0  0  0  0
    9.3264  -16.4204   24.6573 O   0  0  0  0  0  0  0  0  0  0  0  0
    8.2968  -12.0707   27.1885 C   0  0  0  0  0  0  0  0  0  0  0  0
    7.0923  -12.4791   26.3186 C   0  0  2  0  0  0  0  0  0  0  0  0
    6.0567  -11.4038   26.4823 C   0  0  0  0  0  0  0  0  0  0  0  0
    6.6063  -13.8470   26.7093 C   0  0  0  0  0  0  0  0  0  0  0  0
    7.5145  -14.9026   26.2047 C   0  0  2  0  0  0  0  0  0  0  0  0
    7.7700  -14.7575   24.7705 N   0  0  0  0  0  0  0  0  0  0  0  0
    7.0343  -16.2841   26.3835 C   0  0  0  0  0  0  0  0  0  0  0  0
    7.3072  -17.0376   27.5166 O   0  0  0  0  0  0  0  0  0  0  0  0
    6.3490  -16.8335   25.4974 O   0  0  0  0  0  0  0  0  0  0  0  0
  2 12  2  0
  2  1  1  0
  3  2  1  0
  4  5  1  0
  4  3  2  0
  5 11  2  0
  6  7  1  0
  6  5  1  0
  7  8  1  6
  9  7  1  0
  9 10  2  0
 11 12  1  0
 14 13  1  6
 14 16  1  0
 15 14  1  0
 16 17  1  6
 17  9  1  0
 18 16  1  0
 19 18  2  0
 21 20  1  1
 21 22  1  0
 23 21  1  0
 24 25  1  0
 24 23  1  6
 25 18  1  0
 26 24  1  0
 27 26  1  0
 28 26  2  0
M  END
$$$$
