YTL.pdb
     RDKit          3D

 28 28  0  0  1  0  0  0  0  0999 V2000
   12.3849  -12.5593   20.6749 O   0  0  0  0  0  0  0  0  0  0  0  0
   11.3516  -13.1682   19.9595 C   0  0  0  0  0  0  0  0  0  0  0  0
   11.7015  -14.1882   19.0804 C   0  0  0  0  0  0  0  0  0  0  0  0
   10.7125  -14.8338   18.3384 C   0  0  0  0  0  0  0  0  0  0  0  0
    9.3875  -14.4888   18.4506 C   0  0  0  0  0  0  0  0  0  0  0  0
    8.3980  -15.2003   17.6435 C   0  0  0  0  0  0  0  0  0  0  0  0
    8.1199  -16.6090   18.0448 C   0  0  2  0  0  0  0  0  0  0  0  0
    7.1278  -17.1103   17.0792 N   0  0  0  0  0  0  0  0  0  0  0  0
    7.5983  -16.6550   19.4157 C   0  0  0  0  0  0  0  0  0  0  0  0
    6.3782  -16.4542   19.6427 O   0  0  0  0  0  0  0  0  0  0  0  0
    9.0649  -13.4690   19.3338 C   0  0  0  0  0  0  0  0  0  0  0  0
   10.0388  -12.8236   20.0733 C   0  0  0  0  0  0  0  0  0  0  0  0
    7.1542  -19.4106   21.6751 C   0  0  0  0  0  0  0  0  0  0  0  0
    7.9905  -18.4123   22.4565 C   0  0  1  0  0  0  0  0  0  0  0  0
    9.3173  -18.8216   22.3909 O   0  0  0  0  0  0  0  0  0  0  0  0
    7.8382  -17.0093   21.8549 C   0  0  2  0  0  0  0  0  0  0  0  0
    8.4261  -16.9255   20.5582 N   0  0  0  0  0  0  0  0  0  0  0  0
    8.4101  -16.0677   22.8315 C   0  0  0  0  0  0  0  0  0  0  0  0
    9.6337  -15.7808   22.7105 O   0  0  0  0  0  0  0  0  0  0  0  0
    6.2989  -11.8793   26.5342 C   0  0  0  0  0  0  0  0  0  0  0  0
    7.4723  -12.5630   25.8062 C   0  0  2  0  0  0  0  0  0  0  0  0
    7.5164  -11.9854   24.4205 C   0  0  0  0  0  0  0  0  0  0  0  0
    7.3024  -14.0565   25.8303 C   0  0  0  0  0  0  0  0  0  0  0  0
    8.3183  -14.7249   24.9849 C   0  0  2  0  0  0  0  0  0  0  0  0
    7.7030  -15.4666   23.8827 N   0  0  0  0  0  0  0  0  0  0  0  0
    9.1785  -15.6958   25.6838 C   0  0  0  0  0  0  0  0  0  0  0  0
   10.4946  -15.4252   26.0316 O   0  0  0  0  0  0  0  0  0  0  0  0
    8.7379  -16.8215   25.9926 O   0  0  0  0  0  0  0  0  0  0  0  0
  2 12  2  0
  2  1  1  0
  3  2  1  0
  4  5  1  0
  4  3  2  0
  5 11  2  0
  6  7  1  0
  6  5  1  0
  7  8  1  6
  9  7  1  0
  9 10  2  0
 11 12  1  0
 14 13  1  6
 14 16  1  0
 15 14  1  0
 16 17  1  6
 17  9  1  0
 18 16  1  0
 19 18  2  0
 21 20  1  1
 21 22  1  0
 23 21  1  0
 24 25  1  0
 24 23  1  1
 25 18  1  0
 26 24  1  0
 27 26  1  0
 28 26  2  0
M  END
$$$$
