YTL.pdb
     RDKit          3D

 28 28  0  0  1  0  0  0  0  0999 V2000
    8.8214  -25.0849   33.1714 O   0  0  0  0  0  0  0  0  0  0  0  0
    9.2194  -24.1668   32.1974 C   0  0  0  0  0  0  0  0  0  0  0  0
   10.4192  -23.4949   32.4088 C   0  0  0  0  0  0  0  0  0  0  0  0
   10.8683  -22.5659   31.4704 C   0  0  0  0  0  0  0  0  0  0  0  0
   10.1533  -22.2908   30.3300 C   0  0  0  0  0  0  0  0  0  0  0  0
   10.6748  -21.3042   29.3859 C   0  0  0  0  0  0  0  0  0  0  0  0
   11.0801  -21.8296   28.0508 C   0  0  2  0  0  0  0  0  0  0  0  0
   12.1493  -22.8071   28.3146 N   0  0  0  0  0  0  0  0  0  0  0  0
   11.5579  -20.7363   27.1964 C   0  0  0  0  0  0  0  0  0  0  0  0
   12.7024  -20.2448   27.3671 O   0  0  0  0  0  0  0  0  0  0  0  0
    8.9607  -22.9740   30.1428 C   0  0  0  0  0  0  0  0  0  0  0  0
    8.5080  -23.8967   31.0677 C   0  0  0  0  0  0  0  0  0  0  0  0
   12.0193  -20.8638   23.5349 C   0  0  0  0  0  0  0  0  0  0  0  0
   11.2214  -19.5985   23.7975 C   0  0  1  0  0  0  0  0  0  0  0  0
    9.8932  -19.8565   23.4786 O   0  0  0  0  0  0  0  0  0  0  0  0
   11.3434  -19.1926   25.2719 C   0  0  2  0  0  0  0  0  0  0  0  0
   10.7698  -20.1709   26.1368 N   0  0  0  0  0  0  0  0  0  0  0  0
   10.7343  -17.8579   25.3933 C   0  0  0  0  0  0  0  0  0  0  0  0
    9.4914  -17.8068   25.6101 O   0  0  0  0  0  0  0  0  0  0  0  0
    8.8398  -14.9702   27.4289 C   0  0  0  0  0  0  0  0  0  0  0  0
   10.3614  -15.0578   27.6547 C   0  0  2  0  0  0  0  0  0  0  0  0
   10.6544  -14.3050   28.9208 C   0  0  0  0  0  0  0  0  0  0  0  0
   11.0983  -14.5285   26.4559 C   0  0  0  0  0  0  0  0  0  0  0  0
   10.7915  -15.3235   25.2445 C   0  0  2  0  0  0  0  0  0  0  0  0
   11.4255  -16.6425   25.2870 N   0  0  0  0  0  0  0  0  0  0  0  0
   11.2192  -14.7196   23.9704 C   0  0  0  0  0  0  0  0  0  0  0  0
   10.5643  -13.6438   23.3873 O   0  0  0  0  0  0  0  0  0  0  0  0
   12.2103  -15.1692   23.3603 O   0  0  0  0  0  0  0  0  0  0  0  0
  2 12  2  0
  2  1  1  0
  3  2  1  0
  4  5  1  0
  4  3  2  0
  5 11  2  0
  6  7  1  0
  6  5  1  0
  7  8  1  1
  9  7  1  0
  9 10  2  0
 11 12  1  0
 14 13  1  1
 14 16  1  0
 15 14  1  0
 16 17  1  1
 17  9  1  0
 18 16  1  0
 19 18  2  0
 21 20  1  6
 21 22  1  0
 23 21  1  0
 24 25  1  0
 24 23  1  1
 25 18  1  0
 26 24  1  0
 27 26  1  0
 28 26  2  0
M  END
$$$$
