YTL.pdb
     RDKit          3D

 28 28  0  0  1  0  0  0  0  0999 V2000
    8.7247  -20.6611   29.7554 O   0  0  0  0  0  0  0  0  0  0  0  0
    8.3333  -20.6632   28.4149 C   0  0  0  0  0  0  0  0  0  0  0  0
    7.5918  -19.5747   27.9669 C   0  0  0  0  0  0  0  0  0  0  0  0
    7.1725  -19.5212   26.6377 C   0  0  0  0  0  0  0  0  0  0  0  0
    7.4731  -20.5229   25.7468 C   0  0  0  0  0  0  0  0  0  0  0  0
    7.0024  -20.4108   24.3674 C   0  0  0  0  0  0  0  0  0  0  0  0
    8.0416  -20.0910   23.3474 C   0  0  2  0  0  0  0  0  0  0  0  0
    9.1115  -21.0835   23.5433 N   0  0  0  0  0  0  0  0  0  0  0  0
    8.5415  -18.7249   23.5400 C   0  0  0  0  0  0  0  0  0  0  0  0
    9.5755  -18.5126   24.2230 O   0  0  0  0  0  0  0  0  0  0  0  0
    8.2135  -21.5969   26.2183 C   0  0  0  0  0  0  0  0  0  0  0  0
    8.6332  -21.6581   27.5344 C   0  0  0  0  0  0  0  0  0  0  0  0
    9.0478  -15.7975   20.9182 C   0  0  0  0  0  0  0  0  0  0  0  0
    8.2301  -15.3062   22.1000 C   0  0  1  0  0  0  0  0  0  0  0  0
    6.8993  -15.2440   21.7031 O   0  0  0  0  0  0  0  0  0  0  0  0
    8.3852  -16.2664   23.2863 C   0  0  2  0  0  0  0  0  0  0  0  0
    7.8990  -17.5707   22.9753 N   0  0  0  0  0  0  0  0  0  0  0  0
    7.7088  -15.6346   24.4311 C   0  0  0  0  0  0  0  0  0  0  0  0
    6.6074  -16.1310   24.7983 O   0  0  0  0  0  0  0  0  0  0  0  0
    8.7369  -15.3471   28.5853 C   0  0  0  0  0  0  0  0  0  0  0  0
    9.4699  -14.2731   27.7586 C   0  0  2  0  0  0  0  0  0  0  0  0
   10.5061  -13.6662   28.6606 C   0  0  0  0  0  0  0  0  0  0  0  0
    8.4878  -13.2741   27.2129 C   0  0  0  0  0  0  0  0  0  0  0  0
    7.5217  -13.9195   26.2944 C   0  0  2  0  0  0  0  0  0  0  0  0
    8.1915  -14.5272   25.1432 N   0  0  0  0  0  0  0  0  0  0  0  0
    6.4967  -13.0245   25.7290 C   0  0  0  0  0  0  0  0  0  0  0  0
    6.4033  -12.7454   24.3728 O   0  0  0  0  0  0  0  0  0  0  0  0
    5.6589  -12.4755   26.4728 O   0  0  0  0  0  0  0  0  0  0  0  0
  2 12  2  0
  2  1  1  0
  3  2  1  0
  4  5  1  0
  4  3  2  0
  5 11  2  0
  6  7  1  0
  6  5  1  0
  7  8  1  1
  9  7  1  0
  9 10  2  0
 11 12  1  0
 14 13  1  6
 14 16  1  0
 15 14  1  0
 16 17  1  6
 17  9  1  0
 18 16  1  0
 19 18  2  0
 21 20  1  1
 21 22  1  0
 23 21  1  0
 24 25  1  0
 24 23  1  6
 25 18  1  0
 26 24  1  0
 27 26  1  0
 28 26  2  0
M  END
$$$$
