YTL.pdb
     RDKit          3D

 28 28  0  0  1  0  0  0  0  0999 V2000
   10.5047  -12.7266   19.6360 O   0  0  0  0  0  0  0  0  0  0  0  0
    9.5024  -13.6913   19.5141 C   0  0  0  0  0  0  0  0  0  0  0  0
    8.2060  -13.3067   19.8413 C   0  0  0  0  0  0  0  0  0  0  0  0
    7.1630  -14.2271   19.7392 C   0  0  0  0  0  0  0  0  0  0  0  0
    7.3796  -15.5175   19.3204 C   0  0  0  0  0  0  0  0  0  0  0  0
    6.2459  -16.4365   19.2371 C   0  0  0  0  0  0  0  0  0  0  0  0
    6.3412  -17.6674   20.0729 C   0  0  2  0  0  0  0  0  0  0  0  0
    5.2606  -18.5516   19.6053 N   0  0  0  0  0  0  0  0  0  0  0  0
    6.1785  -17.3335   21.4925 C   0  0  0  0  0  0  0  0  0  0  0  0
    5.0491  -17.0272   21.9521 O   0  0  0  0  0  0  0  0  0  0  0  0
    8.6808  -15.8757   19.0001 C   0  0  0  0  0  0  0  0  0  0  0  0
    9.7208  -14.9698   19.0984 C   0  0  0  0  0  0  0  0  0  0  0  0
    6.1759  -19.4469   24.1262 C   0  0  0  0  0  0  0  0  0  0  0  0
    7.1565  -18.4016   24.6288 C   0  0  1  0  0  0  0  0  0  0  0  0
    8.4395  -18.9195   24.4954 O   0  0  0  0  0  0  0  0  0  0  0  0
    7.0183  -17.1106   23.8116 C   0  0  2  0  0  0  0  0  0  0  0  0
    7.2706  -17.3348   22.4258 N   0  0  0  0  0  0  0  0  0  0  0  0
    7.9175  -16.1224   24.4298 C   0  0  0  0  0  0  0  0  0  0  0  0
    9.0560  -15.9687   23.9058 O   0  0  0  0  0  0  0  0  0  0  0  0
    6.5760  -11.3635   27.4089 C   0  0  0  0  0  0  0  0  0  0  0  0
    7.3607  -12.2639   26.4354 C   0  0  2  0  0  0  0  0  0  0  0  0
    6.4493  -12.5427   25.2747 C   0  0  0  0  0  0  0  0  0  0  0  0
    7.8352  -13.5046   27.1393 C   0  0  0  0  0  0  0  0  0  0  0  0
    8.5362  -14.4156   26.2053 C   0  0  2  0  0  0  0  0  0  0  0  0
    7.6084  -15.3408   25.5522 N   0  0  0  0  0  0  0  0  0  0  0  0
    9.5768  -15.2625   26.8144 C   0  0  0  0  0  0  0  0  0  0  0  0
    9.3377  -16.5600   27.2450 O   0  0  0  0  0  0  0  0  0  0  0  0
   10.7361  -14.8270   26.9656 O   0  0  0  0  0  0  0  0  0  0  0  0
  2 12  2  0
  2  1  1  0
  3  2  1  0
  4  5  1  0
  4  3  2  0
  5 11  2  0
  6  7  1  0
  6  5  1  0
  7  8  1  6
  9  7  1  0
  9 10  2  0
 11 12  1  0
 14 13  1  6
 14 16  1  0
 15 14  1  0
 16 17  1  6
 17  9  1  0
 18 16  1  0
 19 18  2  0
 21 20  1  1
 21 22  1  0
 23 21  1  0
 24 25  1  0
 24 23  1  1
 25 18  1  0
 26 24  1  0
 27 26  1  0
 28 26  2  0
M  END
$$$$
