YTL.pdb
     RDKit          3D

 28 28  0  0  1  0  0  0  0  0999 V2000
    8.4457  -12.7516   16.3182 O   0  0  0  0  0  0  0  0  0  0  0  0
    8.1626  -13.2610   17.5872 C   0  0  0  0  0  0  0  0  0  0  0  0
    8.4881  -14.5924   17.8256 C   0  0  0  0  0  0  0  0  0  0  0  0
    8.2288  -15.1568   19.0744 C   0  0  0  0  0  0  0  0  0  0  0  0
    7.6547  -14.4291   20.0885 C   0  0  0  0  0  0  0  0  0  0  0  0
    7.4048  -15.0779   21.3743 C   0  0  0  0  0  0  0  0  0  0  0  0
    7.6825  -16.5416   21.4313 C   0  0  2  0  0  0  0  0  0  0  0  0
    6.5177  -17.1931   20.8093 N   0  0  0  0  0  0  0  0  0  0  0  0
    7.8536  -16.9742   22.8231 C   0  0  0  0  0  0  0  0  0  0  0  0
    6.8606  -17.0784   23.5870 O   0  0  0  0  0  0  0  0  0  0  0  0
    7.3398  -13.1041   19.8255 C   0  0  0  0  0  0  0  0  0  0  0  0
    7.5934  -12.5365   18.5904 C   0  0  0  0  0  0  0  0  0  0  0  0
    8.7425  -20.1565   24.0228 C   0  0  0  0  0  0  0  0  0  0  0  0
    9.7153  -19.2480   24.7544 C   0  0  1  0  0  0  0  0  0  0  0  0
   10.9486  -19.3426   24.1200 O   0  0  0  0  0  0  0  0  0  0  0  0
    9.2123  -17.7991   24.7221 C   0  0  2  0  0  0  0  0  0  0  0  0
    9.1336  -17.2984   23.3890 N   0  0  0  0  0  0  0  0  0  0  0  0
   10.1047  -17.0237   25.5993 C   0  0  0  0  0  0  0  0  0  0  0  0
   11.1314  -16.5110   25.0725 O   0  0  0  0  0  0  0  0  0  0  0  0
   10.1046  -13.3833   26.9290 C   0  0  0  0  0  0  0  0  0  0  0  0
    9.2595  -14.2193   27.9092 C   0  0  2  0  0  0  0  0  0  0  0  0
    8.4757  -13.2462   28.7425 C   0  0  0  0  0  0  0  0  0  0  0  0
   10.1437  -15.1277   28.7173 C   0  0  0  0  0  0  0  0  0  0  0  0
   10.8382  -16.1084   27.8516 C   0  0  2  0  0  0  0  0  0  0  0  0
    9.9035  -16.8109   26.9707 N   0  0  0  0  0  0  0  0  0  0  0  0
   11.5792  -17.1635   28.5648 C   0  0  0  0  0  0  0  0  0  0  0  0
   11.1783  -18.4921   28.5754 O   0  0  0  0  0  0  0  0  0  0  0  0
   12.6180  -16.8870   29.1982 O   0  0  0  0  0  0  0  0  0  0  0  0
  2 12  2  0
  2  1  1  0
  3  2  1  0
  4  5  1  0
  4  3  2  0
  5 11  2  0
  6  7  1  0
  6  5  1  0
  7  8  1  1
  9  7  1  0
  9 10  2  0
 11 12  1  0
 14 13  1  6
 14 16  1  0
 15 14  1  0
 16 17  1  6
 17  9  1  0
 18 16  1  0
 19 18  2  0
 21 20  1  6
 21 22  1  0
 23 21  1  0
 24 25  1  0
 24 23  1  1
 25 18  1  0
 26 24  1  0
 27 26  1  0
 28 26  2  0
M  END
$$$$
