YTL.pdb
     RDKit          3D

 28 28  0  0  1  0  0  0  0  0999 V2000
   10.1809  -18.9919   30.6215 O   0  0  0  0  0  0  0  0  0  0  0  0
    9.3194  -18.8602   29.5304 C   0  0  0  0  0  0  0  0  0  0  0  0
    8.4247  -19.8997   29.2970 C   0  0  0  0  0  0  0  0  0  0  0  0
    7.5395  -19.8245   28.2218 C   0  0  0  0  0  0  0  0  0  0  0  0
    7.5242  -18.7421   27.3758 C   0  0  0  0  0  0  0  0  0  0  0  0
    6.5750  -18.7233   26.2644 C   0  0  0  0  0  0  0  0  0  0  0  0
    7.0141  -19.4167   25.0197 C   0  0  2  0  0  0  0  0  0  0  0  0
    7.8113  -20.5713   25.4663 N   0  0  0  0  0  0  0  0  0  0  0  0
    7.8117  -18.5103   24.1856 C   0  0  0  0  0  0  0  0  0  0  0  0
    9.0593  -18.6449   24.1072 O   0  0  0  0  0  0  0  0  0  0  0  0
    8.4260  -17.7193   27.6301 C   0  0  0  0  0  0  0  0  0  0  0  0
    9.3069  -17.7855   28.6937 C   0  0  0  0  0  0  0  0  0  0  0  0
    6.9853  -16.5976   20.5461 C   0  0  0  0  0  0  0  0  0  0  0  0
    7.3372  -15.6888   21.7109 C   0  0  1  0  0  0  0  0  0  0  0  0
    6.1528  -15.1725   22.2236 O   0  0  0  0  0  0  0  0  0  0  0  0
    8.0827  -16.4805   22.7930 C   0  0  2  0  0  0  0  0  0  0  0  0
    7.2344  -17.4378   23.4238 N   0  0  0  0  0  0  0  0  0  0  0  0
    8.6574  -15.4905   23.7187 C   0  0  0  0  0  0  0  0  0  0  0  0
    9.4011  -14.5985   23.2231 O   0  0  0  0  0  0  0  0  0  0  0  0
    7.1252  -12.1561   25.6786 C   0  0  0  0  0  0  0  0  0  0  0  0
    6.7989  -13.4731   26.4088 C   0  0  2  0  0  0  0  0  0  0  0  0
    5.7089  -13.1623   27.3940 C   0  0  0  0  0  0  0  0  0  0  0  0
    8.0390  -14.0396   27.0423 C   0  0  0  0  0  0  0  0  0  0  0  0
    9.0163  -14.4697   26.0160 C   0  0  2  0  0  0  0  0  0  0  0  0
    8.4435  -15.4616   25.1043 N   0  0  0  0  0  0  0  0  0  0  0  0
   10.2513  -15.0796   26.5395 C   0  0  0  0  0  0  0  0  0  0  0  0
   10.6610  -16.3623   26.2033 O   0  0  0  0  0  0  0  0  0  0  0  0
   10.9861  -14.4441   27.3223 O   0  0  0  0  0  0  0  0  0  0  0  0
  2 12  2  0
  2  1  1  0
  3  2  1  0
  4  5  1  0
  4  3  2  0
  5 11  2  0
  6  7  1  0
  6  5  1  0
  7  8  1  1
  9  7  1  0
  9 10  2  0
 11 12  1  0
 14 13  1  6
 14 16  1  0
 15 14  1  0
 16 17  1  1
 17  9  1  0
 18 16  1  0
 19 18  2  0
 21 20  1  1
 21 22  1  0
 23 21  1  0
 24 25  1  0
 24 23  1  1
 25 18  1  0
 26 24  1  0
 27 26  1  0
 28 26  2  0
M  END
$$$$
