YTL.pdb
     RDKit          3D

 28 28  0  0  1  0  0  0  0  0999 V2000
   14.5745  -23.1037   21.9189 O   0  0  0  0  0  0  0  0  0  0  0  0
   14.0848  -21.7969   21.9683 C   0  0  0  0  0  0  0  0  0  0  0  0
   14.8078  -20.8204   21.2905 C   0  0  0  0  0  0  0  0  0  0  0  0
   14.3675  -19.4971   21.3040 C   0  0  0  0  0  0  0  0  0  0  0  0
   13.2278  -19.1240   21.9744 C   0  0  0  0  0  0  0  0  0  0  0  0
   12.8197  -17.7205   21.9542 C   0  0  0  0  0  0  0  0  0  0  0  0
   11.7986  -17.3527   20.9320 C   0  0  2  0  0  0  0  0  0  0  0  0
   12.5563  -16.8445   19.7763 N   0  0  0  0  0  0  0  0  0  0  0  0
   10.8903  -16.3302   21.4639 C   0  0  0  0  0  0  0  0  0  0  0  0
   11.1710  -15.1091   21.3600 O   0  0  0  0  0  0  0  0  0  0  0  0
   12.5251  -20.1162   22.6420 C   0  0  0  0  0  0  0  0  0  0  0  0
   12.9543  -21.4306   22.6339 C   0  0  0  0  0  0  0  0  0  0  0  0
    7.5716  -15.1527   20.5152 C   0  0  0  0  0  0  0  0  0  0  0  0
    7.4499  -15.5886   21.9650 C   0  0  1  0  0  0  0  0  0  0  0  0
    6.8962  -16.8635   21.9833 O   0  0  0  0  0  0  0  0  0  0  0  0
    8.8316  -15.6010   22.6313 C   0  0  2  0  0  0  0  0  0  0  0  0
    9.6532  -16.6491   22.1208 N   0  0  0  0  0  0  0  0  0  0  0  0
    8.5987  -15.6785   24.0829 C   0  0  0  0  0  0  0  0  0  0  0  0
    9.3103  -16.4880   24.7407 O   0  0  0  0  0  0  0  0  0  0  0  0
    7.8815  -12.3515   27.4237 C   0  0  0  0  0  0  0  0  0  0  0  0
    6.7730  -12.7291   26.4224 C   0  0  2  0  0  0  0  0  0  0  0  0
    5.6868  -11.7029   26.5730 C   0  0  0  0  0  0  0  0  0  0  0  0
    6.3077  -14.1379   26.6656 C   0  0  0  0  0  0  0  0  0  0  0  0
    7.3123  -15.1217   26.2003 C   0  0  2  0  0  0  0  0  0  0  0  0
    7.6504  -14.9250   24.7896 N   0  0  0  0  0  0  0  0  0  0  0  0
    6.9108  -16.5345   26.3179 C   0  0  0  0  0  0  0  0  0  0  0  0
    6.5678  -17.3155   25.2232 O   0  0  0  0  0  0  0  0  0  0  0  0
    6.8657  -17.0867   27.4358 O   0  0  0  0  0  0  0  0  0  0  0  0
  2 12  2  0
  2  1  1  0
  3  2  1  0
  4  5  1  0
  4  3  2  0
  5 11  2  0
  6  7  1  0
  6  5  1  0
  7  8  1  6
  9  7  1  0
  9 10  2  0
 11 12  1  0
 14 13  1  6
 14 16  1  0
 15 14  1  0
 16 17  1  6
 17  9  1  0
 18 16  1  0
 19 18  2  0
 21 20  1  1
 21 22  1  0
 23 21  1  0
 24 25  1  0
 24 23  1  6
 25 18  1  0
 26 24  1  0
 27 26  1  0
 28 26  2  0
M  END
$$$$
