YTL.pdb
     RDKit          3D

 28 28  0  0  1  0  0  0  0  0999 V2000
   15.2119  -19.3977   30.5122 O   0  0  0  0  0  0  0  0  0  0  0  0
   14.8237  -18.5692   29.4572 C   0  0  0  0  0  0  0  0  0  0  0  0
   15.5873  -18.6187   28.2952 C   0  0  0  0  0  0  0  0  0  0  0  0
   15.2480  -17.8139   27.2078 C   0  0  0  0  0  0  0  0  0  0  0  0
   14.1699  -16.9634   27.2498 C   0  0  0  0  0  0  0  0  0  0  0  0
   13.8672  -16.1427   26.0787 C   0  0  0  0  0  0  0  0  0  0  0  0
   13.7345  -16.8739   24.7862 C   0  0  2  0  0  0  0  0  0  0  0  0
   15.0266  -16.7082   24.0998 N   0  0  0  0  0  0  0  0  0  0  0  0
   12.6350  -16.3120   23.9932 C   0  0  0  0  0  0  0  0  0  0  0  0
   12.8038  -15.2652   23.3176 O   0  0  0  0  0  0  0  0  0  0  0  0
   13.4250  -16.9328   28.4195 C   0  0  0  0  0  0  0  0  0  0  0  0
   13.7540  -17.7272   29.5023 C   0  0  0  0  0  0  0  0  0  0  0  0
   10.2687  -16.5997   21.1847 C   0  0  0  0  0  0  0  0  0  0  0  0
    9.4098  -16.6437   22.4366 C   0  0  1  0  0  0  0  0  0  0  0  0
    9.0503  -17.9673   22.6624 O   0  0  0  0  0  0  0  0  0  0  0  0
   10.1942  -16.0954   23.6356 C   0  0  2  0  0  0  0  0  0  0  0  0
   11.3281  -16.9058   23.9384 N   0  0  0  0  0  0  0  0  0  0  0  0
    9.2351  -15.9722   24.7457 C   0  0  0  0  0  0  0  0  0  0  0  0
    9.4437  -16.6782   25.7715 O   0  0  0  0  0  0  0  0  0  0  0  0
    7.5764  -12.4094   27.0705 C   0  0  0  0  0  0  0  0  0  0  0  0
    6.9501  -12.6433   25.6823 C   0  0  2  0  0  0  0  0  0  0  0  0
    6.0969  -11.4435   25.3855 C   0  0  0  0  0  0  0  0  0  0  0  0
    6.1909  -13.9408   25.6640 C   0  0  0  0  0  0  0  0  0  0  0  0
    7.1036  -15.0976   25.8137 C   0  0  2  0  0  0  0  0  0  0  0  0
    8.1111  -15.1338   24.7520 N   0  0  0  0  0  0  0  0  0  0  0  0
    6.4534  -16.4196   25.7876 C   0  0  0  0  0  0  0  0  0  0  0  0
    6.1243  -17.1218   26.9386 O   0  0  0  0  0  0  0  0  0  0  0  0
    6.1713  -16.9626   24.7004 O   0  0  0  0  0  0  0  0  0  0  0  0
  2 12  2  0
  2  1  1  0
  3  2  1  0
  4  5  1  0
  4  3  2  0
  5 11  2  0
  6  7  1  0
  6  5  1  0
  7  8  1  6
  9  7  1  0
  9 10  2  0
 11 12  1  0
 14 13  1  6
 14 16  1  0
 15 14  1  0
 16 17  1  1
 17  9  1  0
 18 16  1  0
 19 18  2  0
 21 20  1  1
 21 22  1  0
 23 21  1  0
 24 25  1  0
 24 23  1  6
 25 18  1  0
 26 24  1  0
 27 26  1  0
 28 26  2  0
M  END
$$$$
