VYS.pdb
     RDKit          3D

 26 26  0  0  1  0  0  0  0  0999 V2000
    7.0581  -16.0165   20.4276 C   0  0  0  0  0  0  0  0  0  0  0  0
    7.4976  -14.8635   19.5515 C   0  0  1  0  0  0  0  0  0  0  0  0
    6.5781  -14.6942   18.3812 C   0  0  0  0  0  0  0  0  0  0  0  0
    7.5823  -13.6148   20.4006 C   0  0  2  0  0  0  0  0  0  0  0  0
    7.9969  -12.4670   19.6191 N   0  0  0  0  0  0  0  0  0  0  0  0
    8.5160  -13.8259   21.5610 C   0  0  0  0  0  0  0  0  0  0  0  0
    9.7612  -13.7499   21.4149 O   0  0  0  0  0  0  0  0  0  0  0  0
   10.6618  -15.4505   30.1798 O   0  0  0  0  0  0  0  0  0  0  0  0
   10.0547  -15.1565   28.9569 C   0  0  0  0  0  0  0  0  0  0  0  0
   10.0601  -13.8535   28.5091 C   0  0  0  0  0  0  0  0  0  0  0  0
    9.4605  -13.5322   27.2905 C   0  0  0  0  0  0  0  0  0  0  0  0
    8.8559  -14.4766   26.5065 C   0  0  0  0  0  0  0  0  0  0  0  0
    8.2455  -14.1351   25.2389 C   0  0  0  0  0  0  0  0  0  0  0  0
    8.9518  -14.4876   23.9794 C   0  0  2  0  0  0  0  0  0  0  0  0
    8.0322  -14.1170   22.8571 N   0  0  0  0  0  0  0  0  0  0  0  0
    9.4046  -15.8580   23.8015 C   0  0  0  0  0  0  0  0  0  0  0  0
    8.5267  -16.7660   23.5711 O   0  0  0  0  0  0  0  0  0  0  0  0
    8.8613  -15.7794   26.9746 C   0  0  0  0  0  0  0  0  0  0  0  0
    9.4538  -16.0971   28.1791 C   0  0  0  0  0  0  0  0  0  0  0  0
   12.7459  -16.9553   22.2679 O   0  0  0  0  0  0  0  0  0  0  0  0
   11.8385  -17.9928   22.4820 C   0  0  0  0  0  0  0  0  0  0  0  0
   11.1137  -17.6861   23.7746 C   0  0  2  0  0  0  0  0  0  0  0  0
   10.7266  -16.2892   23.8499 N   0  0  0  0  0  0  0  0  0  0  0  0
   11.9729  -18.0673   24.8901 C   0  0  0  0  0  0  0  0  0  0  0  0
   12.3104  -17.2268   25.7540 O   0  0  0  0  0  0  0  0  0  0  0  0
   12.4594  -19.3752   25.0523 O   0  0  0  0  0  0  0  0  0  0  0  0
  2  1  1  1
  3  2  1  0
  4  2  1  0
  4  5  1  6
  6 15  1  0
  6  4  1  0
  7  6  2  0
  9  8  1  0
 10  9  2  0
 11 10  1  0
 12 18  1  0
 12 11  2  0
 13 12  1  0
 14 15  1  0
 14 13  1  1
 16 14  1  0
 17 16  2  0
 18 19  2  0
 19  9  1  0
 20 21  1  0
 22 21  1  6
 22 24  1  0
 22 23  1  0
 23 16  1  0
 24 26  1  0
 25 24  2  0
M  END
$$$$
