VYS.pdb
     RDKit          3D

 26 26  0  0  1  0  0  0  0  0999 V2000
    7.6950  -20.0318   18.5757 C   0  0  0  0  0  0  0  0  0  0  0  0
    8.2955  -19.1897   19.6804 C   0  0  1  0  0  0  0  0  0  0  0  0
    9.6670  -19.6718   20.0413 C   0  0  0  0  0  0  0  0  0  0  0  0
    8.2924  -17.7421   19.2424 C   0  0  2  0  0  0  0  0  0  0  0  0
    9.1519  -17.5317   18.0947 N   0  0  0  0  0  0  0  0  0  0  0  0
    8.7019  -16.8445   20.3778 C   0  0  0  0  0  0  0  0  0  0  0  0
    9.8962  -16.4830   20.5217 O   0  0  0  0  0  0  0  0  0  0  0  0
    7.1415  -11.8262   27.7486 O   0  0  0  0  0  0  0  0  0  0  0  0
    7.1189  -12.5338   26.5446 C   0  0  0  0  0  0  0  0  0  0  0  0
    6.5515  -13.7891   26.5227 C   0  0  0  0  0  0  0  0  0  0  0  0
    6.5157  -14.5178   25.3329 C   0  0  0  0  0  0  0  0  0  0  0  0
    7.0308  -14.0270   24.1643 C   0  0  0  0  0  0  0  0  0  0  0  0
    6.9798  -14.7865   22.9327 C   0  0  0  0  0  0  0  0  0  0  0  0
    8.1784  -15.5573   22.5098 C   0  0  2  0  0  0  0  0  0  0  0  0
    7.7638  -16.3734   21.3247 N   0  0  0  0  0  0  0  0  0  0  0  0
    8.8266  -16.4175   23.4868 C   0  0  0  0  0  0  0  0  0  0  0  0
    8.2391  -17.5075   23.8257 O   0  0  0  0  0  0  0  0  0  0  0  0
    7.5965  -12.7643   24.2079 C   0  0  0  0  0  0  0  0  0  0  0  0
    7.6321  -12.0440   25.3838 C   0  0  0  0  0  0  0  0  0  0  0  0
   12.7007  -15.9613   24.4962 O   0  0  0  0  0  0  0  0  0  0  0  0
   12.1958  -17.2585   24.5849 C   0  0  0  0  0  0  0  0  0  0  0  0
   10.7302  -17.1386   24.9428 C   0  0  2  0  0  0  0  0  0  0  0  0
   10.0527  -16.1726   24.0974 N   0  0  0  0  0  0  0  0  0  0  0  0
   10.6245  -16.7860   26.3543 C   0  0  0  0  0  0  0  0  0  0  0  0
   11.1360  -17.5131   27.2354 O   0  0  0  0  0  0  0  0  0  0  0  0
    9.9547  -15.6318   26.7933 O   0  0  0  0  0  0  0  0  0  0  0  0
  2  1  1  6
  3  2  1  0
  4  2  1  0
  4  5  1  6
  6 15  1  0
  6  4  1  0
  7  6  2  0
  9  8  1  0
 10  9  2  0
 11 10  1  0
 12 18  1  0
 12 11  2  0
 13 12  1  0
 14 15  1  0
 14 13  1  1
 16 14  1  0
 17 16  2  0
 18 19  2  0
 19  9  1  0
 20 21  1  0
 22 21  1  6
 22 24  1  0
 22 23  1  0
 23 16  1  0
 24 26  1  0
 25 24  2  0
M  END
$$$$
