VYS.pdb
     RDKit          3D

 26 26  0  0  1  0  0  0  0  0999 V2000
    6.1054  -14.3606   18.8717 C   0  0  0  0  0  0  0  0  0  0  0  0
    7.1118  -14.6942   19.9515 C   0  0  1  0  0  0  0  0  0  0  0  0
    8.2861  -15.4317   19.3853 C   0  0  0  0  0  0  0  0  0  0  0  0
    7.5185  -13.4141   20.6469 C   0  0  2  0  0  0  0  0  0  0  0  0
    8.1493  -12.4871   19.7288 N   0  0  0  0  0  0  0  0  0  0  0  0
    8.4304  -13.7082   21.8066 C   0  0  0  0  0  0  0  0  0  0  0  0
    9.6787  -13.6426   21.6841 O   0  0  0  0  0  0  0  0  0  0  0  0
   10.4080  -15.3578   30.4642 O   0  0  0  0  0  0  0  0  0  0  0  0
    9.8441  -15.0276   29.2298 C   0  0  0  0  0  0  0  0  0  0  0  0
    9.1424  -15.9927   28.5409 C   0  0  0  0  0  0  0  0  0  0  0  0
    8.5687  -15.6894   27.3053 C   0  0  0  0  0  0  0  0  0  0  0  0
    8.6764  -14.4486   26.7388 C   0  0  0  0  0  0  0  0  0  0  0  0
    8.0690  -14.1408   25.4612 C   0  0  0  0  0  0  0  0  0  0  0  0
    8.8236  -14.4327   24.2142 C   0  0  2  0  0  0  0  0  0  0  0  0
    7.9218  -14.0687   23.0754 N   0  0  0  0  0  0  0  0  0  0  0  0
    9.3347  -15.7795   24.0153 C   0  0  0  0  0  0  0  0  0  0  0  0
    8.5056  -16.7060   23.6952 O   0  0  0  0  0  0  0  0  0  0  0  0
    9.3855  -13.4936   27.4471 C   0  0  0  0  0  0  0  0  0  0  0  0
    9.9526  -13.7933   28.6683 C   0  0  0  0  0  0  0  0  0  0  0  0
   13.1130  -16.6697   23.1633 O   0  0  0  0  0  0  0  0  0  0  0  0
   12.1779  -17.6784   22.9318 C   0  0  0  0  0  0  0  0  0  0  0  0
   11.1099  -17.5435   23.9955 C   0  0  2  0  0  0  0  0  0  0  0  0
   10.6654  -16.1686   24.1329 N   0  0  0  0  0  0  0  0  0  0  0  0
   11.6369  -18.0666   25.2512 C   0  0  0  0  0  0  0  0  0  0  0  0
   11.6828  -17.3478   26.2747 O   0  0  0  0  0  0  0  0  0  0  0  0
   12.1130  -19.3824   25.3772 O   0  0  0  0  0  0  0  0  0  0  0  0
  2  1  1  6
  3  2  1  0
  4  2  1  0
  4  5  1  6
  6 15  1  0
  6  4  1  0
  7  6  2  0
  9  8  1  0
 10  9  2  0
 11 10  1  0
 12 18  1  0
 12 11  2  0
 13 12  1  0
 14 15  1  0
 14 13  1  1
 16 14  1  0
 17 16  2  0
 18 19  2  0
 19  9  1  0
 20 21  1  0
 22 21  1  6
 22 24  1  0
 22 23  1  0
 23 16  1  0
 24 26  1  0
 25 24  2  0
M  END
$$$$
