VYS.pdb
     RDKit          3D

 26 26  0  0  1  0  0  0  0  0999 V2000
    7.1232  -16.1535   20.0015 C   0  0  0  0  0  0  0  0  0  0  0  0
    7.5383  -14.9362   19.2039 C   0  0  1  0  0  0  0  0  0  0  0  0
    6.7010  -14.7880   17.9708 C   0  0  0  0  0  0  0  0  0  0  0  0
    7.4612  -13.7204   20.1001 C   0  0  2  0  0  0  0  0  0  0  0  0
    7.8098  -12.5092   19.3849 N   0  0  0  0  0  0  0  0  0  0  0  0
    8.3460  -13.8932   21.3043 C   0  0  0  0  0  0  0  0  0  0  0  0
    9.5935  -13.7771   21.2156 O   0  0  0  0  0  0  0  0  0  0  0  0
    9.9469  -15.0636   30.1321 O   0  0  0  0  0  0  0  0  0  0  0  0
    9.4360  -14.8015   28.8589 C   0  0  0  0  0  0  0  0  0  0  0  0
    8.9032  -15.8423   28.1301 C   0  0  0  0  0  0  0  0  0  0  0  0
    8.3859  -15.6081   26.8552 C   0  0  0  0  0  0  0  0  0  0  0  0
    8.3858  -14.3629   26.2883 C   0  0  0  0  0  0  0  0  0  0  0  0
    7.8375  -14.1281   24.9691 C   0  0  0  0  0  0  0  0  0  0  0  0
    8.6883  -14.3850   23.7776 C   0  0  2  0  0  0  0  0  0  0  0  0
    7.8120  -14.1920   22.5787 N   0  0  0  0  0  0  0  0  0  0  0  0
    9.3690  -15.6662   23.6781 C   0  0  0  0  0  0  0  0  0  0  0  0
    8.6819  -16.6985   23.3459 O   0  0  0  0  0  0  0  0  0  0  0  0
    8.9257  -13.3312   27.0370 C   0  0  0  0  0  0  0  0  0  0  0  0
    9.4372  -13.5626   28.2971 C   0  0  0  0  0  0  0  0  0  0  0  0
   12.9678  -18.3670   22.4801 O   0  0  0  0  0  0  0  0  0  0  0  0
   12.4358  -17.0858   22.6248 C   0  0  0  0  0  0  0  0  0  0  0  0
   11.3709  -17.1681   23.6970 C   0  0  2  0  0  0  0  0  0  0  0  0
   10.7241  -15.8854   23.9052 N   0  0  0  0  0  0  0  0  0  0  0  0
   11.9844  -17.6666   24.9230 C   0  0  0  0  0  0  0  0  0  0  0  0
   11.9559  -16.9881   25.9744 O   0  0  0  0  0  0  0  0  0  0  0  0
   12.6289  -18.9132   24.9887 O   0  0  0  0  0  0  0  0  0  0  0  0
  2  1  1  1
  3  2  1  0
  4  2  1  0
  4  5  1  6
  6 15  1  0
  6  4  1  0
  7  6  2  0
  9  8  1  0
 10  9  2  0
 11 10  1  0
 12 18  1  0
 12 11  2  0
 13 12  1  0
 14 15  1  0
 14 13  1  1
 16 14  1  0
 17 16  2  0
 18 19  2  0
 19  9  1  0
 20 21  1  0
 22 21  1  6
 22 24  1  0
 22 23  1  0
 23 16  1  0
 24 26  1  0
 25 24  2  0
M  END
$$$$
