VYS.pdb
     RDKit          3D

 26 26  0  0  1  0  0  0  0  0999 V2000
    8.4266  -20.3858   19.0796 C   0  0  0  0  0  0  0  0  0  0  0  0
    8.9005  -19.4921   20.2053 C   0  0  1  0  0  0  0  0  0  0  0  0
   10.2851  -19.8616   20.6410 C   0  0  0  0  0  0  0  0  0  0  0  0
    8.8058  -18.0520   19.7530 C   0  0  2  0  0  0  0  0  0  0  0  0
    9.6885  -17.7864   18.6347 N   0  0  0  0  0  0  0  0  0  0  0  0
    9.1062  -17.1181   20.8934 C   0  0  0  0  0  0  0  0  0  0  0  0
   10.2434  -16.6020   21.0280 O   0  0  0  0  0  0  0  0  0  0  0  0
    6.7557  -11.5294   27.5855 O   0  0  0  0  0  0  0  0  0  0  0  0
    6.8714  -12.3774   26.4818 C   0  0  0  0  0  0  0  0  0  0  0  0
    6.2804  -13.6209   26.5350 C   0  0  0  0  0  0  0  0  0  0  0  0
    6.3807  -14.4880   25.4460 C   0  0  0  0  0  0  0  0  0  0  0  0
    7.0547  -14.1472   24.3051 C   0  0  0  0  0  0  0  0  0  0  0  0
    7.1444  -15.0498   23.1767 C   0  0  0  0  0  0  0  0  0  0  0  0
    8.4010  -15.8143   22.9620 C   0  0  2  0  0  0  0  0  0  0  0  0
    8.1254  -16.7850   21.8556 N   0  0  0  0  0  0  0  0  0  0  0  0
    8.9813  -16.5212   24.0925 C   0  0  0  0  0  0  0  0  0  0  0  0
    8.3976  -17.5848   24.5124 O   0  0  0  0  0  0  0  0  0  0  0  0
    7.6412  -12.8937   24.2722 C   0  0  0  0  0  0  0  0  0  0  0  0
    7.5423  -12.0366   25.3485 C   0  0  0  0  0  0  0  0  0  0  0  0
   12.6328  -17.3976   24.5181 O   0  0  0  0  0  0  0  0  0  0  0  0
   12.2505  -16.9032   25.7651 C   0  0  0  0  0  0  0  0  0  0  0  0
   10.7392  -16.9609   25.8189 C   0  0  2  0  0  0  0  0  0  0  0  0
   10.1376  -16.1533   24.7734 N   0  0  0  0  0  0  0  0  0  0  0  0
   10.3054  -16.5345   27.1448 C   0  0  0  0  0  0  0  0  0  0  0  0
    9.5429  -15.5517   27.2833 O   0  0  0  0  0  0  0  0  0  0  0  0
   10.7129  -17.1925   28.3173 O   0  0  0  0  0  0  0  0  0  0  0  0
  2  1  1  6
  3  2  1  0
  4  2  1  0
  4  5  1  6
  6 15  1  0
  6  4  1  0
  7  6  2  0
  9  8  1  0
 10  9  2  0
 11 10  1  0
 12 18  1  0
 12 11  2  0
 13 12  1  0
 14 15  1  0
 14 13  1  1
 16 14  1  0
 17 16  2  0
 18 19  2  0
 19  9  1  0
 20 21  1  0
 22 21  1  1
 22 24  1  0
 22 23  1  0
 23 16  1  0
 24 26  1  0
 25 24  2  0
M  END
$$$$
