VYS.pdb
     RDKit          3D

 26 26  0  0  1  0  0  0  0  0999 V2000
    7.5454  -20.0914   21.6073 C   0  0  0  0  0  0  0  0  0  0  0  0
    8.1703  -19.6982   20.2863 C   0  0  1  0  0  0  0  0  0  0  0  0
    7.7307  -20.6160   19.1872 C   0  0  0  0  0  0  0  0  0  0  0  0
    7.8277  -18.2533   19.9994 C   0  0  2  0  0  0  0  0  0  0  0  0
    8.3718  -17.8198   18.7281 N   0  0  0  0  0  0  0  0  0  0  0  0
    8.3139  -17.3633   21.1104 C   0  0  0  0  0  0  0  0  0  0  0  0
    9.5389  -17.1392   21.2743 O   0  0  0  0  0  0  0  0  0  0  0  0
    7.2629  -11.4743   27.8726 O   0  0  0  0  0  0  0  0  0  0  0  0
    7.1398  -12.3221   26.7695 C   0  0  0  0  0  0  0  0  0  0  0  0
    7.9006  -12.0688   25.6491 C   0  0  0  0  0  0  0  0  0  0  0  0
    7.7970  -12.9003   24.5330 C   0  0  0  0  0  0  0  0  0  0  0  0
    6.9547  -13.9781   24.5052 C   0  0  0  0  0  0  0  0  0  0  0  0
    6.8618  -14.8408   23.3463 C   0  0  0  0  0  0  0  0  0  0  0  0
    7.8951  -15.8897   23.1425 C   0  0  2  0  0  0  0  0  0  0  0  0
    7.4161  -16.7457   22.0110 N   0  0  0  0  0  0  0  0  0  0  0  0
    8.2534  -16.7348   24.2704 C   0  0  0  0  0  0  0  0  0  0  0  0
    7.3806  -17.5662   24.7119 O   0  0  0  0  0  0  0  0  0  0  0  0
    6.1991  -14.2149   25.6408 C   0  0  0  0  0  0  0  0  0  0  0  0
    6.3013  -13.3931   26.7440 C   0  0  0  0  0  0  0  0  0  0  0  0
   11.4294  -18.1416   24.4199 O   0  0  0  0  0  0  0  0  0  0  0  0
   11.0445  -18.4458   25.7256 C   0  0  0  0  0  0  0  0  0  0  0  0
    9.8001  -17.6362   26.0194 C   0  0  2  0  0  0  0  0  0  0  0  0
    9.4802  -16.7355   24.9270 N   0  0  0  0  0  0  0  0  0  0  0  0
   10.0010  -16.9141   27.2709 C   0  0  0  0  0  0  0  0  0  0  0  0
    9.9383  -15.6646   27.3058 O   0  0  0  0  0  0  0  0  0  0  0  0
   10.2710  -17.5707   28.4832 O   0  0  0  0  0  0  0  0  0  0  0  0
  2  1  1  1
  3  2  1  0
  4  2  1  0
  4  5  1  6
  6 15  1  0
  6  4  1  0
  7  6  2  0
  9  8  1  0
 10  9  2  0
 11 10  1  0
 12 18  1  0
 12 11  2  0
 13 12  1  0
 14 15  1  0
 14 13  1  1
 16 14  1  0
 17 16  2  0
 18 19  2  0
 19  9  1  0
 20 21  1  0
 22 21  1  6
 22 24  1  0
 22 23  1  0
 23 16  1  0
 24 26  1  0
 25 24  2  0
M  END
$$$$
