VYS.pdb
     RDKit          3D

 26 26  0  0  1  0  0  0  0  0999 V2000
    6.1778  -14.9556   18.6566 C   0  0  0  0  0  0  0  0  0  0  0  0
    7.2167  -15.1266   19.7437 C   0  0  1  0  0  0  0  0  0  0  0  0
    8.4867  -15.6971   19.1912 C   0  0  0  0  0  0  0  0  0  0  0  0
    7.4336  -13.7917   20.4208 C   0  0  2  0  0  0  0  0  0  0  0  0
    7.9475  -12.8026   19.4947 N   0  0  0  0  0  0  0  0  0  0  0  0
    8.3575  -13.9394   21.5987 C   0  0  0  0  0  0  0  0  0  0  0  0
    9.5837  -13.6865   21.4981 O   0  0  0  0  0  0  0  0  0  0  0  0
   10.2878  -15.1817   30.3321 O   0  0  0  0  0  0  0  0  0  0  0  0
    9.7024  -14.9971   29.0775 C   0  0  0  0  0  0  0  0  0  0  0  0
    9.7619  -13.7503   28.4941 C   0  0  0  0  0  0  0  0  0  0  0  0
    9.1851  -13.5384   27.2410 C   0  0  0  0  0  0  0  0  0  0  0  0
    8.5509  -14.5376   26.5544 C   0  0  0  0  0  0  0  0  0  0  0  0
    7.9645  -14.3104   25.2503 C   0  0  0  0  0  0  0  0  0  0  0  0
    8.7994  -14.5157   24.0377 C   0  0  2  0  0  0  0  0  0  0  0  0
    7.8855  -14.3668   22.8609 N   0  0  0  0  0  0  0  0  0  0  0  0
    9.5470  -15.7570   23.9158 C   0  0  0  0  0  0  0  0  0  0  0  0
    8.9120  -16.8220   23.5833 O   0  0  0  0  0  0  0  0  0  0  0  0
    8.5021  -15.7824   27.1582 C   0  0  0  0  0  0  0  0  0  0  0  0
    9.0720  -15.9919   28.3968 C   0  0  0  0  0  0  0  0  0  0  0  0
   13.6014  -18.1339   23.1035 O   0  0  0  0  0  0  0  0  0  0  0  0
   13.0237  -16.8883   23.3489 C   0  0  0  0  0  0  0  0  0  0  0  0
   11.6296  -17.1445   23.8791 C   0  0  2  0  0  0  0  0  0  0  0  0
   10.9153  -15.9043   24.1211 N   0  0  0  0  0  0  0  0  0  0  0  0
   11.7348  -17.9501   25.0907 C   0  0  0  0  0  0  0  0  0  0  0  0
   11.3475  -17.5013   26.1931 O   0  0  0  0  0  0  0  0  0  0  0  0
   12.2669  -19.2503   25.0858 O   0  0  0  0  0  0  0  0  0  0  0  0
  2  1  1  6
  3  2  1  0
  4  2  1  0
  4  5  1  6
  6 15  1  0
  6  4  1  0
  7  6  2  0
  9  8  1  0
 10  9  2  0
 11 10  1  0
 12 18  1  0
 12 11  2  0
 13 12  1  0
 14 15  1  0
 14 13  1  1
 16 14  1  0
 17 16  2  0
 18 19  2  0
 19  9  1  0
 20 21  1  0
 22 21  1  1
 22 24  1  0
 22 23  1  0
 23 16  1  0
 24 26  1  0
 25 24  2  0
M  END
$$$$
