VYS.pdb
     RDKit          3D

 26 26  0  0  1  0  0  0  0  0999 V2000
    6.2481  -21.2283   22.4776 C   0  0  0  0  0  0  0  0  0  0  0  0
    5.6157  -21.5985   23.8017 C   0  0  1  0  0  0  0  0  0  0  0  0
    5.6496  -23.0800   24.0203 C   0  0  0  0  0  0  0  0  0  0  0  0
    6.3199  -20.8392   24.9040 C   0  0  2  0  0  0  0  0  0  0  0  0
    5.7728  -21.1626   26.2064 N   0  0  0  0  0  0  0  0  0  0  0  0
    6.2469  -19.3572   24.6562 C   0  0  0  0  0  0  0  0  0  0  0  0
    5.2941  -18.6704   25.1014 O   0  0  0  0  0  0  0  0  0  0  0  0
    6.7618  -11.3441   26.7152 O   0  0  0  0  0  0  0  0  0  0  0  0
    6.9734  -12.6832   26.3794 C   0  0  0  0  0  0  0  0  0  0  0  0
    5.8858  -13.5236   26.2837 C   0  0  0  0  0  0  0  0  0  0  0  0
    6.0690  -14.8663   25.9497 C   0  0  0  0  0  0  0  0  0  0  0  0
    7.3087  -15.3926   25.7084 C   0  0  0  0  0  0  0  0  0  0  0  0
    7.4876  -16.7846   25.3526 C   0  0  0  0  0  0  0  0  0  0  0  0
    7.3594  -17.1876   23.9275 C   0  0  2  0  0  0  0  0  0  0  0  0
    7.2430  -18.6805   23.9157 N   0  0  0  0  0  0  0  0  0  0  0  0
    8.3984  -16.7759   22.9971 C   0  0  0  0  0  0  0  0  0  0  0  0
    9.5677  -17.2914   23.1205 O   0  0  0  0  0  0  0  0  0  0  0  0
    8.3879  -14.5316   25.8100 C   0  0  0  0  0  0  0  0  0  0  0  0
    8.2070  -13.2046   26.1403 C   0  0  0  0  0  0  0  0  0  0  0  0
    7.4526  -14.5723   19.9404 O   0  0  0  0  0  0  0  0  0  0  0  0
    8.8445  -14.5097   20.0049 C   0  0  0  0  0  0  0  0  0  0  0  0
    9.2886  -15.5621   20.9976 C   0  0  2  0  0  0  0  0  0  0  0  0
    8.2429  -15.8634   21.9582 N   0  0  0  0  0  0  0  0  0  0  0  0
   10.5049  -15.0964   21.6547 C   0  0  0  0  0  0  0  0  0  0  0  0
   10.5538  -14.9762   22.8996 O   0  0  0  0  0  0  0  0  0  0  0  0
   11.6667  -14.7635   20.9383 O   0  0  0  0  0  0  0  0  0  0  0  0
  2  1  1  6
  3  2  1  0
  4  2  1  0
  4  5  1  1
  6 15  1  0
  6  4  1  0
  7  6  2  0
  9  8  1  0
 10  9  2  0
 11 10  1  0
 12 18  1  0
 12 11  2  0
 13 12  1  0
 14 15  1  0
 14 13  1  1
 16 14  1  0
 17 16  2  0
 18 19  2  0
 19  9  1  0
 20 21  1  0
 22 21  1  6
 22 24  1  0
 22 23  1  0
 23 16  1  0
 24 26  1  0
 25 24  2  0
M  END
$$$$
