VYS.pdb
     RDKit          3D

 26 26  0  0  1  0  0  0  0  0999 V2000
    7.2058  -16.4292   19.3010 C   0  0  0  0  0  0  0  0  0  0  0  0
    7.5897  -15.2045   18.4992 C   0  0  1  0  0  0  0  0  0  0  0  0
    6.8841  -15.1816   17.1782 C   0  0  0  0  0  0  0  0  0  0  0  0
    7.2988  -13.9727   19.3271 C   0  0  2  0  0  0  0  0  0  0  0  0
    7.5908  -12.7574   18.5936 N   0  0  0  0  0  0  0  0  0  0  0  0
    8.0719  -14.0070   20.6171 C   0  0  0  0  0  0  0  0  0  0  0  0
    9.3011  -13.7500   20.6446 O   0  0  0  0  0  0  0  0  0  0  0  0
    8.8404  -13.9360   29.6025 O   0  0  0  0  0  0  0  0  0  0  0  0
    8.4312  -13.9545   28.2672 C   0  0  0  0  0  0  0  0  0  0  0  0
    8.4951  -12.7879   27.5369 C   0  0  0  0  0  0  0  0  0  0  0  0
    8.0925  -12.7786   26.2006 C   0  0  0  0  0  0  0  0  0  0  0  0
    7.6280  -13.9025   25.5736 C   0  0  0  0  0  0  0  0  0  0  0  0
    7.2223  -13.8851   24.1839 C   0  0  0  0  0  0  0  0  0  0  0  0
    8.1977  -14.2999   23.1418 C   0  0  2  0  0  0  0  0  0  0  0  0
    7.4495  -14.3283   21.8450 N   0  0  0  0  0  0  0  0  0  0  0  0
    8.9055  -15.5577   23.3198 C   0  0  0  0  0  0  0  0  0  0  0  0
    8.2570  -16.6526   23.1499 O   0  0  0  0  0  0  0  0  0  0  0  0
    7.5716  -15.0638   26.3250 C   0  0  0  0  0  0  0  0  0  0  0  0
    7.9694  -15.0731   27.6458 C   0  0  0  0  0  0  0  0  0  0  0  0
   12.9301  -15.8326   23.4469 O   0  0  0  0  0  0  0  0  0  0  0  0
   12.2449  -16.9803   23.0483 C   0  0  0  0  0  0  0  0  0  0  0  0
   10.9167  -16.9763   23.7738 C   0  0  2  0  0  0  0  0  0  0  0  0
   10.2490  -15.6929   23.6557 N   0  0  0  0  0  0  0  0  0  0  0  0
   11.1487  -17.3358   25.1685 C   0  0  0  0  0  0  0  0  0  0  0  0
   10.7994  -16.5686   26.0936 O   0  0  0  0  0  0  0  0  0  0  0  0
   11.7658  -18.5414   25.5419 O   0  0  0  0  0  0  0  0  0  0  0  0
  2  1  1  1
  3  2  1  0
  4  2  1  0
  4  5  1  6
  6 15  1  0
  6  4  1  0
  7  6  2  0
  9  8  1  0
 10  9  2  0
 11 10  1  0
 12 18  1  0
 12 11  2  0
 13 12  1  0
 14 15  1  0
 14 13  1  1
 16 14  1  0
 17 16  2  0
 18 19  2  0
 19  9  1  0
 20 21  1  0
 22 21  1  6
 22 24  1  0
 22 23  1  0
 23 16  1  0
 24 26  1  0
 25 24  2  0
M  END
$$$$
