VYS.pdb
     RDKit          3D

 26 26  0  0  1  0  0  0  0  0999 V2000
    8.4094  -19.4267   18.4567 C   0  0  0  0  0  0  0  0  0  0  0  0
    8.8490  -18.6873   19.7019 C   0  0  1  0  0  0  0  0  0  0  0  0
   10.1000  -19.2838   20.2700 C   0  0  0  0  0  0  0  0  0  0  0  0
    9.0137  -17.2226   19.3627 C   0  0  2  0  0  0  0  0  0  0  0  0
   10.0793  -17.0154   18.4027 N   0  0  0  0  0  0  0  0  0  0  0  0
    9.2631  -16.4158   20.6076 C   0  0  0  0  0  0  0  0  0  0  0  0
   10.4284  -16.1010   20.9550 O   0  0  0  0  0  0  0  0  0  0  0  0
    6.8119  -11.8290   27.9964 O   0  0  0  0  0  0  0  0  0  0  0  0
    6.8963  -12.5075   26.7785 C   0  0  0  0  0  0  0  0  0  0  0  0
    7.5196  -11.8899   25.7162 C   0  0  0  0  0  0  0  0  0  0  0  0
    7.6177  -12.5455   24.4880 C   0  0  0  0  0  0  0  0  0  0  0  0
    7.1108  -13.8010   24.2916 C   0  0  0  0  0  0  0  0  0  0  0  0
    7.2266  -14.4770   23.0166 C   0  0  0  0  0  0  0  0  0  0  0  0
    8.4465  -15.2772   22.7320 C   0  0  2  0  0  0  0  0  0  0  0  0
    8.2011  -15.9809   21.4332 N   0  0  0  0  0  0  0  0  0  0  0  0
    8.8890  -16.2400   23.7279 C   0  0  0  0  0  0  0  0  0  0  0  0
    8.2178  -17.3253   23.8684 O   0  0  0  0  0  0  0  0  0  0  0  0
    6.4885  -14.4037   25.3715 C   0  0  0  0  0  0  0  0  0  0  0  0
    6.3912  -13.7558   26.5854 C   0  0  0  0  0  0  0  0  0  0  0  0
   12.5982  -16.3467   25.0305 O   0  0  0  0  0  0  0  0  0  0  0  0
   11.8784  -17.5262   25.2203 C   0  0  0  0  0  0  0  0  0  0  0  0
   10.4408  -17.1297   25.4784 C   0  0  2  0  0  0  0  0  0  0  0  0
    9.9983  -16.0999   24.5561 N   0  0  0  0  0  0  0  0  0  0  0  0
   10.3208  -16.6968   26.8662 C   0  0  0  0  0  0  0  0  0  0  0  0
    9.8820  -15.5584   27.1457 O   0  0  0  0  0  0  0  0  0  0  0  0
   10.6848  -17.5197   27.9451 O   0  0  0  0  0  0  0  0  0  0  0  0
  2  1  1  6
  3  2  1  0
  4  2  1  0
  4  5  1  6
  6 15  1  0
  6  4  1  0
  7  6  2  0
  9  8  1  0
 10  9  2  0
 11 10  1  0
 12 18  1  0
 12 11  2  0
 13 12  1  0
 14 15  1  0
 14 13  1  1
 16 14  1  0
 17 16  2  0
 18 19  2  0
 19  9  1  0
 20 21  1  0
 22 21  1  6
 22 24  1  0
 22 23  1  0
 23 16  1  0
 24 26  1  0
 25 24  2  0
M  END
$$$$
