VYS.pdb
     RDKit          3D

 26 26  0  0  1  0  0  0  0  0999 V2000
    8.6010  -19.6832   20.6261 C   0  0  0  0  0  0  0  0  0  0  0  0
    9.3839  -19.1261   19.4571 C   0  0  1  0  0  0  0  0  0  0  0  0
    9.1480  -19.9320   18.2167 C   0  0  0  0  0  0  0  0  0  0  0  0
    9.0138  -17.6709   19.2755 C   0  0  2  0  0  0  0  0  0  0  0  0
    9.7117  -17.0806   18.1510 N   0  0  0  0  0  0  0  0  0  0  0  0
    9.2904  -16.8933   20.5332 C   0  0  0  0  0  0  0  0  0  0  0  0
   10.4654  -16.7067   20.9362 O   0  0  0  0  0  0  0  0  0  0  0  0
    7.0713  -11.7540   27.6209 O   0  0  0  0  0  0  0  0  0  0  0  0
    7.1162  -12.5074   26.4457 C   0  0  0  0  0  0  0  0  0  0  0  0
    7.8578  -12.0377   25.3838 C   0  0  0  0  0  0  0  0  0  0  0  0
    7.9197  -12.7709   24.1978 C   0  0  0  0  0  0  0  0  0  0  0  0
    7.2615  -13.9603   24.0433 C   0  0  0  0  0  0  0  0  0  0  0  0
    7.3401  -14.7186   22.8125 C   0  0  0  0  0  0  0  0  0  0  0  0
    8.5097  -15.6075   22.5858 C   0  0  2  0  0  0  0  0  0  0  0  0
    8.2443  -16.3436   21.3090 N   0  0  0  0  0  0  0  0  0  0  0  0
    8.8672  -16.5579   23.6268 C   0  0  0  0  0  0  0  0  0  0  0  0
    8.0980  -17.5670   23.8226 O   0  0  0  0  0  0  0  0  0  0  0  0
    6.5220  -14.4143   25.1220 C   0  0  0  0  0  0  0  0  0  0  0  0
    6.4606  -13.6897   26.2942 C   0  0  0  0  0  0  0  0  0  0  0  0
   12.5754  -17.2757   24.8049 O   0  0  0  0  0  0  0  0  0  0  0  0
   11.5939  -18.2373   25.0448 C   0  0  0  0  0  0  0  0  0  0  0  0
   10.3319  -17.4945   25.4271 C   0  0  2  0  0  0  0  0  0  0  0  0
    9.9908  -16.4825   24.4440 N   0  0  0  0  0  0  0  0  0  0  0  0
   10.5178  -16.9156   26.7531 C   0  0  0  0  0  0  0  0  0  0  0  0
   10.8113  -17.6388   27.7316 O   0  0  0  0  0  0  0  0  0  0  0  0
   10.3800  -15.5393   26.9991 O   0  0  0  0  0  0  0  0  0  0  0  0
  2  1  1  1
  3  2  1  0
  4  2  1  0
  4  5  1  6
  6 15  1  0
  6  4  1  0
  7  6  2  0
  9  8  1  0
 10  9  2  0
 11 10  1  0
 12 18  1  0
 12 11  2  0
 13 12  1  0
 14 15  1  0
 14 13  1  1
 16 14  1  0
 17 16  2  0
 18 19  2  0
 19  9  1  0
 20 21  1  0
 22 21  1  6
 22 24  1  0
 22 23  1  0
 23 16  1  0
 24 26  1  0
 25 24  2  0
M  END
$$$$
