VYS.pdb
     RDKit          3D

 26 26  0  0  1  0  0  0  0  0999 V2000
    6.2692  -23.0276   22.4875 C   0  0  0  0  0  0  0  0  0  0  0  0
    7.0021  -21.7480   22.8280 C   0  0  1  0  0  0  0  0  0  0  0  0
    8.4818  -21.9144   22.6659 C   0  0  0  0  0  0  0  0  0  0  0  0
    6.4521  -20.6315   21.9688 C   0  0  2  0  0  0  0  0  0  0  0  0
    6.6492  -20.8992   20.5582 N   0  0  0  0  0  0  0  0  0  0  0  0
    7.0764  -19.3160   22.3467 C   0  0  0  0  0  0  0  0  0  0  0  0
    8.0786  -18.8726   21.7329 O   0  0  0  0  0  0  0  0  0  0  0  0
    7.6248  -11.4169   26.6766 O   0  0  0  0  0  0  0  0  0  0  0  0
    7.2874  -12.6279   26.0681 C   0  0  0  0  0  0  0  0  0  0  0  0
    6.5559  -13.5499   26.7844 C   0  0  0  0  0  0  0  0  0  0  0  0
    6.2053  -14.7680   26.2001 C   0  0  0  0  0  0  0  0  0  0  0  0
    6.5649  -15.0903   24.9200 C   0  0  0  0  0  0  0  0  0  0  0  0
    6.1876  -16.3524   24.3192 C   0  0  0  0  0  0  0  0  0  0  0  0
    7.2540  -17.2857   23.8706 C   0  0  2  0  0  0  0  0  0  0  0  0
    6.5630  -18.5292   23.4029 N   0  0  0  0  0  0  0  0  0  0  0  0
    8.3030  -17.6404   24.8131 C   0  0  0  0  0  0  0  0  0  0  0  0
    7.9969  -18.3784   25.8180 O   0  0  0  0  0  0  0  0  0  0  0  0
    7.2996  -14.1504   24.2178 C   0  0  0  0  0  0  0  0  0  0  0  0
    7.6464  -12.9465   24.7951 C   0  0  0  0  0  0  0  0  0  0  0  0
   12.1842  -16.6306   24.2200 O   0  0  0  0  0  0  0  0  0  0  0  0
   12.0109  -17.8523   24.8703 C   0  0  0  0  0  0  0  0  0  0  0  0
   10.6789  -17.7868   25.5859 C   0  0  2  0  0  0  0  0  0  0  0  0
    9.6374  -17.2559   24.7255 N   0  0  0  0  0  0  0  0  0  0  0  0
   10.8400  -16.9846   26.7937 C   0  0  0  0  0  0  0  0  0  0  0  0
   10.1831  -15.9315   26.9546 O   0  0  0  0  0  0  0  0  0  0  0  0
   11.7255  -17.3445   27.8232 O   0  0  0  0  0  0  0  0  0  0  0  0
  2  1  1  6
  3  2  1  0
  4  2  1  0
  4  5  1  6
  6 15  1  0
  6  4  1  0
  7  6  2  0
  9  8  1  0
 10  9  2  0
 11 10  1  0
 12 18  1  0
 12 11  2  0
 13 12  1  0
 14 15  1  0
 14 13  1  1
 16 14  1  0
 17 16  2  0
 18 19  2  0
 19  9  1  0
 20 21  1  0
 22 21  1  6
 22 24  1  0
 22 23  1  0
 23 16  1  0
 24 26  1  0
 25 24  2  0
M  END
$$$$
