VYS.pdb
     RDKit          3D

 26 26  0  0  1  0  0  0  0  0999 V2000
    5.3590  -21.0173   22.0361 C   0  0  0  0  0  0  0  0  0  0  0  0
    6.5701  -20.1824   22.3915 C   0  0  1  0  0  0  0  0  0  0  0  0
    7.7751  -21.0451   22.6091 C   0  0  0  0  0  0  0  0  0  0  0  0
    6.7877  -19.1561   21.3021 C   0  0  2  0  0  0  0  0  0  0  0  0
    7.0294  -19.7851   20.0191 N   0  0  0  0  0  0  0  0  0  0  0  0
    7.9237  -18.2371   21.6597 C   0  0  0  0  0  0  0  0  0  0  0  0
    9.0885  -18.4512   21.2414 O   0  0  0  0  0  0  0  0  0  0  0  0
    7.1595  -12.3913   17.9017 O   0  0  0  0  0  0  0  0  0  0  0  0
    7.4799  -12.9787   19.1277 C   0  0  0  0  0  0  0  0  0  0  0  0
    6.4967  -13.6536   19.8177 C   0  0  0  0  0  0  0  0  0  0  0  0
    6.7900  -14.2499   21.0451 C   0  0  0  0  0  0  0  0  0  0  0  0
    8.0384  -14.1909   21.6020 C   0  0  0  0  0  0  0  0  0  0  0  0
    8.3354  -14.8215   22.8709 C   0  0  0  0  0  0  0  0  0  0  0  0
    8.8626  -16.2113   22.8805 C   0  0  2  0  0  0  0  0  0  0  0  0
    7.7273  -17.1005   22.4771 N   0  0  0  0  0  0  0  0  0  0  0  0
    9.4597  -16.7151   24.1070 C   0  0  0  0  0  0  0  0  0  0  0  0
    8.6809  -17.0802   25.0601 O   0  0  0  0  0  0  0  0  0  0  0  0
    9.0116  -13.5081   20.8927 C   0  0  0  0  0  0  0  0  0  0  0  0
    8.7218  -12.9186   19.6797 C   0  0  0  0  0  0  0  0  0  0  0  0
   12.3870  -19.8630   25.6555 O   0  0  0  0  0  0  0  0  0  0  0  0
   11.8760  -19.0442   24.6485 C   0  0  0  0  0  0  0  0  0  0  0  0
   11.3721  -17.7836   25.3173 C   0  0  2  0  0  0  0  0  0  0  0  0
   10.8230  -16.8505   24.3505 N   0  0  0  0  0  0  0  0  0  0  0  0
   12.4685  -17.1902   26.0750 C   0  0  0  0  0  0  0  0  0  0  0  0
   12.9456  -16.0804   25.7475 O   0  0  0  0  0  0  0  0  0  0  0  0
   13.0379  -17.8213   27.1936 O   0  0  0  0  0  0  0  0  0  0  0  0
  2  1  1  6
  3  2  1  0
  4  2  1  0
  4  5  1  6
  6 15  1  0
  6  4  1  0
  7  6  2  0
  9  8  1  0
 10  9  2  0
 11 10  1  0
 12 18  1  0
 12 11  2  0
 13 12  1  0
 14 15  1  0
 14 13  1  1
 16 14  1  0
 17 16  2  0
 18 19  2  0
 19  9  1  0
 20 21  1  0
 22 21  1  6
 22 24  1  0
 22 23  1  0
 23 16  1  0
 24 26  1  0
 25 24  2  0
M  END
$$$$
