VYS.pdb
     RDKit          3D

 26 26  0  0  1  0  0  0  0  0999 V2000
    8.4080  -19.4541   20.6696 C   0  0  0  0  0  0  0  0  0  0  0  0
    9.1370  -18.9582   19.4396 C   0  0  1  0  0  0  0  0  0  0  0  0
    8.8590  -19.8351   18.2575 C   0  0  0  0  0  0  0  0  0  0  0  0
    8.7449  -17.5186   19.1916 C   0  0  2  0  0  0  0  0  0  0  0  0
    9.4095  -16.9801   18.0218 N   0  0  0  0  0  0  0  0  0  0  0  0
    9.0409  -16.6735   20.4003 C   0  0  0  0  0  0  0  0  0  0  0  0
   10.2120  -16.3026   20.6625 O   0  0  0  0  0  0  0  0  0  0  0  0
    6.7967  -11.9518   27.7728 O   0  0  0  0  0  0  0  0  0  0  0  0
    6.8523  -12.6539   26.5667 C   0  0  0  0  0  0  0  0  0  0  0  0
    7.4469  -12.0560   25.4771 C   0  0  0  0  0  0  0  0  0  0  0  0
    7.5159  -12.7354   24.2599 C   0  0  0  0  0  0  0  0  0  0  0  0
    7.0078  -13.9958   24.1012 C   0  0  0  0  0  0  0  0  0  0  0  0
    7.0933  -14.6965   22.8371 C   0  0  0  0  0  0  0  0  0  0  0  0
    8.3146  -15.4867   22.5311 C   0  0  2  0  0  0  0  0  0  0  0  0
    8.0180  -16.2644   21.2862 N   0  0  0  0  0  0  0  0  0  0  0  0
    8.8297  -16.3853   23.5518 C   0  0  0  0  0  0  0  0  0  0  0  0
    8.1522  -17.4379   23.8369 O   0  0  0  0  0  0  0  0  0  0  0  0
    6.4145  -14.5784   25.2080 C   0  0  0  0  0  0  0  0  0  0  0  0
    6.3460  -13.9070   26.4110 C   0  0  0  0  0  0  0  0  0  0  0  0
   12.6435  -16.2942   24.7416 O   0  0  0  0  0  0  0  0  0  0  0  0
   11.9887  -17.5131   24.9182 C   0  0  0  0  0  0  0  0  0  0  0  0
   10.5346  -17.1974   25.1942 C   0  0  2  0  0  0  0  0  0  0  0  0
   10.0157  -16.2157   24.2593 N   0  0  0  0  0  0  0  0  0  0  0  0
   10.4123  -16.7428   26.5749 C   0  0  0  0  0  0  0  0  0  0  0  0
    9.9278  -15.6191   26.8380 O   0  0  0  0  0  0  0  0  0  0  0  0
   10.8246  -17.5277   27.6647 O   0  0  0  0  0  0  0  0  0  0  0  0
  2  1  1  1
  3  2  1  0
  4  2  1  0
  4  5  1  6
  6 15  1  0
  6  4  1  0
  7  6  2  0
  9  8  1  0
 10  9  2  0
 11 10  1  0
 12 18  1  0
 12 11  2  0
 13 12  1  0
 14 15  1  0
 14 13  1  1
 16 14  1  0
 17 16  2  0
 18 19  2  0
 19  9  1  0
 20 21  1  0
 22 21  1  6
 22 24  1  0
 22 23  1  0
 23 16  1  0
 24 26  1  0
 25 24  2  0
M  END
$$$$
