VYS.pdb
     RDKit          3D

 26 26  0  0  1  0  0  0  0  0999 V2000
   -5.4888  -28.1204   21.8230 C   0  0  0  0  0  0  0  0  0  0  0  0
   -4.6416  -27.5407   20.7111 C   0  0  1  0  0  0  0  0  0  0  0  0
   -4.9201  -28.2248   19.4080 C   0  0  0  0  0  0  0  0  0  0  0  0
   -4.8879  -26.0500   20.6413 C   0  0  2  0  0  0  0  0  0  0  0  0
   -4.1176  -25.4326   19.5804 N   0  0  0  0  0  0  0  0  0  0  0  0
   -4.5792  -25.4000   21.9623 C   0  0  0  0  0  0  0  0  0  0  0  0
   -3.4012  -25.1001   22.2790 O   0  0  0  0  0  0  0  0  0  0  0  0
   -5.4021  -20.0451   28.9575 O   0  0  0  0  0  0  0  0  0  0  0  0
   -5.5470  -20.8250   27.8079 C   0  0  0  0  0  0  0  0  0  0  0  0
   -4.6214  -20.6942   26.7958 C   0  0  0  0  0  0  0  0  0  0  0  0
   -4.7426  -21.4615   25.6363 C   0  0  0  0  0  0  0  0  0  0  0  0
   -5.7627  -22.3560   25.4600 C   0  0  0  0  0  0  0  0  0  0  0  0
   -5.8742  -23.1549   24.2578 C   0  0  0  0  0  0  0  0  0  0  0  0
   -5.2899  -24.5217   24.2425 C   0  0  2  0  0  0  0  0  0  0  0  0
   -5.5973  -25.1015   22.8965 N   0  0  0  0  0  0  0  0  0  0  0  0
   -5.6971  -25.4586   25.2774 C   0  0  0  0  0  0  0  0  0  0  0  0
   -6.8398  -26.0331   25.1655 O   0  0  0  0  0  0  0  0  0  0  0  0
   -6.6820  -22.4720   26.4886 C   0  0  0  0  0  0  0  0  0  0  0  0
   -6.5624  -21.7136   27.6346 C   0  0  0  0  0  0  0  0  0  0  0  0
   -3.2964  -27.7062   27.5334 O   0  0  0  0  0  0  0  0  0  0  0  0
   -4.2960  -27.1574   28.3366 C   0  0  0  0  0  0  0  0  0  0  0  0
   -5.4178  -26.7294   27.4153 C   0  0  2  0  0  0  0  0  0  0  0  0
   -4.9488  -25.8067   26.3976 N   0  0  0  0  0  0  0  0  0  0  0  0
   -6.4832  -26.1445   28.2221 C   0  0  0  0  0  0  0  0  0  0  0  0
   -6.8692  -24.9714   28.0187 O   0  0  0  0  0  0  0  0  0  0  0  0
   -7.1223  -26.8539   29.2526 O   0  0  0  0  0  0  0  0  0  0  0  0
  2  1  1  1
  3  2  1  0
  4  2  1  0
  4  5  1  6
  6 15  1  0
  6  4  1  0
  7  6  2  0
  9  8  1  0
 10  9  2  0
 11 10  1  0
 12 18  1  0
 12 11  2  0
 13 12  1  0
 14 15  1  0
 14 13  1  1
 16 14  1  0
 17 16  2  0
 18 19  2  0
 19  9  1  0
 20 21  1  0
 22 21  1  1
 22 24  1  0
 22 23  1  0
 23 16  1  0
 24 26  1  0
 25 24  2  0
M  END
$$$$
