MCR.pdb
     RDKit          3D

 26 25  0  0  1  0  0  0  0  0999 V2000
    7.6231  -11.6151   19.9934 C   0  0  0  0  0  0  0  0  0  0  0  0
    6.9065  -12.6606   18.6916 S   0  0  0  0  0  0  0  0  0  0  0  0
    7.8281  -14.2468   18.5779 C   0  0  0  0  0  0  0  0  0  0  0  0
    9.0230  -14.2319   19.4657 C   0  0  0  0  0  0  0  0  0  0  0  0
    9.8277  -15.4845   19.5162 C   0  0  2  0  0  0  0  0  0  0  0  0
    8.8624  -16.5786   19.7186 N   0  0  0  0  0  0  0  0  0  0  0  0
   10.8005  -15.4963   20.6683 C   0  0  0  0  0  0  0  0  0  0  0  0
   11.7754  -14.7047   20.6880 O   0  0  0  0  0  0  0  0  0  0  0  0
   10.6261  -16.3952   21.7394 N   0  0  0  0  0  0  0  0  0  0  0  0
   11.5413  -16.4842   22.8355 C   0  0  1  0  0  0  0  0  0  0  0  0
   11.0455  -17.2902   23.9831 C   0  0  0  0  0  0  0  0  0  0  0  0
   12.2819  -17.5997   25.2584 S   0  0  0  0  0  0  0  0  0  0  0  0
   12.9534  -16.7124   22.4598 C   0  0  0  0  0  0  0  0  0  0  0  0
   13.2928  -17.7852   21.9380 O   0  0  0  0  0  0  0  0  0  0  0  0
   18.0348  -14.2353   17.7907 N   0  0  0  0  0  0  0  0  0  0  0  0
   16.8050  -13.8075   17.1971 C   0  0  0  0  0  0  0  0  0  0  0  0
   16.6809  -13.8454   15.9126 N   0  0  0  0  0  0  0  0  0  0  0  0
   15.7099  -13.3404   17.9456 N   0  0  0  0  0  0  0  0  0  0  0  0
   15.7448  -13.2223   19.4120 C   0  0  0  0  0  0  0  0  0  0  0  0
   15.6363  -14.5440   20.0609 C   0  0  0  0  0  0  0  0  0  0  0  0
   15.6423  -14.6578   21.5166 C   0  0  0  0  0  0  0  0  0  0  0  0
   15.3570  -15.8978   22.2721 C   0  0  2  0  0  0  0  0  0  0  0  0
   13.9075  -15.7148   22.6940 N   0  0  0  0  0  0  0  0  0  0  0  0
   16.0906  -16.2199   23.4801 C   0  0  0  0  0  0  0  0  0  0  0  0
   17.3115  -16.8505   23.5383 O   0  0  0  0  0  0  0  0  0  0  0  0
   15.6042  -15.9225   24.6442 O   0  0  0  0  0  0  0  0  0  0  0  0
  2  1  1  0
  3  2  1  0
  3  4  1  0
  4  5  1  0
  5  6  1  1
  7  5  1  0
  7  8  2  0
  9  7  1  0
 10  9  1  0
 10 11  1  1
 12 11  1  0
 13 10  1  0
 14 13  2  0
 16 17  2  0
 16 15  1  0
 18 16  1  0
 19 18  1  0
 20 19  1  0
 21 20  1  0
 22 21  1  1
 22 23  1  0
 23 13  1  0
 24 22  1  0
 24 25  1  0
 26 24  2  0
M  END
$$$$
