MCR.pdb
     RDKit          3D

 26 25  0  0  1  0  0  0  0  0999 V2000
    6.5144  -11.4610   27.0520 C   0  0  0  0  0  0  0  0  0  0  0  0
    6.7500  -12.7580   28.3025 S   0  0  0  0  0  0  0  0  0  0  0  0
    7.2386  -14.3339   27.4923 C   0  0  0  0  0  0  0  0  0  0  0  0
    6.5906  -14.4690   26.1588 C   0  0  0  0  0  0  0  0  0  0  0  0
    6.9218  -15.6958   25.3815 C   0  0  2  0  0  0  0  0  0  0  0  0
    6.5305  -16.8328   26.2324 N   0  0  0  0  0  0  0  0  0  0  0  0
    8.3970  -15.8113   25.0914 C   0  0  0  0  0  0  0  0  0  0  0  0
    8.9504  -15.0293   24.2792 O   0  0  0  0  0  0  0  0  0  0  0  0
    9.1742  -16.7978   25.7305 N   0  0  0  0  0  0  0  0  0  0  0  0
   10.5469  -17.0364   25.4055 C   0  0  1  0  0  0  0  0  0  0  0  0
   11.2982  -17.7953   26.4408 C   0  0  0  0  0  0  0  0  0  0  0  0
   11.0438  -19.5794   26.3801 S   0  0  0  0  0  0  0  0  0  0  0  0
   10.8010  -17.4446   24.0069 C   0  0  0  0  0  0  0  0  0  0  0  0
   10.1716  -18.3912   23.5109 O   0  0  0  0  0  0  0  0  0  0  0  0
    7.3324  -13.0243   18.2328 N   0  0  0  0  0  0  0  0  0  0  0  0
    8.3172  -13.7397   17.4803 C   0  0  0  0  0  0  0  0  0  0  0  0
    8.2717  -13.7024   16.1906 N   0  0  0  0  0  0  0  0  0  0  0  0
    9.3449  -14.4923   18.0761 N   0  0  0  0  0  0  0  0  0  0  0  0
    9.5285  -14.5683   19.5342 C   0  0  0  0  0  0  0  0  0  0  0  0
   10.7012  -15.3932   19.8864 C   0  0  0  0  0  0  0  0  0  0  0  0
   10.9775  -15.7321   21.2796 C   0  0  0  0  0  0  0  0  0  0  0  0
   11.7863  -16.8875   21.7277 C   0  0  2  0  0  0  0  0  0  0  0  0
   11.7538  -16.7601   23.2427 N   0  0  0  0  0  0  0  0  0  0  0  0
   13.1843  -17.0047   21.3630 C   0  0  0  0  0  0  0  0  0  0  0  0
   14.2558  -16.8124   22.2034 O   0  0  0  0  0  0  0  0  0  0  0  0
   13.5244  -17.3064   20.1492 O   0  0  0  0  0  0  0  0  0  0  0  0
  2  1  1  0
  3  2  1  0
  3  4  1  0
  4  5  1  0
  5  6  1  1
  7  5  1  0
  7  8  2  0
  9  7  1  0
 10  9  1  0
 10 11  1  1
 12 11  1  0
 13 10  1  0
 14 13  2  0
 16 17  2  0
 16 15  1  0
 18 16  1  0
 19 18  1  0
 20 19  1  0
 21 20  1  0
 22 21  1  6
 22 23  1  0
 23 13  1  0
 24 22  1  0
 24 25  1  0
 26 24  2  0
M  END
$$$$
