MCR.pdb
     RDKit          3D

 26 25  0  0  1  0  0  0  0  0999 V2000
    4.8938  -11.6838   26.5493 C   0  0  0  0  0  0  0  0  0  0  0  0
    6.6833  -11.8264   26.8300 S   0  0  0  0  0  0  0  0  0  0  0  0
    7.0906  -13.5029   27.4641 C   0  0  0  0  0  0  0  0  0  0  0  0
    7.1315  -14.4951   26.3550 C   0  0  0  0  0  0  0  0  0  0  0  0
    8.2694  -14.3771   25.4009 C   0  0  2  0  0  0  0  0  0  0  0  0
    8.1189  -13.0639   24.7509 N   0  0  0  0  0  0  0  0  0  0  0  0
    8.2340  -15.4386   24.3305 C   0  0  0  0  0  0  0  0  0  0  0  0
    8.0680  -16.6458   24.6347 O   0  0  0  0  0  0  0  0  0  0  0  0
    8.3848  -15.0884   22.9739 N   0  0  0  0  0  0  0  0  0  0  0  0
    8.8324  -16.0130   21.9782 C   0  0  1  0  0  0  0  0  0  0  0  0
    8.7350  -15.5054   20.5835 C   0  0  0  0  0  0  0  0  0  0  0  0
    7.3279  -14.4171   20.2891 S   0  0  0  0  0  0  0  0  0  0  0  0
   10.0792  -16.7375   22.3067 C   0  0  0  0  0  0  0  0  0  0  0  0
   10.9848  -16.1655   22.9320 O   0  0  0  0  0  0  0  0  0  0  0  0
    6.7260  -21.2638   26.7462 N   0  0  0  0  0  0  0  0  0  0  0  0
    7.7493  -20.5047   27.3979 C   0  0  0  0  0  0  0  0  0  0  0  0
    7.4275  -19.7273   28.3770 N   0  0  0  0  0  0  0  0  0  0  0  0
    9.1040  -20.5584   27.0245 N   0  0  0  0  0  0  0  0  0  0  0  0
    9.8465  -19.3747   26.5629 C   0  0  0  0  0  0  0  0  0  0  0  0
   10.5810  -19.6542   25.3130 C   0  0  0  0  0  0  0  0  0  0  0  0
   10.1910  -19.0070   24.0636 C   0  0  0  0  0  0  0  0  0  0  0  0
   10.9542  -19.0761   22.7977 C   0  0  2  0  0  0  0  0  0  0  0  0
   10.2360  -18.0712   21.9106 N   0  0  0  0  0  0  0  0  0  0  0  0
   11.0246  -20.3076   22.0363 C   0  0  0  0  0  0  0  0  0  0  0  0
   12.1763  -20.9575   21.6586 O   0  0  0  0  0  0  0  0  0  0  0  0
    9.9415  -20.8965   21.6363 O   0  0  0  0  0  0  0  0  0  0  0  0
  2  1  1  0
  3  2  1  0
  3  4  1  0
  4  5  1  0
  5  6  1  6
  7  5  1  0
  7  8  2  0
  9  7  1  0
 10  9  1  0
 10 11  1  6
 12 11  1  0
 13 10  1  0
 14 13  2  0
 16 17  2  0
 16 15  1  0
 18 16  1  0
 19 18  1  0
 20 19  1  0
 21 20  1  0
 22 21  1  1
 22 23  1  0
 23 13  1  0
 24 22  1  0
 24 25  1  0
 26 24  2  0
M  END
$$$$
