MCR.pdb
     RDKit          3D

 26 25  0  0  1  0  0  0  0  0999 V2000
    5.8044  -18.2164   21.2818 C   0  0  0  0  0  0  0  0  0  0  0  0
    5.7954  -17.3746   19.6717 S   0  0  0  0  0  0  0  0  0  0  0  0
    6.3657  -15.6379   19.8648 C   0  0  0  0  0  0  0  0  0  0  0  0
    6.9609  -15.4208   21.2120 C   0  0  0  0  0  0  0  0  0  0  0  0
    7.2912  -14.0137   21.5725 C   0  0  2  0  0  0  0  0  0  0  0  0
    8.1723  -13.5171   20.5016 N   0  0  0  0  0  0  0  0  0  0  0  0
    8.0374  -13.9155   22.8791 C   0  0  0  0  0  0  0  0  0  0  0  0
    9.2585  -14.2028   22.9394 O   0  0  0  0  0  0  0  0  0  0  0  0
    7.3733  -13.4973   24.0496 N   0  0  0  0  0  0  0  0  0  0  0  0
    7.8839  -13.7452   25.3628 C   0  0  1  0  0  0  0  0  0  0  0  0
    7.5120  -12.7146   26.3688 C   0  0  0  0  0  0  0  0  0  0  0  0
    5.7495  -12.3387   26.4257 S   0  0  0  0  0  0  0  0  0  0  0  0
    7.7864  -15.1477   25.8220 C   0  0  0  0  0  0  0  0  0  0  0  0
    6.7511  -15.7991   25.6166 O   0  0  0  0  0  0  0  0  0  0  0  0
   10.0090  -17.1371   20.9285 N   0  0  0  0  0  0  0  0  0  0  0  0
   11.2302  -17.6124   21.5035 C   0  0  0  0  0  0  0  0  0  0  0  0
   12.3470  -17.3506   20.9114 N   0  0  0  0  0  0  0  0  0  0  0  0
   11.2813  -18.3603   22.6934 N   0  0  0  0  0  0  0  0  0  0  0  0
   10.0847  -18.6504   23.4993 C   0  0  0  0  0  0  0  0  0  0  0  0
   10.0430  -17.8192   24.7188 C   0  0  0  0  0  0  0  0  0  0  0  0
    8.9297  -17.9344   25.6565 C   0  0  0  0  0  0  0  0  0  0  0  0
    8.8147  -17.1936   26.9324 C   0  0  2  0  0  0  0  0  0  0  0  0
    8.8656  -15.7398   26.4891 N   0  0  0  0  0  0  0  0  0  0  0  0
    9.8182  -17.3342   27.9689 C   0  0  0  0  0  0  0  0  0  0  0  0
   10.0157  -18.4454   28.7549 O   0  0  0  0  0  0  0  0  0  0  0  0
   10.6290  -16.3589   28.2361 O   0  0  0  0  0  0  0  0  0  0  0  0
  2  1  1  0
  3  2  1  0
  3  4  1  0
  4  5  1  0
  5  6  1  6
  7  5  1  0
  7  8  2  0
  9  7  1  0
 10  9  1  0
 10 11  1  1
 12 11  1  0
 13 10  1  0
 14 13  2  0
 16 17  2  0
 16 15  1  0
 18 16  1  0
 19 18  1  0
 20 19  1  0
 21 20  1  0
 22 21  1  6
 22 23  1  0
 23 13  1  0
 24 22  1  0
 24 25  1  0
 26 24  2  0
M  END
$$$$
