MCR.pdb
     RDKit          3D

 26 25  0  0  1  0  0  0  0  0999 V2000
    7.2286  -11.9518   20.4066 C   0  0  0  0  0  0  0  0  0  0  0  0
    7.1907  -12.7653   18.7824 S   0  0  0  0  0  0  0  0  0  0  0  0
    7.7604  -14.5062   18.9356 C   0  0  0  0  0  0  0  0  0  0  0  0
    8.3051  -14.7693   20.2958 C   0  0  0  0  0  0  0  0  0  0  0  0
    8.8491  -16.1343   20.5401 C   0  0  2  0  0  0  0  0  0  0  0  0
    8.3737  -16.9663   19.4214 N   0  0  0  0  0  0  0  0  0  0  0  0
    8.3366  -16.7356   21.8245 C   0  0  0  0  0  0  0  0  0  0  0  0
    8.4430  -16.1103   22.9084 O   0  0  0  0  0  0  0  0  0  0  0  0
    7.7293  -18.0072   21.8238 N   0  0  0  0  0  0  0  0  0  0  0  0
    7.2031  -18.6172   23.0060 C   0  0  1  0  0  0  0  0  0  0  0  0
    6.4587  -19.8818   22.7631 C   0  0  0  0  0  0  0  0  0  0  0  0
    6.2423  -20.9063   24.2309 S   0  0  0  0  0  0  0  0  0  0  0  0
    8.1174  -18.6297   24.1685 C   0  0  0  0  0  0  0  0  0  0  0  0
    9.2587  -19.1023   24.0572 O   0  0  0  0  0  0  0  0  0  0  0  0
    8.4159  -11.3827   26.7796 N   0  0  0  0  0  0  0  0  0  0  0  0
    7.4070  -12.3950   26.7069 C   0  0  0  0  0  0  0  0  0  0  0  0
    6.2387  -12.0860   26.2527 N   0  0  0  0  0  0  0  0  0  0  0  0
    7.6204  -13.7253   27.1097 N   0  0  0  0  0  0  0  0  0  0  0  0
    8.7448  -14.1216   27.9724 C   0  0  0  0  0  0  0  0  0  0  0  0
    9.1554  -15.5161   27.7142 C   0  0  0  0  0  0  0  0  0  0  0  0
    8.3951  -16.3537   26.7910 C   0  0  0  0  0  0  0  0  0  0  0  0
    8.6880  -17.7740   26.4962 C   0  0  2  0  0  0  0  0  0  0  0  0
    7.6925  -18.1066   25.3957 N   0  0  0  0  0  0  0  0  0  0  0  0
    8.5226  -18.7953   27.5114 C   0  0  0  0  0  0  0  0  0  0  0  0
    9.4192  -19.0911   28.5114 O   0  0  0  0  0  0  0  0  0  0  0  0
    7.4609  -19.5387   27.5298 O   0  0  0  0  0  0  0  0  0  0  0  0
  2  1  1  0
  3  2  1  0
  3  4  1  0
  4  5  1  0
  5  6  1  6
  7  5  1  0
  7  8  2  0
  9  7  1  0
 10  9  1  0
 10 11  1  6
 12 11  1  0
 13 10  1  0
 14 13  2  0
 16 17  2  0
 16 15  1  0
 18 16  1  0
 19 18  1  0
 20 19  1  0
 21 20  1  0
 22 21  1  1
 22 23  1  0
 23 13  1  0
 24 22  1  0
 24 25  1  0
 26 24  2  0
M  END
$$$$
