MCR.pdb
     RDKit          3D

 26 25  0  0  1  0  0  0  0  0999 V2000
    8.9403  -11.8734   20.0061 C   0  0  0  0  0  0  0  0  0  0  0  0
    7.4322  -12.8852   19.9478 S   0  0  0  0  0  0  0  0  0  0  0  0
    7.8523  -14.6182   19.5018 C   0  0  0  0  0  0  0  0  0  0  0  0
    8.7735  -15.2170   20.5064 C   0  0  0  0  0  0  0  0  0  0  0  0
    8.1390  -15.8239   21.7098 C   0  0  2  0  0  0  0  0  0  0  0  0
    6.6883  -15.8077   21.4548 N   0  0  0  0  0  0  0  0  0  0  0  0
    8.4054  -15.0282   22.9627 C   0  0  0  0  0  0  0  0  0  0  0  0
    9.5820  -14.8326   23.3559 O   0  0  0  0  0  0  0  0  0  0  0  0
    7.3360  -14.4917   23.7073 N   0  0  0  0  0  0  0  0  0  0  0  0
    7.5142  -13.8622   24.9795 C   0  0  1  0  0  0  0  0  0  0  0  0
    6.5655  -12.7490   25.2501 C   0  0  0  0  0  0  0  0  0  0  0  0
    6.3853  -12.3389   26.9966 S   0  0  0  0  0  0  0  0  0  0  0  0
    7.7528  -14.7848   26.1106 C   0  0  0  0  0  0  0  0  0  0  0  0
    6.9198  -15.6620   26.3843 O   0  0  0  0  0  0  0  0  0  0  0  0
   13.5547  -20.2825   26.2986 N   0  0  0  0  0  0  0  0  0  0  0  0
   13.5248  -19.1849   25.3809 C   0  0  0  0  0  0  0  0  0  0  0  0
   14.2132  -19.2583   24.2912 N   0  0  0  0  0  0  0  0  0  0  0  0
   12.7782  -18.0143   25.6042 N   0  0  0  0  0  0  0  0  0  0  0  0
   11.8054  -17.8920   26.7017 C   0  0  0  0  0  0  0  0  0  0  0  0
   10.6161  -17.1237   26.2832 C   0  0  0  0  0  0  0  0  0  0  0  0
    9.5049  -16.9162   27.2074 C   0  0  0  0  0  0  0  0  0  0  0  0
    9.2529  -15.6706   27.9656 C   0  0  2  0  0  0  0  0  0  0  0  0
    8.9215  -14.6666   26.8726 N   0  0  0  0  0  0  0  0  0  0  0  0
   10.2957  -15.0628   28.7682 C   0  0  0  0  0  0  0  0  0  0  0  0
   10.7798  -15.5457   29.9616 O   0  0  0  0  0  0  0  0  0  0  0  0
   10.8585  -13.9585   28.3888 O   0  0  0  0  0  0  0  0  0  0  0  0
  2  1  1  0
  3  2  1  0
  3  4  1  0
  4  5  1  0
  5  6  1  6
  7  5  1  0
  7  8  2  0
  9  7  1  0
 10  9  1  0
 10 11  1  1
 12 11  1  0
 13 10  1  0
 14 13  2  0
 16 17  2  0
 16 15  1  0
 18 16  1  0
 19 18  1  0
 20 19  1  0
 21 20  1  0
 22 21  1  6
 22 23  1  0
 23 13  1  0
 24 22  1  0
 24 25  1  0
 26 24  2  0
M  END
$$$$
