MCR.pdb
     RDKit          3D

 26 25  0  0  1  0  0  0  0  0999 V2000
    8.0415  -12.2321   18.0445 C   0  0  0  0  0  0  0  0  0  0  0  0
    7.3366  -12.2218   19.7191 S   0  0  0  0  0  0  0  0  0  0  0  0
    6.7832  -13.9127   20.1809 C   0  0  0  0  0  0  0  0  0  0  0  0
    7.9090  -14.8828   20.0929 C   0  0  0  0  0  0  0  0  0  0  0  0
    8.7587  -15.0251   21.3081 C   0  0  2  0  0  0  0  0  0  0  0  0
    9.1214  -13.6557   21.7117 N   0  0  0  0  0  0  0  0  0  0  0  0
   10.0307  -15.7870   21.0336 C   0  0  0  0  0  0  0  0  0  0  0  0
    9.9995  -17.0240   20.8185 O   0  0  0  0  0  0  0  0  0  0  0  0
   11.2714  -15.1192   21.0129 N   0  0  0  0  0  0  0  0  0  0  0  0
   12.5083  -15.7865   20.7452 C   0  0  1  0  0  0  0  0  0  0  0  0
   13.3446  -15.1312   19.7043 C   0  0  0  0  0  0  0  0  0  0  0  0
   12.4389  -14.6542   18.2200 S   0  0  0  0  0  0  0  0  0  0  0  0
   13.2372  -16.2647   21.9400 C   0  0  0  0  0  0  0  0  0  0  0  0
   13.1379  -15.6542   23.0150 O   0  0  0  0  0  0  0  0  0  0  0  0
   11.4679  -17.7626   27.7772 N   0  0  0  0  0  0  0  0  0  0  0  0
   11.8154  -19.1457   27.8968 C   0  0  0  0  0  0  0  0  0  0  0  0
   12.2609  -19.5861   29.0256 N   0  0  0  0  0  0  0  0  0  0  0  0
   11.6981  -20.0636   26.8379 N   0  0  0  0  0  0  0  0  0  0  0  0
   11.6836  -19.6477   25.4263 C   0  0  0  0  0  0  0  0  0  0  0  0
   12.9904  -19.0981   25.0141 C   0  0  0  0  0  0  0  0  0  0  0  0
   13.2329  -18.7276   23.6227 C   0  0  0  0  0  0  0  0  0  0  0  0
   14.4921  -18.1464   23.1063 C   0  0  2  0  0  0  0  0  0  0  0  0
   14.0400  -17.4086   21.8557 N   0  0  0  0  0  0  0  0  0  0  0  0
   15.5924  -18.9966   22.6970 C   0  0  0  0  0  0  0  0  0  0  0  0
   16.6737  -19.3455   23.4720 O   0  0  0  0  0  0  0  0  0  0  0  0
   15.6266  -19.4988   21.5025 O   0  0  0  0  0  0  0  0  0  0  0  0
  2  1  1  0
  3  2  1  0
  3  4  1  0
  4  5  1  0
  5  6  1  6
  7  5  1  0
  7  8  2  0
  9  7  1  0
 10  9  1  0
 10 11  1  1
 12 11  1  0
 13 10  1  0
 14 13  2  0
 16 17  2  0
 16 15  1  0
 18 16  1  0
 19 18  1  0
 20 19  1  0
 21 20  1  0
 22 21  1  6
 22 23  1  0
 23 13  1  0
 24 22  1  0
 24 25  1  0
 26 24  2  0
M  END
$$$$
