MCR.pdb
     RDKit          3D

 26 25  0  0  1  0  0  0  0  0999 V2000
    8.2949  -11.3817   19.1803 C   0  0  0  0  0  0  0  0  0  0  0  0
    7.7424  -12.6109   17.9617 S   0  0  0  0  0  0  0  0  0  0  0  0
    7.0472  -14.0806   18.8191 C   0  0  0  0  0  0  0  0  0  0  0  0
    7.4427  -14.0951   20.2542 C   0  0  0  0  0  0  0  0  0  0  0  0
    6.9287  -15.2285   21.0727 C   0  0  2  0  0  0  0  0  0  0  0  0
    5.4662  -15.0609   21.1241 N   0  0  0  0  0  0  0  0  0  0  0  0
    7.4552  -15.2020   22.4855 C   0  0  0  0  0  0  0  0  0  0  0  0
    7.2347  -14.2149   23.2299 O   0  0  0  0  0  0  0  0  0  0  0  0
    8.2001  -16.2870   22.9891 N   0  0  0  0  0  0  0  0  0  0  0  0
    8.8399  -16.2626   24.2685 C   0  0  1  0  0  0  0  0  0  0  0  0
    7.9679  -15.7980   25.3803 C   0  0  0  0  0  0  0  0  0  0  0  0
    6.7191  -16.9945   25.8902 S   0  0  0  0  0  0  0  0  0  0  0  0
    9.6870  -17.4365   24.5714 C   0  0  0  0  0  0  0  0  0  0  0  0
    9.2358  -18.5829   24.4280 O   0  0  0  0  0  0  0  0  0  0  0  0
   13.2268  -16.4215   19.5075 N   0  0  0  0  0  0  0  0  0  0  0  0
   13.6933  -15.6824   20.6406 C   0  0  0  0  0  0  0  0  0  0  0  0
   13.7391  -14.3939   20.5747 N   0  0  0  0  0  0  0  0  0  0  0  0
   14.1116  -16.2905   21.8376 N   0  0  0  0  0  0  0  0  0  0  0  0
   14.1109  -17.7498   22.0278 C   0  0  0  0  0  0  0  0  0  0  0  0
   12.9682  -18.1837   22.8558 C   0  0  0  0  0  0  0  0  0  0  0  0
   13.0525  -18.1466   24.3131 C   0  0  0  0  0  0  0  0  0  0  0  0
   11.9318  -18.4343   25.2356 C   0  0  2  0  0  0  0  0  0  0  0  0
   11.0002  -17.2518   25.0205 N   0  0  0  0  0  0  0  0  0  0  0  0
   12.1480  -18.5220   26.6663 C   0  0  0  0  0  0  0  0  0  0  0  0
   12.6824  -19.5973   27.3368 O   0  0  0  0  0  0  0  0  0  0  0  0
   11.8217  -17.5365   27.4424 O   0  0  0  0  0  0  0  0  0  0  0  0
  2  1  1  0
  3  2  1  0
  3  4  1  0
  4  5  1  0
  5  6  1  1
  7  5  1  0
  7  8  2  0
  9  7  1  0
 10  9  1  0
 10 11  1  1
 12 11  1  0
 13 10  1  0
 14 13  2  0
 16 17  2  0
 16 15  1  0
 18 16  1  0
 19 18  1  0
 20 19  1  0
 21 20  1  0
 22 21  1  6
 22 23  1  0
 23 13  1  0
 24 22  1  0
 24 25  1  0
 26 24  2  0
M  END
$$$$
