MCR.pdb
     RDKit          3D

 26 25  0  0  1  0  0  0  0  0999 V2000
    6.3368  -11.3616   26.7664 C   0  0  0  0  0  0  0  0  0  0  0  0
    7.3112  -12.6158   25.8839 S   0  0  0  0  0  0  0  0  0  0  0  0
    6.2518  -14.0587   25.4663 C   0  0  0  0  0  0  0  0  0  0  0  0
    7.0816  -15.2346   25.0854 C   0  0  0  0  0  0  0  0  0  0  0  0
    8.5377  -14.9853   24.8947 C   0  0  2  0  0  0  0  0  0  0  0  0
    8.6526  -14.1673   23.6751 N   0  0  0  0  0  0  0  0  0  0  0  0
    9.3156  -16.2594   24.6815 C   0  0  0  0  0  0  0  0  0  0  0  0
    9.2585  -17.1899   25.5231 O   0  0  0  0  0  0  0  0  0  0  0  0
   10.1154  -16.4227   23.5329 N   0  0  0  0  0  0  0  0  0  0  0  0
   10.8411  -17.6241   23.2561 C   0  0  1  0  0  0  0  0  0  0  0  0
   11.0065  -17.9196   21.8077 C   0  0  0  0  0  0  0  0  0  0  0  0
   11.7754  -19.5132   21.4611 S   0  0  0  0  0  0  0  0  0  0  0  0
   12.0421  -17.8410   24.0915 C   0  0  0  0  0  0  0  0  0  0  0  0
   12.8517  -16.9182   24.2686 O   0  0  0  0  0  0  0  0  0  0  0  0
   14.0163  -20.4174   30.6778 N   0  0  0  0  0  0  0  0  0  0  0  0
   12.6133  -20.5644   30.9183 C   0  0  0  0  0  0  0  0  0  0  0  0
   12.1425  -20.2765   32.0855 N   0  0  0  0  0  0  0  0  0  0  0  0
   11.7070  -21.0125   29.9408 N   0  0  0  0  0  0  0  0  0  0  0  0
   12.1333  -21.4223   28.5933 C   0  0  0  0  0  0  0  0  0  0  0  0
   12.6374  -20.2729   27.8158 C   0  0  0  0  0  0  0  0  0  0  0  0
   13.0597  -20.4444   26.4286 C   0  0  0  0  0  0  0  0  0  0  0  0
   13.4976  -19.3505   25.5333 C   0  0  2  0  0  0  0  0  0  0  0  0
   12.2639  -19.0905   24.6830 N   0  0  0  0  0  0  0  0  0  0  0  0
   14.5941  -19.5414   24.6047 C   0  0  0  0  0  0  0  0  0  0  0  0
   15.8362  -18.9574   24.6924 O   0  0  0  0  0  0  0  0  0  0  0  0
   14.4549  -20.3122   23.5719 O   0  0  0  0  0  0  0  0  0  0  0  0
  2  1  1  0
  3  2  1  0
  3  4  1  0
  4  5  1  0
  5  6  1  6
  7  5  1  0
  7  8  2  0
  9  7  1  0
 10  9  1  0
 10 11  1  6
 12 11  1  0
 13 10  1  0
 14 13  2  0
 16 17  2  0
 16 15  1  0
 18 16  1  0
 19 18  1  0
 20 19  1  0
 21 20  1  0
 22 21  1  6
 22 23  1  0
 23 13  1  0
 24 22  1  0
 24 25  1  0
 26 24  2  0
M  END
$$$$
