MCR.pdb
     RDKit          3D

 26 25  0  0  1  0  0  0  0  0999 V2000
    9.2377  -11.7964   19.3833 C   0  0  0  0  0  0  0  0  0  0  0  0
    8.7667  -13.5432   19.5518 S   0  0  0  0  0  0  0  0  0  0  0  0
    7.1745  -13.6823   20.4595 C   0  0  0  0  0  0  0  0  0  0  0  0
    6.8177  -15.1090   20.6909 C   0  0  0  0  0  0  0  0  0  0  0  0
    7.9440  -16.0324   21.0032 C   0  0  2  0  0  0  0  0  0  0  0  0
    7.3451  -17.3715   21.1374 N   0  0  0  0  0  0  0  0  0  0  0  0
    8.6246  -15.6890   22.3042 C   0  0  0  0  0  0  0  0  0  0  0  0
    8.1672  -14.7825   23.0434 O   0  0  0  0  0  0  0  0  0  0  0  0
    9.7824  -16.3833   22.7081 N   0  0  0  0  0  0  0  0  0  0  0  0
   10.4340  -16.1452   23.9593 C   0  0  1  0  0  0  0  0  0  0  0  0
    9.5176  -16.1129   25.1304 C   0  0  0  0  0  0  0  0  0  0  0  0
   10.3550  -16.1646   26.7264 S   0  0  0  0  0  0  0  0  0  0  0  0
   11.6993  -16.8839   24.1609 C   0  0  0  0  0  0  0  0  0  0  0  0
   11.6764  -18.0896   24.4510 O   0  0  0  0  0  0  0  0  0  0  0  0
   14.5623  -15.0038   16.6095 N   0  0  0  0  0  0  0  0  0  0  0  0
   15.1645  -14.0377   17.4767 C   0  0  0  0  0  0  0  0  0  0  0  0
   15.6691  -12.9643   16.9671 N   0  0  0  0  0  0  0  0  0  0  0  0
   15.2392  -14.1960   18.8721 N   0  0  0  0  0  0  0  0  0  0  0  0
   14.1609  -14.8162   19.6583 C   0  0  0  0  0  0  0  0  0  0  0  0
   14.7015  -15.6215   20.7714 C   0  0  0  0  0  0  0  0  0  0  0  0
   14.0914  -15.5583   22.0964 C   0  0  0  0  0  0  0  0  0  0  0  0
   13.9721  -16.6994   23.0312 C   0  0  2  0  0  0  0  0  0  0  0  0
   12.9242  -16.2199   24.0235 N   0  0  0  0  0  0  0  0  0  0  0  0
   15.1056  -17.1366   23.8219 C   0  0  0  0  0  0  0  0  0  0  0  0
   16.0818  -18.0157   23.4149 O   0  0  0  0  0  0  0  0  0  0  0  0
   15.2681  -16.7052   25.0333 O   0  0  0  0  0  0  0  0  0  0  0  0
  2  1  1  0
  3  2  1  0
  3  4  1  0
  4  5  1  0
  5  6  1  1
  7  5  1  0
  7  8  2  0
  9  7  1  0
 10  9  1  0
 10 11  1  1
 12 11  1  0
 13 10  1  0
 14 13  2  0
 16 17  2  0
 16 15  1  0
 18 16  1  0
 19 18  1  0
 20 19  1  0
 21 20  1  0
 22 21  1  6
 22 23  1  0
 23 13  1  0
 24 22  1  0
 24 25  1  0
 26 24  2  0
M  END
$$$$
