MCR.pdb
     RDKit          3D

 26 25  0  0  1  0  0  0  0  0999 V2000
    8.1375  -11.2442   20.1799 C   0  0  0  0  0  0  0  0  0  0  0  0
    8.0685  -12.2978   18.7012 S   0  0  0  0  0  0  0  0  0  0  0  0
    7.0423  -13.7858   19.0344 C   0  0  0  0  0  0  0  0  0  0  0  0
    7.1900  -14.2274   20.4485 C   0  0  0  0  0  0  0  0  0  0  0  0
    8.0804  -15.3972   20.6887 C   0  0  2  0  0  0  0  0  0  0  0  0
    7.3255  -16.5800   20.2403 N   0  0  0  0  0  0  0  0  0  0  0  0
    8.4120  -15.5765   22.1488 C   0  0  0  0  0  0  0  0  0  0  0  0
    9.0657  -14.7000   22.7666 O   0  0  0  0  0  0  0  0  0  0  0  0
    7.9899  -16.7301   22.8392 N   0  0  0  0  0  0  0  0  0  0  0  0
    8.4380  -17.0528   24.1590 C   0  0  1  0  0  0  0  0  0  0  0  0
    7.3427  -17.2566   25.1446 C   0  0  0  0  0  0  0  0  0  0  0  0
    7.8936  -17.8820   26.7435 S   0  0  0  0  0  0  0  0  0  0  0  0
    9.5456  -18.0306   24.2265 C   0  0  0  0  0  0  0  0  0  0  0  0
    9.3460  -19.2182   23.9299 O   0  0  0  0  0  0  0  0  0  0  0  0
   12.3220  -14.2906   18.8028 N   0  0  0  0  0  0  0  0  0  0  0  0
   13.0853  -14.9656   19.8076 C   0  0  0  0  0  0  0  0  0  0  0  0
   14.0841  -14.3560   20.3530 N   0  0  0  0  0  0  0  0  0  0  0  0
   12.8046  -16.2745   20.2384 N   0  0  0  0  0  0  0  0  0  0  0  0
   13.4595  -16.8814   21.4082 C   0  0  0  0  0  0  0  0  0  0  0  0
   12.4678  -17.3579   22.3928 C   0  0  0  0  0  0  0  0  0  0  0  0
   12.9006  -18.0259   23.6169 C   0  0  0  0  0  0  0  0  0  0  0  0
   11.9944  -18.5803   24.6471 C   0  0  2  0  0  0  0  0  0  0  0  0
   10.8210  -17.6133   24.6259 N   0  0  0  0  0  0  0  0  0  0  0  0
   12.4114  -18.6776   26.0319 C   0  0  0  0  0  0  0  0  0  0  0  0
   13.2745  -19.6145   26.5504 O   0  0  0  0  0  0  0  0  0  0  0  0
   11.9602  -17.8429   26.9150 O   0  0  0  0  0  0  0  0  0  0  0  0
  2  1  1  0
  3  2  1  0
  3  4  1  0
  4  5  1  0
  5  6  1  1
  7  5  1  0
  7  8  2  0
  9  7  1  0
 10  9  1  0
 10 11  1  1
 12 11  1  0
 13 10  1  0
 14 13  2  0
 16 17  2  0
 16 15  1  0
 18 16  1  0
 19 18  1  0
 20 19  1  0
 21 20  1  0
 22 21  1  6
 22 23  1  0
 23 13  1  0
 24 22  1  0
 24 25  1  0
 26 24  2  0
M  END
$$$$
