MCR.pdb
     RDKit          3D

 26 25  0  0  1  0  0  0  0  0999 V2000
    7.8362  -11.3155   27.2057 C   0  0  0  0  0  0  0  0  0  0  0  0
    6.2855  -12.2577   27.3008 S   0  0  0  0  0  0  0  0  0  0  0  0
    6.5056  -13.9135   26.5337 C   0  0  0  0  0  0  0  0  0  0  0  0
    6.4114  -13.8287   25.0504 C   0  0  0  0  0  0  0  0  0  0  0  0
    6.8353  -15.0366   24.2885 C   0  0  2  0  0  0  0  0  0  0  0  0
    6.1919  -16.1822   24.9544 N   0  0  0  0  0  0  0  0  0  0  0  0
    8.3280  -15.2466   24.3288 C   0  0  0  0  0  0  0  0  0  0  0  0
    9.1063  -14.3860   23.8483 O   0  0  0  0  0  0  0  0  0  0  0  0
    8.8686  -16.4115   24.9088 N   0  0  0  0  0  0  0  0  0  0  0  0
   10.2761  -16.6452   25.0146 C   0  0  1  0  0  0  0  0  0  0  0  0
   10.6695  -17.5033   26.1640 C   0  0  0  0  0  0  0  0  0  0  0  0
   12.4350  -17.8591   26.2510 S   0  0  0  0  0  0  0  0  0  0  0  0
   10.9637  -16.9361   23.7379 C   0  0  0  0  0  0  0  0  0  0  0  0
   10.6544  -17.9406   23.0794 O   0  0  0  0  0  0  0  0  0  0  0  0
    8.9744  -12.2019   19.0526 N   0  0  0  0  0  0  0  0  0  0  0  0
    8.3812  -13.4729   19.3365 C   0  0  0  0  0  0  0  0  0  0  0  0
    7.1983  -13.5129   19.8521 N   0  0  0  0  0  0  0  0  0  0  0  0
    9.0249  -14.6972   19.0827 N   0  0  0  0  0  0  0  0  0  0  0  0
   10.4722  -14.8856   19.2707 C   0  0  0  0  0  0  0  0  0  0  0  0
   10.8266  -14.9352   20.7031 C   0  0  0  0  0  0  0  0  0  0  0  0
   12.2059  -15.1761   21.1174 C   0  0  0  0  0  0  0  0  0  0  0  0
   12.6572  -16.3195   21.9412 C   0  0  2  0  0  0  0  0  0  0  0  0
   11.9652  -16.0750   23.2731 N   0  0  0  0  0  0  0  0  0  0  0  0
   14.0615  -16.5103   22.2458 C   0  0  0  0  0  0  0  0  0  0  0  0
   14.9952  -17.0878   21.4175 O   0  0  0  0  0  0  0  0  0  0  0  0
   14.5439  -16.1333   23.3883 O   0  0  0  0  0  0  0  0  0  0  0  0
  2  1  1  0
  3  2  1  0
  3  4  1  0
  4  5  1  0
  5  6  1  1
  7  5  1  0
  7  8  2  0
  9  7  1  0
 10  9  1  0
 10 11  1  1
 12 11  1  0
 13 10  1  0
 14 13  2  0
 16 17  2  0
 16 15  1  0
 18 16  1  0
 19 18  1  0
 20 19  1  0
 21 20  1  0
 22 21  1  6
 22 23  1  0
 23 13  1  0
 24 22  1  0
 24 25  1  0
 26 24  2  0
M  END
$$$$
