MCR.pdb
     RDKit          3D

 26 25  0  0  1  0  0  0  0  0999 V2000
    7.0123  -11.7668   19.3031 C   0  0  0  0  0  0  0  0  0  0  0  0
    6.9827  -12.7770   17.7932 S   0  0  0  0  0  0  0  0  0  0  0  0
    7.8467  -14.3729   18.0851 C   0  0  0  0  0  0  0  0  0  0  0  0
    8.8537  -14.2406   19.1735 C   0  0  0  0  0  0  0  0  0  0  0  0
    9.5124  -15.4983   19.6244 C   0  0  2  0  0  0  0  0  0  0  0  0
    8.4889  -16.5524   19.5187 N   0  0  0  0  0  0  0  0  0  0  0  0
    9.9666  -15.4260   21.0605 C   0  0  0  0  0  0  0  0  0  0  0  0
   11.0317  -14.8336   21.3635 O   0  0  0  0  0  0  0  0  0  0  0  0
    9.1992  -16.0211   22.0817 N   0  0  0  0  0  0  0  0  0  0  0  0
    9.6349  -16.0862   23.4429 C   0  0  1  0  0  0  0  0  0  0  0  0
    8.5649  -15.8210   24.4414 C   0  0  0  0  0  0  0  0  0  0  0  0
    9.0028  -16.2707   26.1317 S   0  0  0  0  0  0  0  0  0  0  0  0
   10.5385  -17.2128   23.7616 C   0  0  0  0  0  0  0  0  0  0  0  0
   10.1713  -18.3805   23.5619 O   0  0  0  0  0  0  0  0  0  0  0  0
   14.3127  -14.0646   21.3492 N   0  0  0  0  0  0  0  0  0  0  0  0
   14.7746  -14.9728   20.3444 C   0  0  0  0  0  0  0  0  0  0  0  0
   14.6966  -14.6283   19.1026 N   0  0  0  0  0  0  0  0  0  0  0  0
   15.3146  -16.2375   20.6387 N   0  0  0  0  0  0  0  0  0  0  0  0
   15.4488  -16.7412   22.0149 C   0  0  0  0  0  0  0  0  0  0  0  0
   14.1503  -17.1962   22.5502 C   0  0  0  0  0  0  0  0  0  0  0  0
   14.0326  -17.6311   23.9391 C   0  0  0  0  0  0  0  0  0  0  0  0
   12.7815  -18.0923   24.5809 C   0  0  2  0  0  0  0  0  0  0  0  0
   11.8103  -16.9590   24.2894 N   0  0  0  0  0  0  0  0  0  0  0  0
   12.7176  -18.3198   26.0111 C   0  0  0  0  0  0  0  0  0  0  0  0
   13.2038  -19.4218   26.6749 O   0  0  0  0  0  0  0  0  0  0  0  0
   12.1566  -17.4498   26.7911 O   0  0  0  0  0  0  0  0  0  0  0  0
  2  1  1  0
  3  2  1  0
  3  4  1  0
  4  5  1  0
  5  6  1  1
  7  5  1  0
  7  8  2  0
  9  7  1  0
 10  9  1  0
 10 11  1  1
 12 11  1  0
 13 10  1  0
 14 13  2  0
 16 17  2  0
 16 15  1  0
 18 16  1  0
 19 18  1  0
 20 19  1  0
 21 20  1  0
 22 21  1  1
 22 23  1  0
 23 13  1  0
 24 22  1  0
 24 25  1  0
 26 24  2  0
M  END
$$$$
