MCR.pdb
     RDKit          3D

 26 25  0  0  1  0  0  0  0  0999 V2000
   16.8680  -21.6460   34.6153 C   0  0  0  0  0  0  0  0  0  0  0  0
   17.2338  -23.4183   34.7775 S   0  0  0  0  0  0  0  0  0  0  0  0
   15.9214  -24.4107   33.9581 C   0  0  0  0  0  0  0  0  0  0  0  0
   15.4541  -23.7467   32.7103 C   0  0  0  0  0  0  0  0  0  0  0  0
   14.0646  -23.2101   32.7247 C   0  0  2  0  0  0  0  0  0  0  0  0
   13.1855  -24.3678   32.9631 N   0  0  0  0  0  0  0  0  0  0  0  0
   13.6756  -22.5874   31.4076 C   0  0  0  0  0  0  0  0  0  0  0  0
   13.0779  -23.2636   30.5342 O   0  0  0  0  0  0  0  0  0  0  0  0
   13.9764  -21.2368   31.1411 N   0  0  0  0  0  0  0  0  0  0  0  0
   13.6881  -20.6094   29.8881 C   0  0  1  0  0  0  0  0  0  0  0  0
   13.0665  -19.2633   30.0061 C   0  0  0  0  0  0  0  0  0  0  0  0
   12.9984  -18.6252   31.6911 S   0  0  0  0  0  0  0  0  0  0  0  0
   14.7468  -20.7344   28.8630 C   0  0  0  0  0  0  0  0  0  0  0  0
   15.9407  -20.7394   29.1990 O   0  0  0  0  0  0  0  0  0  0  0  0
   14.4306  -24.5272   21.2244 N   0  0  0  0  0  0  0  0  0  0  0  0
   13.3738  -23.6347   21.5914 C   0  0  0  0  0  0  0  0  0  0  0  0
   12.5847  -23.1847   20.6741 N   0  0  0  0  0  0  0  0  0  0  0  0
   13.1454  -23.2139   22.9136 N   0  0  0  0  0  0  0  0  0  0  0  0
   13.9783  -23.6590   24.0421 C   0  0  0  0  0  0  0  0  0  0  0  0
   14.9918  -22.6452   24.3955 C   0  0  0  0  0  0  0  0  0  0  0  0
   14.6520  -21.5347   25.2805 C   0  0  0  0  0  0  0  0  0  0  0  0
   15.4543  -21.1024   26.4464 C   0  0  2  0  0  0  0  0  0  0  0  0
   14.3992  -20.8475   27.5114 N   0  0  0  0  0  0  0  0  0  0  0  0
   16.2666  -19.9033   26.3887 C   0  0  0  0  0  0  0  0  0  0  0  0
   17.5552  -19.8240   25.9148 O   0  0  0  0  0  0  0  0  0  0  0  0
   15.7999  -18.7715   26.8147 O   0  0  0  0  0  0  0  0  0  0  0  0
  2  1  1  0
  3  2  1  0
  3  4  1  0
  4  5  1  0
  5  6  1  6
  7  5  1  0
  7  8  2  0
  9  7  1  0
 10  9  1  0
 10 11  1  1
 12 11  1  0
 13 10  1  0
 14 13  2  0
 16 17  2  0
 16 15  1  0
 18 16  1  0
 19 18  1  0
 20 19  1  0
 21 20  1  0
 22 21  1  6
 22 23  1  0
 23 13  1  0
 24 22  1  0
 24 25  1  0
 26 24  2  0
M  END
$$$$
