IRM.pdb
     RDKit          3D

 28 27  0  0  1  0  0  0  0  0999 V2000
   19.9748  -19.3216  -15.9970 C   0  0  0  0  0  0  0  0  0  0  0  0
   20.6322  -20.6561  -15.7910 C   0  0  0  0  0  0  0  0  0  0  0  0
   20.9852  -20.8295  -14.2985 C   0  0  2  0  0  0  0  0  0  0  0  0
   22.0246  -19.7410  -14.0515 C   0  0  0  0  0  0  0  0  0  0  0  0
   21.5622  -22.1898  -14.1022 C   0  0  2  0  0  0  0  0  0  0  0  0
   22.7411  -22.2609  -14.9783 N   0  0  0  0  0  0  0  0  0  0  0  0
   20.7075  -23.3274  -14.4016 C   0  0  0  0  0  0  0  0  0  0  0  0
   20.6981  -23.8236  -15.5883 O   0  0  0  0  0  0  0  0  0  0  0  0
   21.7260  -28.9634  -11.1185 N   0  0  0  0  0  0  0  0  0  0  0  0
   20.7269  -28.7743  -10.1192 C   0  0  0  0  0  0  0  0  0  0  0  0
   21.1061  -28.8451   -8.8888 N   0  0  0  0  0  0  0  0  0  0  0  0
   19.3627  -28.5169  -10.4252 N   0  0  0  0  0  0  0  0  0  0  0  0
   18.9203  -28.3333  -11.8244 C   0  0  0  0  0  0  0  0  0  0  0  0
   19.4170  -27.0461  -12.3230 C   0  0  0  0  0  0  0  0  0  0  0  0
   18.4831  -26.0044  -12.7868 C   0  0  0  0  0  0  0  0  0  0  0  0
   18.9391  -25.0693  -13.8534 C   0  0  2  0  0  0  0  0  0  0  0  0
   19.8260  -24.0168  -13.5199 N   0  0  0  0  0  0  0  0  0  0  0  0
   17.7932  -24.6616  -14.6919 C   0  0  0  0  0  0  0  0  0  0  0  0
   17.2476  -23.5334  -14.4307 O   0  0  0  0  0  0  0  0  0  0  0  0
   20.4538  -28.7490   -8.0844 C   0  0  0  0  0  0  0  0  0  0  0  0
   15.3128  -24.6919  -22.0337 S   0  0  0  0  0  0  0  0  0  0  0  0
   16.1885  -25.5684  -20.6684 C   0  0  0  0  0  0  0  0  0  0  0  0
   15.8149  -24.7707  -19.1319 C   0  0  0  0  0  0  0  0  0  0  0  0
   16.4614  -25.2609  -17.9297 C   0  0  2  0  0  0  0  0  0  0  0  0
   16.1721  -24.7700  -16.5588 N   0  0  0  0  0  0  0  0  0  0  0  0
   17.2703  -25.4148  -15.7398 C   0  0  0  0  0  0  0  0  0  0  0  0
   14.9370  -25.4350  -15.9578 O   0  0  0  0  0  0  0  0  0  0  0  0
   14.9392  -26.3711  -15.1694 O   0  0  0  0  0  0  0  0  0  0  0  0
  1  2  1  0
  2  3  1  0
  3  5  1  0
  3  4  1  6
  5  7  1  0
  5  6  1  6
  7  8  2  0
 10 12  1  0
 10  9  1  0
 11 10  2  0
 13 12  1  0
 13 14  1  0
 15 14  1  0
 16 15  1  1
 17 16  1  0
 17  7  1  0
 18 25  1  0
 18 16  1  0
 19 18  2  0
 20 21  1  0
 21 22  1  0
 22 23  1  0
 24 23  1  6
 24 25  1  0
 24 26  1  0
 26 28  1  0
 27 26  2  0
M  END
$$$$
