IRM.pdb
     RDKit          3D

 28 27  0  0  1  0  0  0  0  0999 V2000
   23.9822  -20.0450   -7.4616 C   0  0  0  0  0  0  0  0  0  0  0  0
   25.2073  -20.4084   -8.2508 C   0  0  0  0  0  0  0  0  0  0  0  0
   24.9296  -20.1999   -9.7547 C   0  0  2  0  0  0  0  0  0  0  0  0
   23.7374  -21.1120  -10.0245 C   0  0  0  0  0  0  0  0  0  0  0  0
   26.1317  -20.6311  -10.5233 C   0  0  2  0  0  0  0  0  0  0  0  0
   27.2210  -19.7336  -10.1106 N   0  0  0  0  0  0  0  0  0  0  0  0
   26.0441  -20.5977  -11.9744 C   0  0  0  0  0  0  0  0  0  0  0  0
   25.8317  -19.4805  -12.5752 O   0  0  0  0  0  0  0  0  0  0  0  0
   26.2233  -26.1521  -16.3931 N   0  0  0  0  0  0  0  0  0  0  0  0
   25.5379  -25.4068  -17.3967 C   0  0  0  0  0  0  0  0  0  0  0  0
   24.3119  -25.7291  -17.6331 N   0  0  0  0  0  0  0  0  0  0  0  0
   26.1440  -24.3480  -18.1263 N   0  0  0  0  0  0  0  0  0  0  0  0
   27.1800  -23.4945  -17.5056 C   0  0  0  0  0  0  0  0  0  0  0  0
   26.5362  -22.5280  -16.6092 C   0  0  0  0  0  0  0  0  0  0  0  0
   26.6791  -22.6425  -15.1467 C   0  0  0  0  0  0  0  0  0  0  0  0
   25.9740  -21.6505  -14.2871 C   0  0  2  0  0  0  0  0  0  0  0  0
   26.1680  -21.6866  -12.8847 N   0  0  0  0  0  0  0  0  0  0  0  0
   24.5627  -21.5308  -14.7069 C   0  0  0  0  0  0  0  0  0  0  0  0
   23.7027  -22.2445  -14.0827 O   0  0  0  0  0  0  0  0  0  0  0  0
   23.7228  -25.2498  -18.3437 C   0  0  0  0  0  0  0  0  0  0  0  0
   21.2896  -16.0840  -15.5759 S   0  0  0  0  0  0  0  0  0  0  0  0
   20.9072  -17.0503  -17.0989 C   0  0  0  0  0  0  0  0  0  0  0  0
   21.0480  -18.7791  -16.7409 C   0  0  0  0  0  0  0  0  0  0  0  0
   22.3342  -19.2862  -16.3027 C   0  0  1  0  0  0  0  0  0  0  0  0
   22.6178  -20.7116  -15.9997 N   0  0  0  0  0  0  0  0  0  0  0  0
   24.1071  -20.7000  -15.7273 C   0  0  0  0  0  0  0  0  0  0  0  0
   22.5605  -21.5880  -17.2477 O   0  0  0  0  0  0  0  0  0  0  0  0
   23.4881  -21.8006  -18.0173 O   0  0  0  0  0  0  0  0  0  0  0  0
  1  2  1  0
  2  3  1  0
  3  5  1  0
  3  4  1  6
  5  7  1  0
  5  6  1  1
  7  8  2  0
 10 12  1  0
 10  9  1  0
 11 10  2  0
 13 12  1  0
 13 14  1  0
 15 14  1  0
 16 15  1  6
 17 16  1  0
 17  7  1  0
 18 25  1  0
 18 16  1  0
 19 18  2  0
 20 21  1  0
 21 22  1  0
 22 23  1  0
 24 23  1  1
 24 25  1  0
 24 26  1  0
 26 28  1  0
 27 26  2  0
M  END
$$$$
