IRM.pdb
     RDKit          3D

 28 27  0  0  1  0  0  0  0  0999 V2000
   28.7000  -13.0870  -15.9962 C   0  0  0  0  0  0  0  0  0  0  0  0
   27.2521  -13.4063  -15.7573 C   0  0  0  0  0  0  0  0  0  0  0  0
   26.3828  -12.2104  -16.2005 C   0  0  2  0  0  0  0  0  0  0  0  0
   26.8623  -11.0729  -15.3048 C   0  0  0  0  0  0  0  0  0  0  0  0
   24.9526  -12.5422  -15.9429 C   0  0  2  0  0  0  0  0  0  0  0  0
   24.6726  -13.7603  -16.7177 N   0  0  0  0  0  0  0  0  0  0  0  0
   23.9600  -11.5414  -16.3001 C   0  0  0  0  0  0  0  0  0  0  0  0
   23.6651  -11.3482  -17.5370 O   0  0  0  0  0  0  0  0  0  0  0  0
   16.0660  -12.3973  -16.2609 N   0  0  0  0  0  0  0  0  0  0  0  0
   17.1409  -13.0225  -16.9583 C   0  0  0  0  0  0  0  0  0  0  0  0
   16.8558  -14.0612  -17.6672 N   0  0  0  0  0  0  0  0  0  0  0  0
   18.4810  -12.5520  -16.9003 N   0  0  0  0  0  0  0  0  0  0  0  0
   18.8363  -11.3717  -16.0832 C   0  0  0  0  0  0  0  0  0  0  0  0
   20.2502  -11.0442  -16.2967 C   0  0  0  0  0  0  0  0  0  0  0  0
   20.8600   -9.8695  -15.6481 C   0  0  0  0  0  0  0  0  0  0  0  0
   22.3268   -9.6581  -15.8021 C   0  0  2  0  0  0  0  0  0  0  0  0
   23.2193  -10.6923  -15.4283 N   0  0  0  0  0  0  0  0  0  0  0  0
   22.6995   -8.3183  -15.3038 C   0  0  0  0  0  0  0  0  0  0  0  0
   23.1410   -8.2405  -14.1048 O   0  0  0  0  0  0  0  0  0  0  0  0
   17.5594  -14.5748  -18.2355 C   0  0  0  0  0  0  0  0  0  0  0  0
   24.1662   -0.8306  -17.3494 S   0  0  0  0  0  0  0  0  0  0  0  0
   23.8968   -2.5969  -17.8044 C   0  0  0  0  0  0  0  0  0  0  0  0
   23.5748   -3.5328  -16.3356 C   0  0  0  0  0  0  0  0  0  0  0  0
   23.2991   -4.9501  -16.4722 C   0  0  1  0  0  0  0  0  0  0  0  0
   22.9987   -5.8619  -15.3397 N   0  0  0  0  0  0  0  0  0  0  0  0
   22.6047   -7.1428  -16.0442 C   0  0  0  0  0  0  0  0  0  0  0  0
   21.6895   -5.5025  -14.6428 O   0  0  0  0  0  0  0  0  0  0  0  0
   20.5779   -5.9116  -14.9508 O   0  0  0  0  0  0  0  0  0  0  0  0
  1  2  1  0
  2  3  1  0
  3  5  1  0
  3  4  1  1
  5  7  1  0
  5  6  1  6
  7  8  2  0
 10 12  1  0
 10  9  1  0
 11 10  2  0
 13 12  1  0
 13 14  1  0
 15 14  1  0
 16 15  1  1
 17 16  1  0
 17  7  1  0
 18 25  1  0
 18 16  1  0
 19 18  2  0
 20 21  1  0
 21 22  1  0
 22 23  1  0
 24 23  1  1
 24 25  1  0
 24 26  1  0
 26 28  1  0
 27 26  2  0
M  END
$$$$
