IRM.pdb
     RDKit          3D

 28 27  0  0  1  0  0  0  0  0999 V2000
   28.7338  -18.7807  -17.5161 C   0  0  0  0  0  0  0  0  0  0  0  0
   27.9551  -19.8932  -18.1578 C   0  0  0  0  0  0  0  0  0  0  0  0
   26.7496  -20.2572  -17.2654 C   0  0  2  0  0  0  0  0  0  0  0  0
   26.1152  -18.9047  -16.9582 C   0  0  0  0  0  0  0  0  0  0  0  0
   27.2570  -20.9158  -16.0282 C   0  0  2  0  0  0  0  0  0  0  0  0
   27.8986  -22.1642  -16.4667 N   0  0  0  0  0  0  0  0  0  0  0  0
   26.2834  -21.2453  -14.9996 C   0  0  0  0  0  0  0  0  0  0  0  0
   25.2853  -22.0045  -15.2855 O   0  0  0  0  0  0  0  0  0  0  0  0
   21.4419  -20.3604   -8.8219 N   0  0  0  0  0  0  0  0  0  0  0  0
   22.2921  -21.1730   -8.0161 C   0  0  0  0  0  0  0  0  0  0  0  0
   21.7216  -21.9628   -7.1714 N   0  0  0  0  0  0  0  0  0  0  0  0
   23.7102  -21.1431   -8.1098 N   0  0  0  0  0  0  0  0  0  0  0  0
   24.3926  -20.1653   -8.9848 C   0  0  0  0  0  0  0  0  0  0  0  0
   24.2573  -20.5908  -10.3822 C   0  0  0  0  0  0  0  0  0  0  0  0
   25.4132  -20.5609  -11.2963 C   0  0  0  0  0  0  0  0  0  0  0  0
   25.1977  -20.9371  -12.7218 C   0  0  2  0  0  0  0  0  0  0  0  0
   26.2722  -20.8268  -13.6378 N   0  0  0  0  0  0  0  0  0  0  0  0
   23.9207  -20.3738  -13.2057 C   0  0  0  0  0  0  0  0  0  0  0  0
   23.8755  -19.1102  -13.4058 O   0  0  0  0  0  0  0  0  0  0  0  0
   22.2486  -22.5539   -6.4971 C   0  0  0  0  0  0  0  0  0  0  0  0
   22.1669  -21.1689  -18.6500 S   0  0  0  0  0  0  0  0  0  0  0  0
   20.4733  -21.3410  -17.9419 C   0  0  0  0  0  0  0  0  0  0  0  0
   20.4327  -20.5833  -16.3415 C   0  0  0  0  0  0  0  0  0  0  0  0
   21.4979  -20.8950  -15.4079 C   0  0  1  0  0  0  0  0  0  0  0  0
   21.5848  -20.3663  -14.0234 N   0  0  0  0  0  0  0  0  0  0  0  0
   22.7712  -21.1181  -13.4580 C   0  0  0  0  0  0  0  0  0  0  0  0
   20.4611  -20.8922  -13.1346 O   0  0  0  0  0  0  0  0  0  0  0  0
   19.3298  -20.4311  -13.0617 O   0  0  0  0  0  0  0  0  0  0  0  0
  1  2  1  0
  2  3  1  0
  3  5  1  0
  3  4  1  1
  5  7  1  0
  5  6  1  6
  7  8  2  0
 10 12  1  0
 10  9  1  0
 11 10  2  0
 13 12  1  0
 13 14  1  0
 15 14  1  0
 16 15  1  1
 17 16  1  0
 17  7  1  0
 18 25  1  0
 18 16  1  0
 19 18  2  0
 20 21  1  0
 21 22  1  0
 22 23  1  0
 24 23  1  6
 24 25  1  0
 24 26  1  0
 26 28  1  0
 27 26  2  0
M  END
$$$$
