IRM.pdb
     RDKit          3D

 28 27  0  0  1  0  0  0  0  0999 V2000
   16.6789  -20.8108  -10.9852 C   0  0  0  0  0  0  0  0  0  0  0  0
   17.9039  -19.9474  -10.8871 C   0  0  0  0  0  0  0  0  0  0  0  0
   19.1541  -20.8432  -10.7579 C   0  0  2  0  0  0  0  0  0  0  0  0
   18.9259  -21.5825   -9.4436 C   0  0  0  0  0  0  0  0  0  0  0  0
   20.3593  -19.9687  -10.6901 C   0  0  2  0  0  0  0  0  0  0  0  0
   20.3107  -19.1168  -11.8877 N   0  0  0  0  0  0  0  0  0  0  0  0
   21.6577  -20.6224  -10.6531 C   0  0  0  0  0  0  0  0  0  0  0  0
   22.0455  -21.2105   -9.5769 O   0  0  0  0  0  0  0  0  0  0  0  0
   29.0740  -21.9501  -14.6221 N   0  0  0  0  0  0  0  0  0  0  0  0
   27.8945  -21.4889  -15.2769 C   0  0  0  0  0  0  0  0  0  0  0  0
   28.0350  -20.5444  -16.1435 N   0  0  0  0  0  0  0  0  0  0  0  0
   26.6029  -22.0211  -15.0140 N   0  0  0  0  0  0  0  0  0  0  0  0
   26.4171  -23.1138  -14.0349 C   0  0  0  0  0  0  0  0  0  0  0  0
   25.7796  -22.5774  -12.8275 C   0  0  0  0  0  0  0  0  0  0  0  0
   24.4361  -21.9740  -12.8870 C   0  0  0  0  0  0  0  0  0  0  0  0
   23.8748  -21.3730  -11.6445 C   0  0  2  0  0  0  0  0  0  0  0  0
   22.6220  -20.7146  -11.6977 N   0  0  0  0  0  0  0  0  0  0  0  0
   24.9273  -20.6286  -10.9231 C   0  0  0  0  0  0  0  0  0  0  0  0
   24.9658  -19.3597  -11.0877 O   0  0  0  0  0  0  0  0  0  0  0  0
   27.2439  -20.1520  -16.6930 C   0  0  0  0  0  0  0  0  0  0  0  0
   25.8894  -20.1225   -4.9672 S   0  0  0  0  0  0  0  0  0  0  0  0
   27.6597  -20.1649   -5.4806 C   0  0  0  0  0  0  0  0  0  0  0  0
   27.7764  -19.7527   -7.1991 C   0  0  0  0  0  0  0  0  0  0  0  0
   26.9906  -20.5228   -8.1441 C   0  0  2  0  0  0  0  0  0  0  0  0
   27.0048  -20.3179   -9.6144 N   0  0  0  0  0  0  0  0  0  0  0  0
   25.8731  -21.2086  -10.0817 C   0  0  0  0  0  0  0  0  0  0  0  0
   28.1988  -20.9976  -10.2789 O   0  0  0  0  0  0  0  0  0  0  0  0
   28.1820  -22.0822  -10.8456 O   0  0  0  0  0  0  0  0  0  0  0  0
  1  2  1  0
  2  3  1  0
  3  5  1  0
  3  4  1  1
  5  7  1  0
  5  6  1  6
  7  8  2  0
 10 12  1  0
 10  9  1  0
 11 10  2  0
 13 12  1  0
 13 14  1  0
 15 14  1  0
 16 15  1  6
 17 16  1  0
 17  7  1  0
 18 25  1  0
 18 16  1  0
 19 18  2  0
 20 21  1  0
 21 22  1  0
 22 23  1  0
 24 23  1  1
 24 25  1  0
 24 26  1  0
 26 28  1  0
 27 26  2  0
M  END
$$$$
