IRM.pdb
     RDKit          3D

 28 27  0  0  1  0  0  0  0  0999 V2000
   29.0599  -22.1080   -9.5667 C   0  0  0  0  0  0  0  0  0  0  0  0
   27.8380  -21.2371   -9.5018 C   0  0  0  0  0  0  0  0  0  0  0  0
   27.2684  -21.0452  -10.9234 C   0  0  2  0  0  0  0  0  0  0  0  0
   28.4182  -20.3881  -11.6799 C   0  0  0  0  0  0  0  0  0  0  0  0
   26.0833  -20.1448  -10.8421 C   0  0  2  0  0  0  0  0  0  0  0  0
   25.0061  -20.9449  -10.2406 N   0  0  0  0  0  0  0  0  0  0  0  0
   25.5862  -19.5809  -12.0868 C   0  0  0  0  0  0  0  0  0  0  0  0
   24.4662  -19.9890  -12.5698 O   0  0  0  0  0  0  0  0  0  0  0  0
   24.3562  -14.6657  -18.6373 N   0  0  0  0  0  0  0  0  0  0  0  0
   24.5379  -13.8313  -17.4957 C   0  0  0  0  0  0  0  0  0  0  0  0
   23.7417  -12.8247  -17.3713 N   0  0  0  0  0  0  0  0  0  0  0  0
   25.5406  -14.0652  -16.5156 N   0  0  0  0  0  0  0  0  0  0  0  0
   26.4860  -15.1943  -16.6516 C   0  0  0  0  0  0  0  0  0  0  0  0
   25.9035  -16.3894  -16.0316 C   0  0  0  0  0  0  0  0  0  0  0  0
   26.3406  -16.8377  -14.6973 C   0  0  0  0  0  0  0  0  0  0  0  0
   25.6831  -18.0353  -14.1027 C   0  0  2  0  0  0  0  0  0  0  0  0
   26.1934  -18.5805  -12.8993 N   0  0  0  0  0  0  0  0  0  0  0  0
   25.4023  -19.0327  -15.1557 C   0  0  0  0  0  0  0  0  0  0  0  0
   26.3167  -19.8921  -15.4083 O   0  0  0  0  0  0  0  0  0  0  0  0
   23.7402  -12.1975  -16.5415 C   0  0  0  0  0  0  0  0  0  0  0  0
   25.2614  -24.3265  -14.9929 S   0  0  0  0  0  0  0  0  0  0  0  0
   23.4452  -24.0088  -14.9847 C   0  0  0  0  0  0  0  0  0  0  0  0
   23.0847  -22.6683  -16.0846 C   0  0  0  0  0  0  0  0  0  0  0  0
   23.5883  -21.3505  -15.7479 C   0  0  1  0  0  0  0  0  0  0  0  0
   24.0190  -20.3351  -16.7416 N   0  0  0  0  0  0  0  0  0  0  0  0
   24.2189  -19.1018  -15.8864 C   0  0  0  0  0  0  0  0  0  0  0  0
   22.8690  -19.8811  -17.6364 O   0  0  0  0  0  0  0  0  0  0  0  0
   22.1866  -18.8785  -17.4728 O   0  0  0  0  0  0  0  0  0  0  0  0
  1  2  1  0
  2  3  1  0
  3  5  1  0
  3  4  1  6
  5  7  1  0
  5  6  1  6
  7  8  2  0
 10 12  1  0
 10  9  1  0
 11 10  2  0
 13 12  1  0
 13 14  1  0
 15 14  1  0
 16 15  1  6
 17 16  1  0
 17  7  1  0
 18 25  1  0
 18 16  1  0
 19 18  2  0
 20 21  1  0
 21 22  1  0
 22 23  1  0
 24 23  1  1
 24 25  1  0
 24 26  1  0
 26 28  1  0
 27 26  2  0
M  END
$$$$
