IRM.pdb
     RDKit          3D

 28 27  0  0  1  0  0  0  0  0999 V2000
   30.3727  -21.4636  -10.8985 C   0  0  0  0  0  0  0  0  0  0  0  0
   28.9189  -21.2499  -10.5879 C   0  0  0  0  0  0  0  0  0  0  0  0
   28.1413  -21.0230  -11.9017 C   0  0  2  0  0  0  0  0  0  0  0  0
   28.8145  -19.7942  -12.5040 C   0  0  0  0  0  0  0  0  0  0  0  0
   26.7136  -20.7547  -11.5677 C   0  0  2  0  0  0  0  0  0  0  0  0
   26.3005  -21.8320  -10.6562 N   0  0  0  0  0  0  0  0  0  0  0  0
   25.7670  -20.7081  -12.6705 C   0  0  0  0  0  0  0  0  0  0  0  0
   25.3954  -19.5718  -13.1449 O   0  0  0  0  0  0  0  0  0  0  0  0
   28.3814  -24.9040  -16.3386 N   0  0  0  0  0  0  0  0  0  0  0  0
   27.0672  -25.3355  -16.6837 C   0  0  0  0  0  0  0  0  0  0  0  0
   26.7675  -26.5642  -16.4325 N   0  0  0  0  0  0  0  0  0  0  0  0
   26.1012  -24.4795  -17.2795 N   0  0  0  0  0  0  0  0  0  0  0  0
   26.3658  -23.0336  -17.4419 C   0  0  0  0  0  0  0  0  0  0  0  0
   25.9635  -22.3286  -16.2199 C   0  0  0  0  0  0  0  0  0  0  0  0
   24.5861  -22.4336  -15.7059 C   0  0  0  0  0  0  0  0  0  0  0  0
   24.2504  -21.7341  -14.4338 C   0  0  2  0  0  0  0  0  0  0  0  0
   25.1541  -21.8028  -13.3456 N   0  0  0  0  0  0  0  0  0  0  0  0
   22.8399  -21.9870  -14.0750 C   0  0  0  0  0  0  0  0  0  0  0  0
   22.5062  -23.1975  -13.8258 O   0  0  0  0  0  0  0  0  0  0  0  0
   25.8366  -26.9785  -16.6411 C   0  0  0  0  0  0  0  0  0  0  0  0
   19.3786  -19.2071   -9.7045 S   0  0  0  0  0  0  0  0  0  0  0  0
   21.0034  -20.0695   -9.5786 C   0  0  0  0  0  0  0  0  0  0  0  0
   21.3610  -20.8633  -11.1210 C   0  0  0  0  0  0  0  0  0  0  0  0
   20.3833  -20.7619  -12.1874 C   0  0  2  0  0  0  0  0  0  0  0  0
   20.4939  -21.4495  -13.4985 N   0  0  0  0  0  0  0  0  0  0  0  0
   21.8557  -21.0057  -13.9891 C   0  0  0  0  0  0  0  0  0  0  0  0
   19.5891  -20.8226  -14.5555 O   0  0  0  0  0  0  0  0  0  0  0  0
   19.9379  -20.0246  -15.4154 O   0  0  0  0  0  0  0  0  0  0  0  0
  1  2  1  0
  2  3  1  0
  3  5  1  0
  3  4  1  1
  5  7  1  0
  5  6  1  1
  7  8  2  0
 10 12  1  0
 10  9  1  0
 11 10  2  0
 13 12  1  0
 13 14  1  0
 15 14  1  0
 16 15  1  6
 17 16  1  0
 17  7  1  0
 18 25  1  0
 18 16  1  0
 19 18  2  0
 20 21  1  0
 21 22  1  0
 22 23  1  0
 24 23  1  1
 24 25  1  0
 24 26  1  0
 26 28  1  0
 27 26  2  0
M  END
$$$$
