IRM.pdb
     RDKit          3D

 28 27  0  0  1  0  0  0  0  0999 V2000
   20.6508  -16.6166  -18.6638 C   0  0  0  0  0  0  0  0  0  0  0  0
   22.1046  -16.7053  -18.2976 C   0  0  0  0  0  0  0  0  0  0  0  0
   22.3311  -17.9317  -17.3884 C   0  0  2  0  0  0  0  0  0  0  0  0
   21.4816  -17.6235  -16.1598 C   0  0  0  0  0  0  0  0  0  0  0  0
   23.7797  -18.0071  -17.0455 C   0  0  2  0  0  0  0  0  0  0  0  0
   24.4932  -18.1403  -18.3243 N   0  0  0  0  0  0  0  0  0  0  0  0
   24.2047  -19.0923  -16.1758 C   0  0  0  0  0  0  0  0  0  0  0  0
   23.3371  -19.7072  -15.4523 O   0  0  0  0  0  0  0  0  0  0  0  0
   29.3308  -24.7040  -18.1833 N   0  0  0  0  0  0  0  0  0  0  0  0
   29.6065  -23.3576  -18.5621 C   0  0  0  0  0  0  0  0  0  0  0  0
   29.8836  -23.1414  -19.8027 N   0  0  0  0  0  0  0  0  0  0  0  0
   29.5864  -22.2736  -17.6427 N   0  0  0  0  0  0  0  0  0  0  0  0
   29.0773  -22.4553  -16.2661 C   0  0  0  0  0  0  0  0  0  0  0  0
   27.7282  -21.8871  -16.1711 C   0  0  0  0  0  0  0  0  0  0  0  0
   27.3473  -21.0311  -15.0333 C   0  0  0  0  0  0  0  0  0  0  0  0
   25.9575  -20.4961  -14.9846 C   0  0  2  0  0  0  0  0  0  0  0  0
   25.5208  -19.6075  -15.9973 N   0  0  0  0  0  0  0  0  0  0  0  0
   25.6294  -20.0661  -13.6099 C   0  0  0  0  0  0  0  0  0  0  0  0
   26.0474  -18.9141  -13.2402 O   0  0  0  0  0  0  0  0  0  0  0  0
   30.1381  -22.2044  -20.1756 C   0  0  0  0  0  0  0  0  0  0  0  0
   20.5827  -18.8301  -10.2229 S   0  0  0  0  0  0  0  0  0  0  0  0
   20.6080  -20.3705  -11.2357 C   0  0  0  0  0  0  0  0  0  0  0  0
   22.2821  -20.9194  -11.4171 C   0  0  0  0  0  0  0  0  0  0  0  0
   23.3469  -19.9659  -11.1709 C   0  0  1  0  0  0  0  0  0  0  0  0
   24.7947  -20.2722  -11.2891 N   0  0  0  0  0  0  0  0  0  0  0  0
   24.9009  -20.8226  -12.6956 C   0  0  0  0  0  0  0  0  0  0  0  0
   25.1929  -21.4969  -10.4703 O   0  0  0  0  0  0  0  0  0  0  0  0
   25.2546  -21.5535   -9.2493 O   0  0  0  0  0  0  0  0  0  0  0  0
  1  2  1  0
  2  3  1  0
  3  5  1  0
  3  4  1  1
  5  7  1  0
  5  6  1  6
  7  8  2  0
 10 12  1  0
 10  9  1  0
 11 10  2  0
 13 12  1  0
 13 14  1  0
 15 14  1  0
 16 15  1  1
 17 16  1  0
 17  7  1  0
 18 25  1  0
 18 16  1  0
 19 18  2  0
 20 21  1  0
 21 22  1  0
 22 23  1  0
 24 23  1  6
 24 25  1  0
 24 26  1  0
 26 28  1  0
 27 26  2  0
M  END
$$$$
