IRM.pdb
     RDKit          3D

 28 27  0  0  1  0  0  0  0  0999 V2000
   27.6653  -20.3649   -7.7767 C   0  0  0  0  0  0  0  0  0  0  0  0
   28.1077  -20.9348   -9.0939 C   0  0  0  0  0  0  0  0  0  0  0  0
   27.0394  -20.6364  -10.1671 C   0  0  2  0  0  0  0  0  0  0  0  0
   25.8264  -21.4278   -9.6890 C   0  0  0  0  0  0  0  0  0  0  0  0
   27.5342  -21.1368  -11.4811 C   0  0  2  0  0  0  0  0  0  0  0  0
   28.7820  -20.4066  -11.7498 N   0  0  0  0  0  0  0  0  0  0  0  0
   26.6587  -20.9735  -12.6306 C   0  0  0  0  0  0  0  0  0  0  0  0
   26.3420  -19.7922  -13.0287 O   0  0  0  0  0  0  0  0  0  0  0  0
   28.5893  -25.6121  -16.6236 N   0  0  0  0  0  0  0  0  0  0  0  0
   27.2233  -25.9534  -16.8471 C   0  0  0  0  0  0  0  0  0  0  0  0
   26.8596  -27.1519  -16.5405 N   0  0  0  0  0  0  0  0  0  0  0  0
   26.2733  -25.0411  -17.3821 N   0  0  0  0  0  0  0  0  0  0  0  0
   26.6150  -23.6151  -17.5737 C   0  0  0  0  0  0  0  0  0  0  0  0
   26.4986  -22.9139  -16.2904 C   0  0  0  0  0  0  0  0  0  0  0  0
   25.1801  -22.6770  -15.6757 C   0  0  0  0  0  0  0  0  0  0  0  0
   25.1098  -21.8158  -14.4618 C   0  0  2  0  0  0  0  0  0  0  0  0
   26.0649  -21.9916  -13.4310 N   0  0  0  0  0  0  0  0  0  0  0  0
   23.7128  -21.7182  -13.9917 C   0  0  0  0  0  0  0  0  0  0  0  0
   23.3803  -22.4389  -12.9873 O   0  0  0  0  0  0  0  0  0  0  0  0
   25.8832  -27.4956  -16.6425 C   0  0  0  0  0  0  0  0  0  0  0  0
   18.1826  -16.6073  -12.3639 S   0  0  0  0  0  0  0  0  0  0  0  0
   19.7635  -17.0699  -13.1921 C   0  0  0  0  0  0  0  0  0  0  0  0
   19.9206  -18.8341  -13.2005 C   0  0  0  0  0  0  0  0  0  0  0  0
   21.1489  -19.4108  -13.7125 C   0  0  1  0  0  0  0  0  0  0  0  0
   21.3921  -20.8665  -13.8731 N   0  0  0  0  0  0  0  0  0  0  0  0
   22.7401  -20.9009  -14.5617 C   0  0  0  0  0  0  0  0  0  0  0  0
   20.5035  -21.4834  -14.9496 O   0  0  0  0  0  0  0  0  0  0  0  0
   20.8003  -21.6272  -16.1281 O   0  0  0  0  0  0  0  0  0  0  0  0
  1  2  1  0
  2  3  1  0
  3  5  1  0
  3  4  1  1
  5  7  1  0
  5  6  1  6
  7  8  2  0
 10 12  1  0
 10  9  1  0
 11 10  2  0
 13 12  1  0
 13 14  1  0
 15 14  1  0
 16 15  1  6
 17 16  1  0
 17  7  1  0
 18 25  1  0
 18 16  1  0
 19 18  2  0
 20 21  1  0
 21 22  1  0
 22 23  1  0
 24 23  1  1
 24 25  1  0
 24 26  1  0
 26 28  1  0
 27 26  2  0
M  END
$$$$
