IRM.pdb
     RDKit          3D

 28 27  0  0  1  0  0  0  0  0999 V2000
   20.7071  -17.7033  -18.0329 C   0  0  0  0  0  0  0  0  0  0  0  0
   22.0575  -18.2813  -18.3456 C   0  0  0  0  0  0  0  0  0  0  0  0
   22.6350  -18.9502  -17.0802 C   0  0  2  0  0  0  0  0  0  0  0  0
   22.6720  -17.8134  -16.0641 C   0  0  0  0  0  0  0  0  0  0  0  0
   24.0048  -19.4496  -17.3906 C   0  0  2  0  0  0  0  0  0  0  0  0
   23.8442  -20.4248  -18.4794 N   0  0  0  0  0  0  0  0  0  0  0  0
   24.7416  -20.0917  -16.3139 C   0  0  0  0  0  0  0  0  0  0  0  0
   24.3283  -21.2128  -15.8380 O   0  0  0  0  0  0  0  0  0  0  0  0
   30.4819  -23.7798  -16.3387 N   0  0  0  0  0  0  0  0  0  0  0  0
   29.3282  -23.7030  -17.1727 C   0  0  0  0  0  0  0  0  0  0  0  0
   28.9883  -24.7741  -17.8051 N   0  0  0  0  0  0  0  0  0  0  0  0
   28.5598  -22.5170  -17.3265 N   0  0  0  0  0  0  0  0  0  0  0  0
   29.0095  -21.2391  -16.7333 C   0  0  0  0  0  0  0  0  0  0  0  0
   28.8333  -21.2937  -15.2779 C   0  0  0  0  0  0  0  0  0  0  0  0
   28.0985  -20.2330  -14.5655 C   0  0  0  0  0  0  0  0  0  0  0  0
   26.6091  -20.2600  -14.5976 C   0  0  2  0  0  0  0  0  0  0  0  0
   25.9274  -19.6348  -15.6700 N   0  0  0  0  0  0  0  0  0  0  0  0
   26.0690  -19.9414  -13.2601 C   0  0  0  0  0  0  0  0  0  0  0  0
   25.5132  -18.7982  -13.1092 O   0  0  0  0  0  0  0  0  0  0  0  0
   28.2195  -24.8037  -18.5050 C   0  0  0  0  0  0  0  0  0  0  0  0
   21.2540  -19.3208  -12.8241 S   0  0  0  0  0  0  0  0  0  0  0  0
   21.2108  -20.1798  -11.1933 C   0  0  0  0  0  0  0  0  0  0  0  0
   22.8323  -20.1568  -10.4811 C   0  0  0  0  0  0  0  0  0  0  0  0
   23.9704  -20.3398  -11.3612 C   0  0  1  0  0  0  0  0  0  0  0  0
   25.3865  -20.3443  -10.9155 N   0  0  0  0  0  0  0  0  0  0  0  0
   26.1218  -20.7939  -12.1603 C   0  0  0  0  0  0  0  0  0  0  0  0
   25.6886  -21.5027   -9.9690 O   0  0  0  0  0  0  0  0  0  0  0  0
   26.0655  -22.6191  -10.3001 O   0  0  0  0  0  0  0  0  0  0  0  0
  1  2  1  0
  2  3  1  0
  3  5  1  0
  3  4  1  1
  5  7  1  0
  5  6  1  6
  7  8  2  0
 10 12  1  0
 10  9  1  0
 11 10  2  0
 13 12  1  0
 13 14  1  0
 15 14  1  0
 16 15  1  1
 17 16  1  0
 17  7  1  0
 18 25  1  0
 18 16  1  0
 19 18  2  0
 20 21  1  0
 21 22  1  0
 22 23  1  0
 24 23  1  6
 24 25  1  0
 24 26  1  0
 26 28  1  0
 27 26  2  0
M  END
$$$$
