IRM.pdb
     RDKit          3D

 28 27  0  0  1  0  0  0  0  0999 V2000
   20.9597  -18.1522  -16.4677 C   0  0  0  0  0  0  0  0  0  0  0  0
   22.4468  -18.2382  -16.6599 C   0  0  0  0  0  0  0  0  0  0  0  0
   23.0519  -19.1577  -15.5780 C   0  0  2  0  0  0  0  0  0  0  0  0
   22.6842  -18.4589  -14.2731 C   0  0  0  0  0  0  0  0  0  0  0  0
   24.5289  -19.2101  -15.7718 C   0  0  2  0  0  0  0  0  0  0  0  0
   24.7425  -19.7720  -17.1138 N   0  0  0  0  0  0  0  0  0  0  0  0
   25.2993  -19.9989  -14.8238 C   0  0  0  0  0  0  0  0  0  0  0  0
   24.9881  -21.2295  -14.6161 O   0  0  0  0  0  0  0  0  0  0  0  0
   32.3364  -20.7939   -9.6465 N   0  0  0  0  0  0  0  0  0  0  0  0
   32.1504  -22.0667  -10.2611 C   0  0  0  0  0  0  0  0  0  0  0  0
   32.7082  -23.0807   -9.6925 N   0  0  0  0  0  0  0  0  0  0  0  0
   31.3906  -22.2511  -11.4484 N   0  0  0  0  0  0  0  0  0  0  0  0
   30.8673  -21.0915  -12.2023 C   0  0  0  0  0  0  0  0  0  0  0  0
   29.4027  -21.1639  -12.2446 C   0  0  0  0  0  0  0  0  0  0  0  0
   28.6177  -20.1609  -12.9863 C   0  0  0  0  0  0  0  0  0  0  0  0
   27.1483  -20.3693  -13.1191 C   0  0  2  0  0  0  0  0  0  0  0  0
   26.4177  -19.5847  -14.0445 N   0  0  0  0  0  0  0  0  0  0  0  0
   26.5297  -20.4726  -11.7816 C   0  0  0  0  0  0  0  0  0  0  0  0
   26.5611  -19.4305  -11.0389 O   0  0  0  0  0  0  0  0  0  0  0  0
   32.5957  -24.0578  -10.0307 C   0  0  0  0  0  0  0  0  0  0  0  0
   28.3142  -20.7106   -5.6807 S   0  0  0  0  0  0  0  0  0  0  0  0
   27.9515  -19.5971   -7.1047 C   0  0  0  0  0  0  0  0  0  0  0  0
   26.4539  -20.1257   -7.8889 C   0  0  0  0  0  0  0  0  0  0  0  0
   26.5420  -20.7047   -9.2157 C   0  0  1  0  0  0  0  0  0  0  0  0
   25.5105  -21.5851   -9.8198 N   0  0  0  0  0  0  0  0  0  0  0  0
   25.9183  -21.6176  -11.2775 C   0  0  0  0  0  0  0  0  0  0  0  0
   24.1516  -20.8973   -9.9167 O   0  0  0  0  0  0  0  0  0  0  0  0
   23.7113  -20.3155  -10.8994 O   0  0  0  0  0  0  0  0  0  0  0  0
  1  2  1  0
  2  3  1  0
  3  5  1  0
  3  4  1  1
  5  7  1  0
  5  6  1  6
  7  8  2  0
 10 12  1  0
 10  9  1  0
 11 10  2  0
 13 12  1  0
 13 14  1  0
 15 14  1  0
 16 15  1  1
 17 16  1  0
 17  7  1  0
 18 25  1  0
 18 16  1  0
 19 18  2  0
 20 21  1  0
 21 22  1  0
 22 23  1  0
 24 23  1  1
 24 25  1  0
 24 26  1  0
 26 28  1  0
 27 26  2  0
M  END
$$$$
