VEC.pdb
     RDKit          3D

 23 22  0  0  1  0  0  0  0  0999 V2000
    8.2012  -12.8319   18.4897 C   0  0  0  0  0  0  0  0  0  0  0  0
    7.7092  -13.4411   19.7855 C   0  0  2  0  0  0  0  0  0  0  0  0
    8.2038  -12.5473   20.9101 C   0  0  0  0  0  0  0  0  0  0  0  0
    8.3689  -14.7900   19.9780 C   0  0  2  0  0  0  0  0  0  0  0  0
    7.8723  -15.6612   18.9235 N   0  0  0  0  0  0  0  0  0  0  0  0
    8.0391  -15.3888   21.2979 C   0  0  0  0  0  0  0  0  0  0  0  0
    6.8711  -15.7840   21.5431 O   0  0  0  0  0  0  0  0  0  0  0  0
    9.0117  -15.5244   22.2868 N   0  0  0  0  0  0  0  0  0  0  0  0
    8.7721  -16.0355   23.6424 C   0  0  1  0  0  0  0  0  0  0  0  0
    9.6418  -17.2705   23.7199 C   0  0  0  0  0  0  0  0  0  0  0  0
    9.1230  -18.3380   22.8381 C   0  0  0  0  0  0  0  0  0  0  0  0
   10.0471  -19.5322   22.9438 C   0  0  0  0  0  0  0  0  0  0  0  0
    9.7461  -20.5029   23.6804 O   0  0  0  0  0  0  0  0  0  0  0  0
    9.0523  -15.0471   24.6614 C   0  0  0  0  0  0  0  0  0  0  0  0
   10.2608  -14.6148   24.7258 O   0  0  0  0  0  0  0  0  0  0  0  0
   11.2113  -19.5090   22.2109 O   0  0  0  0  0  0  0  0  0  0  0  0
    8.1761  -14.4734   25.6087 N   0  0  0  0  0  0  0  0  0  0  0  0
    8.6146  -13.5678   26.6507 C   0  0  1  0  0  0  0  0  0  0  0  0
    7.5105  -12.6410   27.1025 C   0  0  0  0  0  0  0  0  0  0  0  0
    6.0409  -13.0186   26.0975 S   0  0  0  0  0  0  0  0  0  0  0  0
    9.0449  -14.3277   27.8396 C   0  0  0  0  0  0  0  0  0  0  0  0
    8.8406  -15.5608   27.8957 O   0  0  0  0  0  0  0  0  0  0  0  0
    9.6758  -13.7060   28.9069 O   0  0  0  0  0  0  0  0  0  0  0  0
  2  1  1  6
  3  2  1  0
  4  5  1  6
  4  2  1  0
  6  7  2  0
  6  4  1  0
  8  6  1  0
  9  8  1  0
  9 14  1  0
  9 10  1  1
 11 10  1  0
 12 11  1  0
 13 12  2  0
 14 17  1  0
 15 14  2  0
 16 12  1  0
 17 18  1  0
 18 21  1  0
 18 19  1  1
 19 20  1  0
 21 22  2  0
 21 23  1  0
M  END
$$$$
