VEC.pdb
     RDKit          3D

 23 22  0  0  1  0  0  0  0  0999 V2000
    7.2957  -13.1469   21.8601 C   0  0  0  0  0  0  0  0  0  0  0  0
    8.2521  -13.4091   20.7161 C   0  0  2  0  0  0  0  0  0  0  0  0
    7.6817  -12.7102   19.4937 C   0  0  0  0  0  0  0  0  0  0  0  0
    8.2580  -14.8913   20.4082 C   0  0  2  0  0  0  0  0  0  0  0  0
    6.9052  -15.2485   20.0083 N   0  0  0  0  0  0  0  0  0  0  0  0
    8.6455  -15.7049   21.5903 C   0  0  0  0  0  0  0  0  0  0  0  0
    7.7736  -16.0936   22.4085 O   0  0  0  0  0  0  0  0  0  0  0  0
    9.9760  -16.0527   21.8163 N   0  0  0  0  0  0  0  0  0  0  0  0
   10.4783  -16.7357   23.0153 C   0  0  1  0  0  0  0  0  0  0  0  0
   11.7876  -17.3421   22.5616 C   0  0  0  0  0  0  0  0  0  0  0  0
   12.4692  -18.0254   23.6817 C   0  0  0  0  0  0  0  0  0  0  0  0
   13.3247  -19.1359   23.1104 C   0  0  0  0  0  0  0  0  0  0  0  0
   13.2839  -20.2872   23.6087 O   0  0  0  0  0  0  0  0  0  0  0  0
   10.5982  -15.8434   24.1481 C   0  0  0  0  0  0  0  0  0  0  0  0
   10.7985  -14.6019   23.8831 O   0  0  0  0  0  0  0  0  0  0  0  0
   14.1349  -18.8351   22.0399 O   0  0  0  0  0  0  0  0  0  0  0  0
   10.5205  -16.1407   25.5264 N   0  0  0  0  0  0  0  0  0  0  0  0
   10.3407  -15.1302   26.5486 C   0  0  1  0  0  0  0  0  0  0  0  0
    9.0567  -14.3557   26.3652 C   0  0  0  0  0  0  0  0  0  0  0  0
    8.9790  -13.1135   27.6931 S   0  0  0  0  0  0  0  0  0  0  0  0
   10.2713  -15.7590   27.8812 C   0  0  0  0  0  0  0  0  0  0  0  0
    9.9560  -16.9654   27.9828 O   0  0  0  0  0  0  0  0  0  0  0  0
   10.5488  -15.0417   29.0354 O   0  0  0  0  0  0  0  0  0  0  0  0
  2  1  1  1
  3  2  1  0
  4  5  1  1
  4  2  1  0
  6  7  2  0
  6  4  1  0
  8  6  1  0
  9  8  1  0
  9 14  1  0
  9 10  1  6
 11 10  1  0
 12 11  1  0
 13 12  2  0
 14 17  1  0
 15 14  2  0
 16 12  1  0
 17 18  1  0
 18 21  1  0
 18 19  1  6
 19 20  1  0
 21 22  2  0
 21 23  1  0
M  END
$$$$
