VEC.pdb
     RDKit          3D

 23 22  0  0  1  0  0  0  0  0999 V2000
    7.5770  -12.5425   18.6228 C   0  0  0  0  0  0  0  0  0  0  0  0
    7.8542  -13.6316   19.6375 C   0  0  2  0  0  0  0  0  0  0  0  0
    8.6864  -13.0044   20.7430 C   0  0  0  0  0  0  0  0  0  0  0  0
    8.7157  -14.6972   18.9940 C   0  0  2  0  0  0  0  0  0  0  0  0
    7.9488  -15.2560   17.8907 N   0  0  0  0  0  0  0  0  0  0  0  0
    9.0603  -15.7856   19.9459 C   0  0  0  0  0  0  0  0  0  0  0  0
    8.1928  -16.6279   20.2902 O   0  0  0  0  0  0  0  0  0  0  0  0
   10.3451  -15.8956   20.4744 N   0  0  0  0  0  0  0  0  0  0  0  0
   10.7558  -16.8614   21.5015 C   0  0  1  0  0  0  0  0  0  0  0  0
   12.1954  -17.1672   21.1523 C   0  0  0  0  0  0  0  0  0  0  0  0
   12.2746  -18.0895   19.9993 C   0  0  0  0  0  0  0  0  0  0  0  0
   13.7346  -18.3741   19.7184 C   0  0  0  0  0  0  0  0  0  0  0  0
   14.4231  -19.0243   20.5422 O   0  0  0  0  0  0  0  0  0  0  0  0
   10.5653  -16.3535   22.8430 C   0  0  0  0  0  0  0  0  0  0  0  0
   11.2655  -15.3281   23.1741 O   0  0  0  0  0  0  0  0  0  0  0  0
   14.2659  -17.8980   18.5420 O   0  0  0  0  0  0  0  0  0  0  0  0
    9.7036  -16.8241   23.8580 N   0  0  0  0  0  0  0  0  0  0  0  0
    9.6674  -16.2634   25.1931 C   0  0  1  0  0  0  0  0  0  0  0  0
    8.3970  -15.4878   25.4516 C   0  0  0  0  0  0  0  0  0  0  0  0
    7.0186  -16.4647   24.7746 S   0  0  0  0  0  0  0  0  0  0  0  0
    9.7209  -17.3397   26.2004 C   0  0  0  0  0  0  0  0  0  0  0  0
    9.6736  -18.5352   25.8347 O   0  0  0  0  0  0  0  0  0  0  0  0
    9.8232  -17.0590   27.5549 O   0  0  0  0  0  0  0  0  0  0  0  0
  2  1  1  6
  3  2  1  0
  4  5  1  6
  4  2  1  0
  6  7  2  0
  6  4  1  0
  8  6  1  0
  9  8  1  0
  9 14  1  0
  9 10  1  6
 11 10  1  0
 12 11  1  0
 13 12  2  0
 14 17  1  0
 15 14  2  0
 16 12  1  0
 17 18  1  0
 18 21  1  0
 18 19  1  6
 19 20  1  0
 21 22  2  0
 21 23  1  0
M  END
$$$$
