VEC.pdb
     RDKit          3D

 23 22  0  0  1  0  0  0  0  0999 V2000
    7.1813  -12.7303   20.9059 C   0  0  0  0  0  0  0  0  0  0  0  0
    8.3446  -13.2998   20.1219 C   0  0  2  0  0  0  0  0  0  0  0  0
    8.1435  -12.8909   18.6726 C   0  0  0  0  0  0  0  0  0  0  0  0
    8.2737  -14.8114   20.1626 C   0  0  2  0  0  0  0  0  0  0  0  0
    7.0885  -15.2025   19.4144 N   0  0  0  0  0  0  0  0  0  0  0  0
    8.1627  -15.3273   21.5522 C   0  0  0  0  0  0  0  0  0  0  0  0
    7.0387  -15.4227   22.1074 O   0  0  0  0  0  0  0  0  0  0  0  0
    9.2954  -15.7142   22.2660 N   0  0  0  0  0  0  0  0  0  0  0  0
    9.2916  -16.2314   23.6403 C   0  0  1  0  0  0  0  0  0  0  0  0
   10.3622  -17.2997   23.6254 C   0  0  0  0  0  0  0  0  0  0  0  0
    9.9233  -18.4763   22.8449 C   0  0  0  0  0  0  0  0  0  0  0  0
   11.0988  -19.4200   22.7070 C   0  0  0  0  0  0  0  0  0  0  0  0
   12.1884  -19.1617   23.2741 O   0  0  0  0  0  0  0  0  0  0  0  0
    9.5059  -15.1897   24.6216 C   0  0  0  0  0  0  0  0  0  0  0  0
   10.5401  -14.4457   24.4534 O   0  0  0  0  0  0  0  0  0  0  0  0
   10.9253  -20.5535   21.9468 O   0  0  0  0  0  0  0  0  0  0  0  0
    8.7287  -14.8611   25.7539 N   0  0  0  0  0  0  0  0  0  0  0  0
    9.1039  -13.8350   26.7050 C   0  0  1  0  0  0  0  0  0  0  0  0
    8.0354  -12.7776   26.8542 C   0  0  0  0  0  0  0  0  0  0  0  0
    6.4248  -13.6235   26.8014 S   0  0  0  0  0  0  0  0  0  0  0  0
    9.3060  -14.4267   28.0411 C   0  0  0  0  0  0  0  0  0  0  0  0
    9.0103  -15.6259   28.2402 O   0  0  0  0  0  0  0  0  0  0  0  0
    9.8198  -13.6821   29.0923 O   0  0  0  0  0  0  0  0  0  0  0  0
  2  1  1  1
  3  2  1  0
  4  5  1  6
  4  2  1  0
  6  7  2  0
  6  4  1  0
  8  6  1  0
  9  8  1  0
  9 14  1  0
  9 10  1  6
 11 10  1  0
 12 11  1  0
 13 12  2  0
 14 17  1  0
 15 14  2  0
 16 12  1  0
 17 18  1  0
 18 21  1  0
 18 19  1  1
 19 20  1  0
 21 22  2  0
 21 23  1  0
M  END
$$$$
