VEC.pdb
     RDKit          3D

 23 22  0  0  1  0  0  0  0  0999 V2000
    7.5294  -13.1965   20.3255 C   0  0  0  0  0  0  0  0  0  0  0  0
    8.6526  -13.3608   19.3237 C   0  0  2  0  0  0  0  0  0  0  0  0
    8.2696  -12.5552   18.0939 C   0  0  0  0  0  0  0  0  0  0  0  0
    8.7203  -14.8102   18.8921 C   0  0  2  0  0  0  0  0  0  0  0  0
    7.4570  -15.1197   18.2396 N   0  0  0  0  0  0  0  0  0  0  0  0
    8.9079  -15.7277   20.0465 C   0  0  0  0  0  0  0  0  0  0  0  0
    7.9134  -16.1698   20.6758 O   0  0  0  0  0  0  0  0  0  0  0  0
   10.1829  -16.1155   20.4541 N   0  0  0  0  0  0  0  0  0  0  0  0
   10.4704  -17.1250   21.4811 C   0  0  1  0  0  0  0  0  0  0  0  0
   11.7722  -17.7437   21.0226 C   0  0  0  0  0  0  0  0  0  0  0  0
   12.1865  -18.8353   21.9297 C   0  0  0  0  0  0  0  0  0  0  0  0
   13.4913  -19.4079   21.4188 C   0  0  0  0  0  0  0  0  0  0  0  0
   14.5851  -18.8996   21.7659 O   0  0  0  0  0  0  0  0  0  0  0  0
   10.5185  -16.5588   22.8119 C   0  0  0  0  0  0  0  0  0  0  0  0
   11.4887  -15.7532   23.0591 O   0  0  0  0  0  0  0  0  0  0  0  0
   13.4286  -20.4905   20.5721 O   0  0  0  0  0  0  0  0  0  0  0  0
    9.6370  -16.7607   23.8966 N   0  0  0  0  0  0  0  0  0  0  0  0
    9.8146  -16.1370   25.1918 C   0  0  1  0  0  0  0  0  0  0  0  0
    8.4962  -15.8100   25.8529 C   0  0  0  0  0  0  0  0  0  0  0  0
    7.5903  -14.6969   24.7335 S   0  0  0  0  0  0  0  0  0  0  0  0
   10.5326  -17.0482   26.1030 C   0  0  0  0  0  0  0  0  0  0  0  0
   10.7281  -18.2369   25.7654 O   0  0  0  0  0  0  0  0  0  0  0  0
   11.0010  -16.6183   27.3357 O   0  0  0  0  0  0  0  0  0  0  0  0
  2  1  1  1
  3  2  1  0
  4  5  1  1
  4  2  1  0
  6  7  2  0
  6  4  1  0
  8  6  1  0
  9  8  1  0
  9 14  1  0
  9 10  1  6
 11 10  1  0
 12 11  1  0
 13 12  2  0
 14 17  1  0
 15 14  2  0
 16 12  1  0
 17 18  1  0
 18 21  1  0
 18 19  1  1
 19 20  1  0
 21 22  2  0
 21 23  1  0
M  END
$$$$
