VEC.pdb
     RDKit          3D

 23 22  0  0  1  0  0  0  0  0999 V2000
    7.3700  -12.6732   20.2004 C   0  0  0  0  0  0  0  0  0  0  0  0
    8.6808  -13.2534   19.7130 C   0  0  2  0  0  0  0  0  0  0  0  0
    8.8087  -12.8848   18.2447 C   0  0  0  0  0  0  0  0  0  0  0  0
    8.6061  -14.7640   19.7787 C   0  0  2  0  0  0  0  0  0  0  0  0
    7.6119  -15.1841   18.8027 N   0  0  0  0  0  0  0  0  0  0  0  0
    8.1979  -15.2441   21.1250 C   0  0  0  0  0  0  0  0  0  0  0  0
    6.9821  -15.2928   21.4413 O   0  0  0  0  0  0  0  0  0  0  0  0
    9.1483  -15.6484   22.0606 N   0  0  0  0  0  0  0  0  0  0  0  0
    8.8483  -16.1299   23.4150 C   0  0  1  0  0  0  0  0  0  0  0  0
    9.8063  -17.2846   23.6066 C   0  0  0  0  0  0  0  0  0  0  0  0
    9.6368  -17.8953   24.9424 C   0  0  0  0  0  0  0  0  0  0  0  0
   10.5747  -19.0790   25.0457 C   0  0  0  0  0  0  0  0  0  0  0  0
   11.7709  -18.9732   24.6808 O   0  0  0  0  0  0  0  0  0  0  0  0
    8.9697  -15.0864   24.4102 C   0  0  0  0  0  0  0  0  0  0  0  0
   10.0679  -14.4192   24.4122 O   0  0  0  0  0  0  0  0  0  0  0  0
   10.0690  -20.2559   25.5480 O   0  0  0  0  0  0  0  0  0  0  0  0
    8.0398  -14.6827   25.3933 N   0  0  0  0  0  0  0  0  0  0  0  0
    8.2829  -13.5947   26.3182 C   0  0  1  0  0  0  0  0  0  0  0  0
    7.0561  -12.7381   26.5261 C   0  0  0  0  0  0  0  0  0  0  0  0
    5.6610  -13.8601   26.8535 S   0  0  0  0  0  0  0  0  0  0  0  0
    8.6608  -14.1247   27.6419 C   0  0  0  0  0  0  0  0  0  0  0  0
    8.5714  -15.3520   27.8678 O   0  0  0  0  0  0  0  0  0  0  0  0
    9.1167  -13.2911   28.6523 O   0  0  0  0  0  0  0  0  0  0  0  0
  2  1  1  6
  3  2  1  0
  4  5  1  6
  4  2  1  0
  6  7  2  0
  6  4  1  0
  8  6  1  0
  9  8  1  0
  9 14  1  0
  9 10  1  1
 11 10  1  0
 12 11  1  0
 13 12  2  0
 14 17  1  0
 15 14  2  0
 16 12  1  0
 17 18  1  0
 18 21  1  0
 18 19  1  1
 19 20  1  0
 21 22  2  0
 21 23  1  0
M  END
$$$$
