VEC.pdb
     RDKit          3D

 23 22  0  0  1  0  0  0  0  0999 V2000
    7.3719  -12.8531   20.3441 C   0  0  0  0  0  0  0  0  0  0  0  0
    8.6047  -13.6245   19.9228 C   0  0  2  0  0  0  0  0  0  0  0  0
    8.7890  -13.3848   18.4340 C   0  0  0  0  0  0  0  0  0  0  0  0
    8.3432  -15.1053   20.0972 C   0  0  2  0  0  0  0  0  0  0  0  0
    7.3286  -15.4764   19.1222 N   0  0  0  0  0  0  0  0  0  0  0  0
    7.8466  -15.4272   21.4608 C   0  0  0  0  0  0  0  0  0  0  0  0
    6.6453  -15.2171   21.7664 O   0  0  0  0  0  0  0  0  0  0  0  0
    8.6969  -15.9657   22.4248 N   0  0  0  0  0  0  0  0  0  0  0  0
    8.3569  -16.1523   23.8411 C   0  0  1  0  0  0  0  0  0  0  0  0
    9.2072  -17.3299   24.2629 C   0  0  0  0  0  0  0  0  0  0  0  0
    9.0837  -17.5772   25.7154 C   0  0  0  0  0  0  0  0  0  0  0  0
    9.9805  -18.7419   26.0767 C   0  0  0  0  0  0  0  0  0  0  0  0
   11.1143  -18.5377   26.5748 O   0  0  0  0  0  0  0  0  0  0  0  0
    8.5734  -14.9536   24.6223 C   0  0  0  0  0  0  0  0  0  0  0  0
    9.7774  -14.5065   24.6669 O   0  0  0  0  0  0  0  0  0  0  0  0
    9.5082  -20.0123   25.8400 O   0  0  0  0  0  0  0  0  0  0  0  0
    7.6386  -14.1861   25.3511 N   0  0  0  0  0  0  0  0  0  0  0  0
    8.0033  -13.0247   26.1362 C   0  0  1  0  0  0  0  0  0  0  0  0
    6.8727  -12.0283   26.2396 C   0  0  0  0  0  0  0  0  0  0  0  0
    5.4146  -12.9254   26.8574 S   0  0  0  0  0  0  0  0  0  0  0  0
    8.3435  -13.4264   27.5142 C   0  0  0  0  0  0  0  0  0  0  0  0
    8.1338  -14.6018   27.8880 O   0  0  0  0  0  0  0  0  0  0  0  0
    8.8947  -12.5274   28.4151 O   0  0  0  0  0  0  0  0  0  0  0  0
  2  1  1  6
  3  2  1  0
  4  5  1  6
  4  2  1  0
  6  7  2  0
  6  4  1  0
  8  6  1  0
  9  8  1  0
  9 14  1  0
  9 10  1  1
 11 10  1  0
 12 11  1  0
 13 12  2  0
 14 17  1  0
 15 14  2  0
 16 12  1  0
 17 18  1  0
 18 21  1  0
 18 19  1  1
 19 20  1  0
 21 22  2  0
 21 23  1  0
M  END
$$$$
