VEC.pdb
     RDKit          3D

 23 22  0  0  1  0  0  0  0  0999 V2000
    8.9198  -14.4976   17.6158 C   0  0  0  0  0  0  0  0  0  0  0  0
    7.7890  -13.8992   18.4256 C   0  0  2  0  0  0  0  0  0  0  0  0
    7.5261  -12.5135   17.8611 C   0  0  0  0  0  0  0  0  0  0  0  0
    8.2530  -13.7076   19.8538 C   0  0  2  0  0  0  0  0  0  0  0  0
    9.4568  -12.8915   19.8047 N   0  0  0  0  0  0  0  0  0  0  0  0
    8.5697  -15.0005   20.5154 C   0  0  0  0  0  0  0  0  0  0  0  0
    7.6877  -15.8891   20.6304 O   0  0  0  0  0  0  0  0  0  0  0  0
    9.8438  -15.2546   21.0199 N   0  0  0  0  0  0  0  0  0  0  0  0
   10.2206  -16.4365   21.8056 C   0  0  1  0  0  0  0  0  0  0  0  0
   11.5476  -16.8545   21.2122 C   0  0  0  0  0  0  0  0  0  0  0  0
   11.3536  -17.8382   20.1255 C   0  0  0  0  0  0  0  0  0  0  0  0
   12.7159  -18.2596   19.6177 C   0  0  0  0  0  0  0  0  0  0  0  0
   13.7583  -17.8151   20.1573 O   0  0  0  0  0  0  0  0  0  0  0  0
   10.2653  -16.1625   23.2258 C   0  0  0  0  0  0  0  0  0  0  0  0
   11.2185  -15.4041   23.6351 O   0  0  0  0  0  0  0  0  0  0  0  0
   12.7624  -19.1355   18.5577 O   0  0  0  0  0  0  0  0  0  0  0  0
    9.3966  -16.6097   24.2455 N   0  0  0  0  0  0  0  0  0  0  0  0
    9.6064  -16.3246   25.6500 C   0  0  1  0  0  0  0  0  0  0  0  0
    8.3738  -15.7468   26.3050 C   0  0  0  0  0  0  0  0  0  0  0  0
    7.6102  -14.6053   25.1106 S   0  0  0  0  0  0  0  0  0  0  0  0
    9.9338  -17.5644   26.3792 C   0  0  0  0  0  0  0  0  0  0  0  0
   10.0069  -18.6485   25.7590 O   0  0  0  0  0  0  0  0  0  0  0  0
   10.1648  -17.5604   27.7468 O   0  0  0  0  0  0  0  0  0  0  0  0
  2  1  1  6
  3  2  1  0
  4  5  1  6
  4  2  1  0
  6  7  2  0
  6  4  1  0
  8  6  1  0
  9  8  1  0
  9 14  1  0
  9 10  1  6
 11 10  1  0
 12 11  1  0
 13 12  2  0
 14 17  1  0
 15 14  2  0
 16 12  1  0
 17 18  1  0
 18 21  1  0
 18 19  1  1
 19 20  1  0
 21 22  2  0
 21 23  1  0
M  END
$$$$
