VEC.pdb
     RDKit          3D

 23 22  0  0  1  0  0  0  0  0999 V2000
    7.3418  -12.6940   20.7350 C   0  0  0  0  0  0  0  0  0  0  0  0
    8.5451  -13.0644   19.8940 C   0  0  2  0  0  0  0  0  0  0  0  0
    8.4052  -12.3273   18.5730 C   0  0  0  0  0  0  0  0  0  0  0  0
    8.4883  -14.5435   19.5765 C   0  0  2  0  0  0  0  0  0  0  0  0
    7.2297  -14.7829   18.8866 N   0  0  0  0  0  0  0  0  0  0  0  0
    8.5355  -15.3797   20.8045 C   0  0  0  0  0  0  0  0  0  0  0  0
    7.4726  -15.7230   21.3816 O   0  0  0  0  0  0  0  0  0  0  0  0
    9.7519  -15.7991   21.3400 N   0  0  0  0  0  0  0  0  0  0  0  0
    9.9046  -16.6183   22.5490 C   0  0  1  0  0  0  0  0  0  0  0  0
   11.2220  -17.3305   22.3367 C   0  0  0  0  0  0  0  0  0  0  0  0
   11.5428  -18.2018   23.4875 C   0  0  0  0  0  0  0  0  0  0  0  0
   12.8583  -18.8956   23.2055 C   0  0  0  0  0  0  0  0  0  0  0  0
   13.4879  -18.6537   22.1470 O   0  0  0  0  0  0  0  0  0  0  0  0
    9.8449  -15.8291   23.7605 C   0  0  0  0  0  0  0  0  0  0  0  0
   10.3926  -14.6674   23.7171 O   0  0  0  0  0  0  0  0  0  0  0  0
   13.3266  -19.7874   24.1427 O   0  0  0  0  0  0  0  0  0  0  0  0
    9.2578  -16.1515   25.0037 N   0  0  0  0  0  0  0  0  0  0  0  0
    9.2002  -15.2285   26.1186 C   0  0  1  0  0  0  0  0  0  0  0  0
    7.8857  -14.4863   26.1771 C   0  0  0  0  0  0  0  0  0  0  0  0
    8.2670  -12.7068   26.1556 S   0  0  0  0  0  0  0  0  0  0  0  0
    9.3331  -15.9589   27.3933 C   0  0  0  0  0  0  0  0  0  0  0  0
    9.4079  -15.3232   28.4682 O   0  0  0  0  0  0  0  0  0  0  0  0
    9.3777  -17.3446   27.4324 O   0  0  0  0  0  0  0  0  0  0  0  0
  2  1  1  1
  3  2  1  0
  4  5  1  1
  4  2  1  0
  6  7  2  0
  6  4  1  0
  8  6  1  0
  9  8  1  0
  9 14  1  0
  9 10  1  6
 11 10  1  0
 12 11  1  0
 13 12  2  0
 14 17  1  0
 15 14  2  0
 16 12  1  0
 17 18  1  0
 18 21  1  0
 18 19  1  1
 19 20  1  0
 21 22  2  0
 21 23  1  0
M  END
$$$$
