VEC.pdb
     RDKit          3D

 23 22  0  0  1  0  0  0  0  0999 V2000
    6.9123  -14.7194   19.5399 C   0  0  0  0  0  0  0  0  0  0  0  0
    7.6028  -13.4022   19.8239 C   0  0  2  0  0  0  0  0  0  0  0  0
    8.0003  -12.8128   18.4813 C   0  0  0  0  0  0  0  0  0  0  0  0
    8.8866  -13.6713   20.5796 C   0  0  2  0  0  0  0  0  0  0  0  0
    9.6701  -14.5948   19.7727 N   0  0  0  0  0  0  0  0  0  0  0  0
    8.6327  -14.2842   21.9099 C   0  0  0  0  0  0  0  0  0  0  0  0
    7.9089  -13.6965   22.7532 O   0  0  0  0  0  0  0  0  0  0  0  0
    9.1883  -15.5164   22.2493 N   0  0  0  0  0  0  0  0  0  0  0  0
    9.0306  -16.1848   23.5473 C   0  0  1  0  0  0  0  0  0  0  0  0
    9.5695  -17.5768   23.3026 C   0  0  0  0  0  0  0  0  0  0  0  0
   11.0309  -17.5456   23.0798 C   0  0  0  0  0  0  0  0  0  0  0  0
   11.5138  -18.9686   22.8972 C   0  0  0  0  0  0  0  0  0  0  0  0
   10.7077  -19.8743   22.5725 O   0  0  0  0  0  0  0  0  0  0  0  0
    9.6926  -15.4717   24.6183 C   0  0  0  0  0  0  0  0  0  0  0  0
   10.8979  -15.0867   24.3935 O   0  0  0  0  0  0  0  0  0  0  0  0
   12.8508  -19.2229   23.0988 O   0  0  0  0  0  0  0  0  0  0  0  0
    9.1981  -15.1255   25.8950 N   0  0  0  0  0  0  0  0  0  0  0  0
    9.9519  -14.3453   26.8547 C   0  0  1  0  0  0  0  0  0  0  0  0
    9.2771  -13.0331   27.1786 C   0  0  0  0  0  0  0  0  0  0  0  0
    7.4862  -13.3488   27.2533 S   0  0  0  0  0  0  0  0  0  0  0  0
   10.0787  -15.0833   28.1256 C   0  0  0  0  0  0  0  0  0  0  0  0
    9.5234  -16.1969   28.2549 O   0  0  0  0  0  0  0  0  0  0  0  0
   10.8040  -14.5709   29.1910 O   0  0  0  0  0  0  0  0  0  0  0  0
  2  1  1  6
  3  2  1  0
  4  5  1  6
  4  2  1  0
  6  7  2  0
  6  4  1  0
  8  6  1  0
  9  8  1  0
  9 14  1  0
  9 10  1  6
 11 10  1  0
 12 11  1  0
 13 12  2  0
 14 17  1  0
 15 14  2  0
 16 12  1  0
 17 18  1  0
 18 21  1  0
 18 19  1  1
 19 20  1  0
 21 22  2  0
 21 23  1  0
M  END
$$$$
