VEC.pdb
     RDKit          3D

 23 22  0  0  1  0  0  0  0  0999 V2000
    7.4272  -12.6707   18.6415 C   0  0  0  0  0  0  0  0  0  0  0  0
    7.6589  -13.6267   19.7924 C   0  0  2  0  0  0  0  0  0  0  0  0
    8.4780  -12.8787   20.8305 C   0  0  0  0  0  0  0  0  0  0  0  0
    8.5131  -14.7801   19.3110 C   0  0  2  0  0  0  0  0  0  0  0  0
    7.7556  -15.4683   18.2765 N   0  0  0  0  0  0  0  0  0  0  0  0
    8.8235  -15.7385   20.4040 C   0  0  0  0  0  0  0  0  0  0  0  0
    7.9247  -16.4828   20.8717 O   0  0  0  0  0  0  0  0  0  0  0  0
   10.1101  -15.8323   20.9313 N   0  0  0  0  0  0  0  0  0  0  0  0
   10.5291  -16.7797   21.9721 C   0  0  1  0  0  0  0  0  0  0  0  0
   12.0173  -16.9274   21.7458 C   0  0  0  0  0  0  0  0  0  0  0  0
   12.6209  -17.8133   22.7642 C   0  0  0  0  0  0  0  0  0  0  0  0
   14.0957  -17.9567   22.4545 C   0  0  0  0  0  0  0  0  0  0  0  0
   14.9191  -17.1151   22.8894 O   0  0  0  0  0  0  0  0  0  0  0  0
   10.1722  -16.3316   23.3009 C   0  0  0  0  0  0  0  0  0  0  0  0
   10.3529  -15.0849   23.5549 O   0  0  0  0  0  0  0  0  0  0  0  0
   14.4888  -19.0305   21.6893 O   0  0  0  0  0  0  0  0  0  0  0  0
    9.6398  -17.0752   24.3770 N   0  0  0  0  0  0  0  0  0  0  0  0
    9.3735  -16.5056   25.6819 C   0  0  1  0  0  0  0  0  0  0  0  0
    7.9954  -15.8924   25.7660 C   0  0  0  0  0  0  0  0  0  0  0  0
    6.8385  -17.0480   24.9668 S   0  0  0  0  0  0  0  0  0  0  0  0
    9.4367  -17.5530   26.7187 C   0  0  0  0  0  0  0  0  0  0  0  0
    9.6149  -18.7458   26.3861 O   0  0  0  0  0  0  0  0  0  0  0  0
    9.3027  -17.2479   28.0650 O   0  0  0  0  0  0  0  0  0  0  0  0
  2  1  1  6
  3  2  1  0
  4  5  1  6
  4  2  1  0
  6  7  2  0
  6  4  1  0
  8  6  1  0
  9  8  1  0
  9 14  1  0
  9 10  1  1
 11 10  1  0
 12 11  1  0
 13 12  2  0
 14 17  1  0
 15 14  2  0
 16 12  1  0
 17 18  1  0
 18 21  1  0
 18 19  1  6
 19 20  1  0
 21 22  2  0
 21 23  1  0
M  END
$$$$
