VEC.pdb
     RDKit          3D

 23 22  0  0  1  0  0  0  0  0999 V2000
    7.6929  -12.7883   18.9872 C   0  0  0  0  0  0  0  0  0  0  0  0
    7.6995  -13.5937   20.2693 C   0  0  2  0  0  0  0  0  0  0  0  0
    8.5026  -12.8001   21.2858 C   0  0  0  0  0  0  0  0  0  0  0  0
    8.4495  -14.8876   20.0348 C   0  0  2  0  0  0  0  0  0  0  0  0
    7.6715  -15.6640   19.0811 N   0  0  0  0  0  0  0  0  0  0  0  0
    8.6090  -15.6744   21.2859 C   0  0  0  0  0  0  0  0  0  0  0  0
    7.6104  -16.2053   21.8351 O   0  0  0  0  0  0  0  0  0  0  0  0
    9.8615  -15.8397   21.8741 N   0  0  0  0  0  0  0  0  0  0  0  0
   10.1127  -16.5293   23.1459 C   0  0  1  0  0  0  0  0  0  0  0  0
   11.3658  -17.3327   22.8779 C   0  0  0  0  0  0  0  0  0  0  0  0
   11.0595  -18.5375   22.0773 C   0  0  0  0  0  0  0  0  0  0  0  0
   11.6866  -19.7338   22.7608 C   0  0  0  0  0  0  0  0  0  0  0  0
   12.8881  -19.6992   23.1219 O   0  0  0  0  0  0  0  0  0  0  0  0
   10.2231  -15.6105   24.2584 C   0  0  0  0  0  0  0  0  0  0  0  0
   10.8724  -14.5227   24.0430 O   0  0  0  0  0  0  0  0  0  0  0  0
   10.8971  -20.8418   22.9659 O   0  0  0  0  0  0  0  0  0  0  0  0
    9.7083  -15.7333   25.5677 N   0  0  0  0  0  0  0  0  0  0  0  0
    9.8023  -14.6828   26.5605 C   0  0  1  0  0  0  0  0  0  0  0  0
    8.4908  -13.9572   26.7489 C   0  0  0  0  0  0  0  0  0  0  0  0
    8.7704  -12.6427   27.9764 S   0  0  0  0  0  0  0  0  0  0  0  0
   10.1660  -15.2513   27.8722 C   0  0  0  0  0  0  0  0  0  0  0  0
   10.1127  -16.4887   28.0490 O   0  0  0  0  0  0  0  0  0  0  0  0
   10.5692  -14.4431   28.9247 O   0  0  0  0  0  0  0  0  0  0  0  0
  2  1  1  6
  3  2  1  0
  4  5  1  6
  4  2  1  0
  6  7  2  0
  6  4  1  0
  8  6  1  0
  9  8  1  0
  9 14  1  0
  9 10  1  6
 11 10  1  0
 12 11  1  0
 13 12  2  0
 14 17  1  0
 15 14  2  0
 16 12  1  0
 17 18  1  0
 18 21  1  0
 18 19  1  1
 19 20  1  0
 21 22  2  0
 21 23  1  0
M  END
$$$$
