VEC.pdb
     RDKit          3D

 23 22  0  0  1  0  0  0  0  0999 V2000
    7.3665  -15.0924   19.1032 C   0  0  0  0  0  0  0  0  0  0  0  0
    7.3276  -13.6488   19.5581 C   0  0  2  0  0  0  0  0  0  0  0  0
    7.6925  -12.7961   18.3549 C   0  0  0  0  0  0  0  0  0  0  0  0
    8.4100  -13.4287   20.5933 C   0  0  2  0  0  0  0  0  0  0  0  0
    9.6614  -13.8804   20.0037 N   0  0  0  0  0  0  0  0  0  0  0  0
    8.1549  -14.1981   21.8392 C   0  0  0  0  0  0  0  0  0  0  0  0
    7.0515  -14.0985   22.4337 O   0  0  0  0  0  0  0  0  0  0  0  0
    9.1274  -15.0419   22.3727 N   0  0  0  0  0  0  0  0  0  0  0  0
    8.9682  -15.8525   23.5867 C   0  0  1  0  0  0  0  0  0  0  0  0
    9.9475  -16.9885   23.3913 C   0  0  0  0  0  0  0  0  0  0  0  0
    9.5279  -17.8613   22.2740 C   0  0  0  0  0  0  0  0  0  0  0  0
   10.5292  -18.9899   22.1511 C   0  0  0  0  0  0  0  0  0  0  0  0
   10.7104  -19.5585   21.0470 O   0  0  0  0  0  0  0  0  0  0  0  0
    9.1830  -15.0845   24.7941 C   0  0  0  0  0  0  0  0  0  0  0  0
   10.3881  -14.7034   25.0260 O   0  0  0  0  0  0  0  0  0  0  0  0
   11.2204  -19.3597   23.2818 O   0  0  0  0  0  0  0  0  0  0  0  0
    8.2452  -14.6803   25.7695 N   0  0  0  0  0  0  0  0  0  0  0  0
    8.5975  -13.8911   26.9319 C   0  0  1  0  0  0  0  0  0  0  0  0
    7.4064  -13.1631   27.5094 C   0  0  0  0  0  0  0  0  0  0  0  0
    6.5172  -12.3924   26.1209 S   0  0  0  0  0  0  0  0  0  0  0  0
    9.1224  -14.7623   28.0004 C   0  0  0  0  0  0  0  0  0  0  0  0
    9.0493  -16.0054   27.8799 O   0  0  0  0  0  0  0  0  0  0  0  0
    9.7000  -14.2351   29.1459 O   0  0  0  0  0  0  0  0  0  0  0  0
  2  1  1  6
  3  2  1  0
  4  5  1  6
  4  2  1  0
  6  7  2  0
  6  4  1  0
  8  6  1  0
  9  8  1  0
  9 14  1  0
  9 10  1  6
 11 10  1  0
 12 11  1  0
 13 12  2  0
 14 17  1  0
 15 14  2  0
 16 12  1  0
 17 18  1  0
 18 21  1  0
 18 19  1  1
 19 20  1  0
 21 22  2  0
 21 23  1  0
M  END
$$$$
