VEC.pdb
     RDKit          3D

 23 22  0  0  1  0  0  0  0  0999 V2000
    7.0469  -14.8466   19.4225 C   0  0  0  0  0  0  0  0  0  0  0  0
    7.5164  -13.4648   19.8258 C   0  0  2  0  0  0  0  0  0  0  0  0
    7.9520  -12.7571   18.5539 C   0  0  0  0  0  0  0  0  0  0  0  0
    8.7485  -13.5970   20.6954 C   0  0  2  0  0  0  0  0  0  0  0  0
    9.6926  -14.4352   19.9718 N   0  0  0  0  0  0  0  0  0  0  0  0
    8.4416  -14.2302   22.0047 C   0  0  0  0  0  0  0  0  0  0  0  0
    7.5636  -13.7390   22.7586 O   0  0  0  0  0  0  0  0  0  0  0  0
    9.1166  -15.3755   22.4229 N   0  0  0  0  0  0  0  0  0  0  0  0
    8.8702  -16.0880   23.6830 C   0  0  1  0  0  0  0  0  0  0  0  0
    9.5627  -17.4181   23.4853 C   0  0  0  0  0  0  0  0  0  0  0  0
   10.9764  -17.2249   23.0974 C   0  0  0  0  0  0  0  0  0  0  0  0
   11.6226  -18.5873   22.9641 C   0  0  0  0  0  0  0  0  0  0  0  0
   12.6847  -18.8476   23.5801 O   0  0  0  0  0  0  0  0  0  0  0  0
    9.3310  -15.3444   24.8356 C   0  0  0  0  0  0  0  0  0  0  0  0
   10.5132  -14.8458   24.7628 O   0  0  0  0  0  0  0  0  0  0  0  0
   11.0068  -19.5125   22.1529 O   0  0  0  0  0  0  0  0  0  0  0  0
    8.6585  -15.0765   26.0481 N   0  0  0  0  0  0  0  0  0  0  0  0
    9.2096  -14.2406   27.0949 C   0  0  1  0  0  0  0  0  0  0  0  0
    8.1783  -13.3042   27.6793 C   0  0  0  0  0  0  0  0  0  0  0  0
    7.3692  -12.4533   26.2886 S   0  0  0  0  0  0  0  0  0  0  0  0
    9.7050  -15.0746   28.2063 C   0  0  0  0  0  0  0  0  0  0  0  0
    9.5211  -16.3119   28.1839 O   0  0  0  0  0  0  0  0  0  0  0  0
   10.3755  -14.5184   29.2856 O   0  0  0  0  0  0  0  0  0  0  0  0
  2  1  1  6
  3  2  1  0
  4  5  1  6
  4  2  1  0
  6  7  2  0
  6  4  1  0
  8  6  1  0
  9  8  1  0
  9 14  1  0
  9 10  1  6
 11 10  1  0
 12 11  1  0
 13 12  2  0
 14 17  1  0
 15 14  2  0
 16 12  1  0
 17 18  1  0
 18 21  1  0
 18 19  1  1
 19 20  1  0
 21 22  2  0
 21 23  1  0
M  END
$$$$
