WST.pdb
     RDKit          3D

 28 29  0  0  1  0  0  0  0  0999 V2000
   27.0836  -23.1996  -16.1344 N   0  0  0  0  0  0  0  0  0  0  0  0
   25.6573  -23.1463  -16.3288 C   0  0  1  0  0  0  0  0  0  0  0  0
   25.0455  -24.4496  -15.9200 C   0  0  0  0  0  0  0  0  0  0  0  0
   25.4782  -25.5034  -16.8851 C   0  0  0  0  0  0  0  0  0  0  0  0
   26.2747  -26.5875  -16.5843 C   0  0  0  0  0  0  0  0  0  0  0  0
   26.4232  -27.3344  -17.6718 N   0  0  0  0  0  0  0  0  0  0  0  0
   25.7514  -26.7836  -18.6926 C   0  0  0  0  0  0  0  0  0  0  0  0
   25.5911  -27.1498  -20.0131 C   0  0  0  0  0  0  0  0  0  0  0  0
   24.8508  -26.4055  -20.8864 C   0  0  0  0  0  0  0  0  0  0  0  0
   24.2580  -25.2590  -20.4059 C   0  0  0  0  0  0  0  0  0  0  0  0
   24.3911  -24.8514  -19.0858 C   0  0  0  0  0  0  0  0  0  0  0  0
   25.1490  -25.6340  -18.2307 C   0  0  0  0  0  0  0  0  0  0  0  0
   25.1258  -22.0042  -15.5330 C   0  0  0  0  0  0  0  0  0  0  0  0
   25.7507  -21.6374  -14.5185 O   0  0  0  0  0  0  0  0  0  0  0  0
   22.1935  -19.7839  -17.0132 O   0  0  0  0  0  0  0  0  0  0  0  0
   23.0356  -19.1202  -16.0919 C   0  0  0  0  0  0  0  0  0  0  0  0
   23.4644  -20.2193  -15.1081 C   0  0  2  0  0  0  0  0  0  0  0  0
   23.9132  -21.3204  -15.9095 N   0  0  0  0  0  0  0  0  0  0  0  0
   22.2282  -20.5534  -14.3429 C   0  0  0  0  0  0  0  0  0  0  0  0
   21.5089  -21.4849  -14.7653 O   0  0  0  0  0  0  0  0  0  0  0  0
   19.3740  -19.7500  -10.3472 C   0  0  0  0  0  0  0  0  0  0  0  0
   20.6514  -19.3893  -11.0855 C   0  0  1  0  0  0  0  0  0  0  0  0
   21.7396  -19.7866  -10.3175 O   0  0  0  0  0  0  0  0  0  0  0  0
   20.6680  -20.1442  -12.4036 C   0  0  2  0  0  0  0  0  0  0  0  0
   21.8494  -19.8601  -13.1717 N   0  0  0  0  0  0  0  0  0  0  0  0
   19.4830  -19.7542  -13.1885 C   0  0  0  0  0  0  0  0  0  0  0  0
   19.5513  -18.6908  -14.0524 O   0  0  0  0  0  0  0  0  0  0  0  0
   18.4146  -20.3886  -13.0702 O   0  0  0  0  0  0  0  0  0  0  0  0
  2  1  1  1
  2  3  1  0
  3  4  1  0
  4 12  1  0
  4  5  2  0
  5  6  1  0
  7  8  2  0
  7  6  1  0
  9  8  1  0
 10  9  2  0
 11 10  1  0
 11 12  2  0
 12  7  1  0
 13 18  1  0
 13  2  1  0
 14 13  2  0
 15 16  1  0
 17 16  1  6
 17 18  1  0
 19 17  1  0
 19 25  1  0
 20 19  2  0
 22 24  1  0
 22 21  1  1
 23 22  1  0
 24 25  1  6
 24 26  1  0
 26 28  2  0
 26 27  1  0
M  END
$$$$
