WST.pdb
     RDKit          3D

 28 29  0  0  1  0  0  0  0  0999 V2000
   28.5519  -21.6353  -10.7290 N   0  0  0  0  0  0  0  0  0  0  0  0
   27.3354  -21.0421  -10.2358 C   0  0  1  0  0  0  0  0  0  0  0  0
   27.6617  -19.8264   -9.4261 C   0  0  0  0  0  0  0  0  0  0  0  0
   28.5032  -20.2388   -8.2639 C   0  0  0  0  0  0  0  0  0  0  0  0
   29.6378  -21.0188   -8.3324 C   0  0  0  0  0  0  0  0  0  0  0  0
   30.1496  -21.1516   -7.1146 N   0  0  0  0  0  0  0  0  0  0  0  0
   29.3924  -20.4852   -6.2318 C   0  0  0  0  0  0  0  0  0  0  0  0
   29.4796  -20.3145   -4.8655 C   0  0  0  0  0  0  0  0  0  0  0  0
   28.5619  -19.5834   -4.1669 C   0  0  0  0  0  0  0  0  0  0  0  0
   27.5285  -19.0107   -4.8747 C   0  0  0  0  0  0  0  0  0  0  0  0
   27.4004  -19.1549   -6.2493 C   0  0  0  0  0  0  0  0  0  0  0  0
   28.3521  -19.9030   -6.9221 C   0  0  0  0  0  0  0  0  0  0  0  0
   26.4718  -20.7200  -11.4065 C   0  0  0  0  0  0  0  0  0  0  0  0
   26.9969  -20.2168  -12.4191 O   0  0  0  0  0  0  0  0  0  0  0  0
   24.1029  -22.8534  -13.2307 O   0  0  0  0  0  0  0  0  0  0  0  0
   24.6766  -21.6296  -13.6448 C   0  0  0  0  0  0  0  0  0  0  0  0
   24.2770  -20.6315  -12.5474 C   0  0  2  0  0  0  0  0  0  0  0  0
   25.0527  -20.9762  -11.3917 N   0  0  0  0  0  0  0  0  0  0  0  0
   22.8194  -20.8626  -12.3304 C   0  0  0  0  0  0  0  0  0  0  0  0
   22.4790  -21.7027  -11.4692 O   0  0  0  0  0  0  0  0  0  0  0  0
   20.1064  -17.7730  -12.6505 C   0  0  0  0  0  0  0  0  0  0  0  0
   19.6723  -19.0397  -13.3673 C   0  0  1  0  0  0  0  0  0  0  0  0
   20.0117  -18.9324  -14.7110 O   0  0  0  0  0  0  0  0  0  0  0  0
   20.4196  -20.2121  -12.7554 C   0  0  2  0  0  0  0  0  0  0  0  0
   21.8244  -20.1716  -13.0574 N   0  0  0  0  0  0  0  0  0  0  0  0
   19.8531  -21.4649  -13.2867 C   0  0  0  0  0  0  0  0  0  0  0  0
   18.7337  -22.0105  -12.7112 O   0  0  0  0  0  0  0  0  0  0  0  0
   20.3888  -22.0332  -14.2603 O   0  0  0  0  0  0  0  0  0  0  0  0
  2  1  1  6
  2  3  1  0
  3  4  1  0
  4 12  1  0
  4  5  2  0
  5  6  1  0
  7  8  2  0
  7  6  1  0
  9  8  1  0
 10  9  2  0
 11 10  1  0
 11 12  2  0
 12  7  1  0
 13 18  1  0
 13  2  1  0
 14 13  2  0
 15 16  1  0
 17 16  1  6
 17 18  1  0
 19 17  1  0
 19 25  1  0
 20 19  2  0
 22 24  1  0
 22 21  1  1
 23 22  1  0
 24 25  1  6
 24 26  1  0
 26 28  2  0
 26 27  1  0
M  END
$$$$
