WST.pdb
     RDKit          3D

 28 29  0  0  1  0  0  0  0  0999 V2000
   26.2250  -22.9494  -11.8353 N   0  0  0  0  0  0  0  0  0  0  0  0
   25.6061  -21.7471  -11.3387 C   0  0  1  0  0  0  0  0  0  0  0  0
   26.5346  -20.5887  -11.5288 C   0  0  0  0  0  0  0  0  0  0  0  0
   27.6714  -20.7261  -10.5707 C   0  0  0  0  0  0  0  0  0  0  0  0
   28.9329  -21.1851  -10.8840 C   0  0  0  0  0  0  0  0  0  0  0  0
   29.6963  -21.1366   -9.7990 N   0  0  0  0  0  0  0  0  0  0  0  0
   28.9849  -20.6601   -8.7677 C   0  0  0  0  0  0  0  0  0  0  0  0
   29.2979  -20.4244   -7.4447 C   0  0  0  0  0  0  0  0  0  0  0  0
   28.3809  -19.9338   -6.5598 C   0  0  0  0  0  0  0  0  0  0  0  0
   27.1127  -19.6758   -7.0309 C   0  0  0  0  0  0  0  0  0  0  0  0
   26.7524  -19.8969   -8.3530 C   0  0  0  0  0  0  0  0  0  0  0  0
   27.7111  -20.3941   -9.2200 C   0  0  0  0  0  0  0  0  0  0  0  0
   24.3185  -21.5576  -12.0642 C   0  0  0  0  0  0  0  0  0  0  0  0
   24.2460  -21.9068  -13.2588 O   0  0  0  0  0  0  0  0  0  0  0  0
   21.3776  -19.5247  -10.3617 O   0  0  0  0  0  0  0  0  0  0  0  0
   20.8408  -20.6063  -11.0968 C   0  0  0  0  0  0  0  0  0  0  0  0
   21.9239  -20.9353  -12.1353 C   0  0  2  0  0  0  0  0  0  0  0  0
   23.1645  -20.9832  -11.4178 N   0  0  0  0  0  0  0  0  0  0  0  0
   21.8833  -19.8023  -13.1047 C   0  0  0  0  0  0  0  0  0  0  0  0
   22.4383  -18.7301  -12.7796 O   0  0  0  0  0  0  0  0  0  0  0  0
   23.1926  -19.2242  -16.5705 C   0  0  0  0  0  0  0  0  0  0  0  0
   21.6773  -19.1848  -16.6661 C   0  0  1  0  0  0  0  0  0  0  0  0
   21.2183  -20.4478  -17.0214 O   0  0  0  0  0  0  0  0  0  0  0  0
   21.1240  -18.8184  -15.2997 C   0  0  2  0  0  0  0  0  0  0  0  0
   21.2460  -19.9008  -14.3617 N   0  0  0  0  0  0  0  0  0  0  0  0
   19.6992  -18.4693  -15.4431 C   0  0  0  0  0  0  0  0  0  0  0  0
   19.3374  -17.3080  -16.0775 O   0  0  0  0  0  0  0  0  0  0  0  0
   18.8180  -19.2274  -14.9885 O   0  0  0  0  0  0  0  0  0  0  0  0
  2  1  1  6
  2  3  1  0
  3  4  1  0
  4 12  1  0
  4  5  2  0
  5  6  1  0
  7  8  2  0
  7  6  1  0
  9  8  1  0
 10  9  2  0
 11 10  1  0
 11 12  2  0
 12  7  1  0
 13 18  1  0
 13  2  1  0
 14 13  2  0
 15 16  1  0
 17 16  1  1
 17 18  1  0
 19 17  1  0
 19 25  1  0
 20 19  2  0
 22 24  1  0
 22 21  1  1
 23 22  1  0
 24 25  1  1
 24 26  1  0
 26 28  2  0
 26 27  1  0
M  END
$$$$
