WST.pdb
     RDKit          3D

 28 29  0  0  1  0  0  0  0  0999 V2000
   25.0469  -26.3038  -18.1154 N   0  0  0  0  0  0  0  0  0  0  0  0
   26.3121  -26.2693  -17.4276 C   0  0  1  0  0  0  0  0  0  0  0  0
   26.0822  -26.3265  -15.9498 C   0  0  0  0  0  0  0  0  0  0  0  0
   25.2621  -25.1452  -15.5484 C   0  0  0  0  0  0  0  0  0  0  0  0
   25.6193  -23.8251  -15.7216 C   0  0  0  0  0  0  0  0  0  0  0  0
   24.6364  -23.0467  -15.2852 N   0  0  0  0  0  0  0  0  0  0  0  0
   23.6316  -23.8046  -14.8239 C   0  0  0  0  0  0  0  0  0  0  0  0
   22.4080  -23.4971  -14.2655 C   0  0  0  0  0  0  0  0  0  0  0  0
   21.5369  -24.4640  -13.8522 C   0  0  0  0  0  0  0  0  0  0  0  0
   21.9186  -25.7778  -14.0102 C   0  0  0  0  0  0  0  0  0  0  0  0
   23.1390  -26.1347  -14.5669 C   0  0  0  0  0  0  0  0  0  0  0  0
   23.9945  -25.1250  -14.9749 C   0  0  0  0  0  0  0  0  0  0  0  0
   27.1316  -27.4157  -17.9116 C   0  0  0  0  0  0  0  0  0  0  0  0
   26.5950  -28.5365  -18.0126 O   0  0  0  0  0  0  0  0  0  0  0  0
   31.1366  -27.1350  -18.2514 O   0  0  0  0  0  0  0  0  0  0  0  0
   30.5605  -27.8436  -19.3305 C   0  0  0  0  0  0  0  0  0  0  0  0
   29.2406  -28.3900  -18.7655 C   0  0  2  0  0  0  0  0  0  0  0  0
   28.5213  -27.2562  -18.2623 N   0  0  0  0  0  0  0  0  0  0  0  0
   29.6467  -29.3225  -17.6743 C   0  0  0  0  0  0  0  0  0  0  0  0
   29.4403  -28.9700  -16.4925 O   0  0  0  0  0  0  0  0  0  0  0  0
   28.0981  -31.1476  -16.0593 C   0  0  0  0  0  0  0  0  0  0  0  0
   28.9567  -32.2379  -16.6765 C   0  0  1  0  0  0  0  0  0  0  0  0
   28.3648  -32.6559  -17.8627 O   0  0  0  0  0  0  0  0  0  0  0  0
   30.3244  -31.6510  -16.9805 C   0  0  2  0  0  0  0  0  0  0  0  0
   30.2491  -30.5745  -17.9301 N   0  0  0  0  0  0  0  0  0  0  0  0
   31.1847  -32.7137  -17.5308 C   0  0  0  0  0  0  0  0  0  0  0  0
   31.7401  -33.6491  -16.6951 O   0  0  0  0  0  0  0  0  0  0  0  0
   31.4111  -32.7665  -18.7572 O   0  0  0  0  0  0  0  0  0  0  0  0
  2  1  1  6
  2  3  1  0
  3  4  1  0
  4 12  1  0
  4  5  2  0
  5  6  1  0
  7  8  2  0
  7  6  1  0
  9  8  1  0
 10  9  2  0
 11 10  1  0
 11 12  2  0
 12  7  1  0
 13 18  1  0
 13  2  1  0
 14 13  2  0
 15 16  1  0
 17 16  1  1
 17 18  1  0
 19 17  1  0
 19 25  1  0
 20 19  2  0
 22 24  1  0
 22 21  1  6
 23 22  1  0
 24 25  1  6
 24 26  1  0
 26 28  2  0
 26 27  1  0
M  END
$$$$
