WST.pdb
     RDKit          3D

 28 29  0  0  1  0  0  0  0  0999 V2000
   24.7215  -20.0681  -16.8357 N   0  0  0  0  0  0  0  0  0  0  0  0
   23.6441  -19.4193  -16.1334 C   0  0  1  0  0  0  0  0  0  0  0  0
   22.6278  -18.9279  -17.1160 C   0  0  0  0  0  0  0  0  0  0  0  0
   23.0535  -17.5854  -17.6118 C   0  0  0  0  0  0  0  0  0  0  0  0
   24.1599  -17.3338  -18.3946 C   0  0  0  0  0  0  0  0  0  0  0  0
   24.2080  -16.0376  -18.6775 N   0  0  0  0  0  0  0  0  0  0  0  0
   23.1682  -15.4125  -18.1076 C   0  0  0  0  0  0  0  0  0  0  0  0
   22.7670  -14.0925  -18.0869 C   0  0  0  0  0  0  0  0  0  0  0  0
   21.6515  -13.6850  -17.4130 C   0  0  0  0  0  0  0  0  0  0  0  0
   20.9243  -14.6433  -16.7425 C   0  0  0  0  0  0  0  0  0  0  0  0
   21.2891  -15.9826  -16.7355 C   0  0  0  0  0  0  0  0  0  0  0  0
   22.4265  -16.3564  -17.4318 C   0  0  0  0  0  0  0  0  0  0  0  0
   23.0650  -20.3985  -15.1712 C   0  0  0  0  0  0  0  0  0  0  0  0
   22.8867  -21.5742  -15.5459 O   0  0  0  0  0  0  0  0  0  0  0  0
   21.1853  -19.6851  -11.2953 O   0  0  0  0  0  0  0  0  0  0  0  0
   22.3380  -20.4707  -11.5244 C   0  0  0  0  0  0  0  0  0  0  0  0
   22.1546  -21.0082  -12.9518 C   0  0  2  0  0  0  0  0  0  0  0  0
   22.7094  -20.0169  -13.8268 N   0  0  0  0  0  0  0  0  0  0  0  0
   20.6791  -21.1425  -13.1249 C   0  0  0  0  0  0  0  0  0  0  0  0
   20.0219  -20.1123  -13.3899 O   0  0  0  0  0  0  0  0  0  0  0  0
   18.6157  -22.6788  -15.5959 C   0  0  0  0  0  0  0  0  0  0  0  0
   18.2358  -23.4272  -14.3300 C   0  0  1  0  0  0  0  0  0  0  0  0
   18.9715  -24.6050  -14.2687 O   0  0  0  0  0  0  0  0  0  0  0  0
   18.5891  -22.5549  -13.1378 C   0  0  2  0  0  0  0  0  0  0  0  0
   20.0094  -22.3803  -13.0007 N   0  0  0  0  0  0  0  0  0  0  0  0
   18.0659  -23.1891  -11.9145 C   0  0  0  0  0  0  0  0  0  0  0  0
   16.7138  -23.3521  -11.7501 O   0  0  0  0  0  0  0  0  0  0  0  0
   18.8496  -23.5794  -11.0249 O   0  0  0  0  0  0  0  0  0  0  0  0
  2  1  1  6
  2  3  1  0
  3  4  1  0
  4 12  1  0
  4  5  2  0
  5  6  1  0
  7  8  2  0
  7  6  1  0
  9  8  1  0
 10  9  2  0
 11 10  1  0
 11 12  2  0
 12  7  1  0
 13 18  1  0
 13  2  1  0
 14 13  2  0
 15 16  1  0
 17 16  1  1
 17 18  1  0
 19 17  1  0
 19 25  1  0
 20 19  2  0
 22 24  1  0
 22 21  1  6
 23 22  1  0
 24 25  1  1
 24 26  1  0
 26 28  2  0
 26 27  1  0
M  END
$$$$
