WST.pdb
     RDKit          3D

 28 29  0  0  1  0  0  0  0  0999 V2000
   25.2450  -20.3169  -11.3623 N   0  0  0  0  0  0  0  0  0  0  0  0
   24.7244  -20.8922  -10.1486 C   0  0  1  0  0  0  0  0  0  0  0  0
   25.2930  -20.1711   -8.9667 C   0  0  0  0  0  0  0  0  0  0  0  0
   26.7623  -20.4305   -8.9110 C   0  0  0  0  0  0  0  0  0  0  0  0
   27.4759  -21.1952   -9.8089 C   0  0  0  0  0  0  0  0  0  0  0  0
   28.7604  -21.1756   -9.4739 N   0  0  0  0  0  0  0  0  0  0  0  0
   28.9295  -20.4219   -8.3784 C   0  0  0  0  0  0  0  0  0  0  0  0
   30.0426  -20.0902   -7.6337 C   0  0  0  0  0  0  0  0  0  0  0  0
   29.9625  -19.2965   -6.5254 C   0  0  0  0  0  0  0  0  0  0  0  0
   28.7190  -18.8275   -6.1640 C   0  0  0  0  0  0  0  0  0  0  0  0
   27.5718  -19.1344   -6.8825 C   0  0  0  0  0  0  0  0  0  0  0  0
   27.6946  -19.9415   -8.0013 C   0  0  0  0  0  0  0  0  0  0  0  0
   23.2379  -20.8034  -10.1967 C   0  0  0  0  0  0  0  0  0  0  0  0
   22.7118  -19.7234  -10.5304 O   0  0  0  0  0  0  0  0  0  0  0  0
   20.6355  -21.6436  -11.6213 O   0  0  0  0  0  0  0  0  0  0  0  0
   20.3157  -20.9471  -10.4335 C   0  0  0  0  0  0  0  0  0  0  0  0
   21.0930  -21.6896   -9.3360 C   0  0  2  0  0  0  0  0  0  0  0  0
   22.4025  -21.9319   -9.8677 N   0  0  0  0  0  0  0  0  0  0  0  0
   20.3357  -22.9563   -9.1190 C   0  0  0  0  0  0  0  0  0  0  0  0
   20.5765  -23.9224   -9.8753 O   0  0  0  0  0  0  0  0  0  0  0  0
   17.3520  -25.6410   -6.2067 C   0  0  0  0  0  0  0  0  0  0  0  0
   18.0952  -24.3316   -6.4067 C   0  0  1  0  0  0  0  0  0  0  0  0
   19.1485  -24.2721   -5.5016 O   0  0  0  0  0  0  0  0  0  0  0  0
   18.6499  -24.3110   -7.8207 C   0  0  2  0  0  0  0  0  0  0  0  0
   19.3677  -23.0972   -8.0996 N   0  0  0  0  0  0  0  0  0  0  0  0
   17.5299  -24.4324   -8.7712 C   0  0  0  0  0  0  0  0  0  0  0  0
   16.7597  -23.3368   -9.0683 O   0  0  0  0  0  0  0  0  0  0  0  0
   17.2783  -25.5306   -9.3083 O   0  0  0  0  0  0  0  0  0  0  0  0
  2  1  1  6
  2  3  1  0
  3  4  1  0
  4 12  1  0
  4  5  2  0
  5  6  1  0
  7  8  2  0
  7  6  1  0
  9  8  1  0
 10  9  2  0
 11 10  1  0
 11 12  2  0
 12  7  1  0
 13 18  1  0
 13  2  1  0
 14 13  2  0
 15 16  1  0
 17 16  1  6
 17 18  1  0
 19 17  1  0
 19 25  1  0
 20 19  2  0
 22 24  1  0
 22 21  1  1
 23 22  1  0
 24 25  1  6
 24 26  1  0
 26 28  2  0
 26 27  1  0
M  END
$$$$
