WST.pdb
     RDKit          3D

 28 29  0  0  1  0  0  0  0  0999 V2000
   27.3175  -19.0668   -9.8830 N   0  0  0  0  0  0  0  0  0  0  0  0
   26.6119  -20.3211   -9.8206 C   0  0  1  0  0  0  0  0  0  0  0  0
   25.9254  -20.4459   -8.4965 C   0  0  0  0  0  0  0  0  0  0  0  0
   26.7904  -19.8246   -7.4501 C   0  0  0  0  0  0  0  0  0  0  0  0
   27.1097  -18.4863   -7.3650 C   0  0  0  0  0  0  0  0  0  0  0  0
   27.8638  -18.2855   -6.2910 N   0  0  0  0  0  0  0  0  0  0  0  0
   28.0604  -19.4484   -5.6540 C   0  0  0  0  0  0  0  0  0  0  0  0
   28.7626  -19.7839   -4.5147 C   0  0  0  0  0  0  0  0  0  0  0  0
   28.8281  -21.0685   -4.0562 C   0  0  0  0  0  0  0  0  0  0  0  0
   28.1629  -22.0378   -4.7738 C   0  0  0  0  0  0  0  0  0  0  0  0
   27.4437  -21.7472   -5.9249 C   0  0  0  0  0  0  0  0  0  0  0  0
   27.4003  -20.4322   -6.3570 C   0  0  0  0  0  0  0  0  0  0  0  0
   25.6491  -20.3658  -10.9568 C   0  0  0  0  0  0  0  0  0  0  0  0
   24.6461  -19.6260  -10.9228 O   0  0  0  0  0  0  0  0  0  0  0  0
   26.1533  -23.0419  -13.7999 O   0  0  0  0  0  0  0  0  0  0  0  0
   25.7095  -21.8324  -14.3818 C   0  0  0  0  0  0  0  0  0  0  0  0
   25.0059  -21.0934  -13.2335 C   0  0  2  0  0  0  0  0  0  0  0  0
   25.8523  -21.2402  -12.0855 N   0  0  0  0  0  0  0  0  0  0  0  0
   23.7043  -21.8016  -13.0615 C   0  0  0  0  0  0  0  0  0  0  0  0
   23.6761  -22.8083  -12.3205 O   0  0  0  0  0  0  0  0  0  0  0  0
   18.7824  -21.7725  -13.6500 C   0  0  0  0  0  0  0  0  0  0  0  0
   20.0950  -21.0301  -13.8305 C   0  0  1  0  0  0  0  0  0  0  0  0
   20.1350  -19.9676  -12.9352 O   0  0  0  0  0  0  0  0  0  0  0  0
   21.2307  -21.9894  -13.5184 C   0  0  2  0  0  0  0  0  0  0  0  0
   22.5182  -21.3767  -13.7008 N   0  0  0  0  0  0  0  0  0  0  0  0
   21.1259  -23.1556  -14.4135 C   0  0  0  0  0  0  0  0  0  0  0  0
   21.7623  -23.1477  -15.6288 O   0  0  0  0  0  0  0  0  0  0  0  0
   20.4588  -24.1531  -14.0700 O   0  0  0  0  0  0  0  0  0  0  0  0
  2  1  1  1
  2  3  1  0
  3  4  1  0
  4 12  1  0
  4  5  2  0
  5  6  1  0
  7  8  2  0
  7  6  1  0
  9  8  1  0
 10  9  2  0
 11 10  1  0
 11 12  2  0
 12  7  1  0
 13 18  1  0
 13  2  1  0
 14 13  2  0
 15 16  1  0
 17 16  1  6
 17 18  1  0
 19 17  1  0
 19 25  1  0
 20 19  2  0
 22 24  1  0
 22 21  1  1
 23 22  1  0
 24 25  1  6
 24 26  1  0
 26 28  2  0
 26 27  1  0
M  END
$$$$
