WST.pdb
     RDKit          3D

 28 29  0  0  1  0  0  0  0  0999 V2000
-19881.8926 2026.264940564.6484 N   0  0  0  0  0  0  0  0  0  0  0  0
-19881.5840 2025.844740563.3008 C   0  0  1  0  0  0  0  0  0  0  0  0
-19880.2207 2026.308840562.9297 C   0  0  0  0  0  0  0  0  0  0  0  0
-19879.2715 2025.856240563.9883 C   0  0  0  0  0  0  0  0  0  0  0  0
-19878.6113 2026.677040564.8867 C   0  0  0  0  0  0  0  0  0  0  0  0
-19877.8887 2025.923140565.7148 N   0  0  0  0  0  0  0  0  0  0  0  0
-19878.0586 2024.629440565.3945 C   0  0  0  0  0  0  0  0  0  0  0  0
-19877.5039 2023.475640565.9375 C   0  0  0  0  0  0  0  0  0  0  0  0
-19877.7988 2022.244440565.4336 C   0  0  0  0  0  0  0  0  0  0  0  0
-19878.6602 2022.198240564.3633 C   0  0  0  0  0  0  0  0  0  0  0  0
-19879.2383 2023.321540563.7852 C   0  0  0  0  0  0  0  0  0  0  0  0
-19878.9043 2024.552540564.3281 C   0  0  0  0  0  0  0  0  0  0  0  0
-19881.7344 2024.366240563.2344 C   0  0  0  0  0  0  0  0  0  0  0  0
-19880.7676 2023.658940563.5820 O   0  0  0  0  0  0  0  0  0  0  0  0
-19884.0098 2021.814040563.3750 O   0  0  0  0  0  0  0  0  0  0  0  0
-19884.9805 2022.832040563.6133 C   0  0  0  0  0  0  0  0  0  0  0  0
-19884.1973 2024.136540563.3867 C   0  0  2  0  0  0  0  0  0  0  0  0
-19882.9473 2023.750040562.7773 N   0  0  0  0  0  0  0  0  0  0  0  0
-19883.9961 2024.705140564.7422 C   0  0  0  0  0  0  0  0  0  0  0  0
-19883.6211 2023.923840565.6484 O   0  0  0  0  0  0  0  0  0  0  0  0
-19886.6484 2026.227540564.3438 C   0  0  0  0  0  0  0  0  0  0  0  0
-19886.4746 2026.715140565.7539 C   0  0  1  0  0  0  0  0  0  0  0  0
-19887.2695 2025.965140566.6094 O   0  0  0  0  0  0  0  0  0  0  0  0
-19885.0137 2026.526940566.1602 C   0  0  2  0  0  0  0  0  0  0  0  0
-19884.2266 2026.063740565.0391 N   0  0  0  0  0  0  0  0  0  0  0  0
-19884.9258 2025.528640567.2500 C   0  0  0  0  0  0  0  0  0  0  0  0
-19885.5977 2024.354740567.1445 O   0  0  0  0  0  0  0  0  0  0  0  0
-19884.2656 2025.788140568.2734 O   0  0  0  0  0  0  0  0  0  0  0  0
  2  1  1  1
  2  3  1  0
  3  4  1  0
  4 12  1  0
  4  5  2  0
  5  6  1  0
  7  8  2  0
  7  6  1  0
  9  8  1  0
 10  9  2  0
 11 10  1  0
 11 12  2  0
 12  7  1  0
 13 18  1  0
 13  2  1  0
 14 13  2  0
 15 16  1  0
 17 16  1  1
 17 18  1  0
 19 17  1  0
 19 25  1  0
 20 19  2  0
 22 24  1  0
 22 21  1  6
 23 22  1  0
 24 25  1  6
 24 26  1  0
 26 28  2  0
 26 27  1  0
M  END
$$$$
