WST.pdb
     RDKit          3D

 28 29  0  0  1  0  0  0  0  0999 V2000
   24.9652  -24.0668  -18.5360 N   0  0  0  0  0  0  0  0  0  0  0  0
   24.5505  -25.0772  -17.5968 C   0  0  1  0  0  0  0  0  0  0  0  0
   25.2249  -24.8467  -16.2807 C   0  0  0  0  0  0  0  0  0  0  0  0
   26.6317  -25.3382  -16.3728 C   0  0  0  0  0  0  0  0  0  0  0  0
   27.7478  -24.5470  -16.5419 C   0  0  0  0  0  0  0  0  0  0  0  0
   28.8307  -25.3149  -16.5413 N   0  0  0  0  0  0  0  0  0  0  0  0
   28.4746  -26.5968  -16.3778 C   0  0  0  0  0  0  0  0  0  0  0  0
   29.2003  -27.7687  -16.3153 C   0  0  0  0  0  0  0  0  0  0  0  0
   28.6003  -28.9842  -16.1501 C   0  0  0  0  0  0  0  0  0  0  0  0
   27.2273  -29.0101  -16.0458 C   0  0  0  0  0  0  0  0  0  0  0  0
   26.4562  -27.8573  -16.1027 C   0  0  0  0  0  0  0  0  0  0  0  0
   27.1020  -26.6436  -16.2699 C   0  0  0  0  0  0  0  0  0  0  0  0
   23.0660  -25.0196  -17.4829 C   0  0  0  0  0  0  0  0  0  0  0  0
   22.4743  -23.9912  -17.8659 O   0  0  0  0  0  0  0  0  0  0  0  0
   20.4526  -27.3073  -15.0633 O   0  0  0  0  0  0  0  0  0  0  0  0
   20.3704  -27.4136  -16.4706 C   0  0  0  0  0  0  0  0  0  0  0  0
   20.8745  -26.0567  -16.9848 C   0  0  2  0  0  0  0  0  0  0  0  0
   22.3064  -26.1201  -16.9430 N   0  0  0  0  0  0  0  0  0  0  0  0
   20.3319  -25.0553  -16.0214 C   0  0  0  0  0  0  0  0  0  0  0  0
   20.9717  -24.8464  -14.9676 O   0  0  0  0  0  0  0  0  0  0  0  0
   16.9006  -22.7117  -17.0951 C   0  0  0  0  0  0  0  0  0  0  0  0
   18.0856  -22.1306  -16.3435 C   0  0  1  0  0  0  0  0  0  0  0  0
   17.6362  -21.0975  -15.5293 O   0  0  0  0  0  0  0  0  0  0  0  0
   18.6825  -23.2261  -15.4769 C   0  0  2  0  0  0  0  0  0  0  0  0
   19.1340  -24.3448  -16.2586 N   0  0  0  0  0  0  0  0  0  0  0  0
   17.6563  -23.6910  -14.5265 C   0  0  0  0  0  0  0  0  0  0  0  0
   17.1690  -22.8368  -13.5701 O   0  0  0  0  0  0  0  0  0  0  0  0
   17.2277  -24.8617  -14.5880 O   0  0  0  0  0  0  0  0  0  0  0  0
  2  1  1  6
  2  3  1  0
  3  4  1  0
  4 12  1  0
  4  5  2  0
  5  6  1  0
  7  8  2  0
  7  6  1  0
  9  8  1  0
 10  9  2  0
 11 10  1  0
 11 12  2  0
 12  7  1  0
 13 18  1  0
 13  2  1  0
 14 13  2  0
 15 16  1  0
 17 16  1  1
 17 18  1  0
 19 17  1  0
 19 25  1  0
 20 19  2  0
 22 24  1  0
 22 21  1  1
 23 22  1  0
 24 25  1  6
 24 26  1  0
 26 28  2  0
 26 27  1  0
M  END
$$$$
