WST.pdb
     RDKit          3D

 28 29  0  0  1  0  0  0  0  0999 V2000
   27.5748  -22.0886  -13.5027 N   0  0  0  0  0  0  0  0  0  0  0  0
   26.7752  -21.5507  -12.4320 C   0  0  1  0  0  0  0  0  0  0  0  0
   27.3441  -20.2387  -11.9903 C   0  0  0  0  0  0  0  0  0  0  0  0
   28.2150  -20.4726  -10.8004 C   0  0  0  0  0  0  0  0  0  0  0  0
   29.5591  -20.7760  -10.8380 C   0  0  0  0  0  0  0  0  0  0  0  0
   30.0179  -20.8775   -9.5963 N   0  0  0  0  0  0  0  0  0  0  0  0
   29.0223  -20.6521   -8.7276 C   0  0  0  0  0  0  0  0  0  0  0  0
   28.9672  -20.6457   -7.3490 C   0  0  0  0  0  0  0  0  0  0  0  0
   27.8086  -20.3936   -6.6716 C   0  0  0  0  0  0  0  0  0  0  0  0
   26.6763  -20.1415   -7.4140 C   0  0  0  0  0  0  0  0  0  0  0  0
   26.6841  -20.1370   -8.8020 C   0  0  0  0  0  0  0  0  0  0  0  0
   27.8791  -20.3960   -9.4523 C   0  0  0  0  0  0  0  0  0  0  0  0
   25.3753  -21.4167  -12.9243 C   0  0  0  0  0  0  0  0  0  0  0  0
   25.1632  -21.4703  -14.1517 O   0  0  0  0  0  0  0  0  0  0  0  0
   21.6654  -20.1623  -10.9738 O   0  0  0  0  0  0  0  0  0  0  0  0
   22.0240  -21.4927  -11.2900 C   0  0  0  0  0  0  0  0  0  0  0  0
   22.9339  -21.3593  -12.5205 C   0  0  2  0  0  0  0  0  0  0  0  0
   24.2702  -21.2278  -12.0173 N   0  0  0  0  0  0  0  0  0  0  0  0
   22.4717  -20.1184  -13.2073 C   0  0  0  0  0  0  0  0  0  0  0  0
   22.8271  -19.0171  -12.7339 O   0  0  0  0  0  0  0  0  0  0  0  0
   23.0302  -18.9442  -16.7308 C   0  0  0  0  0  0  0  0  0  0  0  0
   21.5264  -19.0662  -16.5564 C   0  0  1  0  0  0  0  0  0  0  0  0
   21.1188  -20.3041  -17.0399 O   0  0  0  0  0  0  0  0  0  0  0  0
   21.2113  -18.9809  -15.0729 C   0  0  2  0  0  0  0  0  0  0  0  0
   21.6558  -20.1476  -14.3603 N   0  0  0  0  0  0  0  0  0  0  0  0
   19.7533  -18.8456  -14.9048 C   0  0  0  0  0  0  0  0  0  0  0  0
   19.1284  -17.6737  -15.2484 O   0  0  0  0  0  0  0  0  0  0  0  0
   19.0828  -19.7949  -14.4497 O   0  0  0  0  0  0  0  0  0  0  0  0
  2  1  1  6
  2  3  1  0
  3  4  1  0
  4 12  1  0
  4  5  2  0
  5  6  1  0
  7  8  2  0
  7  6  1  0
  9  8  1  0
 10  9  2  0
 11 10  1  0
 11 12  2  0
 12  7  1  0
 13 18  1  0
 13  2  1  0
 14 13  2  0
 15 16  1  0
 17 16  1  1
 17 18  1  0
 19 17  1  0
 19 25  1  0
 20 19  2  0
 22 24  1  0
 22 21  1  1
 23 22  1  0
 24 25  1  1
 24 26  1  0
 26 28  2  0
 26 27  1  0
M  END
$$$$
