WST.pdb
     RDKit          3D

 28 29  0  0  1  0  0  0  0  0999 V2000
   28.2030  -21.7850  -10.6281 N   0  0  0  0  0  0  0  0  0  0  0  0
   27.0108  -21.1384  -10.1428 C   0  0  1  0  0  0  0  0  0  0  0  0
   27.3824  -19.9001   -9.3888 C   0  0  0  0  0  0  0  0  0  0  0  0
   28.3071  -20.2767   -8.2787 C   0  0  0  0  0  0  0  0  0  0  0  0
   29.4829  -20.9824   -8.4194 C   0  0  0  0  0  0  0  0  0  0  0  0
   30.0644  -21.1016   -7.2319 N   0  0  0  0  0  0  0  0  0  0  0  0
   29.3140  -20.4983   -6.2994 C   0  0  0  0  0  0  0  0  0  0  0  0
   29.4610  -20.3439   -4.9363 C   0  0  0  0  0  0  0  0  0  0  0  0
   28.5370  -19.6831   -4.1783 C   0  0  0  0  0  0  0  0  0  0  0  0
   27.4348  -19.1658   -4.8219 C   0  0  0  0  0  0  0  0  0  0  0  0
   27.2448  -19.2962   -6.1907 C   0  0  0  0  0  0  0  0  0  0  0  0
   28.2050  -19.9721   -6.9249 C   0  0  0  0  0  0  0  0  0  0  0  0
   26.1385  -20.8405  -11.3134 C   0  0  0  0  0  0  0  0  0  0  0  0
   26.6704  -20.4784  -12.3813 O   0  0  0  0  0  0  0  0  0  0  0  0
   23.9128  -22.7351  -13.0149 O   0  0  0  0  0  0  0  0  0  0  0  0
   24.2228  -21.4484  -13.5118 C   0  0  0  0  0  0  0  0  0  0  0  0
   23.9121  -20.5034  -12.3412 C   0  0  2  0  0  0  0  0  0  0  0  0
   24.7035  -20.9615  -11.2366 N   0  0  0  0  0  0  0  0  0  0  0  0
   22.4515  -20.6717  -12.0889 C   0  0  0  0  0  0  0  0  0  0  0  0
   22.0996  -21.3984  -11.1342 O   0  0  0  0  0  0  0  0  0  0  0  0
   19.9963  -17.4716  -12.4921 C   0  0  0  0  0  0  0  0  0  0  0  0
   19.4253  -18.7140  -13.1533 C   0  0  1  0  0  0  0  0  0  0  0  0
   19.7319  -18.6808  -14.5087 O   0  0  0  0  0  0  0  0  0  0  0  0
   20.0796  -19.9314  -12.5229 C   0  0  2  0  0  0  0  0  0  0  0  0
   21.4664  -20.0446  -12.8840 N   0  0  0  0  0  0  0  0  0  0  0  0
   19.3681  -21.1401  -12.9759 C   0  0  0  0  0  0  0  0  0  0  0  0
   18.1145  -21.4199  -12.4943 O   0  0  0  0  0  0  0  0  0  0  0  0
   19.9027  -21.9125  -13.7979 O   0  0  0  0  0  0  0  0  0  0  0  0
  2  1  1  6
  2  3  1  0
  3  4  1  0
  4 12  1  0
  4  5  2  0
  5  6  1  0
  7  8  2  0
  7  6  1  0
  9  8  1  0
 10  9  2  0
 11 10  1  0
 11 12  2  0
 12  7  1  0
 13 18  1  0
 13  2  1  0
 14 13  2  0
 15 16  1  0
 17 16  1  6
 17 18  1  0
 19 17  1  0
 19 25  1  0
 20 19  2  0
 22 24  1  0
 22 21  1  1
 23 22  1  0
 24 25  1  6
 24 26  1  0
 26 28  2  0
 26 27  1  0
M  END
$$$$
