WST.pdb
     RDKit          3D

 28 29  0  0  1  0  0  0  0  0999 V2000
   22.4346   -7.5701  -15.5841 N   0  0  0  0  0  0  0  0  0  0  0  0
   21.3804   -8.3185  -14.9489 C   0  0  1  0  0  0  0  0  0  0  0  0
   21.9584   -9.5146  -14.2597 C   0  0  0  0  0  0  0  0  0  0  0  0
   22.4633  -10.4644  -15.2951 C   0  0  0  0  0  0  0  0  0  0  0  0
   21.7156  -11.0059  -16.3188 C   0  0  0  0  0  0  0  0  0  0  0  0
   22.4958  -11.7747  -17.0690 N   0  0  0  0  0  0  0  0  0  0  0  0
   23.7434  -11.7658  -16.5790 C   0  0  0  0  0  0  0  0  0  0  0  0
   24.9079  -12.3918  -16.9734 C   0  0  0  0  0  0  0  0  0  0  0  0
   26.0813  -12.2343  -16.2928 C   0  0  0  0  0  0  0  0  0  0  0  0
   26.0715  -11.4197  -15.1824 C   0  0  0  0  0  0  0  0  0  0  0  0
   24.9246  -10.7694  -14.7485 C   0  0  0  0  0  0  0  0  0  0  0  0
   23.7545  -10.9536  -15.4663 C   0  0  0  0  0  0  0  0  0  0  0  0
   20.6775   -7.4104  -13.9994 C   0  0  0  0  0  0  0  0  0  0  0  0
   21.3217   -6.9174  -13.0526 O   0  0  0  0  0  0  0  0  0  0  0  0
   17.7794   -5.4667  -15.2496 O   0  0  0  0  0  0  0  0  0  0  0  0
   18.2681   -4.9467  -14.0294 C   0  0  0  0  0  0  0  0  0  0  0  0
   18.6706   -6.1890  -13.2203 C   0  0  2  0  0  0  0  0  0  0  0  0
   19.2791   -7.0932  -14.1522 N   0  0  0  0  0  0  0  0  0  0  0  0
   17.3889   -6.7258  -12.6777 C   0  0  0  0  0  0  0  0  0  0  0  0
   16.7743   -7.5778  -13.3558 O   0  0  0  0  0  0  0  0  0  0  0  0
   16.5226   -8.1500   -9.0750 C   0  0  0  0  0  0  0  0  0  0  0  0
   15.6705   -6.9316   -9.3849 C   0  0  1  0  0  0  0  0  0  0  0  0
   16.2743   -5.8100   -8.8284 O   0  0  0  0  0  0  0  0  0  0  0  0
   15.6063   -6.7675  -10.8936 C   0  0  2  0  0  0  0  0  0  0  0  0
   16.8545   -6.3077  -11.4386 N   0  0  0  0  0  0  0  0  0  0  0  0
   14.5536   -5.7887  -11.2198 C   0  0  0  0  0  0  0  0  0  0  0  0
   14.8911   -4.5658  -11.7418 O   0  0  0  0  0  0  0  0  0  0  0  0
   13.3533   -6.0682  -11.0225 O   0  0  0  0  0  0  0  0  0  0  0  0
  2  1  1  1
  2  3  1  0
  3  4  1  0
  4 12  1  0
  4  5  2  0
  5  6  1  0
  7  8  2  0
  7  6  1  0
  9  8  1  0
 10  9  2  0
 11 10  1  0
 11 12  2  0
 12  7  1  0
 13 18  1  0
 13  2  1  0
 14 13  2  0
 15 16  1  0
 17 16  1  6
 17 18  1  0
 19 17  1  0
 19 25  1  0
 20 19  2  0
 22 24  1  0
 22 21  1  6
 23 22  1  0
 24 25  1  1
 24 26  1  0
 26 28  2  0
 26 27  1  0
M  END
$$$$
