WST.pdb
     RDKit          3D

 28 29  0  0  1  0  0  0  0  0999 V2000
   16.1787  -19.0249    3.3847 N   0  0  0  0  0  0  0  0  0  0  0  0
   16.1609  -20.2442    4.1515 C   0  0  1  0  0  0  0  0  0  0  0  0
   17.0690  -21.2503    3.5165 C   0  0  0  0  0  0  0  0  0  0  0  0
   16.2596  -22.1198    2.6120 C   0  0  0  0  0  0  0  0  0  0  0  0
   15.0394  -21.7890    2.0627 C   0  0  0  0  0  0  0  0  0  0  0  0
   14.6298  -22.7810    1.2813 N   0  0  0  0  0  0  0  0  0  0  0  0
   15.5378  -23.7671    1.2907 C   0  0  0  0  0  0  0  0  0  0  0  0
   15.5900  -24.9967    0.6670 C   0  0  0  0  0  0  0  0  0  0  0  0
   16.6385  -25.8538    0.8423 C   0  0  0  0  0  0  0  0  0  0  0  0
   17.6607  -25.4515    1.6729 C   0  0  0  0  0  0  0  0  0  0  0  0
   17.6516  -24.2240    2.3210 C   0  0  0  0  0  0  0  0  0  0  0  0
   16.5710  -23.3822    2.1167 C   0  0  0  0  0  0  0  0  0  0  0  0
   16.5739  -19.9184    5.5456 C   0  0  0  0  0  0  0  0  0  0  0  0
   17.3959  -18.9990    5.7284 O   0  0  0  0  0  0  0  0  0  0  0  0
   14.9025  -19.2371    9.3978 O   0  0  0  0  0  0  0  0  0  0  0  0
   15.2613  -20.5171    8.9168 C   0  0  0  0  0  0  0  0  0  0  0  0
   16.4620  -20.2545    7.9952 C   0  0  2  0  0  0  0  0  0  0  0  0
   16.0465  -20.6391    6.6778 N   0  0  0  0  0  0  0  0  0  0  0  0
   17.5469  -21.1350    8.5175 C   0  0  0  0  0  0  0  0  0  0  0  0
   17.9469  -22.0698    7.7900 O   0  0  0  0  0  0  0  0  0  0  0  0
   20.8577  -22.1253   12.0887 C   0  0  0  0  0  0  0  0  0  0  0  0
   19.7416  -21.2084   11.6191 C   0  0  1  0  0  0  0  0  0  0  0  0
   20.2809  -19.9616   11.3245 O   0  0  0  0  0  0  0  0  0  0  0  0
   19.1375  -21.8020   10.3581 C   0  0  2  0  0  0  0  0  0  0  0  0
   18.1290  -20.9487    9.7913 N   0  0  0  0  0  0  0  0  0  0  0  0
   18.5302  -23.1033   10.6904 C   0  0  0  0  0  0  0  0  0  0  0  0
   19.2555  -24.2579   10.5398 O   0  0  0  0  0  0  0  0  0  0  0  0
   17.3557  -23.1596   11.1090 O   0  0  0  0  0  0  0  0  0  0  0  0
  2  1  1  6
  2  3  1  0
  3  4  1  0
  4 12  1  0
  4  5  2  0
  5  6  1  0
  7  8  2  0
  7  6  1  0
  9  8  1  0
 10  9  2  0
 11 10  1  0
 11 12  2  0
 12  7  1  0
 13 18  1  0
 13  2  1  0
 14 13  2  0
 15 16  1  0
 17 16  1  1
 17 18  1  0
 19 17  1  0
 19 25  1  0
 20 19  2  0
 22 24  1  0
 22 21  1  6
 23 22  1  0
 24 25  1  1
 24 26  1  0
 26 28  2  0
 26 27  1  0
M  END
$$$$
