NHT.pdb
     RDKit          3D

 26 26  0  0  1  0  0  0  0  0999 V2000
   19.9050  -15.4262  -16.6185 N   0  0  0  0  0  0  0  0  0  0  0  0
   20.9723  -15.3649  -15.6941 C   0  0  0  0  0  0  0  0  0  0  0  0
   21.2443  -16.4379  -15.0601 O   0  0  0  0  0  0  0  0  0  0  0  0
   21.7648  -14.1333  -15.4419 C   0  0  0  0  0  0  0  0  0  0  0  0
   21.1430  -13.0234  -16.2351 C   0  0  2  0  0  0  0  0  0  0  0  0
   21.3494  -13.2656  -17.6421 N   0  0  0  0  0  0  0  0  0  0  0  0
   21.6787  -11.6855  -15.8321 C   0  0  0  0  0  0  0  0  0  0  0  0
   21.5764  -11.3954  -14.6353 O   0  0  0  0  0  0  0  0  0  0  0  0
   22.2602  -10.8159  -16.7555 N   0  0  0  0  0  0  0  0  0  0  0  0
   22.8199   -9.5406  -16.5544 C   0  0  1  0  0  0  0  0  0  0  0  0
   24.2355   -9.3247  -17.0573 C   0  0  0  0  0  0  0  0  0  0  0  0
   25.2287  -10.2498  -16.5238 C   0  0  0  0  0  0  0  0  0  0  0  0
   26.1290   -9.8868  -15.5303 C   0  0  0  0  0  0  0  0  0  0  0  0
   26.8990  -10.9566  -15.2668 N   0  0  0  0  0  0  0  0  0  0  0  0
   26.5278  -11.9734  -16.0448 C   0  0  0  0  0  0  0  0  0  0  0  0
   25.5139  -11.5271  -16.8006 N   0  0  0  0  0  0  0  0  0  0  0  0
   21.9870   -8.4133  -16.9608 C   0  0  0  0  0  0  0  0  0  0  0  0
   21.6719   -8.3389  -18.1978 O   0  0  0  0  0  0  0  0  0  0  0  0
   18.4650   -7.6375  -15.9409 C   0  0  0  0  0  0  0  0  0  0  0  0
   19.3225   -6.4081  -15.7307 C   0  0  1  0  0  0  0  0  0  0  0  0
   19.6134   -6.2747  -14.3898 O   0  0  0  0  0  0  0  0  0  0  0  0
   20.5541   -6.4288  -16.6092 C   0  0  2  0  0  0  0  0  0  0  0  0
   21.5089   -7.4160  -16.1117 N   0  0  0  0  0  0  0  0  0  0  0  0
   21.1520   -5.0731  -16.5484 C   0  0  0  0  0  0  0  0  0  0  0  0
   20.6078   -4.0872  -17.0674 O   0  0  0  0  0  0  0  0  0  0  0  0
   22.3530   -4.9080  -15.8919 O   0  0  0  0  0  0  0  0  0  0  0  0
  2  3  2  0
  2  1  1  0
  4  2  1  0
  5  4  1  0
  5  6  1  6
  7  5  1  0
  7  9  1  0
  8  7  2  0
 10  9  1  0
 11 12  1  0
 10 11  1  6
 12 13  2  0
 13 14  1  0
 15 14  1  0
 16 12  1  0
 16 15  2  0
 17 18  2  0
 17 10  1  0
 20 19  1  1
 20 21  1  0
 22 23  1  1
 22 20  1  0
 23 17  1  0
 24 22  1  0
 25 24  2  0
 26 24  1  0
M  END
$$$$
