NHT.pdb
     RDKit          3D

 26 26  0  0  1  0  0  0  0  0999 V2000
   20.3190  -13.3517  -17.7641 N   0  0  0  0  0  0  0  0  0  0  0  0
   19.5540  -12.3862  -18.4566 C   0  0  0  0  0  0  0  0  0  0  0  0
   19.1324  -12.7120  -19.6156 O   0  0  0  0  0  0  0  0  0  0  0  0
   19.2329  -11.0460  -17.9003 C   0  0  0  0  0  0  0  0  0  0  0  0
   19.8829  -10.9465  -16.5530 C   0  0  2  0  0  0  0  0  0  0  0  0
   19.3343  -11.9557  -15.6804 N   0  0  0  0  0  0  0  0  0  0  0  0
   19.7305   -9.5799  -15.9628 C   0  0  0  0  0  0  0  0  0  0  0  0
   19.1321   -8.7504  -16.6560 O   0  0  0  0  0  0  0  0  0  0  0  0
   20.2355   -9.2613  -14.7016 N   0  0  0  0  0  0  0  0  0  0  0  0
   20.1081   -8.0718  -13.9608 C   0  0  1  0  0  0  0  0  0  0  0  0
   19.9339   -8.2126  -12.4598 C   0  0  0  0  0  0  0  0  0  0  0  0
   18.6399   -8.7330  -12.0338 C   0  0  0  0  0  0  0  0  0  0  0  0
   17.6049   -8.9812  -12.9264 C   0  0  0  0  0  0  0  0  0  0  0  0
   16.5612   -9.4499  -12.2207 N   0  0  0  0  0  0  0  0  0  0  0  0
   16.8886   -9.5087  -10.9299 C   0  0  0  0  0  0  0  0  0  0  0  0
   18.1523   -9.0703  -10.8347 N   0  0  0  0  0  0  0  0  0  0  0  0
   21.1086   -7.0455  -14.2357 C   0  0  0  0  0  0  0  0  0  0  0  0
   22.3275   -7.3392  -13.9845 O   0  0  0  0  0  0  0  0  0  0  0  0
   21.8483   -5.1648  -17.5845 C   0  0  0  0  0  0  0  0  0  0  0  0
   21.6687   -4.2101  -16.4238 C   0  0  1  0  0  0  0  0  0  0  0  0
   20.4174   -3.6356  -16.4909 O   0  0  0  0  0  0  0  0  0  0  0  0
   21.9453   -4.8841  -15.0978 C   0  0  2  0  0  0  0  0  0  0  0  0
   20.8429   -5.7765  -14.7487 N   0  0  0  0  0  0  0  0  0  0  0  0
   22.0657   -3.8096  -14.0829 C   0  0  0  0  0  0  0  0  0  0  0  0
   21.1943   -3.6126  -13.2229 O   0  0  0  0  0  0  0  0  0  0  0  0
   23.1853   -3.0054  -14.0997 O   0  0  0  0  0  0  0  0  0  0  0  0
  2  3  2  0
  2  1  1  0
  4  2  1  0
  5  4  1  0
  5  6  1  1
  7  5  1  0
  7  9  1  0
  8  7  2  0
 10  9  1  0
 11 12  1  0
 10 11  1  1
 12 13  2  0
 13 14  1  0
 15 14  1  0
 16 12  1  0
 16 15  2  0
 17 18  2  0
 17 10  1  0
 20 19  1  6
 20 21  1  0
 22 23  1  1
 22 20  1  0
 23 17  1  0
 24 22  1  0
 25 24  2  0
 26 24  1  0
M  END
$$$$
