NHT.pdb
     RDKit          3D

 26 26  0  0  1  0  0  0  0  0999 V2000
   18.0313  -34.9586   -9.1598 N   0  0  0  0  0  0  0  0  0  0  0  0
   19.1948  -34.1575   -9.1214 C   0  0  0  0  0  0  0  0  0  0  0  0
   19.0460  -32.9172   -9.3794 O   0  0  0  0  0  0  0  0  0  0  0  0
   20.5442  -34.6917   -8.8010 C   0  0  0  0  0  0  0  0  0  0  0  0
   21.4179  -33.5288   -8.4378 C   0  0  2  0  0  0  0  0  0  0  0  0
   21.7035  -32.7556   -9.6217 N   0  0  0  0  0  0  0  0  0  0  0  0
   22.6783  -33.9709   -7.7632 C   0  0  0  0  0  0  0  0  0  0  0  0
   22.7848  -35.1829   -7.5473 O   0  0  0  0  0  0  0  0  0  0  0  0
   23.6759  -33.0657   -7.3991 N   0  0  0  0  0  0  0  0  0  0  0  0
   24.9381  -33.3075   -6.8261 C   0  0  1  0  0  0  0  0  0  0  0  0
   26.0766  -32.4058   -7.2665 C   0  0  0  0  0  0  0  0  0  0  0  0
   26.4337  -32.5053   -8.6770 C   0  0  0  0  0  0  0  0  0  0  0  0
   25.8587  -33.4404   -9.5282 C   0  0  0  0  0  0  0  0  0  0  0  0
   26.3996  -33.2696  -10.7468 N   0  0  0  0  0  0  0  0  0  0  0  0
   27.2853  -32.2743  -10.7040 C   0  0  0  0  0  0  0  0  0  0  0  0
   27.2931  -31.8225   -9.4415 N   0  0  0  0  0  0  0  0  0  0  0  0
   24.9587  -33.4346   -5.3723 C   0  0  0  0  0  0  0  0  0  0  0  0
   24.6616  -32.3928   -4.6930 O   0  0  0  0  0  0  0  0  0  0  0  0
   23.3039  -36.3634   -3.1546 C   0  0  0  0  0  0  0  0  0  0  0  0
   24.7305  -36.0306   -2.7742 C   0  0  1  0  0  0  0  0  0  0  0  0
   25.5747  -37.0072   -3.2576 O   0  0  0  0  0  0  0  0  0  0  0  0
   25.1162  -34.6361   -3.2168 C   0  0  2  0  0  0  0  0  0  0  0  0
   25.2742  -34.5960   -4.6683 N   0  0  0  0  0  0  0  0  0  0  0  0
   26.4061  -34.3146   -2.5596 C   0  0  0  0  0  0  0  0  0  0  0  0
   27.4713  -34.2503   -3.1911 O   0  0  0  0  0  0  0  0  0  0  0  0
   26.4166  -34.0802   -1.2011 O   0  0  0  0  0  0  0  0  0  0  0  0
  2  3  2  0
  2  1  1  0
  4  2  1  0
  5  4  1  0
  5  6  1  6
  7  5  1  0
  7  9  1  0
  8  7  2  0
 10  9  1  0
 11 12  1  0
 10 11  1  1
 12 13  2  0
 13 14  1  0
 15 14  1  0
 16 12  1  0
 16 15  2  0
 17 18  2  0
 17 10  1  0
 20 19  1  6
 20 21  1  0
 22 23  1  6
 22 20  1  0
 23 17  1  0
 24 22  1  0
 25 24  2  0
 26 24  1  0
M  END
$$$$
