NHT.pdb
     RDKit          3D

 26 26  0  0  1  0  0  0  0  0999 V2000
   19.9743  -12.7123  -18.6450 N   0  0  0  0  0  0  0  0  0  0  0  0
   18.6563  -12.2413  -18.4493 C   0  0  0  0  0  0  0  0  0  0  0  0
   17.7510  -12.7443  -19.1940 O   0  0  0  0  0  0  0  0  0  0  0  0
   18.2981  -11.2126  -17.4382 C   0  0  0  0  0  0  0  0  0  0  0  0
   19.5559  -10.8248  -16.7205 C   0  0  2  0  0  0  0  0  0  0  0  0
   19.9330  -11.8785  -15.8103 N   0  0  0  0  0  0  0  0  0  0  0  0
   19.4064   -9.5192  -16.0046 C   0  0  0  0  0  0  0  0  0  0  0  0
   19.2570   -8.5209  -16.7172 O   0  0  0  0  0  0  0  0  0  0  0  0
   19.4343   -9.4349  -14.6121 N   0  0  0  0  0  0  0  0  0  0  0  0
   19.2764   -8.3111  -13.7801 C   0  0  1  0  0  0  0  0  0  0  0  0
   18.8843   -8.5739  -12.3378 C   0  0  0  0  0  0  0  0  0  0  0  0
   18.5839   -7.3825  -11.5521 C   0  0  0  0  0  0  0  0  0  0  0  0
   18.5546   -6.1099  -12.1079 C   0  0  0  0  0  0  0  0  0  0  0  0
   18.2507   -5.2431  -11.1264 N   0  0  0  0  0  0  0  0  0  0  0  0
   18.0877   -5.9071   -9.9822 C   0  0  0  0  0  0  0  0  0  0  0  0
   18.2934   -7.2031  -10.2587 N   0  0  0  0  0  0  0  0  0  0  0  0
   20.3663   -7.3410  -13.8142 C   0  0  0  0  0  0  0  0  0  0  0  0
   21.4874   -7.7081  -13.3209 O   0  0  0  0  0  0  0  0  0  0  0  0
   22.5124   -6.2155  -16.4299 C   0  0  0  0  0  0  0  0  0  0  0  0
   21.8892   -4.9762  -15.8244 C   0  0  1  0  0  0  0  0  0  0  0  0
   20.8566   -4.5418  -16.6278 O   0  0  0  0  0  0  0  0  0  0  0  0
   21.4720   -5.2050  -14.3882 C   0  0  2  0  0  0  0  0  0  0  0  0
   20.2832   -6.0523  -14.3399 N   0  0  0  0  0  0  0  0  0  0  0  0
   21.1674   -3.8744  -13.8087 C   0  0  0  0  0  0  0  0  0  0  0  0
   20.0079   -3.5120  -13.5599 O   0  0  0  0  0  0  0  0  0  0  0  0
   22.2111   -3.0150  -13.5392 O   0  0  0  0  0  0  0  0  0  0  0  0
  2  3  2  0
  2  1  1  0
  4  2  1  0
  5  4  1  0
  5  6  1  1
  7  5  1  0
  7  9  1  0
  8  7  2  0
 10  9  1  0
 11 12  1  0
 10 11  1  1
 12 13  2  0
 13 14  1  0
 15 14  1  0
 16 12  1  0
 16 15  2  0
 17 18  2  0
 17 10  1  0
 20 19  1  6
 20 21  1  0
 22 23  1  6
 22 20  1  0
 23 17  1  0
 24 22  1  0
 25 24  2  0
 26 24  1  0
M  END
$$$$
