NHT.pdb
     RDKit          3D

 26 26  0  0  1  0  0  0  0  0999 V2000
   14.0277  -15.3094  -13.0382 N   0  0  0  0  0  0  0  0  0  0  0  0
   13.7074  -14.5674  -14.1975 C   0  0  0  0  0  0  0  0  0  0  0  0
   12.4778  -14.5338  -14.5354 O   0  0  0  0  0  0  0  0  0  0  0  0
   14.7203  -13.8470  -15.0121 C   0  0  0  0  0  0  0  0  0  0  0  0
   15.1833  -12.6633  -14.2171 C   0  0  2  0  0  0  0  0  0  0  0  0
   14.0974  -11.7238  -14.0793 N   0  0  0  0  0  0  0  0  0  0  0  0
   16.3838  -12.0162  -14.8331 C   0  0  0  0  0  0  0  0  0  0  0  0
   17.3623  -12.7476  -15.0186 O   0  0  0  0  0  0  0  0  0  0  0  0
   16.3966  -10.6641  -15.1779 N   0  0  0  0  0  0  0  0  0  0  0  0
   17.4044   -9.9107  -15.8078 C   0  0  1  0  0  0  0  0  0  0  0  0
   17.0676   -9.3067  -17.1587 C   0  0  0  0  0  0  0  0  0  0  0  0
   16.6889  -10.2677  -18.1883 C   0  0  0  0  0  0  0  0  0  0  0  0
   17.6263  -10.9791  -18.9262 C   0  0  0  0  0  0  0  0  0  0  0  0
   16.9566  -11.7706  -19.7817 N   0  0  0  0  0  0  0  0  0  0  0  0
   15.6458  -11.5922  -19.6183 C   0  0  0  0  0  0  0  0  0  0  0  0
   15.5016  -10.6777  -18.6483 N   0  0  0  0  0  0  0  0  0  0  0  0
   18.0520   -8.9010  -14.9764 C   0  0  0  0  0  0  0  0  0  0  0  0
   17.3064   -8.2455  -14.1705 O   0  0  0  0  0  0  0  0  0  0  0  0
   21.9895   -6.5374  -13.1295 C   0  0  0  0  0  0  0  0  0  0  0  0
   21.4102   -7.6791  -13.9368 C   0  0  1  0  0  0  0  0  0  0  0  0
   21.7303   -8.8768  -13.3340 O   0  0  0  0  0  0  0  0  0  0  0  0
   19.9249   -7.5046  -14.1657 C   0  0  2  0  0  0  0  0  0  0  0  0
   19.4125   -8.5960  -14.9902 N   0  0  0  0  0  0  0  0  0  0  0  0
   19.7443   -6.2122  -14.8700 C   0  0  0  0  0  0  0  0  0  0  0  0
   19.4850   -6.1504  -16.0811 O   0  0  0  0  0  0  0  0  0  0  0  0
   19.8696   -5.0429  -14.1505 O   0  0  0  0  0  0  0  0  0  0  0  0
  2  3  2  0
  2  1  1  0
  4  2  1  0
  5  4  1  0
  5  6  1  6
  7  5  1  0
  7  9  1  0
  8  7  2  0
 10  9  1  0
 11 12  1  0
 10 11  1  6
 12 13  2  0
 13 14  1  0
 15 14  1  0
 16 12  1  0
 16 15  2  0
 17 18  2  0
 17 10  1  0
 20 19  1  1
 20 21  1  0
 22 23  1  6
 22 20  1  0
 23 17  1  0
 24 22  1  0
 25 24  2  0
 26 24  1  0
M  END
$$$$
