NHT.pdb
     RDKit          3D

 26 26  0  0  1  0  0  0  0  0999 V2000
   17.4884  -13.6466  -15.5276 N   0  0  0  0  0  0  0  0  0  0  0  0
   18.2541  -12.6623  -16.1924 C   0  0  0  0  0  0  0  0  0  0  0  0
   18.2529  -12.6991  -17.4675 O   0  0  0  0  0  0  0  0  0  0  0  0
   19.0367  -11.6180  -15.4813 C   0  0  0  0  0  0  0  0  0  0  0  0
   20.2243  -11.2828  -16.3326 C   0  0  2  0  0  0  0  0  0  0  0  0
   20.9477  -12.4914  -16.6437 N   0  0  0  0  0  0  0  0  0  0  0  0
   21.1128  -10.2749  -15.6738 C   0  0  0  0  0  0  0  0  0  0  0  0
   20.8854  -10.0447  -14.4812 O   0  0  0  0  0  0  0  0  0  0  0  0
   22.1391   -9.6322  -16.3671 N   0  0  0  0  0  0  0  0  0  0  0  0
   23.0346   -8.6413  -15.9242 C   0  0  1  0  0  0  0  0  0  0  0  0
   24.4368   -8.6740  -16.5039 C   0  0  0  0  0  0  0  0  0  0  0  0
   25.2277   -9.8450  -16.1429 C   0  0  0  0  0  0  0  0  0  0  0  0
   24.7907  -10.7843  -15.2176 C   0  0  0  0  0  0  0  0  0  0  0  0
   25.7426  -11.7276  -15.1134 N   0  0  0  0  0  0  0  0  0  0  0  0
   26.7555  -11.4282  -15.9266 C   0  0  0  0  0  0  0  0  0  0  0  0
   26.4264  -10.2836  -16.5430 N   0  0  0  0  0  0  0  0  0  0  0  0
   22.5305   -7.2722  -15.9591 C   0  0  0  0  0  0  0  0  0  0  0  0
   22.5082   -6.6893  -17.0970 O   0  0  0  0  0  0  0  0  0  0  0  0
   19.1545   -6.0727  -15.4683 C   0  0  0  0  0  0  0  0  0  0  0  0
   20.0391   -5.2406  -14.5649 C   0  0  1  0  0  0  0  0  0  0  0  0
   19.9012   -5.6718  -13.2629 O   0  0  0  0  0  0  0  0  0  0  0  0
   21.4750   -5.2328  -15.0418 C   0  0  2  0  0  0  0  0  0  0  0  0
   22.0727   -6.5526  -14.8561 N   0  0  0  0  0  0  0  0  0  0  0  0
   22.1981   -4.2313  -14.2213 C   0  0  0  0  0  0  0  0  0  0  0  0
   22.0484   -3.0112  -14.3846 O   0  0  0  0  0  0  0  0  0  0  0  0
   23.0647   -4.6760  -13.2456 O   0  0  0  0  0  0  0  0  0  0  0  0
  2  3  2  0
  2  1  1  0
  4  2  1  0
  5  4  1  0
  5  6  1  1
  7  5  1  0
  7  9  1  0
  8  7  2  0
 10  9  1  0
 11 12  1  0
 10 11  1  6
 12 13  2  0
 13 14  1  0
 15 14  1  0
 16 12  1  0
 16 15  2  0
 17 18  2  0
 17 10  1  0
 20 19  1  6
 20 21  1  0
 22 23  1  1
 22 20  1  0
 23 17  1  0
 24 22  1  0
 25 24  2  0
 26 24  1  0
M  END
$$$$
