LDY.pdb
     RDKit          3D

 29 29  0  0  1  0  0  0  0  0999 V2000
    6.2436  -12.9217   18.8416 C   0  0  0  0  0  0  0  0  0  0  0  0
    7.6857  -13.2591   18.7519 C   0  0  1  0  0  0  0  0  0  0  0  0
    8.4909  -11.9641   18.7268 C   0  0  0  0  0  0  0  0  0  0  0  0
    8.2330  -14.2472   19.6971 C   0  0  0  0  0  0  0  0  0  0  0  0
    9.6906  -14.5259   19.7112 C   0  0  2  0  0  0  0  0  0  0  0  0
   10.1363  -14.9204   18.3601 N   0  0  0  0  0  0  0  0  0  0  0  0
   10.1558  -15.5693   20.6422 C   0  0  0  0  0  0  0  0  0  0  0  0
    9.6485  -15.7869   21.7822 O   0  0  0  0  0  0  0  0  0  0  0  0
   11.2526  -16.4672   20.3460 N   0  0  0  0  0  0  0  0  0  0  0  0
   11.7341  -17.4568   21.2480 C   0  0  1  0  0  0  0  0  0  0  0  0
   12.8469  -18.3291   20.7282 C   0  0  0  0  0  0  0  0  0  0  0  0
   12.3497  -19.0857   19.5658 C   0  0  0  0  0  0  0  0  0  0  0  0
   11.1408  -19.3395   19.3377 O   0  0  0  0  0  0  0  0  0  0  0  0
   12.0507  -16.9020   22.5977 C   0  0  0  0  0  0  0  0  0  0  0  0
   13.0397  -16.1255   22.6838 O   0  0  0  0  0  0  0  0  0  0  0  0
   13.2701  -19.5730   18.6291 O   0  0  0  0  0  0  0  0  0  0  0  0
   10.7737  -14.4463   31.0705 O   0  0  0  0  0  0  0  0  0  0  0  0
   10.6815  -14.8942   29.7408 C   0  0  0  0  0  0  0  0  0  0  0  0
   10.4834  -16.2134   29.4154 C   0  0  0  0  0  0  0  0  0  0  0  0
   10.4003  -16.6003   28.0767 C   0  0  0  0  0  0  0  0  0  0  0  0
   10.5146  -15.6763   27.0598 C   0  0  0  0  0  0  0  0  0  0  0  0
   10.4230  -16.1168   25.6718 C   0  0  0  0  0  0  0  0  0  0  0  0
   11.6951  -16.6849   25.0919 C   0  0  2  0  0  0  0  0  0  0  0  0
   11.3330  -17.1837   23.7609 N   0  0  0  0  0  0  0  0  0  0  0  0
   12.3119  -17.7344   25.9153 C   0  0  0  0  0  0  0  0  0  0  0  0
   11.9955  -18.9625   25.8903 O   0  0  0  0  0  0  0  0  0  0  0  0
   10.7128  -14.3616   27.4003 C   0  0  0  0  0  0  0  0  0  0  0  0
   10.7990  -13.9491   28.7269 C   0  0  0  0  0  0  0  0  0  0  0  0
   13.3184  -17.3670   26.7911 O   0  0  0  0  0  0  0  0  0  0  0  0
  2  4  1  0
  2  1  1  1
  3  2  1  0
  5  7  1  0
  5  6  1  6
  5  4  1  0
  7  8  2  0
  9  7  1  0
 10  9  1  0
 10 11  1  6
 12 11  1  0
 13 12  2  0
 14 15  2  0
 14 10  1  0
 16 12  1  0
 17 18  1  0
 18 19  2  0
 19 20  1  0
 21 20  2  0
 21 22  1  0
 23 22  1  1
 23 24  1  0
 23 25  1  0
 24 14  1  0
 25 29  1  0
 26 25  2  0
 27 21  1  0
 28 18  1  0
 28 27  2  0
M  END
$$$$
