LDY.pdb
     RDKit          3D

 29 29  0  0  1  0  0  0  0  0999 V2000
    7.7215  -11.7968   20.1942 C   0  0  0  0  0  0  0  0  0  0  0  0
    7.7767  -13.2472   19.8864 C   0  0  1  0  0  0  0  0  0  0  0  0
    8.7480  -13.4658   18.7310 C   0  0  0  0  0  0  0  0  0  0  0  0
    7.9968  -14.1900   20.9963 C   0  0  0  0  0  0  0  0  0  0  0  0
    8.1077  -15.6436   20.7185 C   0  0  2  0  0  0  0  0  0  0  0  0
    6.7658  -16.2087   20.4740 N   0  0  0  0  0  0  0  0  0  0  0  0
    8.7420  -16.4700   21.7609 C   0  0  0  0  0  0  0  0  0  0  0  0
    8.1228  -17.3023   22.4875 O   0  0  0  0  0  0  0  0  0  0  0  0
   10.1569  -16.4180   22.0649 N   0  0  0  0  0  0  0  0  0  0  0  0
   10.8273  -17.3655   22.8877 C   0  0  1  0  0  0  0  0  0  0  0  0
   11.8744  -18.2029   22.2008 C   0  0  0  0  0  0  0  0  0  0  0  0
   12.4924  -19.0959   23.1964 C   0  0  0  0  0  0  0  0  0  0  0  0
   12.0956  -20.2574   23.4639 O   0  0  0  0  0  0  0  0  0  0  0  0
   11.3420  -16.7670   24.1552 C   0  0  0  0  0  0  0  0  0  0  0  0
   12.4591  -17.1747   24.5728 O   0  0  0  0  0  0  0  0  0  0  0  0
   13.6057  -18.6432   23.9159 O   0  0  0  0  0  0  0  0  0  0  0  0
    5.9890  -10.8797   25.7906 O   0  0  0  0  0  0  0  0  0  0  0  0
    6.5558  -12.1651   25.7302 C   0  0  0  0  0  0  0  0  0  0  0  0
    5.9133  -13.2814   26.2062 C   0  0  0  0  0  0  0  0  0  0  0  0
    6.5254  -14.5329   26.1199 C   0  0  0  0  0  0  0  0  0  0  0  0
    7.7775  -14.6763   25.5605 C   0  0  0  0  0  0  0  0  0  0  0  0
    8.3870  -16.0000   25.4871 C   0  0  0  0  0  0  0  0  0  0  0  0
    9.7900  -16.0934   26.0347 C   0  0  2  0  0  0  0  0  0  0  0  0
   10.6752  -15.7960   24.9035 N   0  0  0  0  0  0  0  0  0  0  0  0
   10.1088  -17.3913   26.6462 C   0  0  0  0  0  0  0  0  0  0  0  0
   10.8137  -17.5542   27.6880 O   0  0  0  0  0  0  0  0  0  0  0  0
    8.4076  -13.5517   25.0894 C   0  0  0  0  0  0  0  0  0  0  0  0
    7.8195  -12.2923   25.1630 C   0  0  0  0  0  0  0  0  0  0  0  0
    9.6064  -18.5335   26.0477 O   0  0  0  0  0  0  0  0  0  0  0  0
  2  4  1  0
  2  1  1  1
  3  2  1  0
  5  7  1  0
  5  6  1  1
  5  4  1  0
  7  8  2  0
  9  7  1  0
 10  9  1  0
 10 11  1  6
 12 11  1  0
 13 12  2  0
 14 15  2  0
 14 10  1  0
 16 12  1  0
 17 18  1  0
 18 19  2  0
 19 20  1  0
 21 20  2  0
 21 22  1  0
 23 22  1  6
 23 24  1  0
 23 25  1  0
 24 14  1  0
 25 29  1  0
 26 25  2  0
 27 21  1  0
 28 18  1  0
 28 27  2  0
M  END
$$$$
