LDY.pdb
     RDKit          3D

 29 29  0  0  1  0  0  0  0  0999 V2000
    8.1618  -12.3655   19.9023 C   0  0  0  0  0  0  0  0  0  0  0  0
    8.0951  -13.7585   20.4088 C   0  0  1  0  0  0  0  0  0  0  0  0
    7.2999  -13.7687   21.7102 C   0  0  0  0  0  0  0  0  0  0  0  0
    7.6738  -14.8212   19.4802 C   0  0  0  0  0  0  0  0  0  0  0  0
    7.6021  -16.2267   19.9511 C   0  0  2  0  0  0  0  0  0  0  0  0
    6.3923  -16.4154   20.7760 N   0  0  0  0  0  0  0  0  0  0  0  0
    8.7451  -16.7194   20.7401 C   0  0  0  0  0  0  0  0  0  0  0  0
    8.6672  -17.1112   21.9421 O   0  0  0  0  0  0  0  0  0  0  0  0
   10.0921  -16.8107   20.2164 N   0  0  0  0  0  0  0  0  0  0  0  0
   11.1913  -17.3479   20.9426 C   0  0  1  0  0  0  0  0  0  0  0  0
   12.4975  -17.4170   20.1951 C   0  0  0  0  0  0  0  0  0  0  0  0
   13.4028  -18.3331   20.9107 C   0  0  0  0  0  0  0  0  0  0  0  0
   14.1930  -17.9925   21.8260 O   0  0  0  0  0  0  0  0  0  0  0  0
   11.3564  -16.7204   22.2874 C   0  0  0  0  0  0  0  0  0  0  0  0
   11.1645  -15.4775   22.3706 O   0  0  0  0  0  0  0  0  0  0  0  0
   13.4069  -19.6905   20.5653 O   0  0  0  0  0  0  0  0  0  0  0  0
    9.5723  -14.2906   30.3040 O   0  0  0  0  0  0  0  0  0  0  0  0
    9.7680  -14.7611   28.9935 C   0  0  0  0  0  0  0  0  0  0  0  0
    9.6984  -13.9416   27.8939 C   0  0  0  0  0  0  0  0  0  0  0  0
    9.9011  -14.4647   26.6157 C   0  0  0  0  0  0  0  0  0  0  0  0
   10.1730  -15.8035   26.4290 C   0  0  0  0  0  0  0  0  0  0  0  0
   10.3791  -16.3157   25.0783 C   0  0  0  0  0  0  0  0  0  0  0  0
   11.7774  -16.7982   24.7797 C   0  0  2  0  0  0  0  0  0  0  0  0
   11.7072  -17.4104   23.4486 N   0  0  0  0  0  0  0  0  0  0  0  0
   12.3142  -17.7328   25.7789 C   0  0  0  0  0  0  0  0  0  0  0  0
   12.1911  -18.9946   25.7389 O   0  0  0  0  0  0  0  0  0  0  0  0
   10.2391  -16.6104   27.5372 C   0  0  0  0  0  0  0  0  0  0  0  0
   10.0412  -16.1143   28.8225 C   0  0  0  0  0  0  0  0  0  0  0  0
   13.0110  -17.2074   26.8530 O   0  0  0  0  0  0  0  0  0  0  0  0
  2  4  1  0
  2  1  1  6
  3  2  1  0
  5  7  1  0
  5  6  1  1
  5  4  1  0
  7  8  2  0
  9  7  1  0
 10  9  1  0
 10 11  1  6
 12 11  1  0
 13 12  2  0
 14 15  2  0
 14 10  1  0
 16 12  1  0
 17 18  1  0
 18 19  2  0
 19 20  1  0
 21 20  2  0
 21 22  1  0
 23 22  1  1
 23 24  1  0
 23 25  1  0
 24 14  1  0
 25 29  1  0
 26 25  2  0
 27 21  1  0
 28 18  1  0
 28 27  2  0
M  END
$$$$
