LDY.pdb
     RDKit          3D

 29 29  0  0  1  0  0  0  0  0999 V2000
    7.6296  -11.5452   25.6605 C   0  0  0  0  0  0  0  0  0  0  0  0
    7.0480  -12.9080   25.7378 C   0  0  1  0  0  0  0  0  0  0  0  0
    5.6217  -12.8023   26.2675 C   0  0  0  0  0  0  0  0  0  0  0  0
    7.1488  -13.7799   24.5551 C   0  0  0  0  0  0  0  0  0  0  0  0
    6.6425  -15.1734   24.6204 C   0  0  2  0  0  0  0  0  0  0  0  0
    6.0672  -15.4332   25.9550 N   0  0  0  0  0  0  0  0  0  0  0  0
    7.6181  -16.2451   24.3534 C   0  0  0  0  0  0  0  0  0  0  0  0
    7.3625  -17.4823   24.4441 O   0  0  0  0  0  0  0  0  0  0  0  0
    8.9864  -15.9926   23.9521 N   0  0  0  0  0  0  0  0  0  0  0  0
    9.5438  -16.4248   22.7164 C   0  0  1  0  0  0  0  0  0  0  0  0
    8.7195  -16.1326   21.4897 C   0  0  0  0  0  0  0  0  0  0  0  0
    9.3726  -16.7528   20.3236 C   0  0  0  0  0  0  0  0  0  0  0  0
   10.0492  -16.1332   19.4655 O   0  0  0  0  0  0  0  0  0  0  0  0
   10.9639  -15.9971   22.5430 C   0  0  0  0  0  0  0  0  0  0  0  0
   11.5895  -16.4643   21.5537 O   0  0  0  0  0  0  0  0  0  0  0  0
    9.2455  -18.1342   20.1295 O   0  0  0  0  0  0  0  0  0  0  0  0
   10.9121  -15.9051   31.1449 O   0  0  0  0  0  0  0  0  0  0  0  0
   10.8417  -15.7689   29.7472 C   0  0  0  0  0  0  0  0  0  0  0  0
   10.8146  -14.5466   29.1222 C   0  0  0  0  0  0  0  0  0  0  0  0
   10.7438  -14.4724   27.7301 C   0  0  0  0  0  0  0  0  0  0  0  0
   10.6995  -15.6134   26.9574 C   0  0  0  0  0  0  0  0  0  0  0  0
   10.6255  -15.4979   25.5047 C   0  0  0  0  0  0  0  0  0  0  0  0
   11.9559  -15.4216   24.7968 C   0  0  2  0  0  0  0  0  0  0  0  0
   11.6404  -15.1237   23.3957 N   0  0  0  0  0  0  0  0  0  0  0  0
   12.7714  -16.6378   24.9224 C   0  0  0  0  0  0  0  0  0  0  0  0
   14.0018  -16.6635   25.2296 O   0  0  0  0  0  0  0  0  0  0  0  0
   10.7268  -16.8280   27.5959 C   0  0  0  0  0  0  0  0  0  0  0  0
   10.7975  -16.9299   28.9823 C   0  0  0  0  0  0  0  0  0  0  0  0
   12.1607  -17.8577   24.6895 O   0  0  0  0  0  0  0  0  0  0  0  0
  2  4  1  0
  2  1  1  6
  3  2  1  0
  5  7  1  0
  5  6  1  1
  5  4  1  0
  7  8  2  0
  9  7  1  0
 10  9  1  0
 10 11  1  6
 12 11  1  0
 13 12  2  0
 14 15  2  0
 14 10  1  0
 16 12  1  0
 17 18  1  0
 18 19  2  0
 19 20  1  0
 21 20  2  0
 21 22  1  0
 23 22  1  1
 23 24  1  0
 23 25  1  0
 24 14  1  0
 25 29  1  0
 26 25  2  0
 27 21  1  0
 28 18  1  0
 28 27  2  0
M  END
$$$$
