LDY.pdb
     RDKit          3D

 29 29  0  0  1  0  0  0  0  0999 V2000
    6.5875  -12.8365   18.0178 C   0  0  0  0  0  0  0  0  0  0  0  0
    7.7831  -13.1708   18.8303 C   0  0  1  0  0  0  0  0  0  0  0  0
    8.5701  -11.8910   19.0926 C   0  0  0  0  0  0  0  0  0  0  0  0
    7.5984  -13.9805   20.0466 C   0  0  0  0  0  0  0  0  0  0  0  0
    8.7315  -14.1696   20.9862 C   0  0  2  0  0  0  0  0  0  0  0  0
   10.0037  -14.1841   20.2372 N   0  0  0  0  0  0  0  0  0  0  0  0
    8.7052  -15.3856   21.8183 C   0  0  0  0  0  0  0  0  0  0  0  0
    7.7263  -15.7343   22.5425 O   0  0  0  0  0  0  0  0  0  0  0  0
    9.8078  -16.3213   21.8935 N   0  0  0  0  0  0  0  0  0  0  0  0
    9.8217  -17.4654   22.7392 C   0  0  1  0  0  0  0  0  0  0  0  0
   10.8482  -18.5151   22.4021 C   0  0  0  0  0  0  0  0  0  0  0  0
   10.6038  -19.7010   23.2416 C   0  0  0  0  0  0  0  0  0  0  0  0
   10.7274  -19.7342   24.4913 O   0  0  0  0  0  0  0  0  0  0  0  0
    9.8494  -17.1106   24.1894 C   0  0  0  0  0  0  0  0  0  0  0  0
   10.8003  -16.3851   24.5869 O   0  0  0  0  0  0  0  0  0  0  0  0
   10.2049  -20.8958   22.6289 O   0  0  0  0  0  0  0  0  0  0  0  0
    7.1906  -10.9436   26.0417 O   0  0  0  0  0  0  0  0  0  0  0  0
    7.2515  -12.3360   26.2277 C   0  0  0  0  0  0  0  0  0  0  0  0
    6.1587  -13.1528   26.0729 C   0  0  0  0  0  0  0  0  0  0  0  0
    6.2785  -14.5293   26.2711 C   0  0  0  0  0  0  0  0  0  0  0  0
    7.4851  -15.0956   26.6240 C   0  0  0  0  0  0  0  0  0  0  0  0
    7.5734  -16.5384   26.8233 C   0  0  0  0  0  0  0  0  0  0  0  0
    8.9265  -17.1449   26.5435 C   0  0  2  0  0  0  0  0  0  0  0  0
    8.9027  -17.5253   25.1271 N   0  0  0  0  0  0  0  0  0  0  0  0
    9.2606  -18.2869   27.4063 C   0  0  0  0  0  0  0  0  0  0  0  0
    9.5177  -18.2146   28.6463 O   0  0  0  0  0  0  0  0  0  0  0  0
    8.5685  -14.2668   26.7755 C   0  0  0  0  0  0  0  0  0  0  0  0
    8.4762  -12.8913   26.5835 C   0  0  0  0  0  0  0  0  0  0  0  0
    9.3014  -19.5457   26.8328 O   0  0  0  0  0  0  0  0  0  0  0  0
  2  4  1  0
  2  1  1  1
  3  2  1  0
  5  7  1  0
  5  6  1  6
  5  4  1  0
  7  8  2  0
  9  7  1  0
 10  9  1  0
 10 11  1  6
 12 11  1  0
 13 12  2  0
 14 15  2  0
 14 10  1  0
 16 12  1  0
 17 18  1  0
 18 19  2  0
 19 20  1  0
 21 20  2  0
 21 22  1  0
 23 22  1  1
 23 24  1  0
 23 25  1  0
 24 14  1  0
 25 29  1  0
 26 25  2  0
 27 21  1  0
 28 18  1  0
 28 27  2  0
M  END
$$$$
