LDY.pdb
     RDKit          3D

 29 29  0  0  1  0  0  0  0  0999 V2000
    8.1399  -12.9715   19.5075 C   0  0  0  0  0  0  0  0  0  0  0  0
    7.9345  -13.7876   20.7295 C   0  0  1  0  0  0  0  0  0  0  0  0
    6.9379  -13.0711   21.6348 C   0  0  0  0  0  0  0  0  0  0  0  0
    7.6269  -15.2192   20.5711 C   0  0  0  0  0  0  0  0  0  0  0  0
    7.4716  -16.0776   21.7717 C   0  0  2  0  0  0  0  0  0  0  0  0
    6.8702  -15.2955   22.8700 N   0  0  0  0  0  0  0  0  0  0  0  0
    8.6974  -16.6991   22.3038 C   0  0  0  0  0  0  0  0  0  0  0  0
    8.8625  -17.9471   22.4435 O   0  0  0  0  0  0  0  0  0  0  0  0
    9.8558  -15.9390   22.7249 N   0  0  0  0  0  0  0  0  0  0  0  0
   11.0207  -16.5201   23.2991 C   0  0  1  0  0  0  0  0  0  0  0  0
   12.3307  -15.8989   22.8898 C   0  0  0  0  0  0  0  0  0  0  0  0
   12.5664  -16.1903   21.4649 C   0  0  0  0  0  0  0  0  0  0  0  0
   12.3045  -17.2825   20.9022 O   0  0  0  0  0  0  0  0  0  0  0  0
   10.9195  -16.6712   24.7812 C   0  0  0  0  0  0  0  0  0  0  0  0
   11.9989  -16.7476   25.4274 O   0  0  0  0  0  0  0  0  0  0  0  0
   13.1251  -15.1957   20.6521 O   0  0  0  0  0  0  0  0  0  0  0  0
    6.6674  -11.2148   25.4236 O   0  0  0  0  0  0  0  0  0  0  0  0
    7.0242  -12.4999   25.8687 C   0  0  0  0  0  0  0  0  0  0  0  0
    6.2784  -13.6168   25.5827 C   0  0  0  0  0  0  0  0  0  0  0  0
    6.6814  -14.8681   26.0522 C   0  0  0  0  0  0  0  0  0  0  0  0
    7.8264  -15.0106   26.8070 C   0  0  0  0  0  0  0  0  0  0  0  0
    8.2171  -16.3341   27.2811 C   0  0  0  0  0  0  0  0  0  0  0  0
    9.6338  -16.7411   26.9576 C   0  0  2  0  0  0  0  0  0  0  0  0
    9.7211  -16.7346   25.4934 N   0  0  0  0  0  0  0  0  0  0  0  0
   10.0260  -18.0416   27.5186 C   0  0  0  0  0  0  0  0  0  0  0  0
   10.2791  -18.2629   28.7417 O   0  0  0  0  0  0  0  0  0  0  0  0
    8.5615  -13.8855   27.0852 C   0  0  0  0  0  0  0  0  0  0  0  0
    8.1821  -12.6263   26.6292 C   0  0  0  0  0  0  0  0  0  0  0  0
   10.1311  -19.1178   26.6549 O   0  0  0  0  0  0  0  0  0  0  0  0
  2  4  1  0
  2  1  1  6
  3  2  1  0
  5  7  1  0
  5  6  1  1
  5  4  1  0
  7  8  2  0
  9  7  1  0
 10  9  1  0
 10 11  1  1
 12 11  1  0
 13 12  2  0
 14 15  2  0
 14 10  1  0
 16 12  1  0
 17 18  1  0
 18 19  2  0
 19 20  1  0
 21 20  2  0
 21 22  1  0
 23 22  1  6
 23 24  1  0
 23 25  1  0
 24 14  1  0
 25 29  1  0
 26 25  2  0
 27 21  1  0
 28 18  1  0
 28 27  2  0
M  END
$$$$
