LDY.pdb
     RDKit          3D

 29 29  0  0  1  0  0  0  0  0999 V2000
    8.1443  -12.4809   19.8125 C   0  0  0  0  0  0  0  0  0  0  0  0
    7.2674  -13.6443   19.5314 C   0  0  1  0  0  0  0  0  0  0  0  0
    7.0709  -13.7561   18.0231 C   0  0  0  0  0  0  0  0  0  0  0  0
    7.5977  -14.9365   20.1561 C   0  0  0  0  0  0  0  0  0  0  0  0
    7.4983  -15.0909   21.6287 C   0  0  2  0  0  0  0  0  0  0  0  0
    7.6016  -13.7686   22.2772 N   0  0  0  0  0  0  0  0  0  0  0  0
    8.4943  -15.9670   22.2709 C   0  0  0  0  0  0  0  0  0  0  0  0
    8.2655  -17.1561   22.6423 O   0  0  0  0  0  0  0  0  0  0  0  0
    9.8554  -15.5557   22.5451 N   0  0  0  0  0  0  0  0  0  0  0  0
   10.8014  -16.3570   23.2432 C   0  0  1  0  0  0  0  0  0  0  0  0
   12.2432  -16.1510   22.8583 C   0  0  0  0  0  0  0  0  0  0  0  0
   12.7686  -17.4113   22.3048 C   0  0  0  0  0  0  0  0  0  0  0  0
   12.1806  -18.5201   22.3592 O   0  0  0  0  0  0  0  0  0  0  0  0
   10.6128  -16.3142   24.7238 C   0  0  0  0  0  0  0  0  0  0  0  0
   11.4327  -15.6262   25.3893 O   0  0  0  0  0  0  0  0  0  0  0  0
   14.0154  -17.4046   21.6663 O   0  0  0  0  0  0  0  0  0  0  0  0
    7.0413  -11.1471   26.6863 O   0  0  0  0  0  0  0  0  0  0  0  0
    7.3453  -12.5119   26.8348 C   0  0  0  0  0  0  0  0  0  0  0  0
    8.6004  -12.9596   27.1659 C   0  0  0  0  0  0  0  0  0  0  0  0
    8.8442  -14.3276   27.2994 C   0  0  0  0  0  0  0  0  0  0  0  0
    7.8404  -15.2523   27.1033 C   0  0  0  0  0  0  0  0  0  0  0  0
    8.1316  -16.6745   27.2510 C   0  0  0  0  0  0  0  0  0  0  0  0
    9.5343  -17.0862   26.8768 C   0  0  2  0  0  0  0  0  0  0  0  0
    9.5997  -16.9797   25.4154 N   0  0  0  0  0  0  0  0  0  0  0  0
    9.9073  -18.4302   27.3400 C   0  0  0  0  0  0  0  0  0  0  0  0
   10.0685  -19.4418   26.5918 O   0  0  0  0  0  0  0  0  0  0  0  0
    6.5912  -14.7901   26.7724 C   0  0  0  0  0  0  0  0  0  0  0  0
    6.3214  -13.4316   26.6334 C   0  0  0  0  0  0  0  0  0  0  0  0
   10.1006  -18.6205   28.6970 O   0  0  0  0  0  0  0  0  0  0  0  0
  2  4  1  0
  2  1  1  6
  3  2  1  0
  5  7  1  0
  5  6  1  1
  5  4  1  0
  7  8  2  0
  9  7  1  0
 10  9  1  0
 10 11  1  1
 12 11  1  0
 13 12  2  0
 14 15  2  0
 14 10  1  0
 16 12  1  0
 17 18  1  0
 18 19  2  0
 19 20  1  0
 21 20  2  0
 21 22  1  0
 23 22  1  6
 23 24  1  0
 23 25  1  0
 24 14  1  0
 25 29  1  0
 26 25  2  0
 27 21  1  0
 28 18  1  0
 28 27  2  0
M  END
$$$$
