LDY.pdb
     RDKit          3D

 29 29  0  0  1  0  0  0  0  0999 V2000
    8.0207  -12.2467   25.5724 C   0  0  0  0  0  0  0  0  0  0  0  0
    7.4302  -13.5908   25.7873 C   0  0  1  0  0  0  0  0  0  0  0  0
    6.5902  -13.5587   27.0599 C   0  0  0  0  0  0  0  0  0  0  0  0
    6.7297  -14.2351   24.6633 C   0  0  0  0  0  0  0  0  0  0  0  0
    6.6851  -15.7158   24.5731 C   0  0  2  0  0  0  0  0  0  0  0  0
    6.8860  -16.3035   25.9125 N   0  0  0  0  0  0  0  0  0  0  0  0
    7.6596  -16.3534   23.6700 C   0  0  0  0  0  0  0  0  0  0  0  0
    7.6070  -17.5645   23.3031 O   0  0  0  0  0  0  0  0  0  0  0  0
    8.7908  -15.6526   23.0988 N   0  0  0  0  0  0  0  0  0  0  0  0
    9.7725  -16.2694   22.2739 C   0  0  1  0  0  0  0  0  0  0  0  0
   10.1029  -15.5428   20.9963 C   0  0  0  0  0  0  0  0  0  0  0  0
   11.0420  -16.3661   20.2146 C   0  0  0  0  0  0  0  0  0  0  0  0
   11.2161  -17.6004   20.3698 O   0  0  0  0  0  0  0  0  0  0  0  0
   11.0038  -16.6493   23.0283 C   0  0  0  0  0  0  0  0  0  0  0  0
   12.0870  -16.1134   22.6703 O   0  0  0  0  0  0  0  0  0  0  0  0
   11.8138  -15.7545   19.2184 O   0  0  0  0  0  0  0  0  0  0  0  0
   10.7187  -14.3011   31.2097 O   0  0  0  0  0  0  0  0  0  0  0  0
   10.6570  -14.6946   29.8612 C   0  0  0  0  0  0  0  0  0  0  0  0
   10.3922  -13.8120   28.8432 C   0  0  0  0  0  0  0  0  0  0  0  0
   10.3430  -14.2600   27.5220 C   0  0  0  0  0  0  0  0  0  0  0  0
   10.5565  -15.5863   27.2113 C   0  0  0  0  0  0  0  0  0  0  0  0
   10.4970  -16.0191   25.8191 C   0  0  0  0  0  0  0  0  0  0  0  0
   11.3879  -17.1858   25.4695 C   0  0  2  0  0  0  0  0  0  0  0  0
   11.0370  -17.5510   24.0929 N   0  0  0  0  0  0  0  0  0  0  0  0
   11.2618  -18.3301   26.3831 C   0  0  0  0  0  0  0  0  0  0  0  0
   12.1326  -18.6838   27.2349 O   0  0  0  0  0  0  0  0  0  0  0  0
   10.8196  -16.4568   28.2392 C   0  0  0  0  0  0  0  0  0  0  0  0
   10.8746  -16.0361   29.5649 C   0  0  0  0  0  0  0  0  0  0  0  0
   10.1068  -19.0897   26.3190 O   0  0  0  0  0  0  0  0  0  0  0  0
  2  4  1  0
  2  1  1  6
  3  2  1  0
  5  7  1  0
  5  6  1  1
  5  4  1  0
  7  8  2  0
  9  7  1  0
 10  9  1  0
 10 11  1  6
 12 11  1  0
 13 12  2  0
 14 15  2  0
 14 10  1  0
 16 12  1  0
 17 18  1  0
 18 19  2  0
 19 20  1  0
 21 20  2  0
 21 22  1  0
 23 22  1  1
 23 24  1  0
 23 25  1  0
 24 14  1  0
 25 29  1  0
 26 25  2  0
 27 21  1  0
 28 18  1  0
 28 27  2  0
M  END
$$$$
