LDY.pdb
     RDKit          3D

 29 29  0  0  1  0  0  0  0  0999 V2000
    7.5730  -11.9674   20.4967 C   0  0  0  0  0  0  0  0  0  0  0  0
    7.4588  -13.4095   20.1671 C   0  0  1  0  0  0  0  0  0  0  0  0
    7.4555  -13.5662   18.6500 C   0  0  0  0  0  0  0  0  0  0  0  0
    8.3736  -14.3535   20.8312 C   0  0  0  0  0  0  0  0  0  0  0  0
    8.2113  -15.8130   20.6163 C   0  0  2  0  0  0  0  0  0  0  0  0
    6.8979  -16.2499   21.1298 N   0  0  0  0  0  0  0  0  0  0  0  0
    9.2276  -16.6887   21.2263 C   0  0  0  0  0  0  0  0  0  0  0  0
    9.0350  -17.3929   22.2613 O   0  0  0  0  0  0  0  0  0  0  0  0
   10.5675  -16.8393   20.6981 N   0  0  0  0  0  0  0  0  0  0  0  0
   11.6203  -17.5077   21.3832 C   0  0  1  0  0  0  0  0  0  0  0  0
   12.9143  -17.6399   20.6233 C   0  0  0  0  0  0  0  0  0  0  0  0
   13.8073  -18.5464   21.3660 C   0  0  0  0  0  0  0  0  0  0  0  0
   15.0536  -18.4153   21.4525 O   0  0  0  0  0  0  0  0  0  0  0  0
   11.8402  -16.9769   22.7614 C   0  0  0  0  0  0  0  0  0  0  0  0
   12.4649  -15.8873   22.8662 O   0  0  0  0  0  0  0  0  0  0  0  0
   13.2546  -19.6466   22.0340 O   0  0  0  0  0  0  0  0  0  0  0  0
   10.1848  -14.1790   30.8646 O   0  0  0  0  0  0  0  0  0  0  0  0
   10.2264  -14.7373   29.5748 C   0  0  0  0  0  0  0  0  0  0  0  0
   10.1447  -16.0894   29.3497 C   0  0  0  0  0  0  0  0  0  0  0  0
   10.1918  -16.5872   28.0464 C   0  0  0  0  0  0  0  0  0  0  0  0
   10.3207  -15.7414   26.9652 C   0  0  0  0  0  0  0  0  0  0  0  0
   10.3669  -16.2971   25.6168 C   0  0  0  0  0  0  0  0  0  0  0  0
   11.6224  -17.0633   25.2793 C   0  0  2  0  0  0  0  0  0  0  0  0
   11.4059  -17.6007   23.9318 N   0  0  0  0  0  0  0  0  0  0  0  0
   11.9521  -18.1252   26.2403 C   0  0  0  0  0  0  0  0  0  0  0  0
   11.5368  -19.3221   26.1769 O   0  0  0  0  0  0  0  0  0  0  0  0
   10.4015  -14.3926   27.2056 C   0  0  0  0  0  0  0  0  0  0  0  0
   10.3568  -13.8702   28.4950 C   0  0  0  0  0  0  0  0  0  0  0  0
   12.7799  -17.8073   27.3028 O   0  0  0  0  0  0  0  0  0  0  0  0
  2  4  1  0
  2  1  1  6
  3  2  1  0
  5  7  1  0
  5  6  1  1
  5  4  1  0
  7  8  2  0
  9  7  1  0
 10  9  1  0
 10 11  1  6
 12 11  1  0
 13 12  2  0
 14 15  2  0
 14 10  1  0
 16 12  1  0
 17 18  1  0
 18 19  2  0
 19 20  1  0
 21 20  2  0
 21 22  1  0
 23 22  1  1
 23 24  1  0
 23 25  1  0
 24 14  1  0
 25 29  1  0
 26 25  2  0
 27 21  1  0
 28 18  1  0
 28 27  2  0
M  END
$$$$
