LDY.pdb
     RDKit          3D

 29 29  0  0  1  0  0  0  0  0999 V2000
    8.5513  -12.7999   19.5308 C   0  0  0  0  0  0  0  0  0  0  0  0
    7.8789  -13.6616   20.5342 C   0  0  1  0  0  0  0  0  0  0  0  0
    6.9628  -12.7931   21.3901 C   0  0  0  0  0  0  0  0  0  0  0  0
    7.2181  -14.8927   20.0686 C   0  0  0  0  0  0  0  0  0  0  0  0
    8.0165  -15.9521   19.4032 C   0  0  2  0  0  0  0  0  0  0  0  0
    7.1192  -17.0102   18.8983 N   0  0  0  0  0  0  0  0  0  0  0  0
    9.0493  -16.6139   20.2200 C   0  0  0  0  0  0  0  0  0  0  0  0
    8.8036  -17.3832   21.1957 O   0  0  0  0  0  0  0  0  0  0  0  0
   10.4697  -16.4538   19.9879 N   0  0  0  0  0  0  0  0  0  0  0  0
   11.4778  -17.0793   20.7734 C   0  0  1  0  0  0  0  0  0  0  0  0
   12.8202  -17.2377   20.1084 C   0  0  0  0  0  0  0  0  0  0  0  0
   13.6899  -18.0401   20.9863 C   0  0  0  0  0  0  0  0  0  0  0  0
   13.3912  -19.1644   21.4602 O   0  0  0  0  0  0  0  0  0  0  0  0
   11.6026  -16.4801   22.1353 C   0  0  0  0  0  0  0  0  0  0  0  0
   11.6395  -15.2225   22.2102 O   0  0  0  0  0  0  0  0  0  0  0  0
   14.9490  -17.5368   21.3380 O   0  0  0  0  0  0  0  0  0  0  0  0
   10.2806  -14.0714   30.3575 O   0  0  0  0  0  0  0  0  0  0  0  0
   10.3334  -14.5783   29.0471 C   0  0  0  0  0  0  0  0  0  0  0  0
   10.2854  -13.7707   27.9377 C   0  0  0  0  0  0  0  0  0  0  0  0
   10.3413  -14.3303   26.6601 C   0  0  0  0  0  0  0  0  0  0  0  0
   10.4445  -15.6939   26.4838 C   0  0  0  0  0  0  0  0  0  0  0  0
   10.5002  -16.2440   25.1334 C   0  0  0  0  0  0  0  0  0  0  0  0
   11.8796  -16.6129   24.6454 C   0  0  2  0  0  0  0  0  0  0  0  0
   11.6821  -17.2117   23.3211 N   0  0  0  0  0  0  0  0  0  0  0  0
   12.6113  -17.5156   25.5452 C   0  0  0  0  0  0  0  0  0  0  0  0
   13.3869  -17.1457   26.4783 O   0  0  0  0  0  0  0  0  0  0  0  0
   10.4909  -16.4886   27.6018 C   0  0  0  0  0  0  0  0  0  0  0  0
   10.4373  -15.9562   28.8867 C   0  0  0  0  0  0  0  0  0  0  0  0
   12.4503  -18.8790   25.3712 O   0  0  0  0  0  0  0  0  0  0  0  0
  2  4  1  0
  2  1  1  6
  3  2  1  0
  5  7  1  0
  5  6  1  1
  5  4  1  0
  7  8  2  0
  9  7  1  0
 10  9  1  0
 10 11  1  6
 12 11  1  0
 13 12  2  0
 14 15  2  0
 14 10  1  0
 16 12  1  0
 17 18  1  0
 18 19  2  0
 19 20  1  0
 21 20  2  0
 21 22  1  0
 23 22  1  1
 23 24  1  0
 23 25  1  0
 24 14  1  0
 25 29  1  0
 26 25  2  0
 27 21  1  0
 28 18  1  0
 28 27  2  0
M  END
$$$$
