LDY.pdb
     RDKit          3D

 29 29  0  0  1  0  0  0  0  0999 V2000
    7.3111  -12.7317   19.5368 C   0  0  0  0  0  0  0  0  0  0  0  0
    8.0574  -13.9414   19.1111 C   0  0  1  0  0  0  0  0  0  0  0  0
    9.1238  -13.5287   18.1019 C   0  0  0  0  0  0  0  0  0  0  0  0
    8.5817  -14.8422   20.1516 C   0  0  0  0  0  0  0  0  0  0  0  0
    9.3235  -16.0670   19.7617 C   0  0  2  0  0  0  0  0  0  0  0  0
    8.4255  -16.9827   19.0304 N   0  0  0  0  0  0  0  0  0  0  0  0
    9.9386  -16.8436   20.8527 C   0  0  0  0  0  0  0  0  0  0  0  0
    9.2956  -17.5918   21.6471 O   0  0  0  0  0  0  0  0  0  0  0  0
   11.3595  -16.8343   21.1320 N   0  0  0  0  0  0  0  0  0  0  0  0
   11.9330  -17.3067   22.3454 C   0  0  1  0  0  0  0  0  0  0  0  0
   13.4318  -17.4584   22.3444 C   0  0  0  0  0  0  0  0  0  0  0  0
   13.8220  -18.2822   21.1869 C   0  0  0  0  0  0  0  0  0  0  0  0
   13.2138  -19.3109   20.7996 O   0  0  0  0  0  0  0  0  0  0  0  0
   11.4544  -16.5524   23.5419 C   0  0  0  0  0  0  0  0  0  0  0  0
   12.2856  -15.8019   24.1202 O   0  0  0  0  0  0  0  0  0  0  0  0
   14.9524  -17.9174   20.4444 O   0  0  0  0  0  0  0  0  0  0  0  0
    6.1175  -11.1710   27.9719 O   0  0  0  0  0  0  0  0  0  0  0  0
    6.7317  -12.0830   27.0955 C   0  0  0  0  0  0  0  0  0  0  0  0
    6.0214  -13.0103   26.3737 C   0  0  0  0  0  0  0  0  0  0  0  0
    6.6854  -13.8915   25.5187 C   0  0  0  0  0  0  0  0  0  0  0  0
    8.0566  -13.8522   25.3804 C   0  0  0  0  0  0  0  0  0  0  0  0
    8.7172  -14.7890   24.4775 C   0  0  0  0  0  0  0  0  0  0  0  0
    9.6591  -15.7647   25.1392 C   0  0  2  0  0  0  0  0  0  0  0  0
   10.1604  -16.6222   24.0599 N   0  0  0  0  0  0  0  0  0  0  0  0
    9.0447  -16.5526   26.2170 C   0  0  0  0  0  0  0  0  0  0  0  0
    9.0433  -16.2340   27.4448 O   0  0  0  0  0  0  0  0  0  0  0  0
    8.7534  -12.9204   26.1084 C   0  0  0  0  0  0  0  0  0  0  0  0
    8.1159  -12.0302   26.9677 C   0  0  0  0  0  0  0  0  0  0  0  0
    8.4149  -17.7376   25.8790 O   0  0  0  0  0  0  0  0  0  0  0  0
  2  4  1  0
  2  1  1  1
  3  2  1  0
  5  7  1  0
  5  6  1  1
  5  4  1  0
  7  8  2  0
  9  7  1  0
 10  9  1  0
 10 11  1  6
 12 11  1  0
 13 12  2  0
 14 15  2  0
 14 10  1  0
 16 12  1  0
 17 18  1  0
 18 19  2  0
 19 20  1  0
 21 20  2  0
 21 22  1  0
 23 22  1  6
 23 24  1  0
 23 25  1  0
 24 14  1  0
 25 29  1  0
 26 25  2  0
 27 21  1  0
 28 18  1  0
 28 27  2  0
M  END
$$$$
