LDY.pdb
     RDKit          3D

 29 29  0  0  1  0  0  0  0  0999 V2000
    7.5372  -12.3370   19.2394 C   0  0  0  0  0  0  0  0  0  0  0  0
    7.8468  -13.7710   19.0179 C   0  0  1  0  0  0  0  0  0  0  0  0
    8.6067  -13.9103   17.7029 C   0  0  0  0  0  0  0  0  0  0  0  0
    8.4712  -14.5296   20.1151 C   0  0  0  0  0  0  0  0  0  0  0  0
    8.7671  -15.9731   19.9390 C   0  0  2  0  0  0  0  0  0  0  0  0
    7.5130  -16.7138   19.6975 N   0  0  0  0  0  0  0  0  0  0  0  0
    9.4604  -16.6470   21.0512 C   0  0  0  0  0  0  0  0  0  0  0  0
    8.8745  -17.1818   22.0386 O   0  0  0  0  0  0  0  0  0  0  0  0
   10.9009  -16.7720   21.1308 N   0  0  0  0  0  0  0  0  0  0  0  0
   11.5914  -17.2912   22.2614 C   0  0  1  0  0  0  0  0  0  0  0  0
   13.0433  -17.6280   22.0427 C   0  0  0  0  0  0  0  0  0  0  0  0
   13.5280  -18.4005   23.1999 C   0  0  0  0  0  0  0  0  0  0  0  0
   12.8067  -18.8096   24.1435 O   0  0  0  0  0  0  0  0  0  0  0  0
   11.3946  -16.4629   23.4881 C   0  0  0  0  0  0  0  0  0  0  0  0
   11.8550  -15.2897   23.4710 O   0  0  0  0  0  0  0  0  0  0  0  0
   14.8903  -18.7157   23.2830 O   0  0  0  0  0  0  0  0  0  0  0  0
    5.8930  -11.4536   27.5191 O   0  0  0  0  0  0  0  0  0  0  0  0
    6.6419  -12.4086   26.8090 C   0  0  0  0  0  0  0  0  0  0  0  0
    6.1132  -13.1501   25.7813 C   0  0  0  0  0  0  0  0  0  0  0  0
    6.9047  -14.0849   25.1119 C   0  0  0  0  0  0  0  0  0  0  0  0
    8.2229  -14.2841   25.4636 C   0  0  0  0  0  0  0  0  0  0  0  0
    9.0205  -15.2701   24.7419 C   0  0  0  0  0  0  0  0  0  0  0  0
   10.0411  -16.0062   25.5748 C   0  0  2  0  0  0  0  0  0  0  0  0
   10.7422  -16.8961   24.6432 N   0  0  0  0  0  0  0  0  0  0  0  0
    9.4676  -16.7484   26.7062 C   0  0  0  0  0  0  0  0  0  0  0  0
    9.1604  -16.2450   27.8292 O   0  0  0  0  0  0  0  0  0  0  0  0
    8.7375  -13.5360   26.4928 C   0  0  0  0  0  0  0  0  0  0  0  0
    7.9702  -12.5973   27.1765 C   0  0  0  0  0  0  0  0  0  0  0  0
    9.2400  -18.1041   26.5467 O   0  0  0  0  0  0  0  0  0  0  0  0
  2  4  1  0
  2  1  1  1
  3  2  1  0
  5  7  1  0
  5  6  1  1
  5  4  1  0
  7  8  2  0
  9  7  1  0
 10  9  1  0
 10 11  1  6
 12 11  1  0
 13 12  2  0
 14 15  2  0
 14 10  1  0
 16 12  1  0
 17 18  1  0
 18 19  2  0
 19 20  1  0
 21 20  2  0
 21 22  1  0
 23 22  1  6
 23 24  1  0
 23 25  1  0
 24 14  1  0
 25 29  1  0
 26 25  2  0
 27 21  1  0
 28 18  1  0
 28 27  2  0
M  END
$$$$
