LDY.pdb
     RDKit          3D

 29 29  0  0  1  0  0  0  0  0999 V2000
    7.2113  -12.7680   21.0072 C   0  0  0  0  0  0  0  0  0  0  0  0
    7.7119  -14.1548   20.8411 C   0  0  1  0  0  0  0  0  0  0  0  0
    9.1200  -14.2397   21.4210 C   0  0  0  0  0  0  0  0  0  0  0  0
    6.8515  -15.2665   21.2803 C   0  0  0  0  0  0  0  0  0  0  0  0
    7.3382  -16.6642   21.1699 C   0  0  2  0  0  0  0  0  0  0  0  0
    6.3744  -17.5802   21.8115 N   0  0  0  0  0  0  0  0  0  0  0  0
    8.6616  -16.9519   21.7510 C   0  0  0  0  0  0  0  0  0  0  0  0
    8.8499  -17.3350   22.9435 O   0  0  0  0  0  0  0  0  0  0  0  0
    9.8993  -16.8278   21.0096 N   0  0  0  0  0  0  0  0  0  0  0  0
   11.1813  -17.1265   21.5495 C   0  0  1  0  0  0  0  0  0  0  0  0
   12.2994  -17.2518   20.5477 C   0  0  0  0  0  0  0  0  0  0  0  0
   12.0477  -18.4338   19.7049 C   0  0  0  0  0  0  0  0  0  0  0  0
   11.6817  -19.5566   20.1331 O   0  0  0  0  0  0  0  0  0  0  0  0
   11.5531  -16.2293   22.6837 C   0  0  0  0  0  0  0  0  0  0  0  0
   11.7177  -15.0076   22.4216 O   0  0  0  0  0  0  0  0  0  0  0  0
   12.2232  -18.3291   18.3191 O   0  0  0  0  0  0  0  0  0  0  0  0
    8.5420  -19.4968   28.9240 O   0  0  0  0  0  0  0  0  0  0  0  0
    9.0998  -18.4773   28.1325 C   0  0  0  0  0  0  0  0  0  0  0  0
    8.5047  -18.0235   26.9813 C   0  0  0  0  0  0  0  0  0  0  0  0
    9.1052  -17.0083   26.2349 C   0  0  0  0  0  0  0  0  0  0  0  0
   10.2986  -16.4431   26.6318 C   0  0  0  0  0  0  0  0  0  0  0  0
   10.8976  -15.3839   25.8266 C   0  0  0  0  0  0  0  0  0  0  0  0
   12.1602  -15.7680   25.0948 C   0  0  2  0  0  0  0  0  0  0  0  0
   11.7305  -16.6483   24.0030 N   0  0  0  0  0  0  0  0  0  0  0  0
   13.1722  -16.4117   25.9442 C   0  0  0  0  0  0  0  0  0  0  0  0
   13.5311  -17.6254   25.8603 O   0  0  0  0  0  0  0  0  0  0  0  0
   10.8819  -16.9070   27.7843 C   0  0  0  0  0  0  0  0  0  0  0  0
   10.3041  -17.9179   28.5470 C   0  0  0  0  0  0  0  0  0  0  0  0
   13.7896  -15.6441   26.9162 O   0  0  0  0  0  0  0  0  0  0  0  0
  2  4  1  0
  2  1  1  1
  3  2  1  0
  5  7  1  0
  5  6  1  1
  5  4  1  0
  7  8  2  0
  9  7  1  0
 10  9  1  0
 10 11  1  6
 12 11  1  0
 13 12  2  0
 14 15  2  0
 14 10  1  0
 16 12  1  0
 17 18  1  0
 18 19  2  0
 19 20  1  0
 21 20  2  0
 21 22  1  0
 23 22  1  1
 23 24  1  0
 23 25  1  0
 24 14  1  0
 25 29  1  0
 26 25  2  0
 27 21  1  0
 28 18  1  0
 28 27  2  0
M  END
$$$$
