GGP.pdb
     RDKit          3D

 16 16  0  0  1  0  0  0  0  0999 V2000
    4.3725  -19.9087   22.0291 N   0  0  0  0  0  0  0  0  0  0  0  0
    5.7234  -19.4478   22.1246 C   0  0  0  0  0  0  0  0  0  0  0  0
    5.8150  -17.9698   21.8468 C   0  0  0  0  0  0  0  0  0  0  0  0
    5.2526  -17.4602   20.8434 O   0  0  0  0  0  0  0  0  0  0  0  0
    6.5396  -17.1048   22.7094 N   0  0  0  0  0  0  0  0  0  0  0  0
    6.8134  -15.7433   22.3332 C   0  0  0  0  0  0  0  0  0  0  0  0
    8.0044  -15.6310   21.4523 C   0  0  0  0  0  0  0  0  0  0  0  0
    8.8368  -16.5518   21.4995 O   0  0  0  0  0  0  0  0  0  0  0  0
    8.1476  -14.5128   20.6135 N   0  0  0  0  0  0  0  0  0  0  0  0
    6.9684  -13.6725   20.2700 C   0  0  0  0  0  0  0  0  0  0  0  0
    7.5049  -12.2854   20.0535 C   0  0  0  0  0  0  0  0  0  0  0  0
    8.9889  -12.4077   20.3220 C   0  0  0  0  0  0  0  0  0  0  0  0
    9.2042  -13.8838   19.9078 C   0  0  1  0  0  0  0  0  0  0  0  0
   10.5677  -14.2958   20.1286 C   0  0  0  0  0  0  0  0  0  0  0  0
   11.1856  -14.6650   21.2910 O   0  0  0  0  0  0  0  0  0  0  0  0
   11.3186  -14.3219   19.0860 O   0  0  0  0  0  0  0  0  0  0  0  0
  2  1  1  0
  3  5  1  0
  3  2  1  0
  4  3  2  0
  6  5  1  0
  7  6  1  0
  8  7  2  0
  9 13  1  0
  9  7  1  0
 10  9  1  0
 11 10  1  0
 11 12  1  0
 12 13  1  0
 14 15  1  0
 13 14  1  1
 16 14  2  0
M  END
$$$$
