GGP.pdb
     RDKit          3D

 16 16  0  0  1  0  0  0  0  0999 V2000
    7.8589  -17.5409   19.9183 N   0  0  0  0  0  0  0  0  0  0  0  0
    8.5222  -16.5130   20.6597 C   0  0  0  0  0  0  0  0  0  0  0  0
    7.5965  -15.8874   21.6707 C   0  0  0  0  0  0  0  0  0  0  0  0
    6.8071  -16.5907   22.3526 O   0  0  0  0  0  0  0  0  0  0  0  0
    7.5859  -14.4835   21.8857 N   0  0  0  0  0  0  0  0  0  0  0  0
    6.8736  -13.9100   22.9965 C   0  0  0  0  0  0  0  0  0  0  0  0
    7.7011  -13.8567   24.2291 C   0  0  0  0  0  0  0  0  0  0  0  0
    8.6464  -14.6579   24.3158 O   0  0  0  0  0  0  0  0  0  0  0  0
    7.3949  -12.9235   25.2341 N   0  0  0  0  0  0  0  0  0  0  0  0
    6.5808  -11.7180   24.9202 C   0  0  0  0  0  0  0  0  0  0  0  0
    5.8417  -11.3840   26.1854 C   0  0  0  0  0  0  0  0  0  0  0  0
    6.2607  -12.4597   27.1634 C   0  0  0  0  0  0  0  0  0  0  0  0
    7.6751  -12.7686   26.6152 C   0  0  1  0  0  0  0  0  0  0  0  0
    8.2994  -13.8393   27.3512 C   0  0  0  0  0  0  0  0  0  0  0  0
    7.9065  -15.1414   27.4905 O   0  0  0  0  0  0  0  0  0  0  0  0
    9.3834  -13.5331   27.9700 O   0  0  0  0  0  0  0  0  0  0  0  0
  2  1  1  0
  3  5  1  0
  3  2  1  0
  4  3  2  0
  6  5  1  0
  7  6  1  0
  8  7  2  0
  9 13  1  0
  9  7  1  0
 10  9  1  0
 11 10  1  0
 11 12  1  0
 12 13  1  0
 14 15  1  0
 13 14  1  1
 16 14  2  0
M  END
$$$$
