GGP.pdb
     RDKit          3D

 16 16  0  0  1  0  0  0  0  0999 V2000
    8.8569  -16.1241   20.0547 N   0  0  0  0  0  0  0  0  0  0  0  0
    7.7974  -16.7908   20.7471 C   0  0  0  0  0  0  0  0  0  0  0  0
    7.2251  -15.9195   21.8349 C   0  0  0  0  0  0  0  0  0  0  0  0
    6.4247  -16.3842   22.6871 O   0  0  0  0  0  0  0  0  0  0  0  0
    7.5713  -14.5455   21.9327 N   0  0  0  0  0  0  0  0  0  0  0  0
    7.0503  -13.7243   22.9931 C   0  0  0  0  0  0  0  0  0  0  0  0
    7.8453  -13.8461   24.2422 C   0  0  0  0  0  0  0  0  0  0  0  0
    8.7350  -14.7125   24.2691 O   0  0  0  0  0  0  0  0  0  0  0  0
    7.5715  -12.9970   25.3278 N   0  0  0  0  0  0  0  0  0  0  0  0
    6.9311  -11.6722   25.1055 C   0  0  0  0  0  0  0  0  0  0  0  0
    6.1382  -11.3883   26.3503 C   0  0  0  0  0  0  0  0  0  0  0  0
    6.3500  -12.6080   27.2201 C   0  0  0  0  0  0  0  0  0  0  0  0
    7.7576  -13.0298   26.7330 C   0  0  1  0  0  0  0  0  0  0  0  0
    8.1924  -14.2438   27.3770 C   0  0  0  0  0  0  0  0  0  0  0  0
    9.1885  -14.4310   28.2947 O   0  0  0  0  0  0  0  0  0  0  0  0
    7.5566  -15.3102   27.0450 O   0  0  0  0  0  0  0  0  0  0  0  0
  2  1  1  0
  3  5  1  0
  3  2  1  0
  4  3  2  0
  6  5  1  0
  7  6  1  0
  8  7  2  0
  9 13  1  0
  9  7  1  0
 10  9  1  0
 11 10  1  0
 11 12  1  0
 12 13  1  0
 14 15  1  0
 13 14  1  1
 16 14  2  0
M  END
$$$$
