GGP.pdb
     RDKit          3D

 16 16  0  0  1  0  0  0  0  0999 V2000
   11.6835  -18.5376   24.8861 N   0  0  0  0  0  0  0  0  0  0  0  0
   10.3987  -18.1860   24.3644 C   0  0  0  0  0  0  0  0  0  0  0  0
   10.3957  -16.7778   23.8285 C   0  0  0  0  0  0  0  0  0  0  0  0
   11.4466  -16.0864   23.8102 O   0  0  0  0  0  0  0  0  0  0  0  0
    9.2058  -16.1863   23.3268 N   0  0  0  0  0  0  0  0  0  0  0  0
    9.2436  -14.9371   22.6138 C   0  0  0  0  0  0  0  0  0  0  0  0
    9.3230  -15.1304   21.1429 C   0  0  0  0  0  0  0  0  0  0  0  0
    9.8819  -16.1612   20.7331 O   0  0  0  0  0  0  0  0  0  0  0  0
    8.7761  -14.1632   20.2827 N   0  0  0  0  0  0  0  0  0  0  0  0
    7.7155  -13.2381   20.7662 C   0  0  0  0  0  0  0  0  0  0  0  0
    7.8889  -11.9706   19.9775 C   0  0  0  0  0  0  0  0  0  0  0  0
    9.0849  -12.2379   19.0902 C   0  0  0  0  0  0  0  0  0  0  0  0
    8.9492  -13.7718   18.9310 C   0  0  1  0  0  0  0  0  0  0  0  0
   10.0345  -14.3155   18.1537 C   0  0  0  0  0  0  0  0  0  0  0  0
   11.3601  -14.4239   18.4705 O   0  0  0  0  0  0  0  0  0  0  0  0
    9.7183  -14.7654   16.9921 O   0  0  0  0  0  0  0  0  0  0  0  0
  2  1  1  0
  3  5  1  0
  3  2  1  0
  4  3  2  0
  6  5  1  0
  7  6  1  0
  8  7  2  0
  9 13  1  0
  9  7  1  0
 10  9  1  0
 11 10  1  0
 11 12  1  0
 12 13  1  0
 14 15  1  0
 13 14  1  1
 16 14  2  0
M  END
$$$$
