GGP.pdb
     RDKit          3D

 16 16  0  0  1  0  0  0  0  0999 V2000
    9.4177  -16.7570   20.4069 N   0  0  0  0  0  0  0  0  0  0  0  0
    8.2371  -15.9940   20.1418 C   0  0  0  0  0  0  0  0  0  0  0  0
    7.9960  -14.9713   21.2218 C   0  0  0  0  0  0  0  0  0  0  0  0
    8.7621  -13.9837   21.3652 O   0  0  0  0  0  0  0  0  0  0  0  0
    6.8959  -15.0901   22.1122 N   0  0  0  0  0  0  0  0  0  0  0  0
    6.6067  -14.0592   23.0735 C   0  0  0  0  0  0  0  0  0  0  0  0
    7.4917  -14.1354   24.2643 C   0  0  0  0  0  0  0  0  0  0  0  0
    8.3064  -15.0720   24.3098 O   0  0  0  0  0  0  0  0  0  0  0  0
    7.3813  -13.1679   25.2774 N   0  0  0  0  0  0  0  0  0  0  0  0
    6.7193  -11.8633   25.0045 C   0  0  0  0  0  0  0  0  0  0  0  0
    6.1167  -11.4303   26.3115 C   0  0  0  0  0  0  0  0  0  0  0  0
    6.4492  -12.5517   27.2712 C   0  0  0  0  0  0  0  0  0  0  0  0
    7.7697  -13.0507   26.6359 C   0  0  1  0  0  0  0  0  0  0  0  0
    8.2900  -14.1953   27.3408 C   0  0  0  0  0  0  0  0  0  0  0  0
    9.4233  -14.3075   28.0972 O   0  0  0  0  0  0  0  0  0  0  0  0
    7.5931  -15.2712   27.2492 O   0  0  0  0  0  0  0  0  0  0  0  0
  2  1  1  0
  3  5  1  0
  3  2  1  0
  4  3  2  0
  6  5  1  0
  7  6  1  0
  8  7  2  0
  9 13  1  0
  9  7  1  0
 10  9  1  0
 11 10  1  0
 11 12  1  0
 12 13  1  0
 14 15  1  0
 13 14  1  1
 16 14  2  0
M  END
$$$$
