GGP.pdb
     RDKit          3D

 16 16  0  0  1  0  0  0  0  0999 V2000
    7.6040  -20.8087   24.6213 N   0  0  0  0  0  0  0  0  0  0  0  0
    7.5089  -19.6120   23.8434 C   0  0  0  0  0  0  0  0  0  0  0  0
    6.9501  -18.4754   24.6594 C   0  0  0  0  0  0  0  0  0  0  0  0
    6.6264  -18.6372   25.8643 O   0  0  0  0  0  0  0  0  0  0  0  0
    6.7710  -17.1849   24.0938 N   0  0  0  0  0  0  0  0  0  0  0  0
    6.4110  -16.0599   24.9154 C   0  0  0  0  0  0  0  0  0  0  0  0
    7.5927  -15.2529   25.3146 C   0  0  0  0  0  0  0  0  0  0  0  0
    8.7073  -15.7947   25.2308 O   0  0  0  0  0  0  0  0  0  0  0  0
    7.4156  -13.9332   25.7636 N   0  0  0  0  0  0  0  0  0  0  0  0
    6.3763  -13.0619   25.1512 C   0  0  0  0  0  0  0  0  0  0  0  0
    5.9424  -12.1187   26.2379 C   0  0  0  0  0  0  0  0  0  0  0  0
    6.7540  -12.5339   27.4454 C   0  0  0  0  0  0  0  0  0  0  0  0
    8.0119  -13.0865   26.7319 C   0  0  1  0  0  0  0  0  0  0  0  0
    8.9572  -13.6233   27.6785 C   0  0  0  0  0  0  0  0  0  0  0  0
    8.8985  -14.7819   28.4020 O   0  0  0  0  0  0  0  0  0  0  0  0
   10.0111  -12.9152   27.8774 O   0  0  0  0  0  0  0  0  0  0  0  0
  2  1  1  0
  3  5  1  0
  3  2  1  0
  4  3  2  0
  6  5  1  0
  7  6  1  0
  8  7  2  0
  9 13  1  0
  9  7  1  0
 10  9  1  0
 11 10  1  0
 11 12  1  0
 12 13  1  0
 14 15  1  0
 13 14  1  1
 16 14  2  0
M  END
$$$$
