GGP.pdb
     RDKit          3D

 16 16  0  0  1  0  0  0  0  0999 V2000
    8.9053  -17.2650   13.4417 N   0  0  0  0  0  0  0  0  0  0  0  0
    9.2225  -15.9669   13.9524 C   0  0  0  0  0  0  0  0  0  0  0  0
    8.4885  -15.6943   15.2397 C   0  0  0  0  0  0  0  0  0  0  0  0
    7.7524  -16.5680   15.7665 O   0  0  0  0  0  0  0  0  0  0  0  0
    8.6047  -14.4418   15.8993 N   0  0  0  0  0  0  0  0  0  0  0  0
    7.9427  -14.2016   17.1540 C   0  0  0  0  0  0  0  0  0  0  0  0
    8.7864  -14.5786   18.3172 C   0  0  0  0  0  0  0  0  0  0  0  0
    9.5288  -15.5659   18.1864 O   0  0  0  0  0  0  0  0  0  0  0  0
    8.7191  -13.8238   19.5005 N   0  0  0  0  0  0  0  0  0  0  0  0
    8.2382  -12.4158   19.4699 C   0  0  0  0  0  0  0  0  0  0  0  0
    7.5988  -12.1738   20.8082 C   0  0  0  0  0  0  0  0  0  0  0  0
    7.7255  -13.4960   21.5326 C   0  0  0  0  0  0  0  0  0  0  0  0
    9.0197  -14.0286   20.8708 C   0  0  1  0  0  0  0  0  0  0  0  0
    9.3481  -15.3478   21.3501 C   0  0  0  0  0  0  0  0  0  0  0  0
   10.4314  -15.7642   22.0728 O   0  0  0  0  0  0  0  0  0  0  0  0
    8.5049  -16.2731   21.0592 O   0  0  0  0  0  0  0  0  0  0  0  0
  2  1  1  0
  3  5  1  0
  3  2  1  0
  4  3  2  0
  6  5  1  0
  7  6  1  0
  8  7  2  0
  9 13  1  0
  9  7  1  0
 10  9  1  0
 11 10  1  0
 11 12  1  0
 12 13  1  0
 14 15  1  0
 13 14  1  6
 16 14  2  0
M  END
$$$$
