GGP.pdb
     RDKit          3D

 16 16  0  0  1  0  0  0  0  0999 V2000
    6.1730  -19.7810   22.0294 N   0  0  0  0  0  0  0  0  0  0  0  0
    7.1120  -19.0088   22.7833 C   0  0  0  0  0  0  0  0  0  0  0  0
    6.6877  -17.5655   22.8663 C   0  0  0  0  0  0  0  0  0  0  0  0
    6.4714  -16.8901   21.8271 O   0  0  0  0  0  0  0  0  0  0  0  0
    6.5184  -16.9216   24.1209 N   0  0  0  0  0  0  0  0  0  0  0  0
    6.4469  -15.4875   24.2135 C   0  0  0  0  0  0  0  0  0  0  0  0
    7.5474  -14.9206   25.0348 C   0  0  0  0  0  0  0  0  0  0  0  0
    8.5817  -15.5992   25.1480 O   0  0  0  0  0  0  0  0  0  0  0  0
    7.3867  -13.6641   25.6430 N   0  0  0  0  0  0  0  0  0  0  0  0
    6.4743  -12.6501   25.0482 C   0  0  0  0  0  0  0  0  0  0  0  0
    5.9634  -11.8340   26.2021 C   0  0  0  0  0  0  0  0  0  0  0  0
    6.6027  -12.4614   27.4215 C   0  0  0  0  0  0  0  0  0  0  0  0
    7.9064  -12.9972   26.7812 C   0  0  1  0  0  0  0  0  0  0  0  0
    8.7030  -13.7189   27.7415 C   0  0  0  0  0  0  0  0  0  0  0  0
    8.4259  -14.8863   28.3971 O   0  0  0  0  0  0  0  0  0  0  0  0
    9.8407  -13.1949   28.0291 O   0  0  0  0  0  0  0  0  0  0  0  0
  2  1  1  0
  3  5  1  0
  3  2  1  0
  4  3  2  0
  6  5  1  0
  7  6  1  0
  8  7  2  0
  9 13  1  0
  9  7  1  0
 10  9  1  0
 11 10  1  0
 11 12  1  0
 12 13  1  0
 14 15  1  0
 13 14  1  1
 16 14  2  0
M  END
$$$$
