GGP.pdb
     RDKit          3D

 16 16  0  0  1  0  0  0  0  0999 V2000
    9.0276  -16.8047   20.5227 N   0  0  0  0  0  0  0  0  0  0  0  0
    7.6336  -16.4953   20.4361 C   0  0  0  0  0  0  0  0  0  0  0  0
    7.1438  -15.8327   21.6975 C   0  0  0  0  0  0  0  0  0  0  0  0
    6.7034  -16.5121   22.6605 O   0  0  0  0  0  0  0  0  0  0  0  0
    7.1637  -14.4196   21.8393 N   0  0  0  0  0  0  0  0  0  0  0  0
    6.6148  -13.7849   23.0080 C   0  0  0  0  0  0  0  0  0  0  0  0
    7.5828  -13.7448   24.1342 C   0  0  0  0  0  0  0  0  0  0  0  0
    8.5810  -14.4798   24.0540 O   0  0  0  0  0  0  0  0  0  0  0  0
    7.3437  -12.8964   25.2286 N   0  0  0  0  0  0  0  0  0  0  0  0
    6.5215  -11.6670   25.0635 C   0  0  0  0  0  0  0  0  0  0  0  0
    5.8611  -11.4361   26.3936 C   0  0  0  0  0  0  0  0  0  0  0  0
    6.3292  -12.5896   27.2536 C   0  0  0  0  0  0  0  0  0  0  0  0
    7.7063  -12.8563   26.5986 C   0  0  1  0  0  0  0  0  0  0  0  0
    8.3650  -13.9854   27.2060 C   0  0  0  0  0  0  0  0  0  0  0  0
    8.0344  -15.3113   27.1599 O   0  0  0  0  0  0  0  0  0  0  0  0
    9.4166  -13.7146   27.8934 O   0  0  0  0  0  0  0  0  0  0  0  0
  2  1  1  0
  3  5  1  0
  3  2  1  0
  4  3  2  0
  6  5  1  0
  7  6  1  0
  8  7  2  0
  9 13  1  0
  9  7  1  0
 10  9  1  0
 11 10  1  0
 11 12  1  0
 12 13  1  0
 14 15  1  0
 13 14  1  1
 16 14  2  0
M  END
$$$$
