GGP.pdb
     RDKit          3D

 16 16  0  0  1  0  0  0  0  0999 V2000
    8.1208  -17.5578   20.0827 N   0  0  0  0  0  0  0  0  0  0  0  0
    8.2581  -16.1475   20.2790 C   0  0  0  0  0  0  0  0  0  0  0  0
    7.4435  -15.6801   21.4572 C   0  0  0  0  0  0  0  0  0  0  0  0
    6.8147  -16.4969   22.1784 O   0  0  0  0  0  0  0  0  0  0  0  0
    7.3599  -14.3021   21.7909 N   0  0  0  0  0  0  0  0  0  0  0  0
    6.7158  -13.8717   23.0034 C   0  0  0  0  0  0  0  0  0  0  0  0
    7.6434  -13.8703   24.1639 C   0  0  0  0  0  0  0  0  0  0  0  0
    8.5735  -14.6935   24.1509 O   0  0  0  0  0  0  0  0  0  0  0  0
    7.4433  -12.9590   25.2146 N   0  0  0  0  0  0  0  0  0  0  0  0
    6.7132  -11.6841   24.9775 C   0  0  0  0  0  0  0  0  0  0  0  0
    6.0448  -11.3481   26.2811 C   0  0  0  0  0  0  0  0  0  0  0  0
    6.4135  -12.4914   27.2008 C   0  0  0  0  0  0  0  0  0  0  0  0
    7.7810  -12.8825   26.5895 C   0  0  1  0  0  0  0  0  0  0  0  0
    8.3464  -14.0262   27.2602 C   0  0  0  0  0  0  0  0  0  0  0  0
    9.4057  -14.0910   28.1222 O   0  0  0  0  0  0  0  0  0  0  0  0
    7.7782  -15.1529   27.0172 O   0  0  0  0  0  0  0  0  0  0  0  0
  2  1  1  0
  3  5  1  0
  3  2  1  0
  4  3  2  0
  6  5  1  0
  7  6  1  0
  8  7  2  0
  9 13  1  0
  9  7  1  0
 10  9  1  0
 11 10  1  0
 11 12  1  0
 12 13  1  0
 14 15  1  0
 13 14  1  1
 16 14  2  0
M  END
$$$$
