GGP.pdb
     RDKit          3D

 16 16  0  0  1  0  0  0  0  0999 V2000
    6.1285  -20.3042   22.8111 N   0  0  0  0  0  0  0  0  0  0  0  0
    7.0770  -19.5077   23.5268 C   0  0  0  0  0  0  0  0  0  0  0  0
    6.5511  -18.1155   23.7621 C   0  0  0  0  0  0  0  0  0  0  0  0
    6.1929  -17.3846   22.8028 O   0  0  0  0  0  0  0  0  0  0  0  0
    6.4431  -17.5841   25.0749 N   0  0  0  0  0  0  0  0  0  0  0  0
    6.2071  -16.1810   25.2886 C   0  0  0  0  0  0  0  0  0  0  0  0
    7.4321  -15.4644   25.7280 C   0  0  0  0  0  0  0  0  0  0  0  0
    8.4624  -16.1403   25.8842 O   0  0  0  0  0  0  0  0  0  0  0  0
    7.3867  -14.0772   25.9477 N   0  0  0  0  0  0  0  0  0  0  0  0
    6.3904  -13.2334   25.2337 C   0  0  0  0  0  0  0  0  0  0  0  0
    6.0928  -12.0847   26.1560 C   0  0  0  0  0  0  0  0  0  0  0  0
    6.9310  -12.3597   27.3852 C   0  0  0  0  0  0  0  0  0  0  0  0
    8.1003  -13.1350   26.7307 C   0  0  1  0  0  0  0  0  0  0  0  0
    9.0478  -13.5855   27.7191 C   0  0  0  0  0  0  0  0  0  0  0  0
    8.8885  -14.5040   28.7193 O   0  0  0  0  0  0  0  0  0  0  0  0
   10.2146  -13.0500   27.6585 O   0  0  0  0  0  0  0  0  0  0  0  0
  2  1  1  0
  3  5  1  0
  3  2  1  0
  4  3  2  0
  6  5  1  0
  7  6  1  0
  8  7  2  0
  9 13  1  0
  9  7  1  0
 10  9  1  0
 11 10  1  0
 11 12  1  0
 12 13  1  0
 14 15  1  0
 13 14  1  1
 16 14  2  0
M  END
$$$$
