WVK.pdb
     RDKit          3D

 31 32  0  0  1  0  0  0  0  0999 V2000
   25.2262  -19.3814   -8.7330 N   0  0  0  0  0  0  0  0  0  0  0  0
   26.2365  -20.1789   -9.3991 C   0  0  1  0  0  0  0  0  0  0  0  0
   26.3525  -21.4807   -8.6687 C   0  0  0  0  0  0  0  0  0  0  0  0
   26.5471  -21.1586   -7.2305 C   0  0  0  0  0  0  0  0  0  0  0  0
   25.7245  -21.4646   -6.1746 C   0  0  0  0  0  0  0  0  0  0  0  0
   26.2340  -21.0051   -5.0234 N   0  0  0  0  0  0  0  0  0  0  0  0
   27.3953  -20.3916   -5.2995 C   0  0  0  0  0  0  0  0  0  0  0  0
   28.3526  -19.7405   -4.5513 C   0  0  0  0  0  0  0  0  0  0  0  0
   29.4829  -19.1843   -5.0893 C   0  0  0  0  0  0  0  0  0  0  0  0
   29.6750  -19.2792   -6.4480 C   0  0  0  0  0  0  0  0  0  0  0  0
   28.7535  -19.9193   -7.2587 C   0  0  0  0  0  0  0  0  0  0  0  0
   27.6296  -20.4654   -6.6762 C   0  0  0  0  0  0  0  0  0  0  0  0
   25.9515  -20.3357  -10.8466 C   0  0  0  0  0  0  0  0  0  0  0  0
   24.7998  -20.2413  -11.3305 O   0  0  0  0  0  0  0  0  0  0  0  0
   28.0648  -20.1610  -15.3831 C   0  0  0  0  0  0  0  0  0  0  0  0
   28.2033  -20.3813  -13.8942 C   0  0  1  0  0  0  0  0  0  0  0  0
   29.1243  -19.3397  -13.3236 C   0  0  0  0  0  0  0  0  0  0  0  0
   26.8842  -20.4480  -13.1940 C   0  0  2  0  0  0  0  0  0  0  0  0
   27.0011  -20.6055  -11.7572 N   0  0  0  0  0  0  0  0  0  0  0  0
   26.0909  -21.5503  -13.8021 C   0  0  0  0  0  0  0  0  0  0  0  0
   26.4872  -22.7375  -13.8303 O   0  0  0  0  0  0  0  0  0  0  0  0
   24.8430  -21.2231  -14.3646 N   0  0  0  0  0  0  0  0  0  0  0  0
   23.9455  -22.3301  -14.9128 C   0  0  1  0  0  0  0  0  0  0  0  0
   22.6189  -22.0127  -14.3265 C   0  0  0  0  0  0  0  0  0  0  0  0
   21.4266  -22.8187  -14.5340 C   0  0  0  0  0  0  0  0  0  0  0  0
   20.1461  -22.3416  -13.9950 C   0  0  0  0  0  0  0  0  0  0  0  0
   19.1131  -23.4656  -14.3108 C   0  0  0  0  0  0  0  0  0  0  0  0
   17.8542  -23.0307  -13.7694 N   0  0  0  0  0  0  0  0  0  0  0  0
   24.0647  -22.2053  -16.3763 C   0  0  0  0  0  0  0  0  0  0  0  0
   24.2833  -21.0249  -16.8715 O   0  0  0  0  0  0  0  0  0  0  0  0
   23.9766  -23.2167  -17.2992 O   0  0  0  0  0  0  0  0  0  0  0  0
  2  1  1  1
  2  3  1  0
  3  4  1  0
  4  5  2  0
  5  6  1  0
  7  6  1  0
  8  7  2  0
  9  8  1  0
 10 11  1  0
 10  9  2  0
 11 12  2  0
 12  4  1  0
 12  7  1  0
 13  2  1  0
 13 19  1  0
 14 13  2  0
 16 15  1  6
 17 16  1  0
 18 19  1  1
 18 16  1  0
 20 18  1  0
 21 20  2  0
 22 20  1  0
 23 29  1  0
 23 22  1  0
 23 24  1  6
 25 24  1  0
 25 26  1  0
 26 27  1  0
 27 28  1  0
 29 31  1  0
 30 29  2  0
M  END
$$$$
