WVK.pdb
     RDKit          3D

 31 32  0  0  1  0  0  0  0  0999 V2000
   23.9124  -20.8412  -15.9294 N   0  0  0  0  0  0  0  0  0  0  0  0
   23.8405  -20.0305  -14.7302 C   0  0  1  0  0  0  0  0  0  0  0  0
   22.3972  -19.8766  -14.3630 C   0  0  0  0  0  0  0  0  0  0  0  0
   21.7612  -19.0558  -15.4268 C   0  0  0  0  0  0  0  0  0  0  0  0
   21.9126  -17.7120  -15.6649 C   0  0  0  0  0  0  0  0  0  0  0  0
   21.1743  -17.3268  -16.7148 N   0  0  0  0  0  0  0  0  0  0  0  0
   20.5269  -18.4046  -17.1844 C   0  0  0  0  0  0  0  0  0  0  0  0
   19.6453  -18.6347  -18.2188 C   0  0  0  0  0  0  0  0  0  0  0  0
   19.1120  -19.8654  -18.4973 C   0  0  0  0  0  0  0  0  0  0  0  0
   19.4738  -20.9293  -17.7041 C   0  0  0  0  0  0  0  0  0  0  0  0
   20.3545  -20.7687  -16.6483 C   0  0  0  0  0  0  0  0  0  0  0  0
   20.8680  -19.5130  -16.4029 C   0  0  0  0  0  0  0  0  0  0  0  0
   24.6736  -20.5870  -13.6359 C   0  0  0  0  0  0  0  0  0  0  0  0
   24.2803  -21.5010  -12.8747 O   0  0  0  0  0  0  0  0  0  0  0  0
   29.1401  -20.6179  -11.3560 C   0  0  0  0  0  0  0  0  0  0  0  0
   28.2719  -20.1839  -12.5146 C   0  0  1  0  0  0  0  0  0  0  0  0
   28.8416  -20.7328  -13.7924 C   0  0  0  0  0  0  0  0  0  0  0  0
   26.8302  -20.5272  -12.3176 C   0  0  2  0  0  0  0  0  0  0  0  0
   25.9790  -20.0899  -13.4071 N   0  0  0  0  0  0  0  0  0  0  0  0
   26.3903  -19.9547  -11.0165 C   0  0  0  0  0  0  0  0  0  0  0  0
   25.9408  -18.7918  -10.9027 O   0  0  0  0  0  0  0  0  0  0  0  0
   26.4918  -20.7727   -9.8756 N   0  0  0  0  0  0  0  0  0  0  0  0
   25.9946  -20.2571   -8.5272 C   0  0  1  0  0  0  0  0  0  0  0  0
   24.9352  -21.2310   -8.1614 C   0  0  0  0  0  0  0  0  0  0  0  0
   24.0559  -21.0798   -7.0133 C   0  0  0  0  0  0  0  0  0  0  0  0
   23.0678  -22.1303   -6.7343 C   0  0  0  0  0  0  0  0  0  0  0  0
   22.2794  -21.6425   -5.4810 C   0  0  0  0  0  0  0  0  0  0  0  0
   21.2693  -22.6318   -5.2203 N   0  0  0  0  0  0  0  0  0  0  0  0
   27.1974  -20.2431   -7.6759 C   0  0  0  0  0  0  0  0  0  0  0  0
   28.1651  -21.0559   -7.9748 O   0  0  0  0  0  0  0  0  0  0  0  0
   27.4228  -19.4469   -6.5816 O   0  0  0  0  0  0  0  0  0  0  0  0
  2  1  1  6
  2  3  1  0
  3  4  1  0
  4  5  2  0
  5  6  1  0
  7  6  1  0
  8  7  2  0
  9  8  1  0
 10 11  1  0
 10  9  2  0
 11 12  2  0
 12  4  1  0
 12  7  1  0
 13  2  1  0
 13 19  1  0
 14 13  2  0
 16 15  1  1
 17 16  1  0
 18 19  1  6
 18 16  1  0
 20 18  1  0
 21 20  2  0
 22 20  1  0
 23 29  1  0
 23 22  1  0
 23 24  1  1
 25 24  1  0
 25 26  1  0
 26 27  1  0
 27 28  1  0
 29 31  1  0
 30 29  2  0
M  END
$$$$
