WVK.pdb
     RDKit          3D

 31 32  0  0  1  0  0  0  0  0999 V2000
   27.9477  -20.9509   -9.5704 N   0  0  0  0  0  0  0  0  0  0  0  0
   26.5025  -21.0276   -9.4926 C   0  0  1  0  0  0  0  0  0  0  0  0
   26.0509  -20.1203   -8.3905 C   0  0  0  0  0  0  0  0  0  0  0  0
   27.2681  -19.6873   -7.6551 C   0  0  0  0  0  0  0  0  0  0  0  0
   28.2938  -18.8940   -8.1068 C   0  0  0  0  0  0  0  0  0  0  0  0
   29.2210  -18.7240   -7.1543 N   0  0  0  0  0  0  0  0  0  0  0  0
   28.8243  -19.3987   -6.0640 C   0  0  0  0  0  0  0  0  0  0  0  0
   29.3417  -19.5970   -4.8019 C   0  0  0  0  0  0  0  0  0  0  0  0
   28.7222  -20.3518   -3.8412 C   0  0  0  0  0  0  0  0  0  0  0  0
   27.5199  -20.9445   -4.1503 C   0  0  0  0  0  0  0  0  0  0  0  0
   26.9437  -20.7869   -5.3990 C   0  0  0  0  0  0  0  0  0  0  0  0
   27.6008  -20.0188   -6.3364 C   0  0  0  0  0  0  0  0  0  0  0  0
   25.8623  -20.7363  -10.7989 C   0  0  0  0  0  0  0  0  0  0  0  0
   26.0556  -19.6731  -11.4327 O   0  0  0  0  0  0  0  0  0  0  0  0
   23.4149  -22.4730  -14.7631 C   0  0  0  0  0  0  0  0  0  0  0  0
   24.2108  -22.6909  -13.4968 C   0  0  1  0  0  0  0  0  0  0  0  0
   25.5531  -23.2679  -13.8492 C   0  0  0  0  0  0  0  0  0  0  0  0
   24.3023  -21.4609  -12.6520 C   0  0  2  0  0  0  0  0  0  0  0  0
   24.9854  -21.6764  -11.3911 N   0  0  0  0  0  0  0  0  0  0  0  0
   22.9252  -20.9364  -12.4450 C   0  0  0  0  0  0  0  0  0  0  0  0
   22.1536  -21.3810  -11.5652 O   0  0  0  0  0  0  0  0  0  0  0  0
   22.4903  -19.8945  -13.2855 N   0  0  0  0  0  0  0  0  0  0  0  0
   21.0887  -19.3150  -13.1102 C   0  0  1  0  0  0  0  0  0  0  0  0
   21.1036  -18.1193  -13.9904 C   0  0  0  0  0  0  0  0  0  0  0  0
   19.9653  -17.2335  -14.1746 C   0  0  0  0  0  0  0  0  0  0  0  0
   20.0607  -16.1539  -15.1661 C   0  0  0  0  0  0  0  0  0  0  0  0
   18.6692  -15.4512  -15.1564 C   0  0  0  0  0  0  0  0  0  0  0  0
   18.7834  -14.3017  -16.0124 N   0  0  0  0  0  0  0  0  0  0  0  0
   20.1880  -20.4120  -13.5062 C   0  0  0  0  0  0  0  0  0  0  0  0
   19.0611  -20.5342  -12.8725 O   0  0  0  0  0  0  0  0  0  0  0  0
   20.4029  -21.3380  -14.4954 O   0  0  0  0  0  0  0  0  0  0  0  0
  2  1  1  6
  2  3  1  0
  3  4  1  0
  4  5  2  0
  5  6  1  0
  7  6  1  0
  8  7  2  0
  9  8  1  0
 10 11  1  0
 10  9  2  0
 11 12  2  0
 12  4  1  0
 12  7  1  0
 13  2  1  0
 13 19  1  0
 14 13  2  0
 16 15  1  6
 17 16  1  0
 18 19  1  1
 18 16  1  0
 20 18  1  0
 21 20  2  0
 22 20  1  0
 23 29  1  0
 23 22  1  0
 23 24  1  6
 25 24  1  0
 25 26  1  0
 26 27  1  0
 27 28  1  0
 29 31  1  0
 30 29  2  0
M  END
$$$$
