WVK.pdb
     RDKit          3D

 31 32  0  0  1  0  0  0  0  0999 V2000
   25.1502  -19.2689   -9.0757 N   0  0  0  0  0  0  0  0  0  0  0  0
   26.0787  -20.2101   -9.6695 C   0  0  1  0  0  0  0  0  0  0  0  0
   26.2110  -21.3765   -8.7401 C   0  0  0  0  0  0  0  0  0  0  0  0
   26.4612  -20.8263   -7.3819 C   0  0  0  0  0  0  0  0  0  0  0  0
   25.5451  -20.3375   -6.4835 C   0  0  0  0  0  0  0  0  0  0  0  0
   26.1500  -19.9259   -5.3607 N   0  0  0  0  0  0  0  0  0  0  0  0
   27.4684  -20.1355   -5.4991 C   0  0  0  0  0  0  0  0  0  0  0  0
   28.5750  -19.9224   -4.7054 C   0  0  0  0  0  0  0  0  0  0  0  0
   29.8523  -20.2334   -5.0905 C   0  0  0  0  0  0  0  0  0  0  0  0
   30.0431  -20.7877   -6.3348 C   0  0  0  0  0  0  0  0  0  0  0  0
   28.9760  -21.0284   -7.1830 C   0  0  0  0  0  0  0  0  0  0  0  0
   27.7069  -20.7005   -6.7559 C   0  0  0  0  0  0  0  0  0  0  0  0
   25.6748  -20.5922  -11.0450 C   0  0  0  0  0  0  0  0  0  0  0  0
   24.4813  -20.6151  -11.4253 O   0  0  0  0  0  0  0  0  0  0  0  0
   28.0626  -19.9514  -15.3911 C   0  0  0  0  0  0  0  0  0  0  0  0
   28.0496  -20.4652  -13.9697 C   0  0  1  0  0  0  0  0  0  0  0  0
   29.0751  -19.7181  -13.1642 C   0  0  0  0  0  0  0  0  0  0  0  0
   26.6862  -20.4383  -13.3571 C   0  0  2  0  0  0  0  0  0  0  0  0
   26.6519  -20.9550  -12.0027 N   0  0  0  0  0  0  0  0  0  0  0  0
   25.7608  -21.1859  -14.2510 C   0  0  0  0  0  0  0  0  0  0  0  0
   25.6731  -20.9615  -15.4795 O   0  0  0  0  0  0  0  0  0  0  0  0
   24.9576  -22.1853  -13.6705 N   0  0  0  0  0  0  0  0  0  0  0  0
   24.0108  -23.0008  -14.5478 C   0  0  1  0  0  0  0  0  0  0  0  0
   23.8218  -24.2520  -13.7710 C   0  0  0  0  0  0  0  0  0  0  0  0
   22.8489  -25.2780  -14.1101 C   0  0  0  0  0  0  0  0  0  0  0  0
   22.6349  -26.3889  -13.1731 C   0  0  0  0  0  0  0  0  0  0  0  0
   21.5393  -27.2843  -13.8273 C   0  0  0  0  0  0  0  0  0  0  0  0
   21.3568  -28.4132  -12.9558 N   0  0  0  0  0  0  0  0  0  0  0  0
   22.8259  -22.1390  -14.7052 C   0  0  0  0  0  0  0  0  0  0  0  0
   22.4809  -21.3882  -13.7033 O   0  0  0  0  0  0  0  0  0  0  0  0
   22.0290  -22.0291  -15.8165 O   0  0  0  0  0  0  0  0  0  0  0  0
  2  1  1  1
  2  3  1  0
  3  4  1  0
  4  5  2  0
  5  6  1  0
  7  6  1  0
  8  7  2  0
  9  8  1  0
 10 11  1  0
 10  9  2  0
 11 12  2  0
 12  4  1  0
 12  7  1  0
 13  2  1  0
 13 19  1  0
 14 13  2  0
 16 15  1  6
 17 16  1  0
 18 19  1  1
 18 16  1  0
 20 18  1  0
 21 20  2  0
 22 20  1  0
 23 29  1  0
 23 22  1  0
 23 24  1  1
 25 24  1  0
 25 26  1  0
 26 27  1  0
 27 28  1  0
 29 31  1  0
 30 29  2  0
M  END
$$$$
