WVK.pdb
     RDKit          3D

 31 32  0  0  1  0  0  0  0  0999 V2000
   27.6860  -20.8460  -15.2088 N   0  0  0  0  0  0  0  0  0  0  0  0
   26.9932  -19.9633  -14.2916 C   0  0  1  0  0  0  0  0  0  0  0  0
   26.1110  -19.0608  -15.0973 C   0  0  0  0  0  0  0  0  0  0  0  0
   26.8270  -17.7661  -15.2422 C   0  0  0  0  0  0  0  0  0  0  0  0
   26.5280  -16.5618  -14.6542 C   0  0  0  0  0  0  0  0  0  0  0  0
   27.4030  -15.6179  -15.0274 N   0  0  0  0  0  0  0  0  0  0  0  0
   28.2893  -16.1809  -15.8633 C   0  0  0  0  0  0  0  0  0  0  0  0
   29.3926  -15.7317  -16.5567 C   0  0  0  0  0  0  0  0  0  0  0  0
   30.1524  -16.5320  -17.3684 C   0  0  0  0  0  0  0  0  0  0  0  0
   29.7972  -17.8543  -17.5001 C   0  0  0  0  0  0  0  0  0  0  0  0
   28.7005  -18.3713  -16.8323 C   0  0  0  0  0  0  0  0  0  0  0  0
   27.9633  -17.5312  -16.0253 C   0  0  0  0  0  0  0  0  0  0  0  0
   26.2664  -20.7176  -13.2409 C   0  0  0  0  0  0  0  0  0  0  0  0
   25.6151  -21.7617  -13.4760 O   0  0  0  0  0  0  0  0  0  0  0  0
   24.8791  -20.8861   -8.4155 C   0  0  0  0  0  0  0  0  0  0  0  0
   25.7894  -20.3305   -9.4866 C   0  0  1  0  0  0  0  0  0  0  0  0
   27.2185  -20.6132   -9.1168 C   0  0  0  0  0  0  0  0  0  0  0  0
   25.4302  -20.8090  -10.8566 C   0  0  2  0  0  0  0  0  0  0  0  0
   26.2838  -20.2707  -11.8980 N   0  0  0  0  0  0  0  0  0  0  0  0
   23.9986  -20.4846  -11.1011 C   0  0  0  0  0  0  0  0  0  0  0  0
   23.5971  -19.3250  -11.3486 O   0  0  0  0  0  0  0  0  0  0  0  0
   23.0713  -21.5420  -11.0475 N   0  0  0  0  0  0  0  0  0  0  0  0
   21.5926  -21.2667  -11.3097 C   0  0  1  0  0  0  0  0  0  0  0  0
   21.3450  -21.9491  -12.6049 C   0  0  0  0  0  0  0  0  0  0  0  0
   20.0514  -21.9860  -13.2680 C   0  0  0  0  0  0  0  0  0  0  0  0
   19.9346  -22.6845  -14.5550 C   0  0  0  0  0  0  0  0  0  0  0  0
   18.4317  -22.5780  -14.9551 C   0  0  0  0  0  0  0  0  0  0  0  0
   17.7678  -23.7075  -14.3631 N   0  0  0  0  0  0  0  0  0  0  0  0
   20.9034  -21.8219  -10.1314 C   0  0  0  0  0  0  0  0  0  0  0  0
   19.7416  -21.3333   -9.8185 O   0  0  0  0  0  0  0  0  0  0  0  0
   21.3537  -22.8244   -9.3102 O   0  0  0  0  0  0  0  0  0  0  0  0
  2  1  1  6
  2  3  1  0
  3  4  1  0
  4  5  2  0
  5  6  1  0
  7  6  1  0
  8  7  2  0
  9  8  1  0
 10 11  1  0
 10  9  2  0
 11 12  2  0
 12  4  1  0
 12  7  1  0
 13  2  1  0
 13 19  1  0
 14 13  2  0
 16 15  1  1
 17 16  1  0
 18 19  1  6
 18 16  1  0
 20 18  1  0
 21 20  2  0
 22 20  1  0
 23 29  1  0
 23 22  1  0
 23 24  1  6
 25 24  1  0
 25 26  1  0
 26 27  1  0
 27 28  1  0
 29 31  1  0
 30 29  2  0
M  END
$$$$
