WVK.pdb
     RDKit          3D

 31 32  0  0  1  0  0  0  0  0999 V2000
   28.5221  -20.5862  -16.3179 N   0  0  0  0  0  0  0  0  0  0  0  0
   27.4746  -19.8888  -15.5991 C   0  0  1  0  0  0  0  0  0  0  0  0
   26.5874  -19.2246  -16.6059 C   0  0  0  0  0  0  0  0  0  0  0  0
   27.2620  -17.9659  -17.0190 C   0  0  0  0  0  0  0  0  0  0  0  0
   27.7754  -17.6446  -18.2513 C   0  0  0  0  0  0  0  0  0  0  0  0
   28.3109  -16.4162  -18.2401 N   0  0  0  0  0  0  0  0  0  0  0  0
   28.1603  -15.9094  -17.0065 C   0  0  0  0  0  0  0  0  0  0  0  0
   28.4972  -14.7200  -16.3965 C   0  0  0  0  0  0  0  0  0  0  0  0
   28.2228  -14.4397  -15.0840 C   0  0  0  0  0  0  0  0  0  0  0  0
   27.5770  -15.3942  -14.3330 C   0  0  0  0  0  0  0  0  0  0  0  0
   27.2101  -16.6105  -14.8825 C   0  0  0  0  0  0  0  0  0  0  0  0
   27.5053  -16.8517  -16.2073 C   0  0  0  0  0  0  0  0  0  0  0  0
   26.7466  -20.7892  -14.6715 C   0  0  0  0  0  0  0  0  0  0  0  0
   26.5741  -22.0092  -14.8981 O   0  0  0  0  0  0  0  0  0  0  0  0
   27.0488  -21.1635  -10.8039 C   0  0  0  0  0  0  0  0  0  0  0  0
   25.6066  -20.8697  -11.1479 C   0  0  1  0  0  0  0  0  0  0  0  0
   25.2406  -19.5092  -10.6246 C   0  0  0  0  0  0  0  0  0  0  0  0
   25.3130  -21.0390  -12.6039 C   0  0  2  0  0  0  0  0  0  0  0  0
   26.2059  -20.2866  -13.4638 N   0  0  0  0  0  0  0  0  0  0  0  0
   23.8903  -20.6701  -12.8365 C   0  0  0  0  0  0  0  0  0  0  0  0
   23.5040  -19.4839  -12.9411 O   0  0  0  0  0  0  0  0  0  0  0  0
   22.9536  -21.7154  -12.9409 N   0  0  0  0  0  0  0  0  0  0  0  0
   21.4890  -21.3941  -13.2291 C   0  0  1  0  0  0  0  0  0  0  0  0
   20.9447  -22.6908  -13.7053 C   0  0  0  0  0  0  0  0  0  0  0  0
   19.6376  -22.8437  -14.3236 C   0  0  0  0  0  0  0  0  0  0  0  0
   18.6047  -23.6122  -13.6162 C   0  0  0  0  0  0  0  0  0  0  0  0
   17.3517  -23.5832  -14.5432 C   0  0  0  0  0  0  0  0  0  0  0  0
   16.3129  -24.2980  -13.8525 N   0  0  0  0  0  0  0  0  0  0  0  0
   20.9660  -20.8927  -11.9459 C   0  0  0  0  0  0  0  0  0  0  0  0
   21.5040  -21.3400  -10.8519 O   0  0  0  0  0  0  0  0  0  0  0  0
   19.9569  -19.9805  -11.7676 O   0  0  0  0  0  0  0  0  0  0  0  0
  2  1  1  6
  2  3  1  0
  3  4  1  0
  4  5  2  0
  5  6  1  0
  7  6  1  0
  8  7  2  0
  9  8  1  0
 10 11  1  0
 10  9  2  0
 11 12  2  0
 12  4  1  0
 12  7  1  0
 13  2  1  0
 13 19  1  0
 14 13  2  0
 16 15  1  6
 17 16  1  0
 18 19  1  6
 18 16  1  0
 20 18  1  0
 21 20  2  0
 22 20  1  0
 23 29  1  0
 23 22  1  0
 23 24  1  1
 25 24  1  0
 25 26  1  0
 26 27  1  0
 27 28  1  0
 29 31  1  0
 30 29  2  0
M  END
$$$$
