WVK.pdb
     RDKit          3D

 31 32  0  0  1  0  0  0  0  0999 V2000
   28.4225  -21.5159  -10.2238 N   0  0  0  0  0  0  0  0  0  0  0  0
   27.0945  -20.9918   -9.9747 C   0  0  1  0  0  0  0  0  0  0  0  0
   27.2303  -19.7927   -9.0885 C   0  0  0  0  0  0  0  0  0  0  0  0
   28.2620  -20.1180   -8.0689 C   0  0  0  0  0  0  0  0  0  0  0  0
   29.5901  -20.4039   -8.2683 C   0  0  0  0  0  0  0  0  0  0  0  0
   30.2059  -20.6495   -7.1036 N   0  0  0  0  0  0  0  0  0  0  0  0
   29.2989  -20.5301   -6.1216 C   0  0  0  0  0  0  0  0  0  0  0  0
   29.3289  -20.6598   -4.7496 C   0  0  0  0  0  0  0  0  0  0  0  0
   28.2318  -20.4800   -3.9494 C   0  0  0  0  0  0  0  0  0  0  0  0
   27.0355  -20.1527   -4.5443 C   0  0  0  0  0  0  0  0  0  0  0  0
   26.9344  -20.0070   -5.9171 C   0  0  0  0  0  0  0  0  0  0  0  0
   28.0633  -20.1967   -6.6854 C   0  0  0  0  0  0  0  0  0  0  0  0
   26.3635  -20.7160  -11.2359 C   0  0  0  0  0  0  0  0  0  0  0  0
   26.6572  -19.7702  -12.0033 O   0  0  0  0  0  0  0  0  0  0  0  0
   23.8121  -23.7598  -12.9670 C   0  0  0  0  0  0  0  0  0  0  0  0
   24.4797  -22.6136  -13.6917 C   0  0  1  0  0  0  0  0  0  0  0  0
   23.8070  -22.4095  -15.0201 C   0  0  0  0  0  0  0  0  0  0  0  0
   24.5456  -21.3680  -12.8678 C   0  0  2  0  0  0  0  0  0  0  0  0
   25.2773  -21.5350  -11.6270 N   0  0  0  0  0  0  0  0  0  0  0  0
   23.1547  -20.8989  -12.6233 C   0  0  0  0  0  0  0  0  0  0  0  0
   22.4926  -21.2316  -11.6142 O   0  0  0  0  0  0  0  0  0  0  0  0
   22.5763  -20.0442  -13.5803 N   0  0  0  0  0  0  0  0  0  0  0  0
   21.2008  -19.4352  -13.3190 C   0  0  1  0  0  0  0  0  0  0  0  0
   21.0505  -18.4516  -14.4211 C   0  0  0  0  0  0  0  0  0  0  0  0
   19.9112  -17.5592  -14.5620 C   0  0  0  0  0  0  0  0  0  0  0  0
   19.8418  -16.6786  -15.7357 C   0  0  0  0  0  0  0  0  0  0  0  0
   18.5526  -15.8236  -15.5430 C   0  0  0  0  0  0  0  0  0  0  0  0
   18.8447  -14.5162  -16.0650 N   0  0  0  0  0  0  0  0  0  0  0  0
   20.2823  -20.5874  -13.3359 C   0  0  0  0  0  0  0  0  0  0  0  0
   19.2427  -20.5495  -12.5586 O   0  0  0  0  0  0  0  0  0  0  0  0
   20.3961  -21.7204  -14.1011 O   0  0  0  0  0  0  0  0  0  0  0  0
  2  1  1  6
  2  3  1  0
  3  4  1  0
  4  5  2  0
  5  6  1  0
  7  6  1  0
  8  7  2  0
  9  8  1  0
 10 11  1  0
 10  9  2  0
 11 12  2  0
 12  4  1  0
 12  7  1  0
 13  2  1  0
 13 19  1  0
 14 13  2  0
 16 15  1  1
 17 16  1  0
 18 19  1  1
 18 16  1  0
 20 18  1  0
 21 20  2  0
 22 20  1  0
 23 29  1  0
 23 22  1  0
 23 24  1  6
 25 24  1  0
 25 26  1  0
 26 27  1  0
 27 28  1  0
 29 31  1  0
 30 29  2  0
M  END
$$$$
