WVK.pdb
     RDKit          3D

 31 32  0  0  1  0  0  0  0  0999 V2000
   24.7208  -19.2704  -11.2013 N   0  0  0  0  0  0  0  0  0  0  0  0
   25.7956  -20.1546  -11.6054 C   0  0  1  0  0  0  0  0  0  0  0  0
   25.6781  -21.4176  -10.8099 C   0  0  0  0  0  0  0  0  0  0  0  0
   25.8570  -21.0512   -9.3803 C   0  0  0  0  0  0  0  0  0  0  0  0
   24.8876  -20.7648   -8.4511 C   0  0  0  0  0  0  0  0  0  0  0  0
   25.4356  -20.4756   -7.2628 N   0  0  0  0  0  0  0  0  0  0  0  0
   26.7688  -20.5660   -7.3879 C   0  0  0  0  0  0  0  0  0  0  0  0
   27.8391  -20.3887   -6.5375 C   0  0  0  0  0  0  0  0  0  0  0  0
   29.1442  -20.5469   -6.9223 C   0  0  0  0  0  0  0  0  0  0  0  0
   29.4029  -20.9013   -8.2260 C   0  0  0  0  0  0  0  0  0  0  0  0
   28.3753  -21.0952   -9.1329 C   0  0  0  0  0  0  0  0  0  0  0  0
   27.0761  -20.9258   -8.7039 C   0  0  0  0  0  0  0  0  0  0  0  0
   25.8060  -20.3778  -13.0721 C   0  0  0  0  0  0  0  0  0  0  0  0
   24.7687  -20.6083  -13.7357 O   0  0  0  0  0  0  0  0  0  0  0  0
   28.4518  -18.1858  -15.3874 C   0  0  0  0  0  0  0  0  0  0  0  0
   28.3567  -19.6510  -15.7462 C   0  0  1  0  0  0  0  0  0  0  0  0
   29.6049  -20.3537  -15.2913 C   0  0  0  0  0  0  0  0  0  0  0  0
   27.1037  -20.2905  -15.2404 C   0  0  2  0  0  0  0  0  0  0  0  0
   27.0234  -20.3373  -13.7932 N   0  0  0  0  0  0  0  0  0  0  0  0
   27.0022  -21.6495  -15.8378 C   0  0  0  0  0  0  0  0  0  0  0  0
   27.5032  -22.6655  -15.3049 O   0  0  0  0  0  0  0  0  0  0  0  0
   26.3081  -21.7772  -17.0555 N   0  0  0  0  0  0  0  0  0  0  0  0
   26.1183  -23.1584  -17.6781 C   0  0  1  0  0  0  0  0  0  0  0  0
   24.7694  -23.0710  -18.2925 C   0  0  0  0  0  0  0  0  0  0  0  0
   24.1130  -24.1783  -18.9688 C   0  0  0  0  0  0  0  0  0  0  0  0
   22.7257  -24.0098  -19.4214 C   0  0  0  0  0  0  0  0  0  0  0  0
   22.3233  -25.3750  -20.0575 C   0  0  0  0  0  0  0  0  0  0  0  0
   20.9200  -25.2903  -20.3585 N   0  0  0  0  0  0  0  0  0  0  0  0
   27.2552  -23.3003  -18.6048 C   0  0  0  0  0  0  0  0  0  0  0  0
   27.8528  -22.2195  -19.0063 O   0  0  0  0  0  0  0  0  0  0  0  0
   27.7735  -24.4702  -19.0997 O   0  0  0  0  0  0  0  0  0  0  0  0
  2  1  1  6
  2  3  1  0
  3  4  1  0
  4  5  2  0
  5  6  1  0
  7  6  1  0
  8  7  2  0
  9  8  1  0
 10 11  1  0
 10  9  2  0
 11 12  2  0
 12  4  1  0
 12  7  1  0
 13  2  1  0
 13 19  1  0
 14 13  2  0
 16 15  1  1
 17 16  1  0
 18 19  1  1
 18 16  1  0
 20 18  1  0
 21 20  2  0
 22 20  1  0
 23 29  1  0
 23 22  1  0
 23 24  1  6
 25 24  1  0
 25 26  1  0
 26 27  1  0
 27 28  1  0
 29 31  1  0
 30 29  2  0
M  END
$$$$
