WVK.pdb
     RDKit          3D

 31 32  0  0  1  0  0  0  0  0999 V2000
   27.0080  -20.5864  -17.9037 N   0  0  0  0  0  0  0  0  0  0  0  0
   26.5095  -19.8397  -16.7661 C   0  0  1  0  0  0  0  0  0  0  0  0
   25.0568  -19.5607  -16.9978 C   0  0  0  0  0  0  0  0  0  0  0  0
   24.9772  -18.3853  -17.9044 C   0  0  0  0  0  0  0  0  0  0  0  0
   26.0033  -17.7467  -18.5562 C   0  0  0  0  0  0  0  0  0  0  0  0
   25.5412  -16.7216  -19.2853 N   0  0  0  0  0  0  0  0  0  0  0  0
   24.2095  -16.6674  -19.1276 C   0  0  0  0  0  0  0  0  0  0  0  0
   23.2058  -15.8552  -19.6102 C   0  0  0  0  0  0  0  0  0  0  0  0
   21.8839  -16.0149  -19.2880 C   0  0  0  0  0  0  0  0  0  0  0  0
   21.5375  -17.0393  -18.4379 C   0  0  0  0  0  0  0  0  0  0  0  0
   22.4950  -17.8921  -17.9165 C   0  0  0  0  0  0  0  0  0  0  0  0
   23.8139  -17.6962  -18.2668 C   0  0  0  0  0  0  0  0  0  0  0  0
   26.7813  -20.5369  -15.4850 C   0  0  0  0  0  0  0  0  0  0  0  0
   26.3562  -21.6873  -15.2294 O   0  0  0  0  0  0  0  0  0  0  0  0
   28.9584  -20.4732  -10.9876 C   0  0  0  0  0  0  0  0  0  0  0  0
   28.8941  -19.9797  -12.4148 C   0  0  1  0  0  0  0  0  0  0  0  0
   30.1346  -20.4128  -13.1443 C   0  0  0  0  0  0  0  0  0  0  0  0
   27.6325  -20.3807  -13.1093 C   0  0  2  0  0  0  0  0  0  0  0  0
   27.5521  -19.9082  -14.4779 N   0  0  0  0  0  0  0  0  0  0  0  0
   26.4823  -19.9002  -12.2967 C   0  0  0  0  0  0  0  0  0  0  0  0
   26.1411  -18.6967  -12.2464 O   0  0  0  0  0  0  0  0  0  0  0  0
   25.7589  -20.8565  -11.5597 N   0  0  0  0  0  0  0  0  0  0  0  0
   24.5098  -20.4335  -10.7903 C   0  0  1  0  0  0  0  0  0  0  0  0
   23.4132  -21.1171  -11.5217 C   0  0  0  0  0  0  0  0  0  0  0  0
   22.0006  -20.8864  -11.2659 C   0  0  0  0  0  0  0  0  0  0  0  0
   21.0074  -21.6165  -12.0649 C   0  0  0  0  0  0  0  0  0  0  0  0
   19.6201  -21.2178  -11.4760 C   0  0  0  0  0  0  0  0  0  0  0  0
   18.6283  -21.8969  -12.2649 N   0  0  0  0  0  0  0  0  0  0  0  0
   24.7610  -20.8847   -9.4101 C   0  0  0  0  0  0  0  0  0  0  0  0
   25.7597  -21.6888   -9.2041 O   0  0  0  0  0  0  0  0  0  0  0  0
   24.0498  -20.5404   -8.2885 O   0  0  0  0  0  0  0  0  0  0  0  0
  2  1  1  6
  2  3  1  0
  3  4  1  0
  4  5  2  0
  5  6  1  0
  7  6  1  0
  8  7  2  0
  9  8  1  0
 10 11  1  0
 10  9  2  0
 11 12  2  0
 12  4  1  0
 12  7  1  0
 13  2  1  0
 13 19  1  0
 14 13  2  0
 16 15  1  1
 17 16  1  0
 18 19  1  6
 18 16  1  0
 20 18  1  0
 21 20  2  0
 22 20  1  0
 23 29  1  0
 23 22  1  0
 23 24  1  6
 25 24  1  0
 25 26  1  0
 26 27  1  0
 27 28  1  0
 29 31  1  0
 30 29  2  0
M  END
$$$$
