RTH.pdb
     RDKit          3D

 29 29  0  0  1  0  0  0  0  0999 V2000
   24.4435  -10.7105  -24.0632 N   0  0  0  0  0  0  0  0  0  0  0  0
   24.3105  -12.0807  -23.7439 C   0  0  0  0  0  0  0  0  0  0  0  0
   24.4199  -12.9738  -24.6752 N   0  0  0  0  0  0  0  0  0  0  0  0
   24.0563  -12.4683  -22.3938 N   0  0  0  0  0  0  0  0  0  0  0  0
   23.9876  -11.5199  -21.3233 C   0  0  0  0  0  0  0  0  0  0  0  0
   23.8006  -12.2030  -19.9759 C   0  0  0  0  0  0  0  0  0  0  0  0
   22.7187  -13.2394  -20.1121 C   0  0  0  0  0  0  0  0  0  0  0  0
   22.5396  -14.0711  -18.8513 C   0  0  2  0  0  0  0  0  0  0  0  0
   23.8698  -14.6737  -18.5878 N   0  0  0  0  0  0  0  0  0  0  0  0
   21.5994  -15.1753  -18.9764 C   0  0  0  0  0  0  0  0  0  0  0  0
   20.4727  -15.0272  -19.5720 O   0  0  0  0  0  0  0  0  0  0  0  0
   24.3312  -13.9906  -24.4449 C   0  0  0  0  0  0  0  0  0  0  0  0
   22.4503  -18.6887  -20.1746 C   0  0  2  0  0  0  0  0  0  0  0  0
   21.6876  -18.8486  -18.8791 O   0  0  0  0  0  0  0  0  0  0  0  0
   22.5884  -18.9515  -17.8495 C   0  0  2  0  0  0  0  0  0  0  0  0
   20.8493  -17.5793  -18.7106 N   0  0  0  0  0  0  0  0  0  0  0  0
   21.7933  -16.5029  -18.4825 C   0  0  0  0  0  0  0  0  0  0  0  0
   19.8524  -17.7104  -17.6499 O   0  0  0  0  0  0  0  0  0  0  0  0
   20.1672  -17.4130  -16.4694 N   0  0  0  0  0  0  0  0  0  0  0  0
   18.5458  -18.1694  -17.9590 C   0  0  1  0  0  0  0  0  0  0  0  0
   17.4931  -18.2641  -16.9367 C   0  0  0  0  0  0  0  0  0  0  0  0
   16.1321  -18.1745  -17.5869 C   0  0  0  0  0  0  0  0  0  0  0  0
   15.5778  -16.8177  -17.6568 C   0  0  0  0  0  0  0  0  0  0  0  0
   16.0655  -15.6493  -17.1239 N   0  0  0  0  0  0  0  0  0  0  0  0
   15.2169  -14.6409  -17.4275 C   0  0  0  0  0  0  0  0  0  0  0  0
   14.2291  -15.1887  -18.1337 N   0  0  0  0  0  0  0  0  0  0  0  0
   14.4324  -16.5043  -18.2811 C   0  0  0  0  0  0  0  0  0  0  0  0
   17.6162  -19.5760  -16.2756 O   0  0  0  0  0  0  0  0  0  0  0  0
   17.0499  -19.7574  -15.1703 O   0  0  0  0  0  0  0  0  0  0  0  0
  1  2  1  0
  2  3  2  0
  4  5  1  0
  4  2  1  0
  6  5  1  0
  7  6  1  0
  8  7  1  0
  8  9  1  6
  8 10  1  0
 10 11  2  0
 13 12  1  6
 13 14  1  0
 13 15  1  0
 15 17  1  0
 16 10  1  0
 15 16  1  1
 17 18  2  0
 19 17  1  0
 19 20  1  0
 20 27  1  0
 20 21  1  1
 22 21  1  0
 23 22  2  0
 24 23  1  0
 25 24  1  0
 25 26  2  0
 26 22  1  0
 27 28  2  0
 27 29  1  0
M  END
$$$$
