RTH.pdb
     RDKit          3D

 29 29  0  0  1  0  0  0  0  0999 V2000
   20.2085  -22.9497  -11.3613 N   0  0  0  0  0  0  0  0  0  0  0  0
   19.6713  -21.9699  -12.2265 C   0  0  0  0  0  0  0  0  0  0  0  0
   18.6921  -21.2229  -11.8263 N   0  0  0  0  0  0  0  0  0  0  0  0
   20.2149  -21.8125  -13.5370 N   0  0  0  0  0  0  0  0  0  0  0  0
   21.4420  -22.4316  -13.9380 C   0  0  0  0  0  0  0  0  0  0  0  0
   22.6495  -21.7474  -13.3127 C   0  0  0  0  0  0  0  0  0  0  0  0
   23.8968  -22.3816  -13.8652 C   0  0  0  0  0  0  0  0  0  0  0  0
   25.1682  -21.7674  -13.2997 C   0  0  2  0  0  0  0  0  0  0  0  0
   25.0797  -21.9666  -11.8319 N   0  0  0  0  0  0  0  0  0  0  0  0
   25.3040  -20.3347  -13.5181 C   0  0  0  0  0  0  0  0  0  0  0  0
   25.0186  -19.4897  -12.5957 O   0  0  0  0  0  0  0  0  0  0  0  0
   18.2989  -20.4855  -12.4560 C   0  0  0  0  0  0  0  0  0  0  0  0
   28.2054  -18.4385  -15.0978 C   0  0  2  0  0  0  0  0  0  0  0  0
   26.9646  -17.9857  -15.8332 O   0  0  0  0  0  0  0  0  0  0  0  0
   26.8414  -18.7249  -16.9823 C   0  0  2  0  0  0  0  0  0  0  0  0
   25.7823  -18.2698  -14.9039 N   0  0  0  0  0  0  0  0  0  0  0  0
   25.7516  -19.7078  -14.7227 C   0  0  0  0  0  0  0  0  0  0  0  0
   24.5286  -17.7236  -15.4193 O   0  0  0  0  0  0  0  0  0  0  0  0
   23.7234  -18.4855  -16.0128 N   0  0  0  0  0  0  0  0  0  0  0  0
   24.2321  -16.3467  -15.2470 C   0  0  2  0  0  0  0  0  0  0  0  0
   23.0202  -15.7358  -15.8130 C   0  0  0  0  0  0  0  0  0  0  0  0
   22.9305  -14.2858  -15.3976 C   0  0  0  0  0  0  0  0  0  0  0  0
   21.7864  -13.5598  -15.9606 C   0  0  0  0  0  0  0  0  0  0  0  0
   20.5141  -14.0073  -16.2214 N   0  0  0  0  0  0  0  0  0  0  0  0
   19.7933  -12.9940  -16.7532 C   0  0  0  0  0  0  0  0  0  0  0  0
   20.6153  -11.9477  -16.8146 N   0  0  0  0  0  0  0  0  0  0  0  0
   21.8244  -12.2732  -16.3392 C   0  0  0  0  0  0  0  0  0  0  0  0
   23.1200  -15.8017  -17.2823 O   0  0  0  0  0  0  0  0  0  0  0  0
   22.1183  -16.1646  -17.9459 O   0  0  0  0  0  0  0  0  0  0  0  0
  1  2  1  0
  2  3  2  0
  4  5  1  0
  4  2  1  0
  6  5  1  0
  7  6  1  0
  8  7  1  0
  8  9  1  1
  8 10  1  0
 10 11  2  0
 13 12  1  6
 13 14  1  0
 13 15  1  0
 15 17  1  0
 16 10  1  0
 15 16  1  1
 17 18  2  0
 19 17  1  0
 19 20  1  0
 20 27  1  0
 20 21  1  6
 22 21  1  0
 23 22  2  0
 24 23  1  0
 25 24  1  0
 25 26  2  0
 26 22  1  0
 27 28  2  0
 27 29  1  0
M  END
$$$$
