RTH.pdb
     RDKit          3D

 29 29  0  0  1  0  0  0  0  0999 V2000
   16.6257  -16.9313  -14.7342 N   0  0  0  0  0  0  0  0  0  0  0  0
   16.6390  -17.2775  -16.1042 C   0  0  0  0  0  0  0  0  0  0  0  0
   16.5421  -18.5198  -16.4567 N   0  0  0  0  0  0  0  0  0  0  0  0
   16.7594  -16.2515  -17.0893 N   0  0  0  0  0  0  0  0  0  0  0  0
   16.7994  -14.8614  -16.7483 C   0  0  0  0  0  0  0  0  0  0  0  0
   16.8284  -13.9775  -17.9872 C   0  0  0  0  0  0  0  0  0  0  0  0
   16.7500  -12.5402  -17.5502 C   0  0  0  0  0  0  0  0  0  0  0  0
   16.9101  -11.5649  -18.7063 C   0  0  2  0  0  0  0  0  0  0  0  0
   17.4184  -12.3793  -19.8378 N   0  0  0  0  0  0  0  0  0  0  0  0
   17.8853  -10.5076  -18.4829 C   0  0  0  0  0  0  0  0  0  0  0  0
   18.9960  -10.4787  -19.1246 O   0  0  0  0  0  0  0  0  0  0  0  0
   16.5830  -18.7866  -17.4677 C   0  0  0  0  0  0  0  0  0  0  0  0
   19.0898   -6.1051  -16.6314 C   0  0  2  0  0  0  0  0  0  0  0  0
   18.0360   -7.1704  -16.8325 O   0  0  0  0  0  0  0  0  0  0  0  0
   17.1195   -6.7139  -17.7456 C   0  0  1  0  0  0  0  0  0  0  0  0
   18.7609   -8.3963  -17.3928 N   0  0  0  0  0  0  0  0  0  0  0  0
   17.7456   -9.4157  -17.5706 C   0  0  0  0  0  0  0  0  0  0  0  0
   19.8680   -8.8233  -16.5396 O   0  0  0  0  0  0  0  0  0  0  0  0
   19.6183   -9.3654  -15.4329 N   0  0  0  0  0  0  0  0  0  0  0  0
   21.2071   -8.6240  -16.9645 C   0  0  1  0  0  0  0  0  0  0  0  0
   22.3517   -9.1174  -16.1843 C   0  0  0  0  0  0  0  0  0  0  0  0
   23.5795   -9.1956  -17.0615 C   0  0  0  0  0  0  0  0  0  0  0  0
   24.7676   -9.7466  -16.3998 C   0  0  0  0  0  0  0  0  0  0  0  0
   24.8553  -10.5044  -15.2575 N   0  0  0  0  0  0  0  0  0  0  0  0
   26.1568  -10.7774  -15.0111 C   0  0  0  0  0  0  0  0  0  0  0  0
   26.8486  -10.1941  -15.9886 N   0  0  0  0  0  0  0  0  0  0  0  0
   26.0233   -9.5666  -16.8366 C   0  0  0  0  0  0  0  0  0  0  0  0
   22.6087   -8.1576  -15.0952 O   0  0  0  0  0  0  0  0  0  0  0  0
   22.6002   -6.9288  -15.3506 O   0  0  0  0  0  0  0  0  0  0  0  0
  1  2  1  0
  2  3  2  0
  4  5  1  0
  4  2  1  0
  6  5  1  0
  7  6  1  0
  8  7  1  0
  8  9  1  6
  8 10  1  0
 10 11  2  0
 13 12  1  1
 13 14  1  0
 13 15  1  0
 15 17  1  0
 16 10  1  0
 15 16  1  1
 17 18  2  0
 19 17  1  0
 19 20  1  0
 20 27  1  0
 20 21  1  1
 22 21  1  0
 23 22  2  0
 24 23  1  0
 25 24  1  0
 25 26  2  0
 26 22  1  0
 27 28  2  0
 27 29  1  0
M  END
$$$$
