RTH.pdb
     RDKit          3D

 29 29  0  0  1  0  0  0  0  0999 V2000
   35.2327  -26.9060  -17.8801 N   0  0  0  0  0  0  0  0  0  0  0  0
   35.0565  -27.9657  -18.7984 C   0  0  0  0  0  0  0  0  0  0  0  0
   36.0575  -28.7285  -19.1031 N   0  0  0  0  0  0  0  0  0  0  0  0
   33.7729  -28.1856  -19.3828 N   0  0  0  0  0  0  0  0  0  0  0  0
   32.6595  -27.3194  -19.1374 C   0  0  0  0  0  0  0  0  0  0  0  0
   31.9261  -27.6927  -17.8569 C   0  0  0  0  0  0  0  0  0  0  0  0
   30.7513  -26.7675  -17.6924 C   0  0  0  0  0  0  0  0  0  0  0  0
   31.1664  -25.3484  -17.3357 C   0  0  2  0  0  0  0  0  0  0  0  0
   31.7553  -25.4428  -15.9770 N   0  0  0  0  0  0  0  0  0  0  0  0
   30.0699  -24.3949  -17.2491 C   0  0  0  0  0  0  0  0  0  0  0  0
   29.4592  -24.1802  -16.1414 O   0  0  0  0  0  0  0  0  0  0  0  0
   35.9331  -29.5191  -19.7772 C   0  0  0  0  0  0  0  0  0  0  0  0
   30.2765  -20.9318  -18.1934 C   0  0  2  0  0  0  0  0  0  0  0  0
   29.0020  -21.3606  -18.8844 O   0  0  0  0  0  0  0  0  0  0  0  0
   29.2924  -21.6664  -20.1899 C   0  0  2  0  0  0  0  0  0  0  0  0
   28.5139  -22.6137  -18.1540 N   0  0  0  0  0  0  0  0  0  0  0  0
   29.5540  -23.6088  -18.3261 C   0  0  0  0  0  0  0  0  0  0  0  0
   27.2041  -23.0564  -18.6278 O   0  0  0  0  0  0  0  0  0  0  0  0
   26.9875  -24.2857  -18.7788 N   0  0  0  0  0  0  0  0  0  0  0  0
   26.1939  -22.1012  -18.9118 C   0  0  1  0  0  0  0  0  0  0  0  0
   24.8346  -22.5010  -19.3049 C   0  0  0  0  0  0  0  0  0  0  0  0
   24.1514  -23.2068  -18.1568 C   0  0  0  0  0  0  0  0  0  0  0  0
   22.7451  -23.5473  -18.4003 C   0  0  0  0  0  0  0  0  0  0  0  0
   22.1457  -24.0020  -19.5497 N   0  0  0  0  0  0  0  0  0  0  0  0
   20.8240  -24.1708  -19.3178 C   0  0  0  0  0  0  0  0  0  0  0  0
   20.6240  -23.8237  -18.0475 N   0  0  0  0  0  0  0  0  0  0  0  0
   21.7756  -23.4442  -17.4786 C   0  0  0  0  0  0  0  0  0  0  0  0
   24.0755  -21.2794  -19.6283 O   0  0  0  0  0  0  0  0  0  0  0  0
   24.6167  -20.1607  -19.4525 O   0  0  0  0  0  0  0  0  0  0  0  0
  1  2  1  0
  2  3  2  0
  4  5  1  0
  4  2  1  0
  6  5  1  0
  7  6  1  0
  8  7  1  0
  8  9  1  1
  8 10  1  0
 10 11  2  0
 13 12  1  6
 13 14  1  0
 13 15  1  0
 15 17  1  0
 16 10  1  0
 15 16  1  1
 17 18  2  0
 19 17  1  0
 19 20  1  0
 20 27  1  0
 20 21  1  6
 22 21  1  0
 23 22  2  0
 24 23  1  0
 25 24  1  0
 25 26  2  0
 26 22  1  0
 27 28  2  0
 27 29  1  0
M  END
$$$$
