RTH.pdb
     RDKit          3D

 29 29  0  0  1  0  0  0  0  0999 V2000
   39.4972   -8.2193   -9.6199 N   0  0  0  0  0  0  0  0  0  0  0  0
   39.9265   -9.5657   -9.6179 C   0  0  0  0  0  0  0  0  0  0  0  0
   40.6418  -10.0134   -8.6356 N   0  0  0  0  0  0  0  0  0  0  0  0
   39.5663  -10.4219  -10.7018 N   0  0  0  0  0  0  0  0  0  0  0  0
   39.1754   -9.9152  -11.9826 C   0  0  0  0  0  0  0  0  0  0  0  0
   37.6614   -9.8716  -12.1337 C   0  0  0  0  0  0  0  0  0  0  0  0
   37.3333   -9.3382  -13.5016 C   0  0  0  0  0  0  0  0  0  0  0  0
   36.9647   -7.8627  -13.4840 C   0  0  2  0  0  0  0  0  0  0  0  0
   36.9364   -7.4834  -12.0496 N   0  0  0  0  0  0  0  0  0  0  0  0
   35.6475   -7.5557  -14.0220 C   0  0  0  0  0  0  0  0  0  0  0  0
   34.5914   -7.6635  -13.3014 O   0  0  0  0  0  0  0  0  0  0  0  0
   41.0069  -10.9939   -8.6520 C   0  0  0  0  0  0  0  0  0  0  0  0
   34.3972   -4.5183  -15.8118 C   0  0  2  0  0  0  0  0  0  0  0  0
   34.0689   -5.6712  -16.7330 O   0  0  0  0  0  0  0  0  0  0  0  0
   35.0721   -5.7904  -17.6612 C   0  0  2  0  0  0  0  0  0  0  0  0
   34.0203   -6.9252  -15.8571 N   0  0  0  0  0  0  0  0  0  0  0  0
   35.3662   -7.1140  -15.3524 C   0  0  0  0  0  0  0  0  0  0  0  0
   33.5041   -8.0860  -16.5796 O   0  0  0  0  0  0  0  0  0  0  0  0
   34.2926   -9.0109  -16.9018 N   0  0  0  0  0  0  0  0  0  0  0  0
   32.1259   -8.1593  -16.9094 C   0  0  1  0  0  0  0  0  0  0  0  0
   31.5386   -9.3542  -17.5336 C   0  0  0  0  0  0  0  0  0  0  0  0
   30.0325   -9.3084  -17.4210 C   0  0  0  0  0  0  0  0  0  0  0  0
   29.3441  -10.4831  -17.9678 C   0  0  0  0  0  0  0  0  0  0  0  0
   29.8649  -11.6895  -18.3683 N   0  0  0  0  0  0  0  0  0  0  0  0
   28.8593  -12.4731  -18.8198 C   0  0  0  0  0  0  0  0  0  0  0  0
   27.7453  -11.7536  -18.6957 N   0  0  0  0  0  0  0  0  0  0  0  0
   28.0212  -10.5478  -18.1820 C   0  0  0  0  0  0  0  0  0  0  0  0
   31.9067   -9.3505  -18.9611 O   0  0  0  0  0  0  0  0  0  0  0  0
   31.9651   -8.2561  -19.5729 O   0  0  0  0  0  0  0  0  0  0  0  0
  1  2  1  0
  2  3  2  0
  4  5  1  0
  4  2  1  0
  6  5  1  0
  7  6  1  0
  8  7  1  0
  8  9  1  1
  8 10  1  0
 10 11  2  0
 13 12  1  6
 13 14  1  0
 13 15  1  0
 15 17  1  0
 16 10  1  0
 15 16  1  6
 17 18  2  0
 19 17  1  0
 19 20  1  0
 20 27  1  0
 20 21  1  6
 22 21  1  0
 23 22  2  0
 24 23  1  0
 25 24  1  0
 25 26  2  0
 26 22  1  0
 27 28  2  0
 27 29  1  0
M  END
$$$$
