RTH.pdb
     RDKit          3D

 29 29  0  0  1  0  0  0  0  0999 V2000
   28.4038  -18.7615  -17.8470 N   0  0  0  0  0  0  0  0  0  0  0  0
   27.4366  -17.8071  -17.4589 C   0  0  0  0  0  0  0  0  0  0  0  0
   27.0822  -16.8750  -18.2850 N   0  0  0  0  0  0  0  0  0  0  0  0
   26.8578  -17.8799  -16.1561 N   0  0  0  0  0  0  0  0  0  0  0  0
   27.1447  -18.9489  -15.2477 C   0  0  0  0  0  0  0  0  0  0  0  0
   26.7774  -20.3035  -15.8370 C   0  0  0  0  0  0  0  0  0  0  0  0
   25.4097  -20.6852  -15.3404 C   0  0  0  0  0  0  0  0  0  0  0  0
   25.4381  -21.2845  -13.9427 C   0  0  2  0  0  0  0  0  0  0  0  0
   26.0685  -22.6184  -14.1017 N   0  0  0  0  0  0  0  0  0  0  0  0
   24.1287  -21.5108  -13.3485 C   0  0  0  0  0  0  0  0  0  0  0  0
   23.5723  -22.6664  -13.3817 O   0  0  0  0  0  0  0  0  0  0  0  0
   26.4070  -16.1334  -17.9866 C   0  0  0  0  0  0  0  0  0  0  0  0
   20.6187  -20.3918  -10.1748 C   0  0  1  0  0  0  0  0  0  0  0  0
   21.9570  -20.0571  -10.7935 O   0  0  0  0  0  0  0  0  0  0  0  0
   22.9500  -20.4915   -9.9525 C   0  0  1  0  0  0  0  0  0  0  0  0
   22.0258  -20.8226  -12.1170 N   0  0  0  0  0  0  0  0  0  0  0  0
   23.3291  -20.5313  -12.6811 C   0  0  0  0  0  0  0  0  0  0  0  0
   20.9191  -20.4855  -13.0101 O   0  0  0  0  0  0  0  0  0  0  0  0
   20.9294  -19.3825  -13.6136 N   0  0  0  0  0  0  0  0  0  0  0  0
   19.8488  -21.4001  -13.1878 C   0  0  1  0  0  0  0  0  0  0  0  0
   18.7485  -21.1359  -14.1268 C   0  0  0  0  0  0  0  0  0  0  0  0
   17.9833  -22.4103  -14.3975 C   0  0  0  0  0  0  0  0  0  0  0  0
   18.6821  -23.3698  -15.2601 C   0  0  0  0  0  0  0  0  0  0  0  0
   19.7981  -23.1873  -16.0400 N   0  0  0  0  0  0  0  0  0  0  0  0
   20.0823  -24.3461  -16.6769 C   0  0  0  0  0  0  0  0  0  0  0  0
   19.1532  -25.2185  -16.2898 N   0  0  0  0  0  0  0  0  0  0  0  0
   18.2989  -24.6438  -15.4331 C   0  0  0  0  0  0  0  0  0  0  0  0
   17.8376  -20.1613  -13.4993 O   0  0  0  0  0  0  0  0  0  0  0  0
   17.8328  -20.0483  -12.2493 O   0  0  0  0  0  0  0  0  0  0  0  0
  1  2  1  0
  2  3  2  0
  4  5  1  0
  4  2  1  0
  6  5  1  0
  7  6  1  0
  8  7  1  0
  8  9  1  6
  8 10  1  0
 10 11  2  0
 13 12  1  1
 13 14  1  0
 13 15  1  0
 15 17  1  0
 16 10  1  0
 15 16  1  6
 17 18  2  0
 19 17  1  0
 19 20  1  0
 20 27  1  0
 20 21  1  6
 22 21  1  0
 23 22  2  0
 24 23  1  0
 25 24  1  0
 25 26  2  0
 26 22  1  0
 27 28  2  0
 27 29  1  0
M  END
$$$$
