RTH.pdb
     RDKit          3D

 29 29  0  0  1  0  0  0  0  0999 V2000
   13.7996  -15.3368  -13.4299 N   0  0  0  0  0  0  0  0  0  0  0  0
   14.1744  -16.0001  -14.6201 C   0  0  0  0  0  0  0  0  0  0  0  0
   14.1943  -17.2944  -14.6586 N   0  0  0  0  0  0  0  0  0  0  0  0
   14.5285  -15.2349  -15.7719 N   0  0  0  0  0  0  0  0  0  0  0  0
   15.3719  -14.0803  -15.6964 C   0  0  0  0  0  0  0  0  0  0  0  0
   15.7295  -13.5519  -17.0784 C   0  0  0  0  0  0  0  0  0  0  0  0
   16.6052  -12.3397  -16.9142 C   0  0  0  0  0  0  0  0  0  0  0  0
   17.9718  -12.5101  -17.5598 C   0  0  2  0  0  0  0  0  0  0  0  0
   18.3037  -13.9475  -17.3996 N   0  0  0  0  0  0  0  0  0  0  0  0
   19.0456  -11.7612  -16.9235 C   0  0  0  0  0  0  0  0  0  0  0  0
   19.7044  -12.2488  -15.9364 O   0  0  0  0  0  0  0  0  0  0  0  0
   14.4438  -17.7926  -15.5443 C   0  0  0  0  0  0  0  0  0  0  0  0
   21.7946  -10.1413  -18.7437 C   0  0  2  0  0  0  0  0  0  0  0  0
   21.3705   -9.0704  -17.7644 O   0  0  0  0  0  0  0  0  0  0  0  0
   20.5410   -8.1890  -18.4103 C   0  0  2  0  0  0  0  0  0  0  0  0
   20.6028   -9.7833  -16.6488 N   0  0  0  0  0  0  0  0  0  0  0  0
   19.4903  -10.4535  -17.2927 C   0  0  0  0  0  0  0  0  0  0  0  0
   20.1917   -8.8676  -15.5865 O   0  0  0  0  0  0  0  0  0  0  0  0
   19.0450   -8.3531  -15.6272 N   0  0  0  0  0  0  0  0  0  0  0  0
   21.0842   -8.5684  -14.5247 C   0  0  1  0  0  0  0  0  0  0  0  0
   20.7194   -7.6459  -13.4393 C   0  0  0  0  0  0  0  0  0  0  0  0
   21.6371   -7.8513  -12.2566 C   0  0  0  0  0  0  0  0  0  0  0  0
   21.4011   -6.9348  -11.1353 C   0  0  0  0  0  0  0  0  0  0  0  0
   20.3927   -6.0193  -10.9563 N   0  0  0  0  0  0  0  0  0  0  0  0
   20.5822   -5.3828   -9.7781 C   0  0  0  0  0  0  0  0  0  0  0  0
   21.6887   -5.9036   -9.2501 N   0  0  0  0  0  0  0  0  0  0  0  0
   22.1961   -6.8434  -10.0583 C   0  0  0  0  0  0  0  0  0  0  0  0
   20.8885   -6.2682  -13.9357 O   0  0  0  0  0  0  0  0  0  0  0  0
   21.8345   -6.0146  -14.7205 O   0  0  0  0  0  0  0  0  0  0  0  0
  1  2  1  0
  2  3  2  0
  4  5  1  0
  4  2  1  0
  6  5  1  0
  7  6  1  0
  8  7  1  0
  8  9  1  1
  8 10  1  0
 10 11  2  0
 13 12  1  6
 13 14  1  0
 13 15  1  0
 15 17  1  0
 16 10  1  0
 15 16  1  1
 17 18  2  0
 19 17  1  0
 19 20  1  0
 20 27  1  0
 20 21  1  6
 22 21  1  0
 23 22  2  0
 24 23  1  0
 25 24  1  0
 25 26  2  0
 26 22  1  0
 27 28  2  0
 27 29  1  0
M  END
$$$$
