RTH.pdb
     RDKit          3D

 29 29  0  0  1  0  0  0  0  0999 V2000
   27.6704  -19.7392   -6.8650 N   0  0  0  0  0  0  0  0  0  0  0  0
   26.3599  -20.2471   -7.0124 C   0  0  0  0  0  0  0  0  0  0  0  0
   25.5544  -20.2584   -5.9984 N   0  0  0  0  0  0  0  0  0  0  0  0
   25.9353  -20.7442   -8.2813 N   0  0  0  0  0  0  0  0  0  0  0  0
   26.8612  -21.1552   -9.2932 C   0  0  0  0  0  0  0  0  0  0  0  0
   26.6631  -20.3791  -10.5876 C   0  0  0  0  0  0  0  0  0  0  0  0
   26.6262  -21.3574  -11.7299 C   0  0  0  0  0  0  0  0  0  0  0  0
   25.3410  -21.2685  -12.5385 C   0  0  2  0  0  0  0  0  0  0  0  0
   25.4886  -22.2740  -13.6198 N   0  0  0  0  0  0  0  0  0  0  0  0
   25.1168  -19.9862  -13.1900 C   0  0  0  0  0  0  0  0  0  0  0  0
   24.9486  -18.9124  -12.5081 O   0  0  0  0  0  0  0  0  0  0  0  0
   24.5896  -20.6516   -6.0948 C   0  0  0  0  0  0  0  0  0  0  0  0
   25.5158  -16.8708  -16.8467 C   0  0  2  0  0  0  0  0  0  0  0  0
   25.6899  -18.2943  -16.3682 O   0  0  0  0  0  0  0  0  0  0  0  0
   26.9861  -18.4615  -15.9511 C   0  0  1  0  0  0  0  0  0  0  0  0
   24.7365  -18.4728  -15.1844 N   0  0  0  0  0  0  0  0  0  0  0  0
   25.0591  -19.7599  -14.6005 C   0  0  0  0  0  0  0  0  0  0  0  0
   23.3345  -18.3502  -15.5787 O   0  0  0  0  0  0  0  0  0  0  0  0
   22.6157  -19.3809  -15.6245 N   0  0  0  0  0  0  0  0  0  0  0  0
   22.7993  -17.0770  -15.9045 C   0  0  1  0  0  0  0  0  0  0  0  0
   21.3523  -16.8158  -15.8919 C   0  0  0  0  0  0  0  0  0  0  0  0
   20.8068  -16.9979  -14.4946 C   0  0  0  0  0  0  0  0  0  0  0  0
   19.3651  -16.7569  -14.3666 C   0  0  0  0  0  0  0  0  0  0  0  0
   18.4631  -16.3464  -15.3177 N   0  0  0  0  0  0  0  0  0  0  0  0
   17.2409  -16.2435  -14.7477 C   0  0  0  0  0  0  0  0  0  0  0  0
   17.3986  -16.5859  -13.4702 N   0  0  0  0  0  0  0  0  0  0  0  0
   18.6773  -16.8991  -13.2235 C   0  0  0  0  0  0  0  0  0  0  0  0
   21.1379  -15.4169  -16.3048 O   0  0  0  0  0  0  0  0  0  0  0  0
   22.0651  -14.5857  -16.1476 O   0  0  0  0  0  0  0  0  0  0  0  0
  1  2  1  0
  2  3  2  0
  4  5  1  0
  4  2  1  0
  6  5  1  0
  7  6  1  0
  8  7  1  0
  8  9  1  6
  8 10  1  0
 10 11  2  0
 13 12  1  6
 13 14  1  0
 13 15  1  0
 15 17  1  0
 16 10  1  0
 15 16  1  6
 17 18  2  0
 19 17  1  0
 19 20  1  0
 20 27  1  0
 20 21  1  6
 22 21  1  0
 23 22  2  0
 24 23  1  0
 25 24  1  0
 25 26  2  0
 26 22  1  0
 27 28  2  0
 27 29  1  0
M  END
$$$$
