RTH.pdb
     RDKit          3D

 29 29  0  0  1  0  0  0  0  0999 V2000
   25.9166  -20.9090  -10.7784 N   0  0  0  0  0  0  0  0  0  0  0  0
   27.3157  -20.7789  -10.9292 C   0  0  0  0  0  0  0  0  0  0  0  0
   28.1086  -21.2350  -10.0126 N   0  0  0  0  0  0  0  0  0  0  0  0
   27.8429  -20.1442  -12.0940 N   0  0  0  0  0  0  0  0  0  0  0  0
   27.0030  -19.5739  -13.1037 C   0  0  0  0  0  0  0  0  0  0  0  0
   27.8164  -18.9893  -14.2498 C   0  0  0  0  0  0  0  0  0  0  0  0
   26.9848  -19.0443  -15.5022 C   0  0  0  0  0  0  0  0  0  0  0  0
   26.7267  -20.4670  -15.9742 C   0  0  2  0  0  0  0  0  0  0  0  0
   27.7682  -20.7351  -16.9967 N   0  0  0  0  0  0  0  0  0  0  0  0
   25.4411  -20.6706  -16.6259 C   0  0  0  0  0  0  0  0  0  0  0  0
   25.1077  -19.9989  -17.6669 O   0  0  0  0  0  0  0  0  0  0  0  0
   29.1427  -21.0960  -10.0919 C   0  0  0  0  0  0  0  0  0  0  0  0
   24.0510  -23.6603  -18.0875 C   0  0  2  0  0  0  0  0  0  0  0  0
   22.9587  -23.2292  -17.1353 O   0  0  0  0  0  0  0  0  0  0  0  0
   23.1113  -23.9113  -15.9549 C   0  0  2  0  0  0  0  0  0  0  0  0
   23.1574  -21.7304  -16.8984 N   0  0  0  0  0  0  0  0  0  0  0  0
   24.4313  -21.5974  -16.2192 C   0  0  0  0  0  0  0  0  0  0  0  0
   22.0439  -21.1331  -16.1640 O   0  0  0  0  0  0  0  0  0  0  0  0
   22.1492  -20.9561  -14.9236 N   0  0  0  0  0  0  0  0  0  0  0  0
   20.8605  -20.7602  -16.8525 C   0  0  1  0  0  0  0  0  0  0  0  0
   19.7213  -20.1396  -16.1601 C   0  0  0  0  0  0  0  0  0  0  0  0
   18.7039  -19.6585  -17.1684 C   0  0  0  0  0  0  0  0  0  0  0  0
   18.3294  -18.2465  -17.0307 C   0  0  0  0  0  0  0  0  0  0  0  0
   18.6747  -17.3454  -16.0530 N   0  0  0  0  0  0  0  0  0  0  0  0
   18.0880  -16.1575  -16.3244 C   0  0  0  0  0  0  0  0  0  0  0  0
   17.3969  -16.3346  -17.4493 N   0  0  0  0  0  0  0  0  0  0  0  0
   17.5324  -17.5924  -17.8892 C   0  0  0  0  0  0  0  0  0  0  0  0
   19.0933  -21.1643  -15.3064 O   0  0  0  0  0  0  0  0  0  0  0  0
   19.1431  -22.3673  -15.6608 O   0  0  0  0  0  0  0  0  0  0  0  0
  1  2  1  0
  2  3  2  0
  4  5  1  0
  4  2  1  0
  6  5  1  0
  7  6  1  0
  8  7  1  0
  8  9  1  6
  8 10  1  0
 10 11  2  0
 13 12  1  6
 13 14  1  0
 13 15  1  0
 15 17  1  0
 16 10  1  0
 15 16  1  6
 17 18  2  0
 19 17  1  0
 19 20  1  0
 20 27  1  0
 20 21  1  1
 22 21  1  0
 23 22  2  0
 24 23  1  0
 25 24  1  0
 25 26  2  0
 26 22  1  0
 27 28  2  0
 27 29  1  0
M  END
$$$$
