RTH.pdb
     RDKit          3D

 29 29  0  0  1  0  0  0  0  0999 V2000
   30.4667  -17.5365  -18.5334 N   0  0  0  0  0  0  0  0  0  0  0  0
   29.1108  -17.1578  -18.4098 C   0  0  0  0  0  0  0  0  0  0  0  0
   28.6957  -16.0585  -18.9539 N   0  0  0  0  0  0  0  0  0  0  0  0
   28.2091  -17.9934  -17.6843 N   0  0  0  0  0  0  0  0  0  0  0  0
   28.5968  -19.2690  -17.1620 C   0  0  0  0  0  0  0  0  0  0  0  0
   28.0850  -20.4119  -18.0273 C   0  0  0  0  0  0  0  0  0  0  0  0
   26.9385  -21.0747  -17.3137 C   0  0  0  0  0  0  0  0  0  0  0  0
   27.3485  -21.6829  -15.9812 C   0  0  2  0  0  0  0  0  0  0  0  0
   28.0945  -22.9180  -16.3278 N   0  0  0  0  0  0  0  0  0  0  0  0
   26.2409  -22.0906  -15.1292 C   0  0  0  0  0  0  0  0  0  0  0  0
   25.7538  -23.2759  -15.1908 O   0  0  0  0  0  0  0  0  0  0  0  0
   27.7071  -15.7431  -18.8194 C   0  0  0  0  0  0  0  0  0  0  0  0
   25.9527  -21.4228  -11.4393 C   0  0  2  0  0  0  0  0  0  0  0  0
   24.6061  -21.0272  -12.0012 O   0  0  0  0  0  0  0  0  0  0  0  0
   24.5909  -19.6682  -12.1881 C   0  0  2  0  0  0  0  0  0  0  0  0
   24.4738  -21.7383  -13.3499 N   0  0  0  0  0  0  0  0  0  0  0  0
   25.5826  -21.2721  -14.1592 C   0  0  0  0  0  0  0  0  0  0  0  0
   23.1693  -21.5134  -13.9693 O   0  0  0  0  0  0  0  0  0  0  0  0
   23.0102  -20.5221  -14.7263 N   0  0  0  0  0  0  0  0  0  0  0  0
   22.0997  -22.4099  -13.7128 C   0  0  2  0  0  0  0  0  0  0  0  0
   20.7473  -22.1776  -14.2413 C   0  0  0  0  0  0  0  0  0  0  0  0
   19.8554  -23.3520  -13.9120 C   0  0  0  0  0  0  0  0  0  0  0  0
   18.4570  -23.1908  -14.3262 C   0  0  0  0  0  0  0  0  0  0  0  0
   17.8803  -23.4177  -15.5521 N   0  0  0  0  0  0  0  0  0  0  0  0
   16.5626  -23.1219  -15.4784 C   0  0  0  0  0  0  0  0  0  0  0  0
   16.3428  -22.7215  -14.2272 N   0  0  0  0  0  0  0  0  0  0  0  0
   17.4782  -22.7572  -13.5175 C   0  0  0  0  0  0  0  0  0  0  0  0
   20.2034  -20.9729  -13.5886 O   0  0  0  0  0  0  0  0  0  0  0  0
   20.6111  -20.6635  -12.4426 O   0  0  0  0  0  0  0  0  0  0  0  0
  1  2  1  0
  2  3  2  0
  4  5  1  0
  4  2  1  0
  6  5  1  0
  7  6  1  0
  8  7  1  0
  8  9  1  6
  8 10  1  0
 10 11  2  0
 13 12  1  1
 13 14  1  0
 13 15  1  0
 15 17  1  0
 16 10  1  0
 15 16  1  1
 17 18  2  0
 19 17  1  0
 19 20  1  0
 20 27  1  0
 20 21  1  1
 22 21  1  0
 23 22  2  0
 24 23  1  0
 25 24  1  0
 25 26  2  0
 26 22  1  0
 27 28  2  0
 27 29  1  0
M  END
$$$$
