RTH.pdb
     RDKit          3D

 29 29  0  0  1  0  0  0  0  0999 V2000
   19.0186  -17.6738  -15.0940 N   0  0  0  0  0  0  0  0  0  0  0  0
   17.9993  -16.7104  -15.2677 C   0  0  0  0  0  0  0  0  0  0  0  0
   17.0564  -16.6028  -14.3867 N   0  0  0  0  0  0  0  0  0  0  0  0
   18.0192  -15.8626  -16.4159 N   0  0  0  0  0  0  0  0  0  0  0  0
   18.9525  -14.7863  -16.5589 C   0  0  0  0  0  0  0  0  0  0  0  0
   18.2860  -13.5306  -17.1031 C   0  0  0  0  0  0  0  0  0  0  0  0
   18.6800  -12.3666  -16.2352 C   0  0  0  0  0  0  0  0  0  0  0  0
   17.4973  -11.4870  -15.8595 C   0  0  2  0  0  0  0  0  0  0  0  0
   16.4751  -11.7379  -16.9056 N   0  0  0  0  0  0  0  0  0  0  0  0
   17.7695  -10.0571  -15.8776 C   0  0  0  0  0  0  0  0  0  0  0  0
   17.9344   -9.4239  -16.9812 O   0  0  0  0  0  0  0  0  0  0  0  0
   16.2633  -15.9378  -14.5405 C   0  0  0  0  0  0  0  0  0  0  0  0
   17.5712   -5.5844  -14.1043 C   0  0  2  0  0  0  0  0  0  0  0  0
   17.1257   -7.0285  -14.1462 O   0  0  0  0  0  0  0  0  0  0  0  0
   15.9883   -7.1148  -14.9085 C   0  0  1  0  0  0  0  0  0  0  0  0
   18.2585   -7.8120  -14.8134 N   0  0  0  0  0  0  0  0  0  0  0  0
   17.8815   -9.2094  -14.7318 C   0  0  0  0  0  0  0  0  0  0  0  0
   19.5592   -7.5263  -14.2113 O   0  0  0  0  0  0  0  0  0  0  0  0
   19.8803   -8.0997  -13.1392 N   0  0  0  0  0  0  0  0  0  0  0  0
   20.4435   -6.6101  -14.8374 C   0  0  1  0  0  0  0  0  0  0  0  0
   21.7862   -6.3374  -14.3035 C   0  0  0  0  0  0  0  0  0  0  0  0
   22.7999   -6.3499  -15.4239 C   0  0  0  0  0  0  0  0  0  0  0  0
   23.0838   -7.6800  -15.9746 C   0  0  0  0  0  0  0  0  0  0  0  0
   22.7124   -8.9153  -15.5024 N   0  0  0  0  0  0  0  0  0  0  0  0
   23.2091   -9.8669  -16.3253 C   0  0  0  0  0  0  0  0  0  0  0  0
   23.8720   -9.2193  -17.2820 N   0  0  0  0  0  0  0  0  0  0  0  0
   23.8059   -7.8962  -17.0845 C   0  0  0  0  0  0  0  0  0  0  0  0
   21.7708   -4.9950  -13.6944 O   0  0  0  0  0  0  0  0  0  0  0  0
   20.9865   -4.1275  -14.1503 O   0  0  0  0  0  0  0  0  0  0  0  0
  1  2  1  0
  2  3  2  0
  4  5  1  0
  4  2  1  0
  6  5  1  0
  7  6  1  0
  8  7  1  0
  8  9  1  6
  8 10  1  0
 10 11  2  0
 13 12  1  1
 13 14  1  0
 13 15  1  0
 15 17  1  0
 16 10  1  0
 15 16  1  1
 17 18  2  0
 19 17  1  0
 19 20  1  0
 20 27  1  0
 20 21  1  1
 22 21  1  0
 23 22  2  0
 24 23  1  0
 25 24  1  0
 25 26  2  0
 26 22  1  0
 27 28  2  0
 27 29  1  0
M  END
$$$$
