EGC.pdb
     RDKit          3D

 20 19  0  0  1  0  0  0  0  0999 V2000
   11.7393  -19.1308   21.6919 N   0  0  0  0  0  0  0  0  0  0  0  0
   11.9395  -17.7491   21.3416 C   0  0  1  0  0  0  0  0  0  0  0  0
   11.6748  -17.4567   19.9086 C   0  0  0  0  0  0  0  0  0  0  0  0
   10.3878  -17.8973   19.3445 C   0  0  0  0  0  0  0  0  0  0  0  0
   10.3941  -18.6723   18.1166 C   0  0  0  0  0  0  0  0  0  0  0  0
    9.2576  -19.1546   17.7560 O   0  0  0  0  0  0  0  0  0  0  0  0
   11.1182  -16.8649   22.2470 C   0  0  0  0  0  0  0  0  0  0  0  0
   11.3156  -15.6189   22.2060 O   0  0  0  0  0  0  0  0  0  0  0  0
   11.4393  -18.9683   17.2840 O   0  0  0  0  0  0  0  0  0  0  0  0
   10.1465  -17.3574   23.1311 N   0  0  0  0  0  0  0  0  0  0  0  0
    9.4031  -16.5841   24.0706 C   0  0  0  0  0  0  0  0  0  0  0  0
   10.1798  -16.2874   25.3109 C   0  0  0  0  0  0  0  0  0  0  0  0
   11.2701  -16.8516   25.4745 O   0  0  0  0  0  0  0  0  0  0  0  0
    9.6759  -15.3751   26.2810 N   0  0  0  0  0  0  0  0  0  0  0  0
   10.3331  -15.1383   27.5392 C   0  0  1  0  0  0  0  0  0  0  0  0
    9.6684  -14.0379   28.3368 C   0  0  0  0  0  0  0  0  0  0  0  0
   10.6916  -13.6706   29.7904 S   0  0  0  0  0  0  0  0  0  0  0  0
   10.5160  -16.3784   28.3248 C   0  0  0  0  0  0  0  0  0  0  0  0
   11.7198  -16.5651   28.9777 O   0  0  0  0  0  0  0  0  0  0  0  0
    9.6372  -17.2489   28.4189 O   0  0  0  0  0  0  0  0  0  0  0  0
  2  1  1  6
  3  2  1  0
  4  3  1  0
  4  5  1  0
  5  6  2  0
  7  2  1  0
  8  7  2  0
  9  5  1  0
 10  7  1  0
 11 12  1  0
 11 10  1  0
 12 14  1  0
 13 12  2  0
 15 14  1  0
 15 16  1  1
 16 17  1  0
 18 15  1  0
 19 18  1  0
 20 18  2  0
M  END
$$$$
