EGC.pdb
     RDKit          3D

 20 19  0  0  1  0  0  0  0  0999 V2000
   10.8077  -16.5723   20.1004 N   0  0  0  0  0  0  0  0  0  0  0  0
    9.6027  -16.9736   19.4230 C   0  0  1  0  0  0  0  0  0  0  0  0
    9.4720  -18.4459   19.2684 C   0  0  0  0  0  0  0  0  0  0  0  0
   10.1456  -19.3026   20.2589 C   0  0  0  0  0  0  0  0  0  0  0  0
    9.3656  -20.3129   20.9514 C   0  0  0  0  0  0  0  0  0  0  0  0
    8.4624  -19.8681   21.7517 O   0  0  0  0  0  0  0  0  0  0  0  0
    8.4011  -16.3818   20.1172 C   0  0  0  0  0  0  0  0  0  0  0  0
    7.2635  -16.5601   19.6002 O   0  0  0  0  0  0  0  0  0  0  0  0
    9.4539  -21.6767   20.8781 O   0  0  0  0  0  0  0  0  0  0  0  0
    8.4842  -15.6445   21.3079 N   0  0  0  0  0  0  0  0  0  0  0  0
    7.3804  -15.1859   22.0855 C   0  0  0  0  0  0  0  0  0  0  0  0
    7.8095  -14.4528   23.3135 C   0  0  0  0  0  0  0  0  0  0  0  0
    9.0215  -14.3438   23.5434 O   0  0  0  0  0  0  0  0  0  0  0  0
    6.8445  -13.8920   24.1974 N   0  0  0  0  0  0  0  0  0  0  0  0
    7.2039  -13.2597   25.4393 C   0  0  1  0  0  0  0  0  0  0  0  0
    6.0613  -12.4637   26.0309 C   0  0  0  0  0  0  0  0  0  0  0  0
    6.7179  -11.3735   27.3251 S   0  0  0  0  0  0  0  0  0  0  0  0
    7.7963  -14.2087   26.4072 C   0  0  0  0  0  0  0  0  0  0  0  0
    8.8577  -13.7753   27.1792 O   0  0  0  0  0  0  0  0  0  0  0  0
    7.3796  -15.3683   26.5510 O   0  0  0  0  0  0  0  0  0  0  0  0
  2  1  1  1
  3  2  1  0
  4  3  1  0
  4  5  1  0
  5  6  2  0
  7  2  1  0
  8  7  2  0
  9  5  1  0
 10  7  1  0
 11 12  1  0
 11 10  1  0
 12 14  1  0
 13 12  2  0
 15 14  1  0
 15 16  1  1
 16 17  1  0
 18 15  1  0
 19 18  1  0
 20 18  2  0
M  END
$$$$
