EGC.pdb
     RDKit          3D

 20 19  0  0  1  0  0  0  0  0999 V2000
    8.1840  -18.1229   20.5914 N   0  0  0  0  0  0  0  0  0  0  0  0
    8.8293  -18.8673   21.6409 C   0  0  1  0  0  0  0  0  0  0  0  0
   10.3133  -18.8113   21.5811 C   0  0  0  0  0  0  0  0  0  0  0  0
   10.9279  -18.0821   20.4589 C   0  0  0  0  0  0  0  0  0  0  0  0
   12.3734  -17.9481   20.4234 C   0  0  0  0  0  0  0  0  0  0  0  0
   13.0367  -18.9295   20.9243 O   0  0  0  0  0  0  0  0  0  0  0  0
    8.3127  -18.4153   22.9843 C   0  0  0  0  0  0  0  0  0  0  0  0
    8.7554  -18.9874   24.0188 O   0  0  0  0  0  0  0  0  0  0  0  0
   13.1368  -16.9227   19.9345 O   0  0  0  0  0  0  0  0  0  0  0  0
    7.3665  -17.3915   23.1418 N   0  0  0  0  0  0  0  0  0  0  0  0
    6.9437  -16.8279   24.3814 C   0  0  0  0  0  0  0  0  0  0  0  0
    7.6509  -15.5525   24.7022 C   0  0  0  0  0  0  0  0  0  0  0  0
    8.7987  -15.3878   24.2674 O   0  0  0  0  0  0  0  0  0  0  0  0
    7.0166  -14.5500   25.4894 N   0  0  0  0  0  0  0  0  0  0  0  0
    7.7280  -13.4222   26.0307 C   0  0  1  0  0  0  0  0  0  0  0  0
    6.7960  -12.3364   26.5220 C   0  0  0  0  0  0  0  0  0  0  0  0
    5.0836  -12.8524   26.2120 S   0  0  0  0  0  0  0  0  0  0  0  0
    8.7260  -13.8177   27.0486 C   0  0  0  0  0  0  0  0  0  0  0  0
    9.6989  -12.9007   27.3988 O   0  0  0  0  0  0  0  0  0  0  0  0
    8.7221  -14.9315   27.5949 O   0  0  0  0  0  0  0  0  0  0  0  0
  2  1  1  6
  3  2  1  0
  4  3  1  0
  4  5  1  0
  5  6  2  0
  7  2  1  0
  8  7  2  0
  9  5  1  0
 10  7  1  0
 11 12  1  0
 11 10  1  0
 12 14  1  0
 13 12  2  0
 15 14  1  0
 15 16  1  1
 16 17  1  0
 18 15  1  0
 19 18  1  0
 20 18  2  0
M  END
$$$$
