EGC.pdb
     RDKit          3D

 20 19  0  0  1  0  0  0  0  0999 V2000
   10.5252  -19.4914   21.0543 N   0  0  0  0  0  0  0  0  0  0  0  0
   11.6191  -19.0352   21.8711 C   0  0  1  0  0  0  0  0  0  0  0  0
   12.8654  -18.7788   21.1030 C   0  0  0  0  0  0  0  0  0  0  0  0
   12.7556  -18.0052   19.8548 C   0  0  0  0  0  0  0  0  0  0  0  0
   13.9592  -17.7554   19.0817 C   0  0  0  0  0  0  0  0  0  0  0  0
   14.4025  -18.7535   18.4025 O   0  0  0  0  0  0  0  0  0  0  0  0
   11.1984  -17.8220   22.6630 C   0  0  0  0  0  0  0  0  0  0  0  0
   12.0321  -16.8859   22.8115 O   0  0  0  0  0  0  0  0  0  0  0  0
   14.6960  -16.6073   18.9722 O   0  0  0  0  0  0  0  0  0  0  0  0
    9.9281  -17.6816   23.2418 N   0  0  0  0  0  0  0  0  0  0  0  0
    9.4377  -16.5209   23.9092 C   0  0  0  0  0  0  0  0  0  0  0  0
   10.0359  -16.3439   25.2658 C   0  0  0  0  0  0  0  0  0  0  0  0
   10.8901  -17.1563   25.6455 O   0  0  0  0  0  0  0  0  0  0  0  0
    9.6321  -15.2638   26.1010 N   0  0  0  0  0  0  0  0  0  0  0  0
   10.1588  -15.0678   27.4258 C   0  0  1  0  0  0  0  0  0  0  0  0
    9.5407  -13.8737   28.1194 C   0  0  0  0  0  0  0  0  0  0  0  0
   10.4067  -13.5981   29.6906 S   0  0  0  0  0  0  0  0  0  0  0  0
   10.0974  -16.2966   28.2472 C   0  0  0  0  0  0  0  0  0  0  0  0
   11.1569  -16.5703   29.0914 O   0  0  0  0  0  0  0  0  0  0  0  0
    9.1390  -17.0832   28.2072 O   0  0  0  0  0  0  0  0  0  0  0  0
  2  1  1  6
  3  2  1  0
  4  3  1  0
  4  5  1  0
  5  6  2  0
  7  2  1  0
  8  7  2  0
  9  5  1  0
 10  7  1  0
 11 12  1  0
 11 10  1  0
 12 14  1  0
 13 12  2  0
 15 14  1  0
 15 16  1  1
 16 17  1  0
 18 15  1  0
 19 18  1  0
 20 18  2  0
M  END
$$$$
