EGC.pdb
     RDKit          3D

 20 19  0  0  1  0  0  0  0  0999 V2000
    9.0772  -13.3269   18.2476 N   0  0  0  0  0  0  0  0  0  0  0  0
    9.0918  -14.3820   19.2267 C   0  0  1  0  0  0  0  0  0  0  0  0
   10.4584  -14.8597   19.5628 C   0  0  0  0  0  0  0  0  0  0  0  0
   11.6013  -14.0722   19.0704 C   0  0  0  0  0  0  0  0  0  0  0  0
   12.9454  -14.5476   19.3461 C   0  0  0  0  0  0  0  0  0  0  0  0
   13.0236  -15.6943   19.9232 O   0  0  0  0  0  0  0  0  0  0  0  0
    8.3386  -13.9493   20.4601 C   0  0  0  0  0  0  0  0  0  0  0  0
    8.4613  -12.7542   20.8475 O   0  0  0  0  0  0  0  0  0  0  0  0
   14.1474  -13.9487   19.0824 O   0  0  0  0  0  0  0  0  0  0  0  0
    7.5086  -14.8072   21.1973 N   0  0  0  0  0  0  0  0  0  0  0  0
    6.7938  -14.4638   22.3823 C   0  0  0  0  0  0  0  0  0  0  0  0
    7.6806  -14.3710   23.5801 C   0  0  0  0  0  0  0  0  0  0  0  0
    8.8845  -14.6284   23.4453 O   0  0  0  0  0  0  0  0  0  0  0  0
    7.1511  -13.9936   24.8467 N   0  0  0  0  0  0  0  0  0  0  0  0
    7.9730  -13.8445   26.0186 C   0  0  1  0  0  0  0  0  0  0  0  0
    7.3247  -12.9681   27.0678 C   0  0  0  0  0  0  0  0  0  0  0  0
    6.6871  -11.4704   26.2648 S   0  0  0  0  0  0  0  0  0  0  0  0
    8.4237  -15.1440   26.5632 C   0  0  0  0  0  0  0  0  0  0  0  0
    9.3621  -15.1356   27.5779 O   0  0  0  0  0  0  0  0  0  0  0  0
    7.9944  -16.2311   26.1474 O   0  0  0  0  0  0  0  0  0  0  0  0
  2  1  1  6
  3  2  1  0
  4  3  1  0
  4  5  1  0
  5  6  2  0
  7  2  1  0
  8  7  2  0
  9  5  1  0
 10  7  1  0
 11 12  1  0
 11 10  1  0
 12 14  1  0
 13 12  2  0
 15 14  1  0
 15 16  1  1
 16 17  1  0
 18 15  1  0
 19 18  1  0
 20 18  2  0
M  END
$$$$
