EGC.pdb
     RDKit          3D

 20 19  0  0  1  0  0  0  0  0999 V2000
    6.2563  -16.8445   20.9845 N   0  0  0  0  0  0  0  0  0  0  0  0
    7.1511  -17.9627   20.8399 C   0  0  1  0  0  0  0  0  0  0  0  0
    7.0906  -18.6006   19.4989 C   0  0  0  0  0  0  0  0  0  0  0  0
    7.5373  -17.8079   18.3410 C   0  0  0  0  0  0  0  0  0  0  0  0
    8.4179  -18.4303   17.3685 C   0  0  0  0  0  0  0  0  0  0  0  0
    8.0347  -19.5734   16.9208 O   0  0  0  0  0  0  0  0  0  0  0  0
    8.5576  -17.5442   21.1901 C   0  0  0  0  0  0  0  0  0  0  0  0
    9.4437  -18.4389   21.2774 O   0  0  0  0  0  0  0  0  0  0  0  0
    9.6041  -17.9764   16.8583 O   0  0  0  0  0  0  0  0  0  0  0  0
    8.9303  -16.2118   21.4227 N   0  0  0  0  0  0  0  0  0  0  0  0
   10.2018  -15.7697   21.8927 C   0  0  0  0  0  0  0  0  0  0  0  0
   10.1464  -15.2473   23.2904 C   0  0  0  0  0  0  0  0  0  0  0  0
   11.2113  -14.9892   23.8674 O   0  0  0  0  0  0  0  0  0  0  0  0
    8.8957  -15.0503   23.9417 N   0  0  0  0  0  0  0  0  0  0  0  0
    8.7914  -14.5591   25.2903 C   0  0  1  0  0  0  0  0  0  0  0  0
    7.6877  -13.5361   25.4459 C   0  0  0  0  0  0  0  0  0  0  0  0
    6.0911  -14.3992   25.4720 S   0  0  0  0  0  0  0  0  0  0  0  0
    8.6991  -15.6503   26.2849 C   0  0  0  0  0  0  0  0  0  0  0  0
    8.5190  -16.9404   25.8228 O   0  0  0  0  0  0  0  0  0  0  0  0
    8.7769  -15.4526   27.5071 O   0  0  0  0  0  0  0  0  0  0  0  0
  2  1  1  6
  3  2  1  0
  4  3  1  0
  4  5  1  0
  5  6  2  0
  7  2  1  0
  8  7  2  0
  9  5  1  0
 10  7  1  0
 11 12  1  0
 11 10  1  0
 12 14  1  0
 13 12  2  0
 15 14  1  0
 15 16  1  6
 16 17  1  0
 18 15  1  0
 19 18  1  0
 20 18  2  0
M  END
$$$$
