EGC.pdb
     RDKit          3D

 20 19  0  0  1  0  0  0  0  0999 V2000
    8.4030  -19.8740   21.1971 N   0  0  0  0  0  0  0  0  0  0  0  0
    8.9414  -19.2366   22.3700 C   0  0  1  0  0  0  0  0  0  0  0  0
   10.3422  -18.7697   22.2005 C   0  0  0  0  0  0  0  0  0  0  0  0
   10.5594  -17.4868   21.5108 C   0  0  0  0  0  0  0  0  0  0  0  0
   11.9209  -17.0739   21.2202 C   0  0  0  0  0  0  0  0  0  0  0  0
   12.6353  -17.9250   20.5726 O   0  0  0  0  0  0  0  0  0  0  0  0
    8.0336  -18.1138   22.8075 C   0  0  0  0  0  0  0  0  0  0  0  0
    7.3604  -17.5109   21.9263 O   0  0  0  0  0  0  0  0  0  0  0  0
   12.5589  -15.9058   21.5391 O   0  0  0  0  0  0  0  0  0  0  0  0
    7.8995  -17.7069   24.1435 N   0  0  0  0  0  0  0  0  0  0  0  0
    6.9407  -16.7763   24.6412 C   0  0  0  0  0  0  0  0  0  0  0  0
    7.5560  -15.4733   25.0327 C   0  0  0  0  0  0  0  0  0  0  0  0
    8.7909  -15.3937   25.0805 O   0  0  0  0  0  0  0  0  0  0  0  0
    6.7385  -14.3494   25.3421 N   0  0  0  0  0  0  0  0  0  0  0  0
    7.2767  -13.1120   25.8423 C   0  0  1  0  0  0  0  0  0  0  0  0
    6.1981  -12.0918   26.1334 C   0  0  0  0  0  0  0  0  0  0  0  0
    5.1287  -12.7328   27.4525 S   0  0  0  0  0  0  0  0  0  0  0  0
    8.1914  -13.3141   26.9873 C   0  0  0  0  0  0  0  0  0  0  0  0
    9.0841  -12.3047   27.2949 O   0  0  0  0  0  0  0  0  0  0  0  0
    8.1870  -14.3461   27.6756 O   0  0  0  0  0  0  0  0  0  0  0  0
  2  1  1  6
  3  2  1  0
  4  3  1  0
  4  5  1  0
  5  6  2  0
  7  2  1  0
  8  7  2  0
  9  5  1  0
 10  7  1  0
 11 12  1  0
 11 10  1  0
 12 14  1  0
 13 12  2  0
 15 14  1  0
 15 16  1  1
 16 17  1  0
 18 15  1  0
 19 18  1  0
 20 18  2  0
M  END
$$$$
