EGC.pdb
     RDKit          3D

 20 19  0  0  1  0  0  0  0  0999 V2000
    9.3833  -19.3869   21.5393 N   0  0  0  0  0  0  0  0  0  0  0  0
    9.2618  -18.1266   20.8546 C   0  0  1  0  0  0  0  0  0  0  0  0
    9.0090  -18.2663   19.3967 C   0  0  0  0  0  0  0  0  0  0  0  0
    9.9736  -19.0478   18.6045 C   0  0  0  0  0  0  0  0  0  0  0  0
   11.3245  -18.5378   18.4511 C   0  0  0  0  0  0  0  0  0  0  0  0
   11.4992  -17.7033   17.4881 O   0  0  0  0  0  0  0  0  0  0  0  0
    8.2057  -17.2796   21.5202 C   0  0  0  0  0  0  0  0  0  0  0  0
    6.9980  -17.4759   21.2097 O   0  0  0  0  0  0  0  0  0  0  0  0
   12.4454  -18.8193   19.1841 O   0  0  0  0  0  0  0  0  0  0  0  0
    8.4977  -16.2860   22.4667 N   0  0  0  0  0  0  0  0  0  0  0  0
    7.5416  -15.5288   23.2054 C   0  0  0  0  0  0  0  0  0  0  0  0
    8.1781  -14.6244   24.2086 C   0  0  0  0  0  0  0  0  0  0  0  0
    9.4141  -14.5989   24.2809 O   0  0  0  0  0  0  0  0  0  0  0  0
    7.3790  -13.8101   25.0605 N   0  0  0  0  0  0  0  0  0  0  0  0
    7.8655  -13.2781   26.3060 C   0  0  1  0  0  0  0  0  0  0  0  0
    6.8630  -12.3596   26.9696 C   0  0  0  0  0  0  0  0  0  0  0  0
    5.9733  -11.4393   25.6828 S   0  0  0  0  0  0  0  0  0  0  0  0
    8.3600  -14.3330   27.2177 C   0  0  0  0  0  0  0  0  0  0  0  0
    9.1357  -13.9518   28.2962 O   0  0  0  0  0  0  0  0  0  0  0  0
    8.1063  -15.5360   27.0522 O   0  0  0  0  0  0  0  0  0  0  0  0
  2  1  1  1
  3  2  1  0
  4  3  1  0
  4  5  1  0
  5  6  2  0
  7  2  1  0
  8  7  2  0
  9  5  1  0
 10  7  1  0
 11 12  1  0
 11 10  1  0
 12 14  1  0
 13 12  2  0
 15 14  1  0
 15 16  1  1
 16 17  1  0
 18 15  1  0
 19 18  1  0
 20 18  2  0
M  END
$$$$
