EGC.pdb
     RDKit          3D

 20 19  0  0  1  0  0  0  0  0999 V2000
   10.1132  -17.7576   20.7760 N   0  0  0  0  0  0  0  0  0  0  0  0
    9.2307  -16.7841   20.1881 C   0  0  1  0  0  0  0  0  0  0  0  0
    8.6573  -17.2138   18.8861 C   0  0  0  0  0  0  0  0  0  0  0  0
    8.6521  -18.6544   18.5804 C   0  0  0  0  0  0  0  0  0  0  0  0
    9.0654  -19.0874   17.2574 C   0  0  0  0  0  0  0  0  0  0  0  0
   10.3055  -19.4068   17.1375 O   0  0  0  0  0  0  0  0  0  0  0  0
    8.1497  -16.4098   21.1717 C   0  0  0  0  0  0  0  0  0  0  0  0
    6.9629  -16.7561   20.9166 O   0  0  0  0  0  0  0  0  0  0  0  0
    8.3242  -19.2031   16.1126 O   0  0  0  0  0  0  0  0  0  0  0  0
    8.3968  -15.6976   22.3549 N   0  0  0  0  0  0  0  0  0  0  0  0
    7.4299  -15.3697   23.3502 C   0  0  0  0  0  0  0  0  0  0  0  0
    7.9706  -14.4479   24.3931 C   0  0  0  0  0  0  0  0  0  0  0  0
    9.1689  -14.1391   24.3448 O   0  0  0  0  0  0  0  0  0  0  0  0
    7.1245  -13.9364   25.4176 N   0  0  0  0  0  0  0  0  0  0  0  0
    7.6200  -13.1358   26.5061 C   0  0  1  0  0  0  0  0  0  0  0  0
    6.5151  -12.3872   27.2186 C   0  0  0  0  0  0  0  0  0  0  0  0
    5.2467  -11.9244   26.0054 S   0  0  0  0  0  0  0  0  0  0  0  0
    8.4733  -13.9088   27.4350 C   0  0  0  0  0  0  0  0  0  0  0  0
    9.2305  -13.2121   28.3578 O   0  0  0  0  0  0  0  0  0  0  0  0
    8.5338  -15.1478   27.4171 O   0  0  0  0  0  0  0  0  0  0  0  0
  2  1  1  1
  3  2  1  0
  4  3  1  0
  4  5  1  0
  5  6  2  0
  7  2  1  0
  8  7  2  0
  9  5  1  0
 10  7  1  0
 11 12  1  0
 11 10  1  0
 12 14  1  0
 13 12  2  0
 15 14  1  0
 15 16  1  1
 16 17  1  0
 18 15  1  0
 19 18  1  0
 20 18  2  0
M  END
$$$$
