EGC.pdb
     RDKit          3D

 20 19  0  0  1  0  0  0  0  0999 V2000
    7.8007  -17.4626   19.5331 N   0  0  0  0  0  0  0  0  0  0  0  0
    7.2973  -16.9868   20.7949 C   0  0  1  0  0  0  0  0  0  0  0  0
    7.5281  -17.9311   21.9191 C   0  0  0  0  0  0  0  0  0  0  0  0
    8.8584  -18.5527   22.0313 C   0  0  0  0  0  0  0  0  0  0  0  0
    9.1127  -19.4596   23.1365 C   0  0  0  0  0  0  0  0  0  0  0  0
    9.0670  -18.9350   24.3099 O   0  0  0  0  0  0  0  0  0  0  0  0
    7.8663  -15.6219   21.0937 C   0  0  0  0  0  0  0  0  0  0  0  0
    9.0242  -15.3507   20.6706 O   0  0  0  0  0  0  0  0  0  0  0  0
    9.3983  -20.7979   23.1111 O   0  0  0  0  0  0  0  0  0  0  0  0
    7.1736  -14.6393   21.8170 N   0  0  0  0  0  0  0  0  0  0  0  0
    7.6282  -13.3116   22.0693 C   0  0  0  0  0  0  0  0  0  0  0  0
    8.1167  -13.1291   23.4685 C   0  0  0  0  0  0  0  0  0  0  0  0
    9.2096  -12.5741   23.6451 O   0  0  0  0  0  0  0  0  0  0  0  0
    7.3404  -13.5829   24.5724 N   0  0  0  0  0  0  0  0  0  0  0  0
    7.7556  -13.4054   25.9388 C   0  0  1  0  0  0  0  0  0  0  0  0
    6.5844  -13.1931   26.8727 C   0  0  0  0  0  0  0  0  0  0  0  0
    5.7116  -11.6798   26.3800 S   0  0  0  0  0  0  0  0  0  0  0  0
    8.6620  -14.4801   26.3994 C   0  0  0  0  0  0  0  0  0  0  0  0
    9.1246  -14.4298   27.7008 O   0  0  0  0  0  0  0  0  0  0  0  0
    9.0188  -15.4164   25.6680 O   0  0  0  0  0  0  0  0  0  0  0  0
  2  1  1  6
  3  2  1  0
  4  3  1  0
  4  5  1  0
  5  6  2  0
  7  2  1  0
  8  7  2  0
  9  5  1  0
 10  7  1  0
 11 12  1  0
 11 10  1  0
 12 14  1  0
 13 12  2  0
 15 14  1  0
 15 16  1  1
 16 17  1  0
 18 15  1  0
 19 18  1  0
 20 18  2  0
M  END
$$$$
