EGC.pdb
     RDKit          3D

 20 19  0  0  1  0  0  0  0  0999 V2000
    9.9569  -18.4680   19.8109 N   0  0  0  0  0  0  0  0  0  0  0  0
   10.0461  -18.6242   21.2391 C   0  0  1  0  0  0  0  0  0  0  0  0
   11.0285  -19.6560   21.6622 C   0  0  0  0  0  0  0  0  0  0  0  0
   12.1768  -19.9143   20.7771 C   0  0  0  0  0  0  0  0  0  0  0  0
   13.4973  -20.0406   21.3680 C   0  0  0  0  0  0  0  0  0  0  0  0
   14.3122  -19.0763   21.1227 O   0  0  0  0  0  0  0  0  0  0  0  0
   10.3316  -17.2912   21.8852 C   0  0  0  0  0  0  0  0  0  0  0  0
   11.1695  -16.5257   21.3326 O   0  0  0  0  0  0  0  0  0  0  0  0
   14.0045  -21.0430   22.1497 O   0  0  0  0  0  0  0  0  0  0  0  0
    9.7126  -16.8594   23.0679 N   0  0  0  0  0  0  0  0  0  0  0  0
    9.9622  -15.6266   23.7395 C   0  0  0  0  0  0  0  0  0  0  0  0
   10.2171  -15.8104   25.1993 C   0  0  0  0  0  0  0  0  0  0  0  0
    9.9715  -16.9126   25.7078 O   0  0  0  0  0  0  0  0  0  0  0  0
   10.7322  -14.7410   25.9856 N   0  0  0  0  0  0  0  0  0  0  0  0
   10.8545  -14.8190   27.4174 C   0  0  1  0  0  0  0  0  0  0  0  0
    9.9522  -13.8328   28.1260 C   0  0  0  0  0  0  0  0  0  0  0  0
   10.2369  -13.9612   29.9140 S   0  0  0  0  0  0  0  0  0  0  0  0
   10.6967  -16.1996   27.9249 C   0  0  0  0  0  0  0  0  0  0  0  0
    9.5254  -16.8722   27.6319 O   0  0  0  0  0  0  0  0  0  0  0  0
   11.5687  -16.7712   28.5971 O   0  0  0  0  0  0  0  0  0  0  0  0
  2  1  1  6
  3  2  1  0
  4  3  1  0
  4  5  1  0
  5  6  2  0
  7  2  1  0
  8  7  2  0
  9  5  1  0
 10  7  1  0
 11 12  1  0
 11 10  1  0
 12 14  1  0
 13 12  2  0
 15 14  1  0
 15 16  1  1
 16 17  1  0
 18 15  1  0
 19 18  1  0
 20 18  2  0
M  END
$$$$
