EYA.pdb
     RDKit          3D

 27 27  0  0  1  0  0  0  0  0999 V2000
    7.4994  -16.5243   18.9037 N   0  0  0  0  0  0  0  0  0  0  0  0
    8.7604  -15.8216   18.9619 C   0  0  1  0  0  0  0  0  0  0  0  0
    8.7934  -14.6508   17.9993 C   0  0  0  0  0  0  0  0  0  0  0  0
    7.8481  -14.8552   16.8400 C   0  0  0  0  0  0  0  0  0  0  0  0
    8.6054  -15.5776   15.7771 C   0  0  0  0  0  0  0  0  0  0  0  0
    9.8160  -15.8849   15.9476 O   0  0  0  0  0  0  0  0  0  0  0  0
    8.9337  -15.2599   20.3269 C   0  0  0  0  0  0  0  0  0  0  0  0
    9.9591  -14.6098   20.6579 O   0  0  0  0  0  0  0  0  0  0  0  0
    8.0270  -15.9441   14.5634 O   0  0  0  0  0  0  0  0  0  0  0  0
    7.4702  -12.0531   28.3346 O   0  0  0  0  0  0  0  0  0  0  0  0
    7.2937  -12.6305   27.0815 C   0  0  0  0  0  0  0  0  0  0  0  0
    7.6158  -11.9112   25.9477 C   0  0  0  0  0  0  0  0  0  0  0  0
    7.4724  -12.4058   24.6673 C   0  0  0  0  0  0  0  0  0  0  0  0
    6.9833  -13.6807   24.5208 C   0  0  0  0  0  0  0  0  0  0  0  0
    6.8128  -14.2526   23.1632 C   0  0  0  0  0  0  0  0  0  0  0  0
    8.0887  -14.9190   22.6847 C   0  0  2  0  0  0  0  0  0  0  0  0
    7.9402  -15.4325   21.3309 N   0  0  0  0  0  0  0  0  0  0  0  0
    8.4981  -16.0286   23.5602 C   0  0  0  0  0  0  0  0  0  0  0  0
    7.7955  -17.0926   23.6589 O   0  0  0  0  0  0  0  0  0  0  0  0
    6.6530  -14.4232   25.6306 C   0  0  0  0  0  0  0  0  0  0  0  0
    6.8041  -13.9079   26.9200 C   0  0  0  0  0  0  0  0  0  0  0  0
   11.5219  -17.6132   24.5957 C   0  0  0  0  0  0  0  0  0  0  0  0
   10.1547  -17.1796   25.0698 C   0  0  2  0  0  0  0  0  0  0  0  0
    9.6807  -16.0124   24.3513 N   0  0  0  0  0  0  0  0  0  0  0  0
   10.1229  -16.9587   26.5377 C   0  0  0  0  0  0  0  0  0  0  0  0
    9.8359  -15.8220   26.9695 O   0  0  0  0  0  0  0  0  0  0  0  0
   10.4098  -18.0085   27.3936 O   0  0  0  0  0  0  0  0  0  0  0  0
  2  1  1  1
  2  7  1  0
  3  4  1  0
  3  2  1  0
  4  5  1  0
  5  6  2  0
  7  8  2  0
  9  5  1  0
 10 11  1  0
 11 21  2  0
 11 12  1  0
 12 13  2  0
 13 14  1  0
 14 15  1  0
 16 15  1  1
 17 16  1  0
 17  7  1  0
 18 24  1  0
 18 16  1  0
 19 18  2  0
 20 14  2  0
 21 20  1  0
 23 24  1  0
 23 22  1  6
 25 23  1  0
 26 25  2  0
 27 25  1  0
M  END
$$$$
