EYA.pdb
     RDKit          3D

 27 27  0  0  1  0  0  0  0  0999 V2000
   10.7756  -17.7122   17.1837 N   0  0  0  0  0  0  0  0  0  0  0  0
   10.0417  -18.2501   18.3060 C   0  0  1  0  0  0  0  0  0  0  0  0
   10.3444  -19.7202   18.5194 C   0  0  0  0  0  0  0  0  0  0  0  0
   10.1809  -20.5140   17.2457 C   0  0  0  0  0  0  0  0  0  0  0  0
   10.4558  -21.9418   17.5789 C   0  0  0  0  0  0  0  0  0  0  0  0
   11.5668  -22.4650   17.2943 O   0  0  0  0  0  0  0  0  0  0  0  0
   10.4664  -17.5408   19.5410 C   0  0  0  0  0  0  0  0  0  0  0  0
   11.6544  -17.1683   19.7239 O   0  0  0  0  0  0  0  0  0  0  0  0
    9.5183  -22.7572   18.2099 O   0  0  0  0  0  0  0  0  0  0  0  0
    8.0951  -11.6694   18.1194 O   0  0  0  0  0  0  0  0  0  0  0  0
    8.3256  -12.6045   19.1229 C   0  0  0  0  0  0  0  0  0  0  0  0
    7.2921  -13.4137   19.5517 C   0  0  0  0  0  0  0  0  0  0  0  0
    7.4322  -14.3663   20.5403 C   0  0  0  0  0  0  0  0  0  0  0  0
    8.6670  -14.5116   21.1238 C   0  0  0  0  0  0  0  0  0  0  0  0
    8.8631  -15.5231   22.1903 C   0  0  0  0  0  0  0  0  0  0  0  0
    9.9191  -16.5382   21.7959 C   0  0  2  0  0  0  0  0  0  0  0  0
    9.5419  -17.2475   20.5822 N   0  0  0  0  0  0  0  0  0  0  0  0
   10.1613  -17.5289   22.8567 C   0  0  0  0  0  0  0  0  0  0  0  0
    9.2194  -18.2699   23.3031 O   0  0  0  0  0  0  0  0  0  0  0  0
    9.7171  -13.7207   20.7190 C   0  0  0  0  0  0  0  0  0  0  0  0
    9.5587  -12.7609   19.7167 C   0  0  0  0  0  0  0  0  0  0  0  0
   12.7131  -19.7462   24.0529 C   0  0  0  0  0  0  0  0  0  0  0  0
   11.6546  -18.7541   24.4742 C   0  0  2  0  0  0  0  0  0  0  0  0
   11.4321  -17.7411   23.4606 N   0  0  0  0  0  0  0  0  0  0  0  0
   11.9644  -18.1409   25.7905 C   0  0  0  0  0  0  0  0  0  0  0  0
   12.0885  -16.8998   25.8622 O   0  0  0  0  0  0  0  0  0  0  0  0
   12.1089  -18.9498   26.9048 O   0  0  0  0  0  0  0  0  0  0  0  0
  2  1  1  6
  2  7  1  0
  3  4  1  0
  3  2  1  0
  4  5  1  0
  5  6  2  0
  7  8  2  0
  9  5  1  0
 10 11  1  0
 11 21  2  0
 11 12  1  0
 12 13  2  0
 13 14  1  0
 14 15  1  0
 16 15  1  1
 17 16  1  0
 17  7  1  0
 18 24  1  0
 18 16  1  0
 19 18  2  0
 20 14  2  0
 21 20  1  0
 23 24  1  0
 23 22  1  6
 25 23  1  0
 26 25  2  0
 27 25  1  0
M  END
$$$$
