EYA.pdb
     RDKit          3D

 27 27  0  0  1  0  0  0  0  0999 V2000
    7.1129  -21.0009   23.0956 N   0  0  0  0  0  0  0  0  0  0  0  0
    6.8778  -19.8259   23.9027 C   0  0  1  0  0  0  0  0  0  0  0  0
    7.4645  -19.9753   25.2926 C   0  0  0  0  0  0  0  0  0  0  0  0
    7.9419  -21.3846   25.5479 C   0  0  0  0  0  0  0  0  0  0  0  0
    8.4758  -21.4226   26.9403 C   0  0  0  0  0  0  0  0  0  0  0  0
    8.5560  -20.3680   27.6260 O   0  0  0  0  0  0  0  0  0  0  0  0
    7.5601  -18.6662   23.2713 C   0  0  0  0  0  0  0  0  0  0  0  0
    8.6648  -18.7806   22.6796 O   0  0  0  0  0  0  0  0  0  0  0  0
    8.9056  -22.6021   27.5453 O   0  0  0  0  0  0  0  0  0  0  0  0
    8.5472  -11.5881   18.3728 O   0  0  0  0  0  0  0  0  0  0  0  0
    8.0534  -12.4449   19.3510 C   0  0  0  0  0  0  0  0  0  0  0  0
    7.7886  -13.7623   19.0331 C   0  0  0  0  0  0  0  0  0  0  0  0
    7.2980  -14.6794   19.9402 C   0  0  0  0  0  0  0  0  0  0  0  0
    7.0633  -14.2524   21.2243 C   0  0  0  0  0  0  0  0  0  0  0  0
    6.5362  -15.2041   22.2321 C   0  0  0  0  0  0  0  0  0  0  0  0
    7.5889  -16.2217   22.6286 C   0  0  2  0  0  0  0  0  0  0  0  0
    6.9911  -17.3624   23.3069 N   0  0  0  0  0  0  0  0  0  0  0  0
    8.6164  -15.6439   23.5093 C   0  0  0  0  0  0  0  0  0  0  0  0
    9.7452  -15.2559   23.0500 O   0  0  0  0  0  0  0  0  0  0  0  0
    7.3168  -12.9462   21.5726 C   0  0  0  0  0  0  0  0  0  0  0  0
    7.8134  -12.0301   20.6425 C   0  0  0  0  0  0  0  0  0  0  0  0
    8.7938  -13.7756   26.6472 C   0  0  0  0  0  0  0  0  0  0  0  0
    9.4296  -14.8034   25.7410 C   0  0  2  0  0  0  0  0  0  0  0  0
    8.4457  -15.4721   24.9115 N   0  0  0  0  0  0  0  0  0  0  0  0
   10.2471  -15.7814   26.5023 C   0  0  0  0  0  0  0  0  0  0  0  0
   11.1829  -15.3591   27.2142 O   0  0  0  0  0  0  0  0  0  0  0  0
    9.9591  -17.1325   26.4097 O   0  0  0  0  0  0  0  0  0  0  0  0
  2  1  1  6
  2  7  1  0
  3  4  1  0
  3  2  1  0
  4  5  1  0
  5  6  2  0
  7  8  2  0
  9  5  1  0
 10 11  1  0
 11 21  2  0
 11 12  1  0
 12 13  2  0
 13 14  1  0
 14 15  1  0
 16 15  1  1
 17 16  1  0
 17  7  1  0
 18 24  1  0
 18 16  1  0
 19 18  2  0
 20 14  2  0
 21 20  1  0
 23 24  1  0
 23 22  1  1
 25 23  1  0
 26 25  2  0
 27 25  1  0
M  END
$$$$
