EYA.pdb
     RDKit          3D

 27 27  0  0  1  0  0  0  0  0999 V2000
    9.8000  -18.4744   21.0508 N   0  0  0  0  0  0  0  0  0  0  0  0
   10.7846  -17.4194   20.9794 C   0  0  1  0  0  0  0  0  0  0  0  0
   10.8319  -16.7907   19.6007 C   0  0  0  0  0  0  0  0  0  0  0  0
    9.6627  -17.2243   18.7495 C   0  0  0  0  0  0  0  0  0  0  0  0
   10.2131  -17.6491   17.4298 C   0  0  0  0  0  0  0  0  0  0  0  0
    9.6915  -17.2437   16.3562 O   0  0  0  0  0  0  0  0  0  0  0  0
   10.4028  -16.3422   21.9295 C   0  0  0  0  0  0  0  0  0  0  0  0
   11.0900  -15.2970   22.0675 O   0  0  0  0  0  0  0  0  0  0  0  0
   11.3111  -18.4996   17.3154 O   0  0  0  0  0  0  0  0  0  0  0  0
    6.2555  -11.1093   27.5640 O   0  0  0  0  0  0  0  0  0  0  0  0
    6.5562  -12.0813   26.6155 C   0  0  0  0  0  0  0  0  0  0  0  0
    6.3633  -13.4142   26.9203 C   0  0  0  0  0  0  0  0  0  0  0  0
    6.6348  -14.4423   26.0405 C   0  0  0  0  0  0  0  0  0  0  0  0
    7.1220  -14.1151   24.7988 C   0  0  0  0  0  0  0  0  0  0  0  0
    7.4276  -15.1878   23.8215 C   0  0  0  0  0  0  0  0  0  0  0  0
    8.9136  -15.4898   23.7856 C   0  0  2  0  0  0  0  0  0  0  0  0
    9.2331  -16.4435   22.7335 N   0  0  0  0  0  0  0  0  0  0  0  0
    9.4022  -16.0285   25.0648 C   0  0  0  0  0  0  0  0  0  0  0  0
    9.3567  -17.2807   25.3206 O   0  0  0  0  0  0  0  0  0  0  0  0
    7.3251  -12.7964   24.4645 C   0  0  0  0  0  0  0  0  0  0  0  0
    7.0452  -11.7674   25.3666 C   0  0  0  0  0  0  0  0  0  0  0  0
   11.4693  -14.7111   27.9577 C   0  0  0  0  0  0  0  0  0  0  0  0
   10.7161  -15.7791   27.2001 C   0  0  2  0  0  0  0  0  0  0  0  0
    9.9530  -15.2221   26.0998 N   0  0  0  0  0  0  0  0  0  0  0  0
    9.8549  -16.5901   28.0975 C   0  0  0  0  0  0  0  0  0  0  0  0
   10.3969  -17.3149   28.9588 O   0  0  0  0  0  0  0  0  0  0  0  0
    8.4783  -16.5282   27.9638 O   0  0  0  0  0  0  0  0  0  0  0  0
  2  1  1  6
  2  7  1  0
  3  4  1  0
  3  2  1  0
  4  5  1  0
  5  6  2  0
  7  8  2  0
  9  5  1  0
 10 11  1  0
 11 21  2  0
 11 12  1  0
 12 13  2  0
 13 14  1  0
 14 15  1  0
 16 15  1  1
 17 16  1  0
 17  7  1  0
 18 24  1  0
 18 16  1  0
 19 18  2  0
 20 14  2  0
 21 20  1  0
 23 24  1  0
 23 22  1  1
 25 23  1  0
 26 25  2  0
 27 25  1  0
M  END
$$$$
