EYA.pdb
     RDKit          3D

 27 27  0  0  1  0  0  0  0  0999 V2000
    9.6584  -16.4211   18.8696 N   0  0  0  0  0  0  0  0  0  0  0  0
    9.5406  -17.3010   20.0094 C   0  0  1  0  0  0  0  0  0  0  0  0
   10.7076  -18.2649   20.0950 C   0  0  0  0  0  0  0  0  0  0  0  0
   11.1310  -18.7507   18.7297 C   0  0  0  0  0  0  0  0  0  0  0  0
   12.2392  -19.7279   18.9348 C   0  0  0  0  0  0  0  0  0  0  0  0
   13.3955  -19.4892   18.4930 O   0  0  0  0  0  0  0  0  0  0  0  0
    9.5669  -16.4839   21.2506 C   0  0  0  0  0  0  0  0  0  0  0  0
   10.6432  -16.1672   21.8206 O   0  0  0  0  0  0  0  0  0  0  0  0
   12.0594  -20.9325   19.6120 O   0  0  0  0  0  0  0  0  0  0  0  0
    6.7823  -11.6878   28.1316 O   0  0  0  0  0  0  0  0  0  0  0  0
    6.8808  -12.3231   26.8982 C   0  0  0  0  0  0  0  0  0  0  0  0
    6.2090  -13.5110   26.6874 C   0  0  0  0  0  0  0  0  0  0  0  0
    6.2512  -14.2072   25.4965 C   0  0  0  0  0  0  0  0  0  0  0  0
    7.0025  -13.6854   24.4721 C   0  0  0  0  0  0  0  0  0  0  0  0
    7.0762  -14.4002   23.1748 C   0  0  0  0  0  0  0  0  0  0  0  0
    8.3562  -15.2068   23.0652 C   0  0  2  0  0  0  0  0  0  0  0  0
    8.3667  -16.0183   21.8569 N   0  0  0  0  0  0  0  0  0  0  0  0
    8.5549  -16.0939   24.2222 C   0  0  0  0  0  0  0  0  0  0  0  0
    7.7556  -17.0627   24.4633 O   0  0  0  0  0  0  0  0  0  0  0  0
    7.6835  -12.5038   24.6504 C   0  0  0  0  0  0  0  0  0  0  0  0
    7.6305  -11.8111   25.8621 C   0  0  0  0  0  0  0  0  0  0  0  0
   11.0428  -17.7860   25.9509 C   0  0  0  0  0  0  0  0  0  0  0  0
    9.8546  -16.8948   26.2265 C   0  0  2  0  0  0  0  0  0  0  0  0
    9.6264  -15.9527   25.1479 N   0  0  0  0  0  0  0  0  0  0  0  0
    9.9763  -16.1996   27.5329 C   0  0  0  0  0  0  0  0  0  0  0  0
    9.9367  -14.9511   27.5564 O   0  0  0  0  0  0  0  0  0  0  0  0
   10.1302  -16.9423   28.6911 O   0  0  0  0  0  0  0  0  0  0  0  0
  2  1  1  6
  2  7  1  0
  3  4  1  0
  3  2  1  0
  4  5  1  0
  5  6  2  0
  7  8  2  0
  9  5  1  0
 10 11  1  0
 11 21  2  0
 11 12  1  0
 12 13  2  0
 13 14  1  0
 14 15  1  0
 16 15  1  1
 17 16  1  0
 17  7  1  0
 18 24  1  0
 18 16  1  0
 19 18  2  0
 20 14  2  0
 21 20  1  0
 23 24  1  0
 23 22  1  6
 25 23  1  0
 26 25  2  0
 27 25  1  0
M  END
$$$$
