EYA.pdb
     RDKit          3D

 27 27  0  0  1  0  0  0  0  0999 V2000
   10.7118  -17.1004   19.0054 N   0  0  0  0  0  0  0  0  0  0  0  0
   10.2979  -17.6182   20.2892 C   0  0  1  0  0  0  0  0  0  0  0  0
   11.3012  -18.6114   20.8416 C   0  0  0  0  0  0  0  0  0  0  0  0
   11.4440  -19.8174   19.9446 C   0  0  0  0  0  0  0  0  0  0  0  0
   12.3937  -20.7532   20.6137 C   0  0  0  0  0  0  0  0  0  0  0  0
   12.0146  -21.8974   20.9826 O   0  0  0  0  0  0  0  0  0  0  0  0
   10.2276  -16.4945   21.2594 C   0  0  0  0  0  0  0  0  0  0  0  0
   11.1490  -15.6440   21.3663 O   0  0  0  0  0  0  0  0  0  0  0  0
   13.7238  -20.4193   20.8617 O   0  0  0  0  0  0  0  0  0  0  0  0
    7.5650  -12.5585   17.4247 O   0  0  0  0  0  0  0  0  0  0  0  0
    7.5786  -13.0503   18.7258 C   0  0  0  0  0  0  0  0  0  0  0  0
    8.2006  -12.3249   19.7225 C   0  0  0  0  0  0  0  0  0  0  0  0
    8.2614  -12.7376   21.0381 C   0  0  0  0  0  0  0  0  0  0  0  0
    7.6701  -13.9331   21.3656 C   0  0  0  0  0  0  0  0  0  0  0  0
    7.7112  -14.4154   22.7674 C   0  0  0  0  0  0  0  0  0  0  0  0
    8.9772  -15.2058   23.0385 C   0  0  2  0  0  0  0  0  0  0  0  0
    9.1063  -16.3270   22.1192 N   0  0  0  0  0  0  0  0  0  0  0  0
    9.0240  -15.7256   24.4143 C   0  0  0  0  0  0  0  0  0  0  0  0
    8.8655  -14.9551   25.4227 O   0  0  0  0  0  0  0  0  0  0  0  0
    7.0424  -14.6793   20.3955 C   0  0  0  0  0  0  0  0  0  0  0  0
    6.9897  -14.2476   19.0683 C   0  0  0  0  0  0  0  0  0  0  0  0
    8.7668  -18.8855   26.3376 C   0  0  0  0  0  0  0  0  0  0  0  0
    9.4449  -17.5583   26.0911 C   0  0  2  0  0  0  0  0  0  0  0  0
    9.2440  -17.0951   24.7316 N   0  0  0  0  0  0  0  0  0  0  0  0
   10.8879  -17.6020   26.4381 C   0  0  0  0  0  0  0  0  0  0  0  0
   11.7293  -17.3690   25.5444 O   0  0  0  0  0  0  0  0  0  0  0  0
   11.2708  -17.8979   27.7353 O   0  0  0  0  0  0  0  0  0  0  0  0
  2  1  1  6
  2  7  1  0
  3  4  1  0
  3  2  1  0
  4  5  1  0
  5  6  2  0
  7  8  2  0
  9  5  1  0
 10 11  1  0
 11 21  2  0
 11 12  1  0
 12 13  2  0
 13 14  1  0
 14 15  1  0
 16 15  1  6
 17 16  1  0
 17  7  1  0
 18 24  1  0
 18 16  1  0
 19 18  2  0
 20 14  2  0
 21 20  1  0
 23 24  1  0
 23 22  1  6
 25 23  1  0
 26 25  2  0
 27 25  1  0
M  END
$$$$
