EYA.pdb
     RDKit          3D

 27 27  0  0  1  0  0  0  0  0999 V2000
   10.7293  -18.8928   22.1147 N   0  0  0  0  0  0  0  0  0  0  0  0
   11.5625  -17.7164   22.0181 C   0  0  1  0  0  0  0  0  0  0  0  0
   11.6246  -17.1900   20.5978 C   0  0  0  0  0  0  0  0  0  0  0  0
   11.7798  -18.3078   19.5949 C   0  0  0  0  0  0  0  0  0  0  0  0
   11.9485  -17.6757   18.2543 C   0  0  0  0  0  0  0  0  0  0  0  0
   11.0072  -17.6877   17.4160 O   0  0  0  0  0  0  0  0  0  0  0  0
   10.9675  -16.6379   22.8498 C   0  0  0  0  0  0  0  0  0  0  0  0
   11.4295  -15.4674   22.8584 O   0  0  0  0  0  0  0  0  0  0  0  0
   13.1316  -17.0508   17.8649 O   0  0  0  0  0  0  0  0  0  0  0  0
    5.1294  -15.7102   19.5790 O   0  0  0  0  0  0  0  0  0  0  0  0
    5.7744  -15.7587   20.8104 C   0  0  0  0  0  0  0  0  0  0  0  0
    5.8069  -16.9446   21.5170 C   0  0  0  0  0  0  0  0  0  0  0  0
    6.4236  -17.0819   22.7439 C   0  0  0  0  0  0  0  0  0  0  0  0
    7.0349  -15.9771   23.2843 C   0  0  0  0  0  0  0  0  0  0  0  0
    7.7099  -16.0790   24.6008 C   0  0  0  0  0  0  0  0  0  0  0  0
    9.2019  -15.8378   24.4722 C   0  0  2  0  0  0  0  0  0  0  0  0
    9.8389  -16.8809   23.6817 N   0  0  0  0  0  0  0  0  0  0  0  0
    9.8696  -15.7746   25.7820 C   0  0  0  0  0  0  0  0  0  0  0  0
   10.5582  -16.7564   26.2262 O   0  0  0  0  0  0  0  0  0  0  0  0
    7.0201  -14.7810   22.6053 C   0  0  0  0  0  0  0  0  0  0  0  0
    6.3915  -14.6586   21.3640 C   0  0  0  0  0  0  0  0  0  0  0  0
   10.1743  -13.3296   28.6809 C   0  0  0  0  0  0  0  0  0  0  0  0
   10.4677  -14.6097   27.9345 C   0  0  2  0  0  0  0  0  0  0  0  0
    9.8072  -14.6440   26.6438 N   0  0  0  0  0  0  0  0  0  0  0  0
   10.1343  -15.8097   28.7428 C   0  0  0  0  0  0  0  0  0  0  0  0
    9.1023  -16.4562   28.4633 O   0  0  0  0  0  0  0  0  0  0  0  0
   10.9668  -16.1866   29.7829 O   0  0  0  0  0  0  0  0  0  0  0  0
  2  1  1  6
  2  7  1  0
  3  4  1  0
  3  2  1  0
  4  5  1  0
  5  6  2  0
  7  8  2  0
  9  5  1  0
 10 11  1  0
 11 21  2  0
 11 12  1  0
 12 13  2  0
 13 14  1  0
 14 15  1  0
 16 15  1  1
 17 16  1  0
 17  7  1  0
 18 24  1  0
 18 16  1  0
 19 18  2  0
 20 14  2  0
 21 20  1  0
 23 24  1  0
 23 22  1  1
 25 23  1  0
 26 25  2  0
 27 25  1  0
M  END
$$$$
