EYA.pdb
     RDKit          3D

 27 27  0  0  1  0  0  0  0  0999 V2000
    9.9201  -17.5973   20.9802 N   0  0  0  0  0  0  0  0  0  0  0  0
    8.8912  -16.7237   20.4649 C   0  0  1  0  0  0  0  0  0  0  0  0
    8.0309  -17.4221   19.4303 C   0  0  0  0  0  0  0  0  0  0  0  0
    8.8605  -17.9761   18.2971 C   0  0  0  0  0  0  0  0  0  0  0  0
    8.1320  -17.6753   17.0307 C   0  0  0  0  0  0  0  0  0  0  0  0
    8.2700  -16.5598   16.4602 O   0  0  0  0  0  0  0  0  0  0  0  0
    7.9897  -16.3344   21.5806 C   0  0  0  0  0  0  0  0  0  0  0  0
    6.9874  -15.5942   21.4040 O   0  0  0  0  0  0  0  0  0  0  0  0
    7.2771  -18.5928   16.4228 O   0  0  0  0  0  0  0  0  0  0  0  0
    3.6852  -21.1790   21.7723 O   0  0  0  0  0  0  0  0  0  0  0  0
    4.4582  -20.2983   22.5217 C   0  0  0  0  0  0  0  0  0  0  0  0
    5.7725  -20.6144   22.8032 C   0  0  0  0  0  0  0  0  0  0  0  0
    6.6096  -19.8000   23.5385 C   0  0  0  0  0  0  0  0  0  0  0  0
    6.1021  -18.6148   24.0117 C   0  0  0  0  0  0  0  0  0  0  0  0
    6.9661  -17.7087   24.8064 C   0  0  0  0  0  0  0  0  0  0  0  0
    7.3295  -16.4654   24.0171 C   0  0  2  0  0  0  0  0  0  0  0  0
    8.2201  -16.7842   22.9108 N   0  0  0  0  0  0  0  0  0  0  0  0
    7.9774  -15.4444   24.8555 C   0  0  0  0  0  0  0  0  0  0  0  0
    9.2057  -15.5450   25.1971 O   0  0  0  0  0  0  0  0  0  0  0  0
    4.7965  -18.2710   23.7483 C   0  0  0  0  0  0  0  0  0  0  0  0
    3.9621  -19.1065   23.0024 C   0  0  0  0  0  0  0  0  0  0  0  0
    7.0411  -12.2000   26.6032 C   0  0  0  0  0  0  0  0  0  0  0  0
    7.8686  -13.4447   26.3844 C   0  0  2  0  0  0  0  0  0  0  0  0
    7.3091  -14.2876   25.3452 N   0  0  0  0  0  0  0  0  0  0  0  0
    8.0691  -14.2038   27.6446 C   0  0  0  0  0  0  0  0  0  0  0  0
    7.3736  -15.2208   27.8520 O   0  0  0  0  0  0  0  0  0  0  0  0
    9.0156  -13.7737   28.5588 O   0  0  0  0  0  0  0  0  0  0  0  0
  2  1  1  1
  2  7  1  0
  3  4  1  0
  3  2  1  0
  4  5  1  0
  5  6  2  0
  7  8  2  0
  9  5  1  0
 10 11  1  0
 11 21  2  0
 11 12  1  0
 12 13  2  0
 13 14  1  0
 14 15  1  0
 16 15  1  1
 17 16  1  0
 17  7  1  0
 18 24  1  0
 18 16  1  0
 19 18  2  0
 20 14  2  0
 21 20  1  0
 23 24  1  0
 23 22  1  1
 25 23  1  0
 26 25  2  0
 27 25  1  0
M  END
$$$$
