EYA.pdb
     RDKit          3D

 27 27  0  0  1  0  0  0  0  0999 V2000
   10.5946  -16.6928   18.9528 N   0  0  0  0  0  0  0  0  0  0  0  0
    9.6273  -17.1899   19.9040 C   0  0  1  0  0  0  0  0  0  0  0  0
    9.9415  -18.6103   20.3309 C   0  0  0  0  0  0  0  0  0  0  0  0
   11.2308  -19.1040   19.7200 C   0  0  0  0  0  0  0  0  0  0  0  0
   11.9580  -19.8610   20.7799 C   0  0  0  0  0  0  0  0  0  0  0  0
   11.3866  -20.7900   21.4119 O   0  0  0  0  0  0  0  0  0  0  0  0
    9.6849  -16.3508   21.1294 C   0  0  0  0  0  0  0  0  0  0  0  0
   10.6425  -15.5676   21.3597 O   0  0  0  0  0  0  0  0  0  0  0  0
   13.2812  -19.5874   21.1210 O   0  0  0  0  0  0  0  0  0  0  0  0
    6.6316  -11.4223   27.7572 O   0  0  0  0  0  0  0  0  0  0  0  0
    6.7604  -12.3061   26.6908 C   0  0  0  0  0  0  0  0  0  0  0  0
    6.3321  -13.6113   26.8313 C   0  0  0  0  0  0  0  0  0  0  0  0
    6.4219  -14.5532   25.8266 C   0  0  0  0  0  0  0  0  0  0  0  0
    6.9668  -14.1650   24.6272 C   0  0  0  0  0  0  0  0  0  0  0  0
    7.0829  -15.1443   23.5197 C   0  0  0  0  0  0  0  0  0  0  0  0
    8.5355  -15.4149   23.1769 C   0  0  2  0  0  0  0  0  0  0  0  0
    8.6516  -16.3946   22.1067 N   0  0  0  0  0  0  0  0  0  0  0  0
    9.2989  -15.9016   24.3369 C   0  0  0  0  0  0  0  0  0  0  0  0
    9.4543  -15.1806   25.3816 O   0  0  0  0  0  0  0  0  0  0  0  0
    7.4029  -12.8718   24.4556 C   0  0  0  0  0  0  0  0  0  0  0  0
    7.3049  -11.9303   25.4826 C   0  0  0  0  0  0  0  0  0  0  0  0
   12.0920  -16.8414   25.4651 C   0  0  0  0  0  0  0  0  0  0  0  0
   10.7784  -17.5869   25.4854 C   0  0  2  0  0  0  0  0  0  0  0  0
    9.9135  -17.1838   24.3933 N   0  0  0  0  0  0  0  0  0  0  0  0
   10.0897  -17.4577   26.7944 C   0  0  0  0  0  0  0  0  0  0  0  0
   10.6569  -16.8302   27.7139 O   0  0  0  0  0  0  0  0  0  0  0  0
    8.8416  -18.0307   26.9700 O   0  0  0  0  0  0  0  0  0  0  0  0
  2  1  1  6
  2  7  1  0
  3  4  1  0
  3  2  1  0
  4  5  1  0
  5  6  2  0
  7  8  2  0
  9  5  1  0
 10 11  1  0
 11 21  2  0
 11 12  1  0
 12 13  2  0
 13 14  1  0
 14 15  1  0
 16 15  1  1
 17 16  1  0
 17  7  1  0
 18 24  1  0
 18 16  1  0
 19 18  2  0
 20 14  2  0
 21 20  1  0
 23 24  1  0
 23 22  1  1
 25 23  1  0
 26 25  2  0
 27 25  1  0
M  END
$$$$
