EYA.pdb
     RDKit          3D

 27 27  0  0  1  0  0  0  0  0999 V2000
    6.8025  -14.8521   20.5133 N   0  0  0  0  0  0  0  0  0  0  0  0
    7.6727  -15.9694   20.7987 C   0  0  1  0  0  0  0  0  0  0  0  0
    8.8057  -16.0664   19.7961 C   0  0  0  0  0  0  0  0  0  0  0  0
    8.3461  -16.6728   18.4920 C   0  0  0  0  0  0  0  0  0  0  0  0
    9.5553  -16.8409   17.6349 C   0  0  0  0  0  0  0  0  0  0  0  0
   10.4287  -17.7043   17.9192 O   0  0  0  0  0  0  0  0  0  0  0  0
    8.2961  -15.7633   22.1321 C   0  0  0  0  0  0  0  0  0  0  0  0
    9.2176  -14.9267   22.3179 O   0  0  0  0  0  0  0  0  0  0  0  0
    9.7796  -16.0683   16.4970 O   0  0  0  0  0  0  0  0  0  0  0  0
    6.6533  -10.3897   26.2010 O   0  0  0  0  0  0  0  0  0  0  0  0
    6.8458  -11.7626   26.0876 C   0  0  0  0  0  0  0  0  0  0  0  0
    6.2002  -12.4613   25.0868 C   0  0  0  0  0  0  0  0  0  0  0  0
    6.3339  -13.8224   24.9020 C   0  0  0  0  0  0  0  0  0  0  0  0
    7.1534  -14.5114   25.7622 C   0  0  0  0  0  0  0  0  0  0  0  0
    7.3265  -15.9754   25.6006 C   0  0  0  0  0  0  0  0  0  0  0  0
    8.4228  -16.2909   24.6009 C   0  0  2  0  0  0  0  0  0  0  0  0
    7.8763  -16.5083   23.2694 N   0  0  0  0  0  0  0  0  0  0  0  0
    9.1990  -17.4807   24.9844 C   0  0  0  0  0  0  0  0  0  0  0  0
    8.6478  -18.6301   25.0881 O   0  0  0  0  0  0  0  0  0  0  0  0
    7.8106  -13.8442   26.7696 C   0  0  0  0  0  0  0  0  0  0  0  0
    7.6647  -12.4661   26.9433 C   0  0  0  0  0  0  0  0  0  0  0  0
   12.8114  -18.4853   25.4402 C   0  0  0  0  0  0  0  0  0  0  0  0
   11.3278  -18.6331   25.6830 C   0  0  2  0  0  0  0  0  0  0  0  0
   10.5937  -17.4542   25.2653 N   0  0  0  0  0  0  0  0  0  0  0  0
   11.0308  -18.9808   27.0956 C   0  0  0  0  0  0  0  0  0  0  0  0
   11.4611  -20.0609   27.5531 O   0  0  0  0  0  0  0  0  0  0  0  0
   10.2883  -18.1084   27.8730 O   0  0  0  0  0  0  0  0  0  0  0  0
  2  1  1  6
  2  7  1  0
  3  4  1  0
  3  2  1  0
  4  5  1  0
  5  6  2  0
  7  8  2  0
  9  5  1  0
 10 11  1  0
 11 21  2  0
 11 12  1  0
 12 13  2  0
 13 14  1  0
 14 15  1  0
 16 15  1  1
 17 16  1  0
 17  7  1  0
 18 24  1  0
 18 16  1  0
 19 18  2  0
 20 14  2  0
 21 20  1  0
 23 24  1  0
 23 22  1  1
 25 23  1  0
 26 25  2  0
 27 25  1  0
M  END
$$$$
