TSI.pdb
     RDKit          3D

 22 21  0  0  1  0  0  0  0  0999 V2000
   12.8367  -14.7941   20.8134 C   0  0  0  0  0  0  0  0  0  0  0  0
   12.0541  -14.4819   19.5582 C   0  0  1  0  0  0  0  0  0  0  0  0
   12.9023  -14.3629   18.4832 O   0  0  0  0  0  0  0  0  0  0  0  0
   11.0010  -15.5243   19.2711 C   0  0  2  0  0  0  0  0  0  0  0  0
   10.2700  -15.1503   18.0514 N   0  0  0  0  0  0  0  0  0  0  0  0
   10.0202  -15.7036   20.3413 C   0  0  0  0  0  0  0  0  0  0  0  0
    9.0606  -14.8975   20.4856 O   0  0  0  0  0  0  0  0  0  0  0  0
   10.0914  -18.5908   23.7762 O   0  0  0  0  0  0  0  0  0  0  0  0
    9.1487  -18.3625   22.8073 C   0  0  0  0  0  0  0  0  0  0  0  0
    9.0935  -16.9117   22.3505 C   0  0  2  0  0  0  0  0  0  0  0  0
   10.0584  -16.7735   21.2896 N   0  0  0  0  0  0  0  0  0  0  0  0
    9.3445  -15.9668   23.4637 C   0  0  0  0  0  0  0  0  0  0  0  0
   10.5120  -15.5125   23.5787 O   0  0  0  0  0  0  0  0  0  0  0  0
    6.8764  -11.6085   26.8701 C   0  0  0  0  0  0  0  0  0  0  0  0
    7.9513  -12.6697   26.7885 C   0  0  0  0  0  0  0  0  0  0  0  0
    7.6142  -13.6069   25.6793 C   0  0  2  0  0  0  0  0  0  0  0  0
    6.3645  -14.3755   26.1025 C   0  0  0  0  0  0  0  0  0  0  0  0
    8.6845  -14.6198   25.3934 C   0  0  2  0  0  0  0  0  0  0  0  0
    8.3444  -15.5634   24.3832 N   0  0  0  0  0  0  0  0  0  0  0  0
    8.8933  -15.3900   26.6717 C   0  0  0  0  0  0  0  0  0  0  0  0
    8.4232  -16.5280   26.8326 O   0  0  0  0  0  0  0  0  0  0  0  0
    9.6290  -14.8460   27.7285 O   0  0  0  0  0  0  0  0  0  0  0  0
  2  1  1  1
  2  3  1  0
  2  4  1  0
  4  5  1  6
  6  4  1  0
  6 11  1  0
  7  6  2  0
  8  9  1  0
 10 11  1  0
 10  9  1  1
 10 12  1  0
 12 13  2  0
 12 19  1  0
 15 14  1  0
 16 17  1  1
 16 15  1  0
 18 16  1  0
 18 19  1  6
 20 22  1  0
 20 18  1  0
 21 20  2  0
M  END
$$$$
