TSI.pdb
     RDKit          3D

 22 21  0  0  1  0  0  0  0  0999 V2000
   10.7821  -14.7233   20.3435 C   0  0  0  0  0  0  0  0  0  0  0  0
   10.0599  -13.7012   19.4956 C   0  0  1  0  0  0  0  0  0  0  0  0
   10.7419  -13.4860   18.3218 O   0  0  0  0  0  0  0  0  0  0  0  0
    8.6383  -14.1117   19.1981 C   0  0  2  0  0  0  0  0  0  0  0  0
    7.9863  -13.0585   18.4059 N   0  0  0  0  0  0  0  0  0  0  0  0
    7.8169  -14.3500   20.3847 C   0  0  0  0  0  0  0  0  0  0  0  0
    7.3023  -13.3910   21.0226 O   0  0  0  0  0  0  0  0  0  0  0  0
    7.5460  -18.1581   22.3372 O   0  0  0  0  0  0  0  0  0  0  0  0
    6.4650  -17.3229   22.2213 C   0  0  0  0  0  0  0  0  0  0  0  0
    6.8451  -15.8503   22.1623 C   0  0  2  0  0  0  0  0  0  0  0  0
    7.5318  -15.6485   20.9119 N   0  0  0  0  0  0  0  0  0  0  0  0
    7.6655  -15.4393   23.3256 C   0  0  0  0  0  0  0  0  0  0  0  0
    8.9042  -15.3210   23.1411 O   0  0  0  0  0  0  0  0  0  0  0  0
    5.6498  -11.8738   26.6473 C   0  0  0  0  0  0  0  0  0  0  0  0
    6.7600  -12.4674   25.8088 C   0  0  0  0  0  0  0  0  0  0  0  0
    7.3176  -13.6510   26.5231 C   0  0  2  0  0  0  0  0  0  0  0  0
    8.3875  -13.1356   27.4830 C   0  0  0  0  0  0  0  0  0  0  0  0
    7.9757  -14.6519   25.6186 C   0  0  2  0  0  0  0  0  0  0  0  0
    7.1225  -15.1799   24.6087 N   0  0  0  0  0  0  0  0  0  0  0  0
    8.3972  -15.8038   26.4941 C   0  0  0  0  0  0  0  0  0  0  0  0
    9.3908  -15.7311   27.2352 O   0  0  0  0  0  0  0  0  0  0  0  0
    7.6787  -17.0028   26.5023 O   0  0  0  0  0  0  0  0  0  0  0  0
  2  1  1  6
  2  3  1  0
  2  4  1  0
  4  5  1  1
  6  4  1  0
  6 11  1  0
  7  6  2  0
  8  9  1  0
 10 11  1  0
 10  9  1  1
 10 12  1  0
 12 13  2  0
 12 19  1  0
 15 14  1  0
 16 17  1  1
 16 15  1  0
 18 16  1  0
 18 19  1  6
 20 22  1  0
 20 18  1  0
 21 20  2  0
M  END
$$$$
