TSI.pdb
     RDKit          3D

 22 21  0  0  1  0  0  0  0  0999 V2000
   10.2605  -14.4149   17.6974 C   0  0  0  0  0  0  0  0  0  0  0  0
    9.5979  -14.5747   19.0468 C   0  0  1  0  0  0  0  0  0  0  0  0
   10.1767  -13.7330   19.9664 O   0  0  0  0  0  0  0  0  0  0  0  0
    8.1109  -14.3243   18.9830 C   0  0  2  0  0  0  0  0  0  0  0  0
    7.8714  -12.9446   18.5348 N   0  0  0  0  0  0  0  0  0  0  0  0
    7.4117  -14.5076   20.2546 C   0  0  0  0  0  0  0  0  0  0  0  0
    7.0019  -13.5172   20.9199 O   0  0  0  0  0  0  0  0  0  0  0  0
    7.2531  -18.2190   22.4709 O   0  0  0  0  0  0  0  0  0  0  0  0
    6.1670  -17.4032   22.2854 C   0  0  0  0  0  0  0  0  0  0  0  0
    6.5353  -15.9337   22.1396 C   0  0  2  0  0  0  0  0  0  0  0  0
    7.1381  -15.7835   20.8397 N   0  0  0  0  0  0  0  0  0  0  0  0
    7.4276  -15.4719   23.2285 C   0  0  0  0  0  0  0  0  0  0  0  0
    8.6482  -15.3412   22.9536 O   0  0  0  0  0  0  0  0  0  0  0  0
    5.8947  -11.6460   26.7124 C   0  0  0  0  0  0  0  0  0  0  0  0
    6.7070  -12.4395   25.7131 C   0  0  0  0  0  0  0  0  0  0  0  0
    7.3002  -13.6177   26.4077 C   0  0  2  0  0  0  0  0  0  0  0  0
    8.4322  -13.0977   27.2907 C   0  0  0  0  0  0  0  0  0  0  0  0
    7.8926  -14.6362   25.4778 C   0  0  2  0  0  0  0  0  0  0  0  0
    6.9712  -15.1782   24.5377 N   0  0  0  0  0  0  0  0  0  0  0  0
    8.3699  -15.7745   26.3423 C   0  0  0  0  0  0  0  0  0  0  0  0
    7.6585  -16.7672   26.5661 O   0  0  0  0  0  0  0  0  0  0  0  0
    9.6396  -15.7520   26.9265 O   0  0  0  0  0  0  0  0  0  0  0  0
  2  1  1  6
  2  3  1  0
  2  4  1  0
  4  5  1  1
  6  4  1  0
  6 11  1  0
  7  6  2  0
  8  9  1  0
 10 11  1  0
 10  9  1  1
 10 12  1  0
 12 13  2  0
 12 19  1  0
 15 14  1  0
 16 17  1  1
 16 15  1  0
 18 16  1  0
 18 19  1  6
 20 22  1  0
 20 18  1  0
 21 20  2  0
M  END
$$$$
