TSI.pdb
     RDKit          3D

 22 21  0  0  1  0  0  0  0  0999 V2000
   10.9104  -13.3970   20.0344 C   0  0  0  0  0  0  0  0  0  0  0  0
    9.7129  -12.9959   19.2035 C   0  0  1  0  0  0  0  0  0  0  0  0
   10.1146  -12.5726   17.9591 O   0  0  0  0  0  0  0  0  0  0  0  0
    8.7132  -14.1186   19.0684 C   0  0  2  0  0  0  0  0  0  0  0  0
    7.5514  -13.6423   18.3034 N   0  0  0  0  0  0  0  0  0  0  0  0
    8.2227  -14.6478   20.3407 C   0  0  0  0  0  0  0  0  0  0  0  0
    7.3138  -14.0552   20.9843 O   0  0  0  0  0  0  0  0  0  0  0  0
    8.2678  -18.4315   23.4429 O   0  0  0  0  0  0  0  0  0  0  0  0
    8.6163  -17.8260   22.2633 C   0  0  0  0  0  0  0  0  0  0  0  0
    8.1761  -16.3714   22.1797 C   0  0  2  0  0  0  0  0  0  0  0  0
    8.7122  -15.8453   20.9504 N   0  0  0  0  0  0  0  0  0  0  0  0
    8.6094  -15.5891   23.3610 C   0  0  0  0  0  0  0  0  0  0  0  0
    9.7656  -15.0945   23.3291 O   0  0  0  0  0  0  0  0  0  0  0  0
    5.4051  -12.1589   26.0935 C   0  0  0  0  0  0  0  0  0  0  0  0
    6.5364  -12.8121   25.3309 C   0  0  0  0  0  0  0  0  0  0  0  0
    7.2593  -13.7380   26.2487 C   0  0  2  0  0  0  0  0  0  0  0  0
    7.9853  -12.8760   27.2790 C   0  0  0  0  0  0  0  0  0  0  0  0
    8.2949  -14.5837   25.5665 C   0  0  2  0  0  0  0  0  0  0  0  0
    7.7916  -15.3804   24.4995 N   0  0  0  0  0  0  0  0  0  0  0  0
    8.8311  -15.5262   26.6130 C   0  0  0  0  0  0  0  0  0  0  0  0
    9.5640  -15.1306   27.5339 O   0  0  0  0  0  0  0  0  0  0  0  0
    8.5195  -16.8885   26.5830 O   0  0  0  0  0  0  0  0  0  0  0  0
  2  1  1  1
  2  3  1  0
  2  4  1  0
  4  5  1  6
  6  4  1  0
  6 11  1  0
  7  6  2  0
  8  9  1  0
 10 11  1  0
 10  9  1  1
 10 12  1  0
 12 13  2  0
 12 19  1  0
 15 14  1  0
 16 17  1  1
 16 15  1  0
 18 16  1  0
 18 19  1  6
 20 22  1  0
 20 18  1  0
 21 20  2  0
M  END
$$$$
