TSI.pdb
     RDKit          3D

 22 21  0  0  1  0  0  0  0  0999 V2000
    9.0850  -12.5020   19.7099 C   0  0  0  0  0  0  0  0  0  0  0  0
    8.4354  -13.3096   18.6095 C   0  0  1  0  0  0  0  0  0  0  0  0
    8.9080  -12.9117   17.3817 O   0  0  0  0  0  0  0  0  0  0  0  0
    8.6515  -14.7925   18.7894 C   0  0  2  0  0  0  0  0  0  0  0  0
    8.0263  -15.5118   17.6698 N   0  0  0  0  0  0  0  0  0  0  0  0
    8.1030  -15.3372   20.0311 C   0  0  0  0  0  0  0  0  0  0  0  0
    6.8571  -15.4198   20.2104 O   0  0  0  0  0  0  0  0  0  0  0  0
   10.1292  -17.8813   22.6154 O   0  0  0  0  0  0  0  0  0  0  0  0
    8.7702  -17.7284   22.5180 C   0  0  0  0  0  0  0  0  0  0  0  0
    8.3371  -16.2781   22.3581 C   0  0  2  0  0  0  0  0  0  0  0  0
    8.9026  -15.8102   21.1184 N   0  0  0  0  0  0  0  0  0  0  0  0
    8.7464  -15.4436   23.5118 C   0  0  0  0  0  0  0  0  0  0  0  0
    9.8844  -14.9100   23.4591 O   0  0  0  0  0  0  0  0  0  0  0  0
    5.3922  -12.1418   26.2303 C   0  0  0  0  0  0  0  0  0  0  0  0
    6.5848  -12.6898   25.4783 C   0  0  0  0  0  0  0  0  0  0  0  0
    7.3503  -13.5900   26.3871 C   0  0  2  0  0  0  0  0  0  0  0  0
    8.0517  -12.7038   27.4138 C   0  0  0  0  0  0  0  0  0  0  0  0
    8.4114  -14.3939   25.6935 C   0  0  2  0  0  0  0  0  0  0  0  0
    7.9255  -15.2273   24.6467 N   0  0  0  0  0  0  0  0  0  0  0  0
    9.0132  -15.2962   26.7397 C   0  0  0  0  0  0  0  0  0  0  0  0
    9.8195  -14.8711   27.5830 O   0  0  0  0  0  0  0  0  0  0  0  0
    8.6821  -16.6529   26.7976 O   0  0  0  0  0  0  0  0  0  0  0  0
  2  1  1  1
  2  3  1  0
  2  4  1  0
  4  5  1  6
  6  4  1  0
  6 11  1  0
  7  6  2  0
  8  9  1  0
 10 11  1  0
 10  9  1  1
 10 12  1  0
 12 13  2  0
 12 19  1  0
 15 14  1  0
 16 17  1  1
 16 15  1  0
 18 16  1  0
 18 19  1  6
 20 22  1  0
 20 18  1  0
 21 20  2  0
M  END
$$$$
