TSI.pdb
     RDKit          3D

 22 21  0  0  1  0  0  0  0  0999 V2000
    9.1483  -12.5340   19.7404 C   0  0  0  0  0  0  0  0  0  0  0  0
    8.2013  -13.2637   18.8151 C   0  0  1  0  0  0  0  0  0  0  0  0
    8.4187  -12.8841   17.5121 O   0  0  0  0  0  0  0  0  0  0  0  0
    8.3239  -14.7625   18.9430 C   0  0  2  0  0  0  0  0  0  0  0  0
    7.4359  -15.4059   17.9634 N   0  0  0  0  0  0  0  0  0  0  0  0
    7.9830  -15.2865   20.2653 C   0  0  0  0  0  0  0  0  0  0  0  0
    6.7833  -15.3491   20.6504 O   0  0  0  0  0  0  0  0  0  0  0  0
   10.6069  -17.6657   22.5224 O   0  0  0  0  0  0  0  0  0  0  0  0
    9.2371  -17.7215   22.5233 C   0  0  0  0  0  0  0  0  0  0  0  0
    8.5783  -16.3504   22.4718 C   0  0  2  0  0  0  0  0  0  0  0  0
    8.9464  -15.7599   21.2103 N   0  0  0  0  0  0  0  0  0  0  0  0
    8.9663  -15.5020   23.6228 C   0  0  0  0  0  0  0  0  0  0  0  0
    9.9684  -14.7562   23.4741 O   0  0  0  0  0  0  0  0  0  0  0  0
    5.8100  -12.5145   26.7897 C   0  0  0  0  0  0  0  0  0  0  0  0
    6.9471  -13.0253   25.9327 C   0  0  0  0  0  0  0  0  0  0  0  0
    7.7489  -13.9955   26.7315 C   0  0  2  0  0  0  0  0  0  0  0  0
    8.4804  -13.1973   27.8082 C   0  0  0  0  0  0  0  0  0  0  0  0
    8.7899  -14.7254   25.9336 C   0  0  2  0  0  0  0  0  0  0  0  0
    8.2692  -15.4972   24.8568 N   0  0  0  0  0  0  0  0  0  0  0  0
    9.4613  -15.6821   26.8849 C   0  0  0  0  0  0  0  0  0  0  0  0
    9.1327  -16.8778   26.9486 O   0  0  0  0  0  0  0  0  0  0  0  0
   10.4850  -15.2534   27.7347 O   0  0  0  0  0  0  0  0  0  0  0  0
  2  1  1  1
  2  3  1  0
  2  4  1  0
  4  5  1  6
  6  4  1  0
  6 11  1  0
  7  6  2  0
  8  9  1  0
 10 11  1  0
 10  9  1  1
 10 12  1  0
 12 13  2  0
 12 19  1  0
 15 14  1  0
 16 17  1  1
 16 15  1  0
 18 16  1  0
 18 19  1  6
 20 22  1  0
 20 18  1  0
 21 20  2  0
M  END
$$$$
