TSI.pdb
     RDKit          3D

 22 21  0  0  1  0  0  0  0  0999 V2000
    8.9699  -12.5020   19.5442 C   0  0  0  0  0  0  0  0  0  0  0  0
    8.3913  -13.3618   18.4436 C   0  0  1  0  0  0  0  0  0  0  0  0
    8.8979  -12.9818   17.2237 O   0  0  0  0  0  0  0  0  0  0  0  0
    8.6502  -14.8307   18.6745 C   0  0  2  0  0  0  0  0  0  0  0  0
    8.1067  -15.6010   17.5461 N   0  0  0  0  0  0  0  0  0  0  0  0
    8.0603  -15.3629   19.9027 C   0  0  0  0  0  0  0  0  0  0  0  0
    6.8185  -15.5658   19.9928 O   0  0  0  0  0  0  0  0  0  0  0  0
    9.8673  -17.8734   22.6545 O   0  0  0  0  0  0  0  0  0  0  0  0
    8.5389  -17.6396   22.4095 C   0  0  0  0  0  0  0  0  0  0  0  0
    8.1995  -16.1608   22.2899 C   0  0  2  0  0  0  0  0  0  0  0  0
    8.8127  -15.6909   21.0739 N   0  0  0  0  0  0  0  0  0  0  0  0
    8.6416  -15.3898   23.4754 C   0  0  0  0  0  0  0  0  0  0  0  0
    9.8178  -14.9437   23.4639 O   0  0  0  0  0  0  0  0  0  0  0  0
    5.5952  -11.8636   26.3340 C   0  0  0  0  0  0  0  0  0  0  0  0
    6.7015  -12.5331   25.5491 C   0  0  0  0  0  0  0  0  0  0  0  0
    7.3525  -13.5550   26.4176 C   0  0  2  0  0  0  0  0  0  0  0  0
    8.1094  -12.8026   27.5096 C   0  0  0  0  0  0  0  0  0  0  0  0
    8.3486  -14.4175   25.6986 C   0  0  2  0  0  0  0  0  0  0  0  0
    7.8110  -15.1403   24.5963 N   0  0  0  0  0  0  0  0  0  0  0  0
    8.8361  -15.4308   26.7019 C   0  0  0  0  0  0  0  0  0  0  0  0
    8.3265  -16.5596   26.7902 O   0  0  0  0  0  0  0  0  0  0  0  0
    9.8868  -15.1327   27.5743 O   0  0  0  0  0  0  0  0  0  0  0  0
  2  1  1  1
  2  3  1  0
  2  4  1  0
  4  5  1  6
  6  4  1  0
  6 11  1  0
  7  6  2  0
  8  9  1  0
 10 11  1  0
 10  9  1  1
 10 12  1  0
 12 13  2  0
 12 19  1  0
 15 14  1  0
 16 17  1  1
 16 15  1  0
 18 16  1  0
 18 19  1  6
 20 22  1  0
 20 18  1  0
 21 20  2  0
M  END
$$$$
