TSI.pdb
     RDKit          3D

 22 21  0  0  1  0  0  0  0  0999 V2000
   11.8174  -19.3569   19.8551 C   0  0  0  0  0  0  0  0  0  0  0  0
   11.0494  -18.3513   20.6823 C   0  0  1  0  0  0  0  0  0  0  0  0
   11.8303  -17.8834   21.7121 O   0  0  0  0  0  0  0  0  0  0  0  0
   10.5468  -17.1966   19.8505 C   0  0  2  0  0  0  0  0  0  0  0  0
   11.6950  -16.4484   19.3176 N   0  0  0  0  0  0  0  0  0  0  0  0
    9.6979  -16.2525   20.5768 C   0  0  0  0  0  0  0  0  0  0  0  0
   10.1317  -15.1186   20.9194 O   0  0  0  0  0  0  0  0  0  0  0  0
    5.8697  -17.2843   22.1270 O   0  0  0  0  0  0  0  0  0  0  0  0
    6.0995  -16.0480   21.5809 C   0  0  0  0  0  0  0  0  0  0  0  0
    7.5456  -15.5915   21.7107 C   0  0  2  0  0  0  0  0  0  0  0  0
    8.3440  -16.5201   20.9519 N   0  0  0  0  0  0  0  0  0  0  0  0
    7.9781  -15.5051   23.1252 C   0  0  0  0  0  0  0  0  0  0  0  0
    8.9397  -16.2360   23.4769 O   0  0  0  0  0  0  0  0  0  0  0  0
    6.1601  -11.4484   26.3923 C   0  0  0  0  0  0  0  0  0  0  0  0
    7.2765  -12.2660   25.7812 C   0  0  0  0  0  0  0  0  0  0  0  0
    7.1998  -13.6551   26.3168 C   0  0  2  0  0  0  0  0  0  0  0  0
    7.9685  -13.6728   27.6360 C   0  0  0  0  0  0  0  0  0  0  0  0
    7.8252  -14.6861   25.4230 C   0  0  2  0  0  0  0  0  0  0  0  0
    7.3656  -14.6512   24.0761 N   0  0  0  0  0  0  0  0  0  0  0  0
    7.4431  -16.0289   25.9904 C   0  0  0  0  0  0  0  0  0  0  0  0
    6.3161  -16.5175   25.8093 O   0  0  0  0  0  0  0  0  0  0  0  0
    8.3511  -16.7763   26.7460 O   0  0  0  0  0  0  0  0  0  0  0  0
  2  1  1  6
  2  3  1  0
  2  4  1  0
  4  5  1  1
  6  4  1  0
  6 11  1  0
  7  6  2  0
  8  9  1  0
 10 11  1  0
 10  9  1  1
 10 12  1  0
 12 13  2  0
 12 19  1  0
 15 14  1  0
 16 17  1  1
 16 15  1  0
 18 16  1  0
 18 19  1  6
 20 22  1  0
 20 18  1  0
 21 20  2  0
M  END
$$$$
