TSI.pdb
     RDKit          3D

 22 21  0  0  1  0  0  0  0  0999 V2000
    8.7426  -12.4416   19.8118 C   0  0  0  0  0  0  0  0  0  0  0  0
    8.1230  -13.3171   18.7465 C   0  0  1  0  0  0  0  0  0  0  0  0
    8.5106  -12.8964   17.4968 O   0  0  0  0  0  0  0  0  0  0  0  0
    8.4742  -14.7732   18.9324 C   0  0  2  0  0  0  0  0  0  0  0  0
    7.9041  -15.5536   17.8243 N   0  0  0  0  0  0  0  0  0  0  0  0
    7.9911  -15.3568   20.1835 C   0  0  0  0  0  0  0  0  0  0  0  0
    6.8176  -15.8098   20.2793 O   0  0  0  0  0  0  0  0  0  0  0  0
    8.5397  -18.0756   23.8673 O   0  0  0  0  0  0  0  0  0  0  0  0
    8.8690  -17.4338   22.7015 C   0  0  0  0  0  0  0  0  0  0  0  0
    8.2749  -16.0366   22.5944 C   0  0  2  0  0  0  0  0  0  0  0  0
    8.7788  -15.4636   21.3724 N   0  0  0  0  0  0  0  0  0  0  0  0
    8.5928  -15.2034   23.7776 C   0  0  0  0  0  0  0  0  0  0  0  0
    9.7598  -14.7405   23.8567 O   0  0  0  0  0  0  0  0  0  0  0  0
    6.5630  -11.5349   25.1966 C   0  0  0  0  0  0  0  0  0  0  0  0
    5.9173  -12.7678   25.7892 C   0  0  0  0  0  0  0  0  0  0  0  0
    6.9180  -13.4666   26.6451 C   0  0  2  0  0  0  0  0  0  0  0  0
    7.5125  -12.4228   27.5877 C   0  0  0  0  0  0  0  0  0  0  0  0
    8.0563  -14.0729   25.8772 C   0  0  2  0  0  0  0  0  0  0  0  0
    7.6556  -14.9137   24.8005 N   0  0  0  0  0  0  0  0  0  0  0  0
    8.8190  -14.9307   26.8536 C   0  0  0  0  0  0  0  0  0  0  0  0
    9.5297  -14.4341   27.7424 O   0  0  0  0  0  0  0  0  0  0  0  0
    8.7520  -16.3256   26.7922 O   0  0  0  0  0  0  0  0  0  0  0  0
  2  1  1  1
  2  3  1  0
  2  4  1  0
  4  5  1  6
  6  4  1  0
  6 11  1  0
  7  6  2  0
  8  9  1  0
 10 11  1  0
 10  9  1  1
 10 12  1  0
 12 13  2  0
 12 19  1  0
 15 14  1  0
 16 17  1  1
 16 15  1  0
 18 16  1  0
 18 19  1  6
 20 22  1  0
 20 18  1  0
 21 20  2  0
M  END
$$$$
