TSI.pdb
     RDKit          3D

 22 21  0  0  1  0  0  0  0  0999 V2000
   10.8647  -13.8403   17.7242 C   0  0  0  0  0  0  0  0  0  0  0  0
   10.3581  -14.2333   19.0932 C   0  0  1  0  0  0  0  0  0  0  0  0
   10.7598  -13.3148   20.0335 O   0  0  0  0  0  0  0  0  0  0  0  0
    8.8562  -14.3789   19.1233 C   0  0  2  0  0  0  0  0  0  0  0  0
    8.2385  -13.1016   18.7373 N   0  0  0  0  0  0  0  0  0  0  0  0
    8.3117  -14.7617   20.4257 C   0  0  0  0  0  0  0  0  0  0  0  0
    7.4958  -14.0162   21.0341 O   0  0  0  0  0  0  0  0  0  0  0  0
    7.6436  -18.4479   23.5512 O   0  0  0  0  0  0  0  0  0  0  0  0
    8.1162  -17.9124   22.3810 C   0  0  0  0  0  0  0  0  0  0  0  0
    7.9870  -16.3972   22.3165 C   0  0  2  0  0  0  0  0  0  0  0  0
    8.6434  -15.9756   21.1053 N   0  0  0  0  0  0  0  0  0  0  0  0
    8.5497  -15.7381   23.5182 C   0  0  0  0  0  0  0  0  0  0  0  0
    9.7810  -15.4806   23.5080 O   0  0  0  0  0  0  0  0  0  0  0  0
    5.5909  -12.1199   26.2772 C   0  0  0  0  0  0  0  0  0  0  0  0
    6.7229  -12.7605   25.5049 C   0  0  0  0  0  0  0  0  0  0  0  0
    7.4426  -13.7043   26.4070 C   0  0  2  0  0  0  0  0  0  0  0  0
    8.2820  -12.8614   27.3643 C   0  0  0  0  0  0  0  0  0  0  0  0
    8.3805  -14.6324   25.6914 C   0  0  2  0  0  0  0  0  0  0  0  0
    7.7735  -15.3938   24.6529 N   0  0  0  0  0  0  0  0  0  0  0  0
    8.8840  -15.6075   26.7241 C   0  0  0  0  0  0  0  0  0  0  0  0
    8.3157  -16.6921   26.9299 O   0  0  0  0  0  0  0  0  0  0  0  0
   10.0169  -15.3226   27.4919 O   0  0  0  0  0  0  0  0  0  0  0  0
  2  1  1  6
  2  3  1  0
  2  4  1  0
  4  5  1  1
  6  4  1  0
  6 11  1  0
  7  6  2  0
  8  9  1  0
 10 11  1  0
 10  9  1  1
 10 12  1  0
 12 13  2  0
 12 19  1  0
 15 14  1  0
 16 17  1  1
 16 15  1  0
 18 16  1  0
 18 19  1  6
 20 22  1  0
 20 18  1  0
 21 20  2  0
M  END
$$$$
