TSI.pdb
     RDKit          3D

 22 21  0  0  1  0  0  0  0  0999 V2000
    9.8547  -18.1194   18.6715 C   0  0  0  0  0  0  0  0  0  0  0  0
    9.2664  -17.6929   19.9971 C   0  0  1  0  0  0  0  0  0  0  0  0
    9.6089  -16.3912   20.2755 O   0  0  0  0  0  0  0  0  0  0  0  0
    7.7656  -17.8493   20.0294 C   0  0  2  0  0  0  0  0  0  0  0  0
    7.1709  -17.0318   18.9618 N   0  0  0  0  0  0  0  0  0  0  0  0
    7.1434  -17.4537   21.2927 C   0  0  0  0  0  0  0  0  0  0  0  0
    6.4352  -16.4127   21.3708 O   0  0  0  0  0  0  0  0  0  0  0  0
    5.5488  -19.7224   24.3212 O   0  0  0  0  0  0  0  0  0  0  0  0
    6.6056  -18.9231   24.6730 C   0  0  0  0  0  0  0  0  0  0  0  0
    6.7668  -17.7067   23.7725 C   0  0  2  0  0  0  0  0  0  0  0  0
    7.2769  -18.1866   22.5135 N   0  0  0  0  0  0  0  0  0  0  0  0
    7.6443  -16.6775   24.3775 C   0  0  0  0  0  0  0  0  0  0  0  0
    8.8337  -16.6265   23.9712 O   0  0  0  0  0  0  0  0  0  0  0  0
    5.7585  -12.0038   26.6448 C   0  0  0  0  0  0  0  0  0  0  0  0
    6.6744  -12.8269   25.7663 C   0  0  0  0  0  0  0  0  0  0  0  0
    7.5271  -13.6853   26.6371 C   0  0  2  0  0  0  0  0  0  0  0  0
    8.6684  -12.8118   27.1527 C   0  0  0  0  0  0  0  0  0  0  0  0
    8.1463  -14.8506   25.9217 C   0  0  2  0  0  0  0  0  0  0  0  0
    7.2068  -15.7687   25.3732 N   0  0  0  0  0  0  0  0  0  0  0  0
    8.9548  -15.5997   26.9495 C   0  0  0  0  0  0  0  0  0  0  0  0
    8.4980  -16.5887   27.5453 O   0  0  0  0  0  0  0  0  0  0  0  0
   10.2566  -15.2042   27.2699 O   0  0  0  0  0  0  0  0  0  0  0  0
  2  1  1  6
  2  3  1  0
  2  4  1  0
  4  5  1  6
  6  4  1  0
  6 11  1  0
  7  6  2  0
  8  9  1  0
 10 11  1  0
 10  9  1  1
 10 12  1  0
 12 13  2  0
 12 19  1  0
 15 14  1  0
 16 17  1  6
 16 15  1  0
 18 16  1  0
 18 19  1  1
 20 22  1  0
 20 18  1  0
 21 20  2  0
M  END
$$$$
