TSI.pdb
     RDKit          3D

 22 21  0  0  1  0  0  0  0  0999 V2000
    9.7078  -14.3575   17.8419 C   0  0  0  0  0  0  0  0  0  0  0  0
    9.2738  -14.6134   19.2672 C   0  0  1  0  0  0  0  0  0  0  0  0
    9.8993  -13.7375   20.1220 O   0  0  0  0  0  0  0  0  0  0  0  0
    7.7768  -14.5143   19.4320 C   0  0  2  0  0  0  0  0  0  0  0  0
    7.3343  -13.1698   19.0338 N   0  0  0  0  0  0  0  0  0  0  0  0
    7.3012  -14.7549   20.7941 C   0  0  0  0  0  0  0  0  0  0  0  0
    6.9319  -13.8007   21.5320 O   0  0  0  0  0  0  0  0  0  0  0  0
    7.6974  -18.4673   22.9668 O   0  0  0  0  0  0  0  0  0  0  0  0
    6.5261  -17.7581   22.8989 C   0  0  0  0  0  0  0  0  0  0  0  0
    6.7376  -16.2596   22.7366 C   0  0  2  0  0  0  0  0  0  0  0  0
    7.2141  -16.0506   21.3931 N   0  0  0  0  0  0  0  0  0  0  0  0
    7.6678  -15.7146   23.7529 C   0  0  0  0  0  0  0  0  0  0  0  0
    8.8204  -15.3952   23.3633 O   0  0  0  0  0  0  0  0  0  0  0  0
    6.1173  -11.7972   26.7339 C   0  0  0  0  0  0  0  0  0  0  0  0
    7.0224  -12.6608   25.8835 C   0  0  0  0  0  0  0  0  0  0  0  0
    7.6134  -13.7253   26.7437 C   0  0  2  0  0  0  0  0  0  0  0  0
    8.7292  -13.0774   27.5602 C   0  0  0  0  0  0  0  0  0  0  0  0
    8.2258  -14.8586   25.9732 C   0  0  2  0  0  0  0  0  0  0  0  0
    7.3185  -15.5427   25.1156 N   0  0  0  0  0  0  0  0  0  0  0  0
    8.7112  -15.8542   26.9950 C   0  0  0  0  0  0  0  0  0  0  0  0
    8.0539  -16.8676   27.2828 O   0  0  0  0  0  0  0  0  0  0  0  0
    9.9272  -15.6700   27.6592 O   0  0  0  0  0  0  0  0  0  0  0  0
  2  1  1  6
  2  3  1  0
  2  4  1  0
  4  5  1  1
  6  4  1  0
  6 11  1  0
  7  6  2  0
  8  9  1  0
 10 11  1  0
 10  9  1  1
 10 12  1  0
 12 13  2  0
 12 19  1  0
 15 14  1  0
 16 17  1  6
 16 15  1  0
 18 16  1  0
 18 19  1  6
 20 22  1  0
 20 18  1  0
 21 20  2  0
M  END
$$$$
