NFM.pdb
     RDKit          3D

 28 28  0  0  1  0  0  0  0  0999 V2000
   22.8830  -18.6672  -20.5162 N   0  0  0  0  0  0  0  0  0  0  0  0
   23.0546  -18.2563  -19.1723 C   0  0  0  0  0  0  0  0  0  0  0  0
   23.6267  -17.1600  -18.9606 O   0  0  0  0  0  0  0  0  0  0  0  0
   22.5483  -19.1458  -18.1006 C   0  0  0  0  0  0  0  0  0  0  0  0
   23.6811  -19.8084  -17.3433 C   0  0  2  0  0  0  0  0  0  0  0  0
   24.3585  -20.8025  -18.1435 N   0  0  0  0  0  0  0  0  0  0  0  0
   23.1707  -20.4188  -16.0798 C   0  0  0  0  0  0  0  0  0  0  0  0
   22.6824  -21.5884  -16.0616 O   0  0  0  0  0  0  0  0  0  0  0  0
   23.2061  -19.7282  -14.8509 N   0  0  0  0  0  0  0  0  0  0  0  0
   22.6900  -20.2531  -13.6034 C   0  0  1  0  0  0  0  0  0  0  0  0
   23.2750  -19.4838  -12.4392 C   0  0  0  0  0  0  0  0  0  0  0  0
   22.7641  -19.9811  -11.1357 C   0  0  0  0  0  0  0  0  0  0  0  0
   21.5963  -19.4844  -10.5759 C   0  0  0  0  0  0  0  0  0  0  0  0
   21.1189  -19.9471   -9.3628 C   0  0  0  0  0  0  0  0  0  0  0  0
   21.7885  -20.9280   -8.6551 C   0  0  0  0  0  0  0  0  0  0  0  0
   22.9495  -21.4262   -9.2050 C   0  0  0  0  0  0  0  0  0  0  0  0
   23.4189  -20.9568  -10.4188 C   0  0  0  0  0  0  0  0  0  0  0  0
   21.2322  -20.2801  -13.6531 C   0  0  0  0  0  0  0  0  0  0  0  0
   20.6117  -19.2508  -14.0669 O   0  0  0  0  0  0  0  0  0  0  0  0
   18.1136  -23.2349  -17.2026 C   0  0  0  0  0  0  0  0  0  0  0  0
   16.8500  -23.6442  -15.9664 S   0  0  0  0  0  0  0  0  0  0  0  0
   17.0814  -22.4479  -14.5898 C   0  0  0  0  0  0  0  0  0  0  0  0
   18.5518  -22.3071  -14.3902 C   0  0  0  0  0  0  0  0  0  0  0  0
   18.9511  -21.3329  -13.3002 C   0  0  2  0  0  0  0  0  0  0  0  0
   20.4159  -21.3617  -13.2805 N   0  0  0  0  0  0  0  0  0  0  0  0
   18.3725  -21.6102  -11.9940 C   0  0  0  0  0  0  0  0  0  0  0  0
   18.8848  -22.4367  -11.1927 O   0  0  0  0  0  0  0  0  0  0  0  0
   17.2224  -20.9762  -11.5599 O   0  0  0  0  0  0  0  0  0  0  0  0
  1  2  1  0
  2  3  2  0
  4  5  1  0
  4  2  1  0
  5  6  1  6
  7  5  1  0
  7  8  2  0
  9  7  1  0
 10  9  1  0
 10 11  1  1
 11 12  1  0
 12 17  2  0
 13 12  1  0
 13 14  2  0
 14 15  1  0
 15 16  2  0
 17 16  1  0
 18 10  1  0
 19 18  2  0
 21 20  1  0
 22 21  1  0
 24 23  1  6
 23 22  1  0
 24 25  1  0
 25 18  1  0
 26 24  1  0
 27 26  2  0
 28 26  1  0
M  END
$$$$
