NFM.pdb
     RDKit          3D

 28 28  0  0  1  0  0  0  0  0999 V2000
   24.7265  -17.6731  -21.1940 N   0  0  0  0  0  0  0  0  0  0  0  0
   25.0149  -17.3857  -19.8380 C   0  0  0  0  0  0  0  0  0  0  0  0
   25.3839  -16.2220  -19.5488 O   0  0  0  0  0  0  0  0  0  0  0  0
   24.8630  -18.4760  -18.8459 C   0  0  0  0  0  0  0  0  0  0  0  0
   26.1310  -18.6800  -18.0420 C   0  0  2  0  0  0  0  0  0  0  0  0
   27.1823  -19.2785  -18.8321 N   0  0  0  0  0  0  0  0  0  0  0  0
   25.8497  -19.5139  -16.8357 C   0  0  0  0  0  0  0  0  0  0  0  0
   25.3114  -20.6572  -16.9340 O   0  0  0  0  0  0  0  0  0  0  0  0
   26.1669  -19.0731  -15.5344 N   0  0  0  0  0  0  0  0  0  0  0  0
   25.8039  -19.7775  -14.3219 C   0  0  1  0  0  0  0  0  0  0  0  0
   26.7199  -19.3630  -13.1911 C   0  0  0  0  0  0  0  0  0  0  0  0
   26.3205  -19.9825  -11.9011 C   0  0  0  0  0  0  0  0  0  0  0  0
   25.4956  -19.3220  -11.0027 C   0  0  0  0  0  0  0  0  0  0  0  0
   25.1221  -19.8979   -9.8017 C   0  0  0  0  0  0  0  0  0  0  0  0
   25.5572  -21.1609   -9.4454 C   0  0  0  0  0  0  0  0  0  0  0  0
   26.3771  -21.8231  -10.3329 C   0  0  0  0  0  0  0  0  0  0  0  0
   26.7451  -21.2386  -11.5317 C   0  0  0  0  0  0  0  0  0  0  0  0
   24.3806  -19.5936  -14.0600 C   0  0  0  0  0  0  0  0  0  0  0  0
   23.9588  -18.4388  -13.7372 O   0  0  0  0  0  0  0  0  0  0  0  0
   20.2746  -16.3524  -13.5741 C   0  0  0  0  0  0  0  0  0  0  0  0
   19.2652  -17.7527  -14.1332 S   0  0  0  0  0  0  0  0  0  0  0  0
   19.9935  -19.2475  -13.3491 C   0  0  0  0  0  0  0  0  0  0  0  0
   21.3761  -19.3818  -13.8897 C   0  0  0  0  0  0  0  0  0  0  0  0
   22.1474  -20.5752  -13.3631 C   0  0  2  0  0  0  0  0  0  0  0  0
   23.3947  -20.5926  -14.1317 N   0  0  0  0  0  0  0  0  0  0  0  0
   21.4333  -21.8412  -13.4344 C   0  0  0  0  0  0  0  0  0  0  0  0
   20.3399  -22.0317  -12.8382 O   0  0  0  0  0  0  0  0  0  0  0  0
   21.9202  -22.9091  -14.1664 O   0  0  0  0  0  0  0  0  0  0  0  0
  1  2  1  0
  2  3  2  0
  4  5  1  0
  4  2  1  0
  5  6  1  6
  7  5  1  0
  7  8  2  0
  9  7  1  0
 10  9  1  0
 10 11  1  1
 11 12  1  0
 12 17  2  0
 13 12  1  0
 13 14  2  0
 14 15  1  0
 15 16  2  0
 17 16  1  0
 18 10  1  0
 19 18  2  0
 21 20  1  0
 22 21  1  0
 24 23  1  6
 23 22  1  0
 24 25  1  0
 25 18  1  0
 26 24  1  0
 27 26  2  0
 28 26  1  0
M  END
$$$$
