NFM.pdb
     RDKit          3D

 28 28  0  0  1  0  0  0  0  0999 V2000
   26.9019  -20.0454  -15.8317 N   0  0  0  0  0  0  0  0  0  0  0  0
   26.8361  -21.3333  -15.2475 C   0  0  0  0  0  0  0  0  0  0  0  0
   27.0913  -22.3233  -15.9748 O   0  0  0  0  0  0  0  0  0  0  0  0
   26.4704  -21.4319  -13.8147 C   0  0  0  0  0  0  0  0  0  0  0  0
   27.4373  -20.6627  -12.9376 C   0  0  2  0  0  0  0  0  0  0  0  0
   28.8128  -20.8985  -13.3121 N   0  0  0  0  0  0  0  0  0  0  0  0
   27.2231  -21.0125  -11.5019 C   0  0  0  0  0  0  0  0  0  0  0  0
   26.3831  -21.8963  -11.1557 O   0  0  0  0  0  0  0  0  0  0  0  0
   27.9404  -20.3801  -10.4655 N   0  0  0  0  0  0  0  0  0  0  0  0
   27.6688  -20.5624   -9.0544 C   0  0  1  0  0  0  0  0  0  0  0  0
   28.7319  -19.8685   -8.2311 C   0  0  0  0  0  0  0  0  0  0  0  0
   28.4128  -19.8965   -6.7803 C   0  0  0  0  0  0  0  0  0  0  0  0
   27.7922  -18.8268   -6.1522 C   0  0  0  0  0  0  0  0  0  0  0  0
   27.4937  -18.8518   -4.8017 C   0  0  0  0  0  0  0  0  0  0  0  0
   27.8028  -19.9484   -4.0185 C   0  0  0  0  0  0  0  0  0  0  0  0
   28.4196  -21.0148   -4.6356 C   0  0  0  0  0  0  0  0  0  0  0  0
   28.7141  -20.9802   -5.9869 C   0  0  0  0  0  0  0  0  0  0  0  0
   26.2996  -20.1500   -8.7655 C   0  0  0  0  0  0  0  0  0  0  0  0
   25.8721  -19.0548   -9.2487 O   0  0  0  0  0  0  0  0  0  0  0  0
   23.0188  -19.9991  -12.2059 C   0  0  0  0  0  0  0  0  0  0  0  0
   21.6343  -20.7678  -11.3201 S   0  0  0  0  0  0  0  0  0  0  0  0
   21.9824  -20.5292   -9.5308 C   0  0  0  0  0  0  0  0  0  0  0  0
   23.4547  -20.6852   -9.3584 C   0  0  0  0  0  0  0  0  0  0  0  0
   23.9403  -20.5611   -7.9282 C   0  0  2  0  0  0  0  0  0  0  0  0
   25.3732  -20.8618   -7.9843 N   0  0  0  0  0  0  0  0  0  0  0  0
   23.2339  -21.3990   -6.9708 C   0  0  0  0  0  0  0  0  0  0  0  0
   23.6973  -22.4996   -6.5690 O   0  0  0  0  0  0  0  0  0  0  0  0
   22.0086  -21.0284   -6.4468 O   0  0  0  0  0  0  0  0  0  0  0  0
  1  2  1  0
  2  3  2  0
  4  5  1  0
  4  2  1  0
  5  6  1  6
  7  5  1  0
  7  8  2  0
  9  7  1  0
 10  9  1  0
 10 11  1  1
 11 12  1  0
 12 17  2  0
 13 12  1  0
 13 14  2  0
 14 15  1  0
 15 16  2  0
 17 16  1  0
 18 10  1  0
 19 18  2  0
 21 20  1  0
 22 21  1  0
 24 23  1  6
 23 22  1  0
 24 25  1  0
 25 18  1  0
 26 24  1  0
 27 26  2  0
 28 26  1  0
M  END
$$$$
