NFM.pdb
     RDKit          3D

 28 28  0  0  1  0  0  0  0  0999 V2000
   28.0843  -19.9223  -15.2246 N   0  0  0  0  0  0  0  0  0  0  0  0
   26.9862  -19.2427  -14.6445 C   0  0  0  0  0  0  0  0  0  0  0  0
   26.4977  -18.2715  -15.2708 O   0  0  0  0  0  0  0  0  0  0  0  0
   26.4827  -19.7203  -13.3351 C   0  0  0  0  0  0  0  0  0  0  0  0
   27.3153  -20.8683  -12.8017 C   0  0  2  0  0  0  0  0  0  0  0  0
   27.0975  -22.0868  -13.5470 N   0  0  0  0  0  0  0  0  0  0  0  0
   27.0263  -21.0872  -11.3532 C   0  0  0  0  0  0  0  0  0  0  0  0
   26.1218  -21.8902  -10.9742 O   0  0  0  0  0  0  0  0  0  0  0  0
   27.7410  -20.4148  -10.3406 N   0  0  0  0  0  0  0  0  0  0  0  0
   27.4962  -20.5771   -8.9222 C   0  0  1  0  0  0  0  0  0  0  0  0
   28.6282  -19.9602   -8.1299 C   0  0  0  0  0  0  0  0  0  0  0  0
   28.3432  -19.9548   -6.6718 C   0  0  0  0  0  0  0  0  0  0  0  0
   27.7463  -18.8667   -6.0522 C   0  0  0  0  0  0  0  0  0  0  0  0
   27.4795  -18.8606   -4.6949 C   0  0  0  0  0  0  0  0  0  0  0  0
   27.7978  -19.9432   -3.8961 C   0  0  0  0  0  0  0  0  0  0  0  0
   28.3911  -21.0277   -4.5046 C   0  0  0  0  0  0  0  0  0  0  0  0
   28.6540  -21.0242   -5.8629 C   0  0  0  0  0  0  0  0  0  0  0  0
   26.1682  -20.0685   -8.5965 C   0  0  0  0  0  0  0  0  0  0  0  0
   25.8256  -18.9227   -9.0274 O   0  0  0  0  0  0  0  0  0  0  0  0
   22.8384  -19.7889  -12.1969 C   0  0  0  0  0  0  0  0  0  0  0  0
   21.6107  -20.8118  -11.3373 S   0  0  0  0  0  0  0  0  0  0  0  0
   21.8743  -20.5182   -9.5417 C   0  0  0  0  0  0  0  0  0  0  0  0
   23.3357  -20.6760   -9.2940 C   0  0  0  0  0  0  0  0  0  0  0  0
   23.7653  -20.4210   -7.8632 C   0  0  2  0  0  0  0  0  0  0  0  0
   25.1958  -20.7361   -7.8324 N   0  0  0  0  0  0  0  0  0  0  0  0
   23.0121  -21.1596   -6.8607 C   0  0  0  0  0  0  0  0  0  0  0  0
   23.4854  -22.1671   -6.2704 O   0  0  0  0  0  0  0  0  0  0  0  0
   21.7285  -20.7915   -6.4998 O   0  0  0  0  0  0  0  0  0  0  0  0
  1  2  1  0
  2  3  2  0
  4  5  1  0
  4  2  1  0
  5  6  1  6
  7  5  1  0
  7  8  2  0
  9  7  1  0
 10  9  1  0
 10 11  1  1
 11 12  1  0
 12 17  2  0
 13 12  1  0
 13 14  2  0
 14 15  1  0
 15 16  2  0
 17 16  1  0
 18 10  1  0
 19 18  2  0
 21 20  1  0
 22 21  1  0
 24 23  1  6
 23 22  1  0
 24 25  1  0
 25 18  1  0
 26 24  1  0
 27 26  2  0
 28 26  1  0
M  END
$$$$
