NFM.pdb
     RDKit          3D

 28 28  0  0  1  0  0  0  0  0999 V2000
   27.1515  -20.8912  -15.7223 N   0  0  0  0  0  0  0  0  0  0  0  0
   28.2318  -21.5129  -15.0508 C   0  0  0  0  0  0  0  0  0  0  0  0
   29.2019  -21.9113  -15.7396 O   0  0  0  0  0  0  0  0  0  0  0  0
   28.1496  -21.6542  -13.5779 C   0  0  0  0  0  0  0  0  0  0  0  0
   26.8616  -21.0720  -13.0322 C   0  0  2  0  0  0  0  0  0  0  0  0
   26.7352  -19.6638  -13.3300 N   0  0  0  0  0  0  0  0  0  0  0  0
   26.7742  -21.3009  -11.5593 C   0  0  0  0  0  0  0  0  0  0  0  0
   26.8626  -22.4649  -11.0654 O   0  0  0  0  0  0  0  0  0  0  0  0
   26.5896  -20.2393  -10.6496 N   0  0  0  0  0  0  0  0  0  0  0  0
   26.4482  -20.4055   -9.2177 C   0  0  1  0  0  0  0  0  0  0  0  0
   27.1237  -19.2595   -8.4966 C   0  0  0  0  0  0  0  0  0  0  0  0
   27.5059  -19.6284   -7.1090 C   0  0  0  0  0  0  0  0  0  0  0  0
   28.7061  -20.2657   -6.8312 C   0  0  0  0  0  0  0  0  0  0  0  0
   29.0637  -20.6090   -5.5398 C   0  0  0  0  0  0  0  0  0  0  0  0
   28.2364  -20.3298   -4.4678 C   0  0  0  0  0  0  0  0  0  0  0  0
   27.0424  -19.6969   -4.7361 C   0  0  0  0  0  0  0  0  0  0  0  0
   26.6937  -19.3578   -6.0313 C   0  0  0  0  0  0  0  0  0  0  0  0
   25.0403  -20.5965   -8.8869 C   0  0  0  0  0  0  0  0  0  0  0  0
   24.1617  -19.9527   -9.5421 O   0  0  0  0  0  0  0  0  0  0  0  0
   22.4520  -22.2211   -3.1660 C   0  0  0  0  0  0  0  0  0  0  0  0
   21.7906  -23.5232   -4.2428 S   0  0  0  0  0  0  0  0  0  0  0  0
   21.6456  -22.7731   -5.9149 C   0  0  0  0  0  0  0  0  0  0  0  0
   23.0226  -22.3763   -6.3251 C   0  0  0  0  0  0  0  0  0  0  0  0
   23.1160  -21.7491   -7.7015 C   0  0  2  0  0  0  0  0  0  0  0  0
   24.5377  -21.4475   -7.8877 N   0  0  0  0  0  0  0  0  0  0  0  0
   22.2703  -20.5810   -7.8967 C   0  0  0  0  0  0  0  0  0  0  0  0
   21.0810  -20.6714   -8.3028 O   0  0  0  0  0  0  0  0  0  0  0  0
   22.7302  -19.3012   -7.6440 O   0  0  0  0  0  0  0  0  0  0  0  0
  1  2  1  0
  2  3  2  0
  4  5  1  0
  4  2  1  0
  5  6  1  1
  7  5  1  0
  7  8  2  0
  9  7  1  0
 10  9  1  0
 10 11  1  1
 11 12  1  0
 12 17  2  0
 13 12  1  0
 13 14  2  0
 14 15  1  0
 15 16  2  0
 17 16  1  0
 18 10  1  0
 19 18  2  0
 21 20  1  0
 22 21  1  0
 24 23  1  1
 23 22  1  0
 24 25  1  0
 25 18  1  0
 26 24  1  0
 27 26  2  0
 28 26  1  0
M  END
$$$$
