NFM.pdb
     RDKit          3D

 28 28  0  0  1  0  0  0  0  0999 V2000
   26.9665  -32.2376  -18.6844 N   0  0  0  0  0  0  0  0  0  0  0  0
   26.5284  -32.4497  -17.3550 C   0  0  0  0  0  0  0  0  0  0  0  0
   26.0999  -33.5891  -17.0513 O   0  0  0  0  0  0  0  0  0  0  0  0
   26.6032  -31.3139  -16.4060 C   0  0  0  0  0  0  0  0  0  0  0  0
   27.3014  -30.1178  -17.0207 C   0  0  2  0  0  0  0  0  0  0  0  0
   28.7356  -30.1866  -16.8595 N   0  0  0  0  0  0  0  0  0  0  0  0
   26.7729  -28.8518  -16.4313 C   0  0  0  0  0  0  0  0  0  0  0  0
   27.1479  -28.4477  -15.2899 O   0  0  0  0  0  0  0  0  0  0  0  0
   25.8353  -28.0475  -17.1113 N   0  0  0  0  0  0  0  0  0  0  0  0
   25.3696  -26.7594  -16.6401 C   0  0  1  0  0  0  0  0  0  0  0  0
   25.7975  -25.6730  -17.6026 C   0  0  0  0  0  0  0  0  0  0  0  0
   27.2552  -25.3996  -17.5146 C   0  0  0  0  0  0  0  0  0  0  0  0
   28.1784  -26.1423  -18.2358 C   0  0  0  0  0  0  0  0  0  0  0  0
   29.5358  -25.8883  -18.1555 C   0  0  0  0  0  0  0  0  0  0  0  0
   30.0309  -24.8796  -17.3500 C   0  0  0  0  0  0  0  0  0  0  0  0
   29.1197  -24.1378  -16.6305 C   0  0  0  0  0  0  0  0  0  0  0  0
   27.7640  -24.3996  -16.7174 C   0  0  0  0  0  0  0  0  0  0  0  0
   23.9349  -26.8248  -16.3840 C   0  0  0  0  0  0  0  0  0  0  0  0
   23.1678  -27.2748  -17.2922 O   0  0  0  0  0  0  0  0  0  0  0  0
   20.8605  -28.3267  -10.9495 C   0  0  0  0  0  0  0  0  0  0  0  0
   20.2495  -26.6397  -11.2196 S   0  0  0  0  0  0  0  0  0  0  0  0
   20.2336  -26.3920  -13.0412 C   0  0  0  0  0  0  0  0  0  0  0  0
   21.6545  -26.4336  -13.4895 C   0  0  0  0  0  0  0  0  0  0  0  0
   21.8419  -26.4788  -14.9927 C   0  0  2  0  0  0  0  0  0  0  0  0
   23.2918  -26.4308  -15.1981 N   0  0  0  0  0  0  0  0  0  0  0  0
   21.1422  -25.4338  -15.7250 C   0  0  0  0  0  0  0  0  0  0  0  0
   21.6159  -24.2741  -15.8602 O   0  0  0  0  0  0  0  0  0  0  0  0
   19.9123  -25.6603  -16.3161 O   0  0  0  0  0  0  0  0  0  0  0  0
  1  2  1  0
  2  3  2  0
  4  5  1  0
  4  2  1  0
  5  6  1  1
  7  5  1  0
  7  8  2  0
  9  7  1  0
 10  9  1  0
 10 11  1  6
 11 12  1  0
 12 17  2  0
 13 12  1  0
 13 14  2  0
 14 15  1  0
 15 16  2  0
 17 16  1  0
 18 10  1  0
 19 18  2  0
 21 20  1  0
 22 21  1  0
 24 23  1  1
 23 22  1  0
 24 25  1  0
 25 18  1  0
 26 24  1  0
 27 26  2  0
 28 26  1  0
M  END
$$$$
