NFM.pdb
     RDKit          3D

 28 28  0  0  1  0  0  0  0  0999 V2000
   25.9924  -23.1270  -19.4510 N   0  0  0  0  0  0  0  0  0  0  0  0
   25.8631  -22.1563  -18.4286 C   0  0  0  0  0  0  0  0  0  0  0  0
   26.6517  -21.1805  -18.4406 O   0  0  0  0  0  0  0  0  0  0  0  0
   24.8057  -22.3529  -17.4092 C   0  0  0  0  0  0  0  0  0  0  0  0
   25.3809  -22.3891  -16.0079 C   0  0  2  0  0  0  0  0  0  0  0  0
   26.2141  -23.5501  -15.7947 N   0  0  0  0  0  0  0  0  0  0  0  0
   24.2827  -22.3458  -14.9971 C   0  0  0  0  0  0  0  0  0  0  0  0
   23.8154  -23.4062  -14.4836 O   0  0  0  0  0  0  0  0  0  0  0  0
   23.7137  -21.1296  -14.5663 N   0  0  0  0  0  0  0  0  0  0  0  0
   22.6956  -21.0214  -13.5416 C   0  0  1  0  0  0  0  0  0  0  0  0
   23.0084  -19.8589  -12.6249 C   0  0  0  0  0  0  0  0  0  0  0  0
   23.9265  -20.2538  -11.5255 C   0  0  0  0  0  0  0  0  0  0  0  0
   25.2760  -20.4807  -11.7522 C   0  0  0  0  0  0  0  0  0  0  0  0
   26.1321  -20.8475  -10.7295 C   0  0  0  0  0  0  0  0  0  0  0  0
   25.6766  -21.0037   -9.4335 C   0  0  0  0  0  0  0  0  0  0  0  0
   24.3371  -20.7801   -9.2008 C   0  0  0  0  0  0  0  0  0  0  0  0
   23.4888  -20.4137  -10.2304 C   0  0  0  0  0  0  0  0  0  0  0  0
   21.3787  -20.9747  -14.1675 C   0  0  0  0  0  0  0  0  0  0  0  0
   21.1743  -20.1459  -15.1093 O   0  0  0  0  0  0  0  0  0  0  0  0
   18.2461  -25.8886  -14.9282 C   0  0  0  0  0  0  0  0  0  0  0  0
   16.6561  -25.0233  -15.0527 S   0  0  0  0  0  0  0  0  0  0  0  0
   17.0551  -23.2288  -15.0629 C   0  0  0  0  0  0  0  0  0  0  0  0
   18.4287  -23.0943  -14.5001 C   0  0  0  0  0  0  0  0  0  0  0  0
   18.9572  -21.6747  -14.4556 C   0  0  2  0  0  0  0  0  0  0  0  0
   20.2770  -21.7784  -13.8276 N   0  0  0  0  0  0  0  0  0  0  0  0
   18.0913  -20.7239  -13.7745 C   0  0  0  0  0  0  0  0  0  0  0  0
   18.1988  -20.4774  -12.5436 O   0  0  0  0  0  0  0  0  0  0  0  0
   17.0983  -20.0350  -14.4474 O   0  0  0  0  0  0  0  0  0  0  0  0
  1  2  1  0
  2  3  2  0
  4  5  1  0
  4  2  1  0
  5  6  1  6
  7  5  1  0
  7  8  2  0
  9  7  1  0
 10  9  1  0
 10 11  1  6
 11 12  1  0
 12 17  2  0
 13 12  1  0
 13 14  2  0
 14 15  1  0
 15 16  2  0
 17 16  1  0
 18 10  1  0
 19 18  2  0
 21 20  1  0
 22 21  1  0
 24 23  1  1
 23 22  1  0
 24 25  1  0
 25 18  1  0
 26 24  1  0
 27 26  2  0
 28 26  1  0
M  END
$$$$
