NFM.pdb
     RDKit          3D

 28 28  0  0  1  0  0  0  0  0999 V2000
   16.7357  -11.0959  -22.0540 N   0  0  0  0  0  0  0  0  0  0  0  0
   17.8873  -10.6859  -21.3398 C   0  0  0  0  0  0  0  0  0  0  0  0
   19.0026  -10.8085  -21.9012 O   0  0  0  0  0  0  0  0  0  0  0  0
   17.7039  -10.1379  -19.9751 C   0  0  0  0  0  0  0  0  0  0  0  0
   18.7316  -10.6907  -19.0087 C   0  0  2  0  0  0  0  0  0  0  0  0
   18.4269  -12.0460  -18.6113 N   0  0  0  0  0  0  0  0  0  0  0  0
   18.8386   -9.8094  -17.8081 C   0  0  0  0  0  0  0  0  0  0  0  0
   17.8777   -9.6875  -16.9906 O   0  0  0  0  0  0  0  0  0  0  0  0
   20.0075   -9.0728  -17.5259 N   0  0  0  0  0  0  0  0  0  0  0  0
   20.1292   -8.1156  -16.4456 C   0  0  1  0  0  0  0  0  0  0  0  0
   21.3674   -8.4148  -15.6290 C   0  0  0  0  0  0  0  0  0  0  0  0
   21.5862   -7.4007  -14.5654 C   0  0  0  0  0  0  0  0  0  0  0  0
   21.1926   -7.6263  -13.2546 C   0  0  0  0  0  0  0  0  0  0  0  0
   21.3965   -6.6834  -12.2632 C   0  0  0  0  0  0  0  0  0  0  0  0
   22.0035   -5.4722  -12.5385 C   0  0  0  0  0  0  0  0  0  0  0  0
   22.3970   -5.2410  -13.8385 C   0  0  0  0  0  0  0  0  0  0  0  0
   22.1886   -6.1903  -14.8231 C   0  0  0  0  0  0  0  0  0  0  0  0
   20.0599   -6.7620  -16.9851 C   0  0  0  0  0  0  0  0  0  0  0  0
   20.7616   -6.4690  -18.0037 O   0  0  0  0  0  0  0  0  0  0  0  0
   16.2033   -1.0477  -19.9319 C   0  0  0  0  0  0  0  0  0  0  0  0
   16.2952   -2.6761  -19.1368 S   0  0  0  0  0  0  0  0  0  0  0  0
   17.8834   -2.6993  -18.2112 C   0  0  0  0  0  0  0  0  0  0  0  0
   18.0473   -4.0824  -17.6803 C   0  0  0  0  0  0  0  0  0  0  0  0
   19.3494   -4.3268  -16.9446 C   0  0  2  0  0  0  0  0  0  0  0  0
   19.2708   -5.7143  -16.4802 N   0  0  0  0  0  0  0  0  0  0  0  0
   19.6212   -3.3933  -15.8617 C   0  0  0  0  0  0  0  0  0  0  0  0
   18.9346   -3.3692  -14.8056 O   0  0  0  0  0  0  0  0  0  0  0  0
   20.6553   -2.4776  -15.9349 O   0  0  0  0  0  0  0  0  0  0  0  0
  1  2  1  0
  2  3  2  0
  4  5  1  0
  4  2  1  0
  5  6  1  1
  7  5  1  0
  7  8  2  0
  9  7  1  0
 10  9  1  0
 10 11  1  6
 11 12  1  0
 12 17  2  0
 13 12  1  0
 13 14  2  0
 14 15  1  0
 15 16  2  0
 17 16  1  0
 18 10  1  0
 19 18  2  0
 21 20  1  0
 22 21  1  0
 24 23  1  1
 23 22  1  0
 24 25  1  0
 25 18  1  0
 26 24  1  0
 27 26  2  0
 28 26  1  0
M  END
$$$$
