NFM.pdb
     RDKit          3D

 28 28  0  0  1  0  0  0  0  0999 V2000
   22.9226  -21.0711  -17.4218 N   0  0  0  0  0  0  0  0  0  0  0  0
   23.7652  -20.2967  -16.5882 C   0  0  0  0  0  0  0  0  0  0  0  0
   24.0298  -19.1237  -16.9459 O   0  0  0  0  0  0  0  0  0  0  0  0
   24.2814  -20.9193  -15.3464 C   0  0  0  0  0  0  0  0  0  0  0  0
   25.7407  -21.3046  -15.4800 C   0  0  2  0  0  0  0  0  0  0  0  0
   25.9248  -22.4268  -16.3713 N   0  0  0  0  0  0  0  0  0  0  0  0
   26.3203  -21.6075  -14.1376 C   0  0  0  0  0  0  0  0  0  0  0  0
   26.2532  -22.7696  -13.6362 O   0  0  0  0  0  0  0  0  0  0  0  0
   26.9672  -20.6209  -13.3652 N   0  0  0  0  0  0  0  0  0  0  0  0
   27.5597  -20.8594  -12.0651 C   0  0  1  0  0  0  0  0  0  0  0  0
   28.7058  -19.8981  -11.8369 C   0  0  0  0  0  0  0  0  0  0  0  0
   29.3477  -20.1079  -10.5135 C   0  0  0  0  0  0  0  0  0  0  0  0
   30.2854  -21.1099  -10.3116 C   0  0  0  0  0  0  0  0  0  0  0  0
   30.8845  -21.3059   -9.0803 C   0  0  0  0  0  0  0  0  0  0  0  0
   30.5725  -20.5080   -7.9953 C   0  0  0  0  0  0  0  0  0  0  0  0
   29.6418  -19.5105   -8.1883 C   0  0  0  0  0  0  0  0  0  0  0  0
   29.0480  -19.3226   -9.4237 C   0  0  0  0  0  0  0  0  0  0  0  0
   26.5189  -20.8299  -11.0434 C   0  0  0  0  0  0  0  0  0  0  0  0
   25.4277  -20.2280  -11.2941 O   0  0  0  0  0  0  0  0  0  0  0  0
   28.1984  -20.6986   -5.4620 C   0  0  0  0  0  0  0  0  0  0  0  0
   26.5027  -20.5856   -4.8263 S   0  0  0  0  0  0  0  0  0  0  0  0
   25.4010  -20.9307   -6.2570 C   0  0  0  0  0  0  0  0  0  0  0  0
   26.2808  -21.0444   -7.4548 C   0  0  0  0  0  0  0  0  0  0  0  0
   25.5491  -21.3250   -8.7519 C   0  0  2  0  0  0  0  0  0  0  0  0
   26.5990  -21.4185   -9.7697 N   0  0  0  0  0  0  0  0  0  0  0  0
   24.5262  -20.3491   -9.0972 C   0  0  0  0  0  0  0  0  0  0  0  0
   23.2960  -20.5901   -8.9707 O   0  0  0  0  0  0  0  0  0  0  0  0
   24.8528  -19.0966   -9.5849 O   0  0  0  0  0  0  0  0  0  0  0  0
  1  2  1  0
  2  3  2  0
  4  5  1  0
  4  2  1  0
  5  6  1  6
  7  5  1  0
  7  8  2  0
  9  7  1  0
 10  9  1  0
 10 11  1  1
 11 12  1  0
 12 17  2  0
 13 12  1  0
 13 14  2  0
 14 15  1  0
 15 16  2  0
 17 16  1  0
 18 10  1  0
 19 18  2  0
 21 20  1  0
 22 21  1  0
 24 23  1  1
 23 22  1  0
 24 25  1  0
 25 18  1  0
 26 24  1  0
 27 26  2  0
 28 26  1  0
M  END
$$$$
