NFM.pdb
     RDKit          3D

 28 28  0  0  1  0  0  0  0  0999 V2000
   29.1877  -20.2864  -18.2837 N   0  0  0  0  0  0  0  0  0  0  0  0
   27.8901  -19.7216  -18.3264 C   0  0  0  0  0  0  0  0  0  0  0  0
   27.6791  -18.7929  -19.1432 O   0  0  0  0  0  0  0  0  0  0  0  0
   26.8631  -20.2620  -17.4048 C   0  0  0  0  0  0  0  0  0  0  0  0
   27.4344  -21.3339  -16.4989 C   0  0  2  0  0  0  0  0  0  0  0  0
   27.6448  -22.5795  -17.2002 N   0  0  0  0  0  0  0  0  0  0  0  0
   26.5408  -21.5457  -15.3215 C   0  0  0  0  0  0  0  0  0  0  0  0
   25.4856  -22.2423  -15.4101 O   0  0  0  0  0  0  0  0  0  0  0  0
   26.8248  -20.9839  -14.0597 N   0  0  0  0  0  0  0  0  0  0  0  0
   25.9816  -21.1316  -12.8911 C   0  0  1  0  0  0  0  0  0  0  0  0
   26.7052  -20.6181  -11.6654 C   0  0  0  0  0  0  0  0  0  0  0  0
   25.8536  -20.6912  -10.4501 C   0  0  0  0  0  0  0  0  0  0  0  0
   25.1380  -19.5926   -9.9973 C   0  0  0  0  0  0  0  0  0  0  0  0
   24.3441  -19.6594   -8.8665 C   0  0  0  0  0  0  0  0  0  0  0  0
   24.2302  -20.8287   -8.1376 C   0  0  0  0  0  0  0  0  0  0  0  0
   24.9383  -21.9242   -8.5814 C   0  0  0  0  0  0  0  0  0  0  0  0
   25.7298  -21.8473   -9.7135 C   0  0  0  0  0  0  0  0  0  0  0  0
   24.6854  -20.5123  -13.1453 C   0  0  0  0  0  0  0  0  0  0  0  0
   24.6484  -19.3624  -13.6858 O   0  0  0  0  0  0  0  0  0  0  0  0
   22.8515  -19.1043  -17.2613 C   0  0  0  0  0  0  0  0  0  0  0  0
   21.1102  -19.5550  -17.0221 S   0  0  0  0  0  0  0  0  0  0  0  0
   20.8706  -19.7055  -15.2056 C   0  0  0  0  0  0  0  0  0  0  0  0
   22.1427  -20.2500  -14.6514 C   0  0  0  0  0  0  0  0  0  0  0  0
   22.1497  -20.4326  -13.1470 C   0  0  2  0  0  0  0  0  0  0  0  0
   23.4323  -21.0741  -12.8465 N   0  0  0  0  0  0  0  0  0  0  0  0
   21.0179  -21.1798  -12.6193 C   0  0  0  0  0  0  0  0  0  0  0  0
   21.0441  -22.4317  -12.4796 O   0  0  0  0  0  0  0  0  0  0  0  0
   19.8459  -20.5506  -12.2398 O   0  0  0  0  0  0  0  0  0  0  0  0
  1  2  1  0
  2  3  2  0
  4  5  1  0
  4  2  1  0
  5  6  1  6
  7  5  1  0
  7  8  2  0
  9  7  1  0
 10  9  1  0
 10 11  1  1
 11 12  1  0
 12 17  2  0
 13 12  1  0
 13 14  2  0
 14 15  1  0
 15 16  2  0
 17 16  1  0
 18 10  1  0
 19 18  2  0
 21 20  1  0
 22 21  1  0
 24 23  1  6
 23 22  1  0
 24 25  1  0
 25 18  1  0
 26 24  1  0
 27 26  2  0
 28 26  1  0
M  END
$$$$
