NFM.pdb
     RDKit          3D

 28 28  0  0  1  0  0  0  0  0999 V2000
   14.6515  -27.0808   -4.2784 N   0  0  0  0  0  0  0  0  0  0  0  0
   15.2005  -27.7313   -3.1471 C   0  0  0  0  0  0  0  0  0  0  0  0
   15.2167  -28.9858   -3.1398 O   0  0  0  0  0  0  0  0  0  0  0  0
   15.7214  -26.8908   -2.0433 C   0  0  0  0  0  0  0  0  0  0  0  0
   15.5392  -25.4145   -2.3319 C   0  0  2  0  0  0  0  0  0  0  0  0
   16.3934  -24.9637   -3.4065 N   0  0  0  0  0  0  0  0  0  0  0  0
   15.7900  -24.6119   -1.0980 C   0  0  0  0  0  0  0  0  0  0  0  0
   16.4732  -25.0753   -0.1361 O   0  0  0  0  0  0  0  0  0  0  0  0
   15.2816  -23.3058   -0.9422 N   0  0  0  0  0  0  0  0  0  0  0  0
   15.5815  -22.4408    0.1803 C   0  0  1  0  0  0  0  0  0  0  0  0
   15.2920  -21.0016   -0.1864 C   0  0  0  0  0  0  0  0  0  0  0  0
   15.5643  -20.0777    0.9448 C   0  0  0  0  0  0  0  0  0  0  0  0
   14.5478  -19.3593    1.5569 C   0  0  0  0  0  0  0  0  0  0  0  0
   14.7996  -18.4994    2.6108 C   0  0  0  0  0  0  0  0  0  0  0  0
   16.0801  -18.3197    3.1001 C   0  0  0  0  0  0  0  0  0  0  0  0
   17.0951  -19.0300    2.4969 C   0  0  0  0  0  0  0  0  0  0  0  0
   16.8330  -19.8875    1.4433 C   0  0  0  0  0  0  0  0  0  0  0  0
   14.8856  -22.9255    1.3673 C   0  0  0  0  0  0  0  0  0  0  0  0
   13.7694  -23.5173    1.2273 O   0  0  0  0  0  0  0  0  0  0  0  0
   15.8656  -27.2269    5.0136 C   0  0  0  0  0  0  0  0  0  0  0  0
   15.6952  -26.1167    6.4386 S   0  0  0  0  0  0  0  0  0  0  0  0
   14.6845  -24.6958    5.8561 C   0  0  0  0  0  0  0  0  0  0  0  0
   15.3043  -24.2244    4.5851 C   0  0  0  0  0  0  0  0  0  0  0  0
   14.5303  -23.1349    3.8706 C   0  0  2  0  0  0  0  0  0  0  0  0
   15.3366  -22.8038    2.6929 N   0  0  0  0  0  0  0  0  0  0  0  0
   14.2309  -21.9667    4.6851 C   0  0  0  0  0  0  0  0  0  0  0  0
   14.8636  -20.8836    4.5667 O   0  0  0  0  0  0  0  0  0  0  0  0
   13.2286  -21.9836    5.6382 O   0  0  0  0  0  0  0  0  0  0  0  0
  1  2  1  0
  2  3  2  0
  4  5  1  0
  4  2  1  0
  5  6  1  6
  7  5  1  0
  7  8  2  0
  9  7  1  0
 10  9  1  0
 10 11  1  6
 11 12  1  0
 12 17  2  0
 13 12  1  0
 13 14  2  0
 14 15  1  0
 15 16  2  0
 17 16  1  0
 18 10  1  0
 19 18  2  0
 21 20  1  0
 22 21  1  0
 24 23  1  1
 23 22  1  0
 24 25  1  0
 25 18  1  0
 26 24  1  0
 27 26  2  0
 28 26  1  0
M  END
$$$$
