NFM.pdb
     RDKit          3D

 28 28  0  0  1  0  0  0  0  0999 V2000
   30.3547  -22.7000  -18.6217 N   0  0  0  0  0  0  0  0  0  0  0  0
   28.9421  -22.7834  -18.6655 C   0  0  0  0  0  0  0  0  0  0  0  0
   28.3773  -22.6252  -19.7746 O   0  0  0  0  0  0  0  0  0  0  0  0
   28.2193  -23.0521  -17.3999 C   0  0  0  0  0  0  0  0  0  0  0  0
   27.1585  -22.0045  -17.1295 C   0  0  2  0  0  0  0  0  0  0  0  0
   27.6800  -20.6625  -17.2508 N   0  0  0  0  0  0  0  0  0  0  0  0
   26.5629  -22.2096  -15.7758 C   0  0  0  0  0  0  0  0  0  0  0  0
   26.0516  -23.3198  -15.4405 O   0  0  0  0  0  0  0  0  0  0  0  0
   26.5394  -21.1837  -14.8085 N   0  0  0  0  0  0  0  0  0  0  0  0
   25.9493  -21.3151  -13.4923 C   0  0  1  0  0  0  0  0  0  0  0  0
   26.7670  -20.5412  -12.4813 C   0  0  0  0  0  0  0  0  0  0  0  0
   26.1330  -20.5465  -11.1376 C   0  0  0  0  0  0  0  0  0  0  0  0
   25.2286  -19.5661  -10.7572 C   0  0  0  0  0  0  0  0  0  0  0  0
   24.6369  -19.5702   -9.5068 C   0  0  0  0  0  0  0  0  0  0  0  0
   24.9233  -20.5558   -8.5805 C   0  0  0  0  0  0  0  0  0  0  0  0
   25.8210  -21.5330   -8.9513 C   0  0  0  0  0  0  0  0  0  0  0  0
   26.4077  -21.5201  -10.2042 C   0  0  0  0  0  0  0  0  0  0  0  0
   24.5385  -20.9487  -13.5530 C   0  0  0  0  0  0  0  0  0  0  0  0
   24.2075  -19.8716  -14.1413 O   0  0  0  0  0  0  0  0  0  0  0  0
   17.3802  -23.2245  -14.9240 C   0  0  0  0  0  0  0  0  0  0  0  0
   19.1450  -23.5786  -14.6952 S   0  0  0  0  0  0  0  0  0  0  0  0
   19.8404  -22.1314  -13.7996 C   0  0  0  0  0  0  0  0  0  0  0  0
   21.3157  -22.3357  -13.7400 C   0  0  0  0  0  0  0  0  0  0  0  0
   22.0763  -21.2426  -13.0167 C   0  0  2  0  0  0  0  0  0  0  0  0
   23.4723  -21.6877  -13.0125 N   0  0  0  0  0  0  0  0  0  0  0  0
   21.5853  -20.9414  -11.6802 C   0  0  0  0  0  0  0  0  0  0  0  0
   22.0666  -21.4817  -10.6488 O   0  0  0  0  0  0  0  0  0  0  0  0
   20.5581  -20.0392  -11.4703 O   0  0  0  0  0  0  0  0  0  0  0  0
  1  2  1  0
  2  3  2  0
  4  5  1  0
  4  2  1  0
  5  6  1  1
  7  5  1  0
  7  8  2  0
  9  7  1  0
 10  9  1  0
 10 11  1  1
 11 12  1  0
 12 17  2  0
 13 12  1  0
 13 14  2  0
 14 15  1  0
 15 16  2  0
 17 16  1  0
 18 10  1  0
 19 18  2  0
 21 20  1  0
 22 21  1  0
 24 23  1  1
 23 22  1  0
 24 25  1  0
 25 18  1  0
 26 24  1  0
 27 26  2  0
 28 26  1  0
M  END
$$$$
