NFM.pdb
     RDKit          3D

 28 28  0  0  1  0  0  0  0  0999 V2000
   21.9921  -23.7276  -20.6102 N   0  0  0  0  0  0  0  0  0  0  0  0
   22.9575  -24.3967  -19.8199 C   0  0  0  0  0  0  0  0  0  0  0  0
   23.7568  -25.1717  -20.3983 O   0  0  0  0  0  0  0  0  0  0  0  0
   22.9638  -24.1403  -18.3603 C   0  0  0  0  0  0  0  0  0  0  0  0
   21.7770  -23.2992  -17.9361 C   0  0  2  0  0  0  0  0  0  0  0  0
   21.8685  -21.9451  -18.4316 N   0  0  0  0  0  0  0  0  0  0  0  0
   21.6484  -23.2999  -16.4485 C   0  0  0  0  0  0  0  0  0  0  0  0
   22.5038  -23.8762  -15.7119 O   0  0  0  0  0  0  0  0  0  0  0  0
   20.5744  -22.6633  -15.7928 N   0  0  0  0  0  0  0  0  0  0  0  0
   20.4594  -22.5279  -14.3553 C   0  0  1  0  0  0  0  0  0  0  0  0
   20.2772  -21.0714  -13.9877 C   0  0  0  0  0  0  0  0  0  0  0  0
   21.4779  -20.2628  -14.3224 C   0  0  0  0  0  0  0  0  0  0  0  0
   22.5874  -20.2312  -13.4906 C   0  0  0  0  0  0  0  0  0  0  0  0
   23.7063  -19.4795  -13.8013 C   0  0  0  0  0  0  0  0  0  0  0  0
   23.7656  -18.7255  -14.9585 C   0  0  0  0  0  0  0  0  0  0  0  0
   22.6670  -18.7519  -15.7897 C   0  0  0  0  0  0  0  0  0  0  0  0
   21.5526  -19.5068  -15.4701 C   0  0  0  0  0  0  0  0  0  0  0  0
   19.4162  -23.4218  -13.8645 C   0  0  0  0  0  0  0  0  0  0  0  0
   18.2046  -23.1722  -14.1570 O   0  0  0  0  0  0  0  0  0  0  0  0
   20.7409  -27.6247   -9.4133 C   0  0  0  0  0  0  0  0  0  0  0  0
   19.3776  -28.6003  -10.1076 S   0  0  0  0  0  0  0  0  0  0  0  0
   18.3141  -27.4088  -11.0181 C   0  0  0  0  0  0  0  0  0  0  0  0
   19.2325  -26.4743  -11.7287 C   0  0  0  0  0  0  0  0  0  0  0  0
   18.5371  -25.3927  -12.5308 C   0  0  2  0  0  0  0  0  0  0  0  0
   19.6181  -24.5687  -13.0777 N   0  0  0  0  0  0  0  0  0  0  0  0
   17.5658  -24.6092  -11.7822 C   0  0  0  0  0  0  0  0  0  0  0  0
   17.9092  -23.7084  -10.9710 O   0  0  0  0  0  0  0  0  0  0  0  0
   16.2049  -24.8129  -11.9233 O   0  0  0  0  0  0  0  0  0  0  0  0
  1  2  1  0
  2  3  2  0
  4  5  1  0
  4  2  1  0
  5  6  1  1
  7  5  1  0
  7  8  2  0
  9  7  1  0
 10  9  1  0
 10 11  1  6
 11 12  1  0
 12 17  2  0
 13 12  1  0
 13 14  2  0
 14 15  1  0
 15 16  2  0
 17 16  1  0
 18 10  1  0
 19 18  2  0
 21 20  1  0
 22 21  1  0
 24 23  1  1
 23 22  1  0
 24 25  1  0
 25 18  1  0
 26 24  1  0
 27 26  2  0
 28 26  1  0
M  END
$$$$
