NFM.pdb
     RDKit          3D

 28 28  0  0  1  0  0  0  0  0999 V2000
   28.9480  -21.8020  -19.8175 N   0  0  0  0  0  0  0  0  0  0  0  0
   29.5335  -22.6797  -18.8734 C   0  0  0  0  0  0  0  0  0  0  0  0
   30.4447  -23.4462  -19.2686 O   0  0  0  0  0  0  0  0  0  0  0  0
   29.0342  -22.6383  -17.4787 C   0  0  0  0  0  0  0  0  0  0  0  0
   27.8376  -21.7189  -17.3411 C   0  0  2  0  0  0  0  0  0  0  0  0
   28.2100  -20.3267  -17.4450 N   0  0  0  0  0  0  0  0  0  0  0  0
   27.1363  -21.9734  -16.0477 C   0  0  0  0  0  0  0  0  0  0  0  0
   26.6431  -23.1090  -15.7761 O   0  0  0  0  0  0  0  0  0  0  0  0
   26.9884  -20.9685  -15.0696 N   0  0  0  0  0  0  0  0  0  0  0  0
   26.2499  -21.1328  -13.8344 C   0  0  1  0  0  0  0  0  0  0  0  0
   26.8149  -20.2172  -12.7704 C   0  0  0  0  0  0  0  0  0  0  0  0
   26.0929  -20.3587  -11.4796 C   0  0  0  0  0  0  0  0  0  0  0  0
   26.5212  -21.2433  -10.5009 C   0  0  0  0  0  0  0  0  0  0  0  0
   25.8505  -21.3755   -9.2983 C   0  0  0  0  0  0  0  0  0  0  0  0
   24.7209  -20.6283   -9.0205 C   0  0  0  0  0  0  0  0  0  0  0  0
   24.2895  -19.7474   -9.9882 C   0  0  0  0  0  0  0  0  0  0  0  0
   24.9670  -19.6226  -11.1879 C   0  0  0  0  0  0  0  0  0  0  0  0
   24.8240  -20.9676  -14.0948 C   0  0  0  0  0  0  0  0  0  0  0  0
   24.4207  -19.9011  -14.6565 O   0  0  0  0  0  0  0  0  0  0  0  0
   20.4136  -25.0400  -16.2238 C   0  0  0  0  0  0  0  0  0  0  0  0
   19.7266  -24.6771  -14.5840 S   0  0  0  0  0  0  0  0  0  0  0  0
   20.2510  -22.9612  -14.1833 C   0  0  0  0  0  0  0  0  0  0  0  0
   21.7356  -22.9887  -14.0529 C   0  0  0  0  0  0  0  0  0  0  0  0
   22.3818  -21.6265  -13.8995 C   0  0  2  0  0  0  0  0  0  0  0  0
   23.8170  -21.8963  -13.7804 N   0  0  0  0  0  0  0  0  0  0  0  0
   21.8722  -20.8323  -12.7917 C   0  0  0  0  0  0  0  0  0  0  0  0
   22.1796  -21.0727  -11.5937 O   0  0  0  0  0  0  0  0  0  0  0  0
   21.0182  -19.7637  -12.9969 O   0  0  0  0  0  0  0  0  0  0  0  0
  1  2  1  0
  2  3  2  0
  4  5  1  0
  4  2  1  0
  5  6  1  1
  7  5  1  0
  7  8  2  0
  9  7  1  0
 10  9  1  0
 10 11  1  1
 11 12  1  0
 12 17  2  0
 13 12  1  0
 13 14  2  0
 14 15  1  0
 15 16  2  0
 17 16  1  0
 18 10  1  0
 19 18  2  0
 21 20  1  0
 22 21  1  0
 24 23  1  1
 23 22  1  0
 24 25  1  0
 25 18  1  0
 26 24  1  0
 27 26  2  0
 28 26  1  0
M  END
$$$$
