FVF.pdb
     RDKit          3D

 30 31  0  0  1  0  0  0  0  0999 V2000
   25.5495  -17.7702  -15.5193 N   0  0  0  0  0  0  0  0  0  0  0  0
   26.5276  -18.2979  -14.5677 C   0  0  1  0  0  0  0  0  0  0  0  0
   27.5649  -17.2364  -14.2718 C   0  0  0  0  0  0  0  0  0  0  0  0
   28.4320  -17.1222  -15.4677 C   0  0  0  0  0  0  0  0  0  0  0  0
   29.2997  -18.1089  -15.8700 C   0  0  0  0  0  0  0  0  0  0  0  0
   30.0996  -17.9566  -17.0067 C   0  0  0  0  0  0  0  0  0  0  0  0
   30.0085  -16.7793  -17.7388 C   0  0  0  0  0  0  0  0  0  0  0  0
   29.1518  -15.7991  -17.3460 C   0  0  0  0  0  0  0  0  0  0  0  0
   28.3721  -15.9704  -16.2215 C   0  0  0  0  0  0  0  0  0  0  0  0
   25.7597  -18.6794  -13.3524 C   0  0  0  0  0  0  0  0  0  0  0  0
   24.5623  -18.2652  -13.2908 O   0  0  0  0  0  0  0  0  0  0  0  0
   24.7841  -21.9815  -12.4408 C   0  0  0  0  0  0  0  0  0  0  0  0
   24.3437  -20.7615  -11.6888 C   0  0  1  0  0  0  0  0  0  0  0  0
   23.4537  -21.2372  -10.5486 C   0  0  0  0  0  0  0  0  0  0  0  0
   25.4840  -19.9208  -11.1701 C   0  0  2  0  0  0  0  0  0  0  0  0
   26.3013  -19.4602  -12.3019 N   0  0  0  0  0  0  0  0  0  0  0  0
   26.3702  -20.5881  -10.2202 C   0  0  0  0  0  0  0  0  0  0  0  0
   27.0224  -21.6128  -10.6330 O   0  0  0  0  0  0  0  0  0  0  0  0
   26.6131  -20.2471   -8.8755 N   0  0  0  0  0  0  0  0  0  0  0  0
   27.2275  -21.1838   -7.9318 C   0  0  1  0  0  0  0  0  0  0  0  0
   28.5285  -20.5869   -7.4990 C   0  0  0  0  0  0  0  0  0  0  0  0
   28.4819  -19.8138   -6.2540 C   0  0  0  0  0  0  0  0  0  0  0  0
   28.9198  -20.4175   -5.0875 C   0  0  0  0  0  0  0  0  0  0  0  0
   28.8925  -19.7143   -3.9102 C   0  0  0  0  0  0  0  0  0  0  0  0
   28.4277  -18.4143   -3.9109 C   0  0  0  0  0  0  0  0  0  0  0  0
   27.9907  -17.8152   -5.0820 C   0  0  0  0  0  0  0  0  0  0  0  0
   28.0151  -18.5143   -6.2674 C   0  0  0  0  0  0  0  0  0  0  0  0
   26.3087  -21.3785   -6.7916 C   0  0  0  0  0  0  0  0  0  0  0  0
   26.6191  -22.2406   -5.7626 O   0  0  0  0  0  0  0  0  0  0  0  0
   25.2196  -20.7655   -6.7279 O   0  0  0  0  0  0  0  0  0  0  0  0
  2 10  1  0
  2  1  1  6
  3  4  1  0
  3  2  1  0
  4  9  1  0
  5  4  2  0
  5  6  1  0
  6  7  2  0
  7  8  1  0
  9  8  2  0
 10 11  2  0
 13 12  1  1
 13 14  1  0
 15 13  1  0
 15 16  1  6
 16 10  1  0
 17 18  2  0
 17 15  1  0
 19 17  1  0
 20 19  1  0
 21 22  1  0
 20 21  1  1
 22 27  1  0
 23 22  2  0
 23 24  1  0
 24 25  2  0
 25 26  1  0
 27 26  2  0
 28 29  1  0
 28 20  1  0
 30 28  2  0
M  END
$$$$
