FVF.pdb
     RDKit          3D

 30 31  0  0  1  0  0  0  0  0999 V2000
   25.5445  -17.7286  -15.6774 N   0  0  0  0  0  0  0  0  0  0  0  0
   26.5396  -18.0515  -14.6546 C   0  0  1  0  0  0  0  0  0  0  0  0
   27.0987  -16.7705  -14.0745 C   0  0  0  0  0  0  0  0  0  0  0  0
   27.9527  -16.1514  -15.1149 C   0  0  0  0  0  0  0  0  0  0  0  0
   27.7474  -14.8850  -15.6071 C   0  0  0  0  0  0  0  0  0  0  0  0
   28.5801  -14.3417  -16.5903 C   0  0  0  0  0  0  0  0  0  0  0  0
   29.6349  -15.1056  -17.0738 C   0  0  0  0  0  0  0  0  0  0  0  0
   29.8434  -16.3595  -16.5909 C   0  0  0  0  0  0  0  0  0  0  0  0
   29.0099  -16.8757  -15.6212 C   0  0  0  0  0  0  0  0  0  0  0  0
   25.8319  -18.8641  -13.6295 C   0  0  0  0  0  0  0  0  0  0  0  0
   24.6768  -18.4623  -13.2926 O   0  0  0  0  0  0  0  0  0  0  0  0
   24.8111  -23.2203  -11.7436 C   0  0  0  0  0  0  0  0  0  0  0  0
   25.4518  -22.2418  -12.6816 C   0  0  1  0  0  0  0  0  0  0  0  0
   24.5923  -22.1993  -13.9376 C   0  0  0  0  0  0  0  0  0  0  0  0
   25.6247  -20.8615  -12.0976 C   0  0  2  0  0  0  0  0  0  0  0  0
   26.3846  -20.0275  -13.0398 N   0  0  0  0  0  0  0  0  0  0  0  0
   26.3042  -20.8106  -10.8058 C   0  0  0  0  0  0  0  0  0  0  0  0
   27.5844  -20.8939  -10.8027 O   0  0  0  0  0  0  0  0  0  0  0  0
   25.7271  -20.6763   -9.5282 N   0  0  0  0  0  0  0  0  0  0  0  0
   26.4890  -20.9111   -8.2993 C   0  0  1  0  0  0  0  0  0  0  0  0
   27.3740  -19.7234   -8.0934 C   0  0  0  0  0  0  0  0  0  0  0  0
   28.0621  -19.6694   -6.7997 C   0  0  0  0  0  0  0  0  0  0  0  0
   29.0531  -20.6014   -6.5418 C   0  0  0  0  0  0  0  0  0  0  0  0
   29.7166  -20.5691   -5.3419 C   0  0  0  0  0  0  0  0  0  0  0  0
   29.3828  -19.6052   -4.4115 C   0  0  0  0  0  0  0  0  0  0  0  0
   28.3899  -18.6747   -4.6755 C   0  0  0  0  0  0  0  0  0  0  0  0
   27.7196  -18.7006   -5.8774 C   0  0  0  0  0  0  0  0  0  0  0  0
   25.5407  -21.0874   -7.1805 C   0  0  0  0  0  0  0  0  0  0  0  0
   24.2066  -20.7716   -7.3177 O   0  0  0  0  0  0  0  0  0  0  0  0
   25.9227  -21.5289   -6.0737 O   0  0  0  0  0  0  0  0  0  0  0  0
  2 10  1  0
  2  1  1  6
  3  4  1  0
  3  2  1  0
  4  9  1  0
  5  4  2  0
  5  6  1  0
  6  7  2  0
  7  8  1  0
  9  8  2  0
 10 11  2  0
 13 12  1  1
 13 14  1  0
 15 13  1  0
 15 16  1  6
 16 10  1  0
 17 18  2  0
 17 15  1  0
 19 17  1  0
 20 19  1  0
 21 22  1  0
 20 21  1  1
 22 27  1  0
 23 22  2  0
 23 24  1  0
 24 25  2  0
 25 26  1  0
 27 26  2  0
 28 29  1  0
 28 20  1  0
 30 28  2  0
M  END
$$$$
