FVF.pdb
     RDKit          3D

 30 31  0  0  1  0  0  0  0  0999 V2000
   15.9676  -15.8937    5.8350 N   0  0  0  0  0  0  0  0  0  0  0  0
   17.1380  -16.7600    5.6925 C   0  0  1  0  0  0  0  0  0  0  0  0
   18.3677  -15.9096    5.4581 C   0  0  0  0  0  0  0  0  0  0  0  0
   18.3259  -15.4535    4.0492 C   0  0  0  0  0  0  0  0  0  0  0  0
   18.2936  -16.3121    2.9767 C   0  0  0  0  0  0  0  0  0  0  0  0
   18.2549  -15.8354    1.6628 C   0  0  0  0  0  0  0  0  0  0  0  0
   18.2493  -14.4630    1.4465 C   0  0  0  0  0  0  0  0  0  0  0  0
   18.2811  -13.6081    2.5034 C   0  0  0  0  0  0  0  0  0  0  0  0
   18.3190  -14.1000    3.7912 C   0  0  0  0  0  0  0  0  0  0  0  0
   17.2331  -17.5394    6.9557 C   0  0  0  0  0  0  0  0  0  0  0  0
   16.8802  -16.9381    8.0155 O   0  0  0  0  0  0  0  0  0  0  0  0
   17.3179  -21.7119    7.2906 C   0  0  0  0  0  0  0  0  0  0  0  0
   17.2706  -20.7813    8.4651 C   0  0  1  0  0  0  0  0  0  0  0  0
   17.7591  -21.5653    9.6755 C   0  0  0  0  0  0  0  0  0  0  0  0
   18.0770  -19.5203    8.2762 C   0  0  2  0  0  0  0  0  0  0  0  0
   17.6875  -18.8800    7.0116 N   0  0  0  0  0  0  0  0  0  0  0  0
   19.5260  -19.7023    8.2583 C   0  0  0  0  0  0  0  0  0  0  0  0
   20.0619  -20.1056    7.1646 O   0  0  0  0  0  0  0  0  0  0  0  0
   20.4392  -19.4866    9.3084 N   0  0  0  0  0  0  0  0  0  0  0  0
   21.8825  -19.6684    9.1370 C   0  0  1  0  0  0  0  0  0  0  0  0
   22.3820  -18.5116    8.3318 C   0  0  0  0  0  0  0  0  0  0  0  0
   22.3730  -17.2167    9.0196 C   0  0  0  0  0  0  0  0  0  0  0  0
   23.5288  -16.8036    9.6603 C   0  0  0  0  0  0  0  0  0  0  0  0
   23.5490  -15.5937   10.3060 C   0  0  0  0  0  0  0  0  0  0  0  0
   22.4132  -14.8087   10.3047 C   0  0  0  0  0  0  0  0  0  0  0  0
   21.2591  -15.2276    9.6614 C   0  0  0  0  0  0  0  0  0  0  0  0
   21.2310  -16.4404    9.0111 C   0  0  0  0  0  0  0  0  0  0  0  0
   22.5151  -19.7204   10.4709 C   0  0  0  0  0  0  0  0  0  0  0  0
   21.7775  -19.5336   11.6196 O   0  0  0  0  0  0  0  0  0  0  0  0
   23.7414  -19.9354   10.5961 O   0  0  0  0  0  0  0  0  0  0  0  0
  2 10  1  0
  2  1  1  1
  3  4  1  0
  3  2  1  0
  4  9  1  0
  5  4  2  0
  5  6  1  0
  6  7  2  0
  7  8  1  0
  9  8  2  0
 10 11  2  0
 13 12  1  6
 13 14  1  0
 15 13  1  0
 15 16  1  6
 16 10  1  0
 17 18  2  0
 17 15  1  0
 19 17  1  0
 20 19  1  0
 21 22  1  0
 20 21  1  6
 22 27  1  0
 23 22  2  0
 23 24  1  0
 24 25  2  0
 25 26  1  0
 27 26  2  0
 28 29  1  0
 28 20  1  0
 30 28  2  0
M  END
$$$$
