FVF.pdb
     RDKit          3D

 30 31  0  0  1  0  0  0  0  0999 V2000
   28.7639  -20.9569  -14.6797 N   0  0  0  0  0  0  0  0  0  0  0  0
   27.6805  -21.2962  -13.7568 C   0  0  1  0  0  0  0  0  0  0  0  0
   27.6849  -20.3242  -12.5969 C   0  0  0  0  0  0  0  0  0  0  0  0
   28.8612  -20.6471  -11.7559 C   0  0  0  0  0  0  0  0  0  0  0  0
   30.0880  -20.0472  -11.9090 C   0  0  0  0  0  0  0  0  0  0  0  0
   31.1709  -20.3844  -11.0912 C   0  0  0  0  0  0  0  0  0  0  0  0
   30.9935  -21.3474  -10.1056 C   0  0  0  0  0  0  0  0  0  0  0  0
   29.7820  -21.9447   -9.9491 C   0  0  0  0  0  0  0  0  0  0  0  0
   28.7275  -21.5969  -10.7668 C   0  0  0  0  0  0  0  0  0  0  0  0
   26.4226  -21.2145  -14.5463 C   0  0  0  0  0  0  0  0  0  0  0  0
   26.3117  -20.2203  -15.3263 O   0  0  0  0  0  0  0  0  0  0  0  0
   22.5507  -23.0824  -16.8068 C   0  0  0  0  0  0  0  0  0  0  0  0
   23.8685  -23.1384  -16.0941 C   0  0  1  0  0  0  0  0  0  0  0  0
   24.9524  -23.1795  -17.1627 C   0  0  0  0  0  0  0  0  0  0  0  0
   24.0939  -21.9925  -15.1390 C   0  0  2  0  0  0  0  0  0  0  0  0
   25.3843  -22.1742  -14.4588 N   0  0  0  0  0  0  0  0  0  0  0  0
   23.0674  -21.8226  -14.1141 C   0  0  0  0  0  0  0  0  0  0  0  0
   22.8355  -22.8140  -13.3336 O   0  0  0  0  0  0  0  0  0  0  0  0
   22.2779  -20.6846  -13.8591 N   0  0  0  0  0  0  0  0  0  0  0  0
   21.2628  -20.6599  -12.8033 C   0  0  1  0  0  0  0  0  0  0  0  0
   21.7245  -19.6847  -11.7680 C   0  0  0  0  0  0  0  0  0  0  0  0
   22.6531  -20.2220  -10.7685 C   0  0  0  0  0  0  0  0  0  0  0  0
   24.0092  -20.1914  -11.0463 C   0  0  0  0  0  0  0  0  0  0  0  0
   24.8997  -20.6820  -10.1258 C   0  0  0  0  0  0  0  0  0  0  0  0
   24.4255  -21.1984   -8.9364 C   0  0  0  0  0  0  0  0  0  0  0  0
   23.0668  -21.2261   -8.6638 C   0  0  0  0  0  0  0  0  0  0  0  0
   22.1669  -20.7356   -9.5826 C   0  0  0  0  0  0  0  0  0  0  0  0
   19.9715  -20.2572  -13.3971 C   0  0  0  0  0  0  0  0  0  0  0  0
   18.7750  -20.6024  -12.8074 O   0  0  0  0  0  0  0  0  0  0  0  0
   19.9271  -19.5903  -14.4550 O   0  0  0  0  0  0  0  0  0  0  0  0
  2 10  1  0
  2  1  1  6
  3  4  1  0
  3  2  1  0
  4  9  1  0
  5  4  2  0
  5  6  1  0
  6  7  2  0
  7  8  1  0
  9  8  2  0
 10 11  2  0
 13 12  1  6
 13 14  1  0
 15 13  1  0
 15 16  1  1
 16 10  1  0
 17 18  2  0
 17 15  1  0
 19 17  1  0
 20 19  1  0
 21 22  1  0
 20 21  1  1
 22 27  1  0
 23 22  2  0
 23 24  1  0
 24 25  2  0
 25 26  1  0
 27 26  2  0
 28 29  1  0
 28 20  1  0
 30 28  2  0
M  END
$$$$
