FVF.pdb
     RDKit          3D

 30 31  0  0  1  0  0  0  0  0999 V2000
   26.4429  -24.9458  -16.6654 N   0  0  0  0  0  0  0  0  0  0  0  0
   25.5145  -23.9988  -16.0476 C   0  0  1  0  0  0  0  0  0  0  0  0
   24.5601  -24.7475  -15.1427 C   0  0  0  0  0  0  0  0  0  0  0  0
   23.5901  -25.4529  -16.0125 C   0  0  0  0  0  0  0  0  0  0  0  0
   23.6973  -26.7826  -16.3422 C   0  0  0  0  0  0  0  0  0  0  0  0
   22.7569  -27.4067  -17.1676 C   0  0  0  0  0  0  0  0  0  0  0  0
   21.6949  -26.6586  -17.6602 C   0  0  0  0  0  0  0  0  0  0  0  0
   21.5830  -25.3424  -17.3377 C   0  0  0  0  0  0  0  0  0  0  0  0
   22.5220  -24.7470  -16.5219 C   0  0  0  0  0  0  0  0  0  0  0  0
   26.3524  -23.0295  -15.2923 C   0  0  0  0  0  0  0  0  0  0  0  0
   27.4252  -23.4846  -14.7911 O   0  0  0  0  0  0  0  0  0  0  0  0
   27.2482  -18.3807  -13.7162 C   0  0  0  0  0  0  0  0  0  0  0  0
   26.7635  -19.3967  -14.7065 C   0  0  1  0  0  0  0  0  0  0  0  0
   27.6936  -19.3260  -15.9099 C   0  0  0  0  0  0  0  0  0  0  0  0
   26.6966  -20.7999  -14.1564 C   0  0  2  0  0  0  0  0  0  0  0  0
   26.0048  -21.6669  -15.1211 N   0  0  0  0  0  0  0  0  0  0  0  0
   26.0208  -20.9343  -12.8687 C   0  0  0  0  0  0  0  0  0  0  0  0
   24.7388  -20.9815  -12.8711 O   0  0  0  0  0  0  0  0  0  0  0  0
   26.6036  -21.0238  -11.5898 N   0  0  0  0  0  0  0  0  0  0  0  0
   25.7992  -21.1673  -10.3740 C   0  0  1  0  0  0  0  0  0  0  0  0
   26.7309  -21.5518   -9.2694 C   0  0  0  0  0  0  0  0  0  0  0  0
   26.9726  -20.5145   -8.2616 C   0  0  0  0  0  0  0  0  0  0  0  0
   27.7961  -19.4524   -8.5947 C   0  0  0  0  0  0  0  0  0  0  0  0
   28.0337  -18.4654   -7.6724 C   0  0  0  0  0  0  0  0  0  0  0  0
   27.4456  -18.5501   -6.4262 C   0  0  0  0  0  0  0  0  0  0  0  0
   26.6221  -19.6158   -6.0986 C   0  0  0  0  0  0  0  0  0  0  0  0
   26.3787  -20.6101   -7.0188 C   0  0  0  0  0  0  0  0  0  0  0  0
   25.1242  -19.8827  -10.0983 C   0  0  0  0  0  0  0  0  0  0  0  0
   23.9558  -19.8310   -9.3698 O   0  0  0  0  0  0  0  0  0  0  0  0
   25.5946  -18.8024  -10.5198 O   0  0  0  0  0  0  0  0  0  0  0  0
  2 10  1  0
  2  1  1  1
  3  4  1  0
  3  2  1  0
  4  9  1  0
  5  4  2  0
  5  6  1  0
  6  7  2  0
  7  8  1  0
  9  8  2  0
 10 11  2  0
 13 12  1  1
 13 14  1  0
 15 13  1  0
 15 16  1  6
 16 10  1  0
 17 18  2  0
 17 15  1  0
 19 17  1  0
 20 19  1  0
 21 22  1  0
 20 21  1  1
 22 27  1  0
 23 22  2  0
 23 24  1  0
 24 25  2  0
 25 26  1  0
 27 26  2  0
 28 29  1  0
 28 20  1  0
 30 28  2  0
M  END
$$$$
