FVF.pdb
     RDKit          3D

 30 31  0  0  1  0  0  0  0  0999 V2000
   24.1696  -19.3259  -17.8522 N   0  0  0  0  0  0  0  0  0  0  0  0
   24.4499  -18.5388  -16.6511 C   0  0  1  0  0  0  0  0  0  0  0  0
   23.1510  -18.0125  -16.0801 C   0  0  0  0  0  0  0  0  0  0  0  0
   22.7006  -16.9061  -16.9565 C   0  0  0  0  0  0  0  0  0  0  0  0
   23.3357  -15.6894  -17.0255 C   0  0  0  0  0  0  0  0  0  0  0  0
   22.8740  -14.6735  -17.8680 C   0  0  0  0  0  0  0  0  0  0  0  0
   21.7486  -14.9080  -18.6482 C   0  0  0  0  0  0  0  0  0  0  0  0
   21.1157  -16.1098  -18.5845 C   0  0  0  0  0  0  0  0  0  0  0  0
   21.5882  -17.0978  -17.7465 C   0  0  0  0  0  0  0  0  0  0  0  0
   25.1417  -19.4559  -15.7065 C   0  0  0  0  0  0  0  0  0  0  0  0
   24.6904  -20.6396  -15.6397 O   0  0  0  0  0  0  0  0  0  0  0  0
   29.1431  -20.6135  -13.0196 C   0  0  0  0  0  0  0  0  0  0  0  0
   28.3866  -19.7859  -14.0149 C   0  0  1  0  0  0  0  0  0  0  0  0
   28.9384  -20.1290  -15.3918 C   0  0  0  0  0  0  0  0  0  0  0  0
   26.8924  -19.9884  -13.9654 C   0  0  2  0  0  0  0  0  0  0  0  0
   26.2460  -19.0656  -14.9096 N   0  0  0  0  0  0  0  0  0  0  0  0
   26.2785  -19.7909  -12.6549 C   0  0  0  0  0  0  0  0  0  0  0  0
   26.1020  -18.5845  -12.2558 O   0  0  0  0  0  0  0  0  0  0  0  0
   25.8402  -20.7739  -11.7467 N   0  0  0  0  0  0  0  0  0  0  0  0
   25.2635  -20.4315  -10.4445 C   0  0  1  0  0  0  0  0  0  0  0  0
   23.9352  -21.1124  -10.3556 C   0  0  0  0  0  0  0  0  0  0  0  0
   22.8756  -20.5342  -11.1880 C   0  0  0  0  0  0  0  0  0  0  0  0
   22.7455  -20.9808  -12.4922 C   0  0  0  0  0  0  0  0  0  0  0  0
   21.7588  -20.4607  -13.2902 C   0  0  0  0  0  0  0  0  0  0  0  0
   20.9116  -19.4991  -12.7765 C   0  0  0  0  0  0  0  0  0  0  0  0
   21.0467  -19.0561  -11.4701 C   0  0  0  0  0  0  0  0  0  0  0  0
   22.0345  -19.5732  -10.6629 C   0  0  0  0  0  0  0  0  0  0  0  0
   26.1846  -20.8880   -9.3837 C   0  0  0  0  0  0  0  0  0  0  0  0
   26.0087  -20.5065   -8.0714 O   0  0  0  0  0  0  0  0  0  0  0  0
   27.1531  -21.6352   -9.6470 O   0  0  0  0  0  0  0  0  0  0  0  0
  2 10  1  0
  2  1  1  6
  3  4  1  0
  3  2  1  0
  4  9  1  0
  5  4  2  0
  5  6  1  0
  6  7  2  0
  7  8  1  0
  9  8  2  0
 10 11  2  0
 13 12  1  1
 13 14  1  0
 15 13  1  0
 15 16  1  6
 16 10  1  0
 17 18  2  0
 17 15  1  0
 19 17  1  0
 20 19  1  0
 21 22  1  0
 20 21  1  1
 22 27  1  0
 23 22  2  0
 23 24  1  0
 24 25  2  0
 25 26  1  0
 27 26  2  0
 28 29  1  0
 28 20  1  0
 30 28  2  0
M  END
$$$$
