FVF.pdb
     RDKit          3D

 30 31  0  0  1  0  0  0  0  0999 V2000
   30.5721  -22.2009  -10.6701 N   0  0  0  0  0  0  0  0  0  0  0  0
   29.7212  -21.5842   -9.6521 C   0  0  1  0  0  0  0  0  0  0  0  0
   30.5558  -20.6617   -8.7903 C   0  0  0  0  0  0  0  0  0  0  0  0
   29.7407  -20.3091   -7.6045 C   0  0  0  0  0  0  0  0  0  0  0  0
   28.8958  -19.2262   -7.5621 C   0  0  0  0  0  0  0  0  0  0  0  0
   28.1454  -18.9320   -6.4196 C   0  0  0  0  0  0  0  0  0  0  0  0
   28.2628  -19.7575   -5.3084 C   0  0  0  0  0  0  0  0  0  0  0  0
   29.0971  -20.8307   -5.3438 C   0  0  0  0  0  0  0  0  0  0  0  0
   29.8280  -21.1024   -6.4812 C   0  0  0  0  0  0  0  0  0  0  0  0
   28.6600  -20.8478  -10.3894 C   0  0  0  0  0  0  0  0  0  0  0  0
   29.0369  -19.8374  -11.0573 O   0  0  0  0  0  0  0  0  0  0  0  0
   25.5488  -20.3530  -13.6144 C   0  0  0  0  0  0  0  0  0  0  0  0
   26.6183  -20.8066  -12.6666 C   0  0  1  0  0  0  0  0  0  0  0  0
   27.9012  -20.0902  -13.0654 C   0  0  0  0  0  0  0  0  0  0  0  0
   26.2902  -20.5602  -11.2147 C   0  0  2  0  0  0  0  0  0  0  0  0
   27.2943  -21.2238  -10.3708 N   0  0  0  0  0  0  0  0  0  0  0  0
   24.9714  -21.0184  -10.7860 C   0  0  0  0  0  0  0  0  0  0  0  0
   24.8044  -22.2794  -10.6193 O   0  0  0  0  0  0  0  0  0  0  0  0
   23.8277  -20.2403  -10.5215 N   0  0  0  0  0  0  0  0  0  0  0  0
   22.5665  -20.8346  -10.0725 C   0  0  1  0  0  0  0  0  0  0  0  0
   22.2492  -20.2430   -8.7363 C   0  0  0  0  0  0  0  0  0  0  0  0
   23.0191  -20.7829   -7.6113 C   0  0  0  0  0  0  0  0  0  0  0  0
   24.2392  -20.2019   -7.3095 C   0  0  0  0  0  0  0  0  0  0  0  0
   24.9765  -20.6838   -6.2583 C   0  0  0  0  0  0  0  0  0  0  0  0
   24.4868  -21.7420   -5.5190 C   0  0  0  0  0  0  0  0  0  0  0  0
   23.2647  -22.3195   -5.8259 C   0  0  0  0  0  0  0  0  0  0  0  0
   22.5188  -21.8415   -6.8793 C   0  0  0  0  0  0  0  0  0  0  0  0
   21.5186  -20.5306  -11.0683 C   0  0  0  0  0  0  0  0  0  0  0  0
   20.3911  -21.3145  -11.1816 O   0  0  0  0  0  0  0  0  0  0  0  0
   21.6252  -19.5509  -11.8395 O   0  0  0  0  0  0  0  0  0  0  0  0
  2 10  1  0
  2  1  1  6
  3  4  1  0
  3  2  1  0
  4  9  1  0
  5  4  2  0
  5  6  1  0
  6  7  2  0
  7  8  1  0
  9  8  2  0
 10 11  2  0
 13 12  1  6
 13 14  1  0
 15 13  1  0
 15 16  1  1
 16 10  1  0
 17 18  2  0
 17 15  1  0
 19 17  1  0
 20 19  1  0
 21 22  1  0
 20 21  1  1
 22 27  1  0
 23 22  2  0
 23 24  1  0
 24 25  2  0
 25 26  1  0
 27 26  2  0
 28 29  1  0
 28 20  1  0
 30 28  2  0
M  END
$$$$
