FVF.pdb
     RDKit          3D

 30 31  0  0  1  0  0  0  0  0999 V2000
   25.1771  -18.9682  -18.8064 N   0  0  0  0  0  0  0  0  0  0  0  0
   24.9736  -18.3302  -17.5056 C   0  0  1  0  0  0  0  0  0  0  0  0
   23.6312  -17.6316  -17.4924 C   0  0  0  0  0  0  0  0  0  0  0  0
   23.7408  -16.4498  -18.3792 C   0  0  0  0  0  0  0  0  0  0  0  0
   24.4553  -15.3225  -18.0523 C   0  0  0  0  0  0  0  0  0  0  0  0
   24.5305  -14.2300  -18.9218 C   0  0  0  0  0  0  0  0  0  0  0  0
   23.8655  -14.2946  -20.1399 C   0  0  0  0  0  0  0  0  0  0  0  0
   23.1568  -15.4073  -20.4694 C   0  0  0  0  0  0  0  0  0  0  0  0
   23.0960  -16.4733  -19.5967 C   0  0  0  0  0  0  0  0  0  0  0  0
   25.0442  -19.4187  -16.4944 C   0  0  0  0  0  0  0  0  0  0  0  0
   24.5445  -20.5343  -16.8333 O   0  0  0  0  0  0  0  0  0  0  0  0
   26.7335  -21.2534  -12.1885 C   0  0  0  0  0  0  0  0  0  0  0  0
   26.7717  -20.2893  -13.3360 C   0  0  1  0  0  0  0  0  0  0  0  0
   27.9829  -20.6527  -14.1840 C   0  0  0  0  0  0  0  0  0  0  0  0
   25.5126  -20.2811  -14.1671 C   0  0  2  0  0  0  0  0  0  0  0  0
   25.6289  -19.2562  -15.2144 N   0  0  0  0  0  0  0  0  0  0  0  0
   24.2783  -20.0283  -13.4284 C   0  0  0  0  0  0  0  0  0  0  0  0
   24.1124  -18.8584  -12.9287 O   0  0  0  0  0  0  0  0  0  0  0  0
   23.2157  -20.9202  -13.1861 N   0  0  0  0  0  0  0  0  0  0  0  0
   22.0331  -20.5332  -12.4131 C   0  0  1  0  0  0  0  0  0  0  0  0
   21.3991  -19.3791  -13.1217 C   0  0  0  0  0  0  0  0  0  0  0  0
   20.6263  -19.7246  -14.3190 C   0  0  0  0  0  0  0  0  0  0  0  0
   21.1961  -19.4936  -15.5595 C   0  0  0  0  0  0  0  0  0  0  0  0
   20.4970  -19.8134  -16.6953 C   0  0  0  0  0  0  0  0  0  0  0  0
   19.2350  -20.3613  -16.5797 C   0  0  0  0  0  0  0  0  0  0  0  0
   18.6699  -20.5904  -15.3349 C   0  0  0  0  0  0  0  0  0  0  0  0
   19.3652  -20.2721  -14.1904 C   0  0  0  0  0  0  0  0  0  0  0  0
   21.1212  -21.6924  -12.3303 C   0  0  0  0  0  0  0  0  0  0  0  0
   21.4095  -22.8760  -12.9741 O   0  0  0  0  0  0  0  0  0  0  0  0
   20.0584  -21.6324  -11.6725 O   0  0  0  0  0  0  0  0  0  0  0  0
  2 10  1  0
  2  1  1  6
  3  4  1  0
  3  2  1  0
  4  9  1  0
  5  4  2  0
  5  6  1  0
  6  7  2  0
  7  8  1  0
  9  8  2  0
 10 11  2  0
 13 12  1  1
 13 14  1  0
 15 13  1  0
 15 16  1  6
 16 10  1  0
 17 18  2  0
 17 15  1  0
 19 17  1  0
 20 19  1  0
 21 22  1  0
 20 21  1  6
 22 27  1  0
 23 22  2  0
 23 24  1  0
 24 25  2  0
 25 26  1  0
 27 26  2  0
 28 29  1  0
 28 20  1  0
 30 28  2  0
M  END
$$$$
