FVF.pdb
     RDKit          3D

 30 31  0  0  1  0  0  0  0  0999 V2000
   28.1122  -20.9718  -16.4476 N   0  0  0  0  0  0  0  0  0  0  0  0
   27.4226  -19.9172  -15.7041 C   0  0  1  0  0  0  0  0  0  0  0  0
   26.6058  -19.0778  -16.6623 C   0  0  0  0  0  0  0  0  0  0  0  0
   27.5524  -18.2234  -17.4167 C   0  0  0  0  0  0  0  0  0  0  0  0
   28.1517  -17.1067  -16.8855 C   0  0  0  0  0  0  0  0  0  0  0  0
   29.0394  -16.3297  -17.6360 C   0  0  0  0  0  0  0  0  0  0  0  0
   29.3155  -16.7021  -18.9457 C   0  0  0  0  0  0  0  0  0  0  0  0
   28.7258  -17.8061  -19.4772 C   0  0  0  0  0  0  0  0  0  0  0  0
   27.8532  -18.5581  -18.7190 C   0  0  0  0  0  0  0  0  0  0  0  0
   26.5678  -20.6077  -14.7017 C   0  0  0  0  0  0  0  0  0  0  0  0
   26.1905  -21.7821  -14.9980 O   0  0  0  0  0  0  0  0  0  0  0  0
   25.2680  -21.2552  -10.0094 C   0  0  0  0  0  0  0  0  0  0  0  0
   26.0534  -20.6404  -11.1287 C   0  0  1  0  0  0  0  0  0  0  0  0
   27.4172  -21.3173  -11.1413 C   0  0  0  0  0  0  0  0  0  0  0  0
   25.3828  -20.7503  -12.4757 C   0  0  2  0  0  0  0  0  0  0  0  0
   26.1763  -20.0192  -13.4741 N   0  0  0  0  0  0  0  0  0  0  0  0
   24.0137  -20.2452  -12.5348 C   0  0  0  0  0  0  0  0  0  0  0  0
   23.8289  -18.9972  -12.3020 O   0  0  0  0  0  0  0  0  0  0  0  0
   22.8371  -20.9634  -12.8231 N   0  0  0  0  0  0  0  0  0  0  0  0
   21.5263  -20.3144  -12.9017 C   0  0  1  0  0  0  0  0  0  0  0  0
   21.5948  -19.3107  -14.0081 C   0  0  0  0  0  0  0  0  0  0  0  0
   21.7595  -19.8692  -15.3538 C   0  0  0  0  0  0  0  0  0  0  0  0
   23.0438  -20.0830  -15.8251 C   0  0  0  0  0  0  0  0  0  0  0  0
   23.2257  -20.6101  -17.0781 C   0  0  0  0  0  0  0  0  0  0  0  0
   22.1217  -20.9183  -17.8477 C   0  0  0  0  0  0  0  0  0  0  0  0
   20.8384  -20.7021  -17.3705 C   0  0  0  0  0  0  0  0  0  0  0  0
   20.6477  -20.1735  -16.1140 C   0  0  0  0  0  0  0  0  0  0  0  0
   20.5017  -21.3463  -13.1617 C   0  0  0  0  0  0  0  0  0  0  0  0
   19.1575  -21.0485  -13.1074 O   0  0  0  0  0  0  0  0  0  0  0  0
   20.8257  -22.5228  -13.4385 O   0  0  0  0  0  0  0  0  0  0  0  0
  2 10  1  0
  2  1  1  6
  3  4  1  0
  3  2  1  0
  4  9  1  0
  5  4  2  0
  5  6  1  0
  6  7  2  0
  7  8  1  0
  9  8  2  0
 10 11  2  0
 13 12  1  1
 13 14  1  0
 15 13  1  0
 15 16  1  6
 16 10  1  0
 17 18  2  0
 17 15  1  0
 19 17  1  0
 20 19  1  0
 21 22  1  0
 20 21  1  6
 22 27  1  0
 23 22  2  0
 23 24  1  0
 24 25  2  0
 25 26  1  0
 27 26  2  0
 28 29  1  0
 28 20  1  0
 30 28  2  0
M  END
$$$$
