FVF.pdb
     RDKit          3D

 30 31  0  0  1  0  0  0  0  0999 V2000
   24.9801  -23.7989  -16.0747 N   0  0  0  0  0  0  0  0  0  0  0  0
   24.3795  -23.0772  -14.9526 C   0  0  1  0  0  0  0  0  0  0  0  0
   23.5286  -24.0288  -14.1399 C   0  0  0  0  0  0  0  0  0  0  0  0
   22.2735  -24.2521  -14.8949 C   0  0  0  0  0  0  0  0  0  0  0  0
   22.0422  -25.3664  -15.6651 C   0  0  0  0  0  0  0  0  0  0  0  0
   20.8410  -25.5344  -16.3610 C   0  0  0  0  0  0  0  0  0  0  0  0
   19.8666  -24.5486  -16.2659 C   0  0  0  0  0  0  0  0  0  0  0  0
   20.0894  -23.4437  -15.5054 C   0  0  0  0  0  0  0  0  0  0  0  0
   21.2814  -23.2984  -14.8274 C   0  0  0  0  0  0  0  0  0  0  0  0
   25.5114  -22.5274  -14.1597 C   0  0  0  0  0  0  0  0  0  0  0  0
   26.5175  -23.2863  -14.0150 O   0  0  0  0  0  0  0  0  0  0  0  0
   28.0622  -18.7066  -12.3860 C   0  0  0  0  0  0  0  0  0  0  0  0
   26.9541  -19.3269  -13.1829 C   0  0  1  0  0  0  0  0  0  0  0  0
   27.3748  -19.2784  -14.6454 C   0  0  0  0  0  0  0  0  0  0  0  0
   26.6174  -20.7366  -12.7636 C   0  0  2  0  0  0  0  0  0  0  0  0
   25.5028  -21.2336  -13.5830 N   0  0  0  0  0  0  0  0  0  0  0  0
   26.2485  -20.8993  -11.3598 C   0  0  0  0  0  0  0  0  0  0  0  0
   24.9995  -20.8867  -11.0671 O   0  0  0  0  0  0  0  0  0  0  0  0
   27.1031  -21.0752  -10.2544 N   0  0  0  0  0  0  0  0  0  0  0  0
   26.5915  -21.2666   -8.8953 C   0  0  1  0  0  0  0  0  0  0  0  0
   27.7645  -21.5722   -8.0195 C   0  0  0  0  0  0  0  0  0  0  0  0
   27.8922  -20.7323   -6.8245 C   0  0  0  0  0  0  0  0  0  0  0  0
   28.5467  -19.5176   -6.9406 C   0  0  0  0  0  0  0  0  0  0  0  0
   28.6746  -18.7100   -5.8394 C   0  0  0  0  0  0  0  0  0  0  0  0
   28.1467  -19.1248   -4.6330 C   0  0  0  0  0  0  0  0  0  0  0  0
   27.4925  -20.3418   -4.5230 C   0  0  0  0  0  0  0  0  0  0  0  0
   27.3600  -21.1578   -5.6235 C   0  0  0  0  0  0  0  0  0  0  0  0
   25.8992  -20.0324   -8.4716 C   0  0  0  0  0  0  0  0  0  0  0  0
   26.3838  -18.7882   -8.8119 O   0  0  0  0  0  0  0  0  0  0  0  0
   24.8512  -20.0814   -7.7896 O   0  0  0  0  0  0  0  0  0  0  0  0
  2 10  1  0
  2  1  1  6
  3  4  1  0
  3  2  1  0
  4  9  1  0
  5  4  2  0
  5  6  1  0
  6  7  2  0
  7  8  1  0
  9  8  2  0
 10 11  2  0
 13 12  1  1
 13 14  1  0
 15 13  1  0
 15 16  1  6
 16 10  1  0
 17 18  2  0
 17 15  1  0
 19 17  1  0
 20 19  1  0
 21 22  1  0
 20 21  1  1
 22 27  1  0
 23 22  2  0
 23 24  1  0
 24 25  2  0
 25 26  1  0
 27 26  2  0
 28 29  1  0
 28 20  1  0
 30 28  2  0
M  END
$$$$
