FVF.pdb
     RDKit          3D

 30 31  0  0  1  0  0  0  0  0999 V2000
   20.2483  -11.2075  -16.9870 N   0  0  0  0  0  0  0  0  0  0  0  0
   19.4120  -10.0171  -17.1428 C   0  0  1  0  0  0  0  0  0  0  0  0
   18.2743  -10.0677  -16.1463 C   0  0  0  0  0  0  0  0  0  0  0  0
   17.2885  -11.0511  -16.6526 C   0  0  0  0  0  0  0  0  0  0  0  0
   17.1235  -12.3036  -16.1119 C   0  0  0  0  0  0  0  0  0  0  0  0
   16.1795  -13.1994  -16.6235 C   0  0  0  0  0  0  0  0  0  0  0  0
   15.3963  -12.8061  -17.7015 C   0  0  0  0  0  0  0  0  0  0  0  0
   15.5547  -11.5680  -18.2410 C   0  0  0  0  0  0  0  0  0  0  0  0
   16.4918  -10.7005  -17.7206 C   0  0  0  0  0  0  0  0  0  0  0  0
   20.3043   -8.8503  -16.9096 C   0  0  0  0  0  0  0  0  0  0  0  0
   21.3069   -9.0502  -16.1585 O   0  0  0  0  0  0  0  0  0  0  0  0
   22.1371   -4.5812  -18.5377 C   0  0  0  0  0  0  0  0  0  0  0  0
   21.3938   -5.8804  -18.6232 C   0  0  1  0  0  0  0  0  0  0  0  0
   22.2743   -6.8479  -19.4021 C   0  0  0  0  0  0  0  0  0  0  0  0
   21.0149   -6.4551  -17.2807 C   0  0  2  0  0  0  0  0  0  0  0  0
   20.0796   -7.5720  -17.4772 N   0  0  0  0  0  0  0  0  0  0  0  0
   20.3986   -5.5135  -16.3498 C   0  0  0  0  0  0  0  0  0  0  0  0
   19.2490   -5.0359  -16.6598 O   0  0  0  0  0  0  0  0  0  0  0  0
   20.9099   -5.0484  -15.1227 N   0  0  0  0  0  0  0  0  0  0  0  0
   20.1728   -4.1063  -14.2772 C   0  0  1  0  0  0  0  0  0  0  0  0
   19.1560   -4.8961  -13.5166 C   0  0  0  0  0  0  0  0  0  0  0  0
   19.6995   -5.8429  -12.5378 C   0  0  0  0  0  0  0  0  0  0  0  0
   20.3555   -6.9691  -13.0053 C   0  0  0  0  0  0  0  0  0  0  0  0
   20.8786   -7.8676  -12.1109 C   0  0  0  0  0  0  0  0  0  0  0  0
   20.7406   -7.6314  -10.7576 C   0  0  0  0  0  0  0  0  0  0  0  0
   20.0829   -6.5021  -10.2956 C   0  0  0  0  0  0  0  0  0  0  0  0
   19.5553   -5.5957  -11.1870 C   0  0  0  0  0  0  0  0  0  0  0  0
   21.1285   -3.4319  -13.3750 C   0  0  0  0  0  0  0  0  0  0  0  0
   20.7381   -2.3760  -12.5804 O   0  0  0  0  0  0  0  0  0  0  0  0
   22.3224   -3.8002  -13.3068 O   0  0  0  0  0  0  0  0  0  0  0  0
  2 10  1  0
  2  1  1  1
  3  4  1  0
  3  2  1  0
  4  9  1  0
  5  4  2  0
  5  6  1  0
  6  7  2  0
  7  8  1  0
  9  8  2  0
 10 11  2  0
 13 12  1  1
 13 14  1  0
 15 13  1  0
 15 16  1  6
 16 10  1  0
 17 18  2  0
 17 15  1  0
 19 17  1  0
 20 19  1  0
 21 22  1  0
 20 21  1  1
 22 27  1  0
 23 22  2  0
 23 24  1  0
 24 25  2  0
 25 26  1  0
 27 26  2  0
 28 29  1  0
 28 20  1  0
 30 28  2  0
M  END
$$$$
