FVF.pdb
     RDKit          3D

 30 31  0  0  1  0  0  0  0  0999 V2000
   28.4044  -21.1653   -9.1065 N   0  0  0  0  0  0  0  0  0  0  0  0
   27.0905  -20.5616   -8.8836 C   0  0  1  0  0  0  0  0  0  0  0  0
   27.2548  -19.2687   -8.1144 C   0  0  0  0  0  0  0  0  0  0  0  0
   27.7182  -19.6223   -6.7523 C   0  0  0  0  0  0  0  0  0  0  0  0
   26.9510  -20.3180   -5.8491 C   0  0  0  0  0  0  0  0  0  0  0  0
   27.4306  -20.6294   -4.5731 C   0  0  0  0  0  0  0  0  0  0  0  0
   28.7112  -20.2227   -4.2197 C   0  0  0  0  0  0  0  0  0  0  0  0
   29.4754  -19.5339   -5.1088 C   0  0  0  0  0  0  0  0  0  0  0  0
   28.9824  -19.2375   -6.3621 C   0  0  0  0  0  0  0  0  0  0  0  0
   26.5037  -20.3362  -10.2316 C   0  0  0  0  0  0  0  0  0  0  0  0
   27.2962  -19.9101  -11.1258 O   0  0  0  0  0  0  0  0  0  0  0  0
   26.7824  -21.3619  -12.8319 C   0  0  0  0  0  0  0  0  0  0  0  0
   25.2897  -21.4921  -12.7813 C   0  0  1  0  0  0  0  0  0  0  0  0
   24.9809  -22.9029  -12.2992 C   0  0  0  0  0  0  0  0  0  0  0  0
   24.6176  -20.4625  -11.9068 C   0  0  2  0  0  0  0  0  0  0  0  0
   25.1409  -20.5727  -10.5375 N   0  0  0  0  0  0  0  0  0  0  0  0
   23.1617  -20.5556  -11.8386 C   0  0  0  0  0  0  0  0  0  0  0  0
   22.6469  -21.0736  -10.7839 O   0  0  0  0  0  0  0  0  0  0  0  0
   22.2211  -20.1396  -12.8007 N   0  0  0  0  0  0  0  0  0  0  0  0
   20.7912  -20.0365  -12.5003 C   0  0  1  0  0  0  0  0  0  0  0  0
   20.3603  -18.6525  -12.8675 C   0  0  0  0  0  0  0  0  0  0  0  0
   20.6905  -18.2331  -14.2332 C   0  0  0  0  0  0  0  0  0  0  0  0
   19.7389  -18.4076  -15.2237 C   0  0  0  0  0  0  0  0  0  0  0  0
   20.0201  -18.0182  -16.5083 C   0  0  0  0  0  0  0  0  0  0  0  0
   21.2501  -17.4581  -16.7901 C   0  0  0  0  0  0  0  0  0  0  0  0
   22.1987  -17.2858  -15.7943 C   0  0  0  0  0  0  0  0  0  0  0  0
   21.9240  -17.6740  -14.5027 C   0  0  0  0  0  0  0  0  0  0  0  0
   20.0679  -21.0603  -13.2818 C   0  0  0  0  0  0  0  0  0  0  0  0
   18.7445  -21.3492  -13.0296 O   0  0  0  0  0  0  0  0  0  0  0  0
   20.6376  -21.6962  -14.1966 O   0  0  0  0  0  0  0  0  0  0  0  0
  2 10  1  0
  2  1  1  6
  3  4  1  0
  3  2  1  0
  4  9  1  0
  5  4  2  0
  5  6  1  0
  6  7  2  0
  7  8  1  0
  9  8  2  0
 10 11  2  0
 13 12  1  1
 13 14  1  0
 15 13  1  0
 15 16  1  1
 16 10  1  0
 17 18  2  0
 17 15  1  0
 19 17  1  0
 20 19  1  0
 21 22  1  0
 20 21  1  6
 22 27  1  0
 23 22  2  0
 23 24  1  0
 24 25  2  0
 25 26  1  0
 27 26  2  0
 28 29  1  0
 28 20  1  0
 30 28  2  0
M  END
$$$$
