FVF.pdb
     RDKit          3D

 30 31  0  0  1  0  0  0  0  0999 V2000
   22.2719  -21.4794  -13.7825 N   0  0  0  0  0  0  0  0  0  0  0  0
   22.7292  -20.3890  -12.9209 C   0  0  1  0  0  0  0  0  0  0  0  0
   21.5606  -19.8568  -12.1200 C   0  0  0  0  0  0  0  0  0  0  0  0
   20.7580  -19.0025  -13.0260 C   0  0  0  0  0  0  0  0  0  0  0  0
   21.1847  -17.7813  -13.4895 C   0  0  0  0  0  0  0  0  0  0  0  0
   20.3919  -17.0088  -14.3439 C   0  0  0  0  0  0  0  0  0  0  0  0
   19.1479  -17.4943  -14.7271 C   0  0  0  0  0  0  0  0  0  0  0  0
   18.7199  -18.7021  -14.2720 C   0  0  0  0  0  0  0  0  0  0  0  0
   19.5181  -19.4474  -13.4300 C   0  0  0  0  0  0  0  0  0  0  0  0
   23.7856  -20.9660  -12.0473 C   0  0  0  0  0  0  0  0  0  0  0  0
   23.5134  -22.0736  -11.4922 O   0  0  0  0  0  0  0  0  0  0  0  0
   28.5597  -21.5946  -11.2106 C   0  0  0  0  0  0  0  0  0  0  0  0
   27.3508  -21.0782  -11.9314 C   0  0  1  0  0  0  0  0  0  0  0  0
   27.1244  -21.9875  -13.1314 C   0  0  0  0  0  0  0  0  0  0  0  0
   26.1144  -21.0016  -11.0701 C   0  0  2  0  0  0  0  0  0  0  0  0
   25.0379  -20.3427  -11.8237 N   0  0  0  0  0  0  0  0  0  0  0  0
   26.2772  -20.2886   -9.8059 C   0  0  0  0  0  0  0  0  0  0  0  0
   26.0512  -19.0258   -9.8011 O   0  0  0  0  0  0  0  0  0  0  0  0
   26.6573  -20.8161   -8.5566 N   0  0  0  0  0  0  0  0  0  0  0  0
   27.3158  -20.0009   -7.5331 C   0  0  1  0  0  0  0  0  0  0  0  0
   26.7380  -20.3973   -6.2121 C   0  0  0  0  0  0  0  0  0  0  0  0
   27.3894  -19.8066   -5.0387 C   0  0  0  0  0  0  0  0  0  0  0  0
   28.2831  -20.5835   -4.3211 C   0  0  0  0  0  0  0  0  0  0  0  0
   28.9107  -20.0532   -3.2230 C   0  0  0  0  0  0  0  0  0  0  0  0
   28.6388  -18.7511   -2.8532 C   0  0  0  0  0  0  0  0  0  0  0  0
   27.7432  -17.9782   -3.5756 C   0  0  0  0  0  0  0  0  0  0  0  0
   27.1094  -18.5032   -4.6788 C   0  0  0  0  0  0  0  0  0  0  0  0
   28.7704  -20.2515   -7.5915 C   0  0  0  0  0  0  0  0  0  0  0  0
   29.6785  -19.2727   -7.2510 O   0  0  0  0  0  0  0  0  0  0  0  0
   29.2205  -21.3616   -7.9532 O   0  0  0  0  0  0  0  0  0  0  0  0
  2 10  1  0
  2  1  1  6
  3  4  1  0
  3  2  1  0
  4  9  1  0
  5  4  2  0
  5  6  1  0
  6  7  2  0
  7  8  1  0
  9  8  2  0
 10 11  2  0
 13 12  1  1
 13 14  1  0
 15 13  1  0
 15 16  1  6
 16 10  1  0
 17 18  2  0
 17 15  1  0
 19 17  1  0
 20 19  1  0
 21 22  1  0
 20 21  1  1
 22 27  1  0
 23 22  2  0
 23 24  1  0
 24 25  2  0
 25 26  1  0
 27 26  2  0
 28 29  1  0
 28 20  1  0
 30 28  2  0
M  END
$$$$
