CWP.pdb
     RDKit          3D

 28 30  0  0  1  0  0  0  0  0999 V2000
   22.8957  -17.6318  -14.9025 N   0  0  0  0  0  0  0  0  0  0  0  0
   22.6314  -18.4213  -13.7466 C   0  0  1  0  0  0  0  0  0  0  0  0
   21.8905  -19.6986  -14.0789 C   0  0  0  0  0  0  0  0  0  0  0  0
   20.1569  -19.3011  -14.4314 S   0  0  0  0  0  0  0  0  0  0  0  0
   23.9084  -18.7125  -13.0260 C   0  0  0  0  0  0  0  0  0  0  0  0
   24.9040  -19.0467  -13.7138 O   0  0  0  0  0  0  0  0  0  0  0  0
   24.0305  -18.6269  -11.6345 N   0  0  0  0  0  0  0  0  0  0  0  0
   25.1803  -19.2625  -10.9638 C   0  0  1  0  0  0  0  0  0  0  0  0
   24.8774  -19.1201   -9.5200 C   0  0  0  0  0  0  0  0  0  0  0  0
   25.5584  -19.9682   -8.5510 C   0  0  0  0  0  0  0  0  0  0  0  0
   25.3863  -21.3037   -8.2916 C   0  0  0  0  0  0  0  0  0  0  0  0
   26.2151  -21.6920   -7.3105 N   0  0  0  0  0  0  0  0  0  0  0  0
   26.9358  -20.6483   -6.9092 C   0  0  0  0  0  0  0  0  0  0  0  0
   27.9301  -20.5529   -5.9483 C   0  0  0  0  0  0  0  0  0  0  0  0
   28.5212  -19.3248   -5.7742 C   0  0  0  0  0  0  0  0  0  0  0  0
   28.1742  -18.2032   -6.4999 C   0  0  0  0  0  0  0  0  0  0  0  0
   27.1637  -18.3579   -7.4554 C   0  0  0  0  0  0  0  0  0  0  0  0
   26.5509  -19.5603   -7.6609 C   0  0  0  0  0  0  0  0  0  0  0  0
   25.4633  -20.5761  -11.5054 C   0  0  0  0  0  0  0  0  0  0  0  0
   24.5338  -21.3260  -11.9569 O   0  0  0  0  0  0  0  0  0  0  0  0
   26.7917  -21.1401  -11.5965 N   0  0  0  0  0  0  0  0  0  0  0  0
   28.0071  -20.6316  -10.9992 C   0  0  0  0  0  0  0  0  0  0  0  0
   29.0449  -20.7417  -12.1132 C   0  0  0  0  0  0  0  0  0  0  0  0
   28.3843  -21.6608  -13.1379 C   0  0  0  0  0  0  0  0  0  0  0  0
   27.2002  -22.2869  -12.3654 C   0  0  1  0  0  0  0  0  0  0  0  0
   27.7742  -23.3804  -11.5938 C   0  0  0  0  0  0  0  0  0  0  0  0
   28.1361  -24.4583  -12.1713 O   0  0  0  0  0  0  0  0  0  0  0  0
   27.9774  -23.3661  -10.2266 O   0  0  0  0  0  0  0  0  0  0  0  0
  2  5  1  0
  2  1  1  6
  3  2  1  0
  4  3  1  0
  5  6  2  0
  7  8  1  0
  7  5  1  0
  9 10  1  0
  8  9  1  1
 10 18  1  0
 11 10  2  0
 11 12  1  0
 12 13  1  0
 13 14  1  0
 14 15  2  0
 16 15  1  0
 17 16  2  0
 18 13  2  0
 18 17  1  0
 19 20  2  0
 19  8  1  0
 21 19  1  0
 22 21  1  0
 23 22  1  0
 24 25  1  0
 24 23  1  0
 25 21  1  0
 25 26  1  1
 26 28  1  0
 27 26  2  0
M  END
$$$$
