CWP.pdb
     RDKit          3D

 28 30  0  0  1  0  0  0  0  0999 V2000
   27.6263  -15.8060  -15.3491 N   0  0  0  0  0  0  0  0  0  0  0  0
   26.4552  -16.2483  -14.6693 C   0  0  1  0  0  0  0  0  0  0  0  0
   25.3244  -16.5723  -15.6217 C   0  0  0  0  0  0  0  0  0  0  0  0
   23.7970  -16.7963  -14.6706 S   0  0  0  0  0  0  0  0  0  0  0  0
   26.7818  -17.4223  -13.8033 C   0  0  0  0  0  0  0  0  0  0  0  0
   27.5259  -18.3125  -14.2828 O   0  0  0  0  0  0  0  0  0  0  0  0
   26.2949  -17.5613  -12.4987 N   0  0  0  0  0  0  0  0  0  0  0  0
   26.5788  -18.7958  -11.7429 C   0  0  1  0  0  0  0  0  0  0  0  0
   26.3461  -18.4134  -10.3301 C   0  0  0  0  0  0  0  0  0  0  0  0
   26.3918  -19.4307   -9.2885 C   0  0  0  0  0  0  0  0  0  0  0  0
   25.7750  -20.6545   -9.2405 C   0  0  0  0  0  0  0  0  0  0  0  0
   26.0782  -21.2774   -8.0914 N   0  0  0  0  0  0  0  0  0  0  0  0
   26.8822  -20.4992   -7.3719 C   0  0  0  0  0  0  0  0  0  0  0  0
   27.4765  -20.7100   -6.1377 C   0  0  0  0  0  0  0  0  0  0  0  0
   28.2928  -19.7161   -5.6542 C   0  0  0  0  0  0  0  0  0  0  0  0
   28.5413  -18.5389   -6.3306 C   0  0  0  0  0  0  0  0  0  0  0  0
   27.9140  -18.3798   -7.5712 C   0  0  0  0  0  0  0  0  0  0  0  0
   27.0961  -19.3426   -8.0884 C   0  0  0  0  0  0  0  0  0  0  0  0
   25.8815  -19.9396  -12.2947 C   0  0  0  0  0  0  0  0  0  0  0  0
   24.6730  -19.8535  -12.6977 O   0  0  0  0  0  0  0  0  0  0  0  0
   26.4779  -21.2477  -12.4503 N   0  0  0  0  0  0  0  0  0  0  0  0
   27.7883  -21.6758  -12.0121 C   0  0  0  0  0  0  0  0  0  0  0  0
   28.3401  -22.4621  -13.1985 C   0  0  0  0  0  0  0  0  0  0  0  0
   27.1133  -22.7144  -14.0716 C   0  0  0  0  0  0  0  0  0  0  0  0
   25.9226  -22.3813  -13.1430 C   0  0  1  0  0  0  0  0  0  0  0  0
   25.7211  -23.5708  -12.3275 C   0  0  0  0  0  0  0  0  0  0  0  0
   25.5302  -24.7059  -12.8766 O   0  0  0  0  0  0  0  0  0  0  0  0
   25.7165  -23.5943  -10.9455 O   0  0  0  0  0  0  0  0  0  0  0  0
  2  5  1  0
  2  1  1  6
  3  2  1  0
  4  3  1  0
  5  6  2  0
  7  8  1  0
  7  5  1  0
  9 10  1  0
  8  9  1  1
 10 18  1  0
 11 10  2  0
 11 12  1  0
 12 13  1  0
 13 14  1  0
 14 15  2  0
 16 15  1  0
 17 16  2  0
 18 13  2  0
 18 17  1  0
 19 20  2  0
 19  8  1  0
 21 19  1  0
 22 21  1  0
 23 22  1  0
 24 25  1  0
 24 23  1  0
 25 21  1  0
 25 26  1  1
 26 28  1  0
 27 26  2  0
M  END
$$$$
