CWP.pdb
     RDKit          3D

 28 30  0  0  1  0  0  0  0  0999 V2000
   28.5441  -17.8946  -19.5651 N   0  0  0  0  0  0  0  0  0  0  0  0
   29.0508  -18.6917  -18.4988 C   0  0  1  0  0  0  0  0  0  0  0  0
   30.4751  -18.3303  -18.1364 C   0  0  0  0  0  0  0  0  0  0  0  0
   31.6014  -19.0944  -19.3345 S   0  0  0  0  0  0  0  0  0  0  0  0
   28.1500  -18.5846  -17.3105 C   0  0  0  0  0  0  0  0  0  0  0  0
   27.9238  -17.4386  -16.8506 O   0  0  0  0  0  0  0  0  0  0  0  0
   27.5601  -19.6988  -16.7030 N   0  0  0  0  0  0  0  0  0  0  0  0
   26.4756  -19.5048  -15.7222 C   0  0  1  0  0  0  0  0  0  0  0  0
   25.2869  -19.2068  -16.5557 C   0  0  0  0  0  0  0  0  0  0  0  0
   23.9921  -18.9998  -15.9211 C   0  0  0  0  0  0  0  0  0  0  0  0
   23.3847  -17.8291  -15.5460 C   0  0  0  0  0  0  0  0  0  0  0  0
   22.1933  -18.0881  -14.9859 N   0  0  0  0  0  0  0  0  0  0  0  0
   21.9911  -19.4030  -14.9783 C   0  0  0  0  0  0  0  0  0  0  0  0
   20.9118  -20.1484  -14.5307 C   0  0  0  0  0  0  0  0  0  0  0  0
   20.9819  -21.5121  -14.6838 C   0  0  0  0  0  0  0  0  0  0  0  0
   22.0601  -22.1597  -15.2523 C   0  0  0  0  0  0  0  0  0  0  0  0
   23.1214  -21.3572  -15.6852 C   0  0  0  0  0  0  0  0  0  0  0  0
   23.0920  -19.9988  -15.5527 C   0  0  0  0  0  0  0  0  0  0  0  0
   26.4172  -20.5864  -14.7602 C   0  0  0  0  0  0  0  0  0  0  0  0
   26.7788  -21.7721  -15.0665 O   0  0  0  0  0  0  0  0  0  0  0  0
   25.9697  -20.4258  -13.3945 N   0  0  0  0  0  0  0  0  0  0  0  0
   25.5390  -19.2062  -12.7467 C   0  0  0  0  0  0  0  0  0  0  0  0
   26.2309  -19.2417  -11.3865 C   0  0  0  0  0  0  0  0  0  0  0  0
   26.7050  -20.6871  -11.2557 C   0  0  0  0  0  0  0  0  0  0  0  0
   25.9303  -21.4333  -12.3666 C   0  0  1  0  0  0  0  0  0  0  0  0
   24.6122  -21.7011  -11.8086 C   0  0  0  0  0  0  0  0  0  0  0  0
   23.6039  -21.0103  -12.1728 O   0  0  0  0  0  0  0  0  0  0  0  0
   24.3294  -22.6807  -10.8753 O   0  0  0  0  0  0  0  0  0  0  0  0
  2  5  1  0
  2  1  1  6
  3  2  1  0
  4  3  1  0
  5  6  2  0
  7  8  1  0
  7  5  1  0
  9 10  1  0
  8  9  1  6
 10 18  1  0
 11 10  2  0
 11 12  1  0
 12 13  1  0
 13 14  1  0
 14 15  2  0
 16 15  1  0
 17 16  2  0
 18 13  2  0
 18 17  1  0
 19 20  2  0
 19  8  1  0
 21 19  1  0
 22 21  1  0
 23 22  1  0
 24 25  1  0
 24 23  1  0
 25 21  1  0
 25 26  1  1
 26 28  1  0
 27 26  2  0
M  END
$$$$
