CWP.pdb
     RDKit          3D

 28 30  0  0  1  0  0  0  0  0999 V2000
   29.5109  -20.6049  -15.9827 N   0  0  0  0  0  0  0  0  0  0  0  0
   28.8714  -19.7973  -14.9989 C   0  0  1  0  0  0  0  0  0  0  0  0
   28.1326  -18.6251  -15.6078 C   0  0  0  0  0  0  0  0  0  0  0  0
   29.2944  -17.2533  -15.8446 S   0  0  0  0  0  0  0  0  0  0  0  0
   27.9555  -20.6369  -14.1677 C   0  0  0  0  0  0  0  0  0  0  0  0
   27.1848  -21.4275  -14.7653 O   0  0  0  0  0  0  0  0  0  0  0  0
   27.9277  -20.5734  -12.7700 N   0  0  0  0  0  0  0  0  0  0  0  0
   26.8548  -21.2647  -12.0306 C   0  0  1  0  0  0  0  0  0  0  0  0
   27.4539  -21.5413  -10.7035 C   0  0  0  0  0  0  0  0  0  0  0  0
   27.0404  -20.7594   -9.5461 C   0  0  0  0  0  0  0  0  0  0  0  0
   25.8990  -20.0235   -9.3565 C   0  0  0  0  0  0  0  0  0  0  0  0
   25.9177  -19.4503   -8.1436 N   0  0  0  0  0  0  0  0  0  0  0  0
   27.0436  -19.7858   -7.5194 C   0  0  0  0  0  0  0  0  0  0  0  0
   27.5046  -19.4639   -6.2526 C   0  0  0  0  0  0  0  0  0  0  0  0
   28.7144  -19.9914   -5.8703 C   0  0  0  0  0  0  0  0  0  0  0  0
   29.4765  -20.8115   -6.6777 C   0  0  0  0  0  0  0  0  0  0  0  0
   28.9624  -21.1019   -7.9462 C   0  0  0  0  0  0  0  0  0  0  0  0
   27.7643  -20.5993   -8.3653 C   0  0  0  0  0  0  0  0  0  0  0  0
   25.5973  -20.5496  -12.1085 C   0  0  0  0  0  0  0  0  0  0  0  0
   25.5504  -19.2747  -12.0559 O   0  0  0  0  0  0  0  0  0  0  0  0
   24.3125  -21.1948  -12.2640 N   0  0  0  0  0  0  0  0  0  0  0  0
   24.0398  -22.6148  -12.3069 C   0  0  0  0  0  0  0  0  0  0  0  0
   23.0582  -22.7714  -13.4655 C   0  0  0  0  0  0  0  0  0  0  0  0
   22.5820  -21.3461  -13.7356 C   0  0  0  0  0  0  0  0  0  0  0  0
   23.0398  -20.5591  -12.4859 C   0  0  1  0  0  0  0  0  0  0  0  0
   22.0291  -20.8200  -11.4705 C   0  0  0  0  0  0  0  0  0  0  0  0
   22.2033  -21.7430  -10.6077 O   0  0  0  0  0  0  0  0  0  0  0  0
   20.8377  -20.1312  -11.3409 O   0  0  0  0  0  0  0  0  0  0  0  0
  2  5  1  0
  2  1  1  6
  3  2  1  0
  4  3  1  0
  5  6  2  0
  7  8  1  0
  7  5  1  0
  9 10  1  0
  8  9  1  1
 10 18  1  0
 11 10  2  0
 11 12  1  0
 12 13  1  0
 13 14  1  0
 14 15  2  0
 16 15  1  0
 17 16  2  0
 18 13  2  0
 18 17  1  0
 19 20  2  0
 19  8  1  0
 21 19  1  0
 22 21  1  0
 23 22  1  0
 24 25  1  0
 24 23  1  0
 25 21  1  0
 25 26  1  1
 26 28  1  0
 27 26  2  0
M  END
$$$$
