CWP.pdb
     RDKit          3D

 28 30  0  0  1  0  0  0  0  0999 V2000
   27.5423  -17.7336  -19.2634 N   0  0  0  0  0  0  0  0  0  0  0  0
   26.9776  -17.9601  -17.9754 C   0  0  1  0  0  0  0  0  0  0  0  0
   25.5090  -17.5985  -17.9191 C   0  0  0  0  0  0  0  0  0  0  0  0
   24.5736  -18.7661  -18.9436 S   0  0  0  0  0  0  0  0  0  0  0  0
   27.1975  -19.3808  -17.5657 C   0  0  0  0  0  0  0  0  0  0  0  0
   27.3807  -20.2287  -18.4732 O   0  0  0  0  0  0  0  0  0  0  0  0
   27.2062  -19.7918  -16.2279 N   0  0  0  0  0  0  0  0  0  0  0  0
   27.2361  -21.2315  -15.9083 C   0  0  1  0  0  0  0  0  0  0  0  0
   27.7104  -21.2780  -14.5049 C   0  0  0  0  0  0  0  0  0  0  0  0
   26.9909  -20.5428  -13.4736 C   0  0  0  0  0  0  0  0  0  0  0  0
   27.2174  -19.2811  -12.9866 C   0  0  0  0  0  0  0  0  0  0  0  0
   26.3221  -18.9895  -12.0309 N   0  0  0  0  0  0  0  0  0  0  0  0
   25.5037  -20.0256  -11.8685 C   0  0  0  0  0  0  0  0  0  0  0  0
   24.4165  -20.1947  -11.0256 C   0  0  0  0  0  0  0  0  0  0  0  0
   23.7378  -21.3868  -11.1053 C   0  0  0  0  0  0  0  0  0  0  0  0
   24.0854  -22.4042  -11.9709 C   0  0  0  0  0  0  0  0  0  0  0  0
   25.1917  -22.1787  -12.7975 C   0  0  0  0  0  0  0  0  0  0  0  0
   25.8934  -21.0087  -12.7509 C   0  0  0  0  0  0  0  0  0  0  0  0
   25.9949  -21.8895  -16.2622 C   0  0  0  0  0  0  0  0  0  0  0  0
   24.9614  -21.2235  -16.6070 O   0  0  0  0  0  0  0  0  0  0  0  0
   25.8189  -23.3247  -16.2720 N   0  0  0  0  0  0  0  0  0  0  0  0
   26.8177  -24.3362  -16.0035 C   0  0  0  0  0  0  0  0  0  0  0  0
   26.5993  -25.3764  -17.0992 C   0  0  0  0  0  0  0  0  0  0  0  0
   25.2306  -25.0195  -17.6738 C   0  0  0  0  0  0  0  0  0  0  0  0
   24.6291  -24.0540  -16.6265 C   0  0  1  0  0  0  0  0  0  0  0  0
   24.0870  -24.9067  -15.5779 C   0  0  0  0  0  0  0  0  0  0  0  0
   22.9782  -25.5137  -15.7475 O   0  0  0  0  0  0  0  0  0  0  0  0
   24.6853  -25.1368  -14.3533 O   0  0  0  0  0  0  0  0  0  0  0  0
  2  5  1  0
  2  1  1  6
  3  2  1  0
  4  3  1  0
  5  6  2  0
  7  8  1  0
  7  5  1  0
  9 10  1  0
  8  9  1  1
 10 18  1  0
 11 10  2  0
 11 12  1  0
 12 13  1  0
 13 14  1  0
 14 15  2  0
 16 15  1  0
 17 16  2  0
 18 13  2  0
 18 17  1  0
 19 20  2  0
 19  8  1  0
 21 19  1  0
 22 21  1  0
 23 22  1  0
 24 25  1  0
 24 23  1  0
 25 21  1  0
 25 26  1  1
 26 28  1  0
 27 26  2  0
M  END
$$$$
