CWP.pdb
     RDKit          3D

 28 30  0  0  1  0  0  0  0  0999 V2000
   22.3490  -18.1534  -14.1285 N   0  0  0  0  0  0  0  0  0  0  0  0
   22.9295  -19.2569  -13.4396 C   0  0  1  0  0  0  0  0  0  0  0  0
   22.2470  -20.5663  -13.7717 C   0  0  0  0  0  0  0  0  0  0  0  0
   21.4396  -21.2065  -12.2797 S   0  0  0  0  0  0  0  0  0  0  0  0
   24.3943  -19.3253  -13.7304 C   0  0  0  0  0  0  0  0  0  0  0  0
   24.7959  -18.8509  -14.8212 O   0  0  0  0  0  0  0  0  0  0  0  0
   25.3180  -19.8903  -12.8438 N   0  0  0  0  0  0  0  0  0  0  0  0
   26.6761  -20.2172  -13.3175 C   0  0  1  0  0  0  0  0  0  0  0  0
   27.4170  -20.5539  -12.0787 C   0  0  0  0  0  0  0  0  0  0  0  0
   26.7189  -20.5704  -10.8003 C   0  0  0  0  0  0  0  0  0  0  0  0
   25.3717  -20.5617  -10.5450 C   0  0  0  0  0  0  0  0  0  0  0  0
   25.1546  -20.5761   -9.2210 N   0  0  0  0  0  0  0  0  0  0  0  0
   26.3240  -20.5943   -8.5870 C   0  0  0  0  0  0  0  0  0  0  0  0
   26.6169  -20.6358   -7.2330 C   0  0  0  0  0  0  0  0  0  0  0  0
   27.9435  -20.6746   -6.8769 C   0  0  0  0  0  0  0  0  0  0  0  0
   28.9774  -20.6733   -7.7914 C   0  0  0  0  0  0  0  0  0  0  0  0
   28.6228  -20.6296   -9.1443 C   0  0  0  0  0  0  0  0  0  0  0  0
   27.3172  -20.5908   -9.5411 C   0  0  0  0  0  0  0  0  0  0  0  0
   26.6529  -21.1653  -14.4127 C   0  0  0  0  0  0  0  0  0  0  0  0
   25.6789  -21.9751  -14.5736 O   0  0  0  0  0  0  0  0  0  0  0  0
   27.6961  -21.2705  -15.4086 N   0  0  0  0  0  0  0  0  0  0  0  0
   29.0116  -20.6699  -15.3726 C   0  0  0  0  0  0  0  0  0  0  0  0
   29.2040  -20.1084  -16.7790 C   0  0  0  0  0  0  0  0  0  0  0  0
   28.1026  -20.7815  -17.5946 C   0  0  0  0  0  0  0  0  0  0  0  0
   27.6187  -21.9338  -16.6842 C   0  0  1  0  0  0  0  0  0  0  0  0
   28.5753  -23.0137  -16.8825 C   0  0  0  0  0  0  0  0  0  0  0  0
   29.4723  -23.2510  -16.0075 O   0  0  0  0  0  0  0  0  0  0  0  0
   28.6099  -23.8518  -17.9812 O   0  0  0  0  0  0  0  0  0  0  0  0
  2  5  1  0
  2  1  1  6
  3  2  1  0
  4  3  1  0
  5  6  2  0
  7  8  1  0
  7  5  1  0
  9 10  1  0
  8  9  1  1
 10 18  1  0
 11 10  2  0
 11 12  1  0
 12 13  1  0
 13 14  1  0
 14 15  2  0
 16 15  1  0
 17 16  2  0
 18 13  2  0
 18 17  1  0
 19 20  2  0
 19  8  1  0
 21 19  1  0
 22 21  1  0
 23 22  1  0
 24 25  1  0
 24 23  1  0
 25 21  1  0
 25 26  1  1
 26 28  1  0
 27 26  2  0
M  END
$$$$
