CWP.pdb
     RDKit          3D

 28 30  0  0  1  0  0  0  0  0999 V2000
   28.8480  -19.4826  -17.2585 N   0  0  0  0  0  0  0  0  0  0  0  0
   28.2975  -18.8955  -16.0831 C   0  0  1  0  0  0  0  0  0  0  0  0
   27.4084  -17.7106  -16.3937 C   0  0  0  0  0  0  0  0  0  0  0  0
   26.8832  -16.9424  -14.8376 S   0  0  0  0  0  0  0  0  0  0  0  0
   27.5594  -19.9294  -15.2951 C   0  0  0  0  0  0  0  0  0  0  0  0
   26.7138  -20.6321  -15.9011 O   0  0  0  0  0  0  0  0  0  0  0  0
   27.7747  -20.1378  -13.9281 N   0  0  0  0  0  0  0  0  0  0  0  0
   26.8810  -21.0415  -13.1794 C   0  0  1  0  0  0  0  0  0  0  0  0
   27.5727  -21.2378  -11.8834 C   0  0  0  0  0  0  0  0  0  0  0  0
   26.8805  -20.9274  -10.6398 C   0  0  0  0  0  0  0  0  0  0  0  0
   25.5374  -20.7805  -10.4054 C   0  0  0  0  0  0  0  0  0  0  0  0
   25.3256  -20.4870   -9.1135 N   0  0  0  0  0  0  0  0  0  0  0  0
   26.4945  -20.4347   -8.4803 C   0  0  0  0  0  0  0  0  0  0  0  0
   26.7902  -20.1917   -7.1482 C   0  0  0  0  0  0  0  0  0  0  0  0
   28.1134  -20.2307   -6.7801 C   0  0  0  0  0  0  0  0  0  0  0  0
   29.1415  -20.4954   -7.6622 C   0  0  0  0  0  0  0  0  0  0  0  0
   28.7844  -20.7321   -8.9943 C   0  0  0  0  0  0  0  0  0  0  0  0
   27.4818  -20.7035   -9.4020 C   0  0  0  0  0  0  0  0  0  0  0  0
   25.5091  -20.5762  -13.1906 C   0  0  0  0  0  0  0  0  0  0  0  0
   25.2269  -19.3309  -13.1875 O   0  0  0  0  0  0  0  0  0  0  0  0
   24.3612  -21.4550  -13.2204 N   0  0  0  0  0  0  0  0  0  0  0  0
   24.3528  -22.8968  -13.1031 C   0  0  0  0  0  0  0  0  0  0  0  0
   23.3879  -23.3543  -14.1940 C   0  0  0  0  0  0  0  0  0  0  0  0
   22.6514  -22.0766  -14.5892 C   0  0  0  0  0  0  0  0  0  0  0  0
   22.9882  -21.0871  -13.4498 C   0  0  1  0  0  0  0  0  0  0  0  0
   22.0684  -21.4117  -12.3685 C   0  0  0  0  0  0  0  0  0  0  0  0
   22.4596  -22.1095  -11.3752 O   0  0  0  0  0  0  0  0  0  0  0  0
   20.7448  -21.0183  -12.3073 O   0  0  0  0  0  0  0  0  0  0  0  0
  2  5  1  0
  2  1  1  6
  3  2  1  0
  4  3  1  0
  5  6  2  0
  7  8  1  0
  7  5  1  0
  9 10  1  0
  8  9  1  1
 10 18  1  0
 11 10  2  0
 11 12  1  0
 12 13  1  0
 13 14  1  0
 14 15  2  0
 16 15  1  0
 17 16  2  0
 18 13  2  0
 18 17  1  0
 19 20  2  0
 19  8  1  0
 21 19  1  0
 22 21  1  0
 23 22  1  0
 24 25  1  0
 24 23  1  0
 25 21  1  0
 25 26  1  1
 26 28  1  0
 27 26  2  0
M  END
$$$$
