CWP.pdb
     RDKit          3D

 28 30  0  0  1  0  0  0  0  0999 V2000
   29.1443  -21.8819  -17.3464 N   0  0  0  0  0  0  0  0  0  0  0  0
   28.6742  -20.7850  -16.5685 C   0  0  1  0  0  0  0  0  0  0  0  0
   27.8648  -19.8031  -17.3879 C   0  0  0  0  0  0  0  0  0  0  0  0
   28.9561  -18.9972  -18.5909 S   0  0  0  0  0  0  0  0  0  0  0  0
   27.8871  -21.2886  -15.4016 C   0  0  0  0  0  0  0  0  0  0  0  0
   27.1167  -22.2613  -15.5929 O   0  0  0  0  0  0  0  0  0  0  0  0
   27.9775  -20.7230  -14.1248 N   0  0  0  0  0  0  0  0  0  0  0  0
   27.0174  -21.1259  -13.0799 C   0  0  1  0  0  0  0  0  0  0  0  0
   27.6907  -20.7569  -11.8122 C   0  0  0  0  0  0  0  0  0  0  0  0
   26.9062  -20.6052  -10.5941 C   0  0  0  0  0  0  0  0  0  0  0  0
   25.5460  -20.5236  -10.4403 C   0  0  0  0  0  0  0  0  0  0  0  0
   25.2380  -20.3802   -9.1423 N   0  0  0  0  0  0  0  0  0  0  0  0
   26.3593  -20.3644   -8.4266 C   0  0  0  0  0  0  0  0  0  0  0  0
   26.5564  -20.2611   -7.0586 C   0  0  0  0  0  0  0  0  0  0  0  0
   27.8527  -20.3024   -6.6047 C   0  0  0  0  0  0  0  0  0  0  0  0
   28.9462  -20.4388   -7.4358 C   0  0  0  0  0  0  0  0  0  0  0  0
   28.6876  -20.5376   -8.8074 C   0  0  0  0  0  0  0  0  0  0  0  0
   27.4151  -20.5017   -9.3002 C   0  0  0  0  0  0  0  0  0  0  0  0
   25.6844  -20.6265  -13.3493 C   0  0  0  0  0  0  0  0  0  0  0  0
   25.4880  -19.4286  -13.7450 O   0  0  0  0  0  0  0  0  0  0  0  0
   24.4842  -21.4215  -13.2130 N   0  0  0  0  0  0  0  0  0  0  0  0
   24.3793  -22.7830  -12.7356 C   0  0  0  0  0  0  0  0  0  0  0  0
   23.4253  -23.4518  -13.7220 C   0  0  0  0  0  0  0  0  0  0  0  0
   22.7864  -22.2801  -14.4636 C   0  0  0  0  0  0  0  0  0  0  0  0
   23.1464  -21.0518  -13.5961 C   0  0  1  0  0  0  0  0  0  0  0  0
   22.1708  -21.0401  -12.5150 C   0  0  0  0  0  0  0  0  0  0  0  0
   22.4862  -21.4676  -11.3555 O   0  0  0  0  0  0  0  0  0  0  0  0
   20.8693  -20.5880  -12.6251 O   0  0  0  0  0  0  0  0  0  0  0  0
  2  5  1  0
  2  1  1  6
  3  2  1  0
  4  3  1  0
  5  6  2  0
  7  8  1  0
  7  5  1  0
  9 10  1  0
  8  9  1  1
 10 18  1  0
 11 10  2  0
 11 12  1  0
 12 13  1  0
 13 14  1  0
 14 15  2  0
 16 15  1  0
 17 16  2  0
 18 13  2  0
 18 17  1  0
 19 20  2  0
 19  8  1  0
 21 19  1  0
 22 21  1  0
 23 22  1  0
 24 25  1  0
 24 23  1  0
 25 21  1  0
 25 26  1  1
 26 28  1  0
 27 26  2  0
M  END
$$$$
