CWP.pdb
     RDKit          3D

 28 30  0  0  1  0  0  0  0  0999 V2000
   20.5883  -20.4094  -13.2430 N   0  0  0  0  0  0  0  0  0  0  0  0
   21.6895  -21.1959  -12.7982 C   0  0  1  0  0  0  0  0  0  0  0  0
   21.7100  -22.5693  -13.4337 C   0  0  0  0  0  0  0  0  0  0  0  0
   23.0554  -23.5391  -12.7009 S   0  0  0  0  0  0  0  0  0  0  0  0
   22.9704  -20.4676  -13.0507 C   0  0  0  0  0  0  0  0  0  0  0  0
   23.1481  -19.9774  -14.1928 O   0  0  0  0  0  0  0  0  0  0  0  0
   23.9618  -20.3157  -12.0747 N   0  0  0  0  0  0  0  0  0  0  0  0
   25.2761  -19.7622  -12.4515 C   0  0  1  0  0  0  0  0  0  0  0  0
   25.7971  -19.1840  -11.1901 C   0  0  0  0  0  0  0  0  0  0  0  0
   25.8412  -20.0001   -9.9844 C   0  0  0  0  0  0  0  0  0  0  0  0
   25.0912  -21.0982   -9.6496 C   0  0  0  0  0  0  0  0  0  0  0  0
   25.4493  -21.5472   -8.4370 N   0  0  0  0  0  0  0  0  0  0  0  0
   26.4199  -20.7756   -7.9548 C   0  0  0  0  0  0  0  0  0  0  0  0
   27.1246  -20.8489   -6.7636 C   0  0  0  0  0  0  0  0  0  0  0  0
   28.1057  -19.9100   -6.5540 C   0  0  0  0  0  0  0  0  0  0  0  0
   28.4136  -18.9155   -7.4602 C   0  0  0  0  0  0  0  0  0  0  0  0
   27.6693  -18.8891   -8.6449 C   0  0  0  0  0  0  0  0  0  0  0  0
   26.6864  -19.8034   -8.8931 C   0  0  0  0  0  0  0  0  0  0  0  0
   26.0793  -20.7240  -13.1784 C   0  0  0  0  0  0  0  0  0  0  0  0
   25.8138  -21.9726  -13.1493 O   0  0  0  0  0  0  0  0  0  0  0  0
   27.2180  -20.3681  -13.9955 N   0  0  0  0  0  0  0  0  0  0  0  0
   28.1413  -19.2735  -13.7903 C   0  0  0  0  0  0  0  0  0  0  0  0
   28.3081  -18.6607  -15.1784 C   0  0  0  0  0  0  0  0  0  0  0  0
   27.7326  -19.7192  -16.1162 C   0  0  0  0  0  0  0  0  0  0  0  0
   27.6299  -20.9826  -15.2308 C   0  0  1  0  0  0  0  0  0  0  0  0
   28.9663  -21.5609  -15.2222 C   0  0  0  0  0  0  0  0  0  0  0  0
   29.7008  -21.4752  -14.1831 O   0  0  0  0  0  0  0  0  0  0  0  0
   29.5489  -22.2291  -16.2827 O   0  0  0  0  0  0  0  0  0  0  0  0
  2  5  1  0
  2  1  1  6
  3  2  1  0
  4  3  1  0
  5  6  2  0
  7  8  1  0
  7  5  1  0
  9 10  1  0
  8  9  1  1
 10 18  1  0
 11 10  2  0
 11 12  1  0
 12 13  1  0
 13 14  1  0
 14 15  2  0
 16 15  1  0
 17 16  2  0
 18 13  2  0
 18 17  1  0
 19 20  2  0
 19  8  1  0
 21 19  1  0
 22 21  1  0
 23 22  1  0
 24 25  1  0
 24 23  1  0
 25 21  1  0
 25 26  1  1
 26 28  1  0
 27 26  2  0
M  END
$$$$
