CWP.pdb
     RDKit          3D

 28 30  0  0  1  0  0  0  0  0999 V2000
   16.6213  -13.5803    3.3024 N   0  0  0  0  0  0  0  0  0  0  0  0
   17.6916  -14.2150    3.9959 C   0  0  1  0  0  0  0  0  0  0  0  0
   18.2402  -13.3580    5.1162 C   0  0  0  0  0  0  0  0  0  0  0  0
   19.2623  -12.0398    4.4053 S   0  0  0  0  0  0  0  0  0  0  0  0
   17.2478  -15.5480    4.5066 C   0  0  0  0  0  0  0  0  0  0  0  0
   16.1705  -15.5980    5.1494 O   0  0  0  0  0  0  0  0  0  0  0  0
   17.9792  -16.7225    4.2968 N   0  0  0  0  0  0  0  0  0  0  0  0
   17.5228  -17.9842    4.9098 C   0  0  1  0  0  0  0  0  0  0  0  0
   18.1366  -19.0363    4.0654 C   0  0  0  0  0  0  0  0  0  0  0  0
   17.7040  -19.1989    2.6840 C   0  0  0  0  0  0  0  0  0  0  0  0
   17.6943  -18.2843    1.6624 C   0  0  0  0  0  0  0  0  0  0  0  0
   17.2070  -18.8471    0.5461 N   0  0  0  0  0  0  0  0  0  0  0  0
   16.8916  -20.1147    0.7981 C   0  0  0  0  0  0  0  0  0  0  0  0
   16.3803  -21.1004   -0.0312 C   0  0  0  0  0  0  0  0  0  0  0  0
   16.1808  -22.3440    0.5181 C   0  0  0  0  0  0  0  0  0  0  0  0
   16.4611  -22.6484    1.8348 C   0  0  0  0  0  0  0  0  0  0  0  0
   16.9742  -21.6144    2.6258 C   0  0  0  0  0  0  0  0  0  0  0  0
   17.1882  -20.3648    2.1196 C   0  0  0  0  0  0  0  0  0  0  0  0
   17.7452  -18.0009    6.3413 C   0  0  0  0  0  0  0  0  0  0  0  0
   18.6455  -17.2770    6.8851 O   0  0  0  0  0  0  0  0  0  0  0  0
   16.9787  -18.8066    7.2657 N   0  0  0  0  0  0  0  0  0  0  0  0
   15.7898  -19.5806    6.9827 C   0  0  0  0  0  0  0  0  0  0  0  0
   14.8549  -19.2682    8.1482 C   0  0  0  0  0  0  0  0  0  0  0  0
   15.7682  -18.6181    9.1847 C   0  0  0  0  0  0  0  0  0  0  0  0
   17.1929  -18.9482    8.6824 C   0  0  1  0  0  0  0  0  0  0  0  0
   17.4610  -20.3050    9.1381 C   0  0  0  0  0  0  0  0  0  0  0  0
   17.4739  -21.2743    8.3093 O   0  0  0  0  0  0  0  0  0  0  0  0
   17.7169  -20.6667   10.4475 O   0  0  0  0  0  0  0  0  0  0  0  0
  2  5  1  0
  2  1  1  1
  3  2  1  0
  4  3  1  0
  5  6  2  0
  7  8  1  0
  7  5  1  0
  9 10  1  0
  8  9  1  6
 10 18  1  0
 11 10  2  0
 11 12  1  0
 12 13  1  0
 13 14  1  0
 14 15  2  0
 16 15  1  0
 17 16  2  0
 18 13  2  0
 18 17  1  0
 19 20  2  0
 19  8  1  0
 21 19  1  0
 22 21  1  0
 23 22  1  0
 24 25  1  0
 24 23  1  0
 25 21  1  0
 25 26  1  6
 26 28  1  0
 27 26  2  0
M  END
$$$$
