CWP.pdb
     RDKit          3D

 28 30  0  0  1  0  0  0  0  0999 V2000
   29.8671  -21.4884  -18.7403 N   0  0  0  0  0  0  0  0  0  0  0  0
   29.2432  -22.2981  -17.7481 C   0  0  1  0  0  0  0  0  0  0  0  0
   30.2265  -23.2118  -17.0490 C   0  0  0  0  0  0  0  0  0  0  0  0
   30.7882  -24.4795  -18.2173 S   0  0  0  0  0  0  0  0  0  0  0  0
   28.5207  -21.4334  -16.7657 C   0  0  0  0  0  0  0  0  0  0  0  0
   28.8646  -20.2287  -16.6845 O   0  0  0  0  0  0  0  0  0  0  0  0
   27.4916  -21.9121  -15.9471 N   0  0  0  0  0  0  0  0  0  0  0  0
   26.6583  -20.9579  -15.1915 C   0  0  1  0  0  0  0  0  0  0  0  0
   26.0656  -20.0918  -16.2380 C   0  0  0  0  0  0  0  0  0  0  0  0
   24.9676  -19.1964  -15.8994 C   0  0  0  0  0  0  0  0  0  0  0  0
   25.0055  -17.8814  -15.5127 C   0  0  0  0  0  0  0  0  0  0  0  0
   23.7613  -17.4321  -15.2883 N   0  0  0  0  0  0  0  0  0  0  0  0
   22.8944  -18.4152  -15.5160 C   0  0  0  0  0  0  0  0  0  0  0  0
   21.5105  -18.4342  -15.4432 C   0  0  0  0  0  0  0  0  0  0  0  0
   20.8792  -19.6103  -15.7691 C   0  0  0  0  0  0  0  0  0  0  0  0
   21.5503  -20.7522  -16.1574 C   0  0  0  0  0  0  0  0  0  0  0  0
   22.9464  -20.6755  -16.2121 C   0  0  0  0  0  0  0  0  0  0  0  0
   23.6130  -19.5265  -15.8973 C   0  0  0  0  0  0  0  0  0  0  0  0
   25.7889  -21.6296  -14.2471 C   0  0  0  0  0  0  0  0  0  0  0  0
   25.4101  -22.8352  -14.4298 O   0  0  0  0  0  0  0  0  0  0  0  0
   25.2936  -21.0187  -13.0336 N   0  0  0  0  0  0  0  0  0  0  0  0
   25.6419  -19.7221  -12.4949 C   0  0  0  0  0  0  0  0  0  0  0  0
   25.8558  -19.9818  -11.0059 C   0  0  0  0  0  0  0  0  0  0  0  0
   25.2377  -21.3601  -10.7834 C   0  0  0  0  0  0  0  0  0  0  0  0
   24.4054  -21.6042  -12.0634 C   0  0  1  0  0  0  0  0  0  0  0  0
   23.1537  -20.8897  -11.8553 C   0  0  0  0  0  0  0  0  0  0  0  0
   23.0015  -19.7075  -12.3090 O   0  0  0  0  0  0  0  0  0  0  0  0
   22.0563  -21.3907  -11.1806 O   0  0  0  0  0  0  0  0  0  0  0  0
  2  5  1  0
  2  1  1  6
  3  2  1  0
  4  3  1  0
  5  6  2  0
  7  8  1  0
  7  5  1  0
  9 10  1  0
  8  9  1  6
 10 18  1  0
 11 10  2  0
 11 12  1  0
 12 13  1  0
 13 14  1  0
 14 15  2  0
 16 15  1  0
 17 16  2  0
 18 13  2  0
 18 17  1  0
 19 20  2  0
 19  8  1  0
 21 19  1  0
 22 21  1  0
 23 22  1  0
 24 25  1  0
 24 23  1  0
 25 21  1  0
 25 26  1  1
 26 28  1  0
 27 26  2  0
M  END
$$$$
