CWP.pdb
     RDKit          3D

 28 30  0  0  1  0  0  0  0  0999 V2000
   28.7927  -20.8810  -18.0047 N   0  0  0  0  0  0  0  0  0  0  0  0
   28.6677  -19.9899  -16.9003 C   0  0  1  0  0  0  0  0  0  0  0  0
   27.9845  -18.6940  -17.2807 C   0  0  0  0  0  0  0  0  0  0  0  0
   26.3772  -19.0716  -18.0301 S   0  0  0  0  0  0  0  0  0  0  0  0
   27.9488  -20.6674  -15.7782 C   0  0  0  0  0  0  0  0  0  0  0  0
   27.2619  -21.6817  -16.0527 O   0  0  0  0  0  0  0  0  0  0  0  0
   28.0138  -20.2177  -14.4546 N   0  0  0  0  0  0  0  0  0  0  0  0
   27.1189  -20.8065  -13.4405 C   0  0  1  0  0  0  0  0  0  0  0  0
   27.7418  -20.4292  -12.1496 C   0  0  0  0  0  0  0  0  0  0  0  0
   26.9440  -20.4411  -10.9308 C   0  0  0  0  0  0  0  0  0  0  0  0
   25.5841  -20.3495  -10.7807 C   0  0  0  0  0  0  0  0  0  0  0  0
   25.2613  -20.3934   -9.4791 N   0  0  0  0  0  0  0  0  0  0  0  0
   26.3726  -20.5122   -8.7574 C   0  0  0  0  0  0  0  0  0  0  0  0
   26.5529  -20.6186   -7.3874 C   0  0  0  0  0  0  0  0  0  0  0  0
   27.8413  -20.7593   -6.9312 C   0  0  0  0  0  0  0  0  0  0  0  0
   28.9430  -20.7976   -7.7619 C   0  0  0  0  0  0  0  0  0  0  0  0
   28.7014  -20.6846   -9.1356 C   0  0  0  0  0  0  0  0  0  0  0  0
   27.4370  -20.5441   -9.6307 C   0  0  0  0  0  0  0  0  0  0  0  0
   25.7307  -20.4722  -13.6854 C   0  0  0  0  0  0  0  0  0  0  0  0
   25.3886  -19.3230  -14.1242 O   0  0  0  0  0  0  0  0  0  0  0  0
   24.6327  -21.3895  -13.4755 N   0  0  0  0  0  0  0  0  0  0  0  0
   24.6975  -22.7339  -12.9454 C   0  0  0  0  0  0  0  0  0  0  0  0
   23.7927  -23.5438  -13.8704 C   0  0  0  0  0  0  0  0  0  0  0  0
   23.0019  -22.4811  -14.6296 C   0  0  0  0  0  0  0  0  0  0  0  0
   23.2499  -21.1865  -13.8214 C   0  0  1  0  0  0  0  0  0  0  0  0
   22.3156  -21.2398  -12.7057 C   0  0  0  0  0  0  0  0  0  0  0  0
   22.7118  -21.5991  -11.5478 O   0  0  0  0  0  0  0  0  0  0  0  0
   20.9722  -20.9229  -12.7794 O   0  0  0  0  0  0  0  0  0  0  0  0
  2  5  1  0
  2  1  1  6
  3  2  1  0
  4  3  1  0
  5  6  2  0
  7  8  1  0
  7  5  1  0
  9 10  1  0
  8  9  1  1
 10 18  1  0
 11 10  2  0
 11 12  1  0
 12 13  1  0
 13 14  1  0
 14 15  2  0
 16 15  1  0
 17 16  2  0
 18 13  2  0
 18 17  1  0
 19 20  2  0
 19  8  1  0
 21 19  1  0
 22 21  1  0
 23 22  1  0
 24 25  1  0
 24 23  1  0
 25 21  1  0
 25 26  1  1
 26 28  1  0
 27 26  2  0
M  END
$$$$
