CWP.pdb
     RDKit          3D

 28 30  0  0  1  0  0  0  0  0999 V2000
   20.7010  -20.6969  -12.4974 N   0  0  0  0  0  0  0  0  0  0  0  0
   21.7253  -21.5838  -12.9374 C   0  0  1  0  0  0  0  0  0  0  0  0
   21.4336  -22.1679  -14.3029 C   0  0  0  0  0  0  0  0  0  0  0  0
   20.1502  -23.4383  -14.1399 S   0  0  0  0  0  0  0  0  0  0  0  0
   23.0460  -20.8836  -12.9231 C   0  0  0  0  0  0  0  0  0  0  0  0
   23.0629  -19.6628  -13.2157 O   0  0  0  0  0  0  0  0  0  0  0  0
   24.2441  -21.5307  -12.6005 N   0  0  0  0  0  0  0  0  0  0  0  0
   25.5277  -20.8363  -12.8150 C   0  0  1  0  0  0  0  0  0  0  0  0
   26.3919  -21.3320  -11.7177 C   0  0  0  0  0  0  0  0  0  0  0  0
   26.2823  -20.7447  -10.3892 C   0  0  0  0  0  0  0  0  0  0  0  0
   25.2149  -20.1151   -9.8020 C   0  0  0  0  0  0  0  0  0  0  0  0
   25.5416  -19.7146   -8.5639 N   0  0  0  0  0  0  0  0  0  0  0  0
   26.8006  -20.0617   -8.3107 C   0  0  0  0  0  0  0  0  0  0  0  0
   27.5740  -19.8894   -7.1735 C   0  0  0  0  0  0  0  0  0  0  0  0
   28.8542  -20.3876   -7.2016 C   0  0  0  0  0  0  0  0  0  0  0  0
   29.3937  -21.0390   -8.2923 C   0  0  0  0  0  0  0  0  0  0  0  0
   28.5680  -21.1834   -9.4127 C   0  0  0  0  0  0  0  0  0  0  0  0
   27.2899  -20.7039   -9.4265 C   0  0  0  0  0  0  0  0  0  0  0  0
   25.9819  -20.9515  -14.1859 C   0  0  0  0  0  0  0  0  0  0  0  0
   25.5054  -21.8353  -14.9746 O   0  0  0  0  0  0  0  0  0  0  0  0
   26.9805  -20.0894  -14.7782 N   0  0  0  0  0  0  0  0  0  0  0  0
   27.9379  -19.2498  -14.0918 C   0  0  0  0  0  0  0  0  0  0  0  0
   27.8893  -17.9282  -14.8543 C   0  0  0  0  0  0  0  0  0  0  0  0
   27.1593  -18.2800  -16.1483 C   0  0  0  0  0  0  0  0  0  0  0  0
   27.1833  -19.8257  -16.1791 C   0  0  1  0  0  0  0  0  0  0  0  0
   28.4970  -20.1838  -16.6954 C   0  0  0  0  0  0  0  0  0  0  0  0
   29.3363  -20.7972  -15.9566 O   0  0  0  0  0  0  0  0  0  0  0  0
   28.9489  -19.9119  -17.9731 O   0  0  0  0  0  0  0  0  0  0  0  0
  2  5  1  0
  2  1  1  6
  3  2  1  0
  4  3  1  0
  5  6  2  0
  7  8  1  0
  7  5  1  0
  9 10  1  0
  8  9  1  1
 10 18  1  0
 11 10  2  0
 11 12  1  0
 12 13  1  0
 13 14  1  0
 14 15  2  0
 16 15  1  0
 17 16  2  0
 18 13  2  0
 18 17  1  0
 19 20  2  0
 19  8  1  0
 21 19  1  0
 22 21  1  0
 23 22  1  0
 24 25  1  0
 24 23  1  0
 25 21  1  0
 25 26  1  1
 26 28  1  0
 27 26  2  0
M  END
$$$$
