THV.pdb
     RDKit          3D

 25 25  0  0  1  0  0  0  0  0999 V2000
    8.6285  -12.5602   20.1679 C   0  0  0  0  0  0  0  0  0  0  0  0
    8.1108  -13.3938   19.0133 C   0  0  1  0  0  0  0  0  0  0  0  0
    8.6722  -12.9094   17.8290 O   0  0  0  0  0  0  0  0  0  0  0  0
    8.6253  -14.7984   19.2315 C   0  0  2  0  0  0  0  0  0  0  0  0
    8.2946  -15.5730   18.0716 N   0  0  0  0  0  0  0  0  0  0  0  0
    8.1759  -15.3895   20.4952 C   0  0  0  0  0  0  0  0  0  0  0  0
    6.9711  -15.7361   20.6070 O   0  0  0  0  0  0  0  0  0  0  0  0
    9.0045  -15.6094   21.6303 N   0  0  0  0  0  0  0  0  0  0  0  0
    8.4633  -16.0714   22.8928 C   0  0  1  0  0  0  0  0  0  0  0  0
    9.0475  -17.4136   23.2923 C   0  0  0  0  0  0  0  0  0  0  0  0
    9.5366  -18.1187   22.0792 C   0  0  0  0  0  0  0  0  0  0  0  0
    9.4618  -17.6960   20.7847 C   0  0  0  0  0  0  0  0  0  0  0  0
   10.0325  -18.6541   20.0061 N   0  0  0  0  0  0  0  0  0  0  0  0
   10.4479  -19.6418   20.8048 C   0  0  0  0  0  0  0  0  0  0  0  0
   10.1452  -19.3181   22.0846 N   0  0  0  0  0  0  0  0  0  0  0  0
    8.7445  -15.0338   23.9242 C   0  0  0  0  0  0  0  0  0  0  0  0
    9.7374  -14.2711   23.8224 O   0  0  0  0  0  0  0  0  0  0  0  0
    5.7727  -13.6104   26.5624 C   0  0  0  0  0  0  0  0  0  0  0  0
    6.9887  -12.8493   26.1262 C   0  0  1  0  0  0  0  0  0  0  0  0
    7.2601  -11.6692   27.0015 C   0  0  0  0  0  0  0  0  0  0  0  0
    8.1933  -13.7538   25.9525 C   0  0  2  0  0  0  0  0  0  0  0  0
    7.9152  -14.8563   25.0605 N   0  0  0  0  0  0  0  0  0  0  0  0
    8.6441  -14.3094   27.2407 C   0  0  0  0  0  0  0  0  0  0  0  0
    8.5497  -15.6711   27.4871 O   0  0  0  0  0  0  0  0  0  0  0  0
    9.1271  -13.5787   28.1580 O   0  0  0  0  0  0  0  0  0  0  0  0
  2  1  1  1
  2  3  1  0
  4  2  1  0
  4  5  1  6
  6  7  2  0
  6  4  1  0
  8  6  1  0
  9 16  1  0
  9  8  1  0
  9 10  1  1
 11 12  2  0
 11 10  1  0
 13 12  1  0
 14 15  2  0
 14 13  1  0
 15 11  1  0
 16 22  1  0
 17 16  2  0
 19 18  1  1
 19 20  1  0
 21 19  1  0
 21 23  1  0
 21 22  1  6
 23 25  2  0
 23 24  1  0
M  END
$$$$
