THV.pdb
     RDKit          3D

 25 25  0  0  1  0  0  0  0  0999 V2000
   10.4377  -13.8548   17.9727 C   0  0  0  0  0  0  0  0  0  0  0  0
    9.9323  -14.1399   19.3725 C   0  0  1  0  0  0  0  0  0  0  0  0
   10.2947  -13.0746   20.2011 O   0  0  0  0  0  0  0  0  0  0  0  0
    8.4233  -14.1707   19.2876 C   0  0  2  0  0  0  0  0  0  0  0  0
    7.9890  -12.9254   18.7260 N   0  0  0  0  0  0  0  0  0  0  0  0
    7.7789  -14.5119   20.5590 C   0  0  0  0  0  0  0  0  0  0  0  0
    6.9896  -13.6815   21.0800 O   0  0  0  0  0  0  0  0  0  0  0  0
    7.9746  -15.7289   21.2690 N   0  0  0  0  0  0  0  0  0  0  0  0
    7.2290  -16.0394   22.4722 C   0  0  1  0  0  0  0  0  0  0  0  0
    7.0367  -17.5352   22.6390 C   0  0  0  0  0  0  0  0  0  0  0  0
    6.1183  -18.0345   21.5830 C   0  0  0  0  0  0  0  0  0  0  0  0
    4.8141  -17.6890   21.3836 C   0  0  0  0  0  0  0  0  0  0  0  0
    4.3641  -18.3873   20.3067 N   0  0  0  0  0  0  0  0  0  0  0  0
    5.3694  -19.1438   19.8558 C   0  0  0  0  0  0  0  0  0  0  0  0
    6.4542  -18.9311   20.6382 N   0  0  0  0  0  0  0  0  0  0  0  0
    7.9605  -15.4583   23.6328 C   0  0  0  0  0  0  0  0  0  0  0  0
    9.2154  -15.4058   23.6476 O   0  0  0  0  0  0  0  0  0  0  0  0
    5.9506  -13.1182   26.5512 C   0  0  0  0  0  0  0  0  0  0  0  0
    7.3805  -12.9147   26.1484 C   0  0  1  0  0  0  0  0  0  0  0  0
    8.1498  -12.1408   27.1689 C   0  0  0  0  0  0  0  0  0  0  0  0
    8.0511  -14.2168   25.7557 C   0  0  2  0  0  0  0  0  0  0  0  0
    7.2850  -14.9408   24.7670 N   0  0  0  0  0  0  0  0  0  0  0  0
    8.2458  -15.0987   26.9200 C   0  0  0  0  0  0  0  0  0  0  0  0
    9.2168  -14.8051   27.8659 O   0  0  0  0  0  0  0  0  0  0  0  0
    7.5466  -16.1416   27.1003 O   0  0  0  0  0  0  0  0  0  0  0  0
  2  1  1  6
  2  3  1  0
  4  2  1  0
  4  5  1  1
  6  7  2  0
  6  4  1  0
  8  6  1  0
  9 16  1  0
  9  8  1  0
  9 10  1  1
 11 12  2  0
 11 10  1  0
 13 12  1  0
 14 15  2  0
 14 13  1  0
 15 11  1  0
 16 22  1  0
 17 16  2  0
 19 18  1  1
 19 20  1  0
 21 19  1  0
 21 23  1  0
 21 22  1  6
 23 25  2  0
 23 24  1  0
M  END
$$$$
