THV.pdb
     RDKit          3D

 25 25  0  0  1  0  0  0  0  0999 V2000
    8.6738  -12.8116   19.9669 C   0  0  0  0  0  0  0  0  0  0  0  0
    8.1093  -13.5728   18.7844 C   0  0  1  0  0  0  0  0  0  0  0  0
    8.8051  -13.1879   17.6354 O   0  0  0  0  0  0  0  0  0  0  0  0
    8.3987  -15.0351   19.0356 C   0  0  2  0  0  0  0  0  0  0  0  0
    8.0545  -15.7616   17.8489 N   0  0  0  0  0  0  0  0  0  0  0  0
    7.7699  -15.5481   20.2561 C   0  0  0  0  0  0  0  0  0  0  0  0
    6.8787  -16.4309   20.1531 O   0  0  0  0  0  0  0  0  0  0  0  0
    8.0888  -15.1233   21.5756 N   0  0  0  0  0  0  0  0  0  0  0  0
    7.6370  -15.8534   22.7431 C   0  0  1  0  0  0  0  0  0  0  0  0
    8.0774  -17.3047   22.6984 C   0  0  0  0  0  0  0  0  0  0  0  0
    7.7311  -17.9643   23.9842 C   0  0  0  0  0  0  0  0  0  0  0  0
    8.5801  -18.3273   24.9878 C   0  0  0  0  0  0  0  0  0  0  0  0
    7.8336  -18.8972   25.9716 N   0  0  0  0  0  0  0  0  0  0  0  0
    6.5557  -18.8839   25.5802 C   0  0  0  0  0  0  0  0  0  0  0  0
    6.4853  -18.3100   24.3555 N   0  0  0  0  0  0  0  0  0  0  0  0
    8.1697  -15.1665   23.9531 C   0  0  0  0  0  0  0  0  0  0  0  0
    9.3810  -14.8442   24.0349 O   0  0  0  0  0  0  0  0  0  0  0  0
    7.3169  -12.3709   27.9223 C   0  0  0  0  0  0  0  0  0  0  0  0
    6.7727  -13.2542   26.8397 C   0  0  1  0  0  0  0  0  0  0  0  0
    5.8209  -12.5291   25.9449 C   0  0  0  0  0  0  0  0  0  0  0  0
    7.8744  -13.9716   26.0841 C   0  0  2  0  0  0  0  0  0  0  0  0
    7.3458  -14.8453   25.0616 N   0  0  0  0  0  0  0  0  0  0  0  0
    8.7140  -14.7785   26.9869 C   0  0  0  0  0  0  0  0  0  0  0  0
    9.9096  -14.2697   27.4724 O   0  0  0  0  0  0  0  0  0  0  0  0
    8.3834  -15.9482   27.3492 O   0  0  0  0  0  0  0  0  0  0  0  0
  2  1  1  1
  2  3  1  0
  4  2  1  0
  4  5  1  6
  6  7  2  0
  6  4  1  0
  8  6  1  0
  9 16  1  0
  9  8  1  0
  9 10  1  6
 11 12  2  0
 11 10  1  0
 13 12  1  0
 14 15  2  0
 14 13  1  0
 15 11  1  0
 16 22  1  0
 17 16  2  0
 19 18  1  1
 19 20  1  0
 21 19  1  0
 21 23  1  0
 21 22  1  6
 23 25  2  0
 23 24  1  0
M  END
$$$$
