THV.pdb
     RDKit          3D

 25 25  0  0  1  0  0  0  0  0999 V2000
    8.6003  -13.2033   20.5487 C   0  0  0  0  0  0  0  0  0  0  0  0
    7.7934  -13.9717   19.5217 C   0  0  1  0  0  0  0  0  0  0  0  0
    8.4123  -13.8332   18.2766 O   0  0  0  0  0  0  0  0  0  0  0  0
    7.8670  -15.4285   19.9184 C   0  0  2  0  0  0  0  0  0  0  0  0
    7.1848  -16.1924   18.9155 N   0  0  0  0  0  0  0  0  0  0  0  0
    7.4001  -15.6805   21.2847 C   0  0  0  0  0  0  0  0  0  0  0  0
    6.1756  -15.5431   21.5412 O   0  0  0  0  0  0  0  0  0  0  0  0
    8.2322  -16.0759   22.3685 N   0  0  0  0  0  0  0  0  0  0  0  0
    7.6929  -16.3456   23.6864 C   0  0  1  0  0  0  0  0  0  0  0  0
    8.1144  -17.7124   24.1927 C   0  0  0  0  0  0  0  0  0  0  0  0
    7.2088  -18.7471   23.6292 C   0  0  0  0  0  0  0  0  0  0  0  0
    6.1693  -18.5617   22.7660 C   0  0  0  0  0  0  0  0  0  0  0  0
    5.6197  -19.7806   22.5171 N   0  0  0  0  0  0  0  0  0  0  0  0
    6.3063  -20.6928   23.2117 C   0  0  0  0  0  0  0  0  0  0  0  0
    7.2878  -20.0623   23.8998 N   0  0  0  0  0  0  0  0  0  0  0  0
    8.1535  -15.2663   24.6044 C   0  0  0  0  0  0  0  0  0  0  0  0
    9.3038  -14.7728   24.4990 O   0  0  0  0  0  0  0  0  0  0  0  0
    7.2098  -11.7091   27.8799 C   0  0  0  0  0  0  0  0  0  0  0  0
    6.7055  -12.7734   26.9519 C   0  0  1  0  0  0  0  0  0  0  0  0
    5.8472  -12.2138   25.8644 C   0  0  0  0  0  0  0  0  0  0  0  0
    7.8262  -13.6544   26.4349 C   0  0  2  0  0  0  0  0  0  0  0  0
    7.3261  -14.7471   25.6323 N   0  0  0  0  0  0  0  0  0  0  0  0
    8.6215  -14.2226   27.5376 C   0  0  0  0  0  0  0  0  0  0  0  0
    9.6051  -13.4638   28.1547 O   0  0  0  0  0  0  0  0  0  0  0  0
    8.4419  -15.4055   27.9585 O   0  0  0  0  0  0  0  0  0  0  0  0
  2  1  1  1
  2  3  1  0
  4  2  1  0
  4  5  1  6
  6  7  2  0
  6  4  1  0
  8  6  1  0
  9 16  1  0
  9  8  1  0
  9 10  1  1
 11 12  2  0
 11 10  1  0
 13 12  1  0
 14 15  2  0
 14 13  1  0
 15 11  1  0
 16 22  1  0
 17 16  2  0
 19 18  1  6
 19 20  1  0
 21 19  1  0
 21 23  1  0
 21 22  1  1
 23 25  2  0
 23 24  1  0
M  END
$$$$
