THV.pdb
     RDKit          3D

 25 25  0  0  1  0  0  0  0  0999 V2000
    9.3930  -12.7457   20.2679 C   0  0  0  0  0  0  0  0  0  0  0  0
    8.4518  -13.0954   19.1330 C   0  0  1  0  0  0  0  0  0  0  0  0
    9.0587  -12.7373   17.9264 O   0  0  0  0  0  0  0  0  0  0  0  0
    8.2986  -14.5992   19.1484 C   0  0  2  0  0  0  0  0  0  0  0  0
    7.5288  -14.9746   17.9990 N   0  0  0  0  0  0  0  0  0  0  0  0
    7.7732  -15.1144   20.4160 C   0  0  0  0  0  0  0  0  0  0  0  0
    6.5592  -14.9263   20.6895 O   0  0  0  0  0  0  0  0  0  0  0  0
    8.5362  -15.8245   21.3840 N   0  0  0  0  0  0  0  0  0  0  0  0
    7.9517  -16.2895   22.6259 C   0  0  1  0  0  0  0  0  0  0  0  0
    8.3618  -17.7172   22.9353 C   0  0  0  0  0  0  0  0  0  0  0  0
    7.6539  -18.1791   24.1575 C   0  0  0  0  0  0  0  0  0  0  0  0
    6.3141  -18.3769   24.3179 C   0  0  0  0  0  0  0  0  0  0  0  0
    6.1112  -18.8003   25.5944 N   0  0  0  0  0  0  0  0  0  0  0  0
    7.2996  -18.8609   26.2030 C   0  0  0  0  0  0  0  0  0  0  0  0
    8.2553  -18.4791   25.3226 N   0  0  0  0  0  0  0  0  0  0  0  0
    8.3735  -15.3611   23.7120 C   0  0  0  0  0  0  0  0  0  0  0  0
    9.5482  -14.9194   23.7672 O   0  0  0  0  0  0  0  0  0  0  0  0
    7.2802  -12.0641   27.1835 C   0  0  0  0  0  0  0  0  0  0  0  0
    6.8098  -13.0701   26.1760 C   0  0  1  0  0  0  0  0  0  0  0  0
    6.0292  -12.4384   25.0696 C   0  0  0  0  0  0  0  0  0  0  0  0
    7.9407  -13.9511   25.6819 C   0  0  2  0  0  0  0  0  0  0  0  0
    7.4808  -14.9337   24.7273 N   0  0  0  0  0  0  0  0  0  0  0  0
    8.5973  -14.6636   26.7922 C   0  0  0  0  0  0  0  0  0  0  0  0
    9.7387  -14.1407   27.3818 O   0  0  0  0  0  0  0  0  0  0  0  0
    8.1534  -15.7624   27.2444 O   0  0  0  0  0  0  0  0  0  0  0  0
  2  1  1  1
  2  3  1  0
  4  2  1  0
  4  5  1  6
  6  7  2  0
  6  4  1  0
  8  6  1  0
  9 16  1  0
  9  8  1  0
  9 10  1  1
 11 12  2  0
 11 10  1  0
 13 12  1  0
 14 15  2  0
 14 13  1  0
 15 11  1  0
 16 22  1  0
 17 16  2  0
 19 18  1  1
 19 20  1  0
 21 19  1  0
 21 23  1  0
 21 22  1  6
 23 25  2  0
 23 24  1  0
M  END
$$$$
