THV.pdb
     RDKit          3D

 25 25  0  0  1  0  0  0  0  0999 V2000
    8.6573  -12.3406   20.3426 C   0  0  0  0  0  0  0  0  0  0  0  0
    8.1715  -13.1405   19.1509 C   0  0  1  0  0  0  0  0  0  0  0  0
    8.7877  -12.6417   18.0002 O   0  0  0  0  0  0  0  0  0  0  0  0
    8.6527  -14.5584   19.3589 C   0  0  2  0  0  0  0  0  0  0  0  0
    8.2944  -15.3191   18.1980 N   0  0  0  0  0  0  0  0  0  0  0  0
    8.1981  -15.1442   20.6232 C   0  0  0  0  0  0  0  0  0  0  0  0
    6.9875  -15.4680   20.7399 O   0  0  0  0  0  0  0  0  0  0  0  0
    9.0277  -15.3828   21.7537 N   0  0  0  0  0  0  0  0  0  0  0  0
    8.4994  -15.9322   22.9863 C   0  0  1  0  0  0  0  0  0  0  0  0
    9.1120  -17.2839   23.3024 C   0  0  0  0  0  0  0  0  0  0  0  0
    8.5813  -18.2987   22.3555 C   0  0  0  0  0  0  0  0  0  0  0  0
    7.6910  -18.1042   21.3408 C   0  0  0  0  0  0  0  0  0  0  0  0
    7.4898  -19.3051   20.7349 N   0  0  0  0  0  0  0  0  0  0  0  0
    8.2396  -20.2155   21.3637 C   0  0  0  0  0  0  0  0  0  0  0  0
    8.9153  -19.6016   22.3642 N   0  0  0  0  0  0  0  0  0  0  0  0
    8.7618  -14.9539   24.0789 C   0  0  0  0  0  0  0  0  0  0  0  0
    9.9033  -14.4558   24.2425 O   0  0  0  0  0  0  0  0  0  0  0  0
    6.5735  -11.7946   25.1944 C   0  0  0  0  0  0  0  0  0  0  0  0
    6.9380  -12.6742   26.3527 C   0  0  1  0  0  0  0  0  0  0  0  0
    5.7521  -13.3891   26.9138 C   0  0  0  0  0  0  0  0  0  0  0  0
    8.0924  -13.6002   26.0219 C   0  0  2  0  0  0  0  0  0  0  0  0
    7.7478  -14.5397   24.9794 N   0  0  0  0  0  0  0  0  0  0  0  0
    8.5283  -14.3660   27.2030 C   0  0  0  0  0  0  0  0  0  0  0  0
    9.2050  -13.7346   28.2360 O   0  0  0  0  0  0  0  0  0  0  0  0
    8.3064  -15.6094   27.3198 O   0  0  0  0  0  0  0  0  0  0  0  0
  2  1  1  1
  2  3  1  0
  4  2  1  0
  4  5  1  6
  6  7  2  0
  6  4  1  0
  8  6  1  0
  9 16  1  0
  9  8  1  0
  9 10  1  1
 11 12  2  0
 11 10  1  0
 13 12  1  0
 14 15  2  0
 14 13  1  0
 15 11  1  0
 16 22  1  0
 17 16  2  0
 19 18  1  6
 19 20  1  0
 21 19  1  0
 21 23  1  0
 21 22  1  6
 23 25  2  0
 23 24  1  0
M  END
$$$$
