THV.pdb
     RDKit          3D

 25 25  0  0  1  0  0  0  0  0999 V2000
    9.0520  -12.5293   20.0601 C   0  0  0  0  0  0  0  0  0  0  0  0
    8.3151  -13.3048   18.9869 C   0  0  1  0  0  0  0  0  0  0  0  0
    9.0144  -13.1727   17.7844 O   0  0  0  0  0  0  0  0  0  0  0  0
    8.3641  -14.7592   19.3962 C   0  0  2  0  0  0  0  0  0  0  0  0
    7.7453  -15.5293   18.3576 N   0  0  0  0  0  0  0  0  0  0  0  0
    7.8134  -15.0031   20.7324 C   0  0  0  0  0  0  0  0  0  0  0  0
    6.5760  -14.8605   20.9128 O   0  0  0  0  0  0  0  0  0  0  0  0
    8.5761  -15.3961   21.8671 N   0  0  0  0  0  0  0  0  0  0  0  0
    7.9460  -15.8466   23.0919 C   0  0  1  0  0  0  0  0  0  0  0  0
    8.2826  -17.2953   23.3922 C   0  0  0  0  0  0  0  0  0  0  0  0
    7.5521  -18.1772   22.4453 C   0  0  0  0  0  0  0  0  0  0  0  0
    6.2021  -18.3246   22.3190 C   0  0  0  0  0  0  0  0  0  0  0  0
    5.9787  -19.2321   21.3308 N   0  0  0  0  0  0  0  0  0  0  0  0
    7.1645  -19.6321   20.8617 C   0  0  0  0  0  0  0  0  0  0  0  0
    8.1392  -18.9855   21.5446 N   0  0  0  0  0  0  0  0  0  0  0  0
    8.3895  -14.9511   24.1969 C   0  0  0  0  0  0  0  0  0  0  0  0
    9.5755  -14.5428   24.2638 O   0  0  0  0  0  0  0  0  0  0  0  0
    6.5229  -11.7066   25.6732 C   0  0  0  0  0  0  0  0  0  0  0  0
    6.9479  -12.6741   26.7370 C   0  0  1  0  0  0  0  0  0  0  0  0
    5.7838  -13.3638   27.3705 C   0  0  0  0  0  0  0  0  0  0  0  0
    8.0126  -13.6330   26.2406 C   0  0  2  0  0  0  0  0  0  0  0  0
    7.5053  -14.5188   25.2177 N   0  0  0  0  0  0  0  0  0  0  0  0
    8.5513  -14.4587   27.3357 C   0  0  0  0  0  0  0  0  0  0  0  0
    9.3873  -13.8975   28.2896 O   0  0  0  0  0  0  0  0  0  0  0  0
    8.2773  -15.6921   27.4476 O   0  0  0  0  0  0  0  0  0  0  0  0
  2  1  1  1
  2  3  1  0
  4  2  1  0
  4  5  1  6
  6  7  2  0
  6  4  1  0
  8  6  1  0
  9 16  1  0
  9  8  1  0
  9 10  1  1
 11 12  2  0
 11 10  1  0
 13 12  1  0
 14 15  2  0
 14 13  1  0
 15 11  1  0
 16 22  1  0
 17 16  2  0
 19 18  1  6
 19 20  1  0
 21 19  1  0
 21 23  1  0
 21 22  1  6
 23 25  2  0
 23 24  1  0
M  END
$$$$
