THV.pdb
     RDKit          3D

 25 25  0  0  1  0  0  0  0  0999 V2000
    9.7407  -12.2297   18.3818 C   0  0  0  0  0  0  0  0  0  0  0  0
    9.0402  -12.7411   19.6243 C   0  0  1  0  0  0  0  0  0  0  0  0
    7.7770  -12.1483   19.6978 O   0  0  0  0  0  0  0  0  0  0  0  0
    8.8459  -14.2274   19.4282 C   0  0  2  0  0  0  0  0  0  0  0  0
    7.9715  -14.4124   18.3075 N   0  0  0  0  0  0  0  0  0  0  0  0
    8.4146  -14.9203   20.6456 C   0  0  0  0  0  0  0  0  0  0  0  0
    7.1981  -15.2158   20.7756 O   0  0  0  0  0  0  0  0  0  0  0  0
    9.2736  -15.2950   21.7157 N   0  0  0  0  0  0  0  0  0  0  0  0
    8.7811  -16.0112   22.8753 C   0  0  1  0  0  0  0  0  0  0  0  0
    9.4067  -17.3890   22.9872 C   0  0  0  0  0  0  0  0  0  0  0  0
    8.8074  -18.2865   21.9657 C   0  0  0  0  0  0  0  0  0  0  0  0
    9.2877  -18.5670   20.7205 C   0  0  0  0  0  0  0  0  0  0  0  0
    8.4212  -19.4344   20.1317 N   0  0  0  0  0  0  0  0  0  0  0  0
    7.4320  -19.6803   20.9961 C   0  0  0  0  0  0  0  0  0  0  0  0
    7.6639  -18.9756   22.1292 N   0  0  0  0  0  0  0  0  0  0  0  0
    9.0702  -15.1894   24.0840 C   0  0  0  0  0  0  0  0  0  0  0  0
   10.2159  -14.7162   24.2871 O   0  0  0  0  0  0  0  0  0  0  0  0
    7.4406  -11.9945   25.5187 C   0  0  0  0  0  0  0  0  0  0  0  0
    7.4638  -13.0682   26.5652 C   0  0  1  0  0  0  0  0  0  0  0  0
    6.0971  -13.5900   26.8690 C   0  0  0  0  0  0  0  0  0  0  0  0
    8.4612  -14.1617   26.2355 C   0  0  2  0  0  0  0  0  0  0  0  0
    8.0779  -14.9027   25.0554 N   0  0  0  0  0  0  0  0  0  0  0  0
    8.6064  -15.1163   27.3486 C   0  0  0  0  0  0  0  0  0  0  0  0
    9.2298  -14.7295   28.5257 O   0  0  0  0  0  0  0  0  0  0  0  0
    8.1754  -16.3070   27.2761 O   0  0  0  0  0  0  0  0  0  0  0  0
  2  1  1  6
  2  3  1  0
  4  2  1  0
  4  5  1  6
  6  7  2  0
  6  4  1  0
  8  6  1  0
  9 16  1  0
  9  8  1  0
  9 10  1  1
 11 12  2  0
 11 10  1  0
 13 12  1  0
 14 15  2  0
 14 13  1  0
 15 11  1  0
 16 22  1  0
 17 16  2  0
 19 18  1  6
 19 20  1  0
 21 19  1  0
 21 23  1  0
 21 22  1  6
 23 25  2  0
 23 24  1  0
M  END
$$$$
