THV.pdb
     RDKit          3D

 25 25  0  0  1  0  0  0  0  0999 V2000
    8.7462  -12.3100   20.3270 C   0  0  0  0  0  0  0  0  0  0  0  0
    8.0196  -13.0776   19.2411 C   0  0  1  0  0  0  0  0  0  0  0  0
    8.4333  -12.5888   17.9991 O   0  0  0  0  0  0  0  0  0  0  0  0
    8.4757  -14.5147   19.3509 C   0  0  2  0  0  0  0  0  0  0  0  0
    7.8955  -15.2444   18.2620 N   0  0  0  0  0  0  0  0  0  0  0  0
    8.2225  -15.1031   20.6692 C   0  0  0  0  0  0  0  0  0  0  0  0
    7.0480  -15.4467   20.9636 O   0  0  0  0  0  0  0  0  0  0  0  0
    9.2137  -15.3233   21.6654 N   0  0  0  0  0  0  0  0  0  0  0  0
    8.9101  -16.0069   22.9067 C   0  0  1  0  0  0  0  0  0  0  0  0
    9.7581  -17.2533   23.0790 C   0  0  0  0  0  0  0  0  0  0  0  0
    9.2700  -18.3123   22.1579 C   0  0  0  0  0  0  0  0  0  0  0  0
    8.0336  -18.8874   22.1325 C   0  0  0  0  0  0  0  0  0  0  0  0
    8.0282  -19.8058   21.1294 N   0  0  0  0  0  0  0  0  0  0  0  0
    9.2338  -19.7942   20.5526 C   0  0  0  0  0  0  0  0  0  0  0  0
   10.0046  -18.8755   21.1820 N   0  0  0  0  0  0  0  0  0  0  0  0
    9.1273  -15.0493   24.0272 C   0  0  0  0  0  0  0  0  0  0  0  0
   10.1955  -14.3955   24.1233 O   0  0  0  0  0  0  0  0  0  0  0  0
    7.3000  -11.9449   25.2181 C   0  0  0  0  0  0  0  0  0  0  0  0
    7.4014  -12.9089   26.3621 C   0  0  1  0  0  0  0  0  0  0  0  0
    6.0766  -13.4984   26.7227 C   0  0  0  0  0  0  0  0  0  0  0  0
    8.4770  -13.9528   26.1322 C   0  0  2  0  0  0  0  0  0  0  0  0
    8.1502  -14.8297   25.0310 N   0  0  0  0  0  0  0  0  0  0  0  0
    8.6917  -14.7828   27.3306 C   0  0  0  0  0  0  0  0  0  0  0  0
    9.3027  -14.2455   28.4539 O   0  0  0  0  0  0  0  0  0  0  0  0
    8.3332  -15.9984   27.3819 O   0  0  0  0  0  0  0  0  0  0  0  0
  2  1  1  1
  2  3  1  0
  4  2  1  0
  4  5  1  6
  6  7  2  0
  6  4  1  0
  8  6  1  0
  9 16  1  0
  9  8  1  0
  9 10  1  1
 11 12  2  0
 11 10  1  0
 13 12  1  0
 14 15  2  0
 14 13  1  0
 15 11  1  0
 16 22  1  0
 17 16  2  0
 19 18  1  6
 19 20  1  0
 21 19  1  0
 21 23  1  0
 21 22  1  6
 23 25  2  0
 23 24  1  0
M  END
$$$$
