THV.pdb
     RDKit          3D

 25 25  0  0  1  0  0  0  0  0999 V2000
   10.7520  -14.0293   20.6968 C   0  0  0  0  0  0  0  0  0  0  0  0
    9.6010  -13.1901   20.1799 C   0  0  1  0  0  0  0  0  0  0  0  0
    9.8698  -12.8354   18.8553 O   0  0  0  0  0  0  0  0  0  0  0  0
    8.3812  -14.0829   20.1841 C   0  0  2  0  0  0  0  0  0  0  0  0
    7.3142  -13.3726   19.5424 N   0  0  0  0  0  0  0  0  0  0  0  0
    8.0443  -14.5963   21.5149 C   0  0  0  0  0  0  0  0  0  0  0  0
    7.2456  -13.9400   22.2329 O   0  0  0  0  0  0  0  0  0  0  0  0
    8.5550  -15.7997   22.0757 N   0  0  0  0  0  0  0  0  0  0  0  0
    8.1294  -16.2770   23.3761 C   0  0  1  0  0  0  0  0  0  0  0  0
    7.9169  -17.7794   23.3767 C   0  0  0  0  0  0  0  0  0  0  0  0
    7.6115  -18.2330   24.7584 C   0  0  0  0  0  0  0  0  0  0  0  0
    6.5868  -17.8248   25.5604 C   0  0  0  0  0  0  0  0  0  0  0  0
    6.6915  -18.4999   26.7365 N   0  0  0  0  0  0  0  0  0  0  0  0
    7.7562  -19.3039   26.6576 C   0  0  0  0  0  0  0  0  0  0  0  0
    8.3282  -19.1444   25.4404 N   0  0  0  0  0  0  0  0  0  0  0  0
    9.1604  -15.8791   24.3752 C   0  0  0  0  0  0  0  0  0  0  0  0
   10.3849  -15.9388   24.1018 O   0  0  0  0  0  0  0  0  0  0  0  0
    8.9841  -12.7555   26.8056 C   0  0  0  0  0  0  0  0  0  0  0  0
    9.4760  -13.9682   27.5377 C   0  0  1  0  0  0  0  0  0  0  0  0
    8.5202  -14.4152   28.5956 C   0  0  0  0  0  0  0  0  0  0  0  0
    9.8797  -15.0800   26.5889 C   0  0  2  0  0  0  0  0  0  0  0  0
    8.8158  -15.4179   25.6711 N   0  0  0  0  0  0  0  0  0  0  0  0
   10.2614  -16.3024   27.3177 C   0  0  0  0  0  0  0  0  0  0  0  0
   11.5164  -16.4079   27.8988 O   0  0  0  0  0  0  0  0  0  0  0  0
    9.4727  -17.2882   27.4403 O   0  0  0  0  0  0  0  0  0  0  0  0
  2  1  1  6
  2  3  1  0
  4  2  1  0
  4  5  1  1
  6  7  2  0
  6  4  1  0
  8  6  1  0
  9 16  1  0
  9  8  1  0
  9 10  1  6
 11 12  2  0
 11 10  1  0
 13 12  1  0
 14 15  2  0
 14 13  1  0
 15 11  1  0
 16 22  1  0
 17 16  2  0
 19 18  1  6
 19 20  1  0
 21 19  1  0
 21 23  1  0
 21 22  1  6
 23 25  2  0
 23 24  1  0
M  END
$$$$
