THV.pdb
     RDKit          3D

 25 25  0  0  1  0  0  0  0  0999 V2000
    8.8648  -12.4337   20.1855 C   0  0  0  0  0  0  0  0  0  0  0  0
    8.1576  -13.1421   19.0478 C   0  0  1  0  0  0  0  0  0  0  0  0
    8.7884  -12.7974   17.8496 O   0  0  0  0  0  0  0  0  0  0  0  0
    8.3601  -14.6235   19.2708 C   0  0  2  0  0  0  0  0  0  0  0  0
    7.8331  -15.3157   18.1315 N   0  0  0  0  0  0  0  0  0  0  0  0
    7.8316  -15.0931   20.5546 C   0  0  0  0  0  0  0  0  0  0  0  0
    6.6023  -15.3471   20.6471 O   0  0  0  0  0  0  0  0  0  0  0  0
    8.6076  -15.2901   21.7304 N   0  0  0  0  0  0  0  0  0  0  0  0
    8.0324  -15.8396   22.9418 C   0  0  1  0  0  0  0  0  0  0  0  0
    8.4570  -17.2803   23.1573 C   0  0  0  0  0  0  0  0  0  0  0  0
    7.8408  -17.7934   24.4083 C   0  0  0  0  0  0  0  0  0  0  0  0
    6.5125  -17.8936   24.7009 C   0  0  0  0  0  0  0  0  0  0  0  0
    6.4056  -18.4155   25.9523 N   0  0  0  0  0  0  0  0  0  0  0  0
    7.6403  -18.6306   26.4167 C   0  0  0  0  0  0  0  0  0  0  0  0
    8.5302  -18.2492   25.4696 N   0  0  0  0  0  0  0  0  0  0  0  0
    8.4501  -14.9790   24.0840 C   0  0  0  0  0  0  0  0  0  0  0  0
    9.6508  -14.6431   24.2372 O   0  0  0  0  0  0  0  0  0  0  0  0
    6.5339  -11.6928   25.3425 C   0  0  0  0  0  0  0  0  0  0  0  0
    6.9242  -12.5971   26.4731 C   0  0  1  0  0  0  0  0  0  0  0  0
    5.7391  -13.2417   27.1154 C   0  0  0  0  0  0  0  0  0  0  0  0
    7.9951  -13.5894   26.0634 C   0  0  2  0  0  0  0  0  0  0  0  0
    7.5242  -14.5007   25.0455 N   0  0  0  0  0  0  0  0  0  0  0  0
    8.4627  -14.3867   27.2110 C   0  0  0  0  0  0  0  0  0  0  0  0
    9.2042  -13.7917   28.2210 O   0  0  0  0  0  0  0  0  0  0  0  0
    8.2107  -15.6251   27.3191 O   0  0  0  0  0  0  0  0  0  0  0  0
  2  1  1  1
  2  3  1  0
  4  2  1  0
  4  5  1  6
  6  7  2  0
  6  4  1  0
  8  6  1  0
  9 16  1  0
  9  8  1  0
  9 10  1  1
 11 12  2  0
 11 10  1  0
 13 12  1  0
 14 15  2  0
 14 13  1  0
 15 11  1  0
 16 22  1  0
 17 16  2  0
 19 18  1  6
 19 20  1  0
 21 19  1  0
 21 23  1  0
 21 22  1  6
 23 25  2  0
 23 24  1  0
M  END
$$$$
