THV.pdb
     RDKit          3D

 25 25  0  0  1  0  0  0  0  0999 V2000
    8.4882  -12.8138   20.5616 C   0  0  0  0  0  0  0  0  0  0  0  0
    7.6977  -13.6125   19.5450 C   0  0  1  0  0  0  0  0  0  0  0  0
    8.2352  -13.3738   18.2775 O   0  0  0  0  0  0  0  0  0  0  0  0
    7.9186  -15.0707   19.8769 C   0  0  2  0  0  0  0  0  0  0  0  0
    7.2769  -15.8546   18.8628 N   0  0  0  0  0  0  0  0  0  0  0  0
    7.5226  -15.4193   21.2443 C   0  0  0  0  0  0  0  0  0  0  0  0
    6.2977  -15.5380   21.5084 O   0  0  0  0  0  0  0  0  0  0  0  0
    8.4253  -15.6397   22.3213 N   0  0  0  0  0  0  0  0  0  0  0  0
    7.9603  -15.9959   23.6468 C   0  0  1  0  0  0  0  0  0  0  0  0
    8.4659  -17.3636   24.0665 C   0  0  0  0  0  0  0  0  0  0  0  0
    7.6660  -18.4146   23.3855 C   0  0  0  0  0  0  0  0  0  0  0  0
    6.6603  -18.2392   22.4811 C   0  0  0  0  0  0  0  0  0  0  0  0
    6.2125  -19.4718   22.1205 N   0  0  0  0  0  0  0  0  0  0  0  0
    6.9272  -20.3824   22.7884 C   0  0  0  0  0  0  0  0  0  0  0  0
    7.8254  -19.7374   23.5704 N   0  0  0  0  0  0  0  0  0  0  0  0
    8.4138  -14.9404   24.5955 C   0  0  0  0  0  0  0  0  0  0  0  0
    9.5948  -14.5131   24.5734 O   0  0  0  0  0  0  0  0  0  0  0  0
    6.9663  -11.4192   25.4592 C   0  0  0  0  0  0  0  0  0  0  0  0
    7.1399  -12.2374   26.7036 C   0  0  1  0  0  0  0  0  0  0  0  0
    5.8312  -12.6417   27.3006 C   0  0  0  0  0  0  0  0  0  0  0  0
    8.0846  -13.4041   26.4895 C   0  0  2  0  0  0  0  0  0  0  0  0
    7.5451  -14.3708   25.5606 N   0  0  0  0  0  0  0  0  0  0  0  0
    8.3816  -14.1000   27.7539 C   0  0  0  0  0  0  0  0  0  0  0  0
    9.1279  -13.4720   28.7401 O   0  0  0  0  0  0  0  0  0  0  0  0
    7.9745  -15.2786   27.9865 O   0  0  0  0  0  0  0  0  0  0  0  0
  2  1  1  1
  2  3  1  0
  4  2  1  0
  4  5  1  6
  6  7  2  0
  6  4  1  0
  8  6  1  0
  9 16  1  0
  9  8  1  0
  9 10  1  1
 11 12  2  0
 11 10  1  0
 13 12  1  0
 14 15  2  0
 14 13  1  0
 15 11  1  0
 16 22  1  0
 17 16  2  0
 19 18  1  6
 19 20  1  0
 21 19  1  0
 21 23  1  0
 21 22  1  6
 23 25  2  0
 23 24  1  0
M  END
$$$$
