THV.pdb
     RDKit          3D

 25 25  0  0  1  0  0  0  0  0999 V2000
    9.1539  -12.5328   18.3615 C   0  0  0  0  0  0  0  0  0  0  0  0
    8.8799  -12.9674   19.7871 C   0  0  1  0  0  0  0  0  0  0  0  0
    8.0573  -12.0134   20.3919 O   0  0  0  0  0  0  0  0  0  0  0  0
    8.1049  -14.2625   19.7010 C   0  0  2  0  0  0  0  0  0  0  0  0
    6.9188  -14.0151   18.9351 N   0  0  0  0  0  0  0  0  0  0  0  0
    7.8569  -14.8764   21.0086 C   0  0  0  0  0  0  0  0  0  0  0  0
    6.6832  -14.8799   21.4632 O   0  0  0  0  0  0  0  0  0  0  0  0
    8.8522  -15.4818   21.8248 N   0  0  0  0  0  0  0  0  0  0  0  0
    8.5141  -16.1875   23.0446 C   0  0  1  0  0  0  0  0  0  0  0  0
    9.1944  -17.5422   23.1121 C   0  0  0  0  0  0  0  0  0  0  0  0
    8.5292  -18.4751   22.1660 C   0  0  0  0  0  0  0  0  0  0  0  0
    7.4546  -19.2793   22.4082 C   0  0  0  0  0  0  0  0  0  0  0  0
    7.1845  -19.9603   21.2623 N   0  0  0  0  0  0  0  0  0  0  0  0
    8.0731  -19.5824   20.3383 C   0  0  0  0  0  0  0  0  0  0  0  0
    8.9053  -18.6666   20.8889 N   0  0  0  0  0  0  0  0  0  0  0  0
    8.9059  -15.3306   24.1987 C   0  0  0  0  0  0  0  0  0  0  0  0
    9.9999  -14.7132   24.2056 O   0  0  0  0  0  0  0  0  0  0  0  0
    7.1629  -12.2984   25.5581 C   0  0  0  0  0  0  0  0  0  0  0  0
    7.4118  -13.2399   26.6984 C   0  0  1  0  0  0  0  0  0  0  0  0
    6.1505  -13.8628   27.2018 C   0  0  0  0  0  0  0  0  0  0  0  0
    8.4905  -14.2546   26.3725 C   0  0  2  0  0  0  0  0  0  0  0  0
    8.0733  -15.1701   25.3351 N   0  0  0  0  0  0  0  0  0  0  0  0
    8.8663  -15.0455   27.5576 C   0  0  0  0  0  0  0  0  0  0  0  0
    9.5585  -14.4535   28.6036 O   0  0  0  0  0  0  0  0  0  0  0  0
    8.5773  -16.2758   27.6664 O   0  0  0  0  0  0  0  0  0  0  0  0
  2  1  1  6
  2  3  1  0
  4  2  1  0
  4  5  1  1
  6  7  2  0
  6  4  1  0
  8  6  1  0
  9 16  1  0
  9  8  1  0
  9 10  1  1
 11 12  2  0
 11 10  1  0
 13 12  1  0
 14 15  2  0
 14 13  1  0
 15 11  1  0
 16 22  1  0
 17 16  2  0
 19 18  1  6
 19 20  1  0
 21 19  1  0
 21 23  1  0
 21 22  1  6
 23 25  2  0
 23 24  1  0
M  END
$$$$
