THV.pdb
     RDKit          3D

 25 25  0  0  1  0  0  0  0  0999 V2000
    8.4843  -12.4601   20.3861 C   0  0  0  0  0  0  0  0  0  0  0  0
    7.7505  -13.3301   19.3857 C   0  0  1  0  0  0  0  0  0  0  0  0
    8.0680  -12.8906   18.0979 O   0  0  0  0  0  0  0  0  0  0  0  0
    8.2989  -14.7295   19.5482 C   0  0  2  0  0  0  0  0  0  0  0  0
    7.7155  -15.5514   18.5289 N   0  0  0  0  0  0  0  0  0  0  0  0
    8.1432  -15.2580   20.9063 C   0  0  0  0  0  0  0  0  0  0  0  0
    7.0100  -15.6668   21.2709 O   0  0  0  0  0  0  0  0  0  0  0  0
    9.1874  -15.3498   21.8679 N   0  0  0  0  0  0  0  0  0  0  0  0
    8.9747  -15.9457   23.1717 C   0  0  1  0  0  0  0  0  0  0  0  0
    9.9438  -17.0845   23.4293 C   0  0  0  0  0  0  0  0  0  0  0  0
    9.5663  -18.2517   22.5907 C   0  0  0  0  0  0  0  0  0  0  0  0
    8.5696  -18.3212   21.6624 C   0  0  0  0  0  0  0  0  0  0  0  0
    8.5829  -19.5763   21.1384 N   0  0  0  0  0  0  0  0  0  0  0  0
    9.5654  -20.2609   21.7318 C   0  0  0  0  0  0  0  0  0  0  0  0
   10.1760  -19.4501   22.6285 N   0  0  0  0  0  0  0  0  0  0  0  0
    9.1170  -14.8756   24.1984 C   0  0  0  0  0  0  0  0  0  0  0  0
   10.0862  -14.0770   24.1721 O   0  0  0  0  0  0  0  0  0  0  0  0
    6.7683  -12.0550   25.1322 C   0  0  0  0  0  0  0  0  0  0  0  0
    7.1398  -12.7942   26.3828 C   0  0  1  0  0  0  0  0  0  0  0  0
    5.9892  -13.5619   26.9477 C   0  0  0  0  0  0  0  0  0  0  0  0
    8.3863  -13.6372   26.1955 C   0  0  2  0  0  0  0  0  0  0  0  0
    8.1763  -14.7059   25.2457 N   0  0  0  0  0  0  0  0  0  0  0  0
    8.8320  -14.2351   27.4664 C   0  0  0  0  0  0  0  0  0  0  0  0
    8.8387  -15.6127   27.6277 O   0  0  0  0  0  0  0  0  0  0  0  0
    9.2200  -13.5274   28.4450 O   0  0  0  0  0  0  0  0  0  0  0  0
  2  1  1  1
  2  3  1  0
  4  2  1  0
  4  5  1  6
  6  7  2  0
  6  4  1  0
  8  6  1  0
  9 16  1  0
  9  8  1  0
  9 10  1  1
 11 12  2  0
 11 10  1  0
 13 12  1  0
 14 15  2  0
 14 13  1  0
 15 11  1  0
 16 22  1  0
 17 16  2  0
 19 18  1  6
 19 20  1  0
 21 19  1  0
 21 23  1  0
 21 22  1  6
 23 25  2  0
 23 24  1  0
M  END
$$$$
