EPV.pdb
     RDKit          3D

 24 24  0  0  1  0  0  0  0  0999 V2000
   24.9176  -22.1762  -12.6722 N   0  0  0  0  0  0  0  0  0  0  0  0
   25.7158  -21.0951  -12.1852 C   0  0  1  0  0  0  0  0  0  0  0  0
   24.8503  -19.8521  -12.3040 C   0  0  0  0  0  0  0  0  0  0  0  0
   23.5573  -20.0372  -11.5658 C   0  0  0  0  0  0  0  0  0  0  0  0
   22.3815  -19.8841  -12.4733 C   0  0  0  0  0  0  0  0  0  0  0  0
   22.0112  -18.7613  -12.8597 O   0  0  0  0  0  0  0  0  0  0  0  0
   26.3223  -21.2631  -10.8636 C   0  0  0  0  0  0  0  0  0  0  0  0
   25.4854  -21.1538   -9.8881 O   0  0  0  0  0  0  0  0  0  0  0  0
   21.7268  -21.0412  -12.8621 O   0  0  0  0  0  0  0  0  0  0  0  0
   27.6482  -21.5194  -10.5162 N   0  0  0  0  0  0  0  0  0  0  0  0
   28.5479  -22.4284  -11.2400 C   0  0  0  0  0  0  0  0  0  0  0  0
   29.6795  -21.4241  -11.5202 C   0  0  0  0  0  0  0  0  0  0  0  0
   29.6274  -20.4326  -10.3449 C   0  0  0  0  0  0  0  0  0  0  0  0
   28.5493  -21.0881   -9.4915 C   0  0  1  0  0  0  0  0  0  0  0  0
   28.1053  -20.3093   -8.3839 C   0  0  0  0  0  0  0  0  0  0  0  0
   27.5366  -19.2040   -8.3268 O   0  0  0  0  0  0  0  0  0  0  0  0
   29.6089  -21.4004   -4.4109 C   0  0  0  0  0  0  0  0  0  0  0  0
   28.1503  -21.0680   -4.6426 C   0  0  1  0  0  0  0  0  0  0  0  0
   27.6306  -20.3927   -3.3973 C   0  0  0  0  0  0  0  0  0  0  0  0
   27.9964  -20.1875   -5.8614 C   0  0  2  0  0  0  0  0  0  0  0  0
   28.3506  -20.8918   -7.0751 N   0  0  0  0  0  0  0  0  0  0  0  0
   28.8270  -18.9686   -5.6744 C   0  0  0  0  0  0  0  0  0  0  0  0
   29.9263  -18.9111   -6.2742 O   0  0  0  0  0  0  0  0  0  0  0  0
   28.4623  -17.9001   -4.8832 O   0  0  0  0  0  0  0  0  0  0  0  0
  2  1  1  1
  2  3  1  0
  3  4  1  0
  4  5  1  0
  5  9  1  0
  5  6  2  0
  7  2  1  0
  8  7  2  0
 10  7  1  0
 10 14  1  0
 11 12  1  0
 11 10  1  0
 12 13  1  0
 13 14  1  0
 14 15  1  1
 15 16  2  0
 18 17  1  1
 18 20  1  0
 19 18  1  0
 20 21  1  6
 20 22  1  0
 21 15  1  0
 22 23  2  0
 22 24  1  0
M  END
$$$$
