EPV.pdb
     RDKit          3D

 24 24  0  0  1  0  0  0  0  0999 V2000
   17.5298  -14.6985  -17.1500 N   0  0  0  0  0  0  0  0  0  0  0  0
   17.1904  -13.3206  -16.9791 C   0  0  1  0  0  0  0  0  0  0  0  0
   16.1791  -13.2783  -15.8461 C   0  0  0  0  0  0  0  0  0  0  0  0
   15.0054  -14.1608  -16.1536 C   0  0  0  0  0  0  0  0  0  0  0  0
   13.9836  -14.1123  -15.0659 C   0  0  0  0  0  0  0  0  0  0  0  0
   12.9377  -13.4519  -15.1971 O   0  0  0  0  0  0  0  0  0  0  0  0
   18.3005  -12.3816  -16.8095 C   0  0  0  0  0  0  0  0  0  0  0  0
   18.9125  -12.4962  -15.6799 O   0  0  0  0  0  0  0  0  0  0  0  0
   14.2517  -14.8311  -13.9126 O   0  0  0  0  0  0  0  0  0  0  0  0
   18.7807  -11.4014  -17.6774 N   0  0  0  0  0  0  0  0  0  0  0  0
   18.8980  -11.5509  -19.1346 C   0  0  0  0  0  0  0  0  0  0  0  0
   18.0564  -10.3278  -19.5390 C   0  0  0  0  0  0  0  0  0  0  0  0
   18.2483   -9.3199  -18.3926 C   0  0  0  0  0  0  0  0  0  0  0  0
   19.2776  -10.0651  -17.5527 C   0  0  1  0  0  0  0  0  0  0  0  0
   19.5483   -9.4832  -16.2805 C   0  0  0  0  0  0  0  0  0  0  0  0
   18.8211   -9.2895  -15.2895 O   0  0  0  0  0  0  0  0  0  0  0  0
   22.3678  -10.4055  -13.8487 C   0  0  0  0  0  0  0  0  0  0  0  0
   22.6003   -8.9826  -14.3102 C   0  0  1  0  0  0  0  0  0  0  0  0
   23.6870   -9.0119  -15.3568 C   0  0  0  0  0  0  0  0  0  0  0  0
   21.3206   -8.3866  -14.8500 C   0  0  2  0  0  0  0  0  0  0  0  0
   20.9139   -9.0265  -16.0828 N   0  0  0  0  0  0  0  0  0  0  0  0
   21.5177   -6.9243  -15.0322 C   0  0  0  0  0  0  0  0  0  0  0  0
   21.7593   -6.5053  -16.1887 O   0  0  0  0  0  0  0  0  0  0  0  0
   21.4507   -6.0031  -14.0085 O   0  0  0  0  0  0  0  0  0  0  0  0
  2  1  1  1
  2  3  1  0
  3  4  1  0
  4  5  1  0
  5  9  1  0
  5  6  2  0
  7  2  1  0
  8  7  2  0
 10  7  1  0
 10 14  1  0
 11 12  1  0
 11 10  1  0
 12 13  1  0
 13 14  1  0
 14 15  1  1
 15 16  2  0
 18 17  1  6
 18 20  1  0
 19 18  1  0
 20 21  1  6
 20 22  1  0
 21 15  1  0
 22 23  2  0
 22 24  1  0
M  END
$$$$
