EPV.pdb
     RDKit          3D

 24 24  0  0  1  0  0  0  0  0999 V2000
   24.8055  -20.4495  -16.0209 N   0  0  0  0  0  0  0  0  0  0  0  0
   24.6204  -19.7654  -14.7796 C   0  0  1  0  0  0  0  0  0  0  0  0
   24.1119  -18.3797  -15.1396 C   0  0  0  0  0  0  0  0  0  0  0  0
   24.9135  -17.8004  -16.2679 C   0  0  0  0  0  0  0  0  0  0  0  0
   24.0452  -17.4376  -17.4272 C   0  0  0  0  0  0  0  0  0  0  0  0
   23.2396  -16.4927  -17.3543 O   0  0  0  0  0  0  0  0  0  0  0  0
   23.8102  -20.4419  -13.7653 C   0  0  0  0  0  0  0  0  0  0  0  0
   22.5654  -20.5567  -14.0835 O   0  0  0  0  0  0  0  0  0  0  0  0
   24.1769  -18.1958  -18.5788 O   0  0  0  0  0  0  0  0  0  0  0  0
   24.1848  -20.9693  -12.5300 N   0  0  0  0  0  0  0  0  0  0  0  0
   25.4432  -21.6802  -12.2643 C   0  0  0  0  0  0  0  0  0  0  0  0
   25.9448  -20.7941  -11.1106 C   0  0  0  0  0  0  0  0  0  0  0  0
   24.6677  -20.2703  -10.4310 C   0  0  0  0  0  0  0  0  0  0  0  0
   23.6134  -21.0364  -11.2196 C   0  0  1  0  0  0  0  0  0  0  0  0
   22.2689  -20.6371  -10.9682 C   0  0  0  0  0  0  0  0  0  0  0  0
   21.7357  -19.5136  -10.9240 O   0  0  0  0  0  0  0  0  0  0  0  0
   19.2561  -23.4496  -11.7612 C   0  0  0  0  0  0  0  0  0  0  0  0
   19.0470  -21.9653  -11.5492 C   0  0  1  0  0  0  0  0  0  0  0  0
   17.5870  -21.7483  -11.2357 C   0  0  0  0  0  0  0  0  0  0  0  0
   19.9382  -21.4598  -10.4382 C   0  0  2  0  0  0  0  0  0  0  0  0
   21.3345  -21.7212  -10.7151 N   0  0  0  0  0  0  0  0  0  0  0  0
   19.5074  -22.0874   -9.1611 C   0  0  0  0  0  0  0  0  0  0  0  0
   18.4290  -21.7001   -8.6525 O   0  0  0  0  0  0  0  0  0  0  0  0
   20.2202  -23.0676   -8.5039 O   0  0  0  0  0  0  0  0  0  0  0  0
  2  1  1  6
  2  3  1  0
  3  4  1  0
  4  5  1  0
  5  9  1  0
  5  6  2  0
  7  2  1  0
  8  7  2  0
 10  7  1  0
 10 14  1  0
 11 12  1  0
 11 10  1  0
 12 13  1  0
 13 14  1  0
 14 15  1  6
 15 16  2  0
 18 17  1  1
 18 20  1  0
 19 18  1  0
 20 21  1  6
 20 22  1  0
 21 15  1  0
 22 23  2  0
 22 24  1  0
M  END
$$$$
