EPV.pdb
     RDKit          3D

 24 24  0  0  1  0  0  0  0  0999 V2000
   18.4227  -10.7050  -16.0706 N   0  0  0  0  0  0  0  0  0  0  0  0
   18.7802   -9.3910  -15.6363 C   0  0  1  0  0  0  0  0  0  0  0  0
   18.0728   -8.4336  -16.5802 C   0  0  0  0  0  0  0  0  0  0  0  0
   18.6643   -8.5165  -17.9566 C   0  0  0  0  0  0  0  0  0  0  0  0
   18.0098   -7.5552  -18.8931 C   0  0  0  0  0  0  0  0  0  0  0  0
   18.6858   -6.7802  -19.5928 O   0  0  0  0  0  0  0  0  0  0  0  0
   18.5698   -9.0815  -14.2211 C   0  0  0  0  0  0  0  0  0  0  0  0
   17.3600   -9.2772  -13.8187 O   0  0  0  0  0  0  0  0  0  0  0  0
   16.6258   -7.5659  -18.9465 O   0  0  0  0  0  0  0  0  0  0  0  0
   19.4724   -8.6152  -13.2658 N   0  0  0  0  0  0  0  0  0  0  0  0
   20.8055   -9.1823  -13.0191 C   0  0  0  0  0  0  0  0  0  0  0  0
   21.6218   -7.8935  -13.2201 C   0  0  0  0  0  0  0  0  0  0  0  0
   20.6769   -6.7569  -12.7930 C   0  0  0  0  0  0  0  0  0  0  0  0
   19.4930   -7.5711  -12.2873 C   0  0  1  0  0  0  0  0  0  0  0  0
   18.3283   -6.8094  -11.9812 C   0  0  0  0  0  0  0  0  0  0  0  0
   17.7500   -5.8995  -12.6025 O   0  0  0  0  0  0  0  0  0  0  0  0
   14.8780   -7.6939  -11.4546 C   0  0  0  0  0  0  0  0  0  0  0  0
   15.3182   -7.1932  -10.0954 C   0  0  1  0  0  0  0  0  0  0  0  0
   15.5363   -8.3969   -9.2120 C   0  0  0  0  0  0  0  0  0  0  0  0
   16.5714   -6.3577  -10.2208 C   0  0  2  0  0  0  0  0  0  0  0  0
   17.6834   -7.1376  -10.7208 N   0  0  0  0  0  0  0  0  0  0  0  0
   16.8767   -5.7577   -8.8952 C   0  0  0  0  0  0  0  0  0  0  0  0
   16.1304   -4.8390   -8.4821 O   0  0  0  0  0  0  0  0  0  0  0  0
   17.9283   -6.1497   -8.0944 O   0  0  0  0  0  0  0  0  0  0  0  0
  2  1  1  1
  2  3  1  0
  3  4  1  0
  4  5  1  0
  5  9  1  0
  5  6  2  0
  7  2  1  0
  8  7  2  0
 10  7  1  0
 10 14  1  0
 11 12  1  0
 11 10  1  0
 12 13  1  0
 13 14  1  0
 14 15  1  6
 15 16  2  0
 18 17  1  6
 18 20  1  0
 19 18  1  0
 20 21  1  1
 20 22  1  0
 21 15  1  0
 22 23  2  0
 22 24  1  0
M  END
$$$$
