EPV.pdb
     RDKit          3D

 24 24  0  0  1  0  0  0  0  0999 V2000
   16.5422  -13.1034  -16.9386 N   0  0  0  0  0  0  0  0  0  0  0  0
   16.5600  -11.6742  -16.9464 C   0  0  1  0  0  0  0  0  0  0  0  0
   15.5333  -11.2393  -15.9145 C   0  0  0  0  0  0  0  0  0  0  0  0
   14.2231  -11.9314  -16.1499 C   0  0  0  0  0  0  0  0  0  0  0  0
   13.2068  -11.5433  -15.1271 C   0  0  0  0  0  0  0  0  0  0  0  0
   13.3393  -11.8711  -13.9346 O   0  0  0  0  0  0  0  0  0  0  0  0
   17.8634  -11.0276  -16.7851 C   0  0  0  0  0  0  0  0  0  0  0  0
   18.5137  -11.4179  -15.7418 O   0  0  0  0  0  0  0  0  0  0  0  0
   12.1179  -10.8071  -15.5639 O   0  0  0  0  0  0  0  0  0  0  0  0
   18.4892  -10.0700  -17.5826 N   0  0  0  0  0  0  0  0  0  0  0  0
   18.5337  -10.0956  -19.0512 C   0  0  0  0  0  0  0  0  0  0  0  0
   17.9192   -8.7076  -19.3036 C   0  0  0  0  0  0  0  0  0  0  0  0
   18.3266   -7.8671  -18.0811 C   0  0  0  0  0  0  0  0  0  0  0  0
   19.2263   -8.8634  -17.3612 C   0  0  1  0  0  0  0  0  0  0  0  0
   19.6369   -8.4663  -16.0558 C   0  0  0  0  0  0  0  0  0  0  0  0
   18.9891   -8.2598  -15.0136 O   0  0  0  0  0  0  0  0  0  0  0  0
   21.9586  -10.2289  -13.8454 C   0  0  0  0  0  0  0  0  0  0  0  0
   22.6349   -8.9036  -14.1250 C   0  0  1  0  0  0  0  0  0  0  0  0
   23.7148   -9.1474  -15.1504 C   0  0  0  0  0  0  0  0  0  0  0  0
   21.6257   -7.8871  -14.6071 C   0  0  2  0  0  0  0  0  0  0  0  0
   21.0657   -8.2593  -15.8887 N   0  0  0  0  0  0  0  0  0  0  0  0
   22.2837   -6.5550  -14.6640 C   0  0  0  0  0  0  0  0  0  0  0  0
   22.6473   -6.1287  -15.7854 O   0  0  0  0  0  0  0  0  0  0  0  0
   22.5176   -5.7620  -13.5608 O   0  0  0  0  0  0  0  0  0  0  0  0
  2  1  1  1
  2  3  1  0
  3  4  1  0
  4  5  1  0
  5  9  1  0
  5  6  2  0
  7  2  1  0
  8  7  2  0
 10  7  1  0
 10 14  1  0
 11 12  1  0
 11 10  1  0
 12 13  1  0
 13 14  1  0
 14 15  1  1
 15 16  2  0
 18 17  1  6
 18 20  1  0
 19 18  1  0
 20 21  1  6
 20 22  1  0
 21 15  1  0
 22 23  2  0
 22 24  1  0
M  END
$$$$
