EPV.pdb
     RDKit          3D

 24 24  0  0  1  0  0  0  0  0999 V2000
   24.6090  -21.6816  -15.9992 N   0  0  0  0  0  0  0  0  0  0  0  0
   25.4569  -20.7332  -15.3476 C   0  0  1  0  0  0  0  0  0  0  0  0
   24.7747  -19.3853  -15.5085 C   0  0  0  0  0  0  0  0  0  0  0  0
   23.5560  -19.5110  -16.3745 C   0  0  0  0  0  0  0  0  0  0  0  0
   22.3122  -19.1669  -15.6234 C   0  0  0  0  0  0  0  0  0  0  0  0
   22.3093  -18.2664  -14.7654 O   0  0  0  0  0  0  0  0  0  0  0  0
   25.8473  -21.0318  -13.9687 C   0  0  0  0  0  0  0  0  0  0  0  0
   24.8497  -21.1729  -13.1632 O   0  0  0  0  0  0  0  0  0  0  0  0
   21.1704  -19.8911  -15.9236 O   0  0  0  0  0  0  0  0  0  0  0  0
   27.1176  -21.1828  -13.4137 N   0  0  0  0  0  0  0  0  0  0  0  0
   28.1916  -22.0102  -13.9806 C   0  0  0  0  0  0  0  0  0  0  0  0
   29.2680  -20.9153  -14.0822 C   0  0  0  0  0  0  0  0  0  0  0  0
   28.9495  -19.9407  -12.9352 C   0  0  0  0  0  0  0  0  0  0  0  0
   27.8063  -20.6881  -12.2608 C   0  0  1  0  0  0  0  0  0  0  0  0
   27.1302  -19.9567  -11.2419 C   0  0  0  0  0  0  0  0  0  0  0  0
   26.6203  -18.8216  -11.2403 O   0  0  0  0  0  0  0  0  0  0  0  0
   25.3364  -22.1555   -8.0705 C   0  0  0  0  0  0  0  0  0  0  0  0
   25.0513  -20.7291   -8.4902 C   0  0  1  0  0  0  0  0  0  0  0  0
   24.3312  -20.0512   -7.3506 C   0  0  0  0  0  0  0  0  0  0  0  0
   26.3362  -20.0155   -8.8427 C   0  0  2  0  0  0  0  0  0  0  0  0
   27.0014  -20.6406   -9.9659 N   0  0  0  0  0  0  0  0  0  0  0  0
   27.2081  -19.9851   -7.6388 C   0  0  0  0  0  0  0  0  0  0  0  0
   28.1018  -20.8586   -7.5405 O   0  0  0  0  0  0  0  0  0  0  0  0
   27.0935  -19.0564   -6.6263 O   0  0  0  0  0  0  0  0  0  0  0  0
  2  1  1  1
  2  3  1  0
  3  4  1  0
  4  5  1  0
  5  9  1  0
  5  6  2  0
  7  2  1  0
  8  7  2  0
 10  7  1  0
 10 14  1  0
 11 12  1  0
 11 10  1  0
 12 13  1  0
 13 14  1  0
 14 15  1  6
 15 16  2  0
 18 17  1  1
 18 20  1  0
 19 18  1  0
 20 21  1  6
 20 22  1  0
 21 15  1  0
 22 23  2  0
 22 24  1  0
M  END
$$$$
