EPV.pdb
     RDKit          3D

 24 24  0  0  1  0  0  0  0  0999 V2000
   18.8890  -13.0627  -16.0705 N   0  0  0  0  0  0  0  0  0  0  0  0
   19.4530  -11.9293  -16.7341 C   0  0  1  0  0  0  0  0  0  0  0  0
   18.3459  -11.3652  -17.6083 C   0  0  0  0  0  0  0  0  0  0  0  0
   17.6580  -12.4644  -18.3631 C   0  0  0  0  0  0  0  0  0  0  0  0
   16.4970  -11.9475  -19.1469 C   0  0  0  0  0  0  0  0  0  0  0  0
   16.1739  -10.7473  -19.0989 O   0  0  0  0  0  0  0  0  0  0  0  0
   20.1038  -10.9249  -15.8912 C   0  0  0  0  0  0  0  0  0  0  0  0
   19.2898  -10.2784  -15.1275 O   0  0  0  0  0  0  0  0  0  0  0  0
   15.8015  -12.8589  -19.9242 O   0  0  0  0  0  0  0  0  0  0  0  0
   21.4504  -10.5751  -15.7980 N   0  0  0  0  0  0  0  0  0  0  0  0
   22.5566  -11.5249  -15.6141 C   0  0  0  0  0  0  0  0  0  0  0  0
   23.3873  -11.1197  -16.8444 C   0  0  0  0  0  0  0  0  0  0  0  0
   23.0775   -9.6277  -17.0561 C   0  0  0  0  0  0  0  0  0  0  0  0
   22.2070   -9.3608  -15.8349 C   0  0  1  0  0  0  0  0  0  0  0  0
   21.5743   -8.0842  -15.8168 C   0  0  0  0  0  0  0  0  0  0  0  0
   20.7223   -7.5742  -16.5668 O   0  0  0  0  0  0  0  0  0  0  0  0
   20.0950   -4.2878  -13.2525 C   0  0  0  0  0  0  0  0  0  0  0  0
   20.6713   -5.6854  -13.3335 C   0  0  1  0  0  0  0  0  0  0  0  0
   19.5239   -6.6606  -13.2367 C   0  0  0  0  0  0  0  0  0  0  0  0
   21.4484   -5.8625  -14.6177 C   0  0  2  0  0  0  0  0  0  0  0  0
   21.9827   -7.2023  -14.7361 N   0  0  0  0  0  0  0  0  0  0  0  0
   22.5250   -4.8383  -14.6662 C   0  0  0  0  0  0  0  0  0  0  0  0
   23.6007   -5.0906  -14.0740 O   0  0  0  0  0  0  0  0  0  0  0  0
   22.4124   -3.6307  -15.3218 O   0  0  0  0  0  0  0  0  0  0  0  0
  2  1  1  1
  2  3  1  0
  3  4  1  0
  4  5  1  0
  5  9  1  0
  5  6  2  0
  7  2  1  0
  8  7  2  0
 10  7  1  0
 10 14  1  0
 11 12  1  0
 11 10  1  0
 12 13  1  0
 13 14  1  0
 14 15  1  6
 15 16  2  0
 18 17  1  6
 18 20  1  0
 19 18  1  0
 20 21  1  1
 20 22  1  0
 21 15  1  0
 22 23  2  0
 22 24  1  0
M  END
$$$$
