EPV.pdb
     RDKit          3D

 24 24  0  0  1  0  0  0  0  0999 V2000
   27.5779  -21.9852  -17.2836 N   0  0  0  0  0  0  0  0  0  0  0  0
   27.8247  -20.9013  -16.3852 C   0  0  1  0  0  0  0  0  0  0  0  0
   27.1189  -19.6960  -16.9830 C   0  0  0  0  0  0  0  0  0  0  0  0
   27.7367  -19.3216  -18.2980 C   0  0  0  0  0  0  0  0  0  0  0  0
   28.1557  -17.8886  -18.3183 C   0  0  0  0  0  0  0  0  0  0  0  0
   29.2844  -17.5559  -18.7214 O   0  0  0  0  0  0  0  0  0  0  0  0
   27.5077  -21.1259  -14.9739 C   0  0  0  0  0  0  0  0  0  0  0  0
   26.2485  -21.2802  -14.7404 O   0  0  0  0  0  0  0  0  0  0  0  0
   27.2368  -16.9537  -17.8710 O   0  0  0  0  0  0  0  0  0  0  0  0
   28.3555  -21.1958  -13.8689 N   0  0  0  0  0  0  0  0  0  0  0  0
   29.6113  -21.9574  -13.8177 C   0  0  0  0  0  0  0  0  0  0  0  0
   30.5432  -20.7984  -13.4225 C   0  0  0  0  0  0  0  0  0  0  0  0
   29.6580  -19.8410  -12.6058 C   0  0  0  0  0  0  0  0  0  0  0  0
   28.3721  -20.6551  -12.5440 C   0  0  1  0  0  0  0  0  0  0  0  0
   27.2495  -19.9630  -12.0043 C   0  0  0  0  0  0  0  0  0  0  0  0
   26.7952  -18.8262  -12.2270 O   0  0  0  0  0  0  0  0  0  0  0  0
   23.9787  -21.9445  -12.0792 C   0  0  0  0  0  0  0  0  0  0  0  0
   24.1700  -20.4727  -11.7806 C   0  0  1  0  0  0  0  0  0  0  0  0
   22.8159  -19.8912  -11.4559 C   0  0  0  0  0  0  0  0  0  0  0  0
   25.1455  -20.2874  -10.6413 C   0  0  2  0  0  0  0  0  0  0  0  0
   26.4825  -20.6987  -11.0129 N   0  0  0  0  0  0  0  0  0  0  0  0
   24.6483  -21.0449   -9.4625 C   0  0  0  0  0  0  0  0  0  0  0  0
   25.1780  -22.1533   -9.2125 O   0  0  0  0  0  0  0  0  0  0  0  0
   23.6424  -20.6032   -8.6296 O   0  0  0  0  0  0  0  0  0  0  0  0
  2  1  1  6
  2  3  1  0
  3  4  1  0
  4  5  1  0
  5  9  1  0
  5  6  2  0
  7  2  1  0
  8  7  2  0
 10  7  1  0
 10 14  1  0
 11 12  1  0
 11 10  1  0
 12 13  1  0
 13 14  1  0
 14 15  1  6
 15 16  2  0
 18 17  1  1
 18 20  1  0
 19 18  1  0
 20 21  1  6
 20 22  1  0
 21 15  1  0
 22 23  2  0
 22 24  1  0
M  END
$$$$
