EPV.pdb
     RDKit          3D

 24 24  0  0  1  0  0  0  0  0999 V2000
   19.2015  -10.4379  -15.0918 N   0  0  0  0  0  0  0  0  0  0  0  0
   19.5249   -9.0764  -14.8005 C   0  0  1  0  0  0  0  0  0  0  0  0
   19.1633   -8.2867  -16.0470 C   0  0  0  0  0  0  0  0  0  0  0  0
   17.7794   -8.6357  -16.5095 C   0  0  0  0  0  0  0  0  0  0  0  0
   16.9724   -7.4123  -16.7955 C   0  0  0  0  0  0  0  0  0  0  0  0
   15.9529   -7.1472  -16.1341 O   0  0  0  0  0  0  0  0  0  0  0  0
   18.9703   -8.5133  -13.5684 C   0  0  0  0  0  0  0  0  0  0  0  0
   17.7487   -8.8592  -13.3406 O   0  0  0  0  0  0  0  0  0  0  0  0
   17.4079   -6.5924  -17.8235 O   0  0  0  0  0  0  0  0  0  0  0  0
   19.5624   -7.6741  -12.6252 N   0  0  0  0  0  0  0  0  0  0  0  0
   20.9630   -7.7544  -12.1877 C   0  0  0  0  0  0  0  0  0  0  0  0
   21.3683   -6.3067  -12.5157 C   0  0  0  0  0  0  0  0  0  0  0  0
   20.0776   -5.4869  -12.3447 C   0  0  0  0  0  0  0  0  0  0  0  0
   19.1432   -6.5687  -11.8186 C   0  0  1  0  0  0  0  0  0  0  0  0
   17.7737   -6.1859  -11.7276 C   0  0  0  0  0  0  0  0  0  0  0  0
   16.9404   -5.8858  -12.6017 O   0  0  0  0  0  0  0  0  0  0  0  0
   15.1281   -8.0322   -9.7270 C   0  0  0  0  0  0  0  0  0  0  0  0
   15.1585   -6.6220   -9.1771 C   0  0  1  0  0  0  0  0  0  0  0  0
   15.8429   -6.6688   -7.8331 C   0  0  0  0  0  0  0  0  0  0  0  0
   15.8720   -5.6967  -10.1357 C   0  0  2  0  0  0  0  0  0  0  0  0
   17.2315   -6.1289  -10.3804 N   0  0  0  0  0  0  0  0  0  0  0  0
   15.8279   -4.3165   -9.5847 C   0  0  0  0  0  0  0  0  0  0  0  0
   16.8454   -3.8908   -8.9889 O   0  0  0  0  0  0  0  0  0  0  0  0
   14.7384   -3.4782   -9.6894 O   0  0  0  0  0  0  0  0  0  0  0  0
  2  1  1  6
  2  3  1  0
  3  4  1  0
  4  5  1  0
  5  9  1  0
  5  6  2  0
  7  2  1  0
  8  7  2  0
 10  7  1  0
 10 14  1  0
 11 12  1  0
 11 10  1  0
 12 13  1  0
 13 14  1  0
 14 15  1  6
 15 16  2  0
 18 17  1  6
 18 20  1  0
 19 18  1  0
 20 21  1  1
 20 22  1  0
 21 15  1  0
 22 23  2  0
 22 24  1  0
M  END
$$$$
