EPV.pdb
     RDKit          3D

 24 24  0  0  1  0  0  0  0  0999 V2000
   23.7986  -20.0840  -18.2712 N   0  0  0  0  0  0  0  0  0  0  0  0
   24.5671  -19.1153  -17.5543 C   0  0  1  0  0  0  0  0  0  0  0  0
   23.7428  -17.8391  -17.5647 C   0  0  0  0  0  0  0  0  0  0  0  0
   22.7821  -17.8224  -16.4124 C   0  0  0  0  0  0  0  0  0  0  0  0
   21.9731  -16.5675  -16.3916 C   0  0  0  0  0  0  0  0  0  0  0  0
   22.2110  -15.6377  -17.1828 O   0  0  0  0  0  0  0  0  0  0  0  0
   25.0382  -19.4981  -16.2222 C   0  0  0  0  0  0  0  0  0  0  0  0
   24.0890  -19.7364  -15.3820 O   0  0  0  0  0  0  0  0  0  0  0  0
   20.9533  -16.4869  -15.4579 O   0  0  0  0  0  0  0  0  0  0  0  0
   26.3399  -19.6392  -15.7425 N   0  0  0  0  0  0  0  0  0  0  0  0
   27.4941  -20.0591  -16.5494 C   0  0  0  0  0  0  0  0  0  0  0  0
   28.4004  -18.8486  -16.2644 C   0  0  0  0  0  0  0  0  0  0  0  0
   27.9979  -18.3768  -14.8564 C   0  0  0  0  0  0  0  0  0  0  0  0
   27.0015  -19.4674  -14.4851 C   0  0  1  0  0  0  0  0  0  0  0  0
   26.2739  -19.2310  -13.2830 C   0  0  0  0  0  0  0  0  0  0  0  0
   25.8637  -18.1793  -12.7593 O   0  0  0  0  0  0  0  0  0  0  0  0
   23.3366  -21.7853  -12.0193 C   0  0  0  0  0  0  0  0  0  0  0  0
   23.7120  -20.4131  -11.5017 C   0  0  1  0  0  0  0  0  0  0  0  0
   22.9360  -20.1748  -10.2297 C   0  0  0  0  0  0  0  0  0  0  0  0
   25.2031  -20.3252  -11.2715 C   0  0  2  0  0  0  0  0  0  0  0  0
   25.9400  -20.4181  -12.5137 N   0  0  0  0  0  0  0  0  0  0  0  0
   25.6003  -21.3953  -10.3189 C   0  0  0  0  0  0  0  0  0  0  0  0
   26.1282  -22.4310  -10.7882 O   0  0  0  0  0  0  0  0  0  0  0  0
   25.4238  -21.3178   -8.9538 O   0  0  0  0  0  0  0  0  0  0  0  0
  2  1  1  1
  2  3  1  0
  3  4  1  0
  4  5  1  0
  5  9  1  0
  5  6  2  0
  7  2  1  0
  8  7  2  0
 10  7  1  0
 10 14  1  0
 11 12  1  0
 11 10  1  0
 12 13  1  0
 13 14  1  0
 14 15  1  1
 15 16  2  0
 18 17  1  1
 18 20  1  0
 19 18  1  0
 20 21  1  6
 20 22  1  0
 21 15  1  0
 22 23  2  0
 22 24  1  0
M  END
$$$$
