EPV.pdb
     RDKit          3D

 24 24  0  0  1  0  0  0  0  0999 V2000
   18.4751  -13.1790  -16.9531 N   0  0  0  0  0  0  0  0  0  0  0  0
   19.0244  -12.0414  -17.6219 C   0  0  1  0  0  0  0  0  0  0  0  0
   17.8744  -11.4164  -18.3932 C   0  0  0  0  0  0  0  0  0  0  0  0
   16.8948  -10.7771  -17.4535 C   0  0  0  0  0  0  0  0  0  0  0  0
   16.5595   -9.3846  -17.8756 C   0  0  0  0  0  0  0  0  0  0  0  0
   16.0103   -9.1602  -18.9687 O   0  0  0  0  0  0  0  0  0  0  0  0
   19.7672  -11.0849  -16.7996 C   0  0  0  0  0  0  0  0  0  0  0  0
   19.0924  -10.6184  -15.8042 O   0  0  0  0  0  0  0  0  0  0  0  0
   16.8859   -8.3618  -17.0005 O   0  0  0  0  0  0  0  0  0  0  0  0
   21.0735  -10.6164  -16.9361 N   0  0  0  0  0  0  0  0  0  0  0  0
   22.2320  -11.4450  -17.2976 C   0  0  0  0  0  0  0  0  0  0  0  0
   22.6916  -10.6384  -18.5249 C   0  0  0  0  0  0  0  0  0  0  0  0
   22.2682   -9.1897  -18.2263 C   0  0  0  0  0  0  0  0  0  0  0  0
   21.7368   -9.3547  -16.8084 C   0  0  1  0  0  0  0  0  0  0  0  0
   21.0724   -8.2102  -16.2800 C   0  0  0  0  0  0  0  0  0  0  0  0
   20.0154   -7.6430  -16.6109 O   0  0  0  0  0  0  0  0  0  0  0  0
   21.6756   -7.3026  -12.2313 C   0  0  0  0  0  0  0  0  0  0  0  0
   20.5836   -6.7796  -13.1402 C   0  0  1  0  0  0  0  0  0  0  0  0
   19.9579   -5.5845  -12.4641 C   0  0  0  0  0  0  0  0  0  0  0  0
   21.1502   -6.4222  -14.4950 C   0  0  2  0  0  0  0  0  0  0  0  0
   21.7302   -7.5748  -15.1504 N   0  0  0  0  0  0  0  0  0  0  0  0
   22.1475   -5.3333  -14.3202 C   0  0  0  0  0  0  0  0  0  0  0  0
   23.3487   -5.6580  -14.1681 O   0  0  0  0  0  0  0  0  0  0  0  0
   21.8319   -3.9913  -14.3156 O   0  0  0  0  0  0  0  0  0  0  0  0
  2  1  1  1
  2  3  1  0
  3  4  1  0
  4  5  1  0
  5  9  1  0
  5  6  2  0
  7  2  1  0
  8  7  2  0
 10  7  1  0
 10 14  1  0
 11 12  1  0
 11 10  1  0
 12 13  1  0
 13 14  1  0
 14 15  1  6
 15 16  2  0
 18 17  1  1
 18 20  1  0
 19 18  1  0
 20 21  1  1
 20 22  1  0
 21 15  1  0
 22 23  2  0
 22 24  1  0
M  END
$$$$
