EPV.pdb
     RDKit          3D

 24 24  0  0  1  0  0  0  0  0999 V2000
   17.9260  -14.2734  -17.3474 N   0  0  0  0  0  0  0  0  0  0  0  0
   17.4329  -12.9358  -17.2443 C   0  0  1  0  0  0  0  0  0  0  0  0
   16.3969  -12.9583  -16.1334 C   0  0  0  0  0  0  0  0  0  0  0  0
   15.3243  -13.9638  -16.4328 C   0  0  0  0  0  0  0  0  0  0  0  0
   14.3234  -14.0428  -15.3275 C   0  0  0  0  0  0  0  0  0  0  0  0
   13.9833  -13.0266  -14.6961 O   0  0  0  0  0  0  0  0  0  0  0  0
   18.4285  -11.8729  -17.0961 C   0  0  0  0  0  0  0  0  0  0  0  0
   19.1776  -12.0017  -16.0539 O   0  0  0  0  0  0  0  0  0  0  0  0
   13.7951  -15.2904  -15.0396 O   0  0  0  0  0  0  0  0  0  0  0  0
   18.6774  -10.7642  -17.9045 N   0  0  0  0  0  0  0  0  0  0  0  0
   18.7251  -10.7864  -19.3731 C   0  0  0  0  0  0  0  0  0  0  0  0
   17.6625   -9.7043  -19.6335 C   0  0  0  0  0  0  0  0  0  0  0  0
   17.7520   -8.7628  -18.4200 C   0  0  0  0  0  0  0  0  0  0  0  0
   18.9452   -9.3738  -17.6967 C   0  0  1  0  0  0  0  0  0  0  0  0
   19.1932   -8.8457  -16.3967 C   0  0  0  0  0  0  0  0  0  0  0  0
   18.4764   -8.7801  -15.3816 O   0  0  0  0  0  0  0  0  0  0  0  0
   21.6395   -9.7531  -13.8528 C   0  0  0  0  0  0  0  0  0  0  0  0
   22.0474   -8.3629  -14.2920 C   0  0  1  0  0  0  0  0  0  0  0  0
   23.2155   -8.5048  -15.2365 C   0  0  0  0  0  0  0  0  0  0  0  0
   20.8839   -7.6527  -14.9449 C   0  0  2  0  0  0  0  0  0  0  0  0
   20.5153   -8.2758  -16.1981 N   0  0  0  0  0  0  0  0  0  0  0  0
   21.2446   -6.2224  -15.1307 C   0  0  0  0  0  0  0  0  0  0  0  0
   21.3288   -5.5018  -14.1083 O   0  0  0  0  0  0  0  0  0  0  0  0
   21.4916   -5.6417  -16.3565 O   0  0  0  0  0  0  0  0  0  0  0  0
  2  1  1  1
  2  3  1  0
  3  4  1  0
  4  5  1  0
  5  9  1  0
  5  6  2  0
  7  2  1  0
  8  7  2  0
 10  7  1  0
 10 14  1  0
 11 12  1  0
 11 10  1  0
 12 13  1  0
 13 14  1  0
 14 15  1  1
 15 16  2  0
 18 17  1  6
 18 20  1  0
 19 18  1  0
 20 21  1  6
 20 22  1  0
 21 15  1  0
 22 23  2  0
 22 24  1  0
M  END
$$$$
