EPV.pdb
     RDKit          3D

 24 24  0  0  1  0  0  0  0  0999 V2000
   24.6618  -21.9420  -12.1717 N   0  0  0  0  0  0  0  0  0  0  0  0
   25.6518  -20.9708  -11.8258 C   0  0  1  0  0  0  0  0  0  0  0  0
   24.9865  -19.6166  -12.0032 C   0  0  0  0  0  0  0  0  0  0  0  0
   25.1781  -19.1143  -13.4039 C   0  0  0  0  0  0  0  0  0  0  0  0
   24.0613  -19.5432  -14.2974 C   0  0  0  0  0  0  0  0  0  0  0  0
   24.1808  -19.5097  -15.5350 O   0  0  0  0  0  0  0  0  0  0  0  0
   26.3144  -21.1334  -10.5306 C   0  0  0  0  0  0  0  0  0  0  0  0
   25.5171  -21.0367   -9.5212 O   0  0  0  0  0  0  0  0  0  0  0  0
   22.8948  -19.9769  -13.6894 O   0  0  0  0  0  0  0  0  0  0  0  0
   27.6567  -21.3732  -10.2388 N   0  0  0  0  0  0  0  0  0  0  0  0
   28.5190  -22.3205  -10.9589 C   0  0  0  0  0  0  0  0  0  0  0  0
   29.6336  -21.3341  -11.3493 C   0  0  0  0  0  0  0  0  0  0  0  0
   29.6409  -20.2821  -10.2267 C   0  0  0  0  0  0  0  0  0  0  0  0
   28.6087  -20.8900   -9.2857 C   0  0  1  0  0  0  0  0  0  0  0  0
   28.2213  -20.0533   -8.1994 C   0  0  0  0  0  0  0  0  0  0  0  0
   27.6682  -18.9390   -8.1718 O   0  0  0  0  0  0  0  0  0  0  0  0
   29.0695  -21.5650   -4.1420 C   0  0  0  0  0  0  0  0  0  0  0  0
   27.8544  -20.7477   -4.5257 C   0  0  1  0  0  0  0  0  0  0  0  0
   27.4177  -19.9750   -3.3054 C   0  0  0  0  0  0  0  0  0  0  0  0
   28.1789  -19.8299   -5.6818 C   0  0  2  0  0  0  0  0  0  0  0  0
   28.5157  -20.5758   -6.8755 N   0  0  0  0  0  0  0  0  0  0  0  0
   29.2847  -18.9241   -5.2730 C   0  0  0  0  0  0  0  0  0  0  0  0
   30.4543  -19.2489   -5.5861 O   0  0  0  0  0  0  0  0  0  0  0  0
   29.1022  -17.7510   -4.5720 O   0  0  0  0  0  0  0  0  0  0  0  0
  2  1  1  1
  2  3  1  0
  3  4  1  0
  4  5  1  0
  5  9  1  0
  5  6  2  0
  7  2  1  0
  8  7  2  0
 10  7  1  0
 10 14  1  0
 11 12  1  0
 11 10  1  0
 12 13  1  0
 13 14  1  0
 14 15  1  1
 15 16  2  0
 18 17  1  1
 18 20  1  0
 19 18  1  0
 20 21  1  6
 20 22  1  0
 21 15  1  0
 22 23  2  0
 22 24  1  0
M  END
$$$$
