EPV.pdb
     RDKit          3D

 24 24  0  0  1  0  0  0  0  0999 V2000
   23.6714  -20.9156  -16.0538 N   0  0  0  0  0  0  0  0  0  0  0  0
   24.5417  -20.0154  -15.3645 C   0  0  1  0  0  0  0  0  0  0  0  0
   23.7867  -18.7008  -15.2646 C   0  0  0  0  0  0  0  0  0  0  0  0
   22.8036  -18.5702  -16.3905 C   0  0  0  0  0  0  0  0  0  0  0  0
   21.5266  -17.9461  -15.9332 C   0  0  0  0  0  0  0  0  0  0  0  0
   20.7344  -18.5674  -15.2028 O   0  0  0  0  0  0  0  0  0  0  0  0
   25.0920  -20.4739  -14.0879 C   0  0  0  0  0  0  0  0  0  0  0  0
   24.2031  -20.6500  -13.1700 O   0  0  0  0  0  0  0  0  0  0  0  0
   21.2664  -16.6532  -16.3566 O   0  0  0  0  0  0  0  0  0  0  0  0
   26.4130  -20.7423  -13.7305 N   0  0  0  0  0  0  0  0  0  0  0  0
   27.3675  -21.5064  -14.5457 C   0  0  0  0  0  0  0  0  0  0  0  0
   28.4737  -20.4399  -14.6277 C   0  0  0  0  0  0  0  0  0  0  0  0
   28.3472  -19.6384  -13.3205 C   0  0  0  0  0  0  0  0  0  0  0  0
   27.2626  -20.4449  -12.6180 C   0  0  1  0  0  0  0  0  0  0  0  0
   26.7541  -19.8544  -11.4250 C   0  0  0  0  0  0  0  0  0  0  0  0
   26.2774  -18.7273  -11.1998 O   0  0  0  0  0  0  0  0  0  0  0  0
   25.0688  -20.6281   -6.8870 C   0  0  0  0  0  0  0  0  0  0  0  0
   25.3832  -21.1146   -8.2857 C   0  0  1  0  0  0  0  0  0  0  0  0
   24.0864  -21.1656   -9.0556 C   0  0  0  0  0  0  0  0  0  0  0  0
   26.3908  -20.2033   -8.9479 C   0  0  2  0  0  0  0  0  0  0  0  0
   26.7888  -20.7039  -10.2462 N   0  0  0  0  0  0  0  0  0  0  0  0
   27.5582  -20.0474   -8.0406 C   0  0  0  0  0  0  0  0  0  0  0  0
   28.5049  -20.8606   -8.1590 O   0  0  0  0  0  0  0  0  0  0  0  0
   27.6626  -19.0648   -7.0792 O   0  0  0  0  0  0  0  0  0  0  0  0
  2  1  1  1
  2  3  1  0
  3  4  1  0
  4  5  1  0
  5  9  1  0
  5  6  2  0
  7  2  1  0
  8  7  2  0
 10  7  1  0
 10 14  1  0
 11 12  1  0
 11 10  1  0
 12 13  1  0
 13 14  1  0
 14 15  1  1
 15 16  2  0
 18 17  1  1
 18 20  1  0
 19 18  1  0
 20 21  1  6
 20 22  1  0
 21 15  1  0
 22 23  2  0
 22 24  1  0
M  END
$$$$
