EPV.pdb
     RDKit          3D

 24 24  0  0  1  0  0  0  0  0999 V2000
   15.2225  -18.6123    3.1895 N   0  0  0  0  0  0  0  0  0  0  0  0
   15.9861  -18.5730    4.3971 C   0  0  1  0  0  0  0  0  0  0  0  0
   17.1180  -19.5683    4.2067 C   0  0  0  0  0  0  0  0  0  0  0  0
   16.5757  -20.9557    4.0273 C   0  0  0  0  0  0  0  0  0  0  0  0
   17.6709  -21.9497    3.8218 C   0  0  0  0  0  0  0  0  0  0  0  0
   18.8649  -21.6019    3.8413 O   0  0  0  0  0  0  0  0  0  0  0  0
   16.4338  -17.2565    4.8546 C   0  0  0  0  0  0  0  0  0  0  0  0
   17.2643  -16.6806    4.0532 O   0  0  0  0  0  0  0  0  0  0  0  0
   17.2989  -23.2670    3.6100 O   0  0  0  0  0  0  0  0  0  0  0  0
   16.0969  -16.5510    6.0093 N   0  0  0  0  0  0  0  0  0  0  0  0
   14.7424  -16.4515    6.5705 C   0  0  0  0  0  0  0  0  0  0  0  0
   15.0600  -16.9820    7.9796 C   0  0  0  0  0  0  0  0  0  0  0  0
   16.5227  -16.5782    8.2332 C   0  0  0  0  0  0  0  0  0  0  0  0
   16.7946  -15.7606    6.9771 C   0  0  1  0  0  0  0  0  0  0  0  0
   18.1552  -15.3801    6.7919 C   0  0  0  0  0  0  0  0  0  0  0  0
   19.1805  -16.0547    6.5864 O   0  0  0  0  0  0  0  0  0  0  0  0
   19.3398  -12.4276    4.5285 C   0  0  0  0  0  0  0  0  0  0  0  0
   19.8159  -12.1623    5.9409 C   0  0  1  0  0  0  0  0  0  0  0  0
   18.9397  -11.0814    6.5246 C   0  0  0  0  0  0  0  0  0  0  0  0
   19.7627  -13.4295    6.7629 C   0  0  2  0  0  0  0  0  0  0  0  0
   18.4156  -13.9514    6.8498 N   0  0  0  0  0  0  0  0  0  0  0  0
   20.3272  -13.1464    8.1089 C   0  0  0  0  0  0  0  0  0  0  0  0
   19.5251  -12.9890    9.0593 O   0  0  0  0  0  0  0  0  0  0  0  0
   21.6764  -13.0469    8.3745 O   0  0  0  0  0  0  0  0  0  0  0  0
  2  1  1  6
  2  3  1  0
  3  4  1  0
  4  5  1  0
  5  9  1  0
  5  6  2  0
  7  2  1  0
  8  7  2  0
 10  7  1  0
 10 14  1  0
 11 12  1  0
 11 10  1  0
 12 13  1  0
 13 14  1  0
 14 15  1  6
 15 16  2  0
 18 17  1  6
 18 20  1  0
 19 18  1  0
 20 21  1  1
 20 22  1  0
 21 15  1  0
 22 23  2  0
 22 24  1  0
M  END
$$$$
