EPV.pdb
     RDKit          3D

 24 24  0  0  1  0  0  0  0  0999 V2000
   20.9069  -13.3739  -17.1535 N   0  0  0  0  0  0  0  0  0  0  0  0
   21.3799  -12.0958  -17.5845 C   0  0  1  0  0  0  0  0  0  0  0  0
   21.1655  -12.0578  -19.0881 C   0  0  0  0  0  0  0  0  0  0  0  0
   21.8006  -10.8345  -19.6807 C   0  0  0  0  0  0  0  0  0  0  0  0
   21.5420  -10.7392  -21.1482 C   0  0  0  0  0  0  0  0  0  0  0  0
   21.7845   -9.6930  -21.7758 O   0  0  0  0  0  0  0  0  0  0  0  0
   20.8489  -10.9236  -16.8868 C   0  0  0  0  0  0  0  0  0  0  0  0
   19.8680  -10.3522  -17.4992 O   0  0  0  0  0  0  0  0  0  0  0  0
   21.0235  -11.8608  -21.7740 O   0  0  0  0  0  0  0  0  0  0  0  0
   21.2440  -10.3491  -15.6791 N   0  0  0  0  0  0  0  0  0  0  0  0
   21.6646  -11.0990  -14.4874 C   0  0  0  0  0  0  0  0  0  0  0  0
   23.0437  -10.4419  -14.3025 C   0  0  0  0  0  0  0  0  0  0  0  0
   22.8793   -9.0161  -14.8567 C   0  0  0  0  0  0  0  0  0  0  0  0
   21.3877   -9.0211  -15.1654 C   0  0  1  0  0  0  0  0  0  0  0  0
   20.9210   -7.8849  -15.8877 C   0  0  0  0  0  0  0  0  0  0  0  0
   21.0917   -7.5295  -17.0679 O   0  0  0  0  0  0  0  0  0  0  0  0
   17.1816   -6.6192  -15.2834 C   0  0  0  0  0  0  0  0  0  0  0  0
   18.1399   -6.1541  -16.3593 C   0  0  1  0  0  0  0  0  0  0  0  0
   17.5153   -4.9648  -17.0465 C   0  0  0  0  0  0  0  0  0  0  0  0
   19.4829   -5.8101  -15.7575 C   0  0  2  0  0  0  0  0  0  0  0  0
   20.0950   -6.9609  -15.1285 N   0  0  0  0  0  0  0  0  0  0  0  0
   19.2991   -4.6933  -14.7934 C   0  0  0  0  0  0  0  0  0  0  0  0
   19.0446   -4.9847  -13.6010 O   0  0  0  0  0  0  0  0  0  0  0  0
   19.3916   -3.3597  -15.1305 O   0  0  0  0  0  0  0  0  0  0  0  0
  2  1  1  1
  2  3  1  0
  3  4  1  0
  4  5  1  0
  5  9  1  0
  5  6  2  0
  7  2  1  0
  8  7  2  0
 10  7  1  0
 10 14  1  0
 11 12  1  0
 11 10  1  0
 12 13  1  0
 13 14  1  0
 14 15  1  6
 15 16  2  0
 18 17  1  1
 18 20  1  0
 19 18  1  0
 20 21  1  1
 20 22  1  0
 21 15  1  0
 22 23  2  0
 22 24  1  0
M  END
$$$$
