NNL.pdb
     RDKit          3D

 25 24  0  0  1  0  0  0  0  0999 V2000
    8.5980  -13.6301   16.8352 N   0  0  0  0  0  0  0  0  0  0  0  0
    8.5041  -12.8530   18.0120 C   0  0  0  0  0  0  0  0  0  0  0  0
    8.6070  -11.6103   17.8982 O   0  0  0  0  0  0  0  0  0  0  0  0
    8.2940  -13.4481   19.3356 C   0  0  0  0  0  0  0  0  0  0  0  0
    8.3239  -14.9525   19.2514 C   0  0  2  0  0  0  0  0  0  0  0  0
    7.2967  -15.4384   18.3602 N   0  0  0  0  0  0  0  0  0  0  0  0
    8.1940  -15.5807   20.5842 C   0  0  0  0  0  0  0  0  0  0  0  0
    7.0764  -15.8027   21.1266 O   0  0  0  0  0  0  0  0  0  0  0  0
   11.5789  -18.9140   20.8045 N   0  0  0  0  0  0  0  0  0  0  0  0
   10.5323  -18.7226   21.7276 C   0  0  0  0  0  0  0  0  0  0  0  0
    9.5604  -19.5218   21.7640 O   0  0  0  0  0  0  0  0  0  0  0  0
   10.5692  -17.5776   22.6627 C   0  0  0  0  0  0  0  0  0  0  0  0
    9.3457  -16.6894   22.5258 C   0  0  2  0  0  0  0  0  0  0  0  0
    9.3708  -15.9494   21.2829 N   0  0  0  0  0  0  0  0  0  0  0  0
    9.4327  -15.7066   23.6454 C   0  0  0  0  0  0  0  0  0  0  0  0
    9.7341  -14.5219   23.3522 O   0  0  0  0  0  0  0  0  0  0  0  0
    7.9586  -11.9871   26.0362 C   0  0  0  0  0  0  0  0  0  0  0  0
    7.2098  -13.2880   26.4802 C   0  0  1  0  0  0  0  0  0  0  0  0
    5.7698  -12.9503   26.3329 C   0  0  0  0  0  0  0  0  0  0  0  0
    7.7789  -14.3521   25.6455 C   0  0  0  0  0  0  0  0  0  0  0  0
    9.0460  -15.0275   25.9982 C   0  0  2  0  0  0  0  0  0  0  0  0
    9.1835  -16.1051   24.9807 N   0  0  0  0  0  0  0  0  0  0  0  0
    8.9842  -15.6847   27.3075 C   0  0  0  0  0  0  0  0  0  0  0  0
    9.6709  -15.0732   28.3820 O   0  0  0  0  0  0  0  0  0  0  0  0
    8.3868  -16.7417   27.5966 O   0  0  0  0  0  0  0  0  0  0  0  0
  1  2  1  0
  2  3  2  0
  4  2  1  0
  5  4  1  0
  5  6  1  6
  7  8  2  0
  7  5  1  0
 10  9  1  0
 10 12  1  0
 11 10  2  0
 13 12  1  6
 13 14  1  0
 14  7  1  0
 15 22  1  0
 15 13  1  0
 16 15  2  0
 18 19  1  6
 18 17  1  0
 20 18  1  0
 21 20  1  6
 21 22  1  0
 23 21  1  0
 24 23  1  0
 25 23  2  0
M  END
$$$$
