NNL.pdb
     RDKit          3D

 25 24  0  0  1  0  0  0  0  0999 V2000
   11.7514  -17.4942   17.3318 N   0  0  0  0  0  0  0  0  0  0  0  0
   10.7524  -16.8067   18.0577 C   0  0  0  0  0  0  0  0  0  0  0  0
   10.4923  -15.6300   17.7177 O   0  0  0  0  0  0  0  0  0  0  0  0
   10.0264  -17.4194   19.1747 C   0  0  0  0  0  0  0  0  0  0  0  0
   10.2439  -16.6344   20.4426 C   0  0  2  0  0  0  0  0  0  0  0  0
   11.6521  -16.4181   20.6786 N   0  0  0  0  0  0  0  0  0  0  0  0
    9.6170  -17.2909   21.6104 C   0  0  0  0  0  0  0  0  0  0  0  0
    8.3846  -17.5574   21.6618 O   0  0  0  0  0  0  0  0  0  0  0  0
   10.2761  -21.3229   23.3398 N   0  0  0  0  0  0  0  0  0  0  0  0
   11.2439  -20.3381   23.6185 C   0  0  0  0  0  0  0  0  0  0  0  0
   12.3894  -20.4058   23.1010 O   0  0  0  0  0  0  0  0  0  0  0  0
   10.9188  -19.2149   24.5238 C   0  0  0  0  0  0  0  0  0  0  0  0
    9.9066  -18.2633   23.9117 C   0  0  2  0  0  0  0  0  0  0  0  0
   10.4311  -17.6359   22.7183 N   0  0  0  0  0  0  0  0  0  0  0  0
    9.6878  -17.1959   24.9314 C   0  0  0  0  0  0  0  0  0  0  0  0
   10.1961  -17.3697   26.0679 O   0  0  0  0  0  0  0  0  0  0  0  0
    7.5958  -11.5690   25.0163 C   0  0  0  0  0  0  0  0  0  0  0  0
    7.5836  -12.8082   25.9727 C   0  0  1  0  0  0  0  0  0  0  0  0
    6.1705  -12.9103   26.4222 C   0  0  0  0  0  0  0  0  0  0  0  0
    8.1573  -13.9007   25.1787 C   0  0  0  0  0  0  0  0  0  0  0  0
    8.4164  -15.2354   25.7597 C   0  0  2  0  0  0  0  0  0  0  0  0
    8.9355  -16.0381   24.6190 N   0  0  0  0  0  0  0  0  0  0  0  0
    7.1892  -15.8936   26.2188 C   0  0  0  0  0  0  0  0  0  0  0  0
    6.9585  -15.9536   27.6128 O   0  0  0  0  0  0  0  0  0  0  0  0
    6.3033  -16.4197   25.5145 O   0  0  0  0  0  0  0  0  0  0  0  0
  1  2  1  0
  2  3  2  0
  4  2  1  0
  5  4  1  0
  5  6  1  1
  7  8  2  0
  7  5  1  0
 10  9  1  0
 10 12  1  0
 11 10  2  0
 13 12  1  1
 13 14  1  0
 14  7  1  0
 15 22  1  0
 15 13  1  0
 16 15  2  0
 18 19  1  6
 18 17  1  0
 20 18  1  0
 21 20  1  6
 21 22  1  0
 23 21  1  0
 24 23  1  0
 25 23  2  0
M  END
$$$$
