NNL.pdb
     RDKit          3D

 25 24  0  0  1  0  0  0  0  0999 V2000
    8.5356  -11.8829   18.0028 N   0  0  0  0  0  0  0  0  0  0  0  0
    7.9854  -13.1798   17.8886 C   0  0  0  0  0  0  0  0  0  0  0  0
    7.7474  -13.6113   16.7375 O   0  0  0  0  0  0  0  0  0  0  0  0
    7.6912  -14.0174   19.0556 C   0  0  0  0  0  0  0  0  0  0  0  0
    8.9404  -14.7049   19.5433 C   0  0  2  0  0  0  0  0  0  0  0  0
    9.7784  -15.0966   18.4343 N   0  0  0  0  0  0  0  0  0  0  0  0
    8.6285  -15.8729   20.3955 C   0  0  0  0  0  0  0  0  0  0  0  0
    8.1200  -16.9335   19.9381 O   0  0  0  0  0  0  0  0  0  0  0  0
   11.8323  -16.3418   19.9862 N   0  0  0  0  0  0  0  0  0  0  0  0
   12.1198  -15.2276   20.7986 C   0  0  0  0  0  0  0  0  0  0  0  0
   13.2289  -14.6396   20.7049 O   0  0  0  0  0  0  0  0  0  0  0  0
   11.1168  -14.7402   21.7698 C   0  0  0  0  0  0  0  0  0  0  0  0
   10.2552  -15.8657   22.3136 C   0  0  2  0  0  0  0  0  0  0  0  0
    8.9110  -15.8010   21.7826 N   0  0  0  0  0  0  0  0  0  0  0  0
   10.1769  -15.6389   23.7865 C   0  0  0  0  0  0  0  0  0  0  0  0
   11.2545  -15.6645   24.4331 O   0  0  0  0  0  0  0  0  0  0  0  0
    6.0553  -12.7657   26.1110 C   0  0  0  0  0  0  0  0  0  0  0  0
    7.5391  -13.1188   25.7590 C   0  0  1  0  0  0  0  0  0  0  0  0
    8.3358  -12.0489   26.4148 C   0  0  0  0  0  0  0  0  0  0  0  0
    7.7105  -14.5064   26.2042 C   0  0  0  0  0  0  0  0  0  0  0  0
    8.9352  -15.2776   25.9017 C   0  0  2  0  0  0  0  0  0  0  0  0
    8.9320  -15.4052   24.4188 N   0  0  0  0  0  0  0  0  0  0  0  0
    8.8880  -16.6386   26.4453 C   0  0  0  0  0  0  0  0  0  0  0  0
    8.5257  -17.6847   25.5653 O   0  0  0  0  0  0  0  0  0  0  0  0
    9.1334  -16.9953   27.6158 O   0  0  0  0  0  0  0  0  0  0  0  0
  1  2  1  0
  2  3  2  0
  4  2  1  0
  5  4  1  0
  5  6  1  6
  7  8  2  0
  7  5  1  0
 10  9  1  0
 10 12  1  0
 11 10  2  0
 13 12  1  6
 13 14  1  0
 14  7  1  0
 15 22  1  0
 15 13  1  0
 16 15  2  0
 18 19  1  1
 18 17  1  0
 20 18  1  0
 21 20  1  6
 21 22  1  0
 23 21  1  0
 24 23  1  0
 25 23  2  0
M  END
$$$$
