NNL.pdb
     RDKit          3D

 25 24  0  0  1  0  0  0  0  0999 V2000
    8.0216  -12.2924   16.6961 N   0  0  0  0  0  0  0  0  0  0  0  0
    8.0197  -13.6963   16.8594 C   0  0  0  0  0  0  0  0  0  0  0  0
    8.4537  -14.3924   15.9133 O   0  0  0  0  0  0  0  0  0  0  0  0
    7.5341  -14.3479   18.0799 C   0  0  0  0  0  0  0  0  0  0  0  0
    8.5566  -14.2396   19.1816 C   0  0  2  0  0  0  0  0  0  0  0  0
    9.8587  -14.6583   18.7180 N   0  0  0  0  0  0  0  0  0  0  0  0
    8.1593  -15.0119   20.3789 C   0  0  0  0  0  0  0  0  0  0  0  0
    7.0196  -14.9060   20.9104 O   0  0  0  0  0  0  0  0  0  0  0  0
    8.7677  -19.9863   21.7664 N   0  0  0  0  0  0  0  0  0  0  0  0
    9.5695  -18.8907   21.3909 C   0  0  0  0  0  0  0  0  0  0  0  0
   10.0835  -18.8409   20.2429 O   0  0  0  0  0  0  0  0  0  0  0  0
    9.8130  -17.7888   22.3465 C   0  0  0  0  0  0  0  0  0  0  0  0
    8.8255  -16.6496   22.1674 C   0  0  2  0  0  0  0  0  0  0  0  0
    9.0943  -15.9079   20.9548 N   0  0  0  0  0  0  0  0  0  0  0  0
    9.0516  -15.7337   23.3238 C   0  0  0  0  0  0  0  0  0  0  0  0
   10.1500  -15.1242   23.3719 O   0  0  0  0  0  0  0  0  0  0  0  0
    8.0406  -11.6692   26.2985 C   0  0  0  0  0  0  0  0  0  0  0  0
    7.0608  -12.8277   26.6836 C   0  0  1  0  0  0  0  0  0  0  0  0
    5.7542  -12.1494   26.8891 C   0  0  0  0  0  0  0  0  0  0  0  0
    7.1905  -13.8056   25.5974 C   0  0  0  0  0  0  0  0  0  0  0  0
    8.3857  -14.6649   25.4593 C   0  0  2  0  0  0  0  0  0  0  0  0
    8.0604  -15.5664   24.3206 N   0  0  0  0  0  0  0  0  0  0  0  0
    8.5983  -15.5204   26.6311 C   0  0  0  0  0  0  0  0  0  0  0  0
    9.5608  -15.1057   27.5807 O   0  0  0  0  0  0  0  0  0  0  0  0
    8.0214  -16.5941   26.8993 O   0  0  0  0  0  0  0  0  0  0  0  0
  1  2  1  0
  2  3  2  0
  4  2  1  0
  5  4  1  0
  5  6  1  6
  7  8  2  0
  7  5  1  0
 10  9  1  0
 10 12  1  0
 11 10  2  0
 13 12  1  1
 13 14  1  0
 14  7  1  0
 15 22  1  0
 15 13  1  0
 16 15  2  0
 18 19  1  6
 18 17  1  0
 20 18  1  0
 21 20  1  1
 21 22  1  0
 23 21  1  0
 24 23  1  0
 25 23  2  0
M  END
$$$$
