NNL.pdb
     RDKit          3D

 25 24  0  0  1  0  0  0  0  0999 V2000
    7.7861  -16.8002   16.9331 N   0  0  0  0  0  0  0  0  0  0  0  0
    7.0829  -17.4246   17.9881 C   0  0  0  0  0  0  0  0  0  0  0  0
    5.8386  -17.5178   17.8828 O   0  0  0  0  0  0  0  0  0  0  0  0
    7.7548  -17.9556   19.1784 C   0  0  0  0  0  0  0  0  0  0  0  0
    7.7893  -16.9211   20.2737 C   0  0  2  0  0  0  0  0  0  0  0  0
    8.2664  -15.6544   19.7701 N   0  0  0  0  0  0  0  0  0  0  0  0
    8.6081  -17.3640   21.4231 C   0  0  0  0  0  0  0  0  0  0  0  0
    8.3434  -18.4035   22.0877 O   0  0  0  0  0  0  0  0  0  0  0  0
   12.6135  -19.1717   21.7151 N   0  0  0  0  0  0  0  0  0  0  0  0
   12.4111  -17.8102   21.4157 C   0  0  0  0  0  0  0  0  0  0  0  0
   12.5207  -17.3946   20.2325 O   0  0  0  0  0  0  0  0  0  0  0  0
   12.0675  -16.8577   22.4934 C   0  0  0  0  0  0  0  0  0  0  0  0
   10.6062  -16.9522   22.8939 C   0  0  2  0  0  0  0  0  0  0  0  0
    9.7366  -16.5914   21.7955 N   0  0  0  0  0  0  0  0  0  0  0  0
   10.4182  -15.9429   23.9770 C   0  0  0  0  0  0  0  0  0  0  0  0
   11.4256  -15.6394   24.6650 O   0  0  0  0  0  0  0  0  0  0  0  0
    8.0845  -11.5627   26.1748 C   0  0  0  0  0  0  0  0  0  0  0  0
    7.1901  -12.8473   26.1916 C   0  0  1  0  0  0  0  0  0  0  0  0
    5.8085  -12.3344   25.9977 C   0  0  0  0  0  0  0  0  0  0  0  0
    7.7726  -13.7237   25.1690 C   0  0  0  0  0  0  0  0  0  0  0  0
    9.0114  -14.4928   25.4138 C   0  0  2  0  0  0  0  0  0  0  0  0
    9.1506  -15.3577   24.2105 N   0  0  0  0  0  0  0  0  0  0  0  0
    8.8952  -15.3879   26.5693 C   0  0  0  0  0  0  0  0  0  0  0  0
    8.1831  -16.5972   26.3939 O   0  0  0  0  0  0  0  0  0  0  0  0
    9.3577  -15.2096   27.7147 O   0  0  0  0  0  0  0  0  0  0  0  0
  1  2  1  0
  2  3  2  0
  4  2  1  0
  5  4  1  0
  5  6  1  6
  7  8  2  0
  7  5  1  0
 10  9  1  0
 10 12  1  0
 11 10  2  0
 13 12  1  6
 13 14  1  0
 14  7  1  0
 15 22  1  0
 15 13  1  0
 16 15  2  0
 18 19  1  6
 18 17  1  0
 20 18  1  0
 21 20  1  6
 21 22  1  0
 23 21  1  0
 24 23  1  0
 25 23  2  0
M  END
$$$$
