NNL.pdb
     RDKit          3D

 25 24  0  0  1  0  0  0  0  0999 V2000
    8.0072  -12.2273   17.3947 N   0  0  0  0  0  0  0  0  0  0  0  0
    7.9608  -13.6250   17.5993 C   0  0  0  0  0  0  0  0  0  0  0  0
    8.3302  -14.3632   16.6578 O   0  0  0  0  0  0  0  0  0  0  0  0
    7.5018  -14.2233   18.8569 C   0  0  0  0  0  0  0  0  0  0  0  0
    8.6755  -14.6127   19.7183 C   0  0  2  0  0  0  0  0  0  0  0  0
    9.4808  -15.6187   19.0663 N   0  0  0  0  0  0  0  0  0  0  0  0
    8.2463  -15.0779   21.0551 C   0  0  0  0  0  0  0  0  0  0  0  0
    7.2833  -14.5555   21.6814 O   0  0  0  0  0  0  0  0  0  0  0  0
    9.5664  -19.7974   21.2885 N   0  0  0  0  0  0  0  0  0  0  0  0
    8.6770  -19.1381   22.1594 C   0  0  0  0  0  0  0  0  0  0  0  0
    7.4483  -19.4118   22.1426 O   0  0  0  0  0  0  0  0  0  0  0  0
    9.1830  -18.1171   23.1019 C   0  0  0  0  0  0  0  0  0  0  0  0
    8.5141  -16.7697   22.8966 C   0  0  2  0  0  0  0  0  0  0  0  0
    8.9431  -16.1539   21.6598 N   0  0  0  0  0  0  0  0  0  0  0  0
    8.9833  -15.9102   24.0227 C   0  0  0  0  0  0  0  0  0  0  0  0
   10.1790  -15.5237   23.9951 O   0  0  0  0  0  0  0  0  0  0  0  0
    5.8029  -12.1281   26.4111 C   0  0  0  0  0  0  0  0  0  0  0  0
    7.0420  -12.7250   25.6636 C   0  0  1  0  0  0  0  0  0  0  0  0
    7.9283  -11.5547   25.4307 C   0  0  0  0  0  0  0  0  0  0  0  0
    7.5139  -13.8126   26.5283 C   0  0  0  0  0  0  0  0  0  0  0  0
    8.6526  -14.6751   26.1467 C   0  0  2  0  0  0  0  0  0  0  0  0
    8.1065  -15.5513   25.0747 N   0  0  0  0  0  0  0  0  0  0  0  0
    9.0784  -15.5555   27.2393 C   0  0  0  0  0  0  0  0  0  0  0  0
    8.6672  -16.9078   27.1908 O   0  0  0  0  0  0  0  0  0  0  0  0
    9.7746  -15.2511   28.2293 O   0  0  0  0  0  0  0  0  0  0  0  0
  1  2  1  0
  2  3  2  0
  4  2  1  0
  5  4  1  0
  5  6  1  6
  7  8  2  0
  7  5  1  0
 10  9  1  0
 10 12  1  0
 11 10  2  0
 13 12  1  1
 13 14  1  0
 14  7  1  0
 15 22  1  0
 15 13  1  0
 16 15  2  0
 18 19  1  1
 18 17  1  0
 20 18  1  0
 21 20  1  1
 21 22  1  0
 23 21  1  0
 24 23  1  0
 25 23  2  0
M  END
$$$$
