NNL.pdb
     RDKit          3D

 25 24  0  0  1  0  0  0  0  0999 V2000
   13.5906  -18.6535   19.9452 N   0  0  0  0  0  0  0  0  0  0  0  0
   12.8839  -17.9621   18.9352 C   0  0  0  0  0  0  0  0  0  0  0  0
   13.3883  -17.9309   17.7896 O   0  0  0  0  0  0  0  0  0  0  0  0
   11.6029  -17.2936   19.1853 C   0  0  0  0  0  0  0  0  0  0  0  0
   11.1866  -17.4663   20.6234 C   0  0  2  0  0  0  0  0  0  0  0  0
   10.6361  -18.7829   20.8450 N   0  0  0  0  0  0  0  0  0  0  0  0
   10.2260  -16.4244   21.0469 C   0  0  0  0  0  0  0  0  0  0  0  0
   10.4649  -15.1906   20.9322 O   0  0  0  0  0  0  0  0  0  0  0  0
    6.8110  -17.3447   20.0871 N   0  0  0  0  0  0  0  0  0  0  0  0
    6.1447  -17.3348   21.3282 C   0  0  0  0  0  0  0  0  0  0  0  0
    5.0678  -17.9691   21.4785 O   0  0  0  0  0  0  0  0  0  0  0  0
    6.7084  -16.5765   22.4657 C   0  0  0  0  0  0  0  0  0  0  0  0
    8.0078  -15.8815   22.1004 C   0  0  2  0  0  0  0  0  0  0  0  0
    8.9860  -16.8249   21.6045 N   0  0  0  0  0  0  0  0  0  0  0  0
    8.5307  -15.3073   23.3747 C   0  0  0  0  0  0  0  0  0  0  0  0
    9.2992  -14.3162   23.2893 O   0  0  0  0  0  0  0  0  0  0  0  0
    8.4493  -11.7511   26.3375 C   0  0  0  0  0  0  0  0  0  0  0  0
    7.3989  -12.8477   26.7178 C   0  0  1  0  0  0  0  0  0  0  0  0
    6.1183  -12.1026   26.8372 C   0  0  0  0  0  0  0  0  0  0  0  0
    7.5307  -13.8714   25.6749 C   0  0  0  0  0  0  0  0  0  0  0  0
    8.4206  -15.0409   25.8371 C   0  0  2  0  0  0  0  0  0  0  0  0
    8.1681  -15.8656   24.6240 N   0  0  0  0  0  0  0  0  0  0  0  0
    8.0566  -15.8647   26.9942 C   0  0  0  0  0  0  0  0  0  0  0  0
    8.9325  -15.8604   28.1046 O   0  0  0  0  0  0  0  0  0  0  0  0
    7.0462  -16.5860   27.1223 O   0  0  0  0  0  0  0  0  0  0  0  0
  1  2  1  0
  2  3  2  0
  4  2  1  0
  5  4  1  0
  5  6  1  6
  7  8  2  0
  7  5  1  0
 10  9  1  0
 10 12  1  0
 11 10  2  0
 13 12  1  1
 13 14  1  0
 14  7  1  0
 15 22  1  0
 15 13  1  0
 16 15  2  0
 18 19  1  6
 18 17  1  0
 20 18  1  0
 21 20  1  6
 21 22  1  0
 23 21  1  0
 24 23  1  0
 25 23  2  0
M  END
$$$$
