NNL.pdb
     RDKit          3D

 25 24  0  0  1  0  0  0  0  0999 V2000
    5.7701  -19.6211   18.1179 N   0  0  0  0  0  0  0  0  0  0  0  0
    6.8254  -19.6108   19.0580 C   0  0  0  0  0  0  0  0  0  0  0  0
    6.9519  -20.6104   19.8014 O   0  0  0  0  0  0  0  0  0  0  0  0
    7.7575  -18.4860   19.1852 C   0  0  0  0  0  0  0  0  0  0  0  0
    7.8482  -18.0322   20.6194 C   0  0  2  0  0  0  0  0  0  0  0  0
    6.5387  -17.7268   21.1462 N   0  0  0  0  0  0  0  0  0  0  0  0
    8.7526  -16.8719   20.7731 C   0  0  0  0  0  0  0  0  0  0  0  0
    9.9818  -16.9246   20.4927 O   0  0  0  0  0  0  0  0  0  0  0  0
    6.5564  -13.4994   19.1522 N   0  0  0  0  0  0  0  0  0  0  0  0
    7.9259  -13.4343   19.4754 C   0  0  0  0  0  0  0  0  0  0  0  0
    8.7992  -13.5451   18.5756 O   0  0  0  0  0  0  0  0  0  0  0  0
    8.3473  -13.2346   20.8788 C   0  0  0  0  0  0  0  0  0  0  0  0
    9.0271  -14.4656   21.4510 C   0  0  2  0  0  0  0  0  0  0  0  0
    8.2198  -15.6499   21.2546 N   0  0  0  0  0  0  0  0  0  0  0  0
    9.1332  -14.2224   22.9196 C   0  0  0  0  0  0  0  0  0  0  0  0
    9.5030  -13.0798   23.2907 O   0  0  0  0  0  0  0  0  0  0  0  0
    7.8737  -12.4320   27.1105 C   0  0  0  0  0  0  0  0  0  0  0  0
    6.9265  -13.5748   26.6133 C   0  0  1  0  0  0  0  0  0  0  0  0
    5.5745  -12.9571   26.6157 C   0  0  0  0  0  0  0  0  0  0  0  0
    7.5049  -14.0135   25.3381 C   0  0  0  0  0  0  0  0  0  0  0  0
    8.7184  -14.8562   25.2802 C   0  0  2  0  0  0  0  0  0  0  0  0
    8.8267  -15.2462   23.8479 N   0  0  0  0  0  0  0  0  0  0  0  0
    8.5754  -16.0967   26.0487 C   0  0  0  0  0  0  0  0  0  0  0  0
    9.1011  -16.1199   27.3615 O   0  0  0  0  0  0  0  0  0  0  0  0
    8.0349  -17.1589   25.6782 O   0  0  0  0  0  0  0  0  0  0  0  0
  1  2  1  0
  2  3  2  0
  4  2  1  0
  5  4  1  0
  5  6  1  6
  7  8  2  0
  7  5  1  0
 10  9  1  0
 10 12  1  0
 11 10  2  0
 13 12  1  6
 13 14  1  0
 14  7  1  0
 15 22  1  0
 15 13  1  0
 16 15  2  0
 18 19  1  6
 18 17  1  0
 20 18  1  0
 21 20  1  6
 21 22  1  0
 23 21  1  0
 24 23  1  0
 25 23  2  0
M  END
$$$$
