NNL.pdb
     RDKit          3D

 25 24  0  0  1  0  0  0  0  0999 V2000
    9.0955  -13.0155   17.0371 N   0  0  0  0  0  0  0  0  0  0  0  0
    7.9216  -13.7946   17.1492 C   0  0  0  0  0  0  0  0  0  0  0  0
    7.1808  -13.8782   16.1432 O   0  0  0  0  0  0  0  0  0  0  0  0
    7.5538  -14.4936   18.3846 C   0  0  0  0  0  0  0  0  0  0  0  0
    8.5165  -14.1535   19.4931 C   0  0  2  0  0  0  0  0  0  0  0  0
    9.8556  -14.5800   19.1604 N   0  0  0  0  0  0  0  0  0  0  0  0
    8.0936  -14.7337   20.7863 C   0  0  0  0  0  0  0  0  0  0  0  0
    6.9705  -14.4899   21.3074 O   0  0  0  0  0  0  0  0  0  0  0  0
    9.9557  -18.9522   20.7333 N   0  0  0  0  0  0  0  0  0  0  0  0
    9.0175  -18.5951   21.7214 C   0  0  0  0  0  0  0  0  0  0  0  0
    7.8619  -19.0943   21.7131 O   0  0  0  0  0  0  0  0  0  0  0  0
    9.3858  -17.6284   22.7781 C   0  0  0  0  0  0  0  0  0  0  0  0
    8.6075  -16.3303   22.6603 C   0  0  2  0  0  0  0  0  0  0  0  0
    8.9839  -15.5989   21.4702 N   0  0  0  0  0  0  0  0  0  0  0  0
    9.0038  -15.5130   23.8443 C   0  0  0  0  0  0  0  0  0  0  0  0
   10.1694  -15.0427   23.8577 O   0  0  0  0  0  0  0  0  0  0  0  0
    5.5850  -12.2232   26.5698 C   0  0  0  0  0  0  0  0  0  0  0  0
    6.8562  -12.6666   25.7712 C   0  0  1  0  0  0  0  0  0  0  0  0
    7.6391  -11.4142   25.6039 C   0  0  0  0  0  0  0  0  0  0  0  0
    7.4305  -13.7635   26.5586 C   0  0  0  0  0  0  0  0  0  0  0  0
    8.6005  -14.5343   26.0862 C   0  0  2  0  0  0  0  0  0  0  0  0
    8.0938  -15.2835   24.9042 N   0  0  0  0  0  0  0  0  0  0  0  0
    9.0445  -15.5329   27.0638 C   0  0  0  0  0  0  0  0  0  0  0  0
    8.7263  -16.8872   26.8094 O   0  0  0  0  0  0  0  0  0  0  0  0
    9.6828  -15.3299   28.1168 O   0  0  0  0  0  0  0  0  0  0  0  0
  1  2  1  0
  2  3  2  0
  4  2  1  0
  5  4  1  0
  5  6  1  6
  7  8  2  0
  7  5  1  0
 10  9  1  0
 10 12  1  0
 11 10  2  0
 13 12  1  1
 13 14  1  0
 14  7  1  0
 15 22  1  0
 15 13  1  0
 16 15  2  0
 18 19  1  1
 18 17  1  0
 20 18  1  0
 21 20  1  1
 21 22  1  0
 23 21  1  0
 24 23  1  0
 25 23  2  0
M  END
$$$$
