NNL.pdb
     RDKit          3D

 25 24  0  0  1  0  0  0  0  0999 V2000
    8.2125  -18.2916   16.3245 N   0  0  0  0  0  0  0  0  0  0  0  0
    8.4914  -17.1868   17.1607 C   0  0  0  0  0  0  0  0  0  0  0  0
    9.4191  -16.4183   16.8191 O   0  0  0  0  0  0  0  0  0  0  0  0
    7.7408  -16.9200   18.3918 C   0  0  0  0  0  0  0  0  0  0  0  0
    8.6812  -16.6539   19.5390 C   0  0  2  0  0  0  0  0  0  0  0  0
    9.6109  -17.7462   19.7062 N   0  0  0  0  0  0  0  0  0  0  0  0
    7.9519  -16.3958   20.7996 C   0  0  0  0  0  0  0  0  0  0  0  0
    7.0570  -15.5118   20.9001 O   0  0  0  0  0  0  0  0  0  0  0  0
    5.1279  -18.4245   22.6533 N   0  0  0  0  0  0  0  0  0  0  0  0
    6.0503  -19.1064   23.4708 C   0  0  0  0  0  0  0  0  0  0  0  0
    5.7733  -20.2444   23.9323 O   0  0  0  0  0  0  0  0  0  0  0  0
    7.3541  -18.4874   23.7928 C   0  0  0  0  0  0  0  0  0  0  0  0
    7.5023  -17.1116   23.1683 C   0  0  2  0  0  0  0  0  0  0  0  0
    8.2688  -17.1715   21.9429 N   0  0  0  0  0  0  0  0  0  0  0  0
    8.2772  -16.3021   24.1538 C   0  0  0  0  0  0  0  0  0  0  0  0
    9.5312  -16.3432   24.0765 O   0  0  0  0  0  0  0  0  0  0  0  0
    6.0486  -11.8880   26.6436 C   0  0  0  0  0  0  0  0  0  0  0  0
    7.0891  -12.6611   25.7661 C   0  0  1  0  0  0  0  0  0  0  0  0
    8.0274  -11.6080   25.2971 C   0  0  0  0  0  0  0  0  0  0  0  0
    7.5961  -13.7276   26.6372 C   0  0  0  0  0  0  0  0  0  0  0  0
    8.4645  -14.8083   26.1236 C   0  0  2  0  0  0  0  0  0  0  0  0
    7.6146  -15.5228   25.1324 N   0  0  0  0  0  0  0  0  0  0  0  0
    8.8180  -15.7827   27.1608 C   0  0  0  0  0  0  0  0  0  0  0  0
    9.9089  -15.4745   28.0065 O   0  0  0  0  0  0  0  0  0  0  0  0
    8.2620  -16.8754   27.3941 O   0  0  0  0  0  0  0  0  0  0  0  0
  1  2  1  0
  2  3  2  0
  4  2  1  0
  5  4  1  0
  5  6  1  1
  7  8  2  0
  7  5  1  0
 10  9  1  0
 10 12  1  0
 11 10  2  0
 13 12  1  1
 13 14  1  0
 14  7  1  0
 15 22  1  0
 15 13  1  0
 16 15  2  0
 18 19  1  1
 18 17  1  0
 20 18  1  0
 21 20  1  1
 21 22  1  0
 23 21  1  0
 24 23  1  0
 25 23  2  0
M  END
$$$$
