NNL.pdb
     RDKit          3D

 25 24  0  0  1  0  0  0  0  0999 V2000
    8.4964  -12.5629   17.2292 N   0  0  0  0  0  0  0  0  0  0  0  0
    7.7878  -13.7791   17.1015 C   0  0  0  0  0  0  0  0  0  0  0  0
    7.3617  -14.0875   15.9652 O   0  0  0  0  0  0  0  0  0  0  0  0
    7.5421  -14.6720   18.2384 C   0  0  0  0  0  0  0  0  0  0  0  0
    8.0559  -14.0583   19.5153 C   0  0  2  0  0  0  0  0  0  0  0  0
    9.4196  -13.6097   19.3582 N   0  0  0  0  0  0  0  0  0  0  0  0
    7.9452  -14.9914   20.6576 C   0  0  0  0  0  0  0  0  0  0  0  0
    6.8388  -15.4415   21.0646 O   0  0  0  0  0  0  0  0  0  0  0  0
    9.3202  -19.3246   23.4624 N   0  0  0  0  0  0  0  0  0  0  0  0
   10.2784  -18.2926   23.4318 C   0  0  0  0  0  0  0  0  0  0  0  0
   11.1397  -18.1952   24.3446 O   0  0  0  0  0  0  0  0  0  0  0  0
   10.2782  -17.3139   22.3231 C   0  0  0  0  0  0  0  0  0  0  0  0
    9.1242  -16.3330   22.4282 C   0  0  2  0  0  0  0  0  0  0  0  0
    9.1281  -15.3981   21.3242 N   0  0  0  0  0  0  0  0  0  0  0  0
    9.3635  -15.5609   23.6826 C   0  0  0  0  0  0  0  0  0  0  0  0
   10.4355  -14.9097   23.7647 O   0  0  0  0  0  0  0  0  0  0  0  0
    5.8496  -12.2153   25.8902 C   0  0  0  0  0  0  0  0  0  0  0  0
    7.2621  -12.6944   25.4151 C   0  0  1  0  0  0  0  0  0  0  0  0
    8.1488  -11.5287   25.6686 C   0  0  0  0  0  0  0  0  0  0  0  0
    7.5018  -13.9422   26.1489 C   0  0  0  0  0  0  0  0  0  0  0  0
    8.7209  -14.7512   25.9360 C   0  0  2  0  0  0  0  0  0  0  0  0
    8.4129  -15.5696   24.7316 N   0  0  0  0  0  0  0  0  0  0  0  0
    8.9688  -15.6895   27.0352 C   0  0  0  0  0  0  0  0  0  0  0  0
    8.5620  -17.0321   26.8565 O   0  0  0  0  0  0  0  0  0  0  0  0
    9.5067  -15.4432   28.1341 O   0  0  0  0  0  0  0  0  0  0  0  0
  1  2  1  0
  2  3  2  0
  4  2  1  0
  5  4  1  0
  5  6  1  6
  7  8  2  0
  7  5  1  0
 10  9  1  0
 10 12  1  0
 11 10  2  0
 13 12  1  6
 13 14  1  0
 14  7  1  0
 15 22  1  0
 15 13  1  0
 16 15  2  0
 18 19  1  1
 18 17  1  0
 20 18  1  0
 21 20  1  1
 21 22  1  0
 23 21  1  0
 24 23  1  0
 25 23  2  0
M  END
$$$$
