NNL.pdb
     RDKit          3D

 25 24  0  0  1  0  0  0  0  0999 V2000
    6.0332  -20.5736   18.5588 N   0  0  0  0  0  0  0  0  0  0  0  0
    6.3083  -19.1951   18.7053 C   0  0  0  0  0  0  0  0  0  0  0  0
    6.5746  -18.5419   17.6707 O   0  0  0  0  0  0  0  0  0  0  0  0
    6.2914  -18.5214   20.0076 C   0  0  0  0  0  0  0  0  0  0  0  0
    7.6413  -18.6157   20.6710 C   0  0  2  0  0  0  0  0  0  0  0  0
    7.5091  -19.0181   22.0516 N   0  0  0  0  0  0  0  0  0  0  0  0
    8.3935  -17.3461   20.5705 C   0  0  0  0  0  0  0  0  0  0  0  0
    9.5639  -17.2829   20.1029 O   0  0  0  0  0  0  0  0  0  0  0  0
    9.0854  -12.2269   19.3092 N   0  0  0  0  0  0  0  0  0  0  0  0
    8.1530  -12.4708   20.3365 C   0  0  0  0  0  0  0  0  0  0  0  0
    7.8767  -11.5716   21.1730 O   0  0  0  0  0  0  0  0  0  0  0  0
    7.4909  -13.7891   20.4386 C   0  0  0  0  0  0  0  0  0  0  0  0
    8.4318  -14.8614   20.9579 C   0  0  2  0  0  0  0  0  0  0  0  0
    7.7772  -16.1502   21.0167 N   0  0  0  0  0  0  0  0  0  0  0  0
    8.7736  -14.4575   22.3533 C   0  0  0  0  0  0  0  0  0  0  0  0
    9.6985  -13.6194   22.5021 O   0  0  0  0  0  0  0  0  0  0  0  0
    7.7966  -11.7741   25.8538 C   0  0  0  0  0  0  0  0  0  0  0  0
    6.9973  -13.0042   26.4000 C   0  0  1  0  0  0  0  0  0  0  0  0
    5.6616  -12.4500   26.7438 C   0  0  0  0  0  0  0  0  0  0  0  0
    7.0957  -14.0157   25.3415 C   0  0  0  0  0  0  0  0  0  0  0  0
    8.3999  -14.4589   24.8042 C   0  0  2  0  0  0  0  0  0  0  0  0
    8.0762  -15.0039   23.4575 N   0  0  0  0  0  0  0  0  0  0  0  0
    8.9797  -15.5598   25.5799 C   0  0  0  0  0  0  0  0  0  0  0  0
    9.7278  -15.2275   26.7332 O   0  0  0  0  0  0  0  0  0  0  0  0
    8.8926  -16.7819   25.3419 O   0  0  0  0  0  0  0  0  0  0  0  0
  1  2  1  0
  2  3  2  0
  4  2  1  0
  5  4  1  0
  5  6  1  1
  7  8  2  0
  7  5  1  0
 10  9  1  0
 10 12  1  0
 11 10  2  0
 13 12  1  1
 13 14  1  0
 14  7  1  0
 15 22  1  0
 15 13  1  0
 16 15  2  0
 18 19  1  6
 18 17  1  0
 20 18  1  0
 21 20  1  1
 21 22  1  0
 23 21  1  0
 24 23  1  0
 25 23  2  0
M  END
$$$$
