NNL.pdb
     RDKit          3D

 25 24  0  0  1  0  0  0  0  0999 V2000
    8.8371  -12.8658   16.8116 N   0  0  0  0  0  0  0  0  0  0  0  0
    7.7796  -13.8034   16.8223 C   0  0  0  0  0  0  0  0  0  0  0  0
    7.1603  -13.9940   15.7508 O   0  0  0  0  0  0  0  0  0  0  0  0
    7.3946  -14.5445   18.0276 C   0  0  0  0  0  0  0  0  0  0  0  0
    8.2264  -14.1087   19.2063 C   0  0  2  0  0  0  0  0  0  0  0  0
    9.6313  -14.1060   18.8717 N   0  0  0  0  0  0  0  0  0  0  0  0
    7.9782  -14.9512   20.3964 C   0  0  0  0  0  0  0  0  0  0  0  0
    6.8356  -15.0738   20.9178 O   0  0  0  0  0  0  0  0  0  0  0  0
   11.0544  -18.6560   24.1952 N   0  0  0  0  0  0  0  0  0  0  0  0
    9.8989  -18.3628   23.4449 C   0  0  0  0  0  0  0  0  0  0  0  0
    8.7748  -18.7964   23.8101 O   0  0  0  0  0  0  0  0  0  0  0  0
    9.9996  -17.5412   22.2196 C   0  0  0  0  0  0  0  0  0  0  0  0
    8.9304  -16.4648   22.1648 C   0  0  2  0  0  0  0  0  0  0  0  0
    9.0659  -15.6505   20.9768 N   0  0  0  0  0  0  0  0  0  0  0  0
    9.1761  -15.5909   23.3493 C   0  0  0  0  0  0  0  0  0  0  0  0
   10.2369  -14.9166   23.3596 O   0  0  0  0  0  0  0  0  0  0  0  0
    8.1796  -11.6057   26.3637 C   0  0  0  0  0  0  0  0  0  0  0  0
    7.1632  -12.7517   26.6863 C   0  0  1  0  0  0  0  0  0  0  0  0
    5.8560  -12.0563   26.8162 C   0  0  0  0  0  0  0  0  0  0  0  0
    7.3441  -13.7287   25.6066 C   0  0  0  0  0  0  0  0  0  0  0  0
    8.5413  -14.5926   25.5280 C   0  0  2  0  0  0  0  0  0  0  0  0
    8.2436  -15.5323   24.4128 N   0  0  0  0  0  0  0  0  0  0  0  0
    8.7233  -15.4077   26.7332 C   0  0  0  0  0  0  0  0  0  0  0  0
    8.0590  -16.6550   26.7886 O   0  0  0  0  0  0  0  0  0  0  0  0
    9.4076  -15.1295   27.7392 O   0  0  0  0  0  0  0  0  0  0  0  0
  1  2  1  0
  2  3  2  0
  4  2  1  0
  5  4  1  0
  5  6  1  6
  7  8  2  0
  7  5  1  0
 10  9  1  0
 10 12  1  0
 11 10  2  0
 13 12  1  6
 13 14  1  0
 14  7  1  0
 15 22  1  0
 15 13  1  0
 16 15  2  0
 18 19  1  6
 18 17  1  0
 20 18  1  0
 21 20  1  1
 21 22  1  0
 23 21  1  0
 24 23  1  0
 25 23  2  0
M  END
$$$$
