NNL.pdb
     RDKit          3D

 25 24  0  0  1  0  0  0  0  0999 V2000
    9.2679  -13.1591   17.1673 N   0  0  0  0  0  0  0  0  0  0  0  0
    7.9353  -13.6166   17.2783 C   0  0  0  0  0  0  0  0  0  0  0  0
    7.1910  -13.4878   16.2796 O   0  0  0  0  0  0  0  0  0  0  0  0
    7.4099  -14.2255   18.5044 C   0  0  0  0  0  0  0  0  0  0  0  0
    8.4286  -14.1505   19.6124 C   0  0  2  0  0  0  0  0  0  0  0  0
    9.6575  -14.8035   19.2264 N   0  0  0  0  0  0  0  0  0  0  0  0
    7.9117  -14.7223   20.8747 C   0  0  0  0  0  0  0  0  0  0  0  0
    6.8706  -14.2903   21.4422 O   0  0  0  0  0  0  0  0  0  0  0  0
    9.8276  -17.8259   20.5925 N   0  0  0  0  0  0  0  0  0  0  0  0
    9.0075  -18.4538   21.5502 C   0  0  0  0  0  0  0  0  0  0  0  0
    8.4705  -19.5645   21.2995 O   0  0  0  0  0  0  0  0  0  0  0  0
    8.7717  -17.8099   22.8604 C   0  0  0  0  0  0  0  0  0  0  0  0
    8.1926  -16.4142   22.7142 C   0  0  2  0  0  0  0  0  0  0  0  0
    8.6119  -15.7994   21.4736 N   0  0  0  0  0  0  0  0  0  0  0  0
    8.7690  -15.6182   23.8372 C   0  0  0  0  0  0  0  0  0  0  0  0
    9.9264  -15.1532   23.6813 O   0  0  0  0  0  0  0  0  0  0  0  0
    5.8450  -12.1148   26.6192 C   0  0  0  0  0  0  0  0  0  0  0  0
    7.0240  -12.6892   25.7645 C   0  0  1  0  0  0  0  0  0  0  0  0
    7.8285  -11.4938   25.3996 C   0  0  0  0  0  0  0  0  0  0  0  0
    7.6314  -13.7233   26.6099 C   0  0  0  0  0  0  0  0  0  0  0  0
    8.6934  -14.6198   26.1052 C   0  0  2  0  0  0  0  0  0  0  0  0
    8.0313  -15.4023   25.0260 N   0  0  0  0  0  0  0  0  0  0  0  0
    9.1394  -15.5835   27.1163 C   0  0  0  0  0  0  0  0  0  0  0  0
    8.7857  -16.9403   26.9312 O   0  0  0  0  0  0  0  0  0  0  0  0
    9.8077  -15.3482   28.1438 O   0  0  0  0  0  0  0  0  0  0  0  0
  1  2  1  0
  2  3  2  0
  4  2  1  0
  5  4  1  0
  5  6  1  6
  7  8  2  0
  7  5  1  0
 10  9  1  0
 10 12  1  0
 11 10  2  0
 13 12  1  6
 13 14  1  0
 14  7  1  0
 15 22  1  0
 15 13  1  0
 16 15  2  0
 18 19  1  1
 18 17  1  0
 20 18  1  0
 21 20  1  1
 21 22  1  0
 23 21  1  0
 24 23  1  0
 25 23  2  0
M  END
$$$$
