NNL.pdb
     RDKit          3D

 25 24  0  0  1  0  0  0  0  0999 V2000
    7.6618  -12.2707   17.7235 N   0  0  0  0  0  0  0  0  0  0  0  0
    8.5334  -12.9301   18.6196 C   0  0  0  0  0  0  0  0  0  0  0  0
    9.7603  -12.8913   18.3721 O   0  0  0  0  0  0  0  0  0  0  0  0
    8.0522  -13.6439   19.8066 C   0  0  0  0  0  0  0  0  0  0  0  0
    8.3743  -15.1129   19.7089 C   0  0  2  0  0  0  0  0  0  0  0  0
    7.6669  -15.7225   18.6072 N   0  0  0  0  0  0  0  0  0  0  0  0
    8.0812  -15.8255   20.9714 C   0  0  0  0  0  0  0  0  0  0  0  0
    6.9269  -16.2413   21.2667 O   0  0  0  0  0  0  0  0  0  0  0  0
   10.7784  -19.5350   24.9544 N   0  0  0  0  0  0  0  0  0  0  0  0
    9.7319  -18.7340   24.4570 C   0  0  0  0  0  0  0  0  0  0  0  0
    8.6301  -18.6762   25.0633 O   0  0  0  0  0  0  0  0  0  0  0  0
    9.9219  -17.9536   23.2154 C   0  0  0  0  0  0  0  0  0  0  0  0
    8.9601  -16.7825   23.1247 C   0  0  2  0  0  0  0  0  0  0  0  0
    9.1377  -16.0521   21.8887 N   0  0  0  0  0  0  0  0  0  0  0  0
    9.3243  -15.8729   24.2504 C   0  0  0  0  0  0  0  0  0  0  0  0
   10.5111  -15.4618   24.3002 O   0  0  0  0  0  0  0  0  0  0  0  0
    5.7278  -12.4262   26.7013 C   0  0  0  0  0  0  0  0  0  0  0  0
    6.9763  -12.9179   25.8950 C   0  0  1  0  0  0  0  0  0  0  0  0
    7.7068  -11.6693   25.5533 C   0  0  0  0  0  0  0  0  0  0  0  0
    7.6233  -13.9030   26.7690 C   0  0  0  0  0  0  0  0  0  0  0  0
    8.8295  -14.6472   26.3478 C   0  0  2  0  0  0  0  0  0  0  0  0
    8.3619  -15.4952   25.2175 N   0  0  0  0  0  0  0  0  0  0  0  0
    9.3172  -15.5576   27.3886 C   0  0  0  0  0  0  0  0  0  0  0  0
    8.8135  -16.8792   27.3933 O   0  0  0  0  0  0  0  0  0  0  0  0
   10.1405  -15.3038   28.2916 O   0  0  0  0  0  0  0  0  0  0  0  0
  1  2  1  0
  2  3  2  0
  4  2  1  0
  5  4  1  0
  5  6  1  6
  7  8  2  0
  7  5  1  0
 10  9  1  0
 10 12  1  0
 11 10  2  0
 13 12  1  6
 13 14  1  0
 14  7  1  0
 15 22  1  0
 15 13  1  0
 16 15  2  0
 18 19  1  1
 18 17  1  0
 20 18  1  0
 21 20  1  1
 21 22  1  0
 23 21  1  0
 24 23  1  0
 25 23  2  0
M  END
$$$$
