HNS.pdb
     RDKit          3D

 25 25  0  0  1  0  0  0  0  0999 V2000
   19.4752  -11.8061  -15.8083 N   0  0  0  0  0  0  0  0  0  0  0  0
   18.5848  -10.7121  -15.5720 C   0  0  1  0  0  0  0  0  0  0  0  0
   17.1940  -11.1650  -15.1363 C   0  0  0  0  0  0  0  0  0  0  0  0
   16.5690  -11.9547  -16.2438 C   0  0  0  0  0  0  0  0  0  0  0  0
   16.0877  -11.4521  -17.4357 C   0  0  0  0  0  0  0  0  0  0  0  0
   15.6137  -12.4726  -18.1470 N   0  0  0  0  0  0  0  0  0  0  0  0
   15.7924  -13.5843  -17.4223 C   0  0  0  0  0  0  0  0  0  0  0  0
   16.3734  -13.2705  -16.2643 N   0  0  0  0  0  0  0  0  0  0  0  0
   19.1285   -9.7585  -14.5511 C   0  0  0  0  0  0  0  0  0  0  0  0
   19.2785  -10.0998  -13.3565 O   0  0  0  0  0  0  0  0  0  0  0  0
   21.3835   -5.6439  -12.4090 N   0  0  0  0  0  0  0  0  0  0  0  0
   21.6369   -5.5547  -13.8108 C   0  0  0  0  0  0  0  0  0  0  0  0
   22.4133   -4.6442  -14.1796 O   0  0  0  0  0  0  0  0  0  0  0  0
   20.9724   -6.5260  -14.6775 C   0  0  0  0  0  0  0  0  0  0  0  0
   20.0761   -7.4915  -13.9407 C   0  0  2  0  0  0  0  0  0  0  0  0
   19.4968   -8.4277  -14.8933 N   0  0  0  0  0  0  0  0  0  0  0  0
   19.0182   -6.7695  -13.1794 C   0  0  0  0  0  0  0  0  0  0  0  0
   18.0477   -6.3097  -13.8328 O   0  0  0  0  0  0  0  0  0  0  0  0
   17.1919   -5.5641   -8.7714 O   0  0  0  0  0  0  0  0  0  0  0  0
   18.1237   -6.2509   -9.5263 C   0  0  0  0  0  0  0  0  0  0  0  0
   17.9777   -6.0073  -11.0054 C   0  0  2  0  0  0  0  0  0  0  0  0
   19.0284   -6.5672  -11.7900 N   0  0  0  0  0  0  0  0  0  0  0  0
   17.8771   -4.5533  -11.2415 C   0  0  0  0  0  0  0  0  0  0  0  0
   18.7801   -3.9277  -11.8564 O   0  0  0  0  0  0  0  0  0  0  0  0
   16.7862   -3.8171  -10.7968 O   0  0  0  0  0  0  0  0  0  0  0  0
  2  1  1  1
  3  2  1  0
  4  3  1  0
  5  4  2  0
  6  5  1  0
  7  6  1  0
  7  8  2  0
  8  4  1  0
  9  2  1  0
  9 10  2  0
 11 12  1  0
 12 14  1  0
 12 13  2  0
 15 14  1  6
 15 16  1  0
 16  9  1  0
 17 15  1  0
 18 17  2  0
 19 20  1  0
 21 20  1  1
 21 22  1  0
 21 23  1  0
 22 17  1  0
 23 24  2  0
 23 25  1  0
M  END
$$$$
