HNS.pdb
     RDKit          3D

 25 25  0  0  1  0  0  0  0  0999 V2000
   20.6157  -11.3806  -15.8080 N   0  0  0  0  0  0  0  0  0  0  0  0
   19.9393  -10.2327  -16.3277 C   0  0  1  0  0  0  0  0  0  0  0  0
   18.4404  -10.4592  -16.5045 C   0  0  0  0  0  0  0  0  0  0  0  0
   18.2238  -11.4600  -17.5963 C   0  0  0  0  0  0  0  0  0  0  0  0
   18.9272  -12.6329  -17.7818 C   0  0  0  0  0  0  0  0  0  0  0  0
   18.4326  -13.2394  -18.8586 N   0  0  0  0  0  0  0  0  0  0  0  0
   17.4466  -12.4692  -19.3356 C   0  0  0  0  0  0  0  0  0  0  0  0
   17.3186  -11.3865  -18.5687 N   0  0  0  0  0  0  0  0  0  0  0  0
   20.1510   -9.0221  -15.4694 C   0  0  0  0  0  0  0  0  0  0  0  0
   19.8662   -9.0303  -14.2509 O   0  0  0  0  0  0  0  0  0  0  0  0
   21.6049   -4.3719  -13.8101 N   0  0  0  0  0  0  0  0  0  0  0  0
   22.6916   -5.1115  -14.3661 C   0  0  0  0  0  0  0  0  0  0  0  0
   23.8414   -4.6789  -14.1239 O   0  0  0  0  0  0  0  0  0  0  0  0
   22.3640   -6.2945  -15.1594 C   0  0  0  0  0  0  0  0  0  0  0  0
   20.8896   -6.6156  -15.1996 C   0  0  2  0  0  0  0  0  0  0  0  0
   20.6832   -7.8141  -15.9998 N   0  0  0  0  0  0  0  0  0  0  0  0
   20.1033   -5.4673  -15.7316 C   0  0  0  0  0  0  0  0  0  0  0  0
   20.2610   -5.1705  -16.9429 O   0  0  0  0  0  0  0  0  0  0  0  0
   16.3363   -4.7593  -14.7976 O   0  0  0  0  0  0  0  0  0  0  0  0
   17.0298   -3.5641  -14.7795 C   0  0  0  0  0  0  0  0  0  0  0  0
   18.3671   -3.6491  -15.4671 C   0  0  2  0  0  0  0  0  0  0  0  0
   19.2025   -4.6966  -14.9792 N   0  0  0  0  0  0  0  0  0  0  0  0
   19.0501   -2.3459  -15.3442 C   0  0  0  0  0  0  0  0  0  0  0  0
   20.2227   -2.2632  -14.8936 O   0  0  0  0  0  0  0  0  0  0  0  0
   18.4301   -1.1606  -15.7191 O   0  0  0  0  0  0  0  0  0  0  0  0
  2  1  1  1
  3  2  1  0
  4  3  1  0
  5  4  2  0
  6  5  1  0
  7  6  1  0
  7  8  2  0
  8  4  1  0
  9  2  1  0
  9 10  2  0
 11 12  1  0
 12 14  1  0
 12 13  2  0
 15 14  1  6
 15 16  1  0
 16  9  1  0
 17 15  1  0
 18 17  2  0
 19 20  1  0
 21 20  1  1
 21 22  1  0
 21 23  1  0
 22 17  1  0
 23 24  2  0
 23 25  1  0
M  END
$$$$
