HNS.pdb
     RDKit          3D

 25 25  0  0  1  0  0  0  0  0999 V2000
   13.4253  -10.2840  -10.1855 N   0  0  0  0  0  0  0  0  0  0  0  0
   14.8293  -10.2841  -10.4577 C   0  0  1  0  0  0  0  0  0  0  0  0
   15.2005  -11.1601  -11.6510 C   0  0  0  0  0  0  0  0  0  0  0  0
   14.8860  -12.5869  -11.3253 C   0  0  0  0  0  0  0  0  0  0  0  0
   15.6384  -13.4294  -10.5322 C   0  0  0  0  0  0  0  0  0  0  0  0
   15.0224  -14.6088  -10.4908 N   0  0  0  0  0  0  0  0  0  0  0  0
   13.9149  -14.5095  -11.2367 C   0  0  0  0  0  0  0  0  0  0  0  0
   13.8308  -13.2801  -11.7449 N   0  0  0  0  0  0  0  0  0  0  0  0
   15.3548   -8.8992  -10.6881 C   0  0  0  0  0  0  0  0  0  0  0  0
   14.9768   -8.2137  -11.6644 O   0  0  0  0  0  0  0  0  0  0  0  0
   14.4292   -5.9285   -9.4566 N   0  0  0  0  0  0  0  0  0  0  0  0
   15.4431   -5.6751   -8.4845 C   0  0  0  0  0  0  0  0  0  0  0  0
   15.0912   -5.0376   -7.4659 O   0  0  0  0  0  0  0  0  0  0  0  0
   16.7858   -6.1790   -8.7661 C   0  0  0  0  0  0  0  0  0  0  0  0
   16.8822   -6.9880  -10.0369 C   0  0  2  0  0  0  0  0  0  0  0  0
   16.3033   -8.3044   -9.8104 N   0  0  0  0  0  0  0  0  0  0  0  0
   18.2934   -7.0900  -10.5039 C   0  0  0  0  0  0  0  0  0  0  0  0
   19.1243   -7.6177   -9.7219 O   0  0  0  0  0  0  0  0  0  0  0  0
   19.8895   -8.8798  -13.1897 O   0  0  0  0  0  0  0  0  0  0  0  0
   20.3049   -7.5811  -13.4139 C   0  0  0  0  0  0  0  0  0  0  0  0
   20.1042   -6.6846  -12.2204 C   0  0  2  0  0  0  0  0  0  0  0  0
   18.7589   -6.6407  -11.7500 N   0  0  0  0  0  0  0  0  0  0  0  0
   20.5762   -5.3272  -12.5589 C   0  0  0  0  0  0  0  0  0  0  0  0
   19.7720   -4.3652  -12.6704 O   0  0  0  0  0  0  0  0  0  0  0  0
   21.9225   -5.0554  -12.7679 O   0  0  0  0  0  0  0  0  0  0  0  0
  2  1  1  6
  3  2  1  0
  4  3  1  0
  5  4  2  0
  6  5  1  0
  7  6  1  0
  7  8  2  0
  8  4  1  0
  9  2  1  0
  9 10  2  0
 11 12  1  0
 12 14  1  0
 12 13  2  0
 15 14  1  1
 15 16  1  0
 16  9  1  0
 17 15  1  0
 18 17  2  0
 19 20  1  0
 21 20  1  6
 21 22  1  0
 21 23  1  0
 22 17  1  0
 23 24  2  0
 23 25  1  0
M  END
$$$$
