HNS.pdb
     RDKit          3D

 25 25  0  0  1  0  0  0  0  0999 V2000
   16.0614  -10.2610  -15.3973 N   0  0  0  0  0  0  0  0  0  0  0  0
   17.3461  -10.1964  -14.7723 C   0  0  1  0  0  0  0  0  0  0  0  0
   18.4873  -10.5256  -15.7307 C   0  0  0  0  0  0  0  0  0  0  0  0
   18.3722  -11.9570  -16.1529 C   0  0  0  0  0  0  0  0  0  0  0  0
   17.9494  -12.4149  -17.3844 C   0  0  0  0  0  0  0  0  0  0  0  0
   17.9889  -13.7452  -17.3605 N   0  0  0  0  0  0  0  0  0  0  0  0
   18.4241  -14.1122  -16.1486 C   0  0  0  0  0  0  0  0  0  0  0  0
   18.6576  -13.0254  -15.4130 N   0  0  0  0  0  0  0  0  0  0  0  0
   17.6010   -8.8547  -14.1541 C   0  0  0  0  0  0  0  0  0  0  0  0
   17.2460   -7.7981  -14.7229 O   0  0  0  0  0  0  0  0  0  0  0  0
   18.9402   -5.1225  -10.8867 N   0  0  0  0  0  0  0  0  0  0  0  0
   18.4424   -6.2204  -10.1225 C   0  0  0  0  0  0  0  0  0  0  0  0
   18.2220   -6.0003   -8.9097 O   0  0  0  0  0  0  0  0  0  0  0  0
   18.2382   -7.4881  -10.8205 C   0  0  0  0  0  0  0  0  0  0  0  0
   18.5670   -7.4362  -12.2929 C   0  0  2  0  0  0  0  0  0  0  0  0
   18.2553   -8.7231  -12.8978 N   0  0  0  0  0  0  0  0  0  0  0  0
   19.9933   -7.0658  -12.5128 C   0  0  0  0  0  0  0  0  0  0  0  0
   20.7853   -7.9851  -12.8414 O   0  0  0  0  0  0  0  0  0  0  0  0
   22.6532   -5.3021  -15.3315 O   0  0  0  0  0  0  0  0  0  0  0  0
   21.8538   -5.9781  -14.4295 C   0  0  0  0  0  0  0  0  0  0  0  0
   21.4169   -5.1197  -13.2716 C   0  0  2  0  0  0  0  0  0  0  0  0
   20.5133   -5.7683  -12.3796 N   0  0  0  0  0  0  0  0  0  0  0  0
   20.8179   -3.8773  -13.7986 C   0  0  0  0  0  0  0  0  0  0  0  0
   21.5160   -2.8484  -13.9958 O   0  0  0  0  0  0  0  0  0  0  0  0
   19.4640   -3.7916  -14.0979 O   0  0  0  0  0  0  0  0  0  0  0  0
  2  1  1  6
  3  2  1  0
  4  3  1  0
  5  4  2  0
  6  5  1  0
  7  6  1  0
  7  8  2  0
  8  4  1  0
  9  2  1  0
  9 10  2  0
 11 12  1  0
 12 14  1  0
 12 13  2  0
 15 14  1  1
 15 16  1  0
 16  9  1  0
 17 15  1  0
 18 17  2  0
 19 20  1  0
 21 20  1  6
 21 22  1  0
 21 23  1  0
 22 17  1  0
 23 24  2  0
 23 25  1  0
M  END
$$$$
