HNS.pdb
     RDKit          3D

 25 25  0  0  1  0  0  0  0  0999 V2000
   24.0513  -16.3756  -17.0854 N   0  0  0  0  0  0  0  0  0  0  0  0
   23.1057  -15.3721  -16.7055 C   0  0  1  0  0  0  0  0  0  0  0  0
   22.0429  -15.8949  -15.7430 C   0  0  0  0  0  0  0  0  0  0  0  0
   21.3345  -17.0499  -16.3793 C   0  0  0  0  0  0  0  0  0  0  0  0
   21.0129  -17.1763  -17.7155 C   0  0  0  0  0  0  0  0  0  0  0  0
   20.3906  -18.3420  -17.8768 N   0  0  0  0  0  0  0  0  0  0  0  0
   20.3234  -18.9307  -16.6762 C   0  0  0  0  0  0  0  0  0  0  0  0
   20.8972  -18.1457  -15.7643 N   0  0  0  0  0  0  0  0  0  0  0  0
   23.7729  -14.1779  -16.0924 C   0  0  0  0  0  0  0  0  0  0  0  0
   24.7165  -14.3051  -15.2804 O   0  0  0  0  0  0  0  0  0  0  0  0
   26.9036  -10.7071  -14.5917 N   0  0  0  0  0  0  0  0  0  0  0  0
   26.2452  -10.5292  -15.8455 C   0  0  0  0  0  0  0  0  0  0  0  0
   26.3974   -9.4178  -16.4017 O   0  0  0  0  0  0  0  0  0  0  0  0
   25.4616  -11.6511  -16.3588 C   0  0  0  0  0  0  0  0  0  0  0  0
   24.0304  -11.6684  -15.8795 C   0  0  2  0  0  0  0  0  0  0  0  0
   23.3646  -12.8515  -16.4050 N   0  0  0  0  0  0  0  0  0  0  0  0
   23.3150  -10.4232  -16.2766 C   0  0  0  0  0  0  0  0  0  0  0  0
   23.2272  -10.1739  -17.5056 O   0  0  0  0  0  0  0  0  0  0  0  0
   19.8073   -9.4284  -15.3523 O   0  0  0  0  0  0  0  0  0  0  0  0
   20.6003   -8.3418  -15.0356 C   0  0  0  0  0  0  0  0  0  0  0  0
   21.9434   -8.3751  -15.7165 C   0  0  2  0  0  0  0  0  0  0  0  0
   22.7345   -9.5124  -15.3794 N   0  0  0  0  0  0  0  0  0  0  0  0
   22.6699   -7.1296  -15.3987 C   0  0  0  0  0  0  0  0  0  0  0  0
   22.1658   -6.0009  -15.6366 O   0  0  0  0  0  0  0  0  0  0  0  0
   23.9355   -7.1507  -14.8261 O   0  0  0  0  0  0  0  0  0  0  0  0
  2  1  1  1
  3  2  1  0
  4  3  1  0
  5  4  2  0
  6  5  1  0
  7  6  1  0
  7  8  2  0
  8  4  1  0
  9  2  1  0
  9 10  2  0
 11 12  1  0
 12 14  1  0
 12 13  2  0
 15 14  1  6
 15 16  1  0
 16  9  1  0
 17 15  1  0
 18 17  2  0
 19 20  1  0
 21 20  1  1
 21 22  1  0
 21 23  1  0
 22 17  1  0
 23 24  2  0
 23 25  1  0
M  END
$$$$
