HNS.pdb
     RDKit          3D

 25 25  0  0  1  0  0  0  0  0999 V2000
   15.1132  -10.1660  -14.0885 N   0  0  0  0  0  0  0  0  0  0  0  0
   16.4496  -10.0879  -13.5852 C   0  0  1  0  0  0  0  0  0  0  0  0
   17.4937  -10.5249  -14.6091 C   0  0  0  0  0  0  0  0  0  0  0  0
   17.2663  -11.9637  -14.9538 C   0  0  0  0  0  0  0  0  0  0  0  0
   16.8073  -12.4528  -16.1601 C   0  0  0  0  0  0  0  0  0  0  0  0
   16.7426  -13.7790  -16.0645 N   0  0  0  0  0  0  0  0  0  0  0  0
   17.1493  -14.1130  -14.8333 C   0  0  0  0  0  0  0  0  0  0  0  0
   17.4681  -13.0096  -14.1567 N   0  0  0  0  0  0  0  0  0  0  0  0
   16.7868   -8.7087  -13.1042 C   0  0  0  0  0  0  0  0  0  0  0  0
   16.3425   -7.6913  -13.6817 O   0  0  0  0  0  0  0  0  0  0  0  0
   15.7368   -5.9654   -9.2044 N   0  0  0  0  0  0  0  0  0  0  0  0
   16.3669   -7.1892   -9.5817 C   0  0  0  0  0  0  0  0  0  0  0  0
   15.6573   -8.2196   -9.5316 O   0  0  0  0  0  0  0  0  0  0  0  0
   17.7695   -7.1262   -9.9878 C   0  0  0  0  0  0  0  0  0  0  0  0
   17.9768   -7.1715  -11.4823 C   0  0  2  0  0  0  0  0  0  0  0  0
   17.6238   -8.4955  -11.9739 N   0  0  0  0  0  0  0  0  0  0  0  0
   19.3783   -6.8162  -11.8420 C   0  0  0  0  0  0  0  0  0  0  0  0
   20.2612   -7.6929  -11.6623 O   0  0  0  0  0  0  0  0  0  0  0  0
   22.4707   -5.9802  -14.8396 O   0  0  0  0  0  0  0  0  0  0  0  0
   21.2735   -6.2434  -14.2016 C   0  0  0  0  0  0  0  0  0  0  0  0
   20.9964   -5.3024  -13.0586 C   0  0  2  0  0  0  0  0  0  0  0  0
   19.7812   -5.5771  -12.3652 N   0  0  0  0  0  0  0  0  0  0  0  0
   20.9958   -3.9175  -13.5706 C   0  0  0  0  0  0  0  0  0  0  0  0
   22.0572   -3.2434  -13.6310 O   0  0  0  0  0  0  0  0  0  0  0  0
   19.8286   -3.3025  -14.0056 O   0  0  0  0  0  0  0  0  0  0  0  0
  2  1  1  6
  3  2  1  0
  4  3  1  0
  5  4  2  0
  6  5  1  0
  7  6  1  0
  7  8  2  0
  8  4  1  0
  9  2  1  0
  9 10  2  0
 11 12  1  0
 12 14  1  0
 12 13  2  0
 15 14  1  1
 15 16  1  0
 16  9  1  0
 17 15  1  0
 18 17  2  0
 19 20  1  0
 21 20  1  6
 21 22  1  0
 21 23  1  0
 22 17  1  0
 23 24  2  0
 23 25  1  0
M  END
$$$$
