HNS.pdb
     RDKit          3D

 25 25  0  0  1  0  0  0  0  0999 V2000
   20.3722  -12.0865  -16.4061 N   0  0  0  0  0  0  0  0  0  0  0  0
   19.8526  -10.7546  -16.4447 C   0  0  1  0  0  0  0  0  0  0  0  0
   18.9751  -10.4269  -15.2398 C   0  0  0  0  0  0  0  0  0  0  0  0
   17.7627  -11.3044  -15.2663 C   0  0  0  0  0  0  0  0  0  0  0  0
   17.1041  -11.7553  -16.3923 C   0  0  0  0  0  0  0  0  0  0  0  0
   16.0802  -12.5062  -15.9928 N   0  0  0  0  0  0  0  0  0  0  0  0
   16.0954  -12.5262  -14.6541 C   0  0  0  0  0  0  0  0  0  0  0  0
   17.1184  -11.7956  -14.2109 N   0  0  0  0  0  0  0  0  0  0  0  0
   20.9433   -9.7311  -16.5457 C   0  0  0  0  0  0  0  0  0  0  0  0
   21.9067   -9.7258  -15.7471 O   0  0  0  0  0  0  0  0  0  0  0  0
   23.9787   -6.3117  -20.3249 N   0  0  0  0  0  0  0  0  0  0  0  0
   23.0164   -6.1444  -19.2841 C   0  0  0  0  0  0  0  0  0  0  0  0
   23.0809   -5.0773  -18.6322 O   0  0  0  0  0  0  0  0  0  0  0  0
   22.0539   -7.2248  -19.0780 C   0  0  0  0  0  0  0  0  0  0  0  0
   21.9424   -7.6801  -17.6432 C   0  0  2  0  0  0  0  0  0  0  0  0
   20.9318   -8.7238  -17.5501 N   0  0  0  0  0  0  0  0  0  0  0  0
   21.6265   -6.5384  -16.7395 C   0  0  0  0  0  0  0  0  0  0  0  0
   20.4135   -6.2605  -16.5616 O   0  0  0  0  0  0  0  0  0  0  0  0
   20.9235   -2.7015  -14.8772 O   0  0  0  0  0  0  0  0  0  0  0  0
   21.1033   -3.8409  -15.6381 C   0  0  0  0  0  0  0  0  0  0  0  0
   22.3272   -4.6251  -15.2434 C   0  0  2  0  0  0  0  0  0  0  0  0
   22.5835   -5.7544  -16.0753 N   0  0  0  0  0  0  0  0  0  0  0  0
   22.1911   -5.0437  -13.8340 C   0  0  0  0  0  0  0  0  0  0  0  0
   22.2061   -6.2600  -13.5099 O   0  0  0  0  0  0  0  0  0  0  0  0
   22.0414   -4.1167  -12.8102 O   0  0  0  0  0  0  0  0  0  0  0  0
  2  1  1  1
  3  2  1  0
  4  3  1  0
  5  4  2  0
  6  5  1  0
  7  6  1  0
  7  8  2  0
  8  4  1  0
  9  2  1  0
  9 10  2  0
 11 12  1  0
 12 14  1  0
 12 13  2  0
 15 14  1  6
 15 16  1  0
 16  9  1  0
 17 15  1  0
 18 17  2  0
 19 20  1  0
 21 20  1  6
 21 22  1  0
 21 23  1  0
 22 17  1  0
 23 24  2  0
 23 25  1  0
M  END
$$$$
