HNS.pdb
     RDKit          3D

 25 25  0  0  1  0  0  0  0  0999 V2000
   25.2882  -20.4585  -15.2392 N   0  0  0  0  0  0  0  0  0  0  0  0
   24.4915  -21.6194  -14.9882 C   0  0  1  0  0  0  0  0  0  0  0  0
   25.2775  -22.7423  -14.3169 C   0  0  0  0  0  0  0  0  0  0  0  0
   26.1782  -23.3794  -15.3286 C   0  0  0  0  0  0  0  0  0  0  0  0
   26.2168  -23.1007  -16.6798 C   0  0  0  0  0  0  0  0  0  0  0  0
   27.1486  -23.8760  -17.2298 N   0  0  0  0  0  0  0  0  0  0  0  0
   27.6800  -24.6203  -16.2519 C   0  0  0  0  0  0  0  0  0  0  0  0
   27.0906  -24.3192  -15.0948 N   0  0  0  0  0  0  0  0  0  0  0  0
   23.2870  -21.3020  -14.1541 C   0  0  0  0  0  0  0  0  0  0  0  0
   23.3879  -20.6673  -13.0803 O   0  0  0  0  0  0  0  0  0  0  0  0
   20.7911  -18.6161  -15.9278 N   0  0  0  0  0  0  0  0  0  0  0  0
   20.4426  -19.1004  -14.6312 C   0  0  0  0  0  0  0  0  0  0  0  0
   20.6243  -18.3128  -13.6750 O   0  0  0  0  0  0  0  0  0  0  0  0
   19.9106  -20.4587  -14.5413 C   0  0  0  0  0  0  0  0  0  0  0  0
   20.7879  -21.4097  -13.7638 C   0  0  2  0  0  0  0  0  0  0  0  0
   21.9802  -21.7065  -14.5445 N   0  0  0  0  0  0  0  0  0  0  0  0
   20.0497  -22.6541  -13.4084 C   0  0  0  0  0  0  0  0  0  0  0  0
   19.9298  -23.5303  -14.3019 O   0  0  0  0  0  0  0  0  0  0  0  0
   17.8829  -22.9671   -9.8582 O   0  0  0  0  0  0  0  0  0  0  0  0
   18.4532  -24.1495  -10.2898 C   0  0  0  0  0  0  0  0  0  0  0  0
   18.8351  -24.1214  -11.7465 C   0  0  2  0  0  0  0  0  0  0  0  0
   19.4808  -22.9164  -12.1518 N   0  0  0  0  0  0  0  0  0  0  0  0
   17.6264  -24.3573  -12.5609 C   0  0  0  0  0  0  0  0  0  0  0  0
   17.1685  -23.4661  -13.3230 O   0  0  0  0  0  0  0  0  0  0  0  0
   16.9461  -25.5678  -12.5208 O   0  0  0  0  0  0  0  0  0  0  0  0
  2  1  1  1
  3  2  1  0
  4  3  1  0
  5  4  2  0
  6  5  1  0
  7  6  1  0
  7  8  2  0
  8  4  1  0
  9  2  1  0
  9 10  2  0
 11 12  1  0
 12 14  1  0
 12 13  2  0
 15 14  1  6
 15 16  1  0
 16  9  1  0
 17 15  1  0
 18 17  2  0
 19 20  1  0
 21 20  1  1
 21 22  1  0
 21 23  1  0
 22 17  1  0
 23 24  2  0
 23 25  1  0
M  END
$$$$
