HNS.pdb
     RDKit          3D

 25 25  0  0  1  0  0  0  0  0999 V2000
   18.3215  -11.0272  -15.1182 N   0  0  0  0  0  0  0  0  0  0  0  0
   18.2091   -9.7921  -15.8306 C   0  0  1  0  0  0  0  0  0  0  0  0
   16.7729   -9.4715  -16.2355 C   0  0  0  0  0  0  0  0  0  0  0  0
   16.2601  -10.5645  -17.1205 C   0  0  0  0  0  0  0  0  0  0  0  0
   16.8345  -11.0011  -18.2971 C   0  0  0  0  0  0  0  0  0  0  0  0
   16.0776  -11.9838  -18.7804 N   0  0  0  0  0  0  0  0  0  0  0  0
   15.0572  -12.1591  -17.9314 C   0  0  0  0  0  0  0  0  0  0  0  0
   15.1671  -11.2964  -16.9213 N   0  0  0  0  0  0  0  0  0  0  0  0
   18.7623   -8.6410  -15.0458 C   0  0  0  0  0  0  0  0  0  0  0  0
   18.3991   -8.4215  -13.8685 O   0  0  0  0  0  0  0  0  0  0  0  0
   21.4342   -4.4412  -13.6949 N   0  0  0  0  0  0  0  0  0  0  0  0
   22.3084   -5.4828  -14.1285 C   0  0  0  0  0  0  0  0  0  0  0  0
   23.5203   -5.3472  -13.8442 O   0  0  0  0  0  0  0  0  0  0  0  0
   21.7129   -6.6007  -14.8576 C   0  0  0  0  0  0  0  0  0  0  0  0
   20.2047   -6.5649  -14.9080 C   0  0  2  0  0  0  0  0  0  0  0  0
   19.7214   -7.7497  -15.6021 N   0  0  0  0  0  0  0  0  0  0  0  0
   19.7177   -5.3178  -15.5619 C   0  0  0  0  0  0  0  0  0  0  0  0
   19.9733   -5.1680  -16.7836 O   0  0  0  0  0  0  0  0  0  0  0  0
   16.4109   -1.7645  -15.5386 O   0  0  0  0  0  0  0  0  0  0  0  0
   17.0065   -2.8598  -14.9425 C   0  0  0  0  0  0  0  0  0  0  0  0
   18.3530   -3.1903  -15.5309 C   0  0  2  0  0  0  0  0  0  0  0  0
   18.9966   -4.3026  -14.9132 N   0  0  0  0  0  0  0  0  0  0  0  0
   19.2124   -1.9919  -15.4577 C   0  0  0  0  0  0  0  0  0  0  0  0
   19.9198   -1.7568  -14.4432 O   0  0  0  0  0  0  0  0  0  0  0  0
   19.2764   -1.0768  -16.5009 O   0  0  0  0  0  0  0  0  0  0  0  0
  2  1  1  1
  3  2  1  0
  4  3  1  0
  5  4  2  0
  6  5  1  0
  7  6  1  0
  7  8  2  0
  8  4  1  0
  9  2  1  0
  9 10  2  0
 11 12  1  0
 12 14  1  0
 12 13  2  0
 15 14  1  6
 15 16  1  0
 16  9  1  0
 17 15  1  0
 18 17  2  0
 19 20  1  0
 21 20  1  1
 21 22  1  0
 21 23  1  0
 22 17  1  0
 23 24  2  0
 23 25  1  0
M  END
$$$$
