HNS.pdb
     RDKit          3D

 25 25  0  0  1  0  0  0  0  0999 V2000
   19.9660  -15.3991  -16.6270 N   0  0  0  0  0  0  0  0  0  0  0  0
   19.3331  -14.1190  -16.7069 C   0  0  1  0  0  0  0  0  0  0  0  0
   18.2271  -13.9405  -15.6705 C   0  0  0  0  0  0  0  0  0  0  0  0
   17.1695  -14.9739  -15.9029 C   0  0  0  0  0  0  0  0  0  0  0  0
   17.1337  -16.2432  -15.3620 C   0  0  0  0  0  0  0  0  0  0  0  0
   16.0359  -16.8473  -15.8115 N   0  0  0  0  0  0  0  0  0  0  0  0
   15.4006  -15.9820  -16.6116 C   0  0  0  0  0  0  0  0  0  0  0  0
   16.0891  -14.8420  -16.6681 N   0  0  0  0  0  0  0  0  0  0  0  0
   20.3182  -12.9979  -16.5660 C   0  0  0  0  0  0  0  0  0  0  0  0
   21.1103  -12.9452  -15.5986 O   0  0  0  0  0  0  0  0  0  0  0  0
   22.9887   -8.6608  -17.5160 N   0  0  0  0  0  0  0  0  0  0  0  0
   22.9766   -9.4939  -18.6749 C   0  0  0  0  0  0  0  0  0  0  0  0
   23.7936   -9.2035  -19.5782 O   0  0  0  0  0  0  0  0  0  0  0  0
   22.0201  -10.5987  -18.6989 C   0  0  0  0  0  0  0  0  0  0  0  0
   21.3014  -10.8150  -17.3893 C   0  0  2  0  0  0  0  0  0  0  0  0
   20.3963  -11.9474  -17.5221 N   0  0  0  0  0  0  0  0  0  0  0  0
   20.5727   -9.5862  -16.9662 C   0  0  0  0  0  0  0  0  0  0  0  0
   19.5333   -9.2819  -17.6045 O   0  0  0  0  0  0  0  0  0  0  0  0
   20.5663   -8.1693  -13.0638 O   0  0  0  0  0  0  0  0  0  0  0  0
   19.6237   -7.8901  -14.0350 C   0  0  0  0  0  0  0  0  0  0  0  0
   20.2313   -7.6395  -15.3902 C   0  0  2  0  0  0  0  0  0  0  0  0
   20.9629   -8.7477  -15.9097 N   0  0  0  0  0  0  0  0  0  0  0  0
   21.0939   -6.4437  -15.3121 C   0  0  0  0  0  0  0  0  0  0  0  0
   22.3192   -6.5031  -15.5947 O   0  0  0  0  0  0  0  0  0  0  0  0
   20.5919   -5.2076  -14.9251 O   0  0  0  0  0  0  0  0  0  0  0  0
  2  1  1  1
  3  2  1  0
  4  3  1  0
  5  4  2  0
  6  5  1  0
  7  6  1  0
  7  8  2  0
  8  4  1  0
  9  2  1  0
  9 10  2  0
 11 12  1  0
 12 14  1  0
 12 13  2  0
 15 14  1  6
 15 16  1  0
 16  9  1  0
 17 15  1  0
 18 17  2  0
 19 20  1  0
 21 20  1  1
 21 22  1  0
 21 23  1  0
 22 17  1  0
 23 24  2  0
 23 25  1  0
M  END
$$$$
