HNS.pdb
     RDKit          3D

 25 25  0  0  1  0  0  0  0  0999 V2000
   19.8781  -13.5662  -17.0271 N   0  0  0  0  0  0  0  0  0  0  0  0
   20.6731  -12.5180  -17.5879 C   0  0  1  0  0  0  0  0  0  0  0  0
   20.7012  -12.5486  -19.1135 C   0  0  0  0  0  0  0  0  0  0  0  0
   21.3097  -13.8397  -19.5644 C   0  0  0  0  0  0  0  0  0  0  0  0
   20.6350  -15.0162  -19.8207 C   0  0  0  0  0  0  0  0  0  0  0  0
   21.5305  -15.9263  -20.1971 N   0  0  0  0  0  0  0  0  0  0  0  0
   22.7331  -15.3381  -20.1777 C   0  0  0  0  0  0  0  0  0  0  0  0
   22.6002  -14.0688  -19.7929 N   0  0  0  0  0  0  0  0  0  0  0  0
   20.2137  -11.1643  -17.1363 C   0  0  0  0  0  0  0  0  0  0  0  0
   19.0071  -10.8362  -17.1868 O   0  0  0  0  0  0  0  0  0  0  0  0
   19.1830   -7.1851  -13.7801 N   0  0  0  0  0  0  0  0  0  0  0  0
   20.5225   -7.3924  -14.2274 C   0  0  0  0  0  0  0  0  0  0  0  0
   21.2958   -6.4112  -14.1435 O   0  0  0  0  0  0  0  0  0  0  0  0
   20.8636   -8.7190  -14.7371 C   0  0  0  0  0  0  0  0  0  0  0  0
   20.7234   -8.8545  -16.2339 C   0  0  2  0  0  0  0  0  0  0  0  0
   21.1255  -10.1958  -16.6321 N   0  0  0  0  0  0  0  0  0  0  0  0
   21.5213   -7.8165  -16.9451 C   0  0  0  0  0  0  0  0  0  0  0  0
   22.7734   -7.9205  -16.9032 O   0  0  0  0  0  0  0  0  0  0  0  0
   21.3930   -6.7215  -20.5960 O   0  0  0  0  0  0  0  0  0  0  0  0
   21.2058   -5.5931  -19.8205 C   0  0  0  0  0  0  0  0  0  0  0  0
   21.6984   -5.7620  -18.4072 C   0  0  2  0  0  0  0  0  0  0  0  0
   20.9762   -6.7350  -17.6556 N   0  0  0  0  0  0  0  0  0  0  0  0
   21.6569   -4.4516  -17.7280 C   0  0  0  0  0  0  0  0  0  0  0  0
   22.2892   -3.4615  -18.1805 O   0  0  0  0  0  0  0  0  0  0  0  0
   20.9214   -4.2567  -16.5657 O   0  0  0  0  0  0  0  0  0  0  0  0
  2  1  1  6
  3  2  1  0
  4  3  1  0
  5  4  2  0
  6  5  1  0
  7  6  1  0
  7  8  2  0
  8  4  1  0
  9  2  1  0
  9 10  2  0
 11 12  1  0
 12 14  1  0
 12 13  2  0
 15 14  1  1
 15 16  1  0
 16  9  1  0
 17 15  1  0
 18 17  2  0
 19 20  1  0
 21 20  1  6
 21 22  1  0
 21 23  1  0
 22 17  1  0
 23 24  2  0
 23 25  1  0
M  END
$$$$
