HNS.pdb
     RDKit          3D

 25 25  0  0  1  0  0  0  0  0999 V2000
   19.3589  -11.4213  -16.0130 N   0  0  0  0  0  0  0  0  0  0  0  0
   19.4868  -10.1994  -16.7452 C   0  0  1  0  0  0  0  0  0  0  0  0
   18.3783  -10.0094  -17.7770 C   0  0  0  0  0  0  0  0  0  0  0  0
   18.4224  -11.1423  -18.7544 C   0  0  0  0  0  0  0  0  0  0  0  0
   19.1496  -11.1830  -19.9267 C   0  0  0  0  0  0  0  0  0  0  0  0
   18.9199  -12.3579  -20.5087 N   0  0  0  0  0  0  0  0  0  0  0  0
   18.0726  -13.0356  -19.7242 C   0  0  0  0  0  0  0  0  0  0  0  0
   17.7692  -12.2973  -18.6567 N   0  0  0  0  0  0  0  0  0  0  0  0
   19.5192   -9.0052  -15.8397 C   0  0  0  0  0  0  0  0  0  0  0  0
   18.5518   -8.7253  -15.0968 O   0  0  0  0  0  0  0  0  0  0  0  0
   22.8357   -4.4101  -14.2094 N   0  0  0  0  0  0  0  0  0  0  0  0
   22.2707   -5.5708  -13.6006 C   0  0  0  0  0  0  0  0  0  0  0  0
   21.9668   -5.4727  -12.3899 O   0  0  0  0  0  0  0  0  0  0  0  0
   22.1012   -6.7554  -14.4396 C   0  0  0  0  0  0  0  0  0  0  0  0
   20.6947   -6.9455  -14.9536 C   0  0  2  0  0  0  0  0  0  0  0  0
   20.6469   -8.1397  -15.7847 N   0  0  0  0  0  0  0  0  0  0  0  0
   20.2292   -5.7450  -15.7035 C   0  0  0  0  0  0  0  0  0  0  0  0
   20.7252   -5.5460  -16.8413 O   0  0  0  0  0  0  0  0  0  0  0  0
   16.8046   -2.6850  -16.9077 O   0  0  0  0  0  0  0  0  0  0  0  0
   17.3026   -3.8147  -16.2868 C   0  0  0  0  0  0  0  0  0  0  0  0
   18.7634   -3.6990  -15.9384 C   0  0  2  0  0  0  0  0  0  0  0  0
   19.2800   -4.8244  -15.2314 N   0  0  0  0  0  0  0  0  0  0  0  0
   18.9714   -2.4617  -15.1600 C   0  0  0  0  0  0  0  0  0  0  0  0
   19.4141   -2.4981  -13.9821 O   0  0  0  0  0  0  0  0  0  0  0  0
   18.6884   -1.2102  -15.6924 O   0  0  0  0  0  0  0  0  0  0  0  0
  2  1  1  1
  3  2  1  0
  4  3  1  0
  5  4  2  0
  6  5  1  0
  7  6  1  0
  7  8  2  0
  8  4  1  0
  9  2  1  0
  9 10  2  0
 11 12  1  0
 12 14  1  0
 12 13  2  0
 15 14  1  6
 15 16  1  0
 16  9  1  0
 17 15  1  0
 18 17  2  0
 19 20  1  0
 21 20  1  1
 21 22  1  0
 21 23  1  0
 22 17  1  0
 23 24  2  0
 23 25  1  0
M  END
$$$$
