HNS.pdb
     RDKit          3D

 25 25  0  0  1  0  0  0  0  0999 V2000
   18.3485  -10.4997  -14.1879 N   0  0  0  0  0  0  0  0  0  0  0  0
   18.8515   -9.4009  -13.4230 C   0  0  1  0  0  0  0  0  0  0  0  0
   19.7872   -8.5009  -14.2253 C   0  0  0  0  0  0  0  0  0  0  0  0
   21.0351   -9.2609  -14.5502 C   0  0  0  0  0  0  0  0  0  0  0  0
   22.3309   -8.8214  -14.3688 C   0  0  0  0  0  0  0  0  0  0  0  0
   23.1504   -9.7868  -14.7791 N   0  0  0  0  0  0  0  0  0  0  0  0
   22.3909  -10.8036  -15.2059 C   0  0  0  0  0  0  0  0  0  0  0  0
   21.1040  -10.4849  -15.0672 N   0  0  0  0  0  0  0  0  0  0  0  0
   17.7465   -8.5663  -12.8490 C   0  0  0  0  0  0  0  0  0  0  0  0
   16.7224   -8.2950  -13.5151 O   0  0  0  0  0  0  0  0  0  0  0  0
   14.9476   -5.7269   -9.5516 N   0  0  0  0  0  0  0  0  0  0  0  0
   15.7403   -6.6113   -8.7599 C   0  0  0  0  0  0  0  0  0  0  0  0
   15.4932   -6.6330   -7.5326 O   0  0  0  0  0  0  0  0  0  0  0  0
   16.7575   -7.4023   -9.4496 C   0  0  0  0  0  0  0  0  0  0  0  0
   16.7725   -7.2091  -10.9466 C   0  0  2  0  0  0  0  0  0  0  0  0
   17.8123   -8.0471  -11.5261 N   0  0  0  0  0  0  0  0  0  0  0  0
   16.9712   -5.7759  -11.3021 C   0  0  0  0  0  0  0  0  0  0  0  0
   18.0403   -5.2305  -10.9282 O   0  0  0  0  0  0  0  0  0  0  0  0
   14.3179   -3.8593  -13.9412 O   0  0  0  0  0  0  0  0  0  0  0  0
   15.6395   -3.4580  -13.8957 C   0  0  0  0  0  0  0  0  0  0  0  0
   16.2792   -3.6906  -12.5521 C   0  0  2  0  0  0  0  0  0  0  0  0
   16.0530   -4.9948  -12.0220 N   0  0  0  0  0  0  0  0  0  0  0  0
   15.7975   -2.6609  -11.6100 C   0  0  0  0  0  0  0  0  0  0  0  0
   15.9702   -1.4350  -11.8384 O   0  0  0  0  0  0  0  0  0  0  0  0
   15.1359   -2.9999  -10.4364 O   0  0  0  0  0  0  0  0  0  0  0  0
  2  1  1  6
  3  2  1  0
  4  3  1  0
  5  4  2  0
  6  5  1  0
  7  6  1  0
  7  8  2  0
  8  4  1  0
  9  2  1  0
  9 10  2  0
 11 12  1  0
 12 14  1  0
 12 13  2  0
 15 14  1  1
 15 16  1  0
 16  9  1  0
 17 15  1  0
 18 17  2  0
 19 20  1  0
 21 20  1  6
 21 22  1  0
 21 23  1  0
 22 17  1  0
 23 24  2  0
 23 25  1  0
M  END
$$$$
