LVI.pdb
     RDKit          3D

 24 23  0  0  1  0  0  0  0  0999 V2000
   18.0884  -19.6690  -10.9687 C   0  0  0  0  0  0  0  0  0  0  0  0
   18.0938  -21.1621  -11.1703 C   0  0  2  0  0  0  0  0  0  0  0  0
   18.0077  -21.8344   -9.8266 C   0  0  0  0  0  0  0  0  0  0  0  0
   19.3482  -21.5536  -11.8831 C   0  0  0  0  0  0  0  0  0  0  0  0
   19.4017  -20.8284  -13.2349 C   0  0  2  0  0  0  0  0  0  0  0  0
   18.3211  -21.3649  -14.0158 N   0  0  0  0  0  0  0  0  0  0  0  0
   20.7305  -21.1044  -13.8300 C   0  0  0  0  0  0  0  0  0  0  0  0
   21.1460  -22.2919  -13.8288 O   0  0  0  0  0  0  0  0  0  0  0  0
   24.1456  -19.8904  -17.0901 C   0  0  0  0  0  0  0  0  0  0  0  0
   22.7969  -19.8362  -16.4191 C   0  0  1  0  0  0  0  0  0  0  0  0
   21.6858  -20.3428  -17.3065 C   0  0  0  0  0  0  0  0  0  0  0  0
   22.8015  -20.4822  -15.0553 C   0  0  2  0  0  0  0  0  0  0  0  0
   21.5751  -20.1129  -14.4071 N   0  0  0  0  0  0  0  0  0  0  0  0
   24.0049  -20.1854  -14.2652 C   0  0  0  0  0  0  0  0  0  0  0  0
   24.1701  -18.9749  -13.9313 O   0  0  0  0  0  0  0  0  0  0  0  0
   24.7791  -21.0355   -9.4713 C   0  0  0  0  0  0  0  0  0  0  0  0
   24.9431  -20.6577  -10.8783 C   0  0  0  0  0  0  0  0  0  0  0  0
   26.0650  -21.1400  -11.6952 C   0  0  2  0  0  0  0  0  0  0  0  0
   27.3540  -20.8932  -10.8970 C   0  0  0  0  0  0  0  0  0  0  0  0
   26.1616  -20.7013  -13.0792 C   0  0  2  0  0  0  0  0  0  0  0  0
   24.9672  -21.0879  -13.8524 N   0  0  0  0  0  0  0  0  0  0  0  0
   27.2862  -21.0403  -13.9280 C   0  0  0  0  0  0  0  0  0  0  0  0
   28.3704  -20.2282  -14.1074 O   0  0  0  0  0  0  0  0  0  0  0  0
   27.3515  -22.1438  -14.5952 O   0  0  0  0  0  0  0  0  0  0  0  0
  2  1  1  1
  2  3  1  0
  4  5  1  0
  4  2  1  0
  5  7  1  0
  5  6  1  6
  7  8  2  0
 10 11  1  6
 10 12  1  0
 10  9  1  0
 12 13  1  1
 13  7  1  0
 14 12  1  0
 14 15  2  0
 16 17  1  0
 17 18  1  0
 18 20  1  0
 18 19  1  1
 20 22  1  0
 20 21  1  6
 21 14  1  0
 22 23  1  0
 24 22  2  0
M  END
$$$$
