LVI.pdb
     RDKit          3D

 24 23  0  0  1  0  0  0  0  0999 V2000
   29.0104  -19.3434  -15.6714 C   0  0  0  0  0  0  0  0  0  0  0  0
   28.3778  -17.9781  -15.7495 C   0  0  2  0  0  0  0  0  0  0  0  0
   29.4641  -16.9369  -15.7251 C   0  0  0  0  0  0  0  0  0  0  0  0
   27.4468  -17.8050  -14.5926 C   0  0  0  0  0  0  0  0  0  0  0  0
   26.6525  -19.1030  -14.3921 C   0  0  2  0  0  0  0  0  0  0  0  0
   25.6044  -19.0826  -15.3752 N   0  0  0  0  0  0  0  0  0  0  0  0
   26.1353  -19.0922  -13.0033 C   0  0  0  0  0  0  0  0  0  0  0  0
   25.7607  -17.9935  -12.5183 O   0  0  0  0  0  0  0  0  0  0  0  0
   23.3272  -21.0645   -9.7332 C   0  0  0  0  0  0  0  0  0  0  0  0
   24.1270  -21.0424  -11.0107 C   0  0  1  0  0  0  0  0  0  0  0  0
   23.2825  -20.7182  -12.2192 C   0  0  0  0  0  0  0  0  0  0  0  0
   25.3613  -20.1804  -10.9071 C   0  0  2  0  0  0  0  0  0  0  0  0
   26.0321  -20.2463  -12.1745 N   0  0  0  0  0  0  0  0  0  0  0  0
   26.2198  -20.5135   -9.7615 C   0  0  0  0  0  0  0  0  0  0  0  0
   27.0296  -21.4726   -9.9298 O   0  0  0  0  0  0  0  0  0  0  0  0
   29.4877  -18.7725   -4.9133 C   0  0  0  0  0  0  0  0  0  0  0  0
   28.6668  -19.7556   -5.6267 C   0  0  0  0  0  0  0  0  0  0  0  0
   27.7834  -19.3816   -6.7394 C   0  0  2  0  0  0  0  0  0  0  0  0
   26.9642  -18.1637   -6.2863 C   0  0  0  0  0  0  0  0  0  0  0  0
   26.9687  -20.4135   -7.3628 C   0  0  2  0  0  0  0  0  0  0  0  0
   26.2328  -19.8894   -8.5280 N   0  0  0  0  0  0  0  0  0  0  0  0
   25.9969  -21.1931   -6.6227 C   0  0  0  0  0  0  0  0  0  0  0  0
   26.3329  -22.1181   -5.6746 O   0  0  0  0  0  0  0  0  0  0  0  0
   24.7238  -21.0809   -6.8064 O   0  0  0  0  0  0  0  0  0  0  0  0
  2  1  1  1
  2  3  1  0
  4  5  1  0
  4  2  1  0
  5  7  1  0
  5  6  1  6
  7  8  2  0
 10 11  1  6
 10 12  1  0
 10  9  1  0
 12 13  1  6
 13  7  1  0
 14 12  1  0
 14 15  2  0
 16 17  1  0
 17 18  1  0
 18 20  1  0
 18 19  1  1
 20 22  1  0
 20 21  1  6
 21 14  1  0
 22 23  1  0
 24 22  2  0
M  END
$$$$
