LVI.pdb
     RDKit          3D

 24 23  0  0  1  0  0  0  0  0999 V2000
   27.8824  -23.7428  -16.4413 C   0  0  0  0  0  0  0  0  0  0  0  0
   28.4595  -22.4186  -16.8696 C   0  0  2  0  0  0  0  0  0  0  0  0
   29.9604  -22.5263  -16.8906 C   0  0  0  0  0  0  0  0  0  0  0  0
   28.0140  -21.3599  -15.9126 C   0  0  0  0  0  0  0  0  0  0  0  0
   26.4804  -21.3568  -15.8495 C   0  0  2  0  0  0  0  0  0  0  0  0
   26.0375  -20.6202  -17.0013 N   0  0  0  0  0  0  0  0  0  0  0  0
   26.0939  -20.7108  -14.5730 C   0  0  0  0  0  0  0  0  0  0  0  0
   26.2678  -19.4700  -14.4596 O   0  0  0  0  0  0  0  0  0  0  0  0
   22.7065  -20.2746  -11.3071 C   0  0  0  0  0  0  0  0  0  0  0  0
   23.4472  -20.8151  -12.5035 C   0  0  1  0  0  0  0  0  0  0  0  0
   22.9200  -20.2691  -13.8083 C   0  0  0  0  0  0  0  0  0  0  0  0
   24.9439  -20.6768  -12.3698 C   0  0  2  0  0  0  0  0  0  0  0  0
   25.5355  -21.4011  -13.4589 N   0  0  0  0  0  0  0  0  0  0  0  0
   25.4572  -21.0652  -11.0484 C   0  0  0  0  0  0  0  0  0  0  0  0
   25.4983  -22.3079  -10.8077 O   0  0  0  0  0  0  0  0  0  0  0  0
   28.9622  -19.4530   -6.1904 C   0  0  0  0  0  0  0  0  0  0  0  0
   27.9200  -20.2463   -6.8490 C   0  0  0  0  0  0  0  0  0  0  0  0
   27.2958  -19.8290   -8.1118 C   0  0  2  0  0  0  0  0  0  0  0  0
   26.8374  -18.3732   -7.9387 C   0  0  0  0  0  0  0  0  0  0  0  0
   26.2730  -20.6799   -8.7010 C   0  0  2  0  0  0  0  0  0  0  0  0
   25.8970  -20.2169  -10.0494 N   0  0  0  0  0  0  0  0  0  0  0  0
   25.0170  -20.9641   -8.0363 C   0  0  0  0  0  0  0  0  0  0  0  0
   23.8676  -20.2590   -8.2573 O   0  0  0  0  0  0  0  0  0  0  0  0
   24.8835  -21.9104   -7.1681 O   0  0  0  0  0  0  0  0  0  0  0  0
  2  1  1  1
  2  3  1  0
  4  5  1  0
  4  2  1  0
  5  7  1  0
  5  6  1  6
  7  8  2  0
 10 11  1  6
 10 12  1  0
 10  9  1  0
 12 13  1  6
 13  7  1  0
 14 12  1  0
 14 15  2  0
 16 17  1  0
 17 18  1  0
 18 20  1  0
 18 19  1  1
 20 22  1  0
 20 21  1  6
 21 14  1  0
 22 23  1  0
 24 22  2  0
M  END
$$$$
