LVI.pdb
     RDKit          3D

 24 23  0  0  1  0  0  0  0  0999 V2000
   25.1595  -14.9712  -14.6003 C   0  0  0  0  0  0  0  0  0  0  0  0
   25.5023  -14.7641  -16.0528 C   0  0  2  0  0  0  0  0  0  0  0  0
   26.9906  -14.5802  -16.1796 C   0  0  0  0  0  0  0  0  0  0  0  0
   24.7712  -13.5628  -16.5600 C   0  0  0  0  0  0  0  0  0  0  0  0
   23.2614  -13.8302  -16.4899 C   0  0  2  0  0  0  0  0  0  0  0  0
   23.0038  -14.8959  -17.4191 N   0  0  0  0  0  0  0  0  0  0  0  0
   22.5738  -12.5703  -16.8582 C   0  0  0  0  0  0  0  0  0  0  0  0
   22.6604  -12.1734  -18.0490 O   0  0  0  0  0  0  0  0  0  0  0  0
   18.7572   -9.7119  -16.3985 C   0  0  0  0  0  0  0  0  0  0  0  0
   19.6255  -10.9405  -16.3039 C   0  0  1  0  0  0  0  0  0  0  0  0
   19.1870  -12.0356  -17.2458 C   0  0  0  0  0  0  0  0  0  0  0  0
   21.0960  -10.6212  -16.4169 C   0  0  2  0  0  0  0  0  0  0  0  0
   21.8168  -11.7726  -15.9526 N   0  0  0  0  0  0  0  0  0  0  0  0
   21.4815   -9.3693  -15.7500 C   0  0  0  0  0  0  0  0  0  0  0  0
   21.5066   -9.3948  -14.4841 O   0  0  0  0  0  0  0  0  0  0  0  0
   25.2986   -4.6117  -16.6606 C   0  0  0  0  0  0  0  0  0  0  0  0
   24.2251   -5.2812  -15.9199 C   0  0  0  0  0  0  0  0  0  0  0  0
   23.5132   -6.4501  -16.4539 C   0  0  2  0  0  0  0  0  0  0  0  0
   23.0533   -6.0976  -17.8765 C   0  0  0  0  0  0  0  0  0  0  0  0
   22.4615   -7.0553  -15.6510 C   0  0  2  0  0  0  0  0  0  0  0  0
   21.8175   -8.1756  -16.3611 N   0  0  0  0  0  0  0  0  0  0  0  0
   21.3685   -6.2867  -15.0899 C   0  0  0  0  0  0  0  0  0  0  0  0
   20.1015   -6.2883  -15.6018 O   0  0  0  0  0  0  0  0  0  0  0  0
   21.5068   -5.5258  -14.0561 O   0  0  0  0  0  0  0  0  0  0  0  0
  2  1  1  1
  2  3  1  0
  4  5  1  0
  4  2  1  0
  5  7  1  0
  5  6  1  6
  7  8  2  0
 10 11  1  6
 10 12  1  0
 10  9  1  0
 12 13  1  1
 13  7  1  0
 14 12  1  0
 14 15  2  0
 16 17  1  0
 17 18  1  0
 18 20  1  0
 18 19  1  6
 20 22  1  0
 20 21  1  6
 21 14  1  0
 22 23  1  0
 24 22  2  0
M  END
$$$$
