LVI.pdb
     RDKit          3D

 24 23  0  0  1  0  0  0  0  0999 V2000
   21.9501  -19.2758  -13.3211 C   0  0  0  0  0  0  0  0  0  0  0  0
   21.4122  -20.5310  -12.6846 C   0  0  2  0  0  0  0  0  0  0  0  0
   20.2153  -20.1756  -11.8443 C   0  0  0  0  0  0  0  0  0  0  0  0
   22.4849  -21.1525  -11.8491 C   0  0  0  0  0  0  0  0  0  0  0  0
   23.8065  -21.1217  -12.6291 C   0  0  2  0  0  0  0  0  0  0  0  0
   23.6965  -22.1412  -13.6360 N   0  0  0  0  0  0  0  0  0  0  0  0
   24.8956  -21.3886  -11.6603 C   0  0  0  0  0  0  0  0  0  0  0  0
   24.8965  -22.4933  -11.0582 O   0  0  0  0  0  0  0  0  0  0  0  0
   29.5068  -20.8745  -10.3022 C   0  0  0  0  0  0  0  0  0  0  0  0
   28.3080  -20.5363  -11.1511 C   0  0  1  0  0  0  0  0  0  0  0  0
   28.3929  -21.1270  -12.5377 C   0  0  0  0  0  0  0  0  0  0  0  0
   27.0025  -20.8438  -10.4596 C   0  0  2  0  0  0  0  0  0  0  0  0
   25.9480  -20.4761  -11.3615 N   0  0  0  0  0  0  0  0  0  0  0  0
   26.8833  -20.2372   -9.1260 C   0  0  0  0  0  0  0  0  0  0  0  0
   26.1165  -19.2333   -9.0349 O   0  0  0  0  0  0  0  0  0  0  0  0
   28.1505  -21.0058   -3.0323 C   0  0  0  0  0  0  0  0  0  0  0  0
   27.5812  -20.3290   -4.2016 C   0  0  0  0  0  0  0  0  0  0  0  0
   27.8612  -20.7668   -5.5758 C   0  0  2  0  0  0  0  0  0  0  0  0
   29.3615  -21.0855   -5.6598 C   0  0  0  0  0  0  0  0  0  0  0  0
   27.3930  -19.9441   -6.6809 C   0  0  2  0  0  0  0  0  0  0  0  0
   27.5188  -20.6493   -7.9696 N   0  0  0  0  0  0  0  0  0  0  0  0
   27.9012  -18.6101   -6.9300 C   0  0  0  0  0  0  0  0  0  0  0  0
   27.3860  -17.4841   -6.3521 O   0  0  0  0  0  0  0  0  0  0  0  0
   28.8861  -18.3750   -7.7311 O   0  0  0  0  0  0  0  0  0  0  0  0
  2  1  1  1
  2  3  1  0
  4  5  1  0
  4  2  1  0
  5  7  1  0
  5  6  1  6
  7  8  2  0
 10 11  1  6
 10 12  1  0
 10  9  1  0
 12 13  1  6
 13  7  1  0
 14 12  1  0
 14 15  2  0
 16 17  1  0
 17 18  1  0
 18 20  1  0
 18 19  1  1
 20 22  1  0
 20 21  1  6
 21 14  1  0
 22 23  1  0
 24 22  2  0
M  END
$$$$
