LVI.pdb
     RDKit          3D

 24 23  0  0  1  0  0  0  0  0999 V2000
   21.9634  -18.8108  -12.5462 C   0  0  0  0  0  0  0  0  0  0  0  0
   21.3456  -19.9293  -11.7478 C   0  0  2  0  0  0  0  0  0  0  0  0
   20.2514  -19.3629  -10.8837 C   0  0  0  0  0  0  0  0  0  0  0  0
   22.4043  -20.5751  -10.9129 C   0  0  0  0  0  0  0  0  0  0  0  0
   23.6199  -20.8831  -11.7980 C   0  0  2  0  0  0  0  0  0  0  0  0
   23.2366  -21.9936  -12.6259 N   0  0  0  0  0  0  0  0  0  0  0  0
   24.7508  -21.2047  -10.8960 C   0  0  0  0  0  0  0  0  0  0  0  0
   24.6463  -22.2119  -10.1494 O   0  0  0  0  0  0  0  0  0  0  0  0
   29.5307  -21.1811  -10.0266 C   0  0  0  0  0  0  0  0  0  0  0  0
   28.2977  -20.8102  -10.8105 C   0  0  1  0  0  0  0  0  0  0  0  0
   28.1889  -21.5647  -12.1134 C   0  0  0  0  0  0  0  0  0  0  0  0
   27.0393  -20.8842   -9.9809 C   0  0  2  0  0  0  0  0  0  0  0  0
   25.9554  -20.4484  -10.8151 N   0  0  0  0  0  0  0  0  0  0  0  0
   27.1319  -20.1656   -8.7020 C   0  0  0  0  0  0  0  0  0  0  0  0
   26.6309  -19.0027   -8.6765 O   0  0  0  0  0  0  0  0  0  0  0  0
   27.3885  -22.6067   -3.6348 C   0  0  0  0  0  0  0  0  0  0  0  0
   27.1116  -21.6445   -4.7057 C   0  0  0  0  0  0  0  0  0  0  0  0
   28.1014  -20.6513   -5.1442 C   0  0  2  0  0  0  0  0  0  0  0  0
   28.5074  -19.8314   -3.9103 C   0  0  0  0  0  0  0  0  0  0  0  0
   27.7957  -19.8229   -6.3007 C   0  0  2  0  0  0  0  0  0  0  0  0
   27.7061  -20.6281   -7.5326 N   0  0  0  0  0  0  0  0  0  0  0  0
   28.5899  -18.6663   -6.6633 C   0  0  0  0  0  0  0  0  0  0  0  0
   29.6978  -18.7292   -7.4609 O   0  0  0  0  0  0  0  0  0  0  0  0
   28.3166  -17.4732   -6.2523 O   0  0  0  0  0  0  0  0  0  0  0  0
  2  1  1  1
  2  3  1  0
  4  5  1  0
  4  2  1  0
  5  7  1  0
  5  6  1  6
  7  8  2  0
 10 11  1  6
 10 12  1  0
 10  9  1  0
 12 13  1  6
 13  7  1  0
 14 12  1  0
 14 15  2  0
 16 17  1  0
 17 18  1  0
 18 20  1  0
 18 19  1  1
 20 22  1  0
 20 21  1  6
 21 14  1  0
 22 23  1  0
 24 22  2  0
M  END
$$$$
