LVI.pdb
     RDKit          3D

 24 23  0  0  1  0  0  0  0  0999 V2000
   24.5993  -21.3927  -10.0540 C   0  0  0  0  0  0  0  0  0  0  0  0
   25.8006  -21.7749  -10.8792 C   0  0  2  0  0  0  0  0  0  0  0  0
   27.0395  -21.2461  -10.2082 C   0  0  0  0  0  0  0  0  0  0  0  0
   25.6517  -21.2019  -12.2520 C   0  0  0  0  0  0  0  0  0  0  0  0
   24.3904  -21.7860  -12.9030 C   0  0  2  0  0  0  0  0  0  0  0  0
   24.7191  -23.1383  -13.2617 N   0  0  0  0  0  0  0  0  0  0  0  0
   24.0714  -20.9428  -14.0792 C   0  0  0  0  0  0  0  0  0  0  0  0
   24.8033  -21.0439  -15.0976 O   0  0  0  0  0  0  0  0  0  0  0  0
   20.7952  -18.3378  -16.6455 C   0  0  0  0  0  0  0  0  0  0  0  0
   21.2188  -19.2104  -15.4916 C   0  0  1  0  0  0  0  0  0  0  0  0
   20.5655  -20.5709  -15.5218 C   0  0  0  0  0  0  0  0  0  0  0  0
   22.7183  -19.2810  -15.3381 C   0  0  2  0  0  0  0  0  0  0  0  0
   22.9873  -20.0205  -14.1375 N   0  0  0  0  0  0  0  0  0  0  0  0
   23.3798  -17.9693  -15.3898 C   0  0  0  0  0  0  0  0  0  0  0  0
   23.1152  -17.1720  -14.4421 O   0  0  0  0  0  0  0  0  0  0  0  0
   28.5049  -17.8445  -15.8263 C   0  0  0  0  0  0  0  0  0  0  0  0
   27.0877  -17.5122  -15.6521 C   0  0  0  0  0  0  0  0  0  0  0  0
   26.4278  -16.4549  -16.4300 C   0  0  2  0  0  0  0  0  0  0  0  0
   27.2429  -15.1671  -16.2391 C   0  0  0  0  0  0  0  0  0  0  0  0
   24.9970  -16.2514  -16.2603 C   0  0  2  0  0  0  0  0  0  0  0  0
   24.2556  -17.5219  -16.3613 N   0  0  0  0  0  0  0  0  0  0  0  0
   24.2426  -15.3100  -17.0631 C   0  0  0  0  0  0  0  0  0  0  0  0
   23.9489  -14.0376  -16.6606 O   0  0  0  0  0  0  0  0  0  0  0  0
   23.7765  -15.6026  -18.2311 O   0  0  0  0  0  0  0  0  0  0  0  0
  2  1  1  1
  2  3  1  0
  4  5  1  0
  4  2  1  0
  5  7  1  0
  5  6  1  6
  7  8  2  0
 10 11  1  6
 10 12  1  0
 10  9  1  0
 12 13  1  1
 13  7  1  0
 14 12  1  0
 14 15  2  0
 16 17  1  0
 17 18  1  0
 18 20  1  0
 18 19  1  1
 20 22  1  0
 20 21  1  6
 21 14  1  0
 22 23  1  0
 24 22  2  0
M  END
$$$$
