LVI.pdb
     RDKit          3D

 24 23  0  0  1  0  0  0  0  0999 V2000
   21.7661  -18.8715  -12.5465 C   0  0  0  0  0  0  0  0  0  0  0  0
   21.1961  -20.0890  -11.8659 C   0  0  2  0  0  0  0  0  0  0  0  0
   20.0991  -19.6549  -10.9317 C   0  0  0  0  0  0  0  0  0  0  0  0
   22.2877  -20.7863  -11.1194 C   0  0  0  0  0  0  0  0  0  0  0  0
   23.5196  -20.9015  -12.0277 C   0  0  2  0  0  0  0  0  0  0  0  0
   23.2092  -21.9233  -12.9894 N   0  0  0  0  0  0  0  0  0  0  0  0
   24.6707  -21.2575  -11.1650 C   0  0  0  0  0  0  0  0  0  0  0  0
   24.6215  -22.3410  -10.5275 O   0  0  0  0  0  0  0  0  0  0  0  0
   29.4117  -20.9780  -10.0682 C   0  0  0  0  0  0  0  0  0  0  0  0
   28.1958  -20.6456  -10.8949 C   0  0  1  0  0  0  0  0  0  0  0  0
   28.2161  -21.3091  -12.2506 C   0  0  0  0  0  0  0  0  0  0  0  0
   26.9056  -20.8753  -10.1468 C   0  0  2  0  0  0  0  0  0  0  0  0
   25.8361  -20.4536  -11.0065 N   0  0  0  0  0  0  0  0  0  0  0  0
   26.8772  -20.2557   -8.8141 C   0  0  0  0  0  0  0  0  0  0  0  0
   26.1511  -19.2252   -8.6920 O   0  0  0  0  0  0  0  0  0  0  0  0
   28.4690  -21.0295   -2.7937 C   0  0  0  0  0  0  0  0  0  0  0  0
   27.8885  -20.3109   -3.9321 C   0  0  0  0  0  0  0  0  0  0  0  0
   27.9704  -20.8213   -5.3073 C   0  0  2  0  0  0  0  0  0  0  0  0
   29.3991  -21.3442   -5.5190 C   0  0  0  0  0  0  0  0  0  0  0  0
   27.5090  -19.9738   -6.3964 C   0  0  2  0  0  0  0  0  0  0  0  0
   27.5577  -20.6818   -7.6888 N   0  0  0  0  0  0  0  0  0  0  0  0
   28.0756  -18.6666   -6.6611 C   0  0  0  0  0  0  0  0  0  0  0  0
   28.9898  -18.4239   -7.6474 O   0  0  0  0  0  0  0  0  0  0  0  0
   27.7650  -17.6176   -5.9754 O   0  0  0  0  0  0  0  0  0  0  0  0
  2  1  1  1
  2  3  1  0
  4  5  1  0
  4  2  1  0
  5  7  1  0
  5  6  1  6
  7  8  2  0
 10 11  1  6
 10 12  1  0
 10  9  1  0
 12 13  1  6
 13  7  1  0
 14 12  1  0
 14 15  2  0
 16 17  1  0
 17 18  1  0
 18 20  1  0
 18 19  1  6
 20 22  1  0
 20 21  1  6
 21 14  1  0
 22 23  1  0
 24 22  2  0
M  END
$$$$
