LVI.pdb
     RDKit          3D

 24 23  0  0  1  0  0  0  0  0999 V2000
   28.9531  -17.9204  -16.5765 C   0  0  0  0  0  0  0  0  0  0  0  0
   28.0551  -16.7374  -16.3227 C   0  0  2  0  0  0  0  0  0  0  0  0
   28.9040  -15.5014  -16.1942 C   0  0  0  0  0  0  0  0  0  0  0  0
   27.2720  -16.9790  -15.0723 C   0  0  0  0  0  0  0  0  0  0  0  0
   26.5050  -18.3013  -15.2108 C   0  0  2  0  0  0  0  0  0  0  0  0
   25.5070  -18.0771  -16.2203 N   0  0  0  0  0  0  0  0  0  0  0  0
   25.9193  -18.6112  -13.8853 C   0  0  0  0  0  0  0  0  0  0  0  0
   25.2154  -17.7304  -13.3271 O   0  0  0  0  0  0  0  0  0  0  0  0
   23.4973  -21.7642  -11.3292 C   0  0  0  0  0  0  0  0  0  0  0  0
   24.3363  -21.2553  -12.4734 C   0  0  1  0  0  0  0  0  0  0  0  0
   23.5082  -20.8758  -13.6771 C   0  0  0  0  0  0  0  0  0  0  0  0
   25.2936  -20.1678  -12.0514 C   0  0  2  0  0  0  0  0  0  0  0  0
   26.0988  -19.8444  -13.1951 N   0  0  0  0  0  0  0  0  0  0  0  0
   26.0727  -20.5002  -10.8501 C   0  0  0  0  0  0  0  0  0  0  0  0
   26.9543  -21.3992  -10.9864 O   0  0  0  0  0  0  0  0  0  0  0  0
   29.0533  -19.0727   -5.7944 C   0  0  0  0  0  0  0  0  0  0  0  0
   28.1718  -19.9806   -6.5346 C   0  0  0  0  0  0  0  0  0  0  0  0
   27.3727  -19.5355   -7.6843 C   0  0  2  0  0  0  0  0  0  0  0  0
   26.5894  -18.2895   -7.2445 C   0  0  0  0  0  0  0  0  0  0  0  0
   26.5456  -20.5096   -8.3802 C   0  0  2  0  0  0  0  0  0  0  0  0
   25.9414  -19.9340   -9.5958 N   0  0  0  0  0  0  0  0  0  0  0  0
   25.4688  -21.2266   -7.7273 C   0  0  0  0  0  0  0  0  0  0  0  0
   24.1490  -20.9015   -7.8679 O   0  0  0  0  0  0  0  0  0  0  0  0
   25.6719  -22.2352   -6.9471 O   0  0  0  0  0  0  0  0  0  0  0  0
  2  1  1  1
  2  3  1  0
  4  5  1  0
  4  2  1  0
  5  7  1  0
  5  6  1  6
  7  8  2  0
 10 11  1  6
 10 12  1  0
 10  9  1  0
 12 13  1  6
 13  7  1  0
 14 12  1  0
 14 15  2  0
 16 17  1  0
 17 18  1  0
 18 20  1  0
 18 19  1  1
 20 22  1  0
 20 21  1  6
 21 14  1  0
 22 23  1  0
 24 22  2  0
M  END
$$$$
