LVI.pdb
     RDKit          3D

 24 23  0  0  1  0  0  0  0  0999 V2000
   29.1924  -21.0286  -14.6860 C   0  0  0  0  0  0  0  0  0  0  0  0
   28.7220  -19.7157  -15.2565 C   0  0  2  0  0  0  0  0  0  0  0  0
   29.9195  -18.8434  -15.5205 C   0  0  0  0  0  0  0  0  0  0  0  0
   27.7929  -19.0655  -14.2823 C   0  0  0  0  0  0  0  0  0  0  0  0
   26.6337  -20.0254  -13.9805 C   0  0  2  0  0  0  0  0  0  0  0  0
   25.6387  -19.7744  -14.9866 N   0  0  0  0  0  0  0  0  0  0  0  0
   26.1544  -19.7198  -12.6119 C   0  0  0  0  0  0  0  0  0  0  0  0
   25.8938  -18.5221  -12.3282 O   0  0  0  0  0  0  0  0  0  0  0  0
   23.0755  -20.5950   -9.2282 C   0  0  0  0  0  0  0  0  0  0  0  0
   23.8779  -20.8455  -10.4794 C   0  0  1  0  0  0  0  0  0  0  0  0
   23.1815  -20.3524  -11.7246 C   0  0  0  0  0  0  0  0  0  0  0  0
   25.2992  -20.3513  -10.3653 C   0  0  2  0  0  0  0  0  0  0  0  0
   25.9666  -20.6936  -11.5892 N   0  0  0  0  0  0  0  0  0  0  0  0
   25.9928  -20.8214   -9.1577 C   0  0  0  0  0  0  0  0  0  0  0  0
   26.3966  -22.0217   -9.1763 O   0  0  0  0  0  0  0  0  0  0  0  0
   29.6235  -18.1040   -6.1435 C   0  0  0  0  0  0  0  0  0  0  0  0
   28.8118  -19.1705   -6.7377 C   0  0  0  0  0  0  0  0  0  0  0  0
   27.6346  -19.7312   -6.0608 C   0  0  2  0  0  0  0  0  0  0  0  0
   28.0973  -20.2549   -4.6929 C   0  0  0  0  0  0  0  0  0  0  0  0
   26.8010  -20.6823   -6.7804 C   0  0  2  0  0  0  0  0  0  0  0  0
   26.2476  -20.0906   -8.0122 N   0  0  0  0  0  0  0  0  0  0  0  0
   25.6868  -21.3693   -6.1586 C   0  0  0  0  0  0  0  0  0  0  0  0
   25.7769  -22.6204   -5.6164 O   0  0  0  0  0  0  0  0  0  0  0  0
   24.5066  -20.8529   -6.0726 O   0  0  0  0  0  0  0  0  0  0  0  0
  2  1  1  1
  2  3  1  0
  4  5  1  0
  4  2  1  0
  5  7  1  0
  5  6  1  6
  7  8  2  0
 10 11  1  6
 10 12  1  0
 10  9  1  0
 12 13  1  6
 13  7  1  0
 14 12  1  0
 14 15  2  0
 16 17  1  0
 17 18  1  0
 18 20  1  0
 18 19  1  1
 20 22  1  0
 20 21  1  6
 21 14  1  0
 22 23  1  0
 24 22  2  0
M  END
$$$$
