LVI.pdb
     RDKit          3D

 24 23  0  0  1  0  0  0  0  0999 V2000
   17.1669  -15.9041  -15.5068 C   0  0  0  0  0  0  0  0  0  0  0  0
   18.0737  -15.8256  -16.7076 C   0  0  2  0  0  0  0  0  0  0  0  0
   19.3224  -16.6172  -16.4264 C   0  0  0  0  0  0  0  0  0  0  0  0
   18.4007  -14.3923  -16.9790 C   0  0  0  0  0  0  0  0  0  0  0  0
   17.0994  -13.6269  -17.2563 C   0  0  2  0  0  0  0  0  0  0  0  0
   16.5784  -14.1621  -18.4841 N   0  0  0  0  0  0  0  0  0  0  0  0
   17.4474  -12.1902  -17.3598 C   0  0  0  0  0  0  0  0  0  0  0  0
   18.1486  -11.8185  -18.3360 O   0  0  0  0  0  0  0  0  0  0  0  0
   16.5583   -7.5151  -16.2898 C   0  0  0  0  0  0  0  0  0  0  0  0
   16.2411   -8.9667  -16.5439 C   0  0  1  0  0  0  0  0  0  0  0  0
   15.3578   -9.1655  -17.7517 C   0  0  0  0  0  0  0  0  0  0  0  0
   17.4756   -9.8341  -16.5687 C   0  0  2  0  0  0  0  0  0  0  0  0
   17.0408  -11.1947  -16.4254 N   0  0  0  0  0  0  0  0  0  0  0  0
   18.5002   -9.4313  -15.5948 C   0  0  0  0  0  0  0  0  0  0  0  0
   18.1988   -9.5772  -14.3734 O   0  0  0  0  0  0  0  0  0  0  0  0
   23.9521  -10.8670  -14.0353 C   0  0  0  0  0  0  0  0  0  0  0  0
   22.9085   -9.8380  -13.9990 C   0  0  0  0  0  0  0  0  0  0  0  0
   21.8524   -9.7544  -15.0169 C   0  0  2  0  0  0  0  0  0  0  0  0
   22.5405   -9.6930  -16.3889 C   0  0  0  0  0  0  0  0  0  0  0  0
   20.8080   -8.7535  -14.8604 C   0  0  2  0  0  0  0  0  0  0  0  0
   19.7509   -8.9135  -15.8758 N   0  0  0  0  0  0  0  0  0  0  0  0
   21.0883   -7.3321  -14.8290 C   0  0  0  0  0  0  0  0  0  0  0  0
   21.5657   -6.6793  -13.7275 O   0  0  0  0  0  0  0  0  0  0  0  0
   20.9010   -6.5594  -15.8463 O   0  0  0  0  0  0  0  0  0  0  0  0
  2  1  1  1
  2  3  1  0
  4  5  1  0
  4  2  1  0
  5  7  1  0
  5  6  1  6
  7  8  2  0
 10 11  1  6
 10 12  1  0
 10  9  1  0
 12 13  1  1
 13  7  1  0
 14 12  1  0
 14 15  2  0
 16 17  1  0
 17 18  1  0
 18 20  1  0
 18 19  1  6
 20 22  1  0
 20 21  1  6
 21 14  1  0
 22 23  1  0
 24 22  2  0
M  END
$$$$
