LVI.pdb
     RDKit          3D

 24 23  0  0  1  0  0  0  0  0999 V2000
   21.7890  -26.2591  -16.5058 C   0  0  0  0  0  0  0  0  0  0  0  0
   22.6566  -27.2599  -15.7877 C   0  0  2  0  0  0  0  0  0  0  0  0
   21.8014  -28.0475  -14.8321 C   0  0  0  0  0  0  0  0  0  0  0  0
   23.7398  -26.5319  -15.0583 C   0  0  0  0  0  0  0  0  0  0  0  0
   24.5469  -25.6993  -16.0639 C   0  0  2  0  0  0  0  0  0  0  0  0
   25.4393  -26.6189  -16.7145 N   0  0  0  0  0  0  0  0  0  0  0  0
   25.2622  -24.6535  -15.2955 C   0  0  0  0  0  0  0  0  0  0  0  0
   26.2640  -24.9971  -14.6164 O   0  0  0  0  0  0  0  0  0  0  0  0
   26.5361  -19.9831  -14.6787 C   0  0  0  0  0  0  0  0  0  0  0  0
   25.9072  -21.1405  -15.4116 C   0  0  1  0  0  0  0  0  0  0  0  0
   26.6537  -21.5042  -16.6722 C   0  0  0  0  0  0  0  0  0  0  0  0
   25.6552  -22.3270  -14.5140 C   0  0  2  0  0  0  0  0  0  0  0  0
   24.8926  -23.2779  -15.2723 N   0  0  0  0  0  0  0  0  0  0  0  0
   25.0492  -21.9725  -13.2226 C   0  0  0  0  0  0  0  0  0  0  0  0
   23.7867  -22.0494  -13.1576 O   0  0  0  0  0  0  0  0  0  0  0  0
   26.2530  -20.0954   -7.3427 C   0  0  0  0  0  0  0  0  0  0  0  0
   25.3998  -20.5528   -8.4437 C   0  0  0  0  0  0  0  0  0  0  0  0
   25.9429  -20.9137   -9.7603 C   0  0  2  0  0  0  0  0  0  0  0  0
   27.1027  -19.9517  -10.0584 C   0  0  0  0  0  0  0  0  0  0  0  0
   25.0246  -21.0597  -10.8795 C   0  0  2  0  0  0  0  0  0  0  0  0
   25.7136  -21.5673  -12.0801 N   0  0  0  0  0  0  0  0  0  0  0  0
   24.1937  -19.9711  -11.3536 C   0  0  0  0  0  0  0  0  0  0  0  0
   22.9179  -19.7480  -10.9179 O   0  0  0  0  0  0  0  0  0  0  0  0
   24.5930  -19.1209  -12.2395 O   0  0  0  0  0  0  0  0  0  0  0  0
  2  1  1  1
  2  3  1  0
  4  5  1  0
  4  2  1  0
  5  7  1  0
  5  6  1  1
  7  8  2  0
 10 11  1  6
 10 12  1  0
 10  9  1  0
 12 13  1  6
 13  7  1  0
 14 12  1  0
 14 15  2  0
 16 17  1  0
 17 18  1  0
 18 20  1  0
 18 19  1  6
 20 22  1  0
 20 21  1  6
 21 14  1  0
 22 23  1  0
 24 22  2  0
M  END
$$$$
