LVI.pdb
     RDKit          3D

 24 23  0  0  1  0  0  0  0  0999 V2000
   17.4841  -15.2050  -18.3663 C   0  0  0  0  0  0  0  0  0  0  0  0
   18.9846  -15.0776  -18.3141 C   0  0  2  0  0  0  0  0  0  0  0  0
   19.5857  -15.9788  -19.3587 C   0  0  0  0  0  0  0  0  0  0  0  0
   19.4588  -15.4548  -16.9473 C   0  0  0  0  0  0  0  0  0  0  0  0
   20.9933  -15.4259  -16.9253 C   0  0  2  0  0  0  0  0  0  0  0  0
   21.4057  -16.6835  -16.3654 N   0  0  0  0  0  0  0  0  0  0  0  0
   21.3997  -14.2681  -16.0944 C   0  0  0  0  0  0  0  0  0  0  0  0
   20.8550  -14.1251  -14.9693 O   0  0  0  0  0  0  0  0  0  0  0  0
   24.7007  -10.8970  -14.8565 C   0  0  0  0  0  0  0  0  0  0  0  0
   24.2003  -12.1725  -15.4848 C   0  0  1  0  0  0  0  0  0  0  0  0
   24.7569  -13.4065  -14.8169 C   0  0  0  0  0  0  0  0  0  0  0  0
   22.6974  -12.2027  -15.6175 C   0  0  2  0  0  0  0  0  0  0  0  0
   22.3701  -13.3002  -16.4829 N   0  0  0  0  0  0  0  0  0  0  0  0
   22.1157  -10.9198  -16.0376 C   0  0  0  0  0  0  0  0  0  0  0  0
   22.3383  -10.5701  -17.2343 O   0  0  0  0  0  0  0  0  0  0  0  0
   17.1816   -7.8612  -16.8883 C   0  0  0  0  0  0  0  0  0  0  0  0
   18.5951   -7.7842  -16.5070 C   0  0  0  0  0  0  0  0  0  0  0  0
   19.3626   -8.9668  -16.0940 C   0  0  2  0  0  0  0  0  0  0  0  0
   18.5710   -9.6607  -14.9753 C   0  0  0  0  0  0  0  0  0  0  0  0
   20.7738   -8.8089  -15.7767 C   0  0  2  0  0  0  0  0  0  0  0  0
   21.3552  -10.0631  -15.2638 N   0  0  0  0  0  0  0  0  0  0  0  0
   21.2621   -7.7753  -14.8861 C   0  0  0  0  0  0  0  0  0  0  0  0
   21.7396   -8.0226  -13.6299 O   0  0  0  0  0  0  0  0  0  0  0  0
   21.2785   -6.5250  -15.2079 O   0  0  0  0  0  0  0  0  0  0  0  0
  2  1  1  1
  2  3  1  0
  4  5  1  0
  4  2  1  0
  5  7  1  0
  5  6  1  1
  7  8  2  0
 10 11  1  1
 10 12  1  0
 10  9  1  0
 12 13  1  6
 13  7  1  0
 14 12  1  0
 14 15  2  0
 16 17  1  0
 17 18  1  0
 18 20  1  0
 18 19  1  1
 20 22  1  0
 20 21  1  1
 21 14  1  0
 22 23  1  0
 24 22  2  0
M  END
$$$$
