LVI.pdb
     RDKit          3D

 24 23  0  0  1  0  0  0  0  0999 V2000
   21.5940  -17.0086  -16.7269 C   0  0  0  0  0  0  0  0  0  0  0  0
   20.7906  -18.1345  -16.1294 C   0  0  2  0  0  0  0  0  0  0  0  0
   19.8360  -17.5654  -15.1146 C   0  0  0  0  0  0  0  0  0  0  0  0
   21.7229  -19.1151  -15.4935 C   0  0  0  0  0  0  0  0  0  0  0  0
   22.8225  -19.4834  -16.4990 C   0  0  2  0  0  0  0  0  0  0  0  0
   22.2129  -20.3796  -17.4428 N   0  0  0  0  0  0  0  0  0  0  0  0
   23.9228  -20.1175  -15.7353 C   0  0  0  0  0  0  0  0  0  0  0  0
   23.6795  -21.1898  -15.1240 O   0  0  0  0  0  0  0  0  0  0  0  0
   28.7522  -20.4284  -14.6995 C   0  0  0  0  0  0  0  0  0  0  0  0
   27.5835  -19.9612  -15.5289 C   0  0  1  0  0  0  0  0  0  0  0  0
   27.6712  -20.4175  -16.9651 C   0  0  0  0  0  0  0  0  0  0  0  0
   26.2544  -20.2813  -14.8900 C   0  0  2  0  0  0  0  0  0  0  0  0
   25.2448  -19.5944  -15.6447 N   0  0  0  0  0  0  0  0  0  0  0  0
   26.2105  -20.0040  -13.4472 C   0  0  0  0  0  0  0  0  0  0  0  0
   26.2450  -18.7835  -13.1111 O   0  0  0  0  0  0  0  0  0  0  0  0
   22.3667  -20.7858  -10.3223 C   0  0  0  0  0  0  0  0  0  0  0  0
   23.6710  -20.4055  -10.8732 C   0  0  0  0  0  0  0  0  0  0  0  0
   24.9343  -20.9178  -10.3256 C   0  0  2  0  0  0  0  0  0  0  0  0
   24.9531  -20.5862   -8.8259 C   0  0  0  0  0  0  0  0  0  0  0  0
   26.1782  -20.5751  -10.9983 C   0  0  2  0  0  0  0  0  0  0  0  0
   26.1354  -20.9346  -12.4276 N   0  0  0  0  0  0  0  0  0  0  0  0
   27.4701  -21.0373  -10.5319 C   0  0  0  0  0  0  0  0  0  0  0  0
   28.1368  -20.4811   -9.4768 O   0  0  0  0  0  0  0  0  0  0  0  0
   28.1044  -22.0162  -11.0855 O   0  0  0  0  0  0  0  0  0  0  0  0
  2  1  1  1
  2  3  1  0
  4  5  1  0
  4  2  1  0
  5  7  1  0
  5  6  1  6
  7  8  2  0
 10 11  1  6
 10 12  1  0
 10  9  1  0
 12 13  1  6
 13  7  1  0
 14 12  1  0
 14 15  2  0
 16 17  1  0
 17 18  1  0
 18 20  1  0
 18 19  1  1
 20 22  1  0
 20 21  1  6
 21 14  1  0
 22 23  1  0
 24 22  2  0
M  END
$$$$
