CWK.pdb
     RDKit          3D

 30 31  0  0  1  0  0  0  0  0999 V2000
  -17.3791   -2.7651 -119.8329 N   0  0  0  0  0  0  0  0  0  0  0  0
  -18.7315   -3.2984 -120.0484 C   0  0  1  0  0  0  0  0  0  0  0  0
  -18.5775   -4.5366 -120.9048 C   0  0  0  0  0  0  0  0  0  0  0  0
  -17.0252   -5.3610 -120.4611 S   0  0  0  0  0  0  0  0  0  0  0  0
  -19.2806   -3.6212 -118.7081 C   0  0  0  0  0  0  0  0  0  0  0  0
  -18.5677   -3.6572 -117.6727 O   0  0  0  0  0  0  0  0  0  0  0  0
  -20.6760   -3.9129 -118.5266 N   0  0  0  0  0  0  0  0  0  0  0  0
  -21.2163   -5.2291 -118.8076 C   0  0  1  0  0  0  0  0  0  0  0  0
  -22.7047   -5.0709 -119.0309 C   0  0  0  0  0  0  0  0  0  0  0  0
  -23.0353   -4.7026 -120.4082 C   0  0  0  0  0  0  0  0  0  0  0  0
  -22.5612   -5.3226 -121.5428 C   0  0  0  0  0  0  0  0  0  0  0  0
  -23.0915   -4.6978 -122.6105 N   0  0  0  0  0  0  0  0  0  0  0  0
  -23.8997   -3.6868 -122.2312 C   0  0  0  0  0  0  0  0  0  0  0  0
  -24.6526   -2.7766 -122.9421 C   0  0  0  0  0  0  0  0  0  0  0  0
  -25.3850   -1.8501 -122.2279 C   0  0  0  0  0  0  0  0  0  0  0  0
  -25.3480   -1.8554 -120.8451 C   0  0  0  0  0  0  0  0  0  0  0  0
  -24.6002   -2.7586 -120.1196 C   0  0  0  0  0  0  0  0  0  0  0  0
  -23.8640   -3.6900 -120.8315 C   0  0  0  0  0  0  0  0  0  0  0  0
  -20.5420   -5.8772 -119.9400 C   0  0  0  0  0  0  0  0  0  0  0  0
  -20.5231   -7.1325 -120.0058 O   0  0  0  0  0  0  0  0  0  0  0  0
  -19.8962   -5.1691 -120.9877 N   0  0  0  0  0  0  0  0  0  0  0  0
  -18.8627   -5.8171 -121.8342 C   0  0  1  0  0  0  0  0  0  0  0  0
  -18.4540   -7.1205 -121.1615 C   0  0  0  0  0  0  0  0  0  0  0  0
  -19.3534   -8.2220 -121.5848 C   0  0  0  0  0  0  0  0  0  0  0  0
  -20.2373   -8.7649 -120.4958 C   0  0  0  0  0  0  0  0  0  0  0  0
  -19.5310   -9.2785 -119.3035 C   0  0  0  0  0  0  0  0  0  0  0  0
  -18.7519   -8.3099 -118.5996 N   0  0  0  0  0  0  0  0  0  0  0  0
  -19.4250   -6.0006 -123.1739 C   0  0  0  0  0  0  0  0  0  0  0  0
  -20.5332   -6.5173 -123.4438 O   0  0  0  0  0  0  0  0  0  0  0  0
  -18.6609   -5.5602 -124.2777 O   0  0  0  0  0  0  0  0  0  0  0  0
  2  1  1  1
  2  5  1  0
  3  2  1  0
  4  3  1  0
  5  6  2  0
  7  5  1  0
  7  8  1  0
  8  9  1  6
  9 10  1  0
 10 11  2  0
 11 12  1  0
 13 14  2  0
 13 12  1  0
 15 14  1  0
 16 15  2  0
 17 16  1  0
 17 18  2  0
 18 10  1  0
 18 13  1  0
 19 21  1  0
 19  8  1  0
 20 19  2  0
 22 23  1  1
 22 28  1  0
 22 21  1  0
 24 23  1  0
 25 24  1  0
 26 25  1  0
 27 26  1  0
 28 30  1  0
 29 28  2  0
M  END
$$$$
