CWK.pdb
     RDKit          3D

 30 31  0  0  1  0  0  0  0  0999 V2000
   28.8026  -23.0260  -16.4469 N   0  0  0  0  0  0  0  0  0  0  0  0
   28.0746  -21.7623  -16.2660 C   0  0  1  0  0  0  0  0  0  0  0  0
   27.2016  -21.5862  -17.4897 C   0  0  0  0  0  0  0  0  0  0  0  0
   28.2505  -21.1055  -18.8878 S   0  0  0  0  0  0  0  0  0  0  0  0
   27.2664  -21.9095  -15.0301 C   0  0  0  0  0  0  0  0  0  0  0  0
   26.8071  -23.0157  -14.6467 O   0  0  0  0  0  0  0  0  0  0  0  0
   26.9651  -20.7764  -14.1992 N   0  0  0  0  0  0  0  0  0  0  0  0
   26.1825  -20.9150  -12.9860 C   0  0  1  0  0  0  0  0  0  0  0  0
   26.7211  -19.9190  -11.9819 C   0  0  0  0  0  0  0  0  0  0  0  0
   27.6907  -20.5117  -11.0597 C   0  0  0  0  0  0  0  0  0  0  0  0
   28.8433  -21.1736  -11.4200 C   0  0  0  0  0  0  0  0  0  0  0  0
   29.4649  -21.5695  -10.2937 N   0  0  0  0  0  0  0  0  0  0  0  0
   28.7715  -21.1972   -9.1984 C   0  0  0  0  0  0  0  0  0  0  0  0
   28.9959  -21.3677   -7.8489 C   0  0  0  0  0  0  0  0  0  0  0  0
   28.0649  -20.8499   -6.9714 C   0  0  0  0  0  0  0  0  0  0  0  0
   26.9518  -20.1862   -7.4550 C   0  0  0  0  0  0  0  0  0  0  0  0
   26.7129  -20.0074   -8.8012 C   0  0  0  0  0  0  0  0  0  0  0  0
   27.6439  -20.5249   -9.6853 C   0  0  0  0  0  0  0  0  0  0  0  0
   24.7440  -20.7481  -13.2298 C   0  0  0  0  0  0  0  0  0  0  0  0
   24.3523  -19.8136  -13.9740 O   0  0  0  0  0  0  0  0  0  0  0  0
   23.7437  -21.5868  -12.6713 N   0  0  0  0  0  0  0  0  0  0  0  0
   22.3037  -21.3684  -12.9605 C   0  0  1  0  0  0  0  0  0  0  0  0
   21.5591  -22.6569  -12.6383 C   0  0  0  0  0  0  0  0  0  0  0  0
   20.1161  -22.5089  -12.9502 C   0  0  0  0  0  0  0  0  0  0  0  0
   19.3067  -23.7664  -12.7906 C   0  0  0  0  0  0  0  0  0  0  0  0
   17.8835  -23.6567  -13.1735 C   0  0  0  0  0  0  0  0  0  0  0  0
   17.1355  -24.8694  -13.0705 N   0  0  0  0  0  0  0  0  0  0  0  0
   21.8533  -20.2189  -12.1726 C   0  0  0  0  0  0  0  0  0  0  0  0
   22.2781  -19.8881  -11.0421 O   0  0  0  0  0  0  0  0  0  0  0  0
   20.8461  -19.3945  -12.7222 O   0  0  0  0  0  0  0  0  0  0  0  0
  2  1  1  6
  2  5  1  0
  3  2  1  0
  4  3  1  0
  5  6  2  0
  7  5  1  0
  7  8  1  0
  8  9  1  1
  9 10  1  0
 10 11  2  0
 11 12  1  0
 13 14  2  0
 13 12  1  0
 15 14  1  0
 16 15  2  0
 17 16  1  0
 17 18  2  0
 18 10  1  0
 18 13  1  0
 19 21  1  0
 19  8  1  0
 20 19  2  0
 22 23  1  1
 22 28  1  0
 22 21  1  0
 24 23  1  0
 25 24  1  0
 26 25  1  0
 27 26  1  0
 28 30  1  0
 29 28  2  0
M  END
$$$$
