CWK.pdb
     RDKit          3D

 30 31  0  0  1  0  0  0  0  0999 V2000
   17.4994  -26.3239  -13.4830 N   0  0  0  0  0  0  0  0  0  0  0  0
   16.2874  -25.8369  -12.8092 C   0  0  1  0  0  0  0  0  0  0  0  0
   15.1211  -26.5774  -13.4270 C   0  0  0  0  0  0  0  0  0  0  0  0
   13.5864  -25.9804  -12.6692 S   0  0  0  0  0  0  0  0  0  0  0  0
   16.4425  -26.1585  -11.3688 C   0  0  0  0  0  0  0  0  0  0  0  0
   16.8243  -27.2855  -10.9618 O   0  0  0  0  0  0  0  0  0  0  0  0
   16.1591  -25.1814  -10.3539 N   0  0  0  0  0  0  0  0  0  0  0  0
   16.2054  -25.5195   -8.9444 C   0  0  1  0  0  0  0  0  0  0  0  0
   16.5387  -24.2540   -8.1844 C   0  0  0  0  0  0  0  0  0  0  0  0
   16.5118  -24.4407   -6.7331 C   0  0  0  0  0  0  0  0  0  0  0  0
   17.3877  -25.2146   -6.0050 C   0  0  0  0  0  0  0  0  0  0  0  0
   17.0369  -25.1317   -4.7082 N   0  0  0  0  0  0  0  0  0  0  0  0
   15.9623  -24.3332   -4.5447 C   0  0  0  0  0  0  0  0  0  0  0  0
   15.2479  -23.9457   -3.4311 C   0  0  0  0  0  0  0  0  0  0  0  0
   14.1749  -23.0980   -3.6177 C   0  0  0  0  0  0  0  0  0  0  0  0
   13.8474  -22.6656   -4.8902 C   0  0  0  0  0  0  0  0  0  0  0  0
   14.5515  -23.0438   -6.0138 C   0  0  0  0  0  0  0  0  0  0  0  0
   15.6286  -23.8940   -5.8316 C   0  0  0  0  0  0  0  0  0  0  0  0
   14.9598  -26.1442   -8.4808 C   0  0  0  0  0  0  0  0  0  0  0  0
   13.8606  -25.7207   -8.9204 O   0  0  0  0  0  0  0  0  0  0  0  0
   14.9098  -27.2160   -7.5509 N   0  0  0  0  0  0  0  0  0  0  0  0
   13.6149  -27.7769   -7.0888 C   0  0  1  0  0  0  0  0  0  0  0  0
   13.8454  -29.2302   -6.6974 C   0  0  0  0  0  0  0  0  0  0  0  0
   14.8205  -29.8628   -7.6195 C   0  0  0  0  0  0  0  0  0  0  0  0
   15.1270  -31.3039   -7.3174 C   0  0  0  0  0  0  0  0  0  0  0  0
   16.0872  -31.9531   -8.2345 C   0  0  0  0  0  0  0  0  0  0  0  0
   17.3263  -32.3383   -7.6371 N   0  0  0  0  0  0  0  0  0  0  0  0
   13.1283  -26.9437   -5.9871 C   0  0  0  0  0  0  0  0  0  0  0  0
   13.8324  -26.2344   -5.2326 O   0  0  0  0  0  0  0  0  0  0  0  0
   11.7380  -26.9252   -5.7362 O   0  0  0  0  0  0  0  0  0  0  0  0
  2  1  1  6
  2  5  1  0
  3  2  1  0
  4  3  1  0
  5  6  2  0
  7  5  1  0
  7  8  1  0
  8  9  1  1
  9 10  1  0
 10 11  2  0
 11 12  1  0
 13 14  2  0
 13 12  1  0
 15 14  1  0
 16 15  2  0
 17 16  1  0
 17 18  2  0
 18 10  1  0
 18 13  1  0
 19 21  1  0
 19  8  1  0
 20 19  2  0
 22 23  1  1
 22 28  1  0
 22 21  1  0
 24 23  1  0
 25 24  1  0
 26 25  1  0
 27 26  1  0
 28 30  1  0
 29 28  2  0
M  END
$$$$
