CWK.pdb
     RDKit          3D

 30 31  0  0  1  0  0  0  0  0999 V2000
   29.3488  -21.3651  -15.3223 N   0  0  0  0  0  0  0  0  0  0  0  0
   28.3743  -20.3661  -14.8615 C   0  0  1  0  0  0  0  0  0  0  0  0
   27.6685  -19.8477  -16.0958 C   0  0  0  0  0  0  0  0  0  0  0  0
   28.7834  -18.7182  -16.9717 S   0  0  0  0  0  0  0  0  0  0  0  0
   27.4404  -21.0714  -13.9490 C   0  0  0  0  0  0  0  0  0  0  0  0
   27.0959  -22.2684  -14.1224 O   0  0  0  0  0  0  0  0  0  0  0  0
   26.8759  -20.4093  -12.8053 N   0  0  0  0  0  0  0  0  0  0  0  0
   25.9194  -21.0746  -11.9418 C   0  0  1  0  0  0  0  0  0  0  0  0
   25.9607  -20.3800  -10.5980 C   0  0  0  0  0  0  0  0  0  0  0  0
   27.1787  -20.6775   -9.8433 C   0  0  0  0  0  0  0  0  0  0  0  0
   28.3228  -21.2487  -10.3546 C   0  0  0  0  0  0  0  0  0  0  0  0
   29.2154  -21.3597   -9.3533 N   0  0  0  0  0  0  0  0  0  0  0  0
   28.7106  -20.8850   -8.1962 C   0  0  0  0  0  0  0  0  0  0  0  0
   29.2297  -20.7842   -6.9230 C   0  0  0  0  0  0  0  0  0  0  0  0
   28.4280  -20.2348   -5.9430 C   0  0  0  0  0  0  0  0  0  0  0  0
   27.1497  -19.8073   -6.2533 C   0  0  0  0  0  0  0  0  0  0  0  0
   26.6159  -19.9012   -7.5212 C   0  0  0  0  0  0  0  0  0  0  0  0
   27.4162  -20.4514   -8.5076 C   0  0  0  0  0  0  0  0  0  0  0  0
   24.5705  -21.1008  -12.5219 C   0  0  0  0  0  0  0  0  0  0  0  0
   24.0220  -20.0176  -12.8482 O   0  0  0  0  0  0  0  0  0  0  0  0
   23.8271  -22.2899  -12.7443 N   0  0  0  0  0  0  0  0  0  0  0  0
   22.4745  -22.2513  -13.3557 C   0  0  1  0  0  0  0  0  0  0  0  0
   22.1466  -23.6503  -13.8595 C   0  0  0  0  0  0  0  0  0  0  0  0
   22.5097  -23.7793  -15.2923 C   0  0  0  0  0  0  0  0  0  0  0  0
   22.1655  -25.1064  -15.9105 C   0  0  0  0  0  0  0  0  0  0  0  0
   22.9851  -26.2490  -15.4553 C   0  0  0  0  0  0  0  0  0  0  0  0
   22.3384  -27.5209  -15.5240 N   0  0  0  0  0  0  0  0  0  0  0  0
   21.5356  -21.7573  -12.3462 C   0  0  0  0  0  0  0  0  0  0  0  0
   21.7088  -21.7766  -11.1062 O   0  0  0  0  0  0  0  0  0  0  0  0
   20.3149  -21.2038  -12.7931 O   0  0  0  0  0  0  0  0  0  0  0  0
  2  1  1  6
  2  5  1  0
  3  2  1  0
  4  3  1  0
  5  6  2  0
  7  5  1  0
  7  8  1  0
  8  9  1  1
  9 10  1  0
 10 11  2  0
 11 12  1  0
 13 14  2  0
 13 12  1  0
 15 14  1  0
 16 15  2  0
 17 16  1  0
 17 18  2  0
 18 10  1  0
 18 13  1  0
 19 21  1  0
 19  8  1  0
 20 19  2  0
 22 23  1  1
 22 28  1  0
 22 21  1  0
 24 23  1  0
 25 24  1  0
 26 25  1  0
 27 26  1  0
 28 30  1  0
 29 28  2  0
M  END
$$$$
