CWK.pdb
     RDKit          3D

 30 31  0  0  1  0  0  0  0  0999 V2000
   31.5580  -22.4472  -12.2732 N   0  0  0  0  0  0  0  0  0  0  0  0
   30.9849  -21.1152  -12.0341 C   0  0  1  0  0  0  0  0  0  0  0  0
   30.7750  -20.4836  -13.3933 C   0  0  0  0  0  0  0  0  0  0  0  0
   29.9714  -21.6930  -14.4785 S   0  0  0  0  0  0  0  0  0  0  0  0
   29.7006  -21.3258  -11.3210 C   0  0  0  0  0  0  0  0  0  0  0  0
   29.1389  -22.4489  -11.2510 O   0  0  0  0  0  0  0  0  0  0  0  0
   29.0266  -20.2388  -10.6659 N   0  0  0  0  0  0  0  0  0  0  0  0
   27.8150  -20.4528   -9.8982 C   0  0  1  0  0  0  0  0  0  0  0  0
   27.8016  -19.4355   -8.7778 C   0  0  0  0  0  0  0  0  0  0  0  0
   27.0478  -19.8899   -7.6086 C   0  0  0  0  0  0  0  0  0  0  0  0
   25.7808  -20.4291   -7.6277 C   0  0  0  0  0  0  0  0  0  0  0  0
   25.4337  -20.7207   -6.3604 N   0  0  0  0  0  0  0  0  0  0  0  0
   26.4196  -20.3970   -5.4989 C   0  0  0  0  0  0  0  0  0  0  0  0
   26.5346  -20.5030   -4.1291 C   0  0  0  0  0  0  0  0  0  0  0  0
   27.7076  -20.0683   -3.5463 C   0  0  0  0  0  0  0  0  0  0  0  0
   28.7195  -19.5471   -4.3323 C   0  0  0  0  0  0  0  0  0  0  0  0
   28.6202  -19.4342   -5.7029 C   0  0  0  0  0  0  0  0  0  0  0  0
   27.4455  -19.8690   -6.2922 C   0  0  0  0  0  0  0  0  0  0  0  0
   26.6085  -20.3880  -10.7331 C   0  0  0  0  0  0  0  0  0  0  0  0
   26.3097  -19.3042  -11.2961 O   0  0  0  0  0  0  0  0  0  0  0  0
   25.7379  -21.4877  -10.9532 N   0  0  0  0  0  0  0  0  0  0  0  0
   24.7208  -21.4623  -12.0348 C   0  0  1  0  0  0  0  0  0  0  0  0
   24.3939  -22.9023  -12.4061 C   0  0  0  0  0  0  0  0  0  0  0  0
   24.3071  -23.0465  -13.8802 C   0  0  0  0  0  0  0  0  0  0  0  0
   23.9109  -24.4174  -14.3551 C   0  0  0  0  0  0  0  0  0  0  0  0
   23.7105  -24.5493  -15.8134 C   0  0  0  0  0  0  0  0  0  0  0  0
   23.5105  -25.8858  -16.2767 N   0  0  0  0  0  0  0  0  0  0  0  0
   23.5644  -20.7052  -11.5508 C   0  0  0  0  0  0  0  0  0  0  0  0
   22.8568  -19.9263  -12.2295 O   0  0  0  0  0  0  0  0  0  0  0  0
   23.1974  -20.8539  -10.1946 O   0  0  0  0  0  0  0  0  0  0  0  0
  2  1  1  6
  2  5  1  0
  3  2  1  0
  4  3  1  0
  5  6  2  0
  7  5  1  0
  7  8  1  0
  8  9  1  1
  9 10  1  0
 10 11  2  0
 11 12  1  0
 13 14  2  0
 13 12  1  0
 15 14  1  0
 16 15  2  0
 17 16  1  0
 17 18  2  0
 18 10  1  0
 18 13  1  0
 19 21  1  0
 19  8  1  0
 20 19  2  0
 22 23  1  1
 22 28  1  0
 22 21  1  0
 24 23  1  0
 25 24  1  0
 26 25  1  0
 27 26  1  0
 28 30  1  0
 29 28  2  0
M  END
$$$$
