CWK.pdb
     RDKit          3D

 30 31  0  0  1  0  0  0  0  0999 V2000
   19.0361  -10.6470    7.7984 N   0  0  0  0  0  0  0  0  0  0  0  0
   19.6171  -11.6914    6.9430 C   0  0  1  0  0  0  0  0  0  0  0  0
   20.9244  -12.1006    7.5863 C   0  0  0  0  0  0  0  0  0  0  0  0
   22.2256  -10.9675    7.0302 S   0  0  0  0  0  0  0  0  0  0  0  0
   18.6430  -12.8107    6.9161 C   0  0  0  0  0  0  0  0  0  0  0  0
   18.0221  -13.1953    7.9399 O   0  0  0  0  0  0  0  0  0  0  0  0
   18.3584  -13.5199    5.6991 N   0  0  0  0  0  0  0  0  0  0  0  0
   17.4972  -14.6867    5.6873 C   0  0  1  0  0  0  0  0  0  0  0  0
   17.1240  -14.9612    4.2467 C   0  0  0  0  0  0  0  0  0  0  0  0
   16.1206  -16.0181    4.1126 C   0  0  0  0  0  0  0  0  0  0  0  0
   14.8117  -15.9431    4.5340 C   0  0  0  0  0  0  0  0  0  0  0  0
   14.2110  -17.1098    4.2349 N   0  0  0  0  0  0  0  0  0  0  0  0
   15.0683  -17.9580    3.6311 C   0  0  0  0  0  0  0  0  0  0  0  0
   14.9266  -19.2411    3.1469 C   0  0  0  0  0  0  0  0  0  0  0  0
   16.0306  -19.8376    2.5723 C   0  0  0  0  0  0  0  0  0  0  0  0
   17.2284  -19.1499    2.4968 C   0  0  0  0  0  0  0  0  0  0  0  0
   17.3865  -17.8667    2.9762 C   0  0  0  0  0  0  0  0  0  0  0  0
   16.2819  -17.2642    3.5533 C   0  0  0  0  0  0  0  0  0  0  0  0
   18.1212  -15.8454    6.3389 C   0  0  0  0  0  0  0  0  0  0  0  0
   19.3218  -16.1191    6.0849 O   0  0  0  0  0  0  0  0  0  0  0  0
   17.4484  -16.6962    7.2552 N   0  0  0  0  0  0  0  0  0  0  0  0
   18.1323  -17.8613    7.8713 C   0  0  1  0  0  0  0  0  0  0  0  0
   17.9582  -17.7639    9.3809 C   0  0  0  0  0  0  0  0  0  0  0  0
   19.2633  -17.4940   10.0329 C   0  0  0  0  0  0  0  0  0  0  0  0
   19.2007  -17.3515   11.5288 C   0  0  0  0  0  0  0  0  0  0  0  0
   20.4947  -17.0961   12.1956 C   0  0  0  0  0  0  0  0  0  0  0  0
   20.4295  -16.9884   13.6186 N   0  0  0  0  0  0  0  0  0  0  0  0
   17.5606  -19.0793    7.2932 C   0  0  0  0  0  0  0  0  0  0  0  0
   16.5771  -19.1371    6.5203 O   0  0  0  0  0  0  0  0  0  0  0  0
   18.1606  -20.3142    7.6266 O   0  0  0  0  0  0  0  0  0  0  0  0
  2  1  1  1
  2  5  1  0
  3  2  1  0
  4  3  1  0
  5  6  2  0
  7  5  1  0
  7  8  1  0
  8  9  1  6
  9 10  1  0
 10 11  2  0
 11 12  1  0
 13 14  2  0
 13 12  1  0
 15 14  1  0
 16 15  2  0
 17 16  1  0
 17 18  2  0
 18 10  1  0
 18 13  1  0
 19 21  1  0
 19  8  1  0
 20 19  2  0
 22 23  1  1
 22 28  1  0
 22 21  1  0
 24 23  1  0
 25 24  1  0
 26 25  1  0
 27 26  1  0
 28 30  1  0
 29 28  2  0
M  END
$$$$
