CWK.pdb
     RDKit          3D

 30 31  0  0  1  0  0  0  0  0999 V2000
   28.1994  -21.4206  -17.6719 N   0  0  0  0  0  0  0  0  0  0  0  0
   28.3518  -20.4421  -16.5859 C   0  0  1  0  0  0  0  0  0  0  0  0
   27.9098  -19.1057  -17.1419 C   0  0  0  0  0  0  0  0  0  0  0  0
   26.2648  -19.2980  -17.8787 S   0  0  0  0  0  0  0  0  0  0  0  0
   27.4739  -20.8948  -15.4784 C   0  0  0  0  0  0  0  0  0  0  0  0
   26.6186  -21.8059  -15.6188 O   0  0  0  0  0  0  0  0  0  0  0  0
   27.5609  -20.3037  -14.1714 N   0  0  0  0  0  0  0  0  0  0  0  0
   26.7342  -20.7690  -13.0744 C   0  0  1  0  0  0  0  0  0  0  0  0
   27.3929  -20.3212  -11.7876 C   0  0  0  0  0  0  0  0  0  0  0  0
   26.6725  -20.7708  -10.5957 C   0  0  0  0  0  0  0  0  0  0  0  0
   25.8311  -21.8588  -10.5267 C   0  0  0  0  0  0  0  0  0  0  0  0
   25.3636  -21.9438   -9.2674 N   0  0  0  0  0  0  0  0  0  0  0  0
   25.8606  -20.9554   -8.4959 C   0  0  0  0  0  0  0  0  0  0  0  0
   25.6822  -20.6278   -7.1687 C   0  0  0  0  0  0  0  0  0  0  0  0
   26.3561  -19.5263   -6.6816 C   0  0  0  0  0  0  0  0  0  0  0  0
   27.1774  -18.7916   -7.5178 C   0  0  0  0  0  0  0  0  0  0  0  0
   27.3663  -19.1059   -8.8470 C   0  0  0  0  0  0  0  0  0  0  0  0
   26.6925  -20.2100   -9.3401 C   0  0  0  0  0  0  0  0  0  0  0  0
   25.3456  -20.3046  -13.1883 C   0  0  0  0  0  0  0  0  0  0  0  0
   25.1226  -19.1169  -13.5351 O   0  0  0  0  0  0  0  0  0  0  0  0
   24.2136  -21.1213  -12.9284 N   0  0  0  0  0  0  0  0  0  0  0  0
   22.8346  -20.6313  -13.1793 C   0  0  1  0  0  0  0  0  0  0  0  0
   21.9361  -21.8429  -13.3871 C   0  0  0  0  0  0  0  0  0  0  0  0
   20.5391  -21.4105  -13.6375 C   0  0  0  0  0  0  0  0  0  0  0  0
   19.5759  -22.5304  -13.9203 C   0  0  0  0  0  0  0  0  0  0  0  0
   18.2070  -22.1113  -14.2874 C   0  0  0  0  0  0  0  0  0  0  0  0
   17.2738  -23.1794  -14.4570 N   0  0  0  0  0  0  0  0  0  0  0  0
   22.4378  -19.7957  -12.0439 C   0  0  0  0  0  0  0  0  0  0  0  0
   21.6336  -18.8365  -12.0802 O   0  0  0  0  0  0  0  0  0  0  0  0
   23.0042  -20.0827  -10.7818 O   0  0  0  0  0  0  0  0  0  0  0  0
  2  1  1  6
  2  5  1  0
  3  2  1  0
  4  3  1  0
  5  6  2  0
  7  5  1  0
  7  8  1  0
  8  9  1  1
  9 10  1  0
 10 11  2  0
 11 12  1  0
 13 14  2  0
 13 12  1  0
 15 14  1  0
 16 15  2  0
 17 16  1  0
 17 18  2  0
 18 10  1  0
 18 13  1  0
 19 21  1  0
 19  8  1  0
 20 19  2  0
 22 23  1  1
 22 28  1  0
 22 21  1  0
 24 23  1  0
 25 24  1  0
 26 25  1  0
 27 26  1  0
 28 30  1  0
 29 28  2  0
M  END
$$$$
