CWK.pdb
     RDKit          3D

 30 31  0  0  1  0  0  0  0  0999 V2000
   28.6582  -22.4745  -15.6175 N   0  0  0  0  0  0  0  0  0  0  0  0
   28.0844  -21.2011  -15.1601 C   0  0  1  0  0  0  0  0  0  0  0  0
   27.4448  -20.5548  -16.3698 C   0  0  0  0  0  0  0  0  0  0  0  0
   28.7549  -19.9329  -17.4574 S   0  0  0  0  0  0  0  0  0  0  0  0
   27.0805  -21.5356  -14.1197 C   0  0  0  0  0  0  0  0  0  0  0  0
   26.4881  -22.6442  -14.0790 O   0  0  0  0  0  0  0  0  0  0  0  0
   26.7316  -20.5932  -13.0924 N   0  0  0  0  0  0  0  0  0  0  0  0
   25.7353  -20.9056  -12.0860 C   0  0  1  0  0  0  0  0  0  0  0  0
   26.0487  -20.0721  -10.8624 C   0  0  0  0  0  0  0  0  0  0  0  0
   27.2314  -20.5453  -10.1419 C   0  0  0  0  0  0  0  0  0  0  0  0
   28.2881  -21.2342  -10.6944 C   0  0  0  0  0  0  0  0  0  0  0  0
   29.1746  -21.4915   -9.7149 N   0  0  0  0  0  0  0  0  0  0  0  0
   28.7496  -21.0010   -8.5326 C   0  0  0  0  0  0  0  0  0  0  0  0
   29.2957  -21.0120   -7.2668 C   0  0  0  0  0  0  0  0  0  0  0  0
   28.5829  -20.4043   -6.2531 C   0  0  0  0  0  0  0  0  0  0  0  0
   27.3631  -19.8110   -6.5240 C   0  0  0  0  0  0  0  0  0  0  0  0
   26.8033  -19.7915   -7.7840 C   0  0  0  0  0  0  0  0  0  0  0  0
   27.5146  -20.3996   -8.8040 C   0  0  0  0  0  0  0  0  0  0  0  0
   24.3662  -20.6970  -12.5748 C   0  0  0  0  0  0  0  0  0  0  0  0
   24.0444  -19.5727  -13.0365 O   0  0  0  0  0  0  0  0  0  0  0  0
   23.3596  -21.6982  -12.5619 N   0  0  0  0  0  0  0  0  0  0  0  0
   21.9990  -21.4314  -13.0933 C   0  0  1  0  0  0  0  0  0  0  0  0
   21.3700  -22.7670  -13.4661 C   0  0  0  0  0  0  0  0  0  0  0  0
   19.9824  -22.5647  -13.9509 C   0  0  0  0  0  0  0  0  0  0  0  0
   19.2480  -23.8301  -14.2994 C   0  0  0  0  0  0  0  0  0  0  0  0
   17.8999  -23.6420  -14.8754 C   0  0  0  0  0  0  0  0  0  0  0  0
   17.1499  -24.8436  -15.0609 N   0  0  0  0  0  0  0  0  0  0  0  0
   21.2503  -20.6962  -12.0717 C   0  0  0  0  0  0  0  0  0  0  0  0
   21.3807  -20.8175  -10.8322 O   0  0  0  0  0  0  0  0  0  0  0  0
   20.2867  -19.7583  -12.5050 O   0  0  0  0  0  0  0  0  0  0  0  0
  2  1  1  6
  2  5  1  0
  3  2  1  0
  4  3  1  0
  5  6  2  0
  7  5  1  0
  7  8  1  0
  8  9  1  1
  9 10  1  0
 10 11  2  0
 11 12  1  0
 13 14  2  0
 13 12  1  0
 15 14  1  0
 16 15  2  0
 17 16  1  0
 17 18  2  0
 18 10  1  0
 18 13  1  0
 19 21  1  0
 19  8  1  0
 20 19  2  0
 22 23  1  1
 22 28  1  0
 22 21  1  0
 24 23  1  0
 25 24  1  0
 26 25  1  0
 27 26  1  0
 28 30  1  0
 29 28  2  0
M  END
$$$$
