CWK.pdb
     RDKit          3D

 30 31  0  0  1  0  0  0  0  0999 V2000
   28.6922  -20.4888  -14.9020 N   0  0  0  0  0  0  0  0  0  0  0  0
   27.8484  -19.5778  -14.1158 C   0  0  1  0  0  0  0  0  0  0  0  0
   27.0875  -18.7266  -15.1092 C   0  0  0  0  0  0  0  0  0  0  0  0
   28.1955  -17.4377  -15.7393 S   0  0  0  0  0  0  0  0  0  0  0  0
   26.9384  -20.4290  -13.3099 C   0  0  0  0  0  0  0  0  0  0  0  0
   26.5631  -21.5686  -13.6867 O   0  0  0  0  0  0  0  0  0  0  0  0
   26.4345  -19.9842  -12.0397 N   0  0  0  0  0  0  0  0  0  0  0  0
   25.4897  -20.7802  -11.2800 C   0  0  1  0  0  0  0  0  0  0  0  0
   25.6886  -20.4477   -9.8171 C   0  0  0  0  0  0  0  0  0  0  0  0
   27.0503  -20.7186   -9.3543 C   0  0  0  0  0  0  0  0  0  0  0  0
   27.9858  -21.4862  -10.0116 C   0  0  0  0  0  0  0  0  0  0  0  0
   29.1098  -21.4964   -9.2713 N   0  0  0  0  0  0  0  0  0  0  0  0
   28.9592  -20.7659   -8.1475 C   0  0  0  0  0  0  0  0  0  0  0  0
   29.8073  -20.4810   -7.0986 C   0  0  0  0  0  0  0  0  0  0  0  0
   29.3268  -19.6812   -6.0816 C   0  0  0  0  0  0  0  0  0  0  0  0
   28.0333  -19.1942   -6.1362 C   0  0  0  0  0  0  0  0  0  0  0  0
   27.1728  -19.4699   -7.1778 C   0  0  0  0  0  0  0  0  0  0  0  0
   27.6503  -20.2716   -8.2003 C   0  0  0  0  0  0  0  0  0  0  0  0
   24.1048  -20.5722  -11.7224 C   0  0  0  0  0  0  0  0  0  0  0  0
   23.5448  -19.4713  -11.4880 O   0  0  0  0  0  0  0  0  0  0  0  0
   23.3384  -21.5492  -12.4109 N   0  0  0  0  0  0  0  0  0  0  0  0
   21.9931  -21.2325  -12.9539 C   0  0  1  0  0  0  0  0  0  0  0  0
   21.6256  -22.3151  -13.9595 C   0  0  0  0  0  0  0  0  0  0  0  0
   20.3118  -22.0159  -14.5805 C   0  0  0  0  0  0  0  0  0  0  0  0
   19.7790  -23.0999  -15.4766 C   0  0  0  0  0  0  0  0  0  0  0  0
   19.7119  -22.7586  -16.9130 C   0  0  0  0  0  0  0  0  0  0  0  0
   19.1950  -23.7903  -17.7551 N   0  0  0  0  0  0  0  0  0  0  0  0
   21.0614  -21.1382  -11.8280 C   0  0  0  0  0  0  0  0  0  0  0  0
   20.1922  -20.2522  -11.6626 O   0  0  0  0  0  0  0  0  0  0  0  0
   21.1345  -22.1301  -10.8244 O   0  0  0  0  0  0  0  0  0  0  0  0
  2  1  1  6
  2  5  1  0
  3  2  1  0
  4  3  1  0
  5  6  2  0
  7  5  1  0
  7  8  1  0
  8  9  1  1
  9 10  1  0
 10 11  2  0
 11 12  1  0
 13 14  2  0
 13 12  1  0
 15 14  1  0
 16 15  2  0
 17 16  1  0
 17 18  2  0
 18 10  1  0
 18 13  1  0
 19 21  1  0
 19  8  1  0
 20 19  2  0
 22 23  1  6
 22 28  1  0
 22 21  1  0
 24 23  1  0
 25 24  1  0
 26 25  1  0
 27 26  1  0
 28 30  1  0
 29 28  2  0
M  END
$$$$
