CWK.pdb
     RDKit          3D

 30 31  0  0  1  0  0  0  0  0999 V2000
   29.0451  -21.2901  -14.8461 N   0  0  0  0  0  0  0  0  0  0  0  0
   28.1353  -20.2306  -14.3879 C   0  0  1  0  0  0  0  0  0  0  0  0
   27.4649  -19.6709  -15.6238 C   0  0  0  0  0  0  0  0  0  0  0  0
   28.5720  -18.4540  -16.3851 S   0  0  0  0  0  0  0  0  0  0  0  0
   27.1578  -20.8739  -13.4753 C   0  0  0  0  0  0  0  0  0  0  0  0
   26.6882  -22.0219  -13.6830 O   0  0  0  0  0  0  0  0  0  0  0  0
   26.6936  -20.2046  -12.2913 N   0  0  0  0  0  0  0  0  0  0  0  0
   25.6742  -20.7900  -11.4420 C   0  0  1  0  0  0  0  0  0  0  0  0
   25.8335  -20.1902  -10.0618 C   0  0  0  0  0  0  0  0  0  0  0  0
   27.0785  -20.5955   -9.4079 C   0  0  0  0  0  0  0  0  0  0  0  0
   28.0502  -21.4021   -9.9570 C   0  0  0  0  0  0  0  0  0  0  0  0
   29.0351  -21.5428   -9.0505 N   0  0  0  0  0  0  0  0  0  0  0  0
   28.7572  -20.8617   -7.9201 C   0  0  0  0  0  0  0  0  0  0  0  0
   29.4418  -20.7020   -6.7341 C   0  0  0  0  0  0  0  0  0  0  0  0
   28.8617  -19.9193   -5.7566 C   0  0  0  0  0  0  0  0  0  0  0  0
   27.6331  -19.3256   -5.9835 C   0  0  0  0  0  0  0  0  0  0  0  0
   26.9358  -19.4755   -7.1636 C   0  0  0  0  0  0  0  0  0  0  0  0
   27.5137  -20.2596   -8.1472 C   0  0  0  0  0  0  0  0  0  0  0  0
   24.3227  -20.6031  -11.9854 C   0  0  0  0  0  0  0  0  0  0  0  0
   23.9373  -19.4449  -12.2865 O   0  0  0  0  0  0  0  0  0  0  0  0
   23.4016  -21.6624  -12.1989 N   0  0  0  0  0  0  0  0  0  0  0  0
   22.0314  -21.4025  -12.7086 C   0  0  1  0  0  0  0  0  0  0  0  0
   21.4233  -22.7359  -13.1221 C   0  0  0  0  0  0  0  0  0  0  0  0
   20.0654  -22.5300  -13.6834 C   0  0  0  0  0  0  0  0  0  0  0  0
   19.4031  -23.7778  -14.1994 C   0  0  0  0  0  0  0  0  0  0  0  0
   18.0774  -23.5802  -14.8223 C   0  0  0  0  0  0  0  0  0  0  0  0
   17.4265  -24.7780  -15.2490 N   0  0  0  0  0  0  0  0  0  0  0  0
   21.2792  -20.7172  -11.6554 C   0  0  0  0  0  0  0  0  0  0  0  0
   21.3812  -20.9221  -10.4243 O   0  0  0  0  0  0  0  0  0  0  0  0
   20.3467  -19.7297  -12.0445 O   0  0  0  0  0  0  0  0  0  0  0  0
  2  1  1  6
  2  5  1  0
  3  2  1  0
  4  3  1  0
  5  6  2  0
  7  5  1  0
  7  8  1  0
  8  9  1  1
  9 10  1  0
 10 11  2  0
 11 12  1  0
 13 14  2  0
 13 12  1  0
 15 14  1  0
 16 15  2  0
 17 16  1  0
 17 18  2  0
 18 10  1  0
 18 13  1  0
 19 21  1  0
 19  8  1  0
 20 19  2  0
 22 23  1  1
 22 28  1  0
 22 21  1  0
 24 23  1  0
 25 24  1  0
 26 25  1  0
 27 26  1  0
 28 30  1  0
 29 28  2  0
M  END
$$$$
