CWK.pdb
     RDKit          3D

 30 31  0  0  1  0  0  0  0  0999 V2000
   27.9459  -22.2256  -15.4598 N   0  0  0  0  0  0  0  0  0  0  0  0
   27.9670  -20.9791  -14.6815 C   0  0  1  0  0  0  0  0  0  0  0  0
   27.2448  -19.9387  -15.5100 C   0  0  0  0  0  0  0  0  0  0  0  0
   28.4394  -19.1491  -16.6215 S   0  0  0  0  0  0  0  0  0  0  0  0
   27.2564  -21.2593  -13.4091 C   0  0  0  0  0  0  0  0  0  0  0  0
   26.1435  -21.8435  -13.3671 O   0  0  0  0  0  0  0  0  0  0  0  0
   27.8154  -20.8700  -12.1438 N   0  0  0  0  0  0  0  0  0  0  0  0
   27.0487  -20.9663  -10.9165 C   0  0  1  0  0  0  0  0  0  0  0  0
   27.9257  -20.4594   -9.7921 C   0  0  0  0  0  0  0  0  0  0  0  0
   27.2500  -20.4771   -8.4941 C   0  0  0  0  0  0  0  0  0  0  0  0
   25.9510  -20.8750   -8.2685 C   0  0  0  0  0  0  0  0  0  0  0  0
   25.6997  -20.7478   -6.9524 N   0  0  0  0  0  0  0  0  0  0  0  0
   26.7800  -20.2811   -6.2934 C   0  0  0  0  0  0  0  0  0  0  0  0
   27.0103  -19.9914   -4.9653 C   0  0  0  0  0  0  0  0  0  0  0  0
   28.2592  -19.5187   -4.6170 C   0  0  0  0  0  0  0  0  0  0  0  0
   29.2308  -19.3497   -5.5870 C   0  0  0  0  0  0  0  0  0  0  0  0
   29.0165  -19.6346   -6.9190 C   0  0  0  0  0  0  0  0  0  0  0  0
   27.7653  -20.1092   -7.2732 C   0  0  0  0  0  0  0  0  0  0  0  0
   25.7701  -20.2490  -11.0015 C   0  0  0  0  0  0  0  0  0  0  0  0
   25.7753  -18.9958  -11.1014 O   0  0  0  0  0  0  0  0  0  0  0  0
   24.5015  -20.8864  -10.9782 N   0  0  0  0  0  0  0  0  0  0  0  0
   23.2547  -20.1344  -11.2693 C   0  0  1  0  0  0  0  0  0  0  0  0
   22.8873  -20.3802  -12.7264 C   0  0  0  0  0  0  0  0  0  0  0  0
   22.8336  -19.0958  -13.4671 C   0  0  0  0  0  0  0  0  0  0  0  0
   21.5001  -18.7847  -14.0893 C   0  0  0  0  0  0  0  0  0  0  0  0
   21.4304  -17.5100  -14.8342 C   0  0  0  0  0  0  0  0  0  0  0  0
   20.1424  -17.1892  -15.3622 N   0  0  0  0  0  0  0  0  0  0  0  0
   22.2279  -20.5772  -10.3236 C   0  0  0  0  0  0  0  0  0  0  0  0
   21.2637  -19.8942   -9.9092 O   0  0  0  0  0  0  0  0  0  0  0  0
   22.3163  -21.8944   -9.8205 O   0  0  0  0  0  0  0  0  0  0  0  0
  2  1  1  6
  2  5  1  0
  3  2  1  0
  4  3  1  0
  5  6  2  0
  7  5  1  0
  7  8  1  0
  8  9  1  1
  9 10  1  0
 10 11  2  0
 11 12  1  0
 13 14  2  0
 13 12  1  0
 15 14  1  0
 16 15  2  0
 17 16  1  0
 17 18  2  0
 18 10  1  0
 18 13  1  0
 19 21  1  0
 19  8  1  0
 20 19  2  0
 22 23  1  6
 22 28  1  0
 22 21  1  0
 24 23  1  0
 25 24  1  0
 26 25  1  0
 27 26  1  0
 28 30  1  0
 29 28  2  0
M  END
$$$$
