DIF.pdb
     RDKit          3D

 28 28  0  0  1  0  0  0  0  0999 V2000
   13.4589  -10.9451  -15.0301 N   0  0  0  0  0  0  0  0  0  0  0  0
   14.3845  -10.4043  -16.0261 C   0  0  1  0  0  0  0  0  0  0  0  0
   13.8643   -9.0625  -16.4022 C   0  0  0  0  0  0  0  0  0  0  0  0
   12.5845   -9.0087  -17.0884 C   0  0  0  0  0  0  0  0  0  0  0  0
   12.3599   -9.8690  -17.9804 O   0  0  0  0  0  0  0  0  0  0  0  0
   15.7689  -10.4040  -15.4774 C   0  0  0  0  0  0  0  0  0  0  0  0
   16.0307  -10.0773  -14.2990 O   0  0  0  0  0  0  0  0  0  0  0  0
   11.5827   -8.0889  -16.8489 O   0  0  0  0  0  0  0  0  0  0  0  0
   19.3844  -14.3199  -16.7394 C   0  0  0  0  0  0  0  0  0  0  0  0
   18.5689  -13.2329  -16.1298 C   0  0  0  0  0  0  0  0  0  0  0  0
   19.0979  -11.8532  -16.2461 C   0  0  2  0  0  0  0  0  0  0  0  0
   20.5026  -11.8220  -15.6823 C   0  0  0  0  0  0  0  0  0  0  0  0
   18.2203  -10.7465  -15.7678 C   0  0  2  0  0  0  0  0  0  0  0  0
   16.8880  -10.7901  -16.3057 N   0  0  0  0  0  0  0  0  0  0  0  0
   18.8834   -9.4426  -15.9924 C   0  0  0  0  0  0  0  0  0  0  0  0
   19.1108   -8.9850  -17.1510 O   0  0  0  0  0  0  0  0  0  0  0  0
   19.2998   -8.6341  -14.9048 N   0  0  0  0  0  0  0  0  0  0  0  0
   20.0099   -7.3616  -15.1350 C   0  0  1  0  0  0  0  0  0  0  0  0
   19.9294   -6.5836  -13.8415 C   0  0  0  0  0  0  0  0  0  0  0  0
   20.6101   -5.2661  -13.9275 C   0  0  0  0  0  0  0  0  0  0  0  0
   21.9347   -5.0836  -13.5941 C   0  0  0  0  0  0  0  0  0  0  0  0
   22.5558   -3.8439  -13.6808 C   0  0  0  0  0  0  0  0  0  0  0  0
   21.8540   -2.7357  -14.1112 C   0  0  0  0  0  0  0  0  0  0  0  0
   20.5306   -2.8944  -14.4493 C   0  0  0  0  0  0  0  0  0  0  0  0
   19.9258   -4.1266  -14.3596 C   0  0  0  0  0  0  0  0  0  0  0  0
   21.4411   -7.6063  -15.4335 C   0  0  0  0  0  0  0  0  0  0  0  0
   22.2089   -8.5330  -14.7686 O   0  0  0  0  0  0  0  0  0  0  0  0
   21.9680   -6.9138  -16.3550 O   0  0  0  0  0  0  0  0  0  0  0  0
  2  6  1  0
  2  1  1  1
  3  2  1  0
  4  3  1  0
  5  4  2  0
  6 14  1  0
  7  6  2  0
  8  4  1  0
 10  9  1  0
 10 11  1  0
 11 12  1  1
 13 11  1  0
 13 14  1  6
 15 13  1  0
 16 15  2  0
 17 15  1  0
 18 26  1  0
 18 17  1  0
 18 19  1  1
 20 19  1  0
 21 20  2  0
 22 21  1  0
 23 22  2  0
 23 24  1  0
 24 25  2  0
 25 20  1  0
 26 27  1  0
 28 26  2  0
M  END
$$$$
