DIF.pdb
     RDKit          3D

 28 28  0  0  1  0  0  0  0  0999 V2000
   19.3480  -12.6989  -18.8128 N   0  0  0  0  0  0  0  0  0  0  0  0
   20.2205  -11.5501  -19.0582 C   0  0  1  0  0  0  0  0  0  0  0  0
   19.4329  -10.5879  -19.8744 C   0  0  0  0  0  0  0  0  0  0  0  0
   19.0333  -11.0096  -21.2065 C   0  0  0  0  0  0  0  0  0  0  0  0
   17.9261  -10.5995  -21.6448 O   0  0  0  0  0  0  0  0  0  0  0  0
   20.7146  -11.0085  -17.7620 C   0  0  0  0  0  0  0  0  0  0  0  0
   19.9522  -10.7162  -16.8149 O   0  0  0  0  0  0  0  0  0  0  0  0
   19.7654  -11.8290  -22.0429 O   0  0  0  0  0  0  0  0  0  0  0  0
   22.8573  -13.1162  -14.7257 C   0  0  0  0  0  0  0  0  0  0  0  0
   23.7690  -12.4972  -15.7276 C   0  0  0  0  0  0  0  0  0  0  0  0
   23.8083  -11.0162  -15.7723 C   0  0  2  0  0  0  0  0  0  0  0  0
   24.3209  -10.5031  -14.4434 C   0  0  0  0  0  0  0  0  0  0  0  0
   22.5875  -10.3188  -16.2694 C   0  0  2  0  0  0  0  0  0  0  0  0
   22.1271  -10.7955  -17.5450 N   0  0  0  0  0  0  0  0  0  0  0  0
   22.7991   -8.8542  -16.2506 C   0  0  0  0  0  0  0  0  0  0  0  0
   23.4354   -8.2465  -17.1612 O   0  0  0  0  0  0  0  0  0  0  0  0
   22.2909   -8.0528  -15.1973 N   0  0  0  0  0  0  0  0  0  0  0  0
   22.3600   -6.5806  -15.2644 C   0  0  1  0  0  0  0  0  0  0  0  0
   21.4104   -6.1546  -16.3605 C   0  0  0  0  0  0  0  0  0  0  0  0
   21.4096   -4.6842  -16.5721 C   0  0  0  0  0  0  0  0  0  0  0  0
   22.5436   -3.9736  -16.9006 C   0  0  0  0  0  0  0  0  0  0  0  0
   22.5247   -2.5981  -17.0953 C   0  0  0  0  0  0  0  0  0  0  0  0
   21.3489   -1.8866  -16.9638 C   0  0  0  0  0  0  0  0  0  0  0  0
   20.2046   -2.5753  -16.6364 C   0  0  0  0  0  0  0  0  0  0  0  0
   20.2350   -3.9373  -16.4459 C   0  0  0  0  0  0  0  0  0  0  0  0
   21.8936   -5.9754  -13.9941 C   0  0  0  0  0  0  0  0  0  0  0  0
   22.4390   -4.8373  -13.4488 O   0  0  0  0  0  0  0  0  0  0  0  0
   20.9393   -6.5532  -13.3925 O   0  0  0  0  0  0  0  0  0  0  0  0
  2  6  1  0
  2  1  1  1
  3  2  1  0
  4  3  1  0
  5  4  2  0
  6 14  1  0
  7  6  2  0
  8  4  1  0
 10  9  1  0
 10 11  1  0
 11 12  1  1
 13 11  1  0
 13 14  1  6
 15 13  1  0
 16 15  2  0
 17 15  1  0
 18 26  1  0
 18 17  1  0
 18 19  1  6
 20 19  1  0
 21 20  2  0
 22 21  1  0
 23 22  2  0
 23 24  1  0
 24 25  2  0
 25 20  1  0
 26 27  1  0
 28 26  2  0
M  END
$$$$
