DIF.pdb
     RDKit          3D

 28 28  0  0  1  0  0  0  0  0999 V2000
   23.0395  -20.7781  -15.3894 N   0  0  0  0  0  0  0  0  0  0  0  0
   23.3763  -19.9991  -14.1973 C   0  0  1  0  0  0  0  0  0  0  0  0
   22.0880  -19.6620  -13.5348 C   0  0  0  0  0  0  0  0  0  0  0  0
   21.1710  -18.7950  -14.2555 C   0  0  0  0  0  0  0  0  0  0  0  0
   20.0007  -19.2151  -14.4558 O   0  0  0  0  0  0  0  0  0  0  0  0
   24.3307  -20.7657  -13.3493 C   0  0  0  0  0  0  0  0  0  0  0  0
   24.0675  -21.8968  -12.8856 O   0  0  0  0  0  0  0  0  0  0  0  0
   21.4708  -17.5398  -14.7466 O   0  0  0  0  0  0  0  0  0  0  0  0
   30.3499  -21.4538  -12.0154 C   0  0  0  0  0  0  0  0  0  0  0  0
   28.9031  -21.6414  -11.7156 C   0  0  0  0  0  0  0  0  0  0  0  0
   27.9455  -20.8264  -12.5001 C   0  0  2  0  0  0  0  0  0  0  0  0
   28.4604  -19.4045  -12.5700 C   0  0  0  0  0  0  0  0  0  0  0  0
   26.5028  -20.9393  -12.1398 C   0  0  2  0  0  0  0  0  0  0  0  0
   25.6272  -20.2180  -13.0227 N   0  0  0  0  0  0  0  0  0  0  0  0
   26.3066  -20.5744  -10.7191 C   0  0  0  0  0  0  0  0  0  0  0  0
   26.1078  -19.3815  -10.3436 O   0  0  0  0  0  0  0  0  0  0  0  0
   26.3319  -21.5582   -9.6985 N   0  0  0  0  0  0  0  0  0  0  0  0
   26.1661  -21.1840   -8.2812 C   0  0  1  0  0  0  0  0  0  0  0  0
   26.9905  -19.9353   -8.0663 C   0  0  0  0  0  0  0  0  0  0  0  0
   27.7225  -19.9530   -6.7738 C   0  0  0  0  0  0  0  0  0  0  0  0
   28.4186  -21.0529   -6.3216 C   0  0  0  0  0  0  0  0  0  0  0  0
   29.0983  -21.0519   -5.1099 C   0  0  0  0  0  0  0  0  0  0  0  0
   29.0984  -19.9297   -4.3060 C   0  0  0  0  0  0  0  0  0  0  0  0
   28.4101  -18.8200   -4.7373 C   0  0  0  0  0  0  0  0  0  0  0  0
   27.7406  -18.8323   -5.9389 C   0  0  0  0  0  0  0  0  0  0  0  0
   24.7510  -20.8540   -7.9880 C   0  0  0  0  0  0  0  0  0  0  0  0
   24.1374  -21.1339   -6.7899 O   0  0  0  0  0  0  0  0  0  0  0  0
   24.0867  -20.2833   -8.9043 O   0  0  0  0  0  0  0  0  0  0  0  0
  2  6  1  0
  2  1  1  6
  3  2  1  0
  4  3  1  0
  5  4  2  0
  6 14  1  0
  7  6  2  0
  8  4  1  0
 10  9  1  0
 10 11  1  0
 11 12  1  1
 13 11  1  0
 13 14  1  6
 15 13  1  0
 16 15  2  0
 17 15  1  0
 18 26  1  0
 18 17  1  0
 18 19  1  6
 20 19  1  0
 21 20  2  0
 22 21  1  0
 23 22  2  0
 23 24  1  0
 24 25  2  0
 25 20  1  0
 26 27  1  0
 28 26  2  0
M  END
$$$$
