DIF.pdb
     RDKit          3D

 28 28  0  0  1  0  0  0  0  0999 V2000
   21.7765  -21.7694  -14.0658 N   0  0  0  0  0  0  0  0  0  0  0  0
   22.3054  -20.8144  -13.0913 C   0  0  1  0  0  0  0  0  0  0  0  0
   21.2176  -20.5684  -12.1072 C   0  0  0  0  0  0  0  0  0  0  0  0
   20.0629  -19.8116  -12.5607 C   0  0  0  0  0  0  0  0  0  0  0  0
   20.1543  -19.2029  -13.6595 O   0  0  0  0  0  0  0  0  0  0  0  0
   23.5681  -21.3427  -12.5046 C   0  0  0  0  0  0  0  0  0  0  0  0
   23.6881  -22.5212  -12.1040 O   0  0  0  0  0  0  0  0  0  0  0  0
   18.8625  -19.6975  -11.8876 O   0  0  0  0  0  0  0  0  0  0  0  0
   29.7048  -20.7733  -12.4576 C   0  0  0  0  0  0  0  0  0  0  0  0
   28.4232  -21.2220  -11.8456 C   0  0  0  0  0  0  0  0  0  0  0  0
   27.1793  -20.6150  -12.3759 C   0  0  2  0  0  0  0  0  0  0  0  0
   27.3918  -19.1235  -12.5259 C   0  0  0  0  0  0  0  0  0  0  0  0
   25.9013  -20.9879  -11.7039 C   0  0  2  0  0  0  0  0  0  0  0  0
   24.7293  -20.4931  -12.3730 N   0  0  0  0  0  0  0  0  0  0  0  0
   25.9491  -20.6005  -10.2764 C   0  0  0  0  0  0  0  0  0  0  0  0
   25.3241  -19.5975   -9.8218 O   0  0  0  0  0  0  0  0  0  0  0  0
   26.7074  -21.3460   -9.3387 N   0  0  0  0  0  0  0  0  0  0  0  0
   26.7923  -20.9251   -7.9273 C   0  0  1  0  0  0  0  0  0  0  0  0
   28.1647  -21.3293   -7.4394 C   0  0  0  0  0  0  0  0  0  0  0  0
   28.4738  -20.7812   -6.0937 C   0  0  0  0  0  0  0  0  0  0  0  0
   28.0545  -21.3806   -4.9258 C   0  0  0  0  0  0  0  0  0  0  0  0
   28.3530  -20.8543   -3.6752 C   0  0  0  0  0  0  0  0  0  0  0  0
   29.0921  -19.6940   -3.5601 C   0  0  0  0  0  0  0  0  0  0  0  0
   29.5212  -19.0786   -4.7125 C   0  0  0  0  0  0  0  0  0  0  0  0
   29.2197  -19.6086   -5.9456 C   0  0  0  0  0  0  0  0  0  0  0  0
   26.6814  -19.4514   -7.8119 C   0  0  0  0  0  0  0  0  0  0  0  0
   27.5122  -18.5728   -8.4662 O   0  0  0  0  0  0  0  0  0  0  0  0
   25.7647  -18.9955   -7.0647 O   0  0  0  0  0  0  0  0  0  0  0  0
  2  6  1  0
  2  1  1  6
  3  2  1  0
  4  3  1  0
  5  4  2  0
  6 14  1  0
  7  6  2  0
  8  4  1  0
 10  9  1  0
 10 11  1  0
 11 12  1  1
 13 11  1  0
 13 14  1  6
 15 13  1  0
 16 15  2  0
 17 15  1  0
 18 26  1  0
 18 17  1  0
 18 19  1  6
 20 19  1  0
 21 20  2  0
 22 21  1  0
 23 22  2  0
 23 24  1  0
 24 25  2  0
 25 20  1  0
 26 27  1  0
 28 26  2  0
M  END
$$$$
