DIF.pdb
     RDKit          3D

 28 28  0  0  1  0  0  0  0  0999 V2000
   22.0799  -14.4737  -17.5302 N   0  0  0  0  0  0  0  0  0  0  0  0
   22.1787  -13.1723  -18.1919 C   0  0  1  0  0  0  0  0  0  0  0  0
   20.8481  -12.9055  -18.8008 C   0  0  0  0  0  0  0  0  0  0  0  0
   20.3924  -13.8144  -19.8391 C   0  0  0  0  0  0  0  0  0  0  0  0
   21.2581  -14.3061  -20.6105 O   0  0  0  0  0  0  0  0  0  0  0  0
   22.6334  -12.1449  -17.2144 C   0  0  0  0  0  0  0  0  0  0  0  0
   22.0615  -11.9515  -16.1193 O   0  0  0  0  0  0  0  0  0  0  0  0
   19.0820  -14.1903  -20.0591 O   0  0  0  0  0  0  0  0  0  0  0  0
   26.3249  -11.8449  -14.8399 C   0  0  0  0  0  0  0  0  0  0  0  0
   26.4071  -11.2388  -16.1979 C   0  0  0  0  0  0  0  0  0  0  0  0
   25.5833  -10.0313  -16.4433 C   0  0  2  0  0  0  0  0  0  0  0  0
   25.9514   -8.9759  -15.4221 C   0  0  0  0  0  0  0  0  0  0  0  0
   24.1157  -10.2334  -16.6147 C   0  0  2  0  0  0  0  0  0  0  0  0
   23.7796  -11.3134  -17.5017 N   0  0  0  0  0  0  0  0  0  0  0  0
   23.4715   -8.9579  -16.9998 C   0  0  0  0  0  0  0  0  0  0  0  0
   23.9047   -8.2343  -17.9444 O   0  0  0  0  0  0  0  0  0  0  0  0
   22.3228   -8.4811  -16.3194 N   0  0  0  0  0  0  0  0  0  0  0  0
   21.6743   -7.2181  -16.7204 C   0  0  1  0  0  0  0  0  0  0  0  0
   20.2221   -7.5445  -16.9837 C   0  0  0  0  0  0  0  0  0  0  0  0
   19.4325   -6.3484  -17.3744 C   0  0  0  0  0  0  0  0  0  0  0  0
   18.4610   -5.7955  -16.5685 C   0  0  0  0  0  0  0  0  0  0  0  0
   17.7321   -4.6759  -16.9497 C   0  0  0  0  0  0  0  0  0  0  0  0
   17.9614   -4.0707  -18.1691 C   0  0  0  0  0  0  0  0  0  0  0  0
   18.9265   -4.6054  -18.9899 C   0  0  0  0  0  0  0  0  0  0  0  0
   19.6422   -5.7144  -18.6022 C   0  0  0  0  0  0  0  0  0  0  0  0
   21.7283   -6.2280  -15.6185 C   0  0  0  0  0  0  0  0  0  0  0  0
   21.7946   -4.8696  -15.8195 O   0  0  0  0  0  0  0  0  0  0  0  0
   21.7118   -6.6776  -14.4336 O   0  0  0  0  0  0  0  0  0  0  0  0
  2  6  1  0
  2  1  1  1
  3  2  1  0
  4  3  1  0
  5  4  2  0
  6 14  1  0
  7  6  2  0
  8  4  1  0
 10  9  1  0
 10 11  1  0
 11 12  1  1
 13 11  1  0
 13 14  1  6
 15 13  1  0
 16 15  2  0
 17 15  1  0
 18 26  1  0
 18 17  1  0
 18 19  1  1
 20 19  1  0
 21 20  2  0
 22 21  1  0
 23 22  2  0
 23 24  1  0
 24 25  2  0
 25 20  1  0
 26 27  1  0
 28 26  2  0
M  END
$$$$
