DIF.pdb
     RDKit          3D

 28 28  0  0  1  0  0  0  0  0999 V2000
   21.2883  -12.5516  -19.5211 N   0  0  0  0  0  0  0  0  0  0  0  0
   22.0601  -11.3145  -19.6443 C   0  0  1  0  0  0  0  0  0  0  0  0
   21.2904  -10.4249  -20.5545 C   0  0  0  0  0  0  0  0  0  0  0  0
   21.0807  -10.8817  -21.9180 C   0  0  0  0  0  0  0  0  0  0  0  0
   22.0943  -11.2089  -22.5901 O   0  0  0  0  0  0  0  0  0  0  0  0
   22.3195  -10.7475  -18.2919 C   0  0  0  0  0  0  0  0  0  0  0  0
   21.4904  -10.8153  -17.3582 O   0  0  0  0  0  0  0  0  0  0  0  0
   19.8576  -10.9891  -22.5500 O   0  0  0  0  0  0  0  0  0  0  0  0
   26.7630  -12.0098  -15.7550 C   0  0  0  0  0  0  0  0  0  0  0  0
   25.4324  -11.5494  -16.2405 C   0  0  0  0  0  0  0  0  0  0  0  0
   25.1382  -10.1021  -16.1162 C   0  0  2  0  0  0  0  0  0  0  0  0
   25.4080   -9.6719  -14.6900 C   0  0  0  0  0  0  0  0  0  0  0  0
   23.8369   -9.6236  -16.6654 C   0  0  2  0  0  0  0  0  0  0  0  0
   23.5685  -10.0818  -18.0012 N   0  0  0  0  0  0  0  0  0  0  0  0
   23.7451   -8.1520  -16.5383 C   0  0  0  0  0  0  0  0  0  0  0  0
   24.5898   -7.3691  -17.0647 O   0  0  0  0  0  0  0  0  0  0  0  0
   22.6915   -7.5425  -15.8114 N   0  0  0  0  0  0  0  0  0  0  0  0
   22.6350   -6.0779  -15.6438 C   0  0  1  0  0  0  0  0  0  0  0  0
   21.4145   -5.6049  -16.3998 C   0  0  0  0  0  0  0  0  0  0  0  0
   21.2103   -4.1377  -16.2887 C   0  0  0  0  0  0  0  0  0  0  0  0
   22.1026   -3.2164  -16.7927 C   0  0  0  0  0  0  0  0  0  0  0  0
   21.8956   -1.8472  -16.6802 C   0  0  0  0  0  0  0  0  0  0  0  0
   20.7700   -1.3570  -16.0490 C   0  0  0  0  0  0  0  0  0  0  0  0
   19.8656   -2.2582  -15.5383 C   0  0  0  0  0  0  0  0  0  0  0  0
   20.0808   -3.6118  -15.6554 C   0  0  0  0  0  0  0  0  0  0  0  0
   22.4563   -5.7199  -14.2165 C   0  0  0  0  0  0  0  0  0  0  0  0
   21.8472   -6.5409  -13.2971 O   0  0  0  0  0  0  0  0  0  0  0  0
   22.8953   -4.5913  -13.8423 O   0  0  0  0  0  0  0  0  0  0  0  0
  2  6  1  0
  2  1  1  1
  3  2  1  0
  4  3  1  0
  5  4  2  0
  6 14  1  0
  7  6  2  0
  8  4  1  0
 10  9  1  0
 10 11  1  0
 11 12  1  1
 13 11  1  0
 13 14  1  6
 15 13  1  0
 16 15  2  0
 17 15  1  0
 18 26  1  0
 18 17  1  0
 18 19  1  6
 20 19  1  0
 21 20  2  0
 22 21  1  0
 23 22  2  0
 23 24  1  0
 24 25  2  0
 25 20  1  0
 26 27  1  0
 28 26  2  0
M  END
$$$$
