DIF.pdb
     RDKit          3D

 28 28  0  0  1  0  0  0  0  0999 V2000
   22.5905  -15.5637  -17.0215 N   0  0  0  0  0  0  0  0  0  0  0  0
   22.6113  -14.2149  -17.5886 C   0  0  1  0  0  0  0  0  0  0  0  0
   21.2309  -13.9362  -18.0672 C   0  0  0  0  0  0  0  0  0  0  0  0
   20.6999  -14.7918  -19.1150 C   0  0  0  0  0  0  0  0  0  0  0  0
   19.4529  -14.9635  -19.1572 O   0  0  0  0  0  0  0  0  0  0  0  0
   23.1254  -13.2520  -16.5756 C   0  0  0  0  0  0  0  0  0  0  0  0
   22.7613  -13.2679  -15.3794 O   0  0  0  0  0  0  0  0  0  0  0  0
   21.4473  -15.4411  -20.0776 O   0  0  0  0  0  0  0  0  0  0  0  0
   28.2865  -12.2916  -15.8657 C   0  0  0  0  0  0  0  0  0  0  0  0
   26.8032  -12.4206  -15.8271 C   0  0  0  0  0  0  0  0  0  0  0  0
   26.0199  -11.1637  -15.8855 C   0  0  2  0  0  0  0  0  0  0  0  0
   26.5089  -10.2351  -14.7943 C   0  0  0  0  0  0  0  0  0  0  0  0
   24.5361  -11.2908  -15.9634 C   0  0  2  0  0  0  0  0  0  0  0  0
   24.0868  -12.2390  -16.9459 N   0  0  0  0  0  0  0  0  0  0  0  0
   23.9229   -9.9552  -16.1379 C   0  0  0  0  0  0  0  0  0  0  0  0
   24.1598   -9.2234  -17.1438 O   0  0  0  0  0  0  0  0  0  0  0  0
   23.0287   -9.4266  -15.1732 N   0  0  0  0  0  0  0  0  0  0  0  0
   22.3764   -8.1197  -15.3805 C   0  0  1  0  0  0  0  0  0  0  0  0
   21.4185   -8.2952  -16.5365 C   0  0  0  0  0  0  0  0  0  0  0  0
   20.2561   -9.1514  -16.1866 C   0  0  0  0  0  0  0  0  0  0  0  0
   20.3471  -10.2236  -15.3257 C   0  0  0  0  0  0  0  0  0  0  0  0
   19.2493  -11.0138  -15.0090 C   0  0  0  0  0  0  0  0  0  0  0  0
   18.0103  -10.7458  -15.5558 C   0  0  0  0  0  0  0  0  0  0  0  0
   17.8960   -9.6804  -16.4177 C   0  0  0  0  0  0  0  0  0  0  0  0
   18.9899   -8.9047  -16.7243 C   0  0  0  0  0  0  0  0  0  0  0  0
   21.5872   -7.7323  -14.1871 C   0  0  0  0  0  0  0  0  0  0  0  0
   21.5039   -8.4989  -13.0488 O   0  0  0  0  0  0  0  0  0  0  0  0
   20.9617   -6.6310  -14.2378 O   0  0  0  0  0  0  0  0  0  0  0  0
  2  6  1  0
  2  1  1  1
  3  2  1  0
  4  3  1  0
  5  4  2  0
  6 14  1  0
  7  6  2  0
  8  4  1  0
 10  9  1  0
 10 11  1  0
 11 12  1  1
 13 11  1  0
 13 14  1  6
 15 13  1  0
 16 15  2  0
 17 15  1  0
 18 26  1  0
 18 17  1  0
 18 19  1  6
 20 19  1  0
 21 20  2  0
 22 21  1  0
 23 22  2  0
 23 24  1  0
 24 25  2  0
 25 20  1  0
 26 27  1  0
 28 26  2  0
M  END
$$$$
