DIF.pdb
     RDKit          3D

 28 28  0  0  1  0  0  0  0  0999 V2000
   17.0316  -12.4733  -15.3139 N   0  0  0  0  0  0  0  0  0  0  0  0
   16.1901  -11.4208  -14.7435 C   0  0  1  0  0  0  0  0  0  0  0  0
   15.4997  -12.0207  -13.5706 C   0  0  0  0  0  0  0  0  0  0  0  0
   14.4680  -13.0096  -13.8344 C   0  0  0  0  0  0  0  0  0  0  0  0
   14.5026  -13.6139  -14.9389 O   0  0  0  0  0  0  0  0  0  0  0  0
   17.0223  -10.2258  -14.4321 C   0  0  0  0  0  0  0  0  0  0  0  0
   18.2252  -10.3057  -14.0996 O   0  0  0  0  0  0  0  0  0  0  0  0
   13.4421  -13.3490  -12.9748 O   0  0  0  0  0  0  0  0  0  0  0  0
   16.7898   -6.6438  -17.6121 C   0  0  0  0  0  0  0  0  0  0  0  0
   17.7102   -6.9807  -16.4907 C   0  0  0  0  0  0  0  0  0  0  0  0
   17.2437   -6.6576  -15.1214 C   0  0  2  0  0  0  0  0  0  0  0  0
   17.9349   -5.3929  -14.6581 C   0  0  0  0  0  0  0  0  0  0  0  0
   17.2541   -7.7639  -14.1214 C   0  0  2  0  0  0  0  0  0  0  0  0
   16.4576   -8.8978  -14.5038 N   0  0  0  0  0  0  0  0  0  0  0  0
   16.8955   -7.2402  -12.7846 C   0  0  0  0  0  0  0  0  0  0  0  0
   17.5763   -6.3483  -12.1976 O   0  0  0  0  0  0  0  0  0  0  0  0
   15.7562   -7.7195  -12.0901 N   0  0  0  0  0  0  0  0  0  0  0  0
   15.4154   -7.2073  -10.7491 C   0  0  1  0  0  0  0  0  0  0  0  0
   14.0811   -7.8155  -10.3824 C   0  0  0  0  0  0  0  0  0  0  0  0
   13.5845   -7.3437   -9.0642 C   0  0  0  0  0  0  0  0  0  0  0  0
   13.5040   -8.1607   -7.9574 C   0  0  0  0  0  0  0  0  0  0  0  0
   13.0373   -7.7027   -6.7317 C   0  0  0  0  0  0  0  0  0  0  0  0
   12.6321   -6.3917   -6.5802 C   0  0  0  0  0  0  0  0  0  0  0  0
   12.7037   -5.5581   -7.6716 C   0  0  0  0  0  0  0  0  0  0  0  0
   13.1675   -6.0225   -8.8806 C   0  0  0  0  0  0  0  0  0  0  0  0
   16.4128   -7.6546   -9.7479 C   0  0  0  0  0  0  0  0  0  0  0  0
   16.7273   -6.9400   -8.6162 O   0  0  0  0  0  0  0  0  0  0  0  0
   16.9971   -8.7583   -9.9644 O   0  0  0  0  0  0  0  0  0  0  0  0
  2  6  1  0
  2  1  1  1
  3  2  1  0
  4  3  1  0
  5  4  2  0
  6 14  1  0
  7  6  2  0
  8  4  1  0
 10  9  1  0
 10 11  1  0
 11 12  1  1
 13 11  1  0
 13 14  1  6
 15 13  1  0
 16 15  2  0
 17 15  1  0
 18 26  1  0
 18 17  1  0
 18 19  1  1
 20 19  1  0
 21 20  2  0
 22 21  1  0
 23 22  2  0
 23 24  1  0
 24 25  2  0
 25 20  1  0
 26 27  1  0
 28 26  2  0
M  END
$$$$
