DIF.pdb
     RDKit          3D

 28 28  0  0  1  0  0  0  0  0999 V2000
   22.8196  -20.9885  -16.8548 N   0  0  0  0  0  0  0  0  0  0  0  0
   21.9110  -20.4789  -15.8272 C   0  0  1  0  0  0  0  0  0  0  0  0
   21.3107  -19.2327  -16.3739 C   0  0  0  0  0  0  0  0  0  0  0  0
   20.5347  -18.4077  -15.4634 C   0  0  0  0  0  0  0  0  0  0  0  0
   21.1159  -17.9533  -14.4426 O   0  0  0  0  0  0  0  0  0  0  0  0
   20.9270  -21.5342  -15.4586 C   0  0  0  0  0  0  0  0  0  0  0  0
   19.7478  -21.5364  -15.8747 O   0  0  0  0  0  0  0  0  0  0  0  0
   19.2035  -18.0748  -15.6176 O   0  0  0  0  0  0  0  0  0  0  0  0
   21.6652  -26.6202  -16.3169 C   0  0  0  0  0  0  0  0  0  0  0  0
   21.1582  -25.2580  -15.9918 C   0  0  0  0  0  0  0  0  0  0  0  0
   20.7552  -25.0110  -14.5870 C   0  0  2  0  0  0  0  0  0  0  0  0
   19.7706  -26.0822  -14.1682 C   0  0  0  0  0  0  0  0  0  0  0  0
   20.3389  -23.6233  -14.2335 C   0  0  2  0  0  0  0  0  0  0  0  0
   21.3071  -22.6208  -14.5854 N   0  0  0  0  0  0  0  0  0  0  0  0
   19.9462  -23.5611  -12.8080 C   0  0  0  0  0  0  0  0  0  0  0  0
   20.7527  -23.8229  -11.8676 O   0  0  0  0  0  0  0  0  0  0  0  0
   18.6301  -23.1996  -12.4245 N   0  0  0  0  0  0  0  0  0  0  0  0
   18.2243  -23.2104  -11.0061 C   0  0  1  0  0  0  0  0  0  0  0  0
   17.8179  -21.7953  -10.6638 C   0  0  0  0  0  0  0  0  0  0  0  0
   18.9789  -20.8709  -10.5970 C   0  0  0  0  0  0  0  0  0  0  0  0
   19.7722  -20.7436   -9.4774 C   0  0  0  0  0  0  0  0  0  0  0  0
   20.8548  -19.8741   -9.4323 C   0  0  0  0  0  0  0  0  0  0  0  0
   21.1764  -19.0962  -10.5265 C   0  0  0  0  0  0  0  0  0  0  0  0
   20.3984  -19.2068  -11.6550 C   0  0  0  0  0  0  0  0  0  0  0  0
   19.3287  -20.0711  -11.6884 C   0  0  0  0  0  0  0  0  0  0  0  0
   17.0456  -24.0863  -10.8046 C   0  0  0  0  0  0  0  0  0  0  0  0
   16.6445  -24.5504   -9.5742 O   0  0  0  0  0  0  0  0  0  0  0  0
   16.3842  -24.4148  -11.8348 O   0  0  0  0  0  0  0  0  0  0  0  0
  2  6  1  0
  2  1  1  6
  3  2  1  0
  4  3  1  0
  5  4  2  0
  6 14  1  0
  7  6  2  0
  8  4  1  0
 10  9  1  0
 10 11  1  0
 11 12  1  6
 13 11  1  0
 13 14  1  1
 15 13  1  0
 16 15  2  0
 17 15  1  0
 18 26  1  0
 18 17  1  0
 18 19  1  6
 20 19  1  0
 21 20  2  0
 22 21  1  0
 23 22  2  0
 23 24  1  0
 24 25  2  0
 25 20  1  0
 26 27  1  0
 28 26  2  0
M  END
$$$$
