DIF.pdb
     RDKit          3D

 28 28  0  0  1  0  0  0  0  0999 V2000
   19.1164  -12.2014  -18.1814 N   0  0  0  0  0  0  0  0  0  0  0  0
   18.7987  -11.4198  -16.9858 C   0  0  1  0  0  0  0  0  0  0  0  0
   19.6041  -11.9974  -15.8768 C   0  0  0  0  0  0  0  0  0  0  0  0
   19.2357  -13.3198  -15.3998 C   0  0  0  0  0  0  0  0  0  0  0  0
   20.1625  -14.1428  -15.1766 O   0  0  0  0  0  0  0  0  0  0  0  0
   19.0474   -9.9753  -17.2491 C   0  0  0  0  0  0  0  0  0  0  0  0
   19.9256   -9.5726  -18.0431 O   0  0  0  0  0  0  0  0  0  0  0  0
   17.9475  -13.7600  -15.1681 O   0  0  0  0  0  0  0  0  0  0  0  0
   17.9869   -5.1117  -19.1291 C   0  0  0  0  0  0  0  0  0  0  0  0
   17.3609   -5.4822  -17.8294 C   0  0  0  0  0  0  0  0  0  0  0  0
   17.2632   -6.9287  -17.5214 C   0  0  2  0  0  0  0  0  0  0  0  0
   15.9720   -7.1801  -16.7721 C   0  0  0  0  0  0  0  0  0  0  0  0
   18.4612   -7.5764  -16.9137 C   0  0  2  0  0  0  0  0  0  0  0  0
   18.2649   -8.9610  -16.5811 N   0  0  0  0  0  0  0  0  0  0  0  0
   18.9398   -6.7763  -15.7643 C   0  0  0  0  0  0  0  0  0  0  0  0
   18.3195   -6.7303  -14.6614 O   0  0  0  0  0  0  0  0  0  0  0  0
   20.1325   -6.0143  -15.8465 N   0  0  0  0  0  0  0  0  0  0  0  0
   20.6365   -5.2676  -14.6782 C   0  0  1  0  0  0  0  0  0  0  0  0
   22.0439   -5.7588  -14.4278 C   0  0  0  0  0  0  0  0  0  0  0  0
   22.0873   -7.1992  -14.0670 C   0  0  0  0  0  0  0  0  0  0  0  0
   22.6870   -8.1530  -14.8607 C   0  0  0  0  0  0  0  0  0  0  0  0
   22.7188   -9.4963  -14.5076 C   0  0  0  0  0  0  0  0  0  0  0  0
   22.1408   -9.9264  -13.3300 C   0  0  0  0  0  0  0  0  0  0  0  0
   21.5366   -8.9919  -12.5221 C   0  0  0  0  0  0  0  0  0  0  0  0
   21.5111   -7.6644  -12.8817 C   0  0  0  0  0  0  0  0  0  0  0  0
   20.7041   -3.8164  -14.9727 C   0  0  0  0  0  0  0  0  0  0  0  0
   20.4489   -3.2793  -16.2123 O   0  0  0  0  0  0  0  0  0  0  0  0
   21.0159   -3.0445  -14.0169 O   0  0  0  0  0  0  0  0  0  0  0  0
  2  6  1  0
  2  1  1  6
  3  2  1  0
  4  3  1  0
  5  4  2  0
  6 14  1  0
  7  6  2  0
  8  4  1  0
 10  9  1  0
 10 11  1  0
 11 12  1  1
 13 11  1  0
 13 14  1  1
 15 13  1  0
 16 15  2  0
 17 15  1  0
 18 26  1  0
 18 17  1  0
 18 19  1  6
 20 19  1  0
 21 20  2  0
 22 21  1  0
 23 22  2  0
 23 24  1  0
 24 25  2  0
 25 20  1  0
 26 27  1  0
 28 26  2  0
M  END
$$$$
