YAH.pdb
     RDKit          3D

 28 29  0  0  1  0  0  0  0  0999 V2000
   26.1118  -12.0224  -26.0199 O   0  0  0  0  0  0  0  0  0  0  0  0
   25.3594  -12.9357  -25.2933 C   0  0  0  0  0  0  0  0  0  0  0  0
   25.8993  -14.1431  -24.8947 C   0  0  0  0  0  0  0  0  0  0  0  0
   25.1506  -15.0268  -24.1840 C   0  0  0  0  0  0  0  0  0  0  0  0
   23.8361  -14.7570  -23.8358 C   0  0  0  0  0  0  0  0  0  0  0  0
   23.0361  -15.7401  -23.0572 C   0  0  0  0  0  0  0  0  0  0  0  0
   23.0237  -15.3043  -21.6106 C   0  0  2  0  0  0  0  0  0  0  0  0
   24.3684  -15.5036  -21.0617 N   0  0  0  0  0  0  0  0  0  0  0  0
   22.1028  -16.0968  -20.7860 C   0  0  0  0  0  0  0  0  0  0  0  0
   22.5001  -16.9418  -19.9130 O   0  0  0  0  0  0  0  0  0  0  0  0
   23.2676  -13.5512  -24.2230 C   0  0  0  0  0  0  0  0  0  0  0  0
   24.0495  -12.6676  -24.9458 C   0  0  0  0  0  0  0  0  0  0  0  0
   19.8966  -16.3178  -18.5932 C   0  0  0  0  0  0  0  0  0  0  0  0
   19.7775  -16.7291  -20.0566 C   0  0  2  0  0  0  0  0  0  0  0  0
   20.6750  -15.9861  -20.8940 N   0  0  0  0  0  0  0  0  0  0  0  0
   18.3867  -16.4105  -20.4666 C   0  0  0  0  0  0  0  0  0  0  0  0
   17.9320  -15.2709  -20.2082 O   0  0  0  0  0  0  0  0  0  0  0  0
   17.5480  -17.3281  -21.1343 N   0  0  0  0  0  0  0  0  0  0  0  0
   16.1976  -17.5468  -20.6247 C   0  0  1  0  0  0  0  0  0  0  0  0
   16.2290  -17.8789  -19.1544 C   0  0  0  0  0  0  0  0  0  0  0  0
   16.5039  -19.2994  -18.9392 C   0  0  0  0  0  0  0  0  0  0  0  0
   16.8845  -20.2062  -19.9106 C   0  0  0  0  0  0  0  0  0  0  0  0
   17.0181  -21.3909  -19.3024 N   0  0  0  0  0  0  0  0  0  0  0  0
   16.7381  -21.2594  -18.0017 C   0  0  0  0  0  0  0  0  0  0  0  0
   16.4187  -19.9784  -17.7563 N   0  0  0  0  0  0  0  0  0  0  0  0
   15.4025  -16.3547  -20.9627 C   0  0  0  0  0  0  0  0  0  0  0  0
   15.8499  -15.2140  -20.7154 O   0  0  0  0  0  0  0  0  0  0  0  0
   14.1596  -16.4576  -21.5546 O   0  0  0  0  0  0  0  0  0  0  0  0
  2 12  2  0
  2  1  1  0
  3  2  1  0
  4  5  1  0
  4  3  2  0
  5 11  2  0
  6  5  1  0
  6  7  1  0
  7  8  1  1
  9  7  1  0
  9 15  1  0
 10  9  2  0
 11 12  1  0
 14 13  1  1
 14 15  1  0
 14 16  1  0
 16 17  2  0
 16 18  1  0
 18 19  1  0
 19 26  1  0
 19 20  1  1
 21 20  1  0
 22 21  2  0
 23 24  1  0
 23 22  1  0
 24 25  2  0
 25 21  1  0
 26 27  2  0
 26 28  1  0
M  END
$$$$
