YAH.pdb
     RDKit          3D

 28 29  0  0  1  0  0  0  0  0999 V2000
   18.4156  -17.7566  -23.7613 O   0  0  0  0  0  0  0  0  0  0  0  0
   18.9947  -16.8107  -22.9258 C   0  0  0  0  0  0  0  0  0  0  0  0
   19.8918  -15.8828  -23.4179 C   0  0  0  0  0  0  0  0  0  0  0  0
   20.4504  -14.9632  -22.5878 C   0  0  0  0  0  0  0  0  0  0  0  0
   20.1476  -14.9196  -21.2357 C   0  0  0  0  0  0  0  0  0  0  0  0
   20.7719  -13.9035  -20.3466 C   0  0  0  0  0  0  0  0  0  0  0  0
   22.2389  -14.2346  -20.2022 C   0  0  2  0  0  0  0  0  0  0  0  0
   22.3565  -15.4370  -19.3718 N   0  0  0  0  0  0  0  0  0  0  0  0
   22.9977  -13.1732  -19.5286 C   0  0  0  0  0  0  0  0  0  0  0  0
   23.1100  -13.0956  -18.2576 O   0  0  0  0  0  0  0  0  0  0  0  0
   19.2491  -15.8402  -20.7137 C   0  0  0  0  0  0  0  0  0  0  0  0
   18.6935  -16.7666  -21.5783 C   0  0  0  0  0  0  0  0  0  0  0  0
   25.0967  -10.1587  -20.5684 C   0  0  0  0  0  0  0  0  0  0  0  0
   24.3337  -11.0399  -19.5856 C   0  0  2  0  0  0  0  0  0  0  0  0
   23.6781  -12.1318  -20.2465 N   0  0  0  0  0  0  0  0  0  0  0  0
   23.2945  -10.1755  -18.9717 C   0  0  0  0  0  0  0  0  0  0  0  0
   22.1137  -10.5955  -18.9301 O   0  0  0  0  0  0  0  0  0  0  0  0
   23.5691   -8.9014  -18.4310 N   0  0  0  0  0  0  0  0  0  0  0  0
   22.4652   -8.1131  -17.8914 C   0  0  1  0  0  0  0  0  0  0  0  0
   21.7301   -8.8840  -16.8245 C   0  0  0  0  0  0  0  0  0  0  0  0
   20.7080   -8.0564  -16.1840 C   0  0  0  0  0  0  0  0  0  0  0  0
   20.9332   -6.8737  -15.5048 C   0  0  0  0  0  0  0  0  0  0  0  0
   19.7431   -6.4485  -15.0642 N   0  0  0  0  0  0  0  0  0  0  0  0
   18.7935   -7.3119  -15.4385 C   0  0  0  0  0  0  0  0  0  0  0  0
   19.3664   -8.3105  -16.1299 N   0  0  0  0  0  0  0  0  0  0  0  0
   23.0237   -6.8284  -17.4385 C   0  0  0  0  0  0  0  0  0  0  0  0
   22.2596   -5.9039  -17.0865 O   0  0  0  0  0  0  0  0  0  0  0  0
   24.3856   -6.6087  -17.3881 O   0  0  0  0  0  0  0  0  0  0  0  0
  2 12  2  0
  2  1  1  0
  3  2  1  0
  4  5  1  0
  4  3  2  0
  5 11  2  0
  6  5  1  0
  6  7  1  0
  7  8  1  1
  9  7  1  0
  9 15  1  0
 10  9  2  0
 11 12  1  0
 14 13  1  6
 14 15  1  0
 14 16  1  0
 16 17  2  0
 16 18  1  0
 18 19  1  0
 19 26  1  0
 19 20  1  1
 21 20  1  0
 22 21  2  0
 23 24  1  0
 23 22  1  0
 24 25  2  0
 25 21  1  0
 26 27  2  0
 26 28  1  0
M  END
$$$$
