YAH.pdb
     RDKit          3D

 28 29  0  0  1  0  0  0  0  0999 V2000
   26.5278  -24.5960  -23.5895 O   0  0  0  0  0  0  0  0  0  0  0  0
   26.7907  -24.2121  -22.2812 C   0  0  0  0  0  0  0  0  0  0  0  0
   27.8168  -24.7945  -21.5628 C   0  0  0  0  0  0  0  0  0  0  0  0
   28.0620  -24.4083  -20.2832 C   0  0  0  0  0  0  0  0  0  0  0  0
   27.3049  -23.4303  -19.6570 C   0  0  0  0  0  0  0  0  0  0  0  0
   27.5924  -23.0241  -18.2552 C   0  0  0  0  0  0  0  0  0  0  0  0
   28.5307  -21.8403  -18.2858 C   0  0  2  0  0  0  0  0  0  0  0  0
   29.7576  -22.2112  -17.5743 N   0  0  0  0  0  0  0  0  0  0  0  0
   27.9807  -20.6613  -17.6049 C   0  0  0  0  0  0  0  0  0  0  0  0
   28.6765  -19.6228  -17.3375 O   0  0  0  0  0  0  0  0  0  0  0  0
   26.2672  -22.8278  -20.3551 C   0  0  0  0  0  0  0  0  0  0  0  0
   26.0368  -23.2376  -21.6565 C   0  0  0  0  0  0  0  0  0  0  0  0
   26.0346  -18.2632  -17.7429 C   0  0  0  0  0  0  0  0  0  0  0  0
   26.0263  -19.3650  -16.6890 C   0  0  2  0  0  0  0  0  0  0  0  0
   26.6105  -20.5791  -17.1824 N   0  0  0  0  0  0  0  0  0  0  0  0
   24.5996  -19.6291  -16.3743 C   0  0  0  0  0  0  0  0  0  0  0  0
   23.8751  -20.1403  -17.2609 O   0  0  0  0  0  0  0  0  0  0  0  0
   24.0160  -19.3329  -15.1241 N   0  0  0  0  0  0  0  0  0  0  0  0
   22.6206  -19.6953  -14.8955 C   0  0  1  0  0  0  0  0  0  0  0  0
   22.4505  -20.3377  -13.5422 C   0  0  0  0  0  0  0  0  0  0  0  0
   23.3448  -21.4847  -13.3854 C   0  0  0  0  0  0  0  0  0  0  0  0
   24.1368  -22.0344  -14.3760 C   0  0  0  0  0  0  0  0  0  0  0  0
   24.7826  -23.0690  -13.8247 N   0  0  0  0  0  0  0  0  0  0  0  0
   24.4274  -23.1847  -12.5411 C   0  0  0  0  0  0  0  0  0  0  0  0
   23.5419  -22.2182  -12.2495 N   0  0  0  0  0  0  0  0  0  0  0  0
   21.8129  -18.4813  -15.0989 C   0  0  0  0  0  0  0  0  0  0  0  0
   20.5657  -18.5438  -15.0446 O   0  0  0  0  0  0  0  0  0  0  0  0
   22.3979  -17.2564  -15.3503 O   0  0  0  0  0  0  0  0  0  0  0  0
  2 12  2  0
  2  1  1  0
  3  2  1  0
  4  5  1  0
  4  3  2  0
  5 11  2  0
  6  5  1  0
  6  7  1  0
  7  8  1  1
  9  7  1  0
  9 15  1  0
 10  9  2  0
 11 12  1  0
 14 13  1  6
 14 15  1  0
 14 16  1  0
 16 17  2  0
 16 18  1  0
 18 19  1  0
 19 26  1  0
 19 20  1  1
 21 20  1  0
 22 21  2  0
 23 24  1  0
 23 22  1  0
 24 25  2  0
 25 21  1  0
 26 27  2  0
 26 28  1  0
M  END
$$$$
