YAH.pdb
     RDKit          3D

 28 29  0  0  1  0  0  0  0  0999 V2000
   27.6442  -11.3098  -15.1206 O   0  0  0  0  0  0  0  0  0  0  0  0
   26.7057  -10.3199  -15.3803 C   0  0  0  0  0  0  0  0  0  0  0  0
   27.0585   -9.1655  -16.0519 C   0  0  0  0  0  0  0  0  0  0  0  0
   26.1289   -8.2056  -16.2987 C   0  0  0  0  0  0  0  0  0  0  0  0
   24.8104   -8.3435  -15.8933 C   0  0  0  0  0  0  0  0  0  0  0  0
   23.8105   -7.2788  -16.1750 C   0  0  0  0  0  0  0  0  0  0  0  0
   22.7477   -7.8524  -17.0829 C   0  0  2  0  0  0  0  0  0  0  0  0
   23.3822   -8.2247  -18.3509 N   0  0  0  0  0  0  0  0  0  0  0  0
   21.6896   -6.8854  -17.4013 C   0  0  0  0  0  0  0  0  0  0  0  0
   21.8397   -5.9423  -18.2511 O   0  0  0  0  0  0  0  0  0  0  0  0
   24.4276   -9.4934  -15.2164 C   0  0  0  0  0  0  0  0  0  0  0  0
   25.3916  -10.4565  -14.9767 C   0  0  0  0  0  0  0  0  0  0  0  0
   17.9765   -6.5395  -16.6551 C   0  0  0  0  0  0  0  0  0  0  0  0
   19.3231   -6.0547  -17.1807 C   0  0  2  0  0  0  0  0  0  0  0  0
   20.3947   -6.9211  -16.7810 N   0  0  0  0  0  0  0  0  0  0  0  0
   19.5516   -4.7201  -16.5717 C   0  0  0  0  0  0  0  0  0  0  0  0
   20.1772   -4.6556  -15.4870 O   0  0  0  0  0  0  0  0  0  0  0  0
   19.0989   -3.5169  -17.1537 N   0  0  0  0  0  0  0  0  0  0  0  0
   19.4536   -2.2512  -16.5189 C   0  0  1  0  0  0  0  0  0  0  0  0
   19.6302   -1.1669  -17.5515 C   0  0  0  0  0  0  0  0  0  0  0  0
   20.8499   -1.3741  -18.3321 C   0  0  0  0  0  0  0  0  0  0  0  0
   21.7934   -2.3602  -18.1125 C   0  0  0  0  0  0  0  0  0  0  0  0
   22.7512   -2.1901  -19.0317 N   0  0  0  0  0  0  0  0  0  0  0  0
   22.4447   -1.1461  -19.8085 C   0  0  0  0  0  0  0  0  0  0  0  0
   21.2768   -0.6285  -19.3947 N   0  0  0  0  0  0  0  0  0  0  0  0
   18.4247   -1.9649  -15.5055 C   0  0  0  0  0  0  0  0  0  0  0  0
   17.3386   -2.5831  -15.5253 O   0  0  0  0  0  0  0  0  0  0  0  0
   18.6246   -1.0216  -14.5175 O   0  0  0  0  0  0  0  0  0  0  0  0
  2 12  2  0
  2  1  1  0
  3  2  1  0
  4  5  1  0
  4  3  2  0
  5 11  2  0
  6  5  1  0
  6  7  1  0
  7  8  1  6
  9  7  1  0
  9 15  1  0
 10  9  2  0
 11 12  1  0
 14 13  1  1
 14 15  1  0
 14 16  1  0
 16 17  2  0
 16 18  1  0
 18 19  1  0
 19 26  1  0
 19 20  1  6
 21 20  1  0
 22 21  2  0
 23 24  1  0
 23 22  1  0
 24 25  2  0
 25 21  1  0
 26 27  2  0
 26 28  1  0
M  END
$$$$
