YAH.pdb
     RDKit          3D

 28 29  0  0  1  0  0  0  0  0999 V2000
   26.3768   -4.3768  -26.4889 O   0  0  0  0  0  0  0  0  0  0  0  0
   26.9692   -4.9020  -25.3481 C   0  0  0  0  0  0  0  0  0  0  0  0
   28.2215   -4.4840  -24.9417 C   0  0  0  0  0  0  0  0  0  0  0  0
   28.7885   -5.0071  -23.8230 C   0  0  0  0  0  0  0  0  0  0  0  0
   28.1438   -5.9657  -23.0566 C   0  0  0  0  0  0  0  0  0  0  0  0
   28.7847   -6.5237  -21.8357 C   0  0  0  0  0  0  0  0  0  0  0  0
   27.9972   -6.0622  -20.6318 C   0  0  2  0  0  0  0  0  0  0  0  0
   28.2388   -4.6277  -20.4501 N   0  0  0  0  0  0  0  0  0  0  0  0
   28.4141   -6.7272  -19.3907 C   0  0  0  0  0  0  0  0  0  0  0  0
   29.2667   -6.2234  -18.5824 O   0  0  0  0  0  0  0  0  0  0  0  0
   26.8842   -6.4044  -23.4413 C   0  0  0  0  0  0  0  0  0  0  0  0
   26.3275   -5.8572  -24.5838 C   0  0  0  0  0  0  0  0  0  0  0  0
   27.3654   -9.7932  -17.3945 C   0  0  0  0  0  0  0  0  0  0  0  0
   28.3004   -8.6478  -17.7669 C   0  0  2  0  0  0  0  0  0  0  0  0
   27.8956   -8.0029  -18.9830 N   0  0  0  0  0  0  0  0  0  0  0  0
   29.6371   -9.2559  -17.9849 C   0  0  0  0  0  0  0  0  0  0  0  0
   29.9773   -9.5515  -19.1551 O   0  0  0  0  0  0  0  0  0  0  0  0
   30.5469   -9.5189  -16.9388 N   0  0  0  0  0  0  0  0  0  0  0  0
   31.8228  -10.1521  -17.2584 C   0  0  1  0  0  0  0  0  0  0  0  0
   31.6362  -11.2418  -18.2835 C   0  0  0  0  0  0  0  0  0  0  0  0
   32.9088  -11.8861  -18.6076 C   0  0  0  0  0  0  0  0  0  0  0  0
   34.0468  -11.8700  -17.8231 C   0  0  0  0  0  0  0  0  0  0  0  0
   34.9831  -12.5592  -18.4861 N   0  0  0  0  0  0  0  0  0  0  0  0
   34.4780  -13.0003  -19.6427 C   0  0  0  0  0  0  0  0  0  0  0  0
   33.2008  -12.5967  -19.7377 N   0  0  0  0  0  0  0  0  0  0  0  0
   32.7522   -9.0855  -17.6661 C   0  0  0  0  0  0  0  0  0  0  0  0
   33.5519   -8.6021  -16.8360 O   0  0  0  0  0  0  0  0  0  0  0  0
   32.7701   -8.5953  -18.9565 O   0  0  0  0  0  0  0  0  0  0  0  0
  2 12  2  0
  2  1  1  0
  3  2  1  0
  4  5  1  0
  4  3  2  0
  5 11  2  0
  6  5  1  0
  6  7  1  0
  7  8  1  1
  9  7  1  0
  9 15  1  0
 10  9  2  0
 11 12  1  0
 14 13  1  6
 14 15  1  0
 14 16  1  0
 16 17  2  0
 16 18  1  0
 18 19  1  0
 19 26  1  0
 19 20  1  6
 21 20  1  0
 22 21  2  0
 23 24  1  0
 23 22  1  0
 24 25  2  0
 25 21  1  0
 26 27  2  0
 26 28  1  0
M  END
$$$$
