YAH.pdb
     RDKit          3D

 28 29  0  0  1  0  0  0  0  0999 V2000
   15.1968  -17.0498  -16.9664 O   0  0  0  0  0  0  0  0  0  0  0  0
   15.6439  -15.8434  -16.4442 C   0  0  0  0  0  0  0  0  0  0  0  0
   14.9076  -14.6852  -16.6012 C   0  0  0  0  0  0  0  0  0  0  0  0
   15.3581  -13.5119  -16.0845 C   0  0  0  0  0  0  0  0  0  0  0  0
   16.5554  -13.4309  -15.3902 C   0  0  0  0  0  0  0  0  0  0  0  0
   17.0280  -12.1349  -14.8336 C   0  0  0  0  0  0  0  0  0  0  0  0
   17.7476  -11.3814  -15.9277 C   0  0  2  0  0  0  0  0  0  0  0  0
   19.0751  -11.9796  -16.0978 N   0  0  0  0  0  0  0  0  0  0  0  0
   17.9550   -9.9649  -15.6008 C   0  0  0  0  0  0  0  0  0  0  0  0
   18.8879   -9.5572  -14.8277 O   0  0  0  0  0  0  0  0  0  0  0  0
   17.3161  -14.5791  -15.2173 C   0  0  0  0  0  0  0  0  0  0  0  0
   16.8368  -15.7617  -15.7523 C   0  0  0  0  0  0  0  0  0  0  0  0
   16.5581   -6.6016  -16.6935 C   0  0  0  0  0  0  0  0  0  0  0  0
   17.2649   -7.5470  -15.7283 C   0  0  2  0  0  0  0  0  0  0  0  0
   17.1229   -8.9185  -16.1253 N   0  0  0  0  0  0  0  0  0  0  0  0
   16.6000   -7.3720  -14.4124 C   0  0  0  0  0  0  0  0  0  0  0  0
   15.8494   -8.2852  -13.9942 O   0  0  0  0  0  0  0  0  0  0  0  0
   16.7705   -6.2264  -13.6063 N   0  0  0  0  0  0  0  0  0  0  0  0
   15.9979   -6.1126  -12.3730 C   0  0  1  0  0  0  0  0  0  0  0  0
   16.2094   -7.3212  -11.4969 C   0  0  0  0  0  0  0  0  0  0  0  0
   15.4809   -7.1932  -10.2349 C   0  0  0  0  0  0  0  0  0  0  0  0
   14.2635   -6.5611  -10.0639 C   0  0  0  0  0  0  0  0  0  0  0  0
   13.9581   -6.6556   -8.7643 N   0  0  0  0  0  0  0  0  0  0  0  0
   14.9285   -7.3158   -8.1242 C   0  0  0  0  0  0  0  0  0  0  0  0
   15.8769   -7.6563   -9.0118 N   0  0  0  0  0  0  0  0  0  0  0  0
   16.3627   -4.8328  -11.7431 C   0  0  0  0  0  0  0  0  0  0  0  0
   17.3093   -4.1576  -12.2018 O   0  0  0  0  0  0  0  0  0  0  0  0
   15.6813   -4.3461  -10.6455 O   0  0  0  0  0  0  0  0  0  0  0  0
  2 12  2  0
  2  1  1  0
  3  2  1  0
  4  5  1  0
  4  3  2  0
  5 11  2  0
  6  5  1  0
  6  7  1  0
  7  8  1  1
  9  7  1  0
  9 15  1  0
 10  9  2  0
 11 12  1  0
 14 13  1  6
 14 15  1  0
 14 16  1  0
 16 17  2  0
 16 18  1  0
 18 19  1  0
 19 26  1  0
 19 20  1  1
 21 20  1  0
 22 21  2  0
 23 24  1  0
 23 22  1  0
 24 25  2  0
 25 21  1  0
 26 27  2  0
 26 28  1  0
M  END
$$$$
