YAH.pdb
     RDKit          3D

 28 29  0  0  1  0  0  0  0  0999 V2000
   28.8285  -19.4265   -6.8345 O   0  0  0  0  0  0  0  0  0  0  0  0
   28.0762  -19.7384   -7.9592 C   0  0  0  0  0  0  0  0  0  0  0  0
   27.1245  -18.8616   -8.4425 C   0  0  0  0  0  0  0  0  0  0  0  0
   26.3960  -19.1807   -9.5443 C   0  0  0  0  0  0  0  0  0  0  0  0
   26.5753  -20.3796  -10.2171 C   0  0  0  0  0  0  0  0  0  0  0  0
   25.7657  -20.7069  -11.4213 C   0  0  0  0  0  0  0  0  0  0  0  0
   24.3548  -20.2166  -11.1938 C   0  0  2  0  0  0  0  0  0  0  0  0
   23.7183  -21.0968  -10.2093 N   0  0  0  0  0  0  0  0  0  0  0  0
   23.5322  -20.2679  -12.4090 C   0  0  0  0  0  0  0  0  0  0  0  0
   22.6870  -21.1987  -12.6400 O   0  0  0  0  0  0  0  0  0  0  0  0
   27.5249  -21.2799   -9.7537 C   0  0  0  0  0  0  0  0  0  0  0  0
   28.2542  -20.9327   -8.6302 C   0  0  0  0  0  0  0  0  0  0  0  0
   22.8637  -17.9468  -15.3631 C   0  0  0  0  0  0  0  0  0  0  0  0
   22.6673  -19.2016  -14.5194 C   0  0  2  0  0  0  0  0  0  0  0  0
   23.6110  -19.2721  -13.4409 N   0  0  0  0  0  0  0  0  0  0  0  0
   22.9076  -20.3536  -15.4246 C   0  0  0  0  0  0  0  0  0  0  0  0
   24.0872  -20.6177  -15.7579 O   0  0  0  0  0  0  0  0  0  0  0  0
   21.8727  -21.1686  -15.9304 N   0  0  0  0  0  0  0  0  0  0  0  0
   22.2060  -22.2102  -16.8973 C   0  0  1  0  0  0  0  0  0  0  0  0
   21.9388  -23.5779  -16.3221 C   0  0  0  0  0  0  0  0  0  0  0  0
   22.9549  -23.9443  -15.3357 C   0  0  0  0  0  0  0  0  0  0  0  0
   22.7903  -23.9363  -13.9633 C   0  0  0  0  0  0  0  0  0  0  0  0
   23.9571  -24.3203  -13.4319 N   0  0  0  0  0  0  0  0  0  0  0  0
   24.8346  -24.5651  -14.4103 C   0  0  0  0  0  0  0  0  0  0  0  0
   24.2377  -24.3396  -15.5918 N   0  0  0  0  0  0  0  0  0  0  0  0
   21.4644  -21.9144  -18.1342 C   0  0  0  0  0  0  0  0  0  0  0  0
   21.6115  -22.6412  -19.1404 O   0  0  0  0  0  0  0  0  0  0  0  0
   20.5970  -20.8438  -18.2196 O   0  0  0  0  0  0  0  0  0  0  0  0
  2 12  2  0
  2  1  1  0
  3  2  1  0
  4  5  1  0
  4  3  2  0
  5 11  2  0
  6  5  1  0
  6  7  1  0
  7  8  1  1
  9  7  1  0
  9 15  1  0
 10  9  2  0
 11 12  1  0
 14 13  1  6
 14 15  1  0
 14 16  1  0
 16 17  2  0
 16 18  1  0
 18 19  1  0
 19 26  1  0
 19 20  1  1
 21 20  1  0
 22 21  2  0
 23 24  1  0
 23 22  1  0
 24 25  2  0
 25 21  1  0
 26 27  2  0
 26 28  1  0
M  END
$$$$
