YAH.pdb
     RDKit          3D

 28 29  0  0  1  0  0  0  0  0999 V2000
   20.7163  -19.3002  -12.5206 O   0  0  0  0  0  0  0  0  0  0  0  0
   20.4695  -18.0567  -13.0872 C   0  0  0  0  0  0  0  0  0  0  0  0
   20.8792  -17.7691  -14.3746 C   0  0  0  0  0  0  0  0  0  0  0  0
   20.6306  -16.5476  -14.9157 C   0  0  0  0  0  0  0  0  0  0  0  0
   19.9665  -15.5567  -14.2092 C   0  0  0  0  0  0  0  0  0  0  0  0
   19.7057  -14.2270  -14.8227 C   0  0  0  0  0  0  0  0  0  0  0  0
   18.2808  -14.2058  -15.3246 C   0  0  2  0  0  0  0  0  0  0  0  0
   18.1828  -15.1265  -16.4612 N   0  0  0  0  0  0  0  0  0  0  0  0
   17.8682  -12.8823  -15.8088 C   0  0  0  0  0  0  0  0  0  0  0  0
   18.2978  -12.3743  -16.9003 O   0  0  0  0  0  0  0  0  0  0  0  0
   19.5433  -15.8180  -12.9132 C   0  0  0  0  0  0  0  0  0  0  0  0
   19.8079  -17.0688  -12.3839 C   0  0  0  0  0  0  0  0  0  0  0  0
   15.2072  -10.3216  -14.9922 C   0  0  0  0  0  0  0  0  0  0  0  0
   16.5574  -10.7474  -15.5582 C   0  0  2  0  0  0  0  0  0  0  0  0
   16.9447  -12.0481  -15.0921 N   0  0  0  0  0  0  0  0  0  0  0  0
   17.5478   -9.7602  -15.0597 C   0  0  0  0  0  0  0  0  0  0  0  0
   18.6118  -10.1842  -14.5494 O   0  0  0  0  0  0  0  0  0  0  0  0
   17.3517   -8.3646  -15.1312 N   0  0  0  0  0  0  0  0  0  0  0  0
   18.4430   -7.4795  -14.7355 C   0  0  1  0  0  0  0  0  0  0  0  0
   19.6857   -7.7725  -15.5372 C   0  0  0  0  0  0  0  0  0  0  0  0
   20.7606   -6.8370  -15.2068 C   0  0  0  0  0  0  0  0  0  0  0  0
   20.7270   -5.8880  -14.2023 C   0  0  0  0  0  0  0  0  0  0  0  0
   21.8954   -5.2367  -14.2468 N   0  0  0  0  0  0  0  0  0  0  0  0
   22.6491   -5.7379  -15.2306 C   0  0  0  0  0  0  0  0  0  0  0  0
   21.9689   -6.7252  -15.8352 N   0  0  0  0  0  0  0  0  0  0  0  0
   17.9524   -6.0966  -14.8567 C   0  0  0  0  0  0  0  0  0  0  0  0
   18.1136   -5.2912  -13.9145 O   0  0  0  0  0  0  0  0  0  0  0  0
   17.3109   -5.6534  -15.9959 O   0  0  0  0  0  0  0  0  0  0  0  0
  2 12  2  0
  2  1  1  0
  3  2  1  0
  4  5  1  0
  4  3  2  0
  5 11  2  0
  6  5  1  0
  6  7  1  0
  7  8  1  6
  9  7  1  0
  9 15  1  0
 10  9  2  0
 11 12  1  0
 14 13  1  1
 14 15  1  0
 14 16  1  0
 16 17  2  0
 16 18  1  0
 18 19  1  0
 19 26  1  0
 19 20  1  6
 21 20  1  0
 22 21  2  0
 23 24  1  0
 23 22  1  0
 24 25  2  0
 25 21  1  0
 26 27  2  0
 26 28  1  0
M  END
$$$$
