YAH.pdb
     RDKit          3D

 28 29  0  0  1  0  0  0  0  0999 V2000
   28.4874  -13.1492  -17.1406 O   0  0  0  0  0  0  0  0  0  0  0  0
   27.8414  -14.3037  -16.7186 C   0  0  0  0  0  0  0  0  0  0  0  0
   27.2189  -15.1405  -17.6243 C   0  0  0  0  0  0  0  0  0  0  0  0
   26.5907  -16.2669  -17.1962 C   0  0  0  0  0  0  0  0  0  0  0  0
   26.5498  -16.6163  -15.8552 C   0  0  0  0  0  0  0  0  0  0  0  0
   25.8559  -17.8546  -15.4104 C   0  0  0  0  0  0  0  0  0  0  0  0
   26.9016  -18.8625  -14.9940 C   0  0  2  0  0  0  0  0  0  0  0  0
   27.5528  -19.3721  -16.2046 N   0  0  0  0  0  0  0  0  0  0  0  0
   26.3289  -20.0205  -14.2961 C   0  0  0  0  0  0  0  0  0  0  0  0
   25.7557  -20.9877  -14.9045 O   0  0  0  0  0  0  0  0  0  0  0  0
   27.1671  -15.7938  -14.9227 C   0  0  0  0  0  0  0  0  0  0  0  0
   27.8001  -14.6526  -15.3826 C   0  0  0  0  0  0  0  0  0  0  0  0
   25.9481  -21.2222  -10.6975 C   0  0  0  0  0  0  0  0  0  0  0  0
   25.5405  -21.0980  -12.1615 C   0  0  2  0  0  0  0  0  0  0  0  0
   26.3666  -20.1608  -12.8673 N   0  0  0  0  0  0  0  0  0  0  0  0
   24.1475  -20.5846  -12.1637 C   0  0  0  0  0  0  0  0  0  0  0  0
   23.9595  -19.3610  -11.9646 O   0  0  0  0  0  0  0  0  0  0  0  0
   23.0209  -21.4066  -12.3790 N   0  0  0  0  0  0  0  0  0  0  0  0
   21.7093  -20.7808  -12.5168 C   0  0  1  0  0  0  0  0  0  0  0  0
   21.7239  -19.7458  -13.6130 C   0  0  0  0  0  0  0  0  0  0  0  0
   20.3902  -19.1846  -13.8278 C   0  0  0  0  0  0  0  0  0  0  0  0
   19.5441  -19.4882  -14.8779 C   0  0  0  0  0  0  0  0  0  0  0  0
   18.4393  -18.7519  -14.7092 N   0  0  0  0  0  0  0  0  0  0  0  0
   18.5623  -18.0080  -13.6053 C   0  0  0  0  0  0  0  0  0  0  0  0
   19.7573  -18.2592  -13.0466 N   0  0  0  0  0  0  0  0  0  0  0  0
   20.7265  -21.8596  -12.7113 C   0  0  0  0  0  0  0  0  0  0  0  0
   19.6070  -21.7925  -12.1594 O   0  0  0  0  0  0  0  0  0  0  0  0
   21.0054  -22.9599  -13.4971 O   0  0  0  0  0  0  0  0  0  0  0  0
  2 12  2  0
  2  1  1  0
  3  2  1  0
  4  5  1  0
  4  3  2  0
  5 11  2  0
  6  5  1  0
  6  7  1  0
  7  8  1  6
  9  7  1  0
  9 15  1  0
 10  9  2  0
 11 12  1  0
 14 13  1  1
 14 15  1  0
 14 16  1  0
 16 17  2  0
 16 18  1  0
 18 19  1  0
 19 26  1  0
 19 20  1  6
 21 20  1  0
 22 21  2  0
 23 24  1  0
 23 22  1  0
 24 25  2  0
 25 21  1  0
 26 27  2  0
 26 28  1  0
M  END
$$$$
