YAH.pdb
     RDKit          3D

 28 29  0  0  1  0  0  0  0  0999 V2000
   16.4292  -17.2837  -19.4919 O   0  0  0  0  0  0  0  0  0  0  0  0
   17.0580  -16.1231  -19.0610 C   0  0  0  0  0  0  0  0  0  0  0  0
   17.0165  -14.9694  -19.8196 C   0  0  0  0  0  0  0  0  0  0  0  0
   17.6368  -13.8412  -19.3848 C   0  0  0  0  0  0  0  0  0  0  0  0
   18.3251  -13.8028  -18.1820 C   0  0  0  0  0  0  0  0  0  0  0  0
   18.9964  -12.5558  -17.7268 C   0  0  0  0  0  0  0  0  0  0  0  0
   20.1270  -12.2487  -18.6808 C   0  0  2  0  0  0  0  0  0  0  0  0
   21.1737  -13.2570  -18.4886 N   0  0  0  0  0  0  0  0  0  0  0  0
   20.7426  -10.9394  -18.4301 C   0  0  0  0  0  0  0  0  0  0  0  0
   21.5181  -10.7118  -17.4397 O   0  0  0  0  0  0  0  0  0  0  0  0
   18.3833  -14.9476  -17.3990 C   0  0  0  0  0  0  0  0  0  0  0  0
   17.7441  -16.0839  -17.8626 C   0  0  0  0  0  0  0  0  0  0  0  0
   21.0473   -7.6200  -20.2637 C   0  0  0  0  0  0  0  0  0  0  0  0
   21.1387   -8.5299  -19.0437 C   0  0  2  0  0  0  0  0  0  0  0  0
   20.5222   -9.8036  -19.2810 N   0  0  0  0  0  0  0  0  0  0  0  0
   20.3922   -7.8463  -17.9577 C   0  0  0  0  0  0  0  0  0  0  0  0
   19.1771   -8.1154  -17.8046 O   0  0  0  0  0  0  0  0  0  0  0  0
   20.9826   -6.9064  -17.0865 N   0  0  0  0  0  0  0  0  0  0  0  0
   20.1905   -6.3781  -15.9799 C   0  0  1  0  0  0  0  0  0  0  0  0
   20.9996   -6.3536  -14.7080 C   0  0  0  0  0  0  0  0  0  0  0  0
   21.2912   -7.7088  -14.2410 C   0  0  0  0  0  0  0  0  0  0  0  0
   20.9138   -8.8802  -14.8703 C   0  0  0  0  0  0  0  0  0  0  0  0
   21.3625   -9.8880  -14.1124 N   0  0  0  0  0  0  0  0  0  0  0  0
   21.9990   -9.3951  -13.0450 C   0  0  0  0  0  0  0  0  0  0  0  0
   21.9668   -8.0540  -13.1044 N   0  0  0  0  0  0  0  0  0  0  0  0
   19.6737   -5.0644  -16.3981 C   0  0  0  0  0  0  0  0  0  0  0  0
   19.9834   -4.5974  -17.5154 O   0  0  0  0  0  0  0  0  0  0  0  0
   18.8438   -4.3204  -15.5835 O   0  0  0  0  0  0  0  0  0  0  0  0
  2 12  2  0
  2  1  1  0
  3  2  1  0
  4  5  1  0
  4  3  2  0
  5 11  2  0
  6  5  1  0
  6  7  1  0
  7  8  1  1
  9  7  1  0
  9 15  1  0
 10  9  2  0
 11 12  1  0
 14 13  1  6
 14 15  1  0
 14 16  1  0
 16 17  2  0
 16 18  1  0
 18 19  1  0
 19 26  1  0
 19 20  1  1
 21 20  1  0
 22 21  2  0
 23 24  1  0
 23 22  1  0
 24 25  2  0
 25 21  1  0
 26 27  2  0
 26 28  1  0
M  END
$$$$
