YAH.pdb
     RDKit          3D

 28 29  0  0  1  0  0  0  0  0999 V2000
   10.9067  -12.2990    4.9050 O   0  0  0  0  0  0  0  0  0  0  0  0
   12.2495  -12.5723    5.1294 C   0  0  0  0  0  0  0  0  0  0  0  0
   12.9897  -11.8151    6.0164 C   0  0  0  0  0  0  0  0  0  0  0  0
   14.3030  -12.0946    6.2256 C   0  0  0  0  0  0  0  0  0  0  0  0
   14.9428  -13.1340    5.5681 C   0  0  0  0  0  0  0  0  0  0  0  0
   16.3816  -13.4209    5.8135 C   0  0  0  0  0  0  0  0  0  0  0  0
   17.1980  -12.2894    5.2340 C   0  0  2  0  0  0  0  0  0  0  0  0
   17.2925  -12.4896    3.7849 N   0  0  0  0  0  0  0  0  0  0  0  0
   18.5715  -12.2560    5.7521 C   0  0  0  0  0  0  0  0  0  0  0  0
   19.4686  -13.0976    5.4041 O   0  0  0  0  0  0  0  0  0  0  0  0
   14.2234  -13.9116    4.6710 C   0  0  0  0  0  0  0  0  0  0  0  0
   12.8878  -13.6078    4.4747 C   0  0  0  0  0  0  0  0  0  0  0  0
   20.5805  -10.0806    8.1651 C   0  0  0  0  0  0  0  0  0  0  0  0
   20.3543  -11.2586    7.2238 C   0  0  2  0  0  0  0  0  0  0  0  0
   19.0201  -11.2707    6.6959 N   0  0  0  0  0  0  0  0  0  0  0  0
   20.5437  -12.4850    8.0389 C   0  0  0  0  0  0  0  0  0  0  0  0
   19.5361  -13.0204    8.5589 O   0  0  0  0  0  0  0  0  0  0  0  0
   21.8041  -13.0802    8.2587 N   0  0  0  0  0  0  0  0  0  0  0  0
   21.8717  -14.3241    9.0197 C   0  0  1  0  0  0  0  0  0  0  0  0
   22.5413  -15.4077    8.2133 C   0  0  0  0  0  0  0  0  0  0  0  0
   22.6926  -16.6332    8.9975 C   0  0  0  0  0  0  0  0  0  0  0  0
   21.6903  -17.2698    9.7053 C   0  0  0  0  0  0  0  0  0  0  0  0
   22.2477  -18.3372   10.2895 N   0  0  0  0  0  0  0  0  0  0  0  0
   23.5464  -18.3904    9.9766 C   0  0  0  0  0  0  0  0  0  0  0  0
   23.8417  -17.3496    9.1811 N   0  0  0  0  0  0  0  0  0  0  0  0
   22.5336  -14.0204   10.2992 C   0  0  0  0  0  0  0  0  0  0  0  0
   23.2385  -12.9942   10.4104 O   0  0  0  0  0  0  0  0  0  0  0  0
   22.3975  -14.8448   11.3981 O   0  0  0  0  0  0  0  0  0  0  0  0
  2 12  2  0
  2  1  1  0
  3  2  1  0
  4  5  1  0
  4  3  2  0
  5 11  2  0
  6  5  1  0
  6  7  1  0
  7  8  1  6
  9  7  1  0
  9 15  1  0
 10  9  2  0
 11 12  1  0
 14 13  1  1
 14 15  1  0
 14 16  1  0
 16 17  2  0
 16 18  1  0
 18 19  1  0
 19 26  1  0
 19 20  1  6
 21 20  1  0
 22 21  2  0
 23 24  1  0
 23 22  1  0
 24 25  2  0
 25 21  1  0
 26 27  2  0
 26 28  1  0
M  END
$$$$
