YAH.pdb
     RDKit          3D

 28 29  0  0  1  0  0  0  0  0999 V2000
   21.4715  -14.4797  -22.8839 O   0  0  0  0  0  0  0  0  0  0  0  0
   21.4597  -13.5690  -21.8357 C   0  0  0  0  0  0  0  0  0  0  0  0
   21.6034  -13.9897  -20.5279 C   0  0  0  0  0  0  0  0  0  0  0  0
   21.5898  -13.0866  -19.5126 C   0  0  0  0  0  0  0  0  0  0  0  0
   21.4338  -11.7287  -19.7442 C   0  0  0  0  0  0  0  0  0  0  0  0
   21.4222  -10.7589  -18.6164 C   0  0  0  0  0  0  0  0  0  0  0  0
   22.6763   -9.9202  -18.6971 C   0  0  2  0  0  0  0  0  0  0  0  0
   23.8118  -10.7563  -18.2960 N   0  0  0  0  0  0  0  0  0  0  0  0
   22.6497   -8.7687  -17.7863 C   0  0  0  0  0  0  0  0  0  0  0  0
   23.1749   -8.7893  -16.6210 O   0  0  0  0  0  0  0  0  0  0  0  0
   21.2873  -11.2775  -21.0489 C   0  0  0  0  0  0  0  0  0  0  0  0
   21.3043  -12.2157  -22.0657 C   0  0  0  0  0  0  0  0  0  0  0  0
   23.1171   -5.3454  -17.8276 C   0  0  0  0  0  0  0  0  0  0  0  0
   22.1107   -6.3591  -17.2944 C   0  0  2  0  0  0  0  0  0  0  0  0
   22.0289   -7.5208  -18.1326 N   0  0  0  0  0  0  0  0  0  0  0  0
   20.7900   -5.6811  -17.3081 C   0  0  0  0  0  0  0  0  0  0  0  0
   20.1210   -5.6936  -18.3686 O   0  0  0  0  0  0  0  0  0  0  0  0
   20.2479   -5.0213  -16.1847 N   0  0  0  0  0  0  0  0  0  0  0  0
   18.9187   -4.4273  -16.2911 C   0  0  1  0  0  0  0  0  0  0  0  0
   17.9702   -5.0607  -15.3051 C   0  0  0  0  0  0  0  0  0  0  0  0
   17.5693   -6.3980  -15.7418 C   0  0  0  0  0  0  0  0  0  0  0  0
   17.9814   -7.0281  -16.9011 C   0  0  0  0  0  0  0  0  0  0  0  0
   17.3755   -8.2212  -16.9288 N   0  0  0  0  0  0  0  0  0  0  0  0
   16.6088   -8.3583  -15.8422 C   0  0  0  0  0  0  0  0  0  0  0  0
   16.7135   -7.2461  -15.0970 N   0  0  0  0  0  0  0  0  0  0  0  0
   19.0749   -2.9715  -16.1365 C   0  0  0  0  0  0  0  0  0  0  0  0
   18.0756   -2.2243  -16.2090 O   0  0  0  0  0  0  0  0  0  0  0  0
   20.3090   -2.3961  -15.9090 O   0  0  0  0  0  0  0  0  0  0  0  0
  2 12  2  0
  2  1  1  0
  3  2  1  0
  4  5  1  0
  4  3  2  0
  5 11  2  0
  6  5  1  0
  6  7  1  0
  7  8  1  1
  9  7  1  0
  9 15  1  0
 10  9  2  0
 11 12  1  0
 14 13  1  6
 14 15  1  0
 14 16  1  0
 16 17  2  0
 16 18  1  0
 18 19  1  0
 19 26  1  0
 19 20  1  1
 21 20  1  0
 22 21  2  0
 23 24  1  0
 23 22  1  0
 24 25  2  0
 25 21  1  0
 26 27  2  0
 26 28  1  0
M  END
$$$$
