YAH.pdb
     RDKit          3D

 28 29  0  0  1  0  0  0  0  0999 V2000
   18.4440  -23.1542  -10.5342 O   0  0  0  0  0  0  0  0  0  0  0  0
   18.2126  -23.6852   -9.2722 C   0  0  0  0  0  0  0  0  0  0  0  0
   19.2610  -24.0897   -8.4689 C   0  0  0  0  0  0  0  0  0  0  0  0
   19.0189  -24.6076   -7.2361 C   0  0  0  0  0  0  0  0  0  0  0  0
   17.7311  -24.7487   -6.7426 C   0  0  0  0  0  0  0  0  0  0  0  0
   17.4908  -25.3184   -5.3897 C   0  0  0  0  0  0  0  0  0  0  0  0
   17.8307  -26.7901   -5.4260 C   0  0  2  0  0  0  0  0  0  0  0  0
   16.8702  -27.4593   -6.3084 N   0  0  0  0  0  0  0  0  0  0  0  0
   17.7217  -27.4314   -4.1095 C   0  0  0  0  0  0  0  0  0  0  0  0
   16.6567  -28.0089   -3.7015 O   0  0  0  0  0  0  0  0  0  0  0  0
   16.6582  -24.3505   -7.5284 C   0  0  0  0  0  0  0  0  0  0  0  0
   16.9297  -23.8262   -8.7797 C   0  0  0  0  0  0  0  0  0  0  0  0
   19.9692  -27.9160   -1.0596 C   0  0  0  0  0  0  0  0  0  0  0  0
   18.6968  -28.0854   -1.8824 C   0  0  2  0  0  0  0  0  0  0  0  0
   18.8073  -27.4618   -3.1699 N   0  0  0  0  0  0  0  0  0  0  0  0
   17.6175  -27.4026   -1.1253 C   0  0  0  0  0  0  0  0  0  0  0  0
   16.4364  -27.5176   -1.5304 O   0  0  0  0  0  0  0  0  0  0  0  0
   17.8544  -26.6286    0.0305 N   0  0  0  0  0  0  0  0  0  0  0  0
   16.7164  -26.2147    0.8456 C   0  0  1  0  0  0  0  0  0  0  0  0
   15.8753  -27.4048    1.2320 C   0  0  0  0  0  0  0  0  0  0  0  0
   14.8057  -27.6337    0.2608 C   0  0  0  0  0  0  0  0  0  0  0  0
   14.4685  -26.7943   -0.7844 C   0  0  0  0  0  0  0  0  0  0  0  0
   13.4342  -27.3612   -1.4171 N   0  0  0  0  0  0  0  0  0  0  0  0
   13.1163  -28.5104   -0.8127 C   0  0  0  0  0  0  0  0  0  0  0  0
   13.9490  -28.6977    0.2240 N   0  0  0  0  0  0  0  0  0  0  0  0
   17.2481  -25.4492    1.9853 C   0  0  0  0  0  0  0  0  0  0  0  0
   16.7162  -24.3670    2.3143 O   0  0  0  0  0  0  0  0  0  0  0  0
   18.3316  -25.8960    2.7149 O   0  0  0  0  0  0  0  0  0  0  0  0
  2 12  2  0
  2  1  1  0
  3  2  1  0
  4  5  1  0
  4  3  2  0
  5 11  2  0
  6  5  1  0
  6  7  1  0
  7  8  1  6
  9  7  1  0
  9 15  1  0
 10  9  2  0
 11 12  1  0
 14 13  1  1
 14 15  1  0
 14 16  1  0
 16 17  2  0
 16 18  1  0
 18 19  1  0
 19 26  1  0
 19 20  1  1
 21 20  1  0
 22 21  2  0
 23 24  1  0
 23 22  1  0
 24 25  2  0
 25 21  1  0
 26 27  2  0
 26 28  1  0
M  END
$$$$
