YAH.pdb
     RDKit          3D

 28 29  0  0  1  0  0  0  0  0999 V2000
   25.3967  -33.2364  -13.4301 O   0  0  0  0  0  0  0  0  0  0  0  0
   26.4331  -33.0426  -14.3338 C   0  0  0  0  0  0  0  0  0  0  0  0
   26.2105  -33.1130  -15.6952 C   0  0  0  0  0  0  0  0  0  0  0  0
   27.2348  -32.9210  -16.5674 C   0  0  0  0  0  0  0  0  0  0  0  0
   28.5235  -32.6511  -16.1334 C   0  0  0  0  0  0  0  0  0  0  0  0
   29.6287  -32.4446  -17.1073 C   0  0  0  0  0  0  0  0  0  0  0  0
   29.9011  -30.9621  -17.2105 C   0  0  2  0  0  0  0  0  0  0  0  0
   28.7925  -30.3438  -17.9439 N   0  0  0  0  0  0  0  0  0  0  0  0
   31.1292  -30.6602  -17.9566 C   0  0  0  0  0  0  0  0  0  0  0  0
   31.1835  -30.6462  -19.2337 O   0  0  0  0  0  0  0  0  0  0  0  0
   28.7762  -32.5745  -14.7705 C   0  0  0  0  0  0  0  0  0  0  0  0
   27.7175  -32.7736  -13.9022 C   0  0  0  0  0  0  0  0  0  0  0  0
   34.4639  -29.0739  -17.2672 C   0  0  0  0  0  0  0  0  0  0  0  0
   33.5663  -30.0339  -18.0403 C   0  0  2  0  0  0  0  0  0  0  0  0
   32.3742  -30.3550  -17.3091 N   0  0  0  0  0  0  0  0  0  0  0  0
   34.3507  -31.2811  -18.2231 C   0  0  0  0  0  0  0  0  0  0  0  0
   34.1247  -32.2485  -17.4580 O   0  0  0  0  0  0  0  0  0  0  0  0
   35.3405  -31.4333  -19.2172 N   0  0  0  0  0  0  0  0  0  0  0  0
   36.0238  -32.7175  -19.3390 C   0  0  1  0  0  0  0  0  0  0  0  0
   35.0380  -33.8218  -19.6251 C   0  0  0  0  0  0  0  0  0  0  0  0
   34.6330  -33.8177  -21.0308 C   0  0  0  0  0  0  0  0  0  0  0  0
   34.5942  -32.7112  -21.8584 C   0  0  0  0  0  0  0  0  0  0  0  0
   34.1569  -33.1351  -23.0501 N   0  0  0  0  0  0  0  0  0  0  0  0
   33.9237  -34.4505  -22.9984 C   0  0  0  0  0  0  0  0  0  0  0  0
   34.2106  -34.8914  -21.7629 N   0  0  0  0  0  0  0  0  0  0  0  0
   37.0747  -32.5605  -20.3581 C   0  0  0  0  0  0  0  0  0  0  0  0
   37.8746  -33.4949  -20.5804 O   0  0  0  0  0  0  0  0  0  0  0  0
   37.2066  -31.3965  -21.0885 O   0  0  0  0  0  0  0  0  0  0  0  0
  2 12  2  0
  2  1  1  0
  3  2  1  0
  4  5  1  0
  4  3  2  0
  5 11  2  0
  6  5  1  0
  6  7  1  0
  7  8  1  6
  9  7  1  0
  9 15  1  0
 10  9  2  0
 11 12  1  0
 14 13  1  1
 14 15  1  0
 14 16  1  0
 16 17  2  0
 16 18  1  0
 18 19  1  0
 19 26  1  0
 19 20  1  6
 21 20  1  0
 22 21  2  0
 23 24  1  0
 23 22  1  0
 24 25  2  0
 25 21  1  0
 26 27  2  0
 26 28  1  0
M  END
$$$$
