PYV.pdb
     RDKit          3D

 27 28  0  0  1  0  0  0  0  0999 V2000
   27.6719  -20.3361  -17.6778 N   0  0  0  0  0  0  0  0  0  0  0  0
   28.8134  -20.0588  -18.5636 C   0  0  0  0  0  0  0  0  0  0  0  0
   28.9353  -18.5605  -18.6266 C   0  0  0  0  0  0  0  0  0  0  0  0
   27.8915  -18.0551  -17.6448 C   0  0  0  0  0  0  0  0  0  0  0  0
   27.7858  -19.2757  -16.7252 C   0  0  1  0  0  0  0  0  0  0  0  0
   26.6430  -19.1724  -15.8056 C   0  0  0  0  0  0  0  0  0  0  0  0
   26.6077  -18.1866  -15.0249 O   0  0  0  0  0  0  0  0  0  0  0  0
   22.1247  -15.8638  -19.3086 O   0  0  0  0  0  0  0  0  0  0  0  0
   22.3855  -16.9070  -18.4017 C   0  0  0  0  0  0  0  0  0  0  0  0
   23.0919  -18.0229  -18.7808 C   0  0  0  0  0  0  0  0  0  0  0  0
   23.3393  -19.0380  -17.8778 C   0  0  0  0  0  0  0  0  0  0  0  0
   22.8916  -18.9676  -16.5814 C   0  0  0  0  0  0  0  0  0  0  0  0
   23.1817  -20.0856  -15.6593 C   0  0  0  0  0  0  0  0  0  0  0  0
   24.4214  -19.8877  -14.8450 C   0  0  2  0  0  0  0  0  0  0  0  0
   25.5763  -20.0982  -15.7299 N   0  0  0  0  0  0  0  0  0  0  0  0
   24.5140  -20.7830  -13.6587 C   0  0  0  0  0  0  0  0  0  0  0  0
   24.6180  -22.0254  -13.8299 O   0  0  0  0  0  0  0  0  0  0  0  0
   22.1840  -17.8577  -16.1892 C   0  0  0  0  0  0  0  0  0  0  0  0
   21.9389  -16.8411  -17.1015 C   0  0  0  0  0  0  0  0  0  0  0  0
   27.0899  -20.8958  -11.0590 C   0  0  0  0  0  0  0  0  0  0  0  0
   25.7865  -20.8790  -10.3352 C   0  0  1  0  0  0  0  0  0  0  0  0
   25.5523  -19.5689   -9.6294 C   0  0  0  0  0  0  0  0  0  0  0  0
   24.6126  -21.2149  -11.2277 C   0  0  2  0  0  0  0  0  0  0  0  0
   24.4909  -20.3019  -12.3316 N   0  0  0  0  0  0  0  0  0  0  0  0
   23.3309  -21.1844  -10.4645 C   0  0  0  0  0  0  0  0  0  0  0  0
   22.4569  -20.2802  -10.6819 O   0  0  0  0  0  0  0  0  0  0  0  0
   23.0533  -22.1375   -9.4977 O   0  0  0  0  0  0  0  0  0  0  0  0
  1  2  1  0
  3  2  1  0
  4  5  1  0
  4  3  1  0
  5  1  1  0
  5  6  1  1
  7  6  2  0
  8  9  1  0
  9 19  2  0
 10 11  2  0
 10  9  1  0
 11 12  1  0
 12 13  1  0
 12 18  2  0
 14 13  1  6
 14 15  1  0
 15  6  1  0
 16 14  1  0
 17 16  2  0
 19 18  1  0
 21 23  1  0
 21 20  1  6
 22 21  1  0
 23 25  1  0
 23 24  1  6
 24 16  1  0
 25 27  1  0
 26 25  2  0
M  END
$$$$
