PYV.pdb
     RDKit          3D

 27 28  0  0  1  0  0  0  0  0999 V2000
   22.5679  -11.9266  -17.8191 N   0  0  0  0  0  0  0  0  0  0  0  0
   22.9390  -12.9621  -18.7961 C   0  0  0  0  0  0  0  0  0  0  0  0
   21.7107  -13.2043  -19.6307 C   0  0  0  0  0  0  0  0  0  0  0  0
   20.7103  -12.1719  -19.1386 C   0  0  0  0  0  0  0  0  0  0  0  0
   21.6743  -11.1167  -18.5874 C   0  0  1  0  0  0  0  0  0  0  0  0
   20.9729  -10.0898  -17.8025 C   0  0  0  0  0  0  0  0  0  0  0  0
   20.1618   -9.3430  -18.4083 O   0  0  0  0  0  0  0  0  0  0  0  0
   15.0364  -12.3664  -16.5571 O   0  0  0  0  0  0  0  0  0  0  0  0
   16.1609  -11.6702  -16.0780 C   0  0  0  0  0  0  0  0  0  0  0  0
   17.3492  -12.3151  -15.8334 C   0  0  0  0  0  0  0  0  0  0  0  0
   18.4437  -11.6164  -15.3631 C   0  0  0  0  0  0  0  0  0  0  0  0
   18.3824  -10.2651  -15.1260 C   0  0  0  0  0  0  0  0  0  0  0  0
   19.5835   -9.5693  -14.6186 C   0  0  0  0  0  0  0  0  0  0  0  0
   20.3642   -8.8634  -15.6823 C   0  0  2  0  0  0  0  0  0  0  0  0
   21.1396   -9.8752  -16.4143 N   0  0  0  0  0  0  0  0  0  0  0  0
   21.2687   -7.8006  -15.1627 C   0  0  0  0  0  0  0  0  0  0  0  0
   22.3099   -8.1285  -14.5365 O   0  0  0  0  0  0  0  0  0  0  0  0
   17.2005   -9.6081  -15.3662 C   0  0  0  0  0  0  0  0  0  0  0  0
   16.1043  -10.3160  -15.8388 C   0  0  0  0  0  0  0  0  0  0  0  0
   22.6877   -3.0671  -14.9038 C   0  0  0  0  0  0  0  0  0  0  0  0
   21.8353   -4.1234  -15.5209 C   0  0  1  0  0  0  0  0  0  0  0  0
   22.1470   -4.3146  -16.9823 C   0  0  0  0  0  0  0  0  0  0  0  0
   21.9107   -5.4441  -14.7880 C   0  0  2  0  0  0  0  0  0  0  0  0
   21.0140   -6.4233  -15.3393 N   0  0  0  0  0  0  0  0  0  0  0  0
   21.5752   -5.2775  -13.3437 C   0  0  0  0  0  0  0  0  0  0  0  0
   20.4225   -5.5917  -12.8953 O   0  0  0  0  0  0  0  0  0  0  0  0
   22.5064   -4.7766  -12.4480 O   0  0  0  0  0  0  0  0  0  0  0  0
  1  2  1  0
  3  2  1  0
  4  5  1  0
  4  3  1  0
  5  1  1  0
  5  6  1  1
  7  6  2  0
  8  9  1  0
  9 19  2  0
 10 11  2  0
 10  9  1  0
 11 12  1  0
 12 13  1  0
 12 18  2  0
 14 13  1  1
 14 15  1  0
 15  6  1  0
 16 14  1  0
 17 16  2  0
 19 18  1  0
 21 23  1  0
 21 20  1  1
 22 21  1  0
 23 25  1  0
 23 24  1  6
 24 16  1  0
 25 27  1  0
 26 25  2  0
M  END
$$$$
