PYV.pdb
     RDKit          3D

 27 28  0  0  1  0  0  0  0  0999 V2000
   28.9408  -21.1981  -18.7148 N   0  0  0  0  0  0  0  0  0  0  0  0
   28.9989  -20.7614  -20.1185 C   0  0  0  0  0  0  0  0  0  0  0  0
   27.5723  -20.6964  -20.5922 C   0  0  0  0  0  0  0  0  0  0  0  0
   26.7484  -20.9979  -19.3516 C   0  0  0  0  0  0  0  0  0  0  0  0
   27.7400  -20.5630  -18.2680 C   0  0  1  0  0  0  0  0  0  0  0  0
   27.3054  -20.9815  -16.9269 C   0  0  0  0  0  0  0  0  0  0  0  0
   27.7125  -22.0927  -16.5002 O   0  0  0  0  0  0  0  0  0  0  0  0
   23.7233  -21.0604   -8.7789 O   0  0  0  0  0  0  0  0  0  0  0  0
   24.2453  -20.7003  -10.0345 C   0  0  0  0  0  0  0  0  0  0  0  0
   23.4366  -20.2048  -11.0287 C   0  0  0  0  0  0  0  0  0  0  0  0
   23.9654  -19.8561  -12.2558 C   0  0  0  0  0  0  0  0  0  0  0  0
   25.3059  -19.9914  -12.5221 C   0  0  0  0  0  0  0  0  0  0  0  0
   25.8162  -19.6065  -13.8547 C   0  0  0  0  0  0  0  0  0  0  0  0
   25.9723  -20.7598  -14.7953 C   0  0  2  0  0  0  0  0  0  0  0  0
   26.4621  -20.2295  -16.0759 N   0  0  0  0  0  0  0  0  0  0  0  0
   24.7216  -21.5396  -15.0075 C   0  0  0  0  0  0  0  0  0  0  0  0
   23.8470  -21.1000  -15.7983 O   0  0  0  0  0  0  0  0  0  0  0  0
   26.1256  -20.4856  -11.5372 C   0  0  0  0  0  0  0  0  0  0  0  0
   25.5879  -20.8341  -10.3062 C   0  0  0  0  0  0  0  0  0  0  0  0
   22.2862  -25.8250  -14.7539 C   0  0  0  0  0  0  0  0  0  0  0  0
   23.5120  -25.0184  -14.4893 C   0  0  1  0  0  0  0  0  0  0  0  0
   24.6875  -25.5002  -15.2990 C   0  0  0  0  0  0  0  0  0  0  0  0
   23.2985  -23.5360  -14.6994 C   0  0  2  0  0  0  0  0  0  0  0  0
   24.4629  -22.7656  -14.3569 N   0  0  0  0  0  0  0  0  0  0  0  0
   22.1593  -23.0349  -13.8762 C   0  0  0  0  0  0  0  0  0  0  0  0
   22.3439  -22.6074  -12.6880 O   0  0  0  0  0  0  0  0  0  0  0  0
   20.8681  -23.0196  -14.3790 O   0  0  0  0  0  0  0  0  0  0  0  0
  1  2  1  0
  3  2  1  0
  4  5  1  0
  4  3  1  0
  5  1  1  0
  5  6  1  1
  7  6  2  0
  8  9  1  0
  9 19  2  0
 10 11  2  0
 10  9  1  0
 11 12  1  0
 12 13  1  0
 12 18  2  0
 14 13  1  1
 14 15  1  0
 15  6  1  0
 16 14  1  0
 17 16  2  0
 19 18  1  0
 21 23  1  0
 21 20  1  6
 22 21  1  0
 23 25  1  0
 23 24  1  1
 24 16  1  0
 25 27  1  0
 26 25  2  0
M  END
$$$$
