PYV.pdb
     RDKit          3D

 27 28  0  0  1  0  0  0  0  0999 V2000
   23.9629  -11.0786  -19.0748 N   0  0  0  0  0  0  0  0  0  0  0  0
   24.1787  -11.8564  -20.3048 C   0  0  0  0  0  0  0  0  0  0  0  0
   22.9277  -12.6672  -20.5080 C   0  0  0  0  0  0  0  0  0  0  0  0
   21.9916  -12.1995  -19.4061 C   0  0  0  0  0  0  0  0  0  0  0  0
   22.5626  -10.8004  -19.1553 C   0  0  1  0  0  0  0  0  0  0  0  0
   22.0033  -10.1895  -17.9402 C   0  0  0  0  0  0  0  0  0  0  0  0
   20.7670   -9.9577  -17.9178 O   0  0  0  0  0  0  0  0  0  0  0  0
   21.2315  -15.6437  -15.1300 O   0  0  0  0  0  0  0  0  0  0  0  0
   21.5592  -14.2870  -14.9542 C   0  0  0  0  0  0  0  0  0  0  0  0
   20.5887  -13.3145  -14.9364 C   0  0  0  0  0  0  0  0  0  0  0  0
   20.9276  -11.9871  -14.7627 C   0  0  0  0  0  0  0  0  0  0  0  0
   22.2347  -11.5970  -14.6032 C   0  0  0  0  0  0  0  0  0  0  0  0
   22.5397  -10.1618  -14.4254 C   0  0  0  0  0  0  0  0  0  0  0  0
   22.1113   -9.3085  -15.5775 C   0  0  2  0  0  0  0  0  0  0  0  0
   22.7494   -9.8408  -16.7902 N   0  0  0  0  0  0  0  0  0  0  0  0
   22.4409   -7.8653  -15.4156 C   0  0  0  0  0  0  0  0  0  0  0  0
   23.5893   -7.4560  -15.7276 O   0  0  0  0  0  0  0  0  0  0  0  0
   23.2148  -12.5590  -14.6190 C   0  0  0  0  0  0  0  0  0  0  0  0
   22.8676  -13.8912  -14.7939 C   0  0  0  0  0  0  0  0  0  0  0  0
   20.7199   -4.9098  -17.0068 C   0  0  0  0  0  0  0  0  0  0  0  0
   20.8338   -4.6504  -15.5430 C   0  0  1  0  0  0  0  0  0  0  0  0
   19.5043   -4.7730  -14.8452 C   0  0  0  0  0  0  0  0  0  0  0  0
   21.8666   -5.5252  -14.8683 C   0  0  2  0  0  0  0  0  0  0  0  0
   21.5170   -6.9186  -14.9224 N   0  0  0  0  0  0  0  0  0  0  0  0
   22.0343   -5.1504  -13.4338 C   0  0  0  0  0  0  0  0  0  0  0  0
   21.6354   -5.9240  -12.5005 O   0  0  0  0  0  0  0  0  0  0  0  0
   22.6283   -3.9511  -13.0744 O   0  0  0  0  0  0  0  0  0  0  0  0
  1  2  1  0
  3  2  1  0
  4  5  1  0
  4  3  1  0
  5  1  1  0
  5  6  1  1
  7  6  2  0
  8  9  1  0
  9 19  2  0
 10 11  2  0
 10  9  1  0
 11 12  1  0
 12 13  1  0
 12 18  2  0
 14 13  1  1
 14 15  1  0
 15  6  1  0
 16 14  1  0
 17 16  2  0
 19 18  1  0
 21 23  1  0
 21 20  1  6
 22 21  1  0
 23 25  1  0
 23 24  1  1
 24 16  1  0
 25 27  1  0
 26 25  2  0
M  END
$$$$
