PYV.pdb
     RDKit          3D

 27 28  0  0  1  0  0  0  0  0999 V2000
   28.0075  -21.5598  -13.4340 N   0  0  0  0  0  0  0  0  0  0  0  0
   28.4577  -21.5229  -14.8342 C   0  0  0  0  0  0  0  0  0  0  0  0
   27.8437  -20.2878  -15.4351 C   0  0  0  0  0  0  0  0  0  0  0  0
   27.1492  -19.6055  -14.2684 C   0  0  0  0  0  0  0  0  0  0  0  0
   27.9759  -20.1679  -13.1078 C   0  0  1  0  0  0  0  0  0  0  0  0
   27.3627  -19.8728  -11.8042 C   0  0  0  0  0  0  0  0  0  0  0  0
   27.1947  -18.6646  -11.4968 O   0  0  0  0  0  0  0  0  0  0  0  0
   21.2957  -19.8228  -13.8103 O   0  0  0  0  0  0  0  0  0  0  0  0
   22.1901  -20.1843  -12.7865 C   0  0  0  0  0  0  0  0  0  0  0  0
   23.1086  -21.1908  -12.9632 C   0  0  0  0  0  0  0  0  0  0  0  0
   23.9796  -21.5330  -11.9476 C   0  0  0  0  0  0  0  0  0  0  0  0
   23.9577  -20.8848  -10.7371 C   0  0  0  0  0  0  0  0  0  0  0  0
   24.9103  -21.2959   -9.6845 C   0  0  0  0  0  0  0  0  0  0  0  0
   26.1715  -20.4908   -9.6667 C   0  0  2  0  0  0  0  0  0  0  0  0
   26.9455  -20.8449  -10.8652 N   0  0  0  0  0  0  0  0  0  0  0  0
   26.9983  -20.6906   -8.4444 C   0  0  0  0  0  0  0  0  0  0  0  0
   27.6606  -21.7528   -8.3143 O   0  0  0  0  0  0  0  0  0  0  0  0
   23.0445  -19.8767  -10.5471 C   0  0  0  0  0  0  0  0  0  0  0  0
   22.1721  -19.5376  -11.5717 C   0  0  0  0  0  0  0  0  0  0  0  0
   29.0068  -19.0298   -4.2422 C   0  0  0  0  0  0  0  0  0  0  0  0
   28.3626  -18.7677   -5.5611 C   0  0  1  0  0  0  0  0  0  0  0  0
   29.2855  -18.0384   -6.5023 C   0  0  0  0  0  0  0  0  0  0  0  0
   27.8260  -20.0217   -6.2143 C   0  0  2  0  0  0  0  0  0  0  0  0
   27.0784  -19.7349   -7.4083 N   0  0  0  0  0  0  0  0  0  0  0  0
   26.9330  -20.7725   -5.2840 C   0  0  0  0  0  0  0  0  0  0  0  0
   25.6753  -20.8391   -5.4895 O   0  0  0  0  0  0  0  0  0  0  0  0
   27.4446  -21.4190   -4.1702 O   0  0  0  0  0  0  0  0  0  0  0  0
  1  2  1  0
  3  2  1  0
  4  5  1  0
  4  3  1  0
  5  1  1  0
  5  6  1  1
  7  6  2  0
  8  9  1  0
  9 19  2  0
 10 11  2  0
 10  9  1  0
 11 12  1  0
 12 13  1  0
 12 18  2  0
 14 13  1  1
 14 15  1  0
 15  6  1  0
 16 14  1  0
 17 16  2  0
 19 18  1  0
 21 23  1  0
 21 20  1  1
 22 21  1  0
 23 25  1  0
 23 24  1  6
 24 16  1  0
 25 27  1  0
 26 25  2  0
M  END
$$$$
