PYV.pdb
     RDKit          3D

 27 28  0  0  1  0  0  0  0  0999 V2000
   28.9132  -20.7608  -17.4850 N   0  0  0  0  0  0  0  0  0  0  0  0
   29.8258  -21.8008  -17.9849 C   0  0  0  0  0  0  0  0  0  0  0  0
   29.7408  -22.9355  -17.0005 C   0  0  0  0  0  0  0  0  0  0  0  0
   28.6575  -22.5082  -16.0244 C   0  0  0  0  0  0  0  0  0  0  0  0
   27.8640  -21.5502  -16.9184 C   0  0  1  0  0  0  0  0  0  0  0  0
   26.8785  -20.7737  -16.1514 C   0  0  0  0  0  0  0  0  0  0  0  0
   27.2919  -19.7711  -15.5138 O   0  0  0  0  0  0  0  0  0  0  0  0
   19.1953  -17.7156  -12.8410 O   0  0  0  0  0  0  0  0  0  0  0  0
   20.2113  -18.3149  -13.6074 C   0  0  0  0  0  0  0  0  0  0  0  0
   21.0783  -17.5595  -14.3594 C   0  0  0  0  0  0  0  0  0  0  0  0
   22.0703  -18.1639  -15.1061 C   0  0  0  0  0  0  0  0  0  0  0  0
   22.2230  -19.5287  -15.1225 C   0  0  0  0  0  0  0  0  0  0  0  0
   23.2996  -20.1215  -15.9434 C   0  0  0  0  0  0  0  0  0  0  0  0
   24.5860  -20.3107  -15.2028 C   0  0  2  0  0  0  0  0  0  0  0  0
   25.4969  -21.0669  -16.0743 N   0  0  0  0  0  0  0  0  0  0  0  0
   24.4332  -21.0050  -13.8944 C   0  0  0  0  0  0  0  0  0  0  0  0
   24.2574  -22.2510  -13.8739 O   0  0  0  0  0  0  0  0  0  0  0  0
   21.3630  -20.2957  -14.3752 C   0  0  0  0  0  0  0  0  0  0  0  0
   20.3682  -19.6822  -13.6270 C   0  0  0  0  0  0  0  0  0  0  0  0
   25.0848  -19.1014  -10.0476 C   0  0  0  0  0  0  0  0  0  0  0  0
   25.2880  -20.5458  -10.3569 C   0  0  1  0  0  0  0  0  0  0  0  0
   25.1966  -21.4034   -9.1218 C   0  0  0  0  0  0  0  0  0  0  0  0
   24.3479  -21.0573  -11.4254 C   0  0  2  0  0  0  0  0  0  0  0  0
   24.4763  -20.3268  -12.6569 N   0  0  0  0  0  0  0  0  0  0  0  0
   22.9265  -20.9612  -10.9818 C   0  0  0  0  0  0  0  0  0  0  0  0
   22.1816  -19.9979  -11.3637 O   0  0  0  0  0  0  0  0  0  0  0  0
   22.3750  -21.9158  -10.1423 O   0  0  0  0  0  0  0  0  0  0  0  0
  1  2  1  0
  3  2  1  0
  4  5  1  0
  4  3  1  0
  5  1  1  0
  5  6  1  1
  7  6  2  0
  8  9  1  0
  9 19  2  0
 10 11  2  0
 10  9  1  0
 11 12  1  0
 12 13  1  0
 12 18  2  0
 14 13  1  6
 14 15  1  0
 15  6  1  0
 16 14  1  0
 17 16  2  0
 19 18  1  0
 21 23  1  0
 21 20  1  1
 22 21  1  0
 23 25  1  0
 23 24  1  6
 24 16  1  0
 25 27  1  0
 26 25  2  0
M  END
$$$$
