PYV.pdb
     RDKit          3D

 27 28  0  0  1  0  0  0  0  0999 V2000
   26.6508  -20.1879  -14.1986 N   0  0  0  0  0  0  0  0  0  0  0  0
   27.5196  -20.7009  -15.2693 C   0  0  0  0  0  0  0  0  0  0  0  0
   28.8998  -20.7897  -14.6771 C   0  0  0  0  0  0  0  0  0  0  0  0
   28.7082  -20.4195  -13.2158 C   0  0  0  0  0  0  0  0  0  0  0  0
   27.2334  -20.7957  -13.0427 C   0  0  1  0  0  0  0  0  0  0  0  0
   26.6877  -20.3038  -11.7689 C   0  0  0  0  0  0  0  0  0  0  0  0
   26.4120  -19.0792  -11.6847 O   0  0  0  0  0  0  0  0  0  0  0  0
   20.3149  -19.2455  -12.3087 O   0  0  0  0  0  0  0  0  0  0  0  0
   21.3715  -19.7325  -11.5181 C   0  0  0  0  0  0  0  0  0  0  0  0
   22.2571  -20.6636  -12.0048 C   0  0  0  0  0  0  0  0  0  0  0  0
   23.2891  -21.1313  -11.2152 C   0  0  0  0  0  0  0  0  0  0  0  0
   23.4640  -20.6857   -9.9280 C   0  0  0  0  0  0  0  0  0  0  0  0
   24.5833  -21.2242   -9.1270 C   0  0  0  0  0  0  0  0  0  0  0  0
   25.8906  -20.5438   -9.3863 C   0  0  2  0  0  0  0  0  0  0  0  0
   26.4477  -21.1027  -10.6265 N   0  0  0  0  0  0  0  0  0  0  0  0
   26.8730  -20.6800   -8.2755 C   0  0  0  0  0  0  0  0  0  0  0  0
   27.6407  -21.6768   -8.2494 O   0  0  0  0  0  0  0  0  0  0  0  0
   22.5859  -19.7550   -9.4290 C   0  0  0  0  0  0  0  0  0  0  0  0
   21.5510  -19.2891  -10.2276 C   0  0  0  0  0  0  0  0  0  0  0  0
   29.2590  -18.8035   -4.3682 C   0  0  0  0  0  0  0  0  0  0  0  0
   28.3997  -18.6177   -5.5725 C   0  0  1  0  0  0  0  0  0  0  0  0
   29.0664  -17.7535   -6.6108 C   0  0  0  0  0  0  0  0  0  0  0  0
   27.9513  -19.9263   -6.1838 C   0  0  2  0  0  0  0  0  0  0  0  0
   26.9890  -19.7336   -7.2343 N   0  0  0  0  0  0  0  0  0  0  0  0
   27.3361  -20.8168   -5.1567 C   0  0  0  0  0  0  0  0  0  0  0  0
   26.0737  -20.9991   -5.1148 O   0  0  0  0  0  0  0  0  0  0  0  0
   28.1186  -21.4711   -4.2188 O   0  0  0  0  0  0  0  0  0  0  0  0
  1  2  1  0
  3  2  1  0
  4  5  1  0
  4  3  1  0
  5  1  1  0
  5  6  1  1
  7  6  2  0
  8  9  1  0
  9 19  2  0
 10 11  2  0
 10  9  1  0
 11 12  1  0
 12 13  1  0
 12 18  2  0
 14 13  1  1
 14 15  1  0
 15  6  1  0
 16 14  1  0
 17 16  2  0
 19 18  1  0
 21 23  1  0
 21 20  1  1
 22 21  1  0
 23 25  1  0
 23 24  1  6
 24 16  1  0
 25 27  1  0
 26 25  2  0
M  END
$$$$
