PYV.pdb
     RDKit          3D

 27 28  0  0  1  0  0  0  0  0999 V2000
   28.7465  -23.0919  -17.5291 N   0  0  0  0  0  0  0  0  0  0  0  0
   29.4358  -22.6526  -18.7523 C   0  0  0  0  0  0  0  0  0  0  0  0
   28.6224  -21.5116  -19.3001 C   0  0  0  0  0  0  0  0  0  0  0  0
   27.5422  -21.2827  -18.2562 C   0  0  0  0  0  0  0  0  0  0  0  0
   28.2482  -21.8514  -17.0213 C   0  0  1  0  0  0  0  0  0  0  0  0
   27.3292  -21.9971  -15.8826 C   0  0  0  0  0  0  0  0  0  0  0  0
   26.8239  -23.1312  -15.6800 O   0  0  0  0  0  0  0  0  0  0  0  0
   22.7635  -20.9011   -8.3916 O   0  0  0  0  0  0  0  0  0  0  0  0
   23.6462  -20.7542   -9.4770 C   0  0  0  0  0  0  0  0  0  0  0  0
   23.2654  -20.0999  -10.6237 C   0  0  0  0  0  0  0  0  0  0  0  0
   24.1445  -19.9645  -11.6800 C   0  0  0  0  0  0  0  0  0  0  0  0
   25.4183  -20.4746  -11.6211 C   0  0  0  0  0  0  0  0  0  0  0  0
   26.3151  -20.3040  -12.7834 C   0  0  0  0  0  0  0  0  0  0  0  0
   25.9302  -21.1343  -13.9673 C   0  0  2  0  0  0  0  0  0  0  0  0
   26.9675  -20.9578  -14.9939 N   0  0  0  0  0  0  0  0  0  0  0  0
   24.5913  -20.8023  -14.5282 C   0  0  0  0  0  0  0  0  0  0  0  0
   24.4454  -19.7420  -15.1902 O   0  0  0  0  0  0  0  0  0  0  0  0
   25.8119  -21.1310  -10.4807 C   0  0  0  0  0  0  0  0  0  0  0  0
   24.9236  -21.2637   -9.4227 C   0  0  0  0  0  0  0  0  0  0  0  0
   22.5697  -22.1169  -17.2009 C   0  0  0  0  0  0  0  0  0  0  0  0
   21.7133  -22.1693  -15.9815 C   0  0  1  0  0  0  0  0  0  0  0  0
   21.5762  -23.5726  -15.4509 C   0  0  0  0  0  0  0  0  0  0  0  0
   22.1856  -21.2359  -14.8893 C   0  0  2  0  0  0  0  0  0  0  0  0
   23.4602  -21.6287  -14.3527 N   0  0  0  0  0  0  0  0  0  0  0  0
   21.2089  -21.1892  -13.7623 C   0  0  0  0  0  0  0  0  0  0  0  0
   20.0911  -20.5858  -13.8848 O   0  0  0  0  0  0  0  0  0  0  0  0
   21.4882  -21.8001  -12.5503 O   0  0  0  0  0  0  0  0  0  0  0  0
  1  2  1  0
  3  2  1  0
  4  5  1  0
  4  3  1  0
  5  1  1  0
  5  6  1  1
  7  6  2  0
  8  9  1  0
  9 19  2  0
 10 11  2  0
 10  9  1  0
 11 12  1  0
 12 13  1  0
 12 18  2  0
 14 13  1  1
 14 15  1  0
 15  6  1  0
 16 14  1  0
 17 16  2  0
 19 18  1  0
 21 23  1  0
 21 20  1  6
 22 21  1  0
 23 25  1  0
 23 24  1  1
 24 16  1  0
 25 27  1  0
 26 25  2  0
M  END
$$$$
