PYV.pdb
     RDKit          3D

 27 28  0  0  1  0  0  0  0  0999 V2000
   27.9352  -20.8998  -17.0580 N   0  0  0  0  0  0  0  0  0  0  0  0
   28.7108  -21.8331  -17.8898 C   0  0  0  0  0  0  0  0  0  0  0  0
   29.4881  -22.6948  -16.9321 C   0  0  0  0  0  0  0  0  0  0  0  0
   29.0034  -22.2640  -15.5579 C   0  0  0  0  0  0  0  0  0  0  0  0
   27.6208  -21.7183  -15.9283 C   0  0  1  0  0  0  0  0  0  0  0  0
   27.0032  -20.9861  -14.8125 C   0  0  0  0  0  0  0  0  0  0  0  0
   27.4379  -19.8335  -14.5573 O   0  0  0  0  0  0  0  0  0  0  0  0
   23.1791  -17.2090  -17.9217 O   0  0  0  0  0  0  0  0  0  0  0  0
   23.3549  -18.0178  -16.7843 C   0  0  0  0  0  0  0  0  0  0  0  0
   23.5505  -17.4679  -15.5403 C   0  0  0  0  0  0  0  0  0  0  0  0
   23.7214  -18.2765  -14.4340 C   0  0  0  0  0  0  0  0  0  0  0  0
   23.7018  -19.6458  -14.5382 C   0  0  0  0  0  0  0  0  0  0  0  0
   23.8944  -20.4619  -13.3211 C   0  0  0  0  0  0  0  0  0  0  0  0
   25.3306  -20.6602  -12.9508 C   0  0  2  0  0  0  0  0  0  0  0  0
   25.9546  -21.4783  -14.0007 N   0  0  0  0  0  0  0  0  0  0  0  0
   25.5286  -21.2964  -11.6190 C   0  0  0  0  0  0  0  0  0  0  0  0
   25.3321  -22.5328  -11.4906 O   0  0  0  0  0  0  0  0  0  0  0  0
   23.5072  -20.2085  -15.7758 C   0  0  0  0  0  0  0  0  0  0  0  0
   23.3361  -19.3904  -16.8836 C   0  0  0  0  0  0  0  0  0  0  0  0
   28.1771  -20.3274   -8.5586 C   0  0  0  0  0  0  0  0  0  0  0  0
   26.7419  -20.4353   -8.1691 C   0  0  1  0  0  0  0  0  0  0  0  0
   26.1307  -19.0858   -7.8955 C   0  0  0  0  0  0  0  0  0  0  0  0
   25.9126  -21.1950   -9.1802 C   0  0  2  0  0  0  0  0  0  0  0  0
   25.9314  -20.5725  -10.4759 N   0  0  0  0  0  0  0  0  0  0  0  0
   24.4901  -21.2966   -8.7414 C   0  0  0  0  0  0  0  0  0  0  0  0
   24.1528  -22.0561   -7.7729 O   0  0  0  0  0  0  0  0  0  0  0  0
   23.4947  -20.5686   -9.3734 O   0  0  0  0  0  0  0  0  0  0  0  0
  1  2  1  0
  3  2  1  0
  4  5  1  0
  4  3  1  0
  5  1  1  0
  5  6  1  1
  7  6  2  0
  8  9  1  0
  9 19  2  0
 10 11  2  0
 10  9  1  0
 11 12  1  0
 12 13  1  0
 12 18  2  0
 14 13  1  6
 14 15  1  0
 15  6  1  0
 16 14  1  0
 17 16  2  0
 19 18  1  0
 21 23  1  0
 21 20  1  6
 22 21  1  0
 23 25  1  0
 23 24  1  6
 24 16  1  0
 25 27  1  0
 26 25  2  0
M  END
$$$$
