PYV.pdb
     RDKit          3D

 27 28  0  0  1  0  0  0  0  0999 V2000
   27.7778  -21.5945  -13.5706 N   0  0  0  0  0  0  0  0  0  0  0  0
   28.1337  -21.5698  -14.9979 C   0  0  0  0  0  0  0  0  0  0  0  0
   27.4582  -20.3548  -15.5731 C   0  0  0  0  0  0  0  0  0  0  0  0
   26.8296  -19.6682  -14.3721 C   0  0  0  0  0  0  0  0  0  0  0  0
   27.7416  -20.1988  -13.2615 C   0  0  1  0  0  0  0  0  0  0  0  0
   27.2105  -19.8959  -11.9241 C   0  0  0  0  0  0  0  0  0  0  0  0
   27.0706  -18.6856  -11.6106 O   0  0  0  0  0  0  0  0  0  0  0  0
   20.9497  -19.6630  -13.4612 O   0  0  0  0  0  0  0  0  0  0  0  0
   21.9183  -20.0666  -12.5244 C   0  0  0  0  0  0  0  0  0  0  0  0
   22.7773  -21.1061  -12.7881 C   0  0  0  0  0  0  0  0  0  0  0  0
   23.7225  -21.4897  -11.8573 C   0  0  0  0  0  0  0  0  0  0  0  0
   23.8353  -20.8508  -10.6468 C   0  0  0  0  0  0  0  0  0  0  0  0
   24.8625  -21.3066   -9.6868 C   0  0  0  0  0  0  0  0  0  0  0  0
   26.1239  -20.5028   -9.7285 C   0  0  2  0  0  0  0  0  0  0  0  0
   26.8433  -20.8625  -10.9589 N   0  0  0  0  0  0  0  0  0  0  0  0
   27.0043  -20.6986   -8.5435 C   0  0  0  0  0  0  0  0  0  0  0  0
   27.5862  -21.8028   -8.3830 O   0  0  0  0  0  0  0  0  0  0  0  0
   22.9829  -19.8101  -10.3702 C   0  0  0  0  0  0  0  0  0  0  0  0
   22.0353  -19.4296  -11.3100 C   0  0  0  0  0  0  0  0  0  0  0  0
   27.7246  -17.6489   -5.5208 C   0  0  0  0  0  0  0  0  0  0  0  0
   28.6777  -18.7475   -5.8486 C   0  0  1  0  0  0  0  0  0  0  0  0
   29.5459  -19.1084   -4.6715 C   0  0  0  0  0  0  0  0  0  0  0  0
   27.9914  -19.9793   -6.3955 C   0  0  2  0  0  0  0  0  0  0  0  0
   27.2228  -19.6936   -7.5763 N   0  0  0  0  0  0  0  0  0  0  0  0
   27.0718  -20.5763   -5.3835 C   0  0  0  0  0  0  0  0  0  0  0  0
   25.8059  -20.5363   -5.5401 O   0  0  0  0  0  0  0  0  0  0  0  0
   27.5666  -21.1914   -4.2447 O   0  0  0  0  0  0  0  0  0  0  0  0
  1  2  1  0
  3  2  1  0
  4  5  1  0
  4  3  1  0
  5  1  1  0
  5  6  1  1
  7  6  2  0
  8  9  1  0
  9 19  2  0
 10 11  2  0
 10  9  1  0
 11 12  1  0
 12 13  1  0
 12 18  2  0
 14 13  1  1
 14 15  1  0
 15  6  1  0
 16 14  1  0
 17 16  2  0
 19 18  1  0
 21 23  1  0
 21 20  1  1
 22 21  1  0
 23 25  1  0
 23 24  1  6
 24 16  1  0
 25 27  1  0
 26 25  2  0
M  END
$$$$
