IPD.pdb
     RDKit          3D

 24 24  0  0  1  0  0  0  0  0999 V2000
   15.4582  -22.1637  -13.2690 C   0  0  0  0  0  0  0  0  0  0  0  0
   16.4575  -23.1522  -12.6496 C   0  0  0  0  0  0  0  0  0  0  0  0
   16.0424  -23.3446  -11.2303 C   0  0  2  0  0  0  0  0  0  0  0  0
   16.1528  -22.0664  -10.4743 C   0  0  0  0  0  0  0  0  0  0  0  0
   16.7070  -24.5249  -10.5588 C   0  0  2  0  0  0  0  0  0  0  0  0
   16.5951  -25.6720  -11.4004 N   0  0  0  0  0  0  0  0  0  0  0  0
   16.2914  -24.7361   -9.1656 C   0  0  0  0  0  0  0  0  0  0  0  0
   15.0510  -24.7785   -8.9441 O   0  0  0  0  0  0  0  0  0  0  0  0
   17.1884  -24.8946   -8.0603 N   0  0  0  0  0  0  0  0  0  0  0  0
   18.6134  -25.0590   -8.2489 C   0  0  0  0  0  0  0  0  0  0  0  0
   19.1892  -25.3560   -6.8854 C   0  0  0  0  0  0  0  0  0  0  0  0
   18.2149  -24.6600   -5.9925 C   0  0  0  0  0  0  0  0  0  0  0  0
   16.8969  -24.9312   -6.6799 C   0  0  1  0  0  0  0  0  0  0  0  0
   15.9678  -23.8704   -6.2051 C   0  0  0  0  0  0  0  0  0  0  0  0
   15.6221  -22.8805   -6.8947 O   0  0  0  0  0  0  0  0  0  0  0  0
   15.4337  -23.9693   -4.9004 N   0  0  0  0  0  0  0  0  0  0  0  0
   14.5406  -23.0068   -4.3109 C   0  0  1  0  0  0  0  0  0  0  0  0
   13.2919  -22.7739   -5.1062 C   0  0  0  0  0  0  0  0  0  0  0  0
   12.3733  -21.8036   -4.4881 C   0  0  0  0  0  0  0  0  0  0  0  0
   12.6404  -21.0596   -3.5207 O   0  0  0  0  0  0  0  0  0  0  0  0
   14.1434  -23.4335   -2.9435 C   0  0  0  0  0  0  0  0  0  0  0  0
   13.8221  -22.5352   -1.9377 O   0  0  0  0  0  0  0  0  0  0  0  0
   11.0944  -21.7034   -5.0259 O   0  0  0  0  0  0  0  0  0  0  0  0
   14.0881  -24.6569   -2.6595 O   0  0  0  0  0  0  0  0  0  0  0  0
  2  1  1  0
  3  2  1  0
  3  4  1  1
  5  7  1  0
  5  3  1  0
  5  6  1  6
  7  8  2  0
  9 13  1  0
  9  7  1  0
 10  9  1  0
 11 10  1  0
 11 12  1  0
 12 13  1  0
 14 15  2  0
 13 14  1  6
 16 14  1  0
 17 16  1  0
 17 21  1  0
 17 18  1  6
 19 20  2  0
 19 18  1  0
 21 22  1  0
 23 19  1  0
 24 21  2  0
M  END
$$$$
