IPD.pdb
     RDKit          3D

 24 24  0  0  1  0  0  0  0  0999 V2000
   15.4993  -11.5735  -18.3931 C   0  0  0  0  0  0  0  0  0  0  0  0
   16.8834  -12.1908  -18.1432 C   0  0  0  0  0  0  0  0  0  0  0  0
   17.7010  -11.1436  -17.4660 C   0  0  2  0  0  0  0  0  0  0  0  0
   17.8939   -9.9693  -18.3611 C   0  0  0  0  0  0  0  0  0  0  0  0
   18.9760  -11.6737  -16.8504 C   0  0  2  0  0  0  0  0  0  0  0  0
   18.6896  -12.8699  -16.1267 N   0  0  0  0  0  0  0  0  0  0  0  0
   19.7468  -10.6689  -16.1056 C   0  0  0  0  0  0  0  0  0  0  0  0
   19.1296  -10.0288  -15.2119 O   0  0  0  0  0  0  0  0  0  0  0  0
   21.1311  -10.3737  -16.3246 N   0  0  0  0  0  0  0  0  0  0  0  0
   21.9684  -11.2072  -17.1597 C   0  0  0  0  0  0  0  0  0  0  0  0
   23.3738  -10.6755  -17.0145 C   0  0  0  0  0  0  0  0  0  0  0  0
   23.1176   -9.2367  -16.7062 C   0  0  0  0  0  0  0  0  0  0  0  0
   21.9031   -9.3101  -15.8101 C   0  0  1  0  0  0  0  0  0  0  0  0
   21.2604   -7.9705  -15.8901 C   0  0  0  0  0  0  0  0  0  0  0  0
   20.2774   -7.7068  -16.6245 O   0  0  0  0  0  0  0  0  0  0  0  0
   21.7767   -6.9208  -15.0971 N   0  0  0  0  0  0  0  0  0  0  0  0
   21.1838   -5.6138  -14.9899 C   0  0  1  0  0  0  0  0  0  0  0  0
   19.8044   -5.6215  -14.4040 C   0  0  0  0  0  0  0  0  0  0  0  0
   19.2138   -4.2795  -14.2723 C   0  0  0  0  0  0  0  0  0  0  0  0
   19.6130   -3.2464  -14.8504 O   0  0  0  0  0  0  0  0  0  0  0  0
   22.0334   -4.7229  -14.1568 C   0  0  0  0  0  0  0  0  0  0  0  0
   22.3279   -3.4154  -14.5114 O   0  0  0  0  0  0  0  0  0  0  0  0
   18.1142   -4.1459  -13.4309 O   0  0  0  0  0  0  0  0  0  0  0  0
   22.5193   -5.1482  -13.0782 O   0  0  0  0  0  0  0  0  0  0  0  0
  2  1  1  0
  3  2  1  0
  3  4  1  6
  5  7  1  0
  5  3  1  0
  5  6  1  1
  7  8  2  0
  9 13  1  0
  9  7  1  0
 10  9  1  0
 11 10  1  0
 11 12  1  0
 12 13  1  0
 14 15  2  0
 13 14  1  6
 16 14  1  0
 17 16  1  0
 17 21  1  0
 17 18  1  1
 19 20  2  0
 19 18  1  0
 21 22  1  0
 23 19  1  0
 24 21  2  0
M  END
$$$$
