IPD.pdb
     RDKit          3D

 24 24  0  0  1  0  0  0  0  0999 V2000
   27.5097  -16.0625  -16.8177 C   0  0  0  0  0  0  0  0  0  0  0  0
   28.0746  -17.4260  -16.3921 C   0  0  0  0  0  0  0  0  0  0  0  0
   26.9891  -18.1220  -15.6432 C   0  0  2  0  0  0  0  0  0  0  0  0
   26.6184  -17.3532  -14.4229 C   0  0  0  0  0  0  0  0  0  0  0  0
   27.2662  -19.5875  -15.3959 C   0  0  2  0  0  0  0  0  0  0  0  0
   27.7191  -20.1935  -16.6060 N   0  0  0  0  0  0  0  0  0  0  0  0
   26.1748  -20.2995  -14.7175 C   0  0  0  0  0  0  0  0  0  0  0  0
   25.1365  -20.5246  -15.3963 O   0  0  0  0  0  0  0  0  0  0  0  0
   26.2122  -20.7475  -13.3576 N   0  0  0  0  0  0  0  0  0  0  0  0
   27.4384  -20.7603  -12.5898 C   0  0  0  0  0  0  0  0  0  0  0  0
   27.1117  -21.4400  -11.2821 C   0  0  0  0  0  0  0  0  0  0  0  0
   25.6600  -21.1208  -11.1350 C   0  0  0  0  0  0  0  0  0  0  0  0
   25.1588  -21.2365  -12.5558 C   0  0  1  0  0  0  0  0  0  0  0  0
   23.9051  -20.4368  -12.6083 C   0  0  0  0  0  0  0  0  0  0  0  0
   23.8550  -19.1975  -12.4168 O   0  0  0  0  0  0  0  0  0  0  0  0
   22.6885  -21.0986  -12.8899 N   0  0  0  0  0  0  0  0  0  0  0  0
   21.4361  -20.4321  -13.1323 C   0  0  1  0  0  0  0  0  0  0  0  0
   21.5037  -19.3899  -14.2072 C   0  0  0  0  0  0  0  0  0  0  0  0
   20.2030  -18.7689  -14.5068 C   0  0  0  0  0  0  0  0  0  0  0  0
   19.2959  -18.5391  -13.6790 O   0  0  0  0  0  0  0  0  0  0  0  0
   20.3869  -21.4154  -13.5090 C   0  0  0  0  0  0  0  0  0  0  0  0
   19.1507  -21.4742  -12.8843 O   0  0  0  0  0  0  0  0  0  0  0  0
   19.9588  -18.4043  -15.8267 O   0  0  0  0  0  0  0  0  0  0  0  0
   20.6037  -22.2417  -14.4313 O   0  0  0  0  0  0  0  0  0  0  0  0
  2  1  1  0
  3  2  1  0
  3  4  1  1
  5  7  1  0
  5  3  1  0
  5  6  1  6
  7  8  2  0
  9 13  1  0
  9  7  1  0
 10  9  1  0
 11 10  1  0
 11 12  1  0
 12 13  1  0
 14 15  2  0
 13 14  1  1
 16 14  1  0
 17 16  1  0
 17 21  1  0
 17 18  1  6
 19 20  2  0
 19 18  1  0
 21 22  1  0
 23 19  1  0
 24 21  2  0
M  END
$$$$
