IPD.pdb
     RDKit          3D

 24 24  0  0  1  0  0  0  0  0999 V2000
   26.1081  -14.5697  -14.7307 C   0  0  0  0  0  0  0  0  0  0  0  0
   25.1370  -14.6073  -15.9202 C   0  0  0  0  0  0  0  0  0  0  0  0
   24.4567  -13.2809  -15.9571 C   0  0  2  0  0  0  0  0  0  0  0  0
   23.5121  -13.1445  -14.8139 C   0  0  0  0  0  0  0  0  0  0  0  0
   23.8578  -12.9437  -17.3036 C   0  0  2  0  0  0  0  0  0  0  0  0
   24.8350  -13.1558  -18.3219 N   0  0  0  0  0  0  0  0  0  0  0  0
   23.1858  -11.6382  -17.3527 C   0  0  0  0  0  0  0  0  0  0  0  0
   23.9159  -10.6192  -17.2182 O   0  0  0  0  0  0  0  0  0  0  0  0
   21.7784  -11.4501  -17.5403 N   0  0  0  0  0  0  0  0  0  0  0  0
   20.9021  -12.5428  -17.9028 C   0  0  0  0  0  0  0  0  0  0  0  0
   19.5478  -11.9298  -18.1656 C   0  0  0  0  0  0  0  0  0  0  0  0
   19.5889  -10.7265  -17.2816 C   0  0  0  0  0  0  0  0  0  0  0  0
   21.0199  -10.2649  -17.4316 C   0  0  1  0  0  0  0  0  0  0  0  0
   21.3077   -9.4427  -16.2253 C   0  0  0  0  0  0  0  0  0  0  0  0
   21.6770   -9.9180  -15.1241 O   0  0  0  0  0  0  0  0  0  0  0  0
   21.1608   -8.0395  -16.3087 N   0  0  0  0  0  0  0  0  0  0  0  0
   21.3757   -7.1317  -15.2129 C   0  0  1  0  0  0  0  0  0  0  0  0
   22.5569   -6.2282  -15.3986 C   0  0  0  0  0  0  0  0  0  0  0  0
   22.7653   -5.2949  -14.2793 C   0  0  0  0  0  0  0  0  0  0  0  0
   22.5965   -5.5568  -13.0695 O   0  0  0  0  0  0  0  0  0  0  0  0
   20.1751   -6.2821  -14.9969 C   0  0  0  0  0  0  0  0  0  0  0  0
   19.2534   -6.0126  -15.9967 O   0  0  0  0  0  0  0  0  0  0  0  0
   23.1874   -4.0070  -14.5924 O   0  0  0  0  0  0  0  0  0  0  0  0
   19.9620   -5.7729  -13.8674 O   0  0  0  0  0  0  0  0  0  0  0  0
  2  1  1  0
  3  2  1  0
  3  4  1  1
  5  7  1  0
  5  3  1  0
  5  6  1  6
  7  8  2  0
  9 13  1  0
  9  7  1  0
 10  9  1  0
 11 10  1  0
 11 12  1  0
 12 13  1  0
 14 15  2  0
 13 14  1  1
 16 14  1  0
 17 16  1  0
 17 21  1  0
 17 18  1  6
 19 20  2  0
 19 18  1  0
 21 22  1  0
 23 19  1  0
 24 21  2  0
M  END
$$$$
