IPD.pdb
     RDKit          3D

 24 24  0  0  1  0  0  0  0  0999 V2000
   21.8282  -12.9713  -21.4036 C   0  0  0  0  0  0  0  0  0  0  0  0
   22.7010  -13.4696  -20.2421 C   0  0  0  0  0  0  0  0  0  0  0  0
   22.6849  -12.3970  -19.2062 C   0  0  2  0  0  0  0  0  0  0  0  0
   23.1738  -11.1110  -19.7761 C   0  0  0  0  0  0  0  0  0  0  0  0
   23.3506  -12.7966  -17.9090 C   0  0  2  0  0  0  0  0  0  0  0  0
   22.8866  -14.0883  -17.5181 N   0  0  0  0  0  0  0  0  0  0  0  0
   23.2850  -11.7712  -16.8590 C   0  0  0  0  0  0  0  0  0  0  0  0
   22.1382  -11.4734  -16.4281 O   0  0  0  0  0  0  0  0  0  0  0  0
   24.4199  -11.0984  -16.3017 N   0  0  0  0  0  0  0  0  0  0  0  0
   25.7665  -11.5987  -16.4738 C   0  0  0  0  0  0  0  0  0  0  0  0
   26.6544  -10.7266  -15.6195 C   0  0  0  0  0  0  0  0  0  0  0  0
   25.8915   -9.4425  -15.6112 C   0  0  0  0  0  0  0  0  0  0  0  0
   24.4598   -9.9185  -15.5283 C   0  0  1  0  0  0  0  0  0  0  0  0
   23.6307   -8.7977  -16.0481 C   0  0  0  0  0  0  0  0  0  0  0  0
   23.1054   -8.7835  -17.1879 O   0  0  0  0  0  0  0  0  0  0  0  0
   23.4121   -7.6734  -15.2201 N   0  0  0  0  0  0  0  0  0  0  0  0
   22.5440   -6.5744  -15.5515 C   0  0  1  0  0  0  0  0  0  0  0  0
   21.1149   -6.9742  -15.7611 C   0  0  0  0  0  0  0  0  0  0  0  0
   20.2296   -5.8439  -16.0864 C   0  0  0  0  0  0  0  0  0  0  0  0
   20.4342   -4.9883  -16.9735 O   0  0  0  0  0  0  0  0  0  0  0  0
   22.5816   -5.5405  -14.4841 C   0  0  0  0  0  0  0  0  0  0  0  0
   22.9061   -4.2153  -14.7302 O   0  0  0  0  0  0  0  0  0  0  0  0
   19.0613   -5.7138  -15.3429 O   0  0  0  0  0  0  0  0  0  0  0  0
   22.3115   -5.8542  -13.2971 O   0  0  0  0  0  0  0  0  0  0  0  0
  2  1  1  0
  3  2  1  0
  3  4  1  6
  5  7  1  0
  5  3  1  0
  5  6  1  1
  7  8  2  0
  9 13  1  0
  9  7  1  0
 10  9  1  0
 11 10  1  0
 11 12  1  0
 12 13  1  0
 14 15  2  0
 13 14  1  6
 16 14  1  0
 17 16  1  0
 17 21  1  0
 17 18  1  1
 19 20  2  0
 19 18  1  0
 21 22  1  0
 23 19  1  0
 24 21  2  0
M  END
$$$$
