IPD.pdb
     RDKit          3D

 24 24  0  0  1  0  0  0  0  0999 V2000
   18.7211  -12.0186  -20.8139 C   0  0  0  0  0  0  0  0  0  0  0  0
   19.4398  -12.7382  -19.6629 C   0  0  0  0  0  0  0  0  0  0  0  0
   19.7861  -11.6932  -18.6571 C   0  0  2  0  0  0  0  0  0  0  0  0
   20.7499  -10.7134  -19.2303 C   0  0  0  0  0  0  0  0  0  0  0  0
   20.1939  -12.2554  -17.3142 C   0  0  2  0  0  0  0  0  0  0  0  0
   19.2386  -13.2317  -16.9009 N   0  0  0  0  0  0  0  0  0  0  0  0
   20.5116  -11.2345  -16.3066 C   0  0  0  0  0  0  0  0  0  0  0  0
   19.5629  -10.4939  -15.9312 O   0  0  0  0  0  0  0  0  0  0  0  0
   21.8073  -11.0288  -15.7320 N   0  0  0  0  0  0  0  0  0  0  0  0
   22.8922  -11.9639  -15.9365 C   0  0  0  0  0  0  0  0  0  0  0  0
   24.0251  -11.4971  -15.0548 C   0  0  0  0  0  0  0  0  0  0  0  0
   23.7637  -10.0281  -14.9867 C   0  0  0  0  0  0  0  0  0  0  0  0
   22.2556   -9.9720  -14.9110 C   0  0  1  0  0  0  0  0  0  0  0  0
   21.8780   -8.6102  -15.3767 C   0  0  0  0  0  0  0  0  0  0  0  0
   21.3869   -8.3660  -16.5055 O   0  0  0  0  0  0  0  0  0  0  0  0
   22.0785   -7.5148  -14.5067 N   0  0  0  0  0  0  0  0  0  0  0  0
   21.6998   -6.1585  -14.8042 C   0  0  1  0  0  0  0  0  0  0  0  0
   20.2285   -5.9756  -15.0234 C   0  0  0  0  0  0  0  0  0  0  0  0
   19.8555   -4.6004  -15.3936 C   0  0  0  0  0  0  0  0  0  0  0  0
   19.4224   -3.7264  -14.6129 O   0  0  0  0  0  0  0  0  0  0  0  0
   22.1190   -5.2477  -13.7068 C   0  0  0  0  0  0  0  0  0  0  0  0
   22.5940   -3.9650  -13.9328 O   0  0  0  0  0  0  0  0  0  0  0  0
   19.9964   -4.2384  -16.7292 O   0  0  0  0  0  0  0  0  0  0  0  0
   22.0502   -5.6319  -12.5119 O   0  0  0  0  0  0  0  0  0  0  0  0
  2  1  1  0
  3  2  1  0
  3  4  1  6
  5  7  1  0
  5  3  1  0
  5  6  1  1
  7  8  2  0
  9 13  1  0
  9  7  1  0
 10  9  1  0
 11 10  1  0
 11 12  1  0
 12 13  1  0
 14 15  2  0
 13 14  1  6
 16 14  1  0
 17 16  1  0
 17 21  1  0
 17 18  1  1
 19 20  2  0
 19 18  1  0
 21 22  1  0
 23 19  1  0
 24 21  2  0
M  END
$$$$
