IPD.pdb
     RDKit          3D

 24 24  0  0  1  0  0  0  0  0999 V2000
   21.3864  -12.6267  -21.5717 C   0  0  0  0  0  0  0  0  0  0  0  0
   22.2384  -13.2138  -20.4365 C   0  0  0  0  0  0  0  0  0  0  0  0
   22.2820  -12.1833  -19.3596 C   0  0  2  0  0  0  0  0  0  0  0  0
   22.9175  -10.9319  -19.8574 C   0  0  0  0  0  0  0  0  0  0  0  0
   22.8495  -12.6935  -18.0545 C   0  0  2  0  0  0  0  0  0  0  0  0
   22.2319  -13.9371  -17.7248 N   0  0  0  0  0  0  0  0  0  0  0  0
   22.8564  -11.6996  -16.9726 C   0  0  0  0  0  0  0  0  0  0  0  0
   21.7330  -11.3117  -16.5518 O   0  0  0  0  0  0  0  0  0  0  0  0
   24.0364  -11.1512  -16.3742 N   0  0  0  0  0  0  0  0  0  0  0  0
   25.3400  -11.7491  -16.5656 C   0  0  0  0  0  0  0  0  0  0  0  0
   26.2870  -10.9979  -15.6614 C   0  0  0  0  0  0  0  0  0  0  0  0
   25.6299   -9.6585  -15.5887 C   0  0  0  0  0  0  0  0  0  0  0  0
   24.1638  -10.0208  -15.5389 C   0  0  1  0  0  0  0  0  0  0  0  0
   23.4326   -8.8107  -16.0026 C   0  0  0  0  0  0  0  0  0  0  0  0
   22.9619   -8.6753  -17.1582 O   0  0  0  0  0  0  0  0  0  0  0  0
   23.2489   -7.7400  -15.0987 N   0  0  0  0  0  0  0  0  0  0  0  0
   22.4414   -6.5788  -15.3651 C   0  0  1  0  0  0  0  0  0  0  0  0
   21.0002   -6.8924  -15.6313 C   0  0  0  0  0  0  0  0  0  0  0  0
   20.1874   -5.7047  -15.9412 C   0  0  0  0  0  0  0  0  0  0  0  0
   18.9390   -5.6552  -15.9442 O   0  0  0  0  0  0  0  0  0  0  0  0
   22.5030   -5.6282  -14.2240 C   0  0  0  0  0  0  0  0  0  0  0  0
   22.7889   -4.2807  -14.3808 O   0  0  0  0  0  0  0  0  0  0  0  0
   20.8653   -4.5326  -16.2592 O   0  0  0  0  0  0  0  0  0  0  0  0
   22.2908   -6.0375  -13.0544 O   0  0  0  0  0  0  0  0  0  0  0  0
  2  1  1  0
  3  2  1  0
  3  4  1  6
  5  7  1  0
  5  3  1  0
  5  6  1  1
  7  8  2  0
  9 13  1  0
  9  7  1  0
 10  9  1  0
 11 10  1  0
 11 12  1  0
 12 13  1  0
 14 15  2  0
 13 14  1  6
 16 14  1  0
 17 16  1  0
 17 21  1  0
 17 18  1  1
 19 20  2  0
 19 18  1  0
 21 22  1  0
 23 19  1  0
 24 21  2  0
M  END
$$$$
