IPD.pdb
     RDKit          3D

 24 24  0  0  1  0  0  0  0  0999 V2000
   16.1550  -12.2844  -19.1341 C   0  0  0  0  0  0  0  0  0  0  0  0
   17.5599  -12.9054  -19.1347 C   0  0  0  0  0  0  0  0  0  0  0  0
   18.4744  -11.8912  -18.5359 C   0  0  2  0  0  0  0  0  0  0  0  0
   18.4444  -10.6282  -19.3244 C   0  0  0  0  0  0  0  0  0  0  0  0
   19.8635  -12.4176  -18.2555 C   0  0  2  0  0  0  0  0  0  0  0  0
   19.7688  -13.6095  -17.4763 N   0  0  0  0  0  0  0  0  0  0  0  0
   20.7946  -11.4085  -17.7327 C   0  0  0  0  0  0  0  0  0  0  0  0
   20.6041  -11.0208  -16.5483 O   0  0  0  0  0  0  0  0  0  0  0  0
   21.8869  -10.8455  -18.4684 N   0  0  0  0  0  0  0  0  0  0  0  0
   22.2476  -11.3210  -19.7864 C   0  0  0  0  0  0  0  0  0  0  0  0
   23.5253  -10.6083  -20.1584 C   0  0  0  0  0  0  0  0  0  0  0  0
   23.3933   -9.3372  -19.3851 C   0  0  0  0  0  0  0  0  0  0  0  0
   22.7684   -9.8093  -18.0929 C   0  0  1  0  0  0  0  0  0  0  0  0
   22.1146   -8.6118  -17.4991 C   0  0  0  0  0  0  0  0  0  0  0  0
   20.9671   -8.2115  -17.8121 O   0  0  0  0  0  0  0  0  0  0  0  0
   22.8156   -7.8694  -16.5220 N   0  0  0  0  0  0  0  0  0  0  0  0
   22.2834   -6.7233  -15.8331 C   0  0  1  0  0  0  0  0  0  0  0  0
   22.5423   -6.7309  -14.3569 C   0  0  0  0  0  0  0  0  0  0  0  0
   21.9254   -5.5990  -13.6458 C   0  0  0  0  0  0  0  0  0  0  0  0
   20.9595   -4.9197  -14.0538 O   0  0  0  0  0  0  0  0  0  0  0  0
   22.8498   -5.4687  -16.3939 C   0  0  0  0  0  0  0  0  0  0  0  0
   23.8931   -5.4554  -17.3068 O   0  0  0  0  0  0  0  0  0  0  0  0
   22.4624   -5.2524  -12.4104 O   0  0  0  0  0  0  0  0  0  0  0  0
   22.3810   -4.3566  -16.0421 O   0  0  0  0  0  0  0  0  0  0  0  0
  2  1  1  0
  3  2  1  0
  3  4  1  6
  5  7  1  0
  5  3  1  0
  5  6  1  1
  7  8  2  0
  9 13  1  0
  9  7  1  0
 10  9  1  0
 11 10  1  0
 11 12  1  0
 12 13  1  0
 14 15  2  0
 13 14  1  6
 16 14  1  0
 17 16  1  0
 17 21  1  0
 17 18  1  1
 19 20  2  0
 19 18  1  0
 21 22  1  0
 23 19  1  0
 24 21  2  0
M  END
$$$$
