IPD.pdb
     RDKit          3D

 24 24  0  0  1  0  0  0  0  0999 V2000
   19.0654  -11.4517  -21.1471 C   0  0  0  0  0  0  0  0  0  0  0  0
   19.7213  -12.3047  -20.0510 C   0  0  0  0  0  0  0  0  0  0  0  0
   20.0250  -11.3833  -18.9186 C   0  0  2  0  0  0  0  0  0  0  0  0
   20.9696  -10.3162  -19.3504 C   0  0  0  0  0  0  0  0  0  0  0  0
   20.4292  -12.0964  -17.6482 C   0  0  2  0  0  0  0  0  0  0  0  0
   19.4807  -13.1230  -17.3603 N   0  0  0  0  0  0  0  0  0  0  0  0
   20.7302  -11.1987  -16.5248 C   0  0  0  0  0  0  0  0  0  0  0  0
   19.8166  -10.4043  -16.1733 O   0  0  0  0  0  0  0  0  0  0  0  0
   21.9734  -11.1674  -15.8142 N   0  0  0  0  0  0  0  0  0  0  0  0
   22.9604  -12.2161  -15.9526 C   0  0  0  0  0  0  0  0  0  0  0  0
   24.0401  -11.9173  -14.9408 C   0  0  0  0  0  0  0  0  0  0  0  0
   23.9416  -10.4310  -14.8303 C   0  0  0  0  0  0  0  0  0  0  0  0
   22.4501  -10.2003  -14.9036 C   0  0  1  0  0  0  0  0  0  0  0  0
   22.2807   -8.7880  -15.3403 C   0  0  0  0  0  0  0  0  0  0  0  0
   22.1987   -8.4298  -16.5403 O   0  0  0  0  0  0  0  0  0  0  0  0
   22.2059   -7.7768  -14.3558 N   0  0  0  0  0  0  0  0  0  0  0  0
   22.0013   -6.3802  -14.6368 C   0  0  1  0  0  0  0  0  0  0  0  0
   20.6548   -6.0709  -15.2177 C   0  0  0  0  0  0  0  0  0  0  0  0
   20.4402   -4.6373  -15.4745 C   0  0  0  0  0  0  0  0  0  0  0  0
   21.3333   -3.7964  -15.7109 O   0  0  0  0  0  0  0  0  0  0  0  0
   22.1673   -5.5702  -13.4015 C   0  0  0  0  0  0  0  0  0  0  0  0
   22.5604   -4.2409  -13.4195 O   0  0  0  0  0  0  0  0  0  0  0  0
   19.1286   -4.1745  -15.4529 O   0  0  0  0  0  0  0  0  0  0  0  0
   21.9483   -6.0886  -12.2773 O   0  0  0  0  0  0  0  0  0  0  0  0
  2  1  1  0
  3  2  1  0
  3  4  1  6
  5  7  1  0
  5  3  1  0
  5  6  1  1
  7  8  2  0
  9 13  1  0
  9  7  1  0
 10  9  1  0
 11 10  1  0
 11 12  1  0
 12 13  1  0
 14 15  2  0
 13 14  1  6
 16 14  1  0
 17 16  1  0
 17 21  1  0
 17 18  1  1
 19 20  2  0
 19 18  1  0
 21 22  1  0
 23 19  1  0
 24 21  2  0
M  END
$$$$
