IPD.pdb
     RDKit          3D

 24 24  0  0  1  0  0  0  0  0999 V2000
   19.8276  -11.9040  -21.4147 C   0  0  0  0  0  0  0  0  0  0  0  0
   20.4365  -12.6925  -20.2456 C   0  0  0  0  0  0  0  0  0  0  0  0
   20.6038  -11.7269  -19.1217 C   0  0  2  0  0  0  0  0  0  0  0  0
   21.5186  -10.6193  -19.5144 C   0  0  0  0  0  0  0  0  0  0  0  0
   20.9500  -12.3834  -17.8046 C   0  0  2  0  0  0  0  0  0  0  0  0
   20.0489  -13.4635  -17.5637 N   0  0  0  0  0  0  0  0  0  0  0  0
   21.1025  -11.4431  -16.6861 C   0  0  0  0  0  0  0  0  0  0  0  0
   20.0662  -10.8263  -16.3185 O   0  0  0  0  0  0  0  0  0  0  0  0
   22.3313  -11.1853  -15.9969 N   0  0  0  0  0  0  0  0  0  0  0  0
   23.4910  -12.0355  -16.1567 C   0  0  0  0  0  0  0  0  0  0  0  0
   24.5156  -11.5449  -15.1624 C   0  0  0  0  0  0  0  0  0  0  0  0
   24.1487  -10.1018  -15.0442 C   0  0  0  0  0  0  0  0  0  0  0  0
   22.6390  -10.1480  -15.0907 C   0  0  1  0  0  0  0  0  0  0  0  0
   22.2063   -8.7903  -15.5186 C   0  0  0  0  0  0  0  0  0  0  0  0
   21.7922   -8.5167  -16.6714 O   0  0  0  0  0  0  0  0  0  0  0  0
   22.2588   -7.7337  -14.5815 N   0  0  0  0  0  0  0  0  0  0  0  0
   21.8330   -6.3853  -14.8498 C   0  0  1  0  0  0  0  0  0  0  0  0
   20.3880   -6.2718  -15.2307 C   0  0  0  0  0  0  0  0  0  0  0  0
   19.9682   -4.8956  -15.5426 C   0  0  0  0  0  0  0  0  0  0  0  0
   19.3162   -4.1428  -14.7884 O   0  0  0  0  0  0  0  0  0  0  0  0
   22.0665   -5.5195  -13.6643 C   0  0  0  0  0  0  0  0  0  0  0  0
   22.4791   -4.1998  -13.7650 O   0  0  0  0  0  0  0  0  0  0  0  0
   20.3275   -4.3850  -16.7855 O   0  0  0  0  0  0  0  0  0  0  0  0
   21.8896   -5.9787  -12.5075 O   0  0  0  0  0  0  0  0  0  0  0  0
  2  1  1  0
  3  2  1  0
  3  4  1  6
  5  7  1  0
  5  3  1  0
  5  6  1  1
  7  8  2  0
  9 13  1  0
  9  7  1  0
 10  9  1  0
 11 10  1  0
 11 12  1  0
 12 13  1  0
 14 15  2  0
 13 14  1  6
 16 14  1  0
 17 16  1  0
 17 21  1  0
 17 18  1  1
 19 20  2  0
 19 18  1  0
 21 22  1  0
 23 19  1  0
 24 21  2  0
M  END
$$$$
