IPD.pdb
     RDKit          3D

 24 24  0  0  1  0  0  0  0  0999 V2000
   21.8997  -18.6555  -16.6118 C   0  0  0  0  0  0  0  0  0  0  0  0
   22.9344  -19.2274  -15.6313 C   0  0  0  0  0  0  0  0  0  0  0  0
   22.1698  -19.9807  -14.5962 C   0  0  2  0  0  0  0  0  0  0  0  0
   21.0645  -19.1454  -14.0501 C   0  0  0  0  0  0  0  0  0  0  0  0
   23.0445  -20.6221  -13.5431 C   0  0  2  0  0  0  0  0  0  0  0  0
   24.1448  -21.2744  -14.1760 N   0  0  0  0  0  0  0  0  0  0  0  0
   22.3110  -21.4460  -12.5728 C   0  0  0  0  0  0  0  0  0  0  0  0
   21.6579  -22.4202  -13.0352 O   0  0  0  0  0  0  0  0  0  0  0  0
   22.2896  -21.2189  -11.1588 N   0  0  0  0  0  0  0  0  0  0  0  0
   23.1675  -20.2595  -10.5246 C   0  0  0  0  0  0  0  0  0  0  0  0
   22.9680  -20.4222   -9.0371 C   0  0  0  0  0  0  0  0  0  0  0  0
   21.5590  -20.9142   -8.9775 C   0  0  0  0  0  0  0  0  0  0  0  0
   21.4880  -21.8346  -10.1738 C   0  0  1  0  0  0  0  0  0  0  0  0
   20.0438  -21.9424  -10.5155 C   0  0  0  0  0  0  0  0  0  0  0  0
   19.4073  -21.0701  -11.1551 O   0  0  0  0  0  0  0  0  0  0  0  0
   19.3316  -23.0908  -10.1017 N   0  0  0  0  0  0  0  0  0  0  0  0
   17.9161  -23.2794  -10.2803 C   0  0  1  0  0  0  0  0  0  0  0  0
   17.4240  -24.6233   -9.8353 C   0  0  0  0  0  0  0  0  0  0  0  0
   18.0319  -25.7451  -10.5697 C   0  0  0  0  0  0  0  0  0  0  0  0
   18.3415  -26.8535  -10.0834 O   0  0  0  0  0  0  0  0  0  0  0  0
   17.1542  -22.2408   -9.5384 C   0  0  0  0  0  0  0  0  0  0  0  0
   17.4581  -21.8689   -8.2379 O   0  0  0  0  0  0  0  0  0  0  0  0
   18.2854  -25.5583  -11.9245 O   0  0  0  0  0  0  0  0  0  0  0  0
   16.1869  -21.6581  -10.0908 O   0  0  0  0  0  0  0  0  0  0  0  0
  2  1  1  0
  3  2  1  0
  3  4  1  1
  5  7  1  0
  5  3  1  0
  5  6  1  6
  7  8  2  0
  9 13  1  0
  9  7  1  0
 10  9  1  0
 11 10  1  0
 11 12  1  0
 12 13  1  0
 14 15  2  0
 13 14  1  6
 16 14  1  0
 17 16  1  0
 17 21  1  0
 17 18  1  1
 19 20  2  0
 19 18  1  0
 21 22  1  0
 23 19  1  0
 24 21  2  0
M  END
$$$$
