IPD.pdb
     RDKit          3D

 24 24  0  0  1  0  0  0  0  0999 V2000
   15.6969  -11.7577  -17.9385 C   0  0  0  0  0  0  0  0  0  0  0  0
   17.0547  -12.0886  -17.3013 C   0  0  0  0  0  0  0  0  0  0  0  0
   17.5175  -10.8478  -16.6159 C   0  0  2  0  0  0  0  0  0  0  0  0
   17.7949   -9.7732  -17.6088 C   0  0  0  0  0  0  0  0  0  0  0  0
   18.6343  -11.0832  -15.6244 C   0  0  2  0  0  0  0  0  0  0  0  0
   18.2850  -12.1705  -14.7686 N   0  0  0  0  0  0  0  0  0  0  0  0
   19.0878   -9.8702  -14.9307 C   0  0  0  0  0  0  0  0  0  0  0  0
   18.1919   -9.1044  -14.4832 O   0  0  0  0  0  0  0  0  0  0  0  0
   20.4589   -9.5063  -14.7326 N   0  0  0  0  0  0  0  0  0  0  0  0
   21.5382  -10.4464  -14.9441 C   0  0  0  0  0  0  0  0  0  0  0  0
   22.7983   -9.7547  -14.4829 C   0  0  0  0  0  0  0  0  0  0  0  0
   22.4533   -8.3204  -14.7166 C   0  0  0  0  0  0  0  0  0  0  0  0
   20.9970   -8.2697  -14.3168 C   0  0  1  0  0  0  0  0  0  0  0  0
   20.4314   -7.0758  -15.0015 C   0  0  0  0  0  0  0  0  0  0  0  0
   20.0034   -7.0808  -16.1813 O   0  0  0  0  0  0  0  0  0  0  0  0
   20.3653   -5.8544  -14.2936 N   0  0  0  0  0  0  0  0  0  0  0  0
   19.8433   -4.6270  -14.8343 C   0  0  1  0  0  0  0  0  0  0  0  0
   18.5958   -4.1490  -14.1551 C   0  0  0  0  0  0  0  0  0  0  0  0
   18.0611   -2.8987  -14.7191 C   0  0  0  0  0  0  0  0  0  0  0  0
   18.3717   -2.4048  -15.8238 O   0  0  0  0  0  0  0  0  0  0  0  0
   20.8591   -3.5453  -14.7466 C   0  0  0  0  0  0  0  0  0  0  0  0
   21.0293   -2.5898  -15.7367 O   0  0  0  0  0  0  0  0  0  0  0  0
   17.1275   -2.2032  -13.9579 O   0  0  0  0  0  0  0  0  0  0  0  0
   21.6103   -3.4701  -13.7415 O   0  0  0  0  0  0  0  0  0  0  0  0
  2  1  1  0
  3  2  1  0
  3  4  1  6
  5  7  1  0
  5  3  1  0
  5  6  1  1
  7  8  2  0
  9 13  1  0
  9  7  1  0
 10  9  1  0
 11 10  1  0
 11 12  1  0
 12 13  1  0
 14 15  2  0
 13 14  1  6
 16 14  1  0
 17 16  1  0
 17 21  1  0
 17 18  1  1
 19 20  2  0
 19 18  1  0
 21 22  1  0
 23 19  1  0
 24 21  2  0
M  END
$$$$
