IPD.pdb
     RDKit          3D

 24 24  0  0  1  0  0  0  0  0999 V2000
   26.1385  -21.3885   -8.2381 C   0  0  0  0  0  0  0  0  0  0  0  0
   26.4925  -20.1857   -9.1254 C   0  0  0  0  0  0  0  0  0  0  0  0
   25.5078  -20.1778  -10.2452 C   0  0  2  0  0  0  0  0  0  0  0  0
   24.1452  -20.5135   -9.7469 C   0  0  0  0  0  0  0  0  0  0  0  0
   25.9482  -20.9841  -11.4458 C   0  0  2  0  0  0  0  0  0  0  0  0
   27.3580  -20.8444  -11.6175 N   0  0  0  0  0  0  0  0  0  0  0  0
   25.1503  -20.7448  -12.6560 C   0  0  0  0  0  0  0  0  0  0  0  0
   24.6582  -19.5921  -12.7920 O   0  0  0  0  0  0  0  0  0  0  0  0
   24.8990  -21.7194  -13.6751 N   0  0  0  0  0  0  0  0  0  0  0  0
   25.6330  -22.9644  -13.7408 C   0  0  0  0  0  0  0  0  0  0  0  0
   25.2076  -23.6393  -15.0224 C   0  0  0  0  0  0  0  0  0  0  0  0
   23.8243  -23.1034  -15.1963 C   0  0  0  0  0  0  0  0  0  0  0  0
   23.9738  -21.6707  -14.7397 C   0  0  1  0  0  0  0  0  0  0  0  0
   22.6058  -21.2217  -14.3639 C   0  0  0  0  0  0  0  0  0  0  0  0
   22.2682  -20.9010  -13.1985 O   0  0  0  0  0  0  0  0  0  0  0  0
   21.6154  -21.1465  -15.3692 N   0  0  0  0  0  0  0  0  0  0  0  0
   20.3256  -20.5315  -15.1973 C   0  0  1  0  0  0  0  0  0  0  0  0
   20.3918  -19.0804  -14.8285 C   0  0  0  0  0  0  0  0  0  0  0  0
   19.0750  -18.4233  -14.7872 C   0  0  0  0  0  0  0  0  0  0  0  0
   18.2039  -18.5891  -13.9071 O   0  0  0  0  0  0  0  0  0  0  0  0
   19.5196  -20.6548  -16.4402 C   0  0  0  0  0  0  0  0  0  0  0  0
   20.0879  -20.7212  -17.7029 O   0  0  0  0  0  0  0  0  0  0  0  0
   18.7703  -17.5393  -15.8170 O   0  0  0  0  0  0  0  0  0  0  0  0
   18.2652  -20.7032  -16.3722 O   0  0  0  0  0  0  0  0  0  0  0  0
  2  1  1  0
  3  2  1  0
  3  4  1  1
  5  7  1  0
  5  3  1  0
  5  6  1  6
  7  8  2  0
  9 13  1  0
  9  7  1  0
 10  9  1  0
 11 10  1  0
 11 12  1  0
 12 13  1  0
 14 15  2  0
 13 14  1  1
 16 14  1  0
 17 16  1  0
 17 21  1  0
 17 18  1  6
 19 20  2  0
 19 18  1  0
 21 22  1  0
 23 19  1  0
 24 21  2  0
M  END
$$$$
