IPD.pdb
     RDKit          3D

 24 24  0  0  1  0  0  0  0  0999 V2000
   22.6805  -15.5061  -19.9726 C   0  0  0  0  0  0  0  0  0  0  0  0
   23.5345  -15.4445  -18.6974 C   0  0  0  0  0  0  0  0  0  0  0  0
   23.3135  -14.0956  -18.1013 C   0  0  2  0  0  0  0  0  0  0  0  0
   23.6190  -13.0279  -19.0936 C   0  0  0  0  0  0  0  0  0  0  0  0
   23.9834  -13.9085  -16.7590 C   0  0  2  0  0  0  0  0  0  0  0  0
   23.7293  -15.0500  -15.9410 N   0  0  0  0  0  0  0  0  0  0  0  0
   23.7019  -12.6151  -16.1218 C   0  0  0  0  0  0  0  0  0  0  0  0
   22.4945  -12.3619  -15.8619 O   0  0  0  0  0  0  0  0  0  0  0  0
   24.6930  -11.6386  -15.7818 N   0  0  0  0  0  0  0  0  0  0  0  0
   26.1089  -11.9145  -15.8938 C   0  0  0  0  0  0  0  0  0  0  0  0
   26.8204  -10.7231  -15.2995 C   0  0  0  0  0  0  0  0  0  0  0  0
   25.8331   -9.6309  -15.5503 C   0  0  0  0  0  0  0  0  0  0  0  0
   24.5142  -10.3244  -15.2994 C   0  0  1  0  0  0  0  0  0  0  0  0
   23.4917   -9.5223  -16.0240 C   0  0  0  0  0  0  0  0  0  0  0  0
   23.2514   -9.6354  -17.2506 O   0  0  0  0  0  0  0  0  0  0  0  0
   22.7368   -8.5712  -15.3010 N   0  0  0  0  0  0  0  0  0  0  0  0
   21.7019   -7.7492  -15.8709 C   0  0  1  0  0  0  0  0  0  0  0  0
   20.3431   -8.3809  -15.8420 C   0  0  0  0  0  0  0  0  0  0  0  0
   19.2760   -7.5042  -16.3519 C   0  0  0  0  0  0  0  0  0  0  0  0
   19.4248   -6.5760  -17.1747 O   0  0  0  0  0  0  0  0  0  0  0  0
   21.6199   -6.4467  -15.1593 C   0  0  0  0  0  0  0  0  0  0  0  0
   20.8809   -5.3742  -15.6344 O   0  0  0  0  0  0  0  0  0  0  0  0
   17.9871   -7.7258  -15.8781 O   0  0  0  0  0  0  0  0  0  0  0  0
   22.2381   -6.2831  -14.0770 O   0  0  0  0  0  0  0  0  0  0  0  0
  2  1  1  0
  3  2  1  0
  3  4  1  6
  5  7  1  0
  5  3  1  0
  5  6  1  1
  7  8  2  0
  9 13  1  0
  9  7  1  0
 10  9  1  0
 11 10  1  0
 11 12  1  0
 12 13  1  0
 14 15  2  0
 13 14  1  6
 16 14  1  0
 17 16  1  0
 17 21  1  0
 17 18  1  1
 19 20  2  0
 19 18  1  0
 21 22  1  0
 23 19  1  0
 24 21  2  0
M  END
$$$$
