IPD.pdb
     RDKit          3D

 24 24  0  0  1  0  0  0  0  0999 V2000
   19.3528  -11.6340    5.9244 C   0  0  0  0  0  0  0  0  0  0  0  0
   18.3702  -12.1484    4.8618 C   0  0  0  0  0  0  0  0  0  0  0  0
   18.0234  -13.5475    5.2438 C   0  0  2  0  0  0  0  0  0  0  0  0
   19.2567  -14.3625    5.4236 C   0  0  0  0  0  0  0  0  0  0  0  0
   16.9834  -14.1807    4.3477 C   0  0  2  0  0  0  0  0  0  0  0  0
   15.7766  -13.4219    4.4148 N   0  0  0  0  0  0  0  0  0  0  0  0
   16.8175  -15.6267    4.5479 C   0  0  0  0  0  0  0  0  0  0  0  0
   16.3612  -15.9959    5.6637 O   0  0  0  0  0  0  0  0  0  0  0  0
   17.1351  -16.6282    3.5746 N   0  0  0  0  0  0  0  0  0  0  0  0
   17.4207  -16.2925    2.1965 C   0  0  0  0  0  0  0  0  0  0  0  0
   17.5436  -17.6035    1.4583 C   0  0  0  0  0  0  0  0  0  0  0  0
   18.0102  -18.5150    2.5457 C   0  0  0  0  0  0  0  0  0  0  0  0
   17.2185  -18.0277    3.7369 C   0  0  1  0  0  0  0  0  0  0  0  0
   17.9753  -18.4775    4.9364 C   0  0  0  0  0  0  0  0  0  0  0  0
   18.7261  -17.7328    5.6123 O   0  0  0  0  0  0  0  0  0  0  0  0
   17.8517  -19.8224    5.3528 N   0  0  0  0  0  0  0  0  0  0  0  0
   18.5085  -20.3819    6.5047 C   0  0  1  0  0  0  0  0  0  0  0  0
   17.8283  -20.0652    7.8021 C   0  0  0  0  0  0  0  0  0  0  0  0
   18.4703  -20.6895    8.9705 C   0  0  0  0  0  0  0  0  0  0  0  0
   19.6958  -20.8880    9.1107 O   0  0  0  0  0  0  0  0  0  0  0  0
   18.6039  -21.8604    6.3833 C   0  0  0  0  0  0  0  0  0  0  0  0
   19.5596  -22.6108    7.0507 O   0  0  0  0  0  0  0  0  0  0  0  0
   17.6429  -21.0955   10.0124 O   0  0  0  0  0  0  0  0  0  0  0  0
   17.7950  -22.4831    5.6496 O   0  0  0  0  0  0  0  0  0  0  0  0
  2  1  1  0
  3  2  1  0
  3  4  1  6
  5  7  1  0
  5  3  1  0
  5  6  1  1
  7  8  2  0
  9 13  1  0
  9  7  1  0
 10  9  1  0
 11 10  1  0
 11 12  1  0
 12 13  1  0
 14 15  2  0
 13 14  1  1
 16 14  1  0
 17 16  1  0
 17 21  1  0
 17 18  1  1
 19 20  2  0
 19 18  1  0
 21 22  1  0
 23 19  1  0
 24 21  2  0
M  END
$$$$
