IPD.pdb
     RDKit          3D

 24 24  0  0  1  0  0  0  0  0999 V2000
   26.4714  -14.2754  -14.8986 C   0  0  0  0  0  0  0  0  0  0  0  0
   25.3546  -14.4402  -15.9401 C   0  0  0  0  0  0  0  0  0  0  0  0
   24.5868  -13.1619  -15.9477 C   0  0  2  0  0  0  0  0  0  0  0  0
   24.0510  -12.8645  -14.5904 C   0  0  0  0  0  0  0  0  0  0  0  0
   23.5608  -13.0772  -17.0547 C   0  0  2  0  0  0  0  0  0  0  0  0
   24.1545  -13.4979  -18.2824 N   0  0  0  0  0  0  0  0  0  0  0  0
   22.8502  -11.7929  -17.1187 C   0  0  0  0  0  0  0  0  0  0  0  0
   23.5586  -10.7592  -17.2575 O   0  0  0  0  0  0  0  0  0  0  0  0
   21.4285  -11.6405  -17.0351 N   0  0  0  0  0  0  0  0  0  0  0  0
   20.5333  -12.7762  -17.0803 C   0  0  0  0  0  0  0  0  0  0  0  0
   19.1346  -12.2107  -17.1304 C   0  0  0  0  0  0  0  0  0  0  0  0
   19.3140  -10.9088  -16.4205 C   0  0  0  0  0  0  0  0  0  0  0  0
   20.6693  -10.4571  -16.9129 C   0  0  1  0  0  0  0  0  0  0  0  0
   21.1678   -9.4924  -15.8957 C   0  0  0  0  0  0  0  0  0  0  0  0
   22.1383   -9.7169  -15.1322 O   0  0  0  0  0  0  0  0  0  0  0  0
   20.5195   -8.2429  -15.7692 N   0  0  0  0  0  0  0  0  0  0  0  0
   20.9656   -7.1772  -14.9109 C   0  0  1  0  0  0  0  0  0  0  0  0
   22.3406   -6.6759  -15.2337 C   0  0  0  0  0  0  0  0  0  0  0  0
   22.7443   -5.5087  -14.4325 C   0  0  0  0  0  0  0  0  0  0  0  0
   22.4808   -5.3259  -13.2251 O   0  0  0  0  0  0  0  0  0  0  0  0
   20.0277   -6.0261  -14.9788 C   0  0  0  0  0  0  0  0  0  0  0  0
   19.4205   -5.6177  -16.1564 O   0  0  0  0  0  0  0  0  0  0  0  0
   23.4844   -4.5203  -15.0728 O   0  0  0  0  0  0  0  0  0  0  0  0
   19.7553   -5.3765  -13.9376 O   0  0  0  0  0  0  0  0  0  0  0  0
  2  1  1  0
  3  2  1  0
  3  4  1  1
  5  7  1  0
  5  3  1  0
  5  6  1  6
  7  8  2  0
  9 13  1  0
  9  7  1  0
 10  9  1  0
 11 10  1  0
 11 12  1  0
 12 13  1  0
 14 15  2  0
 13 14  1  1
 16 14  1  0
 17 16  1  0
 17 21  1  0
 17 18  1  6
 19 20  2  0
 19 18  1  0
 21 22  1  0
 23 19  1  0
 24 21  2  0
M  END
$$$$
