MWT.pdb
     RDKit          3D

 30 31  0  0  1  0  0  0  0  0999 V2000
    8.4883  -11.8469   20.1418 C   0  0  0  0  0  0  0  0  0  0  0  0
    7.1711  -12.8353   19.3818 S   0  0  0  0  0  0  0  0  0  0  0  0
    7.5114  -14.5890   19.6954 C   0  0  0  0  0  0  0  0  0  0  0  0
    8.5434  -14.6599   20.7759 C   0  0  0  0  0  0  0  0  0  0  0  0
    8.9085  -16.1139   21.1248 C   0  0  2  0  0  0  0  0  0  0  0  0
    7.6511  -16.7747   21.3909 N   0  0  0  0  0  0  0  0  0  0  0  0
    9.6908  -16.0041   22.3781 C   0  0  0  0  0  0  0  0  0  0  0  0
   10.7967  -15.4078   22.3139 O   0  0  0  0  0  0  0  0  0  0  0  0
    9.2171  -16.5460   23.5955 N   0  0  0  0  0  0  0  0  0  0  0  0
    9.9859  -16.5103   24.8466 C   0  0  1  0  0  0  0  0  0  0  0  0
    9.6653  -15.2993   25.6266 C   0  0  0  0  0  0  0  0  0  0  0  0
    8.2725  -14.8973   25.7476 C   0  0  0  0  0  0  0  0  0  0  0  0
    7.1615  -15.7010   25.6174 C   0  0  0  0  0  0  0  0  0  0  0  0
    6.0334  -14.9605   25.7678 N   0  0  0  0  0  0  0  0  0  0  0  0
    6.4166  -13.6897   25.9934 C   0  0  0  0  0  0  0  0  0  0  0  0
    5.6619  -12.5629   26.2216 C   0  0  0  0  0  0  0  0  0  0  0  0
    6.2670  -11.3222   26.4540 C   0  0  0  0  0  0  0  0  0  0  0  0
    7.6445  -11.2397   26.4516 C   0  0  0  0  0  0  0  0  0  0  0  0
    8.3773  -12.3729   26.2216 C   0  0  0  0  0  0  0  0  0  0  0  0
    7.8043  -13.6300   25.9850 C   0  0  0  0  0  0  0  0  0  0  0  0
    9.9706  -17.8035   25.5171 C   0  0  0  0  0  0  0  0  0  0  0  0
    8.9737  -18.5544   25.6409 O   0  0  0  0  0  0  0  0  0  0  0  0
   11.7551  -20.8690   24.6293 C   0  0  0  0  0  0  0  0  0  0  0  0
   12.2495  -20.5039   26.0330 C   0  0  1  0  0  0  0  0  0  0  0  0
   13.5004  -19.9081   25.9576 O   0  0  0  0  0  0  0  0  0  0  0  0
   11.2344  -19.6068   26.7089 C   0  0  2  0  0  0  0  0  0  0  0  0
   11.1795  -18.2993   26.1020 N   0  0  0  0  0  0  0  0  0  0  0  0
   11.7085  -19.4982   28.1386 C   0  0  0  0  0  0  0  0  0  0  0  0
   11.6878  -20.6187   28.9294 O   0  0  0  0  0  0  0  0  0  0  0  0
   12.1148  -18.4171   28.6096 O   0  0  0  0  0  0  0  0  0  0  0  0
  2  3  1  0
  2  1  1  0
  4  3  1  0
  5  4  1  0
  5  6  1  1
  7  8  2  0
  7  5  1  0
  9  7  1  0
 10  9  1  0
 10 11  1  1
 12 13  2  0
 12 11  1  0
 14 13  1  0
 15 20  2  0
 15 14  1  0
 16 15  1  0
 17 18  1  0
 17 16  2  0
 18 19  2  0
 19 20  1  0
 20 12  1  0
 21 10  1  0
 21 22  2  0
 24 23  1  6
 25 24  1  0
 26 27  1  6
 26 24  1  0
 27 21  1  0
 28 26  1  0
 29 28  1  0
 30 28  2  0
M  END
$$$$
