MWT.pdb
     RDKit          3D

 30 31  0  0  1  0  0  0  0  0999 V2000
    7.5168  -11.6357   20.8925 C   0  0  0  0  0  0  0  0  0  0  0  0
    6.7682  -12.7079   19.6355 S   0  0  0  0  0  0  0  0  0  0  0  0
    7.0987  -14.4351   20.0793 C   0  0  0  0  0  0  0  0  0  0  0  0
    8.4396  -14.4802   20.7407 C   0  0  0  0  0  0  0  0  0  0  0  0
    8.9127  -15.9254   20.9786 C   0  0  2  0  0  0  0  0  0  0  0  0
    7.7539  -16.7554   20.7397 N   0  0  0  0  0  0  0  0  0  0  0  0
    9.2665  -15.9626   22.4167 C   0  0  0  0  0  0  0  0  0  0  0  0
   10.1949  -15.2046   22.7991 O   0  0  0  0  0  0  0  0  0  0  0  0
    8.5914  -16.8132   23.3228 N   0  0  0  0  0  0  0  0  0  0  0  0
    9.0204  -17.0121   24.7135 C   0  0  1  0  0  0  0  0  0  0  0  0
    7.8761  -16.8986   25.6382 C   0  0  0  0  0  0  0  0  0  0  0  0
    7.1256  -15.6528   25.6680 C   0  0  0  0  0  0  0  0  0  0  0  0
    5.8128  -15.4647   25.2958 C   0  0  0  0  0  0  0  0  0  0  0  0
    5.4742  -14.1571   25.4353 N   0  0  0  0  0  0  0  0  0  0  0  0
    6.5615  -13.5094   25.8942 C   0  0  0  0  0  0  0  0  0  0  0  0
    6.7360  -12.1824   26.2102 C   0  0  0  0  0  0  0  0  0  0  0  0
    7.9610  -11.7096   26.6953 C   0  0  0  0  0  0  0  0  0  0  0  0
    9.0044  -12.5985   26.8551 C   0  0  0  0  0  0  0  0  0  0  0  0
    8.8103  -13.9149   26.5339 C   0  0  0  0  0  0  0  0  0  0  0  0
    7.5981  -14.4216   26.0457 C   0  0  0  0  0  0  0  0  0  0  0  0
    9.9130  -18.1568   24.8359 C   0  0  0  0  0  0  0  0  0  0  0  0
    9.5607  -19.3454   25.0262 O   0  0  0  0  0  0  0  0  0  0  0  0
   13.0573  -18.8571   22.4970 C   0  0  0  0  0  0  0  0  0  0  0  0
   13.4732  -18.8548   23.9718 C   0  0  1  0  0  0  0  0  0  0  0  0
   14.1408  -17.6771   24.2767 O   0  0  0  0  0  0  0  0  0  0  0  0
   12.2505  -19.0544   24.8420 C   0  0  2  0  0  0  0  0  0  0  0  0
   11.3264  -17.9517   24.7374 N   0  0  0  0  0  0  0  0  0  0  0  0
   12.7910  -19.1499   26.2489 C   0  0  0  0  0  0  0  0  0  0  0  0
   12.4728  -18.1643   27.1482 O   0  0  0  0  0  0  0  0  0  0  0  0
   13.5158  -20.1004   26.6049 O   0  0  0  0  0  0  0  0  0  0  0  0
  2  3  1  0
  2  1  1  0
  4  3  1  0
  5  4  1  0
  5  6  1  1
  7  8  2  0
  7  5  1  0
  9  7  1  0
 10  9  1  0
 10 11  1  1
 12 13  2  0
 12 11  1  0
 14 13  1  0
 15 20  2  0
 15 14  1  0
 16 15  1  0
 17 18  1  0
 17 16  2  0
 18 19  2  0
 19 20  1  0
 20 12  1  0
 21 10  1  0
 21 22  2  0
 24 23  1  6
 25 24  1  0
 26 27  1  1
 26 24  1  0
 27 21  1  0
 28 26  1  0
 29 28  1  0
 30 28  2  0
M  END
$$$$
