MWT.pdb
     RDKit          3D

 30 31  0  0  1  0  0  0  0  0999 V2000
    6.9421  -11.9359   18.3516 C   0  0  0  0  0  0  0  0  0  0  0  0
    8.5956  -12.6433   18.1164 S   0  0  0  0  0  0  0  0  0  0  0  0
    8.6603  -14.2504   18.9547 C   0  0  0  0  0  0  0  0  0  0  0  0
   10.0141  -14.8344   18.7025 C   0  0  0  0  0  0  0  0  0  0  0  0
   10.2068  -16.1726   19.4382 C   0  0  2  0  0  0  0  0  0  0  0  0
    9.1090  -17.0098   19.0110 N   0  0  0  0  0  0  0  0  0  0  0  0
   10.0461  -15.8292   20.8703 C   0  0  0  0  0  0  0  0  0  0  0  0
   10.9190  -15.0822   21.3829 O   0  0  0  0  0  0  0  0  0  0  0  0
    8.9591  -16.3193   21.6309 N   0  0  0  0  0  0  0  0  0  0  0  0
    8.7716  -16.0170   23.0560 C   0  0  1  0  0  0  0  0  0  0  0  0
    7.4363  -15.4381   23.2996 C   0  0  0  0  0  0  0  0  0  0  0  0
    7.0425  -15.1474   24.6695 C   0  0  0  0  0  0  0  0  0  0  0  0
    6.4068  -15.9956   25.5490 C   0  0  0  0  0  0  0  0  0  0  0  0
    6.1779  -15.3572   26.7254 N   0  0  0  0  0  0  0  0  0  0  0  0
    6.6635  -14.1075   26.6030 C   0  0  0  0  0  0  0  0  0  0  0  0
    6.6913  -13.0739   27.5098 C   0  0  0  0  0  0  0  0  0  0  0  0
    7.2669  -11.8406   27.1828 C   0  0  0  0  0  0  0  0  0  0  0  0
    7.8125  -11.6697   25.9269 C   0  0  0  0  0  0  0  0  0  0  0  0
    7.7737  -12.7107   25.0388 C   0  0  0  0  0  0  0  0  0  0  0  0
    7.2052  -13.9577   25.3328 C   0  0  0  0  0  0  0  0  0  0  0  0
    9.2258  -17.1164   23.8970 C   0  0  0  0  0  0  0  0  0  0  0  0
    8.8538  -18.3108   23.8081 O   0  0  0  0  0  0  0  0  0  0  0  0
   12.4271  -18.5987   24.0313 C   0  0  0  0  0  0  0  0  0  0  0  0
   12.2147  -18.1133   25.4691 C   0  0  1  0  0  0  0  0  0  0  0  0
   12.9335  -16.9469   25.6893 O   0  0  0  0  0  0  0  0  0  0  0  0
   10.7347  -17.9234   25.7250 C   0  0  2  0  0  0  0  0  0  0  0  0
   10.1813  -16.8542   24.9303 N   0  0  0  0  0  0  0  0  0  0  0  0
   10.6384  -17.5848   27.1936 C   0  0  0  0  0  0  0  0  0  0  0  0
   10.9338  -18.5551   28.1170 O   0  0  0  0  0  0  0  0  0  0  0  0
   10.2977  -16.4486   27.5788 O   0  0  0  0  0  0  0  0  0  0  0  0
  2  3  1  0
  2  1  1  0
  4  3  1  0
  5  4  1  0
  5  6  1  6
  7  8  2  0
  7  5  1  0
  9  7  1  0
 10  9  1  0
 10 11  1  6
 12 13  2  0
 12 11  1  0
 14 13  1  0
 15 20  2  0
 15 14  1  0
 16 15  1  0
 17 18  1  0
 17 16  2  0
 18 19  2  0
 19 20  1  0
 20 12  1  0
 21 10  1  0
 21 22  2  0
 24 23  1  6
 25 24  1  0
 26 27  1  6
 26 24  1  0
 27 21  1  0
 28 26  1  0
 29 28  1  0
 30 28  2  0
M  END
$$$$
