MWT.pdb
     RDKit          3D

 30 31  0  0  1  0  0  0  0  0999 V2000
    7.6046  -11.6288   20.5194 C   0  0  0  0  0  0  0  0  0  0  0  0
    7.8847  -12.6364   19.0375 S   0  0  0  0  0  0  0  0  0  0  0  0
    7.6577  -14.3819   19.4751 C   0  0  0  0  0  0  0  0  0  0  0  0
    8.3626  -14.6145   20.7738 C   0  0  0  0  0  0  0  0  0  0  0  0
    8.6343  -16.1097   21.0183 C   0  0  2  0  0  0  0  0  0  0  0  0
    7.3372  -16.7467   20.9958 N   0  0  0  0  0  0  0  0  0  0  0  0
    9.1928  -16.1608   22.3895 C   0  0  0  0  0  0  0  0  0  0  0  0
   10.2503  -15.5137   22.6028 O   0  0  0  0  0  0  0  0  0  0  0  0
    8.5661  -16.9047   23.4161 N   0  0  0  0  0  0  0  0  0  0  0  0
    9.1043  -17.0092   24.7789 C   0  0  1  0  0  0  0  0  0  0  0  0
    8.0540  -16.7439   25.7809 C   0  0  0  0  0  0  0  0  0  0  0  0
    7.2195  -15.5633   25.6194 C   0  0  0  0  0  0  0  0  0  0  0  0
    5.9326  -15.5162   25.1307 C   0  0  0  0  0  0  0  0  0  0  0  0
    5.4942  -14.2314   25.1024 N   0  0  0  0  0  0  0  0  0  0  0  0
    6.4921  -13.4581   25.5700 C   0  0  0  0  0  0  0  0  0  0  0  0
    6.5476  -12.0963   25.7535 C   0  0  0  0  0  0  0  0  0  0  0  0
    7.6923  -11.4832   26.2763 C   0  0  0  0  0  0  0  0  0  0  0  0
    8.7775  -12.2678   26.6095 C   0  0  0  0  0  0  0  0  0  0  0  0
    8.7022  -13.6212   26.4183 C   0  0  0  0  0  0  0  0  0  0  0  0
    7.5728  -14.2672   25.8970 C   0  0  0  0  0  0  0  0  0  0  0  0
    9.9392  -18.1932   24.9314 C   0  0  0  0  0  0  0  0  0  0  0  0
    9.6614  -19.3451   24.5205 O   0  0  0  0  0  0  0  0  0  0  0  0
   13.3152  -19.0629   23.7607 C   0  0  0  0  0  0  0  0  0  0  0  0
   13.4024  -19.0995   25.2902 C   0  0  1  0  0  0  0  0  0  0  0  0
   14.0517  -17.9658   25.7576 O   0  0  0  0  0  0  0  0  0  0  0  0
   12.0117  -19.2365   25.8725 C   0  0  2  0  0  0  0  0  0  0  0  0
   11.1969  -18.0766   25.6053 N   0  0  0  0  0  0  0  0  0  0  0  0
   12.2303  -19.3886   27.3590 C   0  0  0  0  0  0  0  0  0  0  0  0
   12.9049  -20.4907   27.8192 O   0  0  0  0  0  0  0  0  0  0  0  0
   11.8117  -18.5377   28.1691 O   0  0  0  0  0  0  0  0  0  0  0  0
  2  3  1  0
  2  1  1  0
  4  3  1  0
  5  4  1  0
  5  6  1  1
  7  8  2  0
  7  5  1  0
  9  7  1  0
 10  9  1  0
 10 11  1  1
 12 13  2  0
 12 11  1  0
 14 13  1  0
 15 20  2  0
 15 14  1  0
 16 15  1  0
 17 18  1  0
 17 16  2  0
 18 19  2  0
 19 20  1  0
 20 12  1  0
 21 10  1  0
 21 22  2  0
 24 23  1  6
 25 24  1  0
 26 27  1  1
 26 24  1  0
 27 21  1  0
 28 26  1  0
 29 28  1  0
 30 28  2  0
M  END
$$$$
