MWT.pdb
     RDKit          3D

 30 31  0  0  1  0  0  0  0  0999 V2000
    8.2943  -11.6803   19.8548 C   0  0  0  0  0  0  0  0  0  0  0  0
    7.0922  -13.0294   20.0120 S   0  0  0  0  0  0  0  0  0  0  0  0
    7.9819  -14.6077   19.9283 C   0  0  0  0  0  0  0  0  0  0  0  0
    8.8260  -14.7131   21.1588 C   0  0  0  0  0  0  0  0  0  0  0  0
    9.2653  -16.1633   21.4295 C   0  0  2  0  0  0  0  0  0  0  0  0
    8.1130  -16.9797   21.1225 N   0  0  0  0  0  0  0  0  0  0  0  0
    9.5300  -16.1995   22.8866 C   0  0  0  0  0  0  0  0  0  0  0  0
   10.4028  -15.4100   23.3312 O   0  0  0  0  0  0  0  0  0  0  0  0
    8.8331  -17.0831   23.7432 N   0  0  0  0  0  0  0  0  0  0  0  0
    9.0882  -17.1744   25.1869 C   0  0  1  0  0  0  0  0  0  0  0  0
    7.8568  -16.9112   25.9562 C   0  0  0  0  0  0  0  0  0  0  0  0
    7.1151  -15.6891   25.6868 C   0  0  0  0  0  0  0  0  0  0  0  0
    5.9137  -15.5757   25.0228 C   0  0  0  0  0  0  0  0  0  0  0  0
    5.5503  -14.2700   24.9416 N   0  0  0  0  0  0  0  0  0  0  0  0
    6.5111  -13.5491   25.5495 C   0  0  0  0  0  0  0  0  0  0  0  0
    6.6103  -12.1918   25.7476 C   0  0  0  0  0  0  0  0  0  0  0  0
    7.7003  -11.6384   26.4297 C   0  0  0  0  0  0  0  0  0  0  0  0
    8.6861  -12.4779   26.9068 C   0  0  0  0  0  0  0  0  0  0  0  0
    8.5689  -13.8258   26.6982 C   0  0  0  0  0  0  0  0  0  0  0  0
    7.4921  -14.4128   26.0196 C   0  0  0  0  0  0  0  0  0  0  0  0
    9.8835  -18.3506   25.5129 C   0  0  0  0  0  0  0  0  0  0  0  0
    9.6230  -19.5298   25.1742 O   0  0  0  0  0  0  0  0  0  0  0  0
   13.3811  -19.2896   24.7742 C   0  0  0  0  0  0  0  0  0  0  0  0
   13.2907  -19.2438   26.3032 C   0  0  1  0  0  0  0  0  0  0  0  0
   13.9006  -18.0931   26.7823 O   0  0  0  0  0  0  0  0  0  0  0  0
   11.8400  -19.3344   26.7267 C   0  0  2  0  0  0  0  0  0  0  0  0
   11.0764  -18.1919   26.2883 N   0  0  0  0  0  0  0  0  0  0  0  0
   11.8821  -19.3854   28.2355 C   0  0  0  0  0  0  0  0  0  0  0  0
   12.4953  -20.4504   28.8446 O   0  0  0  0  0  0  0  0  0  0  0  0
   11.3734  -18.4844   28.9318 O   0  0  0  0  0  0  0  0  0  0  0  0
  2  3  1  0
  2  1  1  0
  4  3  1  0
  5  4  1  0
  5  6  1  1
  7  8  2  0
  7  5  1  0
  9  7  1  0
 10  9  1  0
 10 11  1  1
 12 13  2  0
 12 11  1  0
 14 13  1  0
 15 20  2  0
 15 14  1  0
 16 15  1  0
 17 18  1  0
 17 16  2  0
 18 19  2  0
 19 20  1  0
 20 12  1  0
 21 10  1  0
 21 22  2  0
 24 23  1  6
 25 24  1  0
 26 27  1  1
 26 24  1  0
 27 21  1  0
 28 26  1  0
 29 28  1  0
 30 28  2  0
M  END
$$$$
