MWT.pdb
     RDKit          3D

 30 31  0  0  1  0  0  0  0  0999 V2000
    8.2554  -11.4526   20.1165 C   0  0  0  0  0  0  0  0  0  0  0  0
    6.9533  -12.5539   19.4989 S   0  0  0  0  0  0  0  0  0  0  0  0
    7.5906  -14.2519   19.4884 C   0  0  0  0  0  0  0  0  0  0  0  0
    7.7139  -14.6941   20.9122 C   0  0  0  0  0  0  0  0  0  0  0  0
    8.3843  -16.0748   21.0271 C   0  0  2  0  0  0  0  0  0  0  0  0
    7.3008  -17.0187   21.1810 N   0  0  0  0  0  0  0  0  0  0  0  0
    9.1642  -15.9994   22.2844 C   0  0  0  0  0  0  0  0  0  0  0  0
   10.1850  -15.2641   22.2833 O   0  0  0  0  0  0  0  0  0  0  0  0
    8.7800  -16.7223   23.4376 N   0  0  0  0  0  0  0  0  0  0  0  0
    9.5505  -16.7133   24.6882 C   0  0  1  0  0  0  0  0  0  0  0  0
    8.6541  -16.6330   25.8576 C   0  0  0  0  0  0  0  0  0  0  0  0
    7.5617  -15.6726   25.8333 C   0  0  0  0  0  0  0  0  0  0  0  0
    6.2290  -15.9360   25.6062 C   0  0  0  0  0  0  0  0  0  0  0  0
    5.5170  -14.7801   25.6319 N   0  0  0  0  0  0  0  0  0  0  0  0
    6.3860  -13.7808   25.8742 C   0  0  0  0  0  0  0  0  0  0  0  0
    6.1689  -12.4294   26.0084 C   0  0  0  0  0  0  0  0  0  0  0  0
    7.2243  -11.5509   26.2800 C   0  0  0  0  0  0  0  0  0  0  0  0
    8.5000  -12.0600   26.4132 C   0  0  0  0  0  0  0  0  0  0  0  0
    8.6949  -13.4079   26.2751 C   0  0  0  0  0  0  0  0  0  0  0  0
    7.6617  -14.3151   26.0028 C   0  0  0  0  0  0  0  0  0  0  0  0
   10.5992  -17.7243   24.6737 C   0  0  0  0  0  0  0  0  0  0  0  0
   10.4225  -18.9657   24.7002 O   0  0  0  0  0  0  0  0  0  0  0  0
   13.3557  -17.8808   22.0850 C   0  0  0  0  0  0  0  0  0  0  0  0
   14.0423  -17.8863   23.4550 C   0  0  1  0  0  0  0  0  0  0  0  0
   14.6187  -16.6489   23.7040 O   0  0  0  0  0  0  0  0  0  0  0  0
   13.0385  -18.2686   24.5218 C   0  0  2  0  0  0  0  0  0  0  0  0
   11.9680  -17.3074   24.6264 N   0  0  0  0  0  0  0  0  0  0  0  0
   13.8348  -18.3034   25.8046 C   0  0  0  0  0  0  0  0  0  0  0  0
   14.8072  -19.2591   25.9540 O   0  0  0  0  0  0  0  0  0  0  0  0
   13.6257  -17.4859   26.7231 O   0  0  0  0  0  0  0  0  0  0  0  0
  2  3  1  0
  2  1  1  0
  4  3  1  0
  5  4  1  0
  5  6  1  1
  7  8  2  0
  7  5  1  0
  9  7  1  0
 10  9  1  0
 10 11  1  1
 12 13  2  0
 12 11  1  0
 14 13  1  0
 15 20  2  0
 15 14  1  0
 16 15  1  0
 17 18  1  0
 17 16  2  0
 18 19  2  0
 19 20  1  0
 20 12  1  0
 21 10  1  0
 21 22  2  0
 24 23  1  6
 25 24  1  0
 26 27  1  1
 26 24  1  0
 27 21  1  0
 28 26  1  0
 29 28  1  0
 30 28  2  0
M  END
$$$$
