MWT.pdb
     RDKit          3D

 30 31  0  0  1  0  0  0  0  0999 V2000
    8.0599  -11.7879   20.6201 C   0  0  0  0  0  0  0  0  0  0  0  0
    7.5968  -12.8490   19.2239 S   0  0  0  0  0  0  0  0  0  0  0  0
    7.3366  -14.5344   19.8415 C   0  0  0  0  0  0  0  0  0  0  0  0
    8.0434  -14.6454   21.1552 C   0  0  0  0  0  0  0  0  0  0  0  0
    8.6442  -16.0467   21.3658 C   0  0  2  0  0  0  0  0  0  0  0  0
    7.5285  -16.9617   21.2836 N   0  0  0  0  0  0  0  0  0  0  0  0
    9.1654  -16.0169   22.7522 C   0  0  0  0  0  0  0  0  0  0  0  0
   10.0132  -15.1292   23.0276 O   0  0  0  0  0  0  0  0  0  0  0  0
    8.7304  -16.9456   23.7260 N   0  0  0  0  0  0  0  0  0  0  0  0
    9.3412  -17.0634   25.0567 C   0  0  1  0  0  0  0  0  0  0  0  0
    8.3398  -16.8384   26.1169 C   0  0  0  0  0  0  0  0  0  0  0  0
    7.4194  -15.7203   25.9796 C   0  0  0  0  0  0  0  0  0  0  0  0
    6.1356  -15.7574   25.4817 C   0  0  0  0  0  0  0  0  0  0  0  0
    5.6014  -14.5090   25.4836 N   0  0  0  0  0  0  0  0  0  0  0  0
    6.5350  -13.6755   25.9796 C   0  0  0  0  0  0  0  0  0  0  0  0
    6.4862  -12.3188   26.1992 C   0  0  0  0  0  0  0  0  0  0  0  0
    7.5779  -11.6353   26.7474 C   0  0  0  0  0  0  0  0  0  0  0  0
    8.7172  -12.3444   27.0688 C   0  0  0  0  0  0  0  0  0  0  0  0
    8.7458  -13.6939   26.8414 C   0  0  0  0  0  0  0  0  0  0  0  0
    7.6718  -14.4092   26.2941 C   0  0  0  0  0  0  0  0  0  0  0  0
   10.2065  -18.2322   25.1429 C   0  0  0  0  0  0  0  0  0  0  0  0
    9.8319  -19.4281   25.0925 O   0  0  0  0  0  0  0  0  0  0  0  0
   14.8390  -20.0268   25.3357 C   0  0  0  0  0  0  0  0  0  0  0  0
   13.9566  -18.7760   25.2664 C   0  0  1  0  0  0  0  0  0  0  0  0
   14.1609  -18.1149   24.0635 O   0  0  0  0  0  0  0  0  0  0  0  0
   12.5071  -19.1688   25.4578 C   0  0  2  0  0  0  0  0  0  0  0  0
   11.6169  -18.0447   25.3006 N   0  0  0  0  0  0  0  0  0  0  0  0
   12.4351  -19.6969   26.8708 C   0  0  0  0  0  0  0  0  0  0  0  0
   12.9533  -20.9379   27.1405 O   0  0  0  0  0  0  0  0  0  0  0  0
   11.9169  -19.0309   27.7892 O   0  0  0  0  0  0  0  0  0  0  0  0
  2  3  1  0
  2  1  1  0
  4  3  1  0
  5  4  1  0
  5  6  1  1
  7  8  2  0
  7  5  1  0
  9  7  1  0
 10  9  1  0
 10 11  1  1
 12 13  2  0
 12 11  1  0
 14 13  1  0
 15 20  2  0
 15 14  1  0
 16 15  1  0
 17 18  1  0
 17 16  2  0
 18 19  2  0
 19 20  1  0
 20 12  1  0
 21 10  1  0
 21 22  2  0
 24 23  1  6
 25 24  1  0
 26 27  1  1
 26 24  1  0
 27 21  1  0
 28 26  1  0
 29 28  1  0
 30 28  2  0
M  END
$$$$
