MWT.pdb
     RDKit          3D

 30 31  0  0  1  0  0  0  0  0999 V2000
    8.3667  -13.7630   13.7286 C   0  0  0  0  0  0  0  0  0  0  0  0
    8.4830  -13.3365   15.4877 S   0  0  0  0  0  0  0  0  0  0  0  0
    8.0658  -14.8055   16.4664 C   0  0  0  0  0  0  0  0  0  0  0  0
    8.3114  -14.4720   17.9038 C   0  0  0  0  0  0  0  0  0  0  0  0
    7.9986  -15.6615   18.8293 C   0  0  2  0  0  0  0  0  0  0  0  0
    6.5908  -15.9329   18.6472 N   0  0  0  0  0  0  0  0  0  0  0  0
    8.2341  -15.1352   20.1939 C   0  0  0  0  0  0  0  0  0  0  0  0
    7.8468  -13.9620   20.4313 O   0  0  0  0  0  0  0  0  0  0  0  0
    8.8672  -15.9160   21.1888 N   0  0  0  0  0  0  0  0  0  0  0  0
    8.7358  -15.6493   22.6272 C   0  0  1  0  0  0  0  0  0  0  0  0
    7.3406  -15.3178   22.9753 C   0  0  0  0  0  0  0  0  0  0  0  0
    7.0213  -15.0181   24.3626 C   0  0  0  0  0  0  0  0  0  0  0  0
    6.5118  -15.8851   25.3038 C   0  0  0  0  0  0  0  0  0  0  0  0
    6.3175  -15.2324   26.4784 N   0  0  0  0  0  0  0  0  0  0  0  0
    6.6998  -13.9548   26.2937 C   0  0  0  0  0  0  0  0  0  0  0  0
    6.7132  -12.8970   27.1724 C   0  0  0  0  0  0  0  0  0  0  0  0
    7.1722  -11.6348   26.7777 C   0  0  0  0  0  0  0  0  0  0  0  0
    7.6162  -11.4602   25.4829 C   0  0  0  0  0  0  0  0  0  0  0  0
    7.5938  -12.5257   24.6237 C   0  0  0  0  0  0  0  0  0  0  0  0
    7.1406  -13.8017   24.9854 C   0  0  0  0  0  0  0  0  0  0  0  0
    9.4402  -16.6483   23.4197 C   0  0  0  0  0  0  0  0  0  0  0  0
    9.0571  -17.8243   23.6271 O   0  0  0  0  0  0  0  0  0  0  0  0
   13.3546  -17.2577   23.1145 C   0  0  0  0  0  0  0  0  0  0  0  0
   12.9573  -17.0391   24.5783 C   0  0  1  0  0  0  0  0  0  0  0  0
   13.3238  -15.7644   24.9861 O   0  0  0  0  0  0  0  0  0  0  0  0
   11.4715  -17.2804   24.7401 C   0  0  2  0  0  0  0  0  0  0  0  0
   10.6843  -16.2982   24.0355 N   0  0  0  0  0  0  0  0  0  0  0  0
   11.2247  -17.1774   26.2265 C   0  0  0  0  0  0  0  0  0  0  0  0
   11.8147  -18.0929   27.0601 O   0  0  0  0  0  0  0  0  0  0  0  0
   10.4998  -16.2826   26.7056 O   0  0  0  0  0  0  0  0  0  0  0  0
  2  3  1  0
  2  1  1  0
  4  3  1  0
  5  4  1  0
  5  6  1  1
  7  8  2  0
  7  5  1  0
  9  7  1  0
 10  9  1  0
 10 11  1  1
 12 13  2  0
 12 11  1  0
 14 13  1  0
 15 20  2  0
 15 14  1  0
 16 15  1  0
 17 18  1  0
 17 16  2  0
 18 19  2  0
 19 20  1  0
 20 12  1  0
 21 10  1  0
 21 22  2  0
 24 23  1  6
 25 24  1  0
 26 27  1  6
 26 24  1  0
 27 21  1  0
 28 26  1  0
 29 28  1  0
 30 28  2  0
M  END
$$$$
