MWT.pdb
     RDKit          3D

 30 31  0  0  1  0  0  0  0  0999 V2000
    9.6813  -21.2705   18.9955 C   0  0  0  0  0  0  0  0  0  0  0  0
   11.3862  -20.6621   18.8804 S   0  0  0  0  0  0  0  0  0  0  0  0
   11.3440  -18.8577   18.7012 C   0  0  0  0  0  0  0  0  0  0  0  0
   10.0489  -18.3794   19.2769 C   0  0  0  0  0  0  0  0  0  0  0  0
    9.8761  -16.8587   19.1129 C   0  0  2  0  0  0  0  0  0  0  0  0
   11.0727  -16.4041   18.4419 N   0  0  0  0  0  0  0  0  0  0  0  0
    9.8538  -16.3412   20.5008 C   0  0  0  0  0  0  0  0  0  0  0  0
   10.9637  -16.0929   21.0386 O   0  0  0  0  0  0  0  0  0  0  0  0
    8.6383  -16.1346   21.1938 N   0  0  0  0  0  0  0  0  0  0  0  0
    8.5732  -15.7629   22.6134 C   0  0  1  0  0  0  0  0  0  0  0  0
    7.2923  -15.1000   22.9253 C   0  0  0  0  0  0  0  0  0  0  0  0
    6.9984  -14.7695   24.3111 C   0  0  0  0  0  0  0  0  0  0  0  0
    6.4496  -15.5983   25.2645 C   0  0  0  0  0  0  0  0  0  0  0  0
    6.2981  -14.9241   26.4333 N   0  0  0  0  0  0  0  0  0  0  0  0
    6.7468  -13.6707   26.2327 C   0  0  0  0  0  0  0  0  0  0  0  0
    6.8223  -12.6061   27.1001 C   0  0  0  0  0  0  0  0  0  0  0  0
    7.3455  -11.3745   26.6893 C   0  0  0  0  0  0  0  0  0  0  0  0
    7.7897  -11.2371   25.3900 C   0  0  0  0  0  0  0  0  0  0  0  0
    7.7048  -12.3086   24.5424 C   0  0  0  0  0  0  0  0  0  0  0  0
    7.1866  -13.5549   24.9203 C   0  0  0  0  0  0  0  0  0  0  0  0
    9.0294  -16.8501   23.4690 C   0  0  0  0  0  0  0  0  0  0  0  0
    8.5139  -17.9910   23.5440 O   0  0  0  0  0  0  0  0  0  0  0  0
   12.3744  -18.5450   23.5530 C   0  0  0  0  0  0  0  0  0  0  0  0
   12.1530  -17.9306   24.9393 C   0  0  1  0  0  0  0  0  0  0  0  0
   12.8885  -16.7606   25.0648 O   0  0  0  0  0  0  0  0  0  0  0  0
   10.6734  -17.6959   25.1575 C   0  0  2  0  0  0  0  0  0  0  0  0
   10.1636  -16.6403   24.3169 N   0  0  0  0  0  0  0  0  0  0  0  0
   10.5561  -17.3065   26.6120 C   0  0  0  0  0  0  0  0  0  0  0  0
   10.0679  -16.0640   26.9270 O   0  0  0  0  0  0  0  0  0  0  0  0
   10.8927  -18.0875   27.5243 O   0  0  0  0  0  0  0  0  0  0  0  0
  2  3  1  0
  2  1  1  0
  4  3  1  0
  5  4  1  0
  5  6  1  6
  7  8  2  0
  7  5  1  0
  9  7  1  0
 10  9  1  0
 10 11  1  1
 12 13  2  0
 12 11  1  0
 14 13  1  0
 15 20  2  0
 15 14  1  0
 16 15  1  0
 17 18  1  0
 17 16  2  0
 18 19  2  0
 19 20  1  0
 20 12  1  0
 21 10  1  0
 21 22  2  0
 24 23  1  6
 25 24  1  0
 26 27  1  6
 26 24  1  0
 27 21  1  0
 28 26  1  0
 29 28  1  0
 30 28  2  0
M  END
$$$$
