MWT.pdb
     RDKit          3D

 30 31  0  0  1  0  0  0  0  0999 V2000
    8.0273  -11.6289   20.4652 C   0  0  0  0  0  0  0  0  0  0  0  0
    7.3125  -12.6951   19.1838 S   0  0  0  0  0  0  0  0  0  0  0  0
    7.0827  -14.3555   19.8767 C   0  0  0  0  0  0  0  0  0  0  0  0
    8.0083  -14.4868   21.0444 C   0  0  0  0  0  0  0  0  0  0  0  0
    8.4725  -15.9404   21.2467 C   0  0  2  0  0  0  0  0  0  0  0  0
    7.2651  -16.7050   21.4619 N   0  0  0  0  0  0  0  0  0  0  0  0
    9.2681  -15.9000   22.4957 C   0  0  0  0  0  0  0  0  0  0  0  0
   10.3217  -15.2126   22.4829 O   0  0  0  0  0  0  0  0  0  0  0  0
    8.8630  -16.6034   23.6538 N   0  0  0  0  0  0  0  0  0  0  0  0
    9.6926  -16.7136   24.8610 C   0  0  1  0  0  0  0  0  0  0  0  0
    8.8867  -16.4839   26.0756 C   0  0  0  0  0  0  0  0  0  0  0  0
    7.7793  -15.5430   26.0091 C   0  0  0  0  0  0  0  0  0  0  0  0
    6.4578  -15.8323   25.7501 C   0  0  0  0  0  0  0  0  0  0  0  0
    5.7259  -14.6886   25.7411 N   0  0  0  0  0  0  0  0  0  0  0  0
    6.5710  -13.6713   25.9930 C   0  0  0  0  0  0  0  0  0  0  0  0
    6.3274  -12.3223   26.1030 C   0  0  0  0  0  0  0  0  0  0  0  0
    7.3601  -11.4222   26.3908 C   0  0  0  0  0  0  0  0  0  0  0  0
    8.6402  -11.9074   26.5649 C   0  0  0  0  0  0  0  0  0  0  0  0
    8.8615  -13.2534   26.4504 C   0  0  0  0  0  0  0  0  0  0  0  0
    7.8516  -14.1818   26.1629 C   0  0  0  0  0  0  0  0  0  0  0  0
   10.5619  -17.8811   24.8039 C   0  0  0  0  0  0  0  0  0  0  0  0
   10.2417  -19.0511   25.1227 O   0  0  0  0  0  0  0  0  0  0  0  0
   12.6402  -18.8329   21.6766 C   0  0  0  0  0  0  0  0  0  0  0  0
   13.5805  -18.7598   22.8844 C   0  0  1  0  0  0  0  0  0  0  0  0
   14.3271  -17.5911   22.8368 O   0  0  0  0  0  0  0  0  0  0  0  0
   12.7729  -18.8646   24.1606 C   0  0  2  0  0  0  0  0  0  0  0  0
   11.9106  -17.7239   24.3501 N   0  0  0  0  0  0  0  0  0  0  0  0
   13.8027  -18.9284   25.2634 C   0  0  0  0  0  0  0  0  0  0  0  0
   14.6015  -20.0393   25.3593 O   0  0  0  0  0  0  0  0  0  0  0  0
   13.9387  -17.9972   26.0819 O   0  0  0  0  0  0  0  0  0  0  0  0
  2  3  1  0
  2  1  1  0
  4  3  1  0
  5  4  1  0
  5  6  1  1
  7  8  2  0
  7  5  1  0
  9  7  1  0
 10  9  1  0
 10 11  1  1
 12 13  2  0
 12 11  1  0
 14 13  1  0
 15 20  2  0
 15 14  1  0
 16 15  1  0
 17 18  1  0
 17 16  2  0
 18 19  2  0
 19 20  1  0
 20 12  1  0
 21 10  1  0
 21 22  2  0
 24 23  1  6
 25 24  1  0
 26 27  1  1
 26 24  1  0
 27 21  1  0
 28 26  1  0
 29 28  1  0
 30 28  2  0
M  END
$$$$
