MWT.pdb
     RDKit          3D

 30 31  0  0  1  0  0  0  0  0999 V2000
    8.3186  -11.6723   20.0221 C   0  0  0  0  0  0  0  0  0  0  0  0
    8.1125  -13.1110   18.9369 S   0  0  0  0  0  0  0  0  0  0  0  0
    6.7028  -14.0851   19.5316 C   0  0  0  0  0  0  0  0  0  0  0  0
    7.0410  -14.5723   20.9048 C   0  0  0  0  0  0  0  0  0  0  0  0
    7.9014  -15.8480   20.8643 C   0  0  2  0  0  0  0  0  0  0  0  0
    6.9652  -16.9474   20.9242 N   0  0  0  0  0  0  0  0  0  0  0  0
    8.6923  -15.7958   22.1158 C   0  0  0  0  0  0  0  0  0  0  0  0
    9.6408  -14.9705   22.1613 O   0  0  0  0  0  0  0  0  0  0  0  0
    8.3961  -16.6369   23.2136 N   0  0  0  0  0  0  0  0  0  0  0  0
    9.1914  -16.6604   24.4483 C   0  0  1  0  0  0  0  0  0  0  0  0
    8.3192  -16.5991   25.6370 C   0  0  0  0  0  0  0  0  0  0  0  0
    7.3616  -15.5092   25.7427 C   0  0  0  0  0  0  0  0  0  0  0  0
    5.9982  -15.5807   25.5605 C   0  0  0  0  0  0  0  0  0  0  0  0
    5.4449  -14.3501   25.7132 N   0  0  0  0  0  0  0  0  0  0  0  0
    6.4456  -13.4937   25.9919 C   0  0  0  0  0  0  0  0  0  0  0  0
    6.4121  -12.1422   26.2440 C   0  0  0  0  0  0  0  0  0  0  0  0
    7.5828  -11.4314   26.5331 C   0  0  0  0  0  0  0  0  0  0  0  0
    8.7852  -12.1080   26.5629 C   0  0  0  0  0  0  0  0  0  0  0  0
    8.7969  -13.4529   26.3082 C   0  0  0  0  0  0  0  0  0  0  0  0
    7.6444  -14.1948   26.0151 C   0  0  0  0  0  0  0  0  0  0  0  0
   10.2321  -17.6782   24.3910 C   0  0  0  0  0  0  0  0  0  0  0  0
   10.0462  -18.9114   24.2587 O   0  0  0  0  0  0  0  0  0  0  0  0
   15.0029  -18.7390   23.6961 C   0  0  0  0  0  0  0  0  0  0  0  0
   13.8989  -17.6768   23.7295 C   0  0  1  0  0  0  0  0  0  0  0  0
   13.6238  -17.2351   22.4431 O   0  0  0  0  0  0  0  0  0  0  0  0
   12.6708  -18.2454   24.4080 C   0  0  2  0  0  0  0  0  0  0  0  0
   11.6032  -17.2790   24.4920 N   0  0  0  0  0  0  0  0  0  0  0  0
   13.1383  -18.6272   25.7924 C   0  0  0  0  0  0  0  0  0  0  0  0
   13.9992  -19.6859   25.9314 O   0  0  0  0  0  0  0  0  0  0  0  0
   12.7585  -18.0029   26.8031 O   0  0  0  0  0  0  0  0  0  0  0  0
  2  3  1  0
  2  1  1  0
  4  3  1  0
  5  4  1  0
  5  6  1  1
  7  8  2  0
  7  5  1  0
  9  7  1  0
 10  9  1  0
 10 11  1  1
 12 13  2  0
 12 11  1  0
 14 13  1  0
 15 20  2  0
 15 14  1  0
 16 15  1  0
 17 18  1  0
 17 16  2  0
 18 19  2  0
 19 20  1  0
 20 12  1  0
 21 10  1  0
 21 22  2  0
 24 23  1  6
 25 24  1  0
 26 27  1  1
 26 24  1  0
 27 21  1  0
 28 26  1  0
 29 28  1  0
 30 28  2  0
M  END
$$$$
