MWT.pdb
     RDKit          3D

 30 31  0  0  1  0  0  0  0  0999 V2000
    9.8969  -18.6199   18.3511 C   0  0  0  0  0  0  0  0  0  0  0  0
    8.2266  -18.2188   17.7688 S   0  0  0  0  0  0  0  0  0  0  0  0
    7.6419  -16.7510   18.6594 C   0  0  0  0  0  0  0  0  0  0  0  0
    7.7486  -17.0415   20.1228 C   0  0  0  0  0  0  0  0  0  0  0  0
    7.2148  -15.8785   20.9781 C   0  0  2  0  0  0  0  0  0  0  0  0
    7.2430  -14.7196   20.1150 N   0  0  0  0  0  0  0  0  0  0  0  0
    8.2204  -15.7246   22.0550 C   0  0  0  0  0  0  0  0  0  0  0  0
    9.1614  -14.9151   21.8501 O   0  0  0  0  0  0  0  0  0  0  0  0
    8.1290  -16.4555   23.2623 N   0  0  0  0  0  0  0  0  0  0  0  0
    9.0874  -16.3112   24.3661 C   0  0  1  0  0  0  0  0  0  0  0  0
    8.3864  -16.1954   25.6595 C   0  0  0  0  0  0  0  0  0  0  0  0
    7.3678  -15.1678   25.8101 C   0  0  0  0  0  0  0  0  0  0  0  0
    6.0021  -15.3370   25.7524 C   0  0  0  0  0  0  0  0  0  0  0  0
    5.3797  -14.1404   25.9088 N   0  0  0  0  0  0  0  0  0  0  0  0
    6.3386  -13.2086   26.0663 C   0  0  0  0  0  0  0  0  0  0  0  0
    6.2329  -11.8529   26.2712 C   0  0  0  0  0  0  0  0  0  0  0  0
    7.3718  -11.0546   26.4293 C   0  0  0  0  0  0  0  0  0  0  0  0
    8.6165  -11.6482   26.3768 C   0  0  0  0  0  0  0  0  0  0  0  0
    8.6998  -12.9990   26.1711 C   0  0  0  0  0  0  0  0  0  0  0  0
    7.5809  -13.8273   26.0085 C   0  0  0  0  0  0  0  0  0  0  0  0
   10.1860  -17.2600   24.2438 C   0  0  0  0  0  0  0  0  0  0  0  0
   10.0856  -18.5093   24.2909 O   0  0  0  0  0  0  0  0  0  0  0  0
   13.2491  -16.7188   21.7131 C   0  0  0  0  0  0  0  0  0  0  0  0
   13.7616  -17.0623   23.1158 C   0  0  1  0  0  0  0  0  0  0  0  0
   14.2926  -15.9311   23.7192 O   0  0  0  0  0  0  0  0  0  0  0  0
   12.6371  -17.6644   23.9313 C   0  0  2  0  0  0  0  0  0  0  0  0
   11.5157  -16.7652   24.0527 N   0  0  0  0  0  0  0  0  0  0  0  0
   13.2442  -17.9265   25.2890 C   0  0  0  0  0  0  0  0  0  0  0  0
   14.2189  -18.8847   25.4041 O   0  0  0  0  0  0  0  0  0  0  0  0
   12.8782  -17.2932   26.2992 O   0  0  0  0  0  0  0  0  0  0  0  0
  2  3  1  0
  2  1  1  0
  4  3  1  0
  5  4  1  0
  5  6  1  6
  7  8  2  0
  7  5  1  0
  9  7  1  0
 10  9  1  0
 10 11  1  1
 12 13  2  0
 12 11  1  0
 14 13  1  0
 15 20  2  0
 15 14  1  0
 16 15  1  0
 17 18  1  0
 17 16  2  0
 18 19  2  0
 19 20  1  0
 20 12  1  0
 21 10  1  0
 21 22  2  0
 24 23  1  6
 25 24  1  0
 26 27  1  1
 26 24  1  0
 27 21  1  0
 28 26  1  0
 29 28  1  0
 30 28  2  0
M  END
$$$$
