GGQ.pdb
     RDKit          3D

 18 17  0  0  1  0  0  0  0  0999 V2000
   28.8491  -28.0139  -16.1190 N   0  0  0  0  0  0  0  0  0  0  0  0
   28.1621  -26.8528  -16.5930 C   0  0  0  0  0  0  0  0  0  0  0  0
   26.7796  -27.1710  -17.0643 C   0  0  0  0  0  0  0  0  0  0  0  0
   26.0142  -27.7566  -16.2451 O   0  0  0  0  0  0  0  0  0  0  0  0
   26.3330  -26.8399  -18.3607 N   0  0  0  0  0  0  0  0  0  0  0  0
   24.9797  -27.0873  -18.7566 C   0  0  0  0  0  0  0  0  0  0  0  0
   24.0917  -25.9896  -18.3128 C   0  0  0  0  0  0  0  0  0  0  0  0
   22.8956  -25.9888  -18.6983 O   0  0  0  0  0  0  0  0  0  0  0  0
   22.5537  -25.4402  -12.9732 N   0  0  0  0  0  0  0  0  0  0  0  0
   21.8741  -24.2986  -13.4585 C   0  0  0  0  0  0  0  0  0  0  0  0
   20.9850  -23.7814  -12.7516 O   0  0  0  0  0  0  0  0  0  0  0  0
   22.2154  -23.7445  -14.7649 C   0  0  0  0  0  0  0  0  0  0  0  0
   23.2278  -24.5241  -15.5320 C   0  0  0  0  0  0  0  0  0  0  0  0
   23.5727  -23.9857  -16.8815 C   0  0  2  0  0  0  0  0  0  0  0  0
   24.5265  -24.9374  -17.4723 N   0  0  0  0  0  0  0  0  0  0  0  0
   24.2721  -22.6585  -16.7730 C   0  0  0  0  0  0  0  0  0  0  0  0
   25.5262  -22.5944  -16.7870 O   0  0  0  0  0  0  0  0  0  0  0  0
   23.5435  -21.4894  -16.6562 O   0  0  0  0  0  0  0  0  0  0  0  0
  2  1  1  0
  3  2  1  0
  4  3  2  0
  5  3  1  0
  6  5  1  0
  7  6  1  0
  7  8  2  0
 10  9  1  0
 10 12  1  0
 11 10  2  0
 13 12  1  0
 14 13  1  1
 14 15  1  0
 15  7  1  0
 16 18  1  0
 16 14  1  0
 17 16  2  0
M  END
$$$$
