GGQ.pdb
     RDKit          3D

 18 17  0  0  1  0  0  0  0  0999 V2000
   20.6503  -13.2925  -16.5370 N   0  0  0  0  0  0  0  0  0  0  0  0
   20.9909  -12.0142  -17.0799 C   0  0  0  0  0  0  0  0  0  0  0  0
   21.5481  -11.0933  -16.0425 C   0  0  0  0  0  0  0  0  0  0  0  0
   21.6963  -11.5631  -14.8776 O   0  0  0  0  0  0  0  0  0  0  0  0
   21.8977   -9.7580  -16.3332 N   0  0  0  0  0  0  0  0  0  0  0  0
   22.4890   -8.9198  -15.3345 C   0  0  0  0  0  0  0  0  0  0  0  0
   21.6436   -7.7332  -15.0744 C   0  0  0  0  0  0  0  0  0  0  0  0
   20.9197   -7.2937  -16.0029 O   0  0  0  0  0  0  0  0  0  0  0  0
   18.3141   -6.9761  -10.1569 N   0  0  0  0  0  0  0  0  0  0  0  0
   18.0797   -5.7276  -10.7790 C   0  0  0  0  0  0  0  0  0  0  0  0
   17.2038   -4.9745  -10.3065 O   0  0  0  0  0  0  0  0  0  0  0  0
   18.8551   -5.3382  -11.9526 C   0  0  0  0  0  0  0  0  0  0  0  0
   19.8440   -6.3523  -12.4160 C   0  0  0  0  0  0  0  0  0  0  0  0
   20.6890   -5.9481  -13.5791 C   0  0  2  0  0  0  0  0  0  0  0  0
   21.6112   -7.0675  -13.8260 N   0  0  0  0  0  0  0  0  0  0  0  0
   21.5253   -4.7425  -13.2484 C   0  0  0  0  0  0  0  0  0  0  0  0
   22.6541   -4.8752  -12.7141 O   0  0  0  0  0  0  0  0  0  0  0  0
   21.0628   -3.4700  -13.5281 O   0  0  0  0  0  0  0  0  0  0  0  0
  2  1  1  0
  3  2  1  0
  4  3  2  0
  5  3  1  0
  6  5  1  0
  7  6  1  0
  7  8  2  0
 10  9  1  0
 10 12  1  0
 11 10  2  0
 13 12  1  0
 14 13  1  1
 14 15  1  0
 15  7  1  0
 16 18  1  0
 16 14  1  0
 17 16  2  0
M  END
$$$$
