GGQ.pdb
     RDKit          3D

 18 17  0  0  1  0  0  0  0  0999 V2000
   16.9430  -14.3939  -14.1709 N   0  0  0  0  0  0  0  0  0  0  0  0
   17.5999  -14.3192  -15.4389 C   0  0  0  0  0  0  0  0  0  0  0  0
   17.8892  -12.9084  -15.8398 C   0  0  0  0  0  0  0  0  0  0  0  0
   18.8134  -12.7296  -16.6846 O   0  0  0  0  0  0  0  0  0  0  0  0
   17.1733  -11.8148  -15.3094 N   0  0  0  0  0  0  0  0  0  0  0  0
   17.3788  -10.4899  -15.8113 C   0  0  0  0  0  0  0  0  0  0  0  0
   18.2553   -9.7136  -14.9061 C   0  0  0  0  0  0  0  0  0  0  0  0
   17.9793   -9.6821  -13.6805 O   0  0  0  0  0  0  0  0  0  0  0  0
   24.0765   -8.5594  -16.1884 N   0  0  0  0  0  0  0  0  0  0  0  0
   23.6544   -9.5614  -15.2837 C   0  0  0  0  0  0  0  0  0  0  0  0
   24.4114  -10.5281  -15.0599 O   0  0  0  0  0  0  0  0  0  0  0  0
   22.3539   -9.4556  -14.6298 C   0  0  0  0  0  0  0  0  0  0  0  0
   21.5917   -8.2146  -14.9461 C   0  0  0  0  0  0  0  0  0  0  0  0
   20.1877   -8.1704  -14.4392 C   0  0  2  0  0  0  0  0  0  0  0  0
   19.3932   -9.0025  -15.3560 N   0  0  0  0  0  0  0  0  0  0  0  0
   19.6317   -6.7743  -14.5045 C   0  0  0  0  0  0  0  0  0  0  0  0
   18.9839   -6.3913  -15.5099 O   0  0  0  0  0  0  0  0  0  0  0  0
   19.8262   -5.8923  -13.4579 O   0  0  0  0  0  0  0  0  0  0  0  0
  2  1  1  0
  3  2  1  0
  4  3  2  0
  5  3  1  0
  6  5  1  0
  7  6  1  0
  7  8  2  0
 10  9  1  0
 10 12  1  0
 11 10  2  0
 13 12  1  0
 14 13  1  6
 14 15  1  0
 15  7  1  0
 16 18  1  0
 16 14  1  0
 17 16  2  0
M  END
$$$$
