GGQ.pdb
     RDKit          3D

 18 17  0  0  1  0  0  0  0  0999 V2000
   11.0385  -11.2308   -9.2692 N   0  0  0  0  0  0  0  0  0  0  0  0
   11.9556  -10.1384   -9.1663 C   0  0  0  0  0  0  0  0  0  0  0  0
   13.2295  -10.4026   -9.9024 C   0  0  0  0  0  0  0  0  0  0  0  0
   13.3347  -11.5203  -10.4852 O   0  0  0  0  0  0  0  0  0  0  0  0
   14.2767   -9.4590   -9.9544 N   0  0  0  0  0  0  0  0  0  0  0  0
   15.4908   -9.7475  -10.6560 C   0  0  0  0  0  0  0  0  0  0  0  0
   16.6031   -8.9127  -10.1498 C   0  0  0  0  0  0  0  0  0  0  0  0
   16.7921   -8.8484   -8.9090 O   0  0  0  0  0  0  0  0  0  0  0  0
   21.9396   -7.2631  -13.2216 N   0  0  0  0  0  0  0  0  0  0  0  0
   21.6475   -6.1519  -12.3967 C   0  0  0  0  0  0  0  0  0  0  0  0
   22.2225   -5.0673  -12.6217 O   0  0  0  0  0  0  0  0  0  0  0  0
   20.6886   -6.2839  -11.3043 C   0  0  0  0  0  0  0  0  0  0  0  0
   19.5485   -7.2038  -11.5780 C   0  0  0  0  0  0  0  0  0  0  0  0
   18.5786   -7.3840  -10.4568 C   0  0  2  0  0  0  0  0  0  0  0  0
   17.4671   -8.1810  -10.9988 N   0  0  0  0  0  0  0  0  0  0  0  0
   18.0101   -6.0636  -10.0146 C   0  0  0  0  0  0  0  0  0  0  0  0
   17.1063   -5.5019  -10.6815 O   0  0  0  0  0  0  0  0  0  0  0  0
   18.4748   -5.4491   -8.8666 O   0  0  0  0  0  0  0  0  0  0  0  0
  2  1  1  0
  3  2  1  0
  4  3  2  0
  5  3  1  0
  6  5  1  0
  7  6  1  0
  7  8  2  0
 10  9  1  0
 10 12  1  0
 11 10  2  0
 13 12  1  0
 14 13  1  6
 14 15  1  0
 15  7  1  0
 16 18  1  0
 16 14  1  0
 17 16  2  0
M  END
$$$$
