GGQ.pdb
     RDKit          3D

 18 17  0  0  1  0  0  0  0  0999 V2000
   27.7141  -23.2999  -16.5708 N   0  0  0  0  0  0  0  0  0  0  0  0
   28.0661  -21.9183  -16.4600 C   0  0  0  0  0  0  0  0  0  0  0  0
   26.9302  -21.0875  -15.9561 C   0  0  0  0  0  0  0  0  0  0  0  0
   25.9471  -20.9258  -16.7353 O   0  0  0  0  0  0  0  0  0  0  0  0
   26.9385  -20.5032  -14.6722 N   0  0  0  0  0  0  0  0  0  0  0  0
   25.8531  -19.6793  -14.2335 C   0  0  0  0  0  0  0  0  0  0  0  0
   24.8003  -20.4946  -13.5874 C   0  0  0  0  0  0  0  0  0  0  0  0
   24.6680  -21.6945  -13.9365 O   0  0  0  0  0  0  0  0  0  0  0  0
   25.9054  -19.6292   -9.6623 N   0  0  0  0  0  0  0  0  0  0  0  0
   25.3788  -20.9054   -9.9700 C   0  0  0  0  0  0  0  0  0  0  0  0
   26.1229  -21.7499  -10.5092 O   0  0  0  0  0  0  0  0  0  0  0  0
   23.9876  -21.2173   -9.6575 C   0  0  0  0  0  0  0  0  0  0  0  0
   22.9812  -20.4864  -10.4784 C   0  0  0  0  0  0  0  0  0  0  0  0
   22.9422  -20.8470  -11.9270 C   0  0  2  0  0  0  0  0  0  0  0  0
   23.9326  -19.9859  -12.5919 N   0  0  0  0  0  0  0  0  0  0  0  0
   21.5994  -20.5331  -12.5277 C   0  0  0  0  0  0  0  0  0  0  0  0
   21.3829  -19.4160  -13.0592 O   0  0  0  0  0  0  0  0  0  0  0  0
   20.5837  -21.4706  -12.5032 O   0  0  0  0  0  0  0  0  0  0  0  0
  2  1  1  0
  3  2  1  0
  4  3  2  0
  5  3  1  0
  6  5  1  0
  7  6  1  0
  7  8  2  0
 10  9  1  0
 10 12  1  0
 11 10  2  0
 13 12  1  0
 14 13  1  1
 14 15  1  0
 15  7  1  0
 16 18  1  0
 16 14  1  0
 17 16  2  0
M  END
$$$$
