GGQ.pdb
     RDKit          3D

 18 17  0  0  1  0  0  0  0  0999 V2000
   27.5098  -18.1421  -18.0890 N   0  0  0  0  0  0  0  0  0  0  0  0
   27.8361  -18.4061  -16.7221 C   0  0  0  0  0  0  0  0  0  0  0  0
   26.6307  -18.3677  -15.8388 C   0  0  0  0  0  0  0  0  0  0  0  0
   25.7674  -17.4764  -16.0839 O   0  0  0  0  0  0  0  0  0  0  0  0
   26.4491  -19.2771  -14.7758 N   0  0  0  0  0  0  0  0  0  0  0  0
   25.2930  -19.2018  -13.9348 C   0  0  0  0  0  0  0  0  0  0  0  0
   24.2087  -20.0670  -14.4507 C   0  0  0  0  0  0  0  0  0  0  0  0
   24.5170  -21.1389  -15.0298 O   0  0  0  0  0  0  0  0  0  0  0  0
   18.9765  -22.1291  -11.7448 N   0  0  0  0  0  0  0  0  0  0  0  0
   20.0180  -21.2031  -11.5032 C   0  0  0  0  0  0  0  0  0  0  0  0
   20.3990  -21.0182  -10.3292 O   0  0  0  0  0  0  0  0  0  0  0  0
   20.6285  -20.4823  -12.6158 C   0  0  0  0  0  0  0  0  0  0  0  0
   21.2134  -21.3478  -13.6787 C   0  0  0  0  0  0  0  0  0  0  0  0
   21.7892  -20.6294  -14.8545 C   0  0  2  0  0  0  0  0  0  0  0  0
   22.8369  -19.7440  -14.3227 N   0  0  0  0  0  0  0  0  0  0  0  0
   20.7572  -19.7571  -15.5151 C   0  0  0  0  0  0  0  0  0  0  0  0
   20.8124  -18.5073  -15.4051 O   0  0  0  0  0  0  0  0  0  0  0  0
   19.7324  -20.3193  -16.2534 O   0  0  0  0  0  0  0  0  0  0  0  0
  2  1  1  0
  3  2  1  0
  4  3  2  0
  5  3  1  0
  6  5  1  0
  7  6  1  0
  7  8  2  0
 10  9  1  0
 10 12  1  0
 11 10  2  0
 13 12  1  0
 14 13  1  1
 14 15  1  0
 15  7  1  0
 16 18  1  0
 16 14  1  0
 17 16  2  0
M  END
$$$$
