GGQ.pdb
     RDKit          3D

 18 17  0  0  1  0  0  0  0  0999 V2000
   22.5888  -31.4598  -11.2918 N   0  0  0  0  0  0  0  0  0  0  0  0
   21.3161  -30.8104  -11.3505 C   0  0  0  0  0  0  0  0  0  0  0  0
   21.3767  -29.4075  -10.8379 C   0  0  0  0  0  0  0  0  0  0  0  0
   22.4726  -29.0272  -10.3337 O   0  0  0  0  0  0  0  0  0  0  0  0
   20.2707  -28.5345  -10.9057 N   0  0  0  0  0  0  0  0  0  0  0  0
   20.3871  -27.1687  -10.4929 C   0  0  0  0  0  0  0  0  0  0  0  0
   19.5669  -26.2865  -11.3528 C   0  0  0  0  0  0  0  0  0  0  0  0
   19.3854  -26.6136  -12.5525 O   0  0  0  0  0  0  0  0  0  0  0  0
   15.0087  -22.6474   -9.2490 N   0  0  0  0  0  0  0  0  0  0  0  0
   15.0002  -22.3150  -10.6238 C   0  0  0  0  0  0  0  0  0  0  0  0
   14.1228  -21.5362  -11.0496 O   0  0  0  0  0  0  0  0  0  0  0  0
   16.0053  -22.8796  -11.5190 C   0  0  0  0  0  0  0  0  0  0  0  0
   17.0315  -23.7307  -10.8530 C   0  0  0  0  0  0  0  0  0  0  0  0
   18.0904  -24.2870  -11.7471 C   0  0  2  0  0  0  0  0  0  0  0  0
   18.9753  -25.0882  -10.8872 N   0  0  0  0  0  0  0  0  0  0  0  0
   18.9236  -23.1888  -12.3488 C   0  0  0  0  0  0  0  0  0  0  0  0
   19.9369  -22.7536  -11.7480 O   0  0  0  0  0  0  0  0  0  0  0  0
   18.5854  -22.6424  -13.5729 O   0  0  0  0  0  0  0  0  0  0  0  0
  2  1  1  0
  3  2  1  0
  4  3  2  0
  5  3  1  0
  6  5  1  0
  7  6  1  0
  7  8  2  0
 10  9  1  0
 10 12  1  0
 11 10  2  0
 13 12  1  0
 14 13  1  1
 14 15  1  0
 15  7  1  0
 16 18  1  0
 16 14  1  0
 17 16  2  0
M  END
$$$$
