GGQ.pdb
     RDKit          3D

 18 17  0  0  1  0  0  0  0  0999 V2000
   19.1907  -10.5611  -16.3976 N   0  0  0  0  0  0  0  0  0  0  0  0
   18.2268   -9.7032  -15.7814 C   0  0  0  0  0  0  0  0  0  0  0  0
   18.4599   -9.5598  -14.3118 C   0  0  0  0  0  0  0  0  0  0  0  0
   19.5266  -10.0570  -13.8484 O   0  0  0  0  0  0  0  0  0  0  0  0
   17.5419   -8.9026  -13.4661 N   0  0  0  0  0  0  0  0  0  0  0  0
   17.8650   -8.6373  -12.0969 C   0  0  0  0  0  0  0  0  0  0  0  0
   16.8152   -7.8127  -11.4579 C   0  0  0  0  0  0  0  0  0  0  0  0
   16.0566   -7.1292  -12.1905 O   0  0  0  0  0  0  0  0  0  0  0  0
   13.6882   -9.3346   -9.3300 N   0  0  0  0  0  0  0  0  0  0  0  0
   13.0925   -8.4877   -8.3664 C   0  0  0  0  0  0  0  0  0  0  0  0
   11.8849   -8.6432   -8.0925 O   0  0  0  0  0  0  0  0  0  0  0  0
   13.8867   -7.4535   -7.7108 C   0  0  0  0  0  0  0  0  0  0  0  0
   15.3246   -7.4246   -8.1015 C   0  0  0  0  0  0  0  0  0  0  0  0
   15.6162   -6.8689   -9.4566 C   0  0  2  0  0  0  0  0  0  0  0  0
   16.6241   -7.7568  -10.0568 N   0  0  0  0  0  0  0  0  0  0  0  0
   16.2267   -5.4977   -9.3601 C   0  0  0  0  0  0  0  0  0  0  0  0
   17.4488   -5.3591   -9.1063 O   0  0  0  0  0  0  0  0  0  0  0  0
   15.4505   -4.3695   -9.5496 O   0  0  0  0  0  0  0  0  0  0  0  0
  2  1  1  0
  3  2  1  0
  4  3  2  0
  5  3  1  0
  6  5  1  0
  7  6  1  0
  7  8  2  0
 10  9  1  0
 10 12  1  0
 11 10  2  0
 13 12  1  0
 14 13  1  1
 14 15  1  0
 15  7  1  0
 16 18  1  0
 16 14  1  0
 17 16  2  0
M  END
$$$$
