GGQ.pdb
     RDKit          3D

 18 17  0  0  1  0  0  0  0  0999 V2000
   15.9515  -12.8586  -15.9367 N   0  0  0  0  0  0  0  0  0  0  0  0
   16.5429  -11.5650  -16.0837 C   0  0  0  0  0  0  0  0  0  0  0  0
   17.1925  -11.0971  -14.8212 C   0  0  0  0  0  0  0  0  0  0  0  0
   16.8091  -11.6375  -13.7438 O   0  0  0  0  0  0  0  0  0  0  0  0
   18.1894  -10.0992  -14.8145 N   0  0  0  0  0  0  0  0  0  0  0  0
   18.8419   -9.7214  -13.5975 C   0  0  0  0  0  0  0  0  0  0  0  0
   19.8976   -8.7168  -13.8554 C   0  0  0  0  0  0  0  0  0  0  0  0
   20.4550   -8.1629  -12.8746 O   0  0  0  0  0  0  0  0  0  0  0  0
   23.5572   -8.7353  -18.8552 N   0  0  0  0  0  0  0  0  0  0  0  0
   24.0261   -7.5810  -18.1857 C   0  0  0  0  0  0  0  0  0  0  0  0
   25.0275   -6.9883  -18.6369 O   0  0  0  0  0  0  0  0  0  0  0  0
   23.3425   -7.1014  -16.9887 C   0  0  0  0  0  0  0  0  0  0  0  0
   22.1611   -7.9099  -16.5745 C   0  0  0  0  0  0  0  0  0  0  0  0
   21.4277   -7.4151  -15.3713 C   0  0  2  0  0  0  0  0  0  0  0  0
   20.3109   -8.3487  -15.1578 N   0  0  0  0  0  0  0  0  0  0  0  0
   20.8347   -6.0553  -15.6193 C   0  0  0  0  0  0  0  0  0  0  0  0
   19.6689   -5.9398  -16.0717 O   0  0  0  0  0  0  0  0  0  0  0  0
   21.5652   -4.9123  -15.3525 O   0  0  0  0  0  0  0  0  0  0  0  0
  2  1  1  0
  3  2  1  0
  4  3  2  0
  5  3  1  0
  6  5  1  0
  7  6  1  0
  7  8  2  0
 10  9  1  0
 10 12  1  0
 11 10  2  0
 13 12  1  0
 14 13  1  6
 14 15  1  0
 15  7  1  0
 16 18  1  0
 16 14  1  0
 17 16  2  0
M  END
$$$$
