CST.pdb
     RDKit          3D

 20 19  0  0  1  0  0  0  0  0999 V2000
    7.1372  -15.0606   19.7577 N   0  0  0  0  0  0  0  0  0  0  0  0
    8.1339  -14.6418   20.6836 C   0  0  1  0  0  0  0  0  0  0  0  0
    7.8676  -13.1758   21.0309 C   0  0  0  0  0  0  0  0  0  0  0  0
    8.2281  -12.1167   19.5998 S   0  0  0  0  0  0  0  0  0  0  0  0
    8.1358  -15.3761   21.9568 C   0  0  0  0  0  0  0  0  0  0  0  0
    7.0380  -15.4778   22.5697 O   0  0  0  0  0  0  0  0  0  0  0  0
   11.1332  -17.8122   23.0567 O   0  0  0  0  0  0  0  0  0  0  0  0
    9.8448  -18.0451   23.5777 C   0  0  0  0  0  0  0  0  0  0  0  0
    9.2365  -16.6601   23.8325 C   0  0  2  0  0  0  0  0  0  0  0  0
    9.2606  -15.9779   22.5536 N   0  0  0  0  0  0  0  0  0  0  0  0
    9.9947  -15.9322   24.8684 C   0  0  0  0  0  0  0  0  0  0  0  0
   10.8728  -15.1164   24.4943 O   0  0  0  0  0  0  0  0  0  0  0  0
   10.1313  -13.6208   28.9272 C   0  0  0  0  0  0  0  0  0  0  0  0
    9.4074  -14.3987   27.8648 C   0  0  1  0  0  0  0  0  0  0  0  0
    8.9871  -13.5018   26.8860 O   0  0  0  0  0  0  0  0  0  0  0  0
   10.3583  -15.4256   27.2873 C   0  0  2  0  0  0  0  0  0  0  0  0
    9.6882  -16.1955   26.2284 N   0  0  0  0  0  0  0  0  0  0  0  0
   10.8495  -16.3632   28.3222 C   0  0  0  0  0  0  0  0  0  0  0  0
   11.8580  -15.9915   29.2003 O   0  0  0  0  0  0  0  0  0  0  0  0
   10.3888  -17.5323   28.4636 O   0  0  0  0  0  0  0  0  0  0  0  0
  2  5  1  0
  2  1  1  6
  3  2  1  0
  4  3  1  0
  5  6  2  0
  7  8  1  0
  9  8  1  6
 10  9  1  0
 10  5  1  0
 11  9  1  0
 12 11  2  0
 14 13  1  1
 14 15  1  0
 14 16  1  0
 16 18  1  0
 16 17  1  6
 17 11  1  0
 18 19  1  0
 20 18  2  0
M  END
$$$$
