CST.pdb
     RDKit          3D

 20 19  0  0  1  0  0  0  0  0999 V2000
    6.9070  -16.4983   10.7276 N   0  0  0  0  0  0  0  0  0  0  0  0
    6.4193  -16.6586   12.0552 C   0  0  1  0  0  0  0  0  0  0  0  0
    5.6345  -17.9707   12.1131 C   0  0  0  0  0  0  0  0  0  0  0  0
    6.7501  -19.3808   11.8554 S   0  0  0  0  0  0  0  0  0  0  0  0
    7.4636  -16.7540   13.0850 C   0  0  0  0  0  0  0  0  0  0  0  0
    8.6545  -16.5459   12.7250 O   0  0  0  0  0  0  0  0  0  0  0  0
    8.5867  -16.4708   17.7276 O   0  0  0  0  0  0  0  0  0  0  0  0
    7.5799  -16.5525   16.7450 C   0  0  0  0  0  0  0  0  0  0  0  0
    8.2809  -17.0130   15.4606 C   0  0  2  0  0  0  0  0  0  0  0  0
    7.2491  -17.0585   14.4433 N   0  0  0  0  0  0  0  0  0  0  0  0
    8.9324  -18.3229   15.6545 C   0  0  0  0  0  0  0  0  0  0  0  0
    8.2023  -19.3422   15.7198 O   0  0  0  0  0  0  0  0  0  0  0  0
   12.5591  -19.2754   14.1314 C   0  0  0  0  0  0  0  0  0  0  0  0
   12.4854  -19.5355   15.6095 C   0  0  1  0  0  0  0  0  0  0  0  0
   13.1118  -18.4779   16.2640 O   0  0  0  0  0  0  0  0  0  0  0  0
   11.0286  -19.6344   16.0094 C   0  0  2  0  0  0  0  0  0  0  0  0
   10.3472  -18.3559   15.7562 N   0  0  0  0  0  0  0  0  0  0  0  0
   10.8736  -19.9837   17.4395 C   0  0  0  0  0  0  0  0  0  0  0  0
   11.1253  -21.2720   17.8903 O   0  0  0  0  0  0  0  0  0  0  0  0
   10.5107  -19.1467   18.3151 O   0  0  0  0  0  0  0  0  0  0  0  0
  2  5  1  0
  2  1  1  6
  3  2  1  0
  4  3  1  0
  5  6  2  0
  7  8  1  0
  9  8  1  1
 10  9  1  0
 10  5  1  0
 11  9  1  0
 12 11  2  0
 14 13  1  6
 14 15  1  0
 14 16  1  0
 16 18  1  0
 16 17  1  1
 17 11  1  0
 18 19  1  0
 20 18  2  0
M  END
$$$$
