CST.pdb
     RDKit          3D

 20 19  0  0  1  0  0  0  0  0999 V2000
   10.8778  -18.9611   14.8508 N   0  0  0  0  0  0  0  0  0  0  0  0
   10.6297  -19.7862   15.9837 C   0  0  1  0  0  0  0  0  0  0  0  0
   11.6749  -20.9035   15.9902 C   0  0  0  0  0  0  0  0  0  0  0  0
   11.4186  -21.9939   17.4202 S   0  0  0  0  0  0  0  0  0  0  0  0
   10.7464  -19.1013   17.2789 C   0  0  0  0  0  0  0  0  0  0  0  0
   11.7813  -18.4080   17.4777 O   0  0  0  0  0  0  0  0  0  0  0  0
    7.7283  -19.0681   20.0290 O   0  0  0  0  0  0  0  0  0  0  0  0
    8.5978  -17.9597   19.9928 C   0  0  0  0  0  0  0  0  0  0  0  0
    9.9753  -18.5169   19.6118 C   0  0  2  0  0  0  0  0  0  0  0  0
    9.7999  -19.1523   18.3206 N   0  0  0  0  0  0  0  0  0  0  0  0
   10.4662  -19.4592   20.6360 C   0  0  0  0  0  0  0  0  0  0  0  0
   10.1639  -20.6720   20.5167 O   0  0  0  0  0  0  0  0  0  0  0  0
   13.5725  -20.3164   24.3116 C   0  0  0  0  0  0  0  0  0  0  0  0
   13.0883  -19.3596   23.2589 C   0  0  1  0  0  0  0  0  0  0  0  0
   14.0355  -19.3272   22.2386 O   0  0  0  0  0  0  0  0  0  0  0  0
   11.7513  -19.8474   22.7426 C   0  0  2  0  0  0  0  0  0  0  0  0
   11.2519  -18.9410   21.6977 N   0  0  0  0  0  0  0  0  0  0  0  0
   10.7430  -19.9332   23.8230 C   0  0  0  0  0  0  0  0  0  0  0  0
   10.6116  -21.0850   24.5861 O   0  0  0  0  0  0  0  0  0  0  0  0
    9.9593  -18.9825   24.1075 O   0  0  0  0  0  0  0  0  0  0  0  0
  2  5  1  0
  2  1  1  6
  3  2  1  0
  4  3  1  0
  5  6  2  0
  7  8  1  0
  9  8  1  1
 10  9  1  0
 10  5  1  0
 11  9  1  0
 12 11  2  0
 14 13  1  1
 14 15  1  0
 14 16  1  0
 16 18  1  0
 16 17  1  6
 17 11  1  0
 18 19  1  0
 20 18  2  0
M  END
$$$$
