CST.pdb
     RDKit          3D

 20 19  0  0  1  0  0  0  0  0999 V2000
    9.8069  -15.6542   14.5515 N   0  0  0  0  0  0  0  0  0  0  0  0
    8.7976  -15.5182   15.5458 C   0  0  1  0  0  0  0  0  0  0  0  0
    8.0614  -16.8548   15.6552 C   0  0  0  0  0  0  0  0  0  0  0  0
    6.9163  -17.0563   14.2596 S   0  0  0  0  0  0  0  0  0  0  0  0
    9.3003  -15.2099   16.8922 C   0  0  0  0  0  0  0  0  0  0  0  0
   10.4604  -15.6100   17.1842 O   0  0  0  0  0  0  0  0  0  0  0  0
    6.9733  -13.6775   19.8935 O   0  0  0  0  0  0  0  0  0  0  0  0
    8.2197  -13.0416   19.7265 C   0  0  0  0  0  0  0  0  0  0  0  0
    9.1651  -14.1092   19.1612 C   0  0  2  0  0  0  0  0  0  0  0  0
    8.5967  -14.5044   17.8875 N   0  0  0  0  0  0  0  0  0  0  0  0
    9.2947  -15.2469   20.0922 C   0  0  0  0  0  0  0  0  0  0  0  0
    8.4776  -16.1942   19.9851 O   0  0  0  0  0  0  0  0  0  0  0  0
   12.4635  -17.0593   20.5091 C   0  0  0  0  0  0  0  0  0  0  0  0
   12.0516  -16.7229   21.9144 C   0  0  1  0  0  0  0  0  0  0  0  0
   12.8199  -15.6425   22.3409 O   0  0  0  0  0  0  0  0  0  0  0  0
   10.5783  -16.3745   21.9145 C   0  0  2  0  0  0  0  0  0  0  0  0
   10.3355  -15.2056   21.0556 N   0  0  0  0  0  0  0  0  0  0  0  0
   10.0839  -16.0770   23.2778 C   0  0  0  0  0  0  0  0  0  0  0  0
   10.0399  -17.0647   24.2518 O   0  0  0  0  0  0  0  0  0  0  0  0
    9.6815  -14.9302   23.6269 O   0  0  0  0  0  0  0  0  0  0  0  0
  2  5  1  0
  2  1  1  6
  3  2  1  0
  4  3  1  0
  5  6  2  0
  7  8  1  0
  9  8  1  1
 10  9  1  0
 10  5  1  0
 11  9  1  0
 12 11  2  0
 14 13  1  6
 14 15  1  0
 14 16  1  0
 16 18  1  0
 16 17  1  6
 17 11  1  0
 18 19  1  0
 20 18  2  0
M  END
$$$$
