CST.pdb
     RDKit          3D

 20 19  0  0  1  0  0  0  0  0999 V2000
    8.0756  -15.1468   18.3688 N   0  0  0  0  0  0  0  0  0  0  0  0
    8.4019  -14.4300   19.5545 C   0  0  1  0  0  0  0  0  0  0  0  0
    7.6544  -13.0956   19.5185 C   0  0  0  0  0  0  0  0  0  0  0  0
    8.3589  -12.0163   18.2385 S   0  0  0  0  0  0  0  0  0  0  0  0
    8.0033  -15.0954   20.8029 C   0  0  0  0  0  0  0  0  0  0  0  0
    7.2446  -16.0989   20.7091 O   0  0  0  0  0  0  0  0  0  0  0  0
    9.1756  -17.5955   24.0893 O   0  0  0  0  0  0  0  0  0  0  0  0
    9.1356  -16.8185   22.9143 C   0  0  0  0  0  0  0  0  0  0  0  0
    8.3187  -15.5680   23.2637 C   0  0  2  0  0  0  0  0  0  0  0  0
    8.3962  -14.7085   22.0989 N   0  0  0  0  0  0  0  0  0  0  0  0
    8.8462  -14.9138   24.4768 C   0  0  0  0  0  0  0  0  0  0  0  0
   10.0304  -14.4972   24.4561 O   0  0  0  0  0  0  0  0  0  0  0  0
    7.1397  -11.9412   26.0018 C   0  0  0  0  0  0  0  0  0  0  0  0
    7.2398  -12.9895   27.0737 C   0  0  1  0  0  0  0  0  0  0  0  0
    6.0255  -13.6693   27.1253 O   0  0  0  0  0  0  0  0  0  0  0  0
    8.3735  -13.9299   26.7237 C   0  0  2  0  0  0  0  0  0  0  0  0
    7.9850  -14.7927   25.5978 N   0  0  0  0  0  0  0  0  0  0  0  0
    8.7535  -14.7840   27.8715 C   0  0  0  0  0  0  0  0  0  0  0  0
    9.2512  -14.2267   29.0412 O   0  0  0  0  0  0  0  0  0  0  0  0
    8.6490  -16.0441   27.8538 O   0  0  0  0  0  0  0  0  0  0  0  0
  2  5  1  0
  2  1  1  6
  3  2  1  0
  4  3  1  0
  5  6  2  0
  7  8  1  0
  9  8  1  6
 10  9  1  0
 10  5  1  0
 11  9  1  0
 12 11  2  0
 14 13  1  6
 14 15  1  0
 14 16  1  0
 16 18  1  0
 16 17  1  6
 17 11  1  0
 18 19  1  0
 20 18  2  0
M  END
$$$$
