CST.pdb
     RDKit          3D

 20 19  0  0  1  0  0  0  0  0999 V2000
    7.3228  -15.3621   19.4427 N   0  0  0  0  0  0  0  0  0  0  0  0
    8.2135  -14.7384   20.3611 C   0  0  1  0  0  0  0  0  0  0  0  0
    7.7598  -13.2890   20.5463 C   0  0  0  0  0  0  0  0  0  0  0  0
    8.2929  -12.2795   19.1336 S   0  0  0  0  0  0  0  0  0  0  0  0
    8.2340  -15.3412   21.7014 C   0  0  0  0  0  0  0  0  0  0  0  0
    7.1374  -15.4181   22.3201 O   0  0  0  0  0  0  0  0  0  0  0  0
   11.3978  -17.4314   22.9548 O   0  0  0  0  0  0  0  0  0  0  0  0
   10.1366  -17.8106   23.4564 C   0  0  0  0  0  0  0  0  0  0  0  0
    9.3488  -16.5079   23.6443 C   0  0  2  0  0  0  0  0  0  0  0  0
    9.3756  -15.8420   22.3569 N   0  0  0  0  0  0  0  0  0  0  0  0
    9.9415  -15.6811   24.7134 C   0  0  0  0  0  0  0  0  0  0  0  0
   10.7940  -14.8182   24.3892 O   0  0  0  0  0  0  0  0  0  0  0  0
    9.8231  -13.3326   28.7631 C   0  0  0  0  0  0  0  0  0  0  0  0
    9.1451  -14.1267   27.6826 C   0  0  1  0  0  0  0  0  0  0  0  0
    8.7493  -13.2421   26.6827 O   0  0  0  0  0  0  0  0  0  0  0  0
   10.1266  -15.1473   27.1466 C   0  0  2  0  0  0  0  0  0  0  0  0
    9.5142  -15.9083   26.0471 N   0  0  0  0  0  0  0  0  0  0  0  0
   10.5642  -16.0937   28.1974 C   0  0  0  0  0  0  0  0  0  0  0  0
   10.2144  -17.4356   28.1393 O   0  0  0  0  0  0  0  0  0  0  0  0
   11.2671  -15.7423   29.1881 O   0  0  0  0  0  0  0  0  0  0  0  0
  2  5  1  0
  2  1  1  6
  3  2  1  0
  4  3  1  0
  5  6  2  0
  7  8  1  0
  9  8  1  6
 10  9  1  0
 10  5  1  0
 11  9  1  0
 12 11  2  0
 14 13  1  1
 14 15  1  0
 14 16  1  0
 16 18  1  0
 16 17  1  6
 17 11  1  0
 18 19  1  0
 20 18  2  0
M  END
$$$$
