CST.pdb
     RDKit          3D

 20 19  0  0  1  0  0  0  0  0999 V2000
    9.0952  -15.2865   19.3036 N   0  0  0  0  0  0  0  0  0  0  0  0
    8.2183  -15.0086   20.3898 C   0  0  1  0  0  0  0  0  0  0  0  0
    7.0822  -16.0325   20.3513 C   0  0  0  0  0  0  0  0  0  0  0  0
    7.7426  -17.7107   20.5678 S   0  0  0  0  0  0  0  0  0  0  0  0
    8.8339  -15.1216   21.7196 C   0  0  0  0  0  0  0  0  0  0  0  0
   10.0467  -15.4647   21.7705 O   0  0  0  0  0  0  0  0  0  0  0  0
    6.6819  -14.7908   25.1536 O   0  0  0  0  0  0  0  0  0  0  0  0
    7.9310  -14.1395   25.1935 C   0  0  0  0  0  0  0  0  0  0  0  0
    8.8431  -14.9182   24.2370 C   0  0  2  0  0  0  0  0  0  0  0  0
    8.1849  -14.8794   22.9459 N   0  0  0  0  0  0  0  0  0  0  0  0
    9.0550  -16.2983   24.7147 C   0  0  0  0  0  0  0  0  0  0  0  0
    8.1929  -17.1635   24.4234 O   0  0  0  0  0  0  0  0  0  0  0  0
   11.3931  -18.7761   23.9824 C   0  0  0  0  0  0  0  0  0  0  0  0
   11.6420  -18.5605   25.4485 C   0  0  1  0  0  0  0  0  0  0  0  0
   12.7607  -17.7415   25.5790 O   0  0  0  0  0  0  0  0  0  0  0  0
   10.4178  -17.9072   26.0541 C   0  0  2  0  0  0  0  0  0  0  0  0
   10.2211  -16.5692   25.4762 N   0  0  0  0  0  0  0  0  0  0  0  0
   10.5330  -17.7808   27.5245 C   0  0  0  0  0  0  0  0  0  0  0  0
   10.5213  -18.9037   28.3400 O   0  0  0  0  0  0  0  0  0  0  0  0
   10.6462  -16.6661   28.1108 O   0  0  0  0  0  0  0  0  0  0  0  0
  2  5  1  0
  2  1  1  6
  3  2  1  0
  4  3  1  0
  5  6  2  0
  7  8  1  0
  9  8  1  1
 10  9  1  0
 10  5  1  0
 11  9  1  0
 12 11  2  0
 14 13  1  6
 14 15  1  0
 14 16  1  0
 16 18  1  0
 16 17  1  6
 17 11  1  0
 18 19  1  0
 20 18  2  0
M  END
$$$$
