CST.pdb
     RDKit          3D

 20 19  0  0  1  0  0  0  0  0999 V2000
   10.9134  -17.1045   19.5196 N   0  0  0  0  0  0  0  0  0  0  0  0
   11.4381  -17.2092   20.8386 C   0  0  1  0  0  0  0  0  0  0  0  0
   12.6593  -16.2925   20.9334 C   0  0  0  0  0  0  0  0  0  0  0  0
   14.1869  -17.2717   20.8474 S   0  0  0  0  0  0  0  0  0  0  0  0
   10.5162  -16.7835   21.9012 C   0  0  0  0  0  0  0  0  0  0  0  0
    9.6960  -15.8659   21.6247 O   0  0  0  0  0  0  0  0  0  0  0  0
    9.8649  -18.9353   25.3110 O   0  0  0  0  0  0  0  0  0  0  0  0
    8.8496  -18.1428   24.7391 C   0  0  0  0  0  0  0  0  0  0  0  0
    9.5430  -16.8726   24.2300 C   0  0  2  0  0  0  0  0  0  0  0  0
   10.4692  -17.3130   23.2054 N   0  0  0  0  0  0  0  0  0  0  0  0
   10.2236  -16.1642   25.3313 C   0  0  0  0  0  0  0  0  0  0  0  0
   11.4577  -16.3443   25.4763 O   0  0  0  0  0  0  0  0  0  0  0  0
    9.2873  -12.4038   26.7719 C   0  0  0  0  0  0  0  0  0  0  0  0
    9.2084  -13.5068   27.7893 C   0  0  1  0  0  0  0  0  0  0  0  0
    7.8755  -13.8943   27.9011 O   0  0  0  0  0  0  0  0  0  0  0  0
   10.0706  -14.6590   27.3189 C   0  0  2  0  0  0  0  0  0  0  0  0
    9.4445  -15.3197   26.1637 N   0  0  0  0  0  0  0  0  0  0  0  0
   10.2794  -15.6614   28.3879 C   0  0  0  0  0  0  0  0  0  0  0  0
   10.9948  -15.3435   29.5339 O   0  0  0  0  0  0  0  0  0  0  0  0
    9.8278  -16.8407   28.3207 O   0  0  0  0  0  0  0  0  0  0  0  0
  2  5  1  0
  2  1  1  6
  3  2  1  0
  4  3  1  0
  5  6  2  0
  7  8  1  0
  9  8  1  1
 10  9  1  0
 10  5  1  0
 11  9  1  0
 12 11  2  0
 14 13  1  6
 14 15  1  0
 14 16  1  0
 16 18  1  0
 16 17  1  6
 17 11  1  0
 18 19  1  0
 20 18  2  0
M  END
$$$$
