CST.pdb
     RDKit          3D

 20 19  0  0  1  0  0  0  0  0999 V2000
    9.9047  -18.7562   17.1087 N   0  0  0  0  0  0  0  0  0  0  0  0
    9.5743  -19.5510   18.2423 C   0  0  1  0  0  0  0  0  0  0  0  0
    9.9509  -21.0000   17.9271 C   0  0  0  0  0  0  0  0  0  0  0  0
    8.5410  -21.8657   17.1774 S   0  0  0  0  0  0  0  0  0  0  0  0
   10.2938  -19.1935   19.4730 C   0  0  0  0  0  0  0  0  0  0  0  0
   11.4380  -18.6775   19.3472 O   0  0  0  0  0  0  0  0  0  0  0  0
    8.4702  -19.2001   23.0352 O   0  0  0  0  0  0  0  0  0  0  0  0
    9.5732  -18.3321   22.9087 C   0  0  0  0  0  0  0  0  0  0  0  0
   10.5649  -19.0436   21.9795 C   0  0  2  0  0  0  0  0  0  0  0  0
    9.8150  -19.3777   20.7846 N   0  0  0  0  0  0  0  0  0  0  0  0
   11.1375  -20.2372   22.6317 C   0  0  0  0  0  0  0  0  0  0  0  0
   10.5419  -21.3329   22.4866 O   0  0  0  0  0  0  0  0  0  0  0  0
   14.9434  -22.4432   24.6789 C   0  0  0  0  0  0  0  0  0  0  0  0
   14.4062  -21.2027   24.0228 C   0  0  1  0  0  0  0  0  0  0  0  0
   14.8357  -21.1963   22.6982 O   0  0  0  0  0  0  0  0  0  0  0  0
   12.8946  -21.2313   24.1029 C   0  0  2  0  0  0  0  0  0  0  0  0
   12.3288  -20.0786   23.3858 N   0  0  0  0  0  0  0  0  0  0  0  0
   12.4177  -21.2038   25.5040 C   0  0  0  0  0  0  0  0  0  0  0  0
   12.2074  -22.3806   26.2090 O   0  0  0  0  0  0  0  0  0  0  0  0
   12.1793  -20.1294   26.1269 O   0  0  0  0  0  0  0  0  0  0  0  0
  2  5  1  0
  2  1  1  6
  3  2  1  0
  4  3  1  0
  5  6  2  0
  7  8  1  0
  9  8  1  1
 10  9  1  0
 10  5  1  0
 11  9  1  0
 12 11  2  0
 14 13  1  1
 14 15  1  0
 14 16  1  0
 16 18  1  0
 16 17  1  6
 17 11  1  0
 18 19  1  0
 20 18  2  0
M  END
$$$$
