CST.pdb
     RDKit          3D

 20 19  0  0  1  0  0  0  0  0999 V2000
    8.6496  -14.2362   16.3579 N   0  0  0  0  0  0  0  0  0  0  0  0
    9.2788  -14.0203   17.6162 C   0  0  1  0  0  0  0  0  0  0  0  0
    8.5974  -12.8243   18.2842 C   0  0  0  0  0  0  0  0  0  0  0  0
    7.0119  -13.3313   19.0113 S   0  0  0  0  0  0  0  0  0  0  0  0
    9.1659  -15.1420   18.5592 C   0  0  0  0  0  0  0  0  0  0  0  0
    8.6765  -16.2197   18.1231 O   0  0  0  0  0  0  0  0  0  0  0  0
   11.8220  -16.8156   20.5337 O   0  0  0  0  0  0  0  0  0  0  0  0
   10.5397  -17.2707   20.1671 C   0  0  0  0  0  0  0  0  0  0  0  0
    9.5475  -16.2761   20.7833 C   0  0  2  0  0  0  0  0  0  0  0  0
    9.5581  -15.1178   19.9117 N   0  0  0  0  0  0  0  0  0  0  0  0
    9.9298  -15.9371   22.1677 C   0  0  0  0  0  0  0  0  0  0  0  0
   10.9515  -15.2285   22.3420 O   0  0  0  0  0  0  0  0  0  0  0  0
    7.2094  -14.5503   24.4593 C   0  0  0  0  0  0  0  0  0  0  0  0
    7.9061  -15.6563   25.2005 C   0  0  1  0  0  0  0  0  0  0  0  0
    7.1228  -16.8030   25.0977 O   0  0  0  0  0  0  0  0  0  0  0  0
    9.2682  -15.8719   24.5756 C   0  0  2  0  0  0  0  0  0  0  0  0
    9.1208  -16.4312   23.2234 N   0  0  0  0  0  0  0  0  0  0  0  0
   10.1047  -16.7879   25.3834 C   0  0  0  0  0  0  0  0  0  0  0  0
   10.5183  -16.4363   26.6607 O   0  0  0  0  0  0  0  0  0  0  0  0
   10.4832  -17.9198   24.9656 O   0  0  0  0  0  0  0  0  0  0  0  0
  2  5  1  0
  2  1  1  6
  3  2  1  0
  4  3  1  0
  5  6  2  0
  7  8  1  0
  9  8  1  6
 10  9  1  0
 10  5  1  0
 11  9  1  0
 12 11  2  0
 14 13  1  6
 14 15  1  0
 14 16  1  0
 16 18  1  0
 16 17  1  6
 17 11  1  0
 18 19  1  0
 20 18  2  0
M  END
$$$$
