CST.pdb
     RDKit          3D

 20 19  0  0  1  0  0  0  0  0999 V2000
    9.6923  -16.3714   19.7160 N   0  0  0  0  0  0  0  0  0  0  0  0
   10.3940  -16.8164   20.8717 C   0  0  1  0  0  0  0  0  0  0  0  0
   11.7661  -16.1397   20.8788 C   0  0  0  0  0  0  0  0  0  0  0  0
   13.0276  -17.2725   20.2269 S   0  0  0  0  0  0  0  0  0  0  0  0
    9.7541  -16.4705   22.1488 C   0  0  0  0  0  0  0  0  0  0  0  0
    9.1901  -15.3451   22.2294 O   0  0  0  0  0  0  0  0  0  0  0  0
    9.2149  -19.1023   25.3868 O   0  0  0  0  0  0  0  0  0  0  0  0
    8.2736  -18.1320   24.9891 C   0  0  0  0  0  0  0  0  0  0  0  0
    9.0891  -16.9108   24.5452 C   0  0  2  0  0  0  0  0  0  0  0  0
    9.7160  -17.2894   23.2941 N   0  0  0  0  0  0  0  0  0  0  0  0
   10.0776  -16.5330   25.5737 C   0  0  0  0  0  0  0  0  0  0  0  0
   11.2687  -16.8945   25.4095 O   0  0  0  0  0  0  0  0  0  0  0  0
   10.5066  -13.0527   27.3981 C   0  0  0  0  0  0  0  0  0  0  0  0
   10.2098  -14.1330   28.3994 C   0  0  1  0  0  0  0  0  0  0  0  0
    8.8549  -14.0673   28.7142 O   0  0  0  0  0  0  0  0  0  0  0  0
   10.5591  -15.4709   27.7827 C   0  0  2  0  0  0  0  0  0  0  0  0
    9.6257  -15.7826   26.6897 N   0  0  0  0  0  0  0  0  0  0  0  0
   10.5112  -16.5647   28.7790 C   0  0  0  0  0  0  0  0  0  0  0  0
   11.3713  -16.5755   29.8681 O   0  0  0  0  0  0  0  0  0  0  0  0
    9.7012  -17.5323   28.6975 O   0  0  0  0  0  0  0  0  0  0  0  0
  2  5  1  0
  2  1  1  6
  3  2  1  0
  4  3  1  0
  5  6  2  0
  7  8  1  0
  9  8  1  1
 10  9  1  0
 10  5  1  0
 11  9  1  0
 12 11  2  0
 14 13  1  6
 14 15  1  0
 14 16  1  0
 16 18  1  0
 16 17  1  6
 17 11  1  0
 18 19  1  0
 20 18  2  0
M  END
$$$$
