CST.pdb
     RDKit          3D

 20 19  0  0  1  0  0  0  0  0999 V2000
    8.0164  -13.1124   16.8640 N   0  0  0  0  0  0  0  0  0  0  0  0
    7.7279  -14.2373   17.6870 C   0  0  1  0  0  0  0  0  0  0  0  0
    8.2172  -15.4909   16.9590 C   0  0  0  0  0  0  0  0  0  0  0  0
    7.8655  -16.9705   17.9522 S   0  0  0  0  0  0  0  0  0  0  0  0
    8.3985  -14.2287   18.9949 C   0  0  0  0  0  0  0  0  0  0  0  0
    9.6380  -13.9952   19.0100 O   0  0  0  0  0  0  0  0  0  0  0  0
    6.4964  -15.2780   22.4769 O   0  0  0  0  0  0  0  0  0  0  0  0
    7.3759  -14.1805   22.5660 C   0  0  0  0  0  0  0  0  0  0  0  0
    8.4632  -14.4251   21.5119 C   0  0  2  0  0  0  0  0  0  0  0  0
    7.7749  -14.4592   20.2365 N   0  0  0  0  0  0  0  0  0  0  0  0
    9.1933  -15.6779   21.7864 C   0  0  0  0  0  0  0  0  0  0  0  0
    8.8371  -16.7155   21.1757 O   0  0  0  0  0  0  0  0  0  0  0  0
   13.2184  -17.9081   23.1445 C   0  0  0  0  0  0  0  0  0  0  0  0
   12.4748  -16.6703   22.7289 C   0  0  1  0  0  0  0  0  0  0  0  0
   12.6845  -16.4800   21.3655 O   0  0  0  0  0  0  0  0  0  0  0  0
   11.0041  -16.8680   23.0292 C   0  0  2  0  0  0  0  0  0  0  0  0
   10.2566  -15.6386   22.7250 N   0  0  0  0  0  0  0  0  0  0  0  0
   10.7761  -17.2280   24.4468 C   0  0  0  0  0  0  0  0  0  0  0  0
   10.8608  -18.5470   24.8703 O   0  0  0  0  0  0  0  0  0  0  0  0
   10.4968  -16.3730   25.3357 O   0  0  0  0  0  0  0  0  0  0  0  0
  2  5  1  0
  2  1  1  6
  3  2  1  0
  4  3  1  0
  5  6  2  0
  7  8  1  0
  9  8  1  1
 10  9  1  0
 10  5  1  0
 11  9  1  0
 12 11  2  0
 14 13  1  6
 14 15  1  0
 14 16  1  0
 16 18  1  0
 16 17  1  1
 17 11  1  0
 18 19  1  0
 20 18  2  0
M  END
$$$$
