VHV.pdb
     RDKit          3D

 25 25  0  0  1  0  0  0  0  0999 V2000
    8.3361  -12.4054   20.3861 C   0  0  0  0  0  0  0  0  0  0  0  0
    7.7718  -13.4654   19.4817 C   0  0  1  0  0  0  0  0  0  0  0  0
    8.1096  -13.1402   18.0422 C   0  0  0  0  0  0  0  0  0  0  0  0
    8.3780  -14.8206   19.7855 C   0  0  2  0  0  0  0  0  0  0  0  0
    7.7100  -15.8316   18.9238 N   0  0  0  0  0  0  0  0  0  0  0  0
    8.1359  -15.2761   21.1747 C   0  0  0  0  0  0  0  0  0  0  0  0
    6.9370  -15.5618   21.5321 O   0  0  0  0  0  0  0  0  0  0  0  0
    9.1010  -15.4375   22.1757 N   0  0  0  0  0  0  0  0  0  0  0  0
    8.7515  -15.9715   23.5187 C   0  0  1  0  0  0  0  0  0  0  0  0
    9.5112  -17.2381   23.6286 C   0  0  0  0  0  0  0  0  0  0  0  0
    9.0621  -18.3453   22.7646 C   0  0  0  0  0  0  0  0  0  0  0  0
    8.0211  -19.2234   22.9787 C   0  0  0  0  0  0  0  0  0  0  0  0
    8.0243  -20.0655   21.9324 N   0  0  0  0  0  0  0  0  0  0  0  0
    9.0186  -19.7221   21.1148 C   0  0  0  0  0  0  0  0  0  0  0  0
    9.6808  -18.6656   21.5950 N   0  0  0  0  0  0  0  0  0  0  0  0
    8.9320  -14.9485   24.5277 C   0  0  0  0  0  0  0  0  0  0  0  0
   10.0768  -14.3578   24.5474 O   0  0  0  0  0  0  0  0  0  0  0  0
    6.9562  -11.8519   25.4052 C   0  0  0  0  0  0  0  0  0  0  0  0
    7.1898  -12.6124   26.6789 C   0  0  1  0  0  0  0  0  0  0  0  0
    5.9988  -13.3882   27.1498 C   0  0  0  0  0  0  0  0  0  0  0  0
    8.4128  -13.5199   26.4973 C   0  0  2  0  0  0  0  0  0  0  0  0
    8.0285  -14.4936   25.5010 N   0  0  0  0  0  0  0  0  0  0  0  0
    8.7358  -14.2128   27.7546 C   0  0  0  0  0  0  0  0  0  0  0  0
    9.3967  -13.5688   28.8130 O   0  0  0  0  0  0  0  0  0  0  0  0
    8.4410  -15.4098   27.9509 O   0  0  0  0  0  0  0  0  0  0  0  0
  2  4  1  0
  2  1  1  1
  3  2  1  0
  4  5  1  6
  6  7  2  0
  6  4  1  0
  8  6  1  0
  9  8  1  0
  9 10  1  1
 11 15  1  0
 11 10  1  0
 12 11  2  0
 13 12  1  0
 13 14  1  0
 14 15  2  0
 16 22  1  0
 16  9  1  0
 17 16  2  0
 19 21  1  0
 19 18  1  6
 20 19  1  0
 21 23  1  0
 21 22  1  6
 23 24  1  0
 25 23  2  0
M  END
$$$$
