VHV.pdb
     RDKit          3D

 25 25  0  0  1  0  0  0  0  0999 V2000
    9.1602  -12.5360   18.1005 C   0  0  0  0  0  0  0  0  0  0  0  0
    8.7477  -13.0832   19.4385 C   0  0  1  0  0  0  0  0  0  0  0  0
    7.2960  -12.7440   19.7024 C   0  0  0  0  0  0  0  0  0  0  0  0
    8.8641  -14.5938   19.4694 C   0  0  2  0  0  0  0  0  0  0  0  0
    8.0440  -15.1454   18.3586 N   0  0  0  0  0  0  0  0  0  0  0  0
    8.3072  -15.2024   20.7004 C   0  0  0  0  0  0  0  0  0  0  0  0
    7.1319  -15.7159   20.6595 O   0  0  0  0  0  0  0  0  0  0  0  0
    8.9409  -15.2852   21.9458 N   0  0  0  0  0  0  0  0  0  0  0  0
    8.2559  -15.8595   23.1340 C   0  0  1  0  0  0  0  0  0  0  0  0
    8.5970  -17.3004   23.1042 C   0  0  0  0  0  0  0  0  0  0  0  0
    8.2040  -18.0885   24.2867 C   0  0  0  0  0  0  0  0  0  0  0  0
    9.0214  -18.7444   25.1823 C   0  0  0  0  0  0  0  0  0  0  0  0
    8.2029  -19.3409   26.0643 N   0  0  0  0  0  0  0  0  0  0  0  0
    6.9436  -19.0654   25.7277 C   0  0  0  0  0  0  0  0  0  0  0  0
    6.9047  -18.2954   24.6364 N   0  0  0  0  0  0  0  0  0  0  0  0
    8.5671  -15.0832   24.3163 C   0  0  0  0  0  0  0  0  0  0  0  0
    9.8076  -14.7857   24.4971 O   0  0  0  0  0  0  0  0  0  0  0  0
    6.9538  -11.8540   25.7341 C   0  0  0  0  0  0  0  0  0  0  0  0
    7.0826  -12.8778   26.8251 C   0  0  1  0  0  0  0  0  0  0  0  0
    5.8055  -13.5933   27.1400 C   0  0  0  0  0  0  0  0  0  0  0  0
    8.1984  -13.8620   26.4522 C   0  0  2  0  0  0  0  0  0  0  0  0
    7.7034  -14.5941   25.3088 N   0  0  0  0  0  0  0  0  0  0  0  0
    8.4528  -14.8002   27.5568 C   0  0  0  0  0  0  0  0  0  0  0  0
    9.2951  -14.4757   28.6325 O   0  0  0  0  0  0  0  0  0  0  0  0
    7.9353  -15.9354   27.6000 O   0  0  0  0  0  0  0  0  0  0  0  0
  2  4  1  0
  2  1  1  6
  3  2  1  0
  4  5  1  6
  6  7  2  0
  6  4  1  0
  8  6  1  0
  9  8  1  0
  9 10  1  1
 11 15  1  0
 11 10  1  0
 12 11  2  0
 13 12  1  0
 13 14  1  0
 14 15  2  0
 16 22  1  0
 16  9  1  0
 17 16  2  0
 19 21  1  0
 19 18  1  6
 20 19  1  0
 21 23  1  0
 21 22  1  6
 23 24  1  0
 25 23  2  0
M  END
$$$$
