VHV.pdb
     RDKit          3D

 25 25  0  0  1  0  0  0  0  0999 V2000
    5.8812  -10.4383   25.5906 C   0  0  0  0  0  0  0  0  0  0  0  0
    6.7713  -11.6480   25.6563 C   0  0  1  0  0  0  0  0  0  0  0  0
    7.3322  -11.7928   27.0550 C   0  0  0  0  0  0  0  0  0  0  0  0
    5.9943  -12.9138   25.3555 C   0  0  2  0  0  0  0  0  0  0  0  0
    5.0634  -13.1670   26.4869 N   0  0  0  0  0  0  0  0  0  0  0  0
    6.8465  -14.1235   25.2778 C   0  0  0  0  0  0  0  0  0  0  0  0
    6.8901  -14.9154   26.2867 O   0  0  0  0  0  0  0  0  0  0  0  0
    7.6355  -14.5151   24.1898 N   0  0  0  0  0  0  0  0  0  0  0  0
    8.4269  -15.7737   24.2118 C   0  0  1  0  0  0  0  0  0  0  0  0
    8.7324  -16.0501   22.7892 C   0  0  0  0  0  0  0  0  0  0  0  0
    9.5763  -17.2288   22.5203 C   0  0  0  0  0  0  0  0  0  0  0  0
   10.9067  -17.2586   22.1600 C   0  0  0  0  0  0  0  0  0  0  0  0
   11.2191  -18.5549   21.9993 N   0  0  0  0  0  0  0  0  0  0  0  0
   10.1340  -19.2866   22.2485 C   0  0  0  0  0  0  0  0  0  0  0  0
    9.1012  -18.5035   22.5731 N   0  0  0  0  0  0  0  0  0  0  0  0
    9.5154  -15.6651   25.1609 C   0  0  0  0  0  0  0  0  0  0  0  0
   10.2123  -14.5826   25.1132 O   0  0  0  0  0  0  0  0  0  0  0  0
   11.4032  -15.2171   29.2444 C   0  0  0  0  0  0  0  0  0  0  0  0
   10.4188  -15.3550   28.1188 C   0  0  1  0  0  0  0  0  0  0  0  0
    9.9811  -14.0490   27.5317 C   0  0  0  0  0  0  0  0  0  0  0  0
   11.0154  -16.2779   27.0487 C   0  0  2  0  0  0  0  0  0  0  0  0
    9.9282  -16.5771   26.1449 N   0  0  0  0  0  0  0  0  0  0  0  0
   11.5016  -17.5276   27.6544 C   0  0  0  0  0  0  0  0  0  0  0  0
   12.8267  -17.6775   28.0942 O   0  0  0  0  0  0  0  0  0  0  0  0
   10.7650  -18.5232   27.8111 O   0  0  0  0  0  0  0  0  0  0  0  0
  2  4  1  0
  2  1  1  1
  3  2  1  0
  4  5  1  1
  6  7  2  0
  6  4  1  0
  8  6  1  0
  9  8  1  0
  9 10  1  6
 11 15  1  0
 11 10  1  0
 12 11  2  0
 13 12  1  0
 13 14  1  0
 14 15  2  0
 16 22  1  0
 16  9  1  0
 17 16  2  0
 19 21  1  0
 19 18  1  1
 20 19  1  0
 21 23  1  0
 21 22  1  6
 23 24  1  0
 25 23  2  0
M  END
$$$$
