VHV.pdb
     RDKit          3D

 25 25  0  0  1  0  0  0  0  0999 V2000
    8.7109  -12.6423   18.2245 C   0  0  0  0  0  0  0  0  0  0  0  0
    8.5026  -13.1356   19.6293 C   0  0  1  0  0  0  0  0  0  0  0  0
    7.0820  -12.8465   20.0657 C   0  0  0  0  0  0  0  0  0  0  0  0
    8.6974  -14.6359   19.7149 C   0  0  2  0  0  0  0  0  0  0  0  0
    7.7279  -15.2835   18.7921 N   0  0  0  0  0  0  0  0  0  0  0  0
    8.3900  -15.1943   21.0527 C   0  0  0  0  0  0  0  0  0  0  0  0
    7.1699  -15.4632   21.3454 O   0  0  0  0  0  0  0  0  0  0  0  0
    9.3124  -15.4734   22.0680 N   0  0  0  0  0  0  0  0  0  0  0  0
    8.8965  -16.1017   23.3499 C   0  0  1  0  0  0  0  0  0  0  0  0
    9.6295  -17.3879   23.3929 C   0  0  0  0  0  0  0  0  0  0  0  0
    9.1410  -18.4476   22.4916 C   0  0  0  0  0  0  0  0  0  0  0  0
    8.0686  -19.2940   22.6759 C   0  0  0  0  0  0  0  0  0  0  0  0
    8.0418  -20.0992   21.6013 N   0  0  0  0  0  0  0  0  0  0  0  0
    9.0486  -19.7644   20.7954 C   0  0  0  0  0  0  0  0  0  0  0  0
    9.7485  -18.7498   21.3113 N   0  0  0  0  0  0  0  0  0  0  0  0
    9.0505  -15.1629   24.4418 C   0  0  0  0  0  0  0  0  0  0  0  0
   10.2290  -14.6714   24.6139 O   0  0  0  0  0  0  0  0  0  0  0  0
    6.9737  -12.0793   25.4589 C   0  0  0  0  0  0  0  0  0  0  0  0
    7.2004  -12.9360   26.6713 C   0  0  1  0  0  0  0  0  0  0  0  0
    6.0149  -13.7642   27.0596 C   0  0  0  0  0  0  0  0  0  0  0  0
    8.4401  -13.8082   26.4372 C   0  0  2  0  0  0  0  0  0  0  0  0
    8.0897  -14.6970   25.3529 N   0  0  0  0  0  0  0  0  0  0  0  0
    8.7490  -14.6030   27.6364 C   0  0  0  0  0  0  0  0  0  0  0  0
    9.4559  -14.0672   28.7251 O   0  0  0  0  0  0  0  0  0  0  0  0
    8.4007  -15.7960   27.7535 O   0  0  0  0  0  0  0  0  0  0  0  0
  2  4  1  0
  2  1  1  6
  3  2  1  0
  4  5  1  6
  6  7  2  0
  6  4  1  0
  8  6  1  0
  9  8  1  0
  9 10  1  1
 11 15  1  0
 11 10  1  0
 12 11  2  0
 13 12  1  0
 13 14  1  0
 14 15  2  0
 16 22  1  0
 16  9  1  0
 17 16  2  0
 19 21  1  0
 19 18  1  6
 20 19  1  0
 21 23  1  0
 21 22  1  6
 23 24  1  0
 25 23  2  0
M  END
$$$$
