VHV.pdb
     RDKit          3D

 25 25  0  0  1  0  0  0  0  0999 V2000
    8.5667  -12.4987   20.5109 C   0  0  0  0  0  0  0  0  0  0  0  0
    7.7692  -13.4830   19.7014 C   0  0  1  0  0  0  0  0  0  0  0  0
    7.7932  -13.0809   18.2420 C   0  0  0  0  0  0  0  0  0  0  0  0
    8.3670  -14.8727   19.7897 C   0  0  2  0  0  0  0  0  0  0  0  0
    7.5281  -15.7915   18.9755 N   0  0  0  0  0  0  0  0  0  0  0  0
    8.3427  -15.4384   21.1591 C   0  0  0  0  0  0  0  0  0  0  0  0
    7.2156  -15.7845   21.6657 O   0  0  0  0  0  0  0  0  0  0  0  0
    9.4490  -15.6471   21.9911 N   0  0  0  0  0  0  0  0  0  0  0  0
    9.3099  -16.2705   23.3338 C   0  0  1  0  0  0  0  0  0  0  0  0
   10.3786  -17.2946   23.3849 C   0  0  0  0  0  0  0  0  0  0  0  0
   10.1002  -18.5634   22.6875 C   0  0  0  0  0  0  0  0  0  0  0  0
    8.9404  -18.9465   22.0483 C   0  0  0  0  0  0  0  0  0  0  0  0
    9.1596  -20.1917   21.5954 N   0  0  0  0  0  0  0  0  0  0  0  0
   10.3940  -20.5568   21.9392 C   0  0  0  0  0  0  0  0  0  0  0  0
   11.0046  -19.5784   22.6140 N   0  0  0  0  0  0  0  0  0  0  0  0
    9.2599  -15.2484   24.3585 C   0  0  0  0  0  0  0  0  0  0  0  0
   10.2058  -14.3738   24.3431 O   0  0  0  0  0  0  0  0  0  0  0  0
    6.9551  -12.3108   27.4483 C   0  0  0  0  0  0  0  0  0  0  0  0
    6.9671  -13.4214   26.4375 C   0  0  1  0  0  0  0  0  0  0  0  0
    6.3948  -13.0383   25.1080 C   0  0  0  0  0  0  0  0  0  0  0  0
    8.4002  -13.9500   26.2988 C   0  0  2  0  0  0  0  0  0  0  0  0
    8.3158  -15.0627   25.3805 N   0  0  0  0  0  0  0  0  0  0  0  0
    8.9046  -14.4277   27.5959 C   0  0  0  0  0  0  0  0  0  0  0  0
    9.0487  -15.7947   27.8829 O   0  0  0  0  0  0  0  0  0  0  0  0
    9.2323  -13.6462   28.5125 O   0  0  0  0  0  0  0  0  0  0  0  0
  2  4  1  0
  2  1  1  1
  3  2  1  0
  4  5  1  6
  6  7  2  0
  6  4  1  0
  8  6  1  0
  9  8  1  0
  9 10  1  1
 11 15  1  0
 11 10  1  0
 12 11  2  0
 13 12  1  0
 13 14  1  0
 14 15  2  0
 16 22  1  0
 16  9  1  0
 17 16  2  0
 19 21  1  0
 19 18  1  1
 20 19  1  0
 21 23  1  0
 21 22  1  6
 23 24  1  0
 25 23  2  0
M  END
$$$$
