VHV.pdb
     RDKit          3D

 25 25  0  0  1  0  0  0  0  0999 V2000
    8.3035  -12.5307   20.2298 C   0  0  0  0  0  0  0  0  0  0  0  0
    7.8439  -13.4720   19.1515 C   0  0  1  0  0  0  0  0  0  0  0  0
    8.3918  -13.0216   17.8140 C   0  0  0  0  0  0  0  0  0  0  0  0
    8.3624  -14.8749   19.3949 C   0  0  2  0  0  0  0  0  0  0  0  0
    7.7922  -15.7681   18.3519 N   0  0  0  0  0  0  0  0  0  0  0  0
    7.9161  -15.4523   20.6846 C   0  0  0  0  0  0  0  0  0  0  0  0
    6.7003  -15.8470   20.7980 O   0  0  0  0  0  0  0  0  0  0  0  0
    8.6984  -15.6237   21.8327 N   0  0  0  0  0  0  0  0  0  0  0  0
    8.1138  -16.1093   23.1108 C   0  0  1  0  0  0  0  0  0  0  0  0
    8.5909  -17.5058   23.2354 C   0  0  0  0  0  0  0  0  0  0  0  0
    8.2601  -18.1984   24.4942 C   0  0  0  0  0  0  0  0  0  0  0  0
    9.1206  -18.6192   25.4856 C   0  0  0  0  0  0  0  0  0  0  0  0
    8.3555  -19.2205   26.4112 N   0  0  0  0  0  0  0  0  0  0  0  0
    7.0863  -19.1720   26.0088 C   0  0  0  0  0  0  0  0  0  0  0  0
    6.9884  -18.5491   24.8308 N   0  0  0  0  0  0  0  0  0  0  0  0
    8.3899  -15.1696   24.1775 C   0  0  0  0  0  0  0  0  0  0  0  0
    9.5490  -14.6073   24.1610 O   0  0  0  0  0  0  0  0  0  0  0  0
    7.0056  -12.0608   27.6999 C   0  0  0  0  0  0  0  0  0  0  0  0
    6.6760  -13.0710   26.6387 C   0  0  1  0  0  0  0  0  0  0  0  0
    5.9043  -12.5095   25.4849 C   0  0  0  0  0  0  0  0  0  0  0  0
    7.9744  -13.7403   26.1711 C   0  0  2  0  0  0  0  0  0  0  0  0
    7.5671  -14.7698   25.2422 N   0  0  0  0  0  0  0  0  0  0  0  0
    8.6762  -14.3601   27.3061 C   0  0  0  0  0  0  0  0  0  0  0  0
    8.6557  -15.7464   27.5292 O   0  0  0  0  0  0  0  0  0  0  0  0
    9.3283  -13.6900   28.1331 O   0  0  0  0  0  0  0  0  0  0  0  0
  2  4  1  0
  2  1  1  1
  3  2  1  0
  4  5  1  6
  6  7  2  0
  6  4  1  0
  8  6  1  0
  9  8  1  0
  9 10  1  1
 11 15  1  0
 11 10  1  0
 12 11  2  0
 13 12  1  0
 13 14  1  0
 14 15  2  0
 16 22  1  0
 16  9  1  0
 17 16  2  0
 19 21  1  0
 19 18  1  1
 20 19  1  0
 21 23  1  0
 21 22  1  6
 23 24  1  0
 25 23  2  0
M  END
$$$$
