VHV.pdb
     RDKit          3D

 25 25  0  0  1  0  0  0  0  0999 V2000
    8.2534  -12.5674   20.5352 C   0  0  0  0  0  0  0  0  0  0  0  0
    7.6365  -13.5226   19.5518 C   0  0  1  0  0  0  0  0  0  0  0  0
    7.9822  -13.0957   18.1410 C   0  0  0  0  0  0  0  0  0  0  0  0
    8.1810  -14.9244   19.7382 C   0  0  2  0  0  0  0  0  0  0  0  0
    7.4492  -15.8331   18.8165 N   0  0  0  0  0  0  0  0  0  0  0  0
    7.9417  -15.4738   21.0935 C   0  0  0  0  0  0  0  0  0  0  0  0
    6.7453  -15.7946   21.4287 O   0  0  0  0  0  0  0  0  0  0  0  0
    8.9071  -15.6918   22.0835 N   0  0  0  0  0  0  0  0  0  0  0  0
    8.5556  -16.2893   23.3989 C   0  0  1  0  0  0  0  0  0  0  0  0
    9.2582  -17.5929   23.4191 C   0  0  0  0  0  0  0  0  0  0  0  0
    8.6701  -18.6638   22.5937 C   0  0  0  0  0  0  0  0  0  0  0  0
    7.3442  -19.0263   22.4885 C   0  0  0  0  0  0  0  0  0  0  0  0
    7.3099  -20.0684   21.6420 N   0  0  0  0  0  0  0  0  0  0  0  0
    8.5540  -20.3340   21.2459 C   0  0  0  0  0  0  0  0  0  0  0  0
    9.4200  -19.4885   21.8120 N   0  0  0  0  0  0  0  0  0  0  0  0
    8.7993  -15.3378   24.4631 C   0  0  0  0  0  0  0  0  0  0  0  0
   10.0109  -14.9189   24.5918 O   0  0  0  0  0  0  0  0  0  0  0  0
    7.4520  -12.0343   27.8191 C   0  0  0  0  0  0  0  0  0  0  0  0
    7.0916  -13.0153   26.7407 C   0  0  1  0  0  0  0  0  0  0  0  0
    6.5208  -12.3817   25.5099 C   0  0  0  0  0  0  0  0  0  0  0  0
    8.3249  -13.8658   26.4119 C   0  0  2  0  0  0  0  0  0  0  0  0
    7.8960  -14.7910   25.3880 N   0  0  0  0  0  0  0  0  0  0  0  0
    8.7647  -14.6209   27.5957 C   0  0  0  0  0  0  0  0  0  0  0  0
    9.7352  -14.1231   28.4802 O   0  0  0  0  0  0  0  0  0  0  0  0
    8.3008  -15.7443   27.8801 O   0  0  0  0  0  0  0  0  0  0  0  0
  2  4  1  0
  2  1  1  1
  3  2  1  0
  4  5  1  6
  6  7  2  0
  6  4  1  0
  8  6  1  0
  9  8  1  0
  9 10  1  1
 11 15  1  0
 11 10  1  0
 12 11  2  0
 13 12  1  0
 13 14  1  0
 14 15  2  0
 16 22  1  0
 16  9  1  0
 17 16  2  0
 19 21  1  0
 19 18  1  1
 20 19  1  0
 21 23  1  0
 21 22  1  6
 23 24  1  0
 25 23  2  0
M  END
$$$$
