VHV.pdb
     RDKit          3D

 25 25  0  0  1  0  0  0  0  0999 V2000
    6.1160  -20.1775   26.1942 C   0  0  0  0  0  0  0  0  0  0  0  0
    7.1506  -20.9517   25.4259 C   0  0  1  0  0  0  0  0  0  0  0  0
    6.8286  -22.4299   25.4842 C   0  0  0  0  0  0  0  0  0  0  0  0
    7.1540  -20.5547   23.9634 C   0  0  2  0  0  0  0  0  0  0  0  0
    8.1431  -21.4078   23.2530 N   0  0  0  0  0  0  0  0  0  0  0  0
    7.6070  -19.1629   23.7321 C   0  0  0  0  0  0  0  0  0  0  0  0
    8.8460  -18.8783   23.9070 O   0  0  0  0  0  0  0  0  0  0  0  0
    6.8088  -18.0861   23.3283 N   0  0  0  0  0  0  0  0  0  0  0  0
    7.3694  -16.7197   23.1562 C   0  0  1  0  0  0  0  0  0  0  0  0
    6.8547  -16.2650   21.8440 C   0  0  0  0  0  0  0  0  0  0  0  0
    7.2659  -14.9161   21.4138 C   0  0  0  0  0  0  0  0  0  0  0  0
    6.6354  -13.7151   21.6601 C   0  0  0  0  0  0  0  0  0  0  0  0
    7.3700  -12.7761   21.0417 N   0  0  0  0  0  0  0  0  0  0  0  0
    8.4019  -13.3704   20.4443 C   0  0  0  0  0  0  0  0  0  0  0  0
    8.3711  -14.6900   20.6517 N   0  0  0  0  0  0  0  0  0  0  0  0
    7.1089  -15.9188   24.3344 C   0  0  0  0  0  0  0  0  0  0  0  0
    5.9549  -16.0697   24.8871 O   0  0  0  0  0  0  0  0  0  0  0  0
    8.4031  -12.6756   27.8126 C   0  0  0  0  0  0  0  0  0  0  0  0
    8.7812  -13.7067   26.7883 C   0  0  1  0  0  0  0  0  0  0  0  0
    9.6380  -14.8107   27.3260 C   0  0  0  0  0  0  0  0  0  0  0  0
    7.5031  -14.2546   26.1412 C   0  0  2  0  0  0  0  0  0  0  0  0
    7.9423  -14.9902   24.9775 N   0  0  0  0  0  0  0  0  0  0  0  0
    6.6238  -13.1538   25.7167 C   0  0  0  0  0  0  0  0  0  0  0  0
    5.6232  -12.6330   26.5531 O   0  0  0  0  0  0  0  0  0  0  0  0
    6.7175  -12.6217   24.5914 O   0  0  0  0  0  0  0  0  0  0  0  0
  2  4  1  0
  2  1  1  1
  3  2  1  0
  4  5  1  6
  6  7  2  0
  6  4  1  0
  8  6  1  0
  9  8  1  0
  9 10  1  6
 11 15  1  0
 11 10  1  0
 12 11  2  0
 13 12  1  0
 13 14  1  0
 14 15  2  0
 16 22  1  0
 16  9  1  0
 17 16  2  0
 19 21  1  0
 19 18  1  1
 20 19  1  0
 21 23  1  0
 21 22  1  6
 23 24  1  0
 25 23  2  0
M  END
$$$$
