VHV.pdb
     RDKit          3D

 25 25  0  0  1  0  0  0  0  0999 V2000
    8.2491  -12.5746   21.1447 C   0  0  0  0  0  0  0  0  0  0  0  0
    7.7746  -13.4872   20.0483 C   0  0  1  0  0  0  0  0  0  0  0  0
    7.7987  -12.7507   18.7258 C   0  0  0  0  0  0  0  0  0  0  0  0
    8.6875  -14.6882   19.9052 C   0  0  2  0  0  0  0  0  0  0  0  0
    8.1592  -15.5452   18.8109 N   0  0  0  0  0  0  0  0  0  0  0  0
    8.7067  -15.5595   21.1036 C   0  0  0  0  0  0  0  0  0  0  0  0
    7.9671  -16.6080   21.1182 O   0  0  0  0  0  0  0  0  0  0  0  0
    9.4686  -15.3625   22.2614 N   0  0  0  0  0  0  0  0  0  0  0  0
    9.5128  -16.3755   23.3490 C   0  0  1  0  0  0  0  0  0  0  0  0
   10.1881  -17.5467   22.7441 C   0  0  0  0  0  0  0  0  0  0  0  0
   10.3259  -18.7363   23.6041 C   0  0  0  0  0  0  0  0  0  0  0  0
   11.0931  -18.8808   24.7403 C   0  0  0  0  0  0  0  0  0  0  0  0
   10.9128  -20.1465   25.1519 N   0  0  0  0  0  0  0  0  0  0  0  0
   10.0757  -20.7510   24.3099 C   0  0  0  0  0  0  0  0  0  0  0  0
    9.6925  -19.9127   23.3425 N   0  0  0  0  0  0  0  0  0  0  0  0
   10.0571  -15.7910   24.5569 C   0  0  0  0  0  0  0  0  0  0  0  0
   11.1808  -15.1718   24.4388 O   0  0  0  0  0  0  0  0  0  0  0  0
    9.5982  -13.3506   28.6390 C   0  0  0  0  0  0  0  0  0  0  0  0
    9.0316  -14.1740   27.5182 C   0  0  1  0  0  0  0  0  0  0  0  0
    8.3491  -13.3673   26.4574 C   0  0  0  0  0  0  0  0  0  0  0  0
   10.1487  -15.0437   26.9282 C   0  0  2  0  0  0  0  0  0  0  0  0
    9.5316  -15.7944   25.8586 N   0  0  0  0  0  0  0  0  0  0  0  0
   10.6682  -15.9772   27.9400 C   0  0  0  0  0  0  0  0  0  0  0  0
   11.7971  -15.6794   28.7203 O   0  0  0  0  0  0  0  0  0  0  0  0
   10.1359  -17.0844   28.1614 O   0  0  0  0  0  0  0  0  0  0  0  0
  2  4  1  0
  2  1  1  1
  3  2  1  0
  4  5  1  6
  6  7  2  0
  6  4  1  0
  8  6  1  0
  9  8  1  0
  9 10  1  6
 11 15  1  0
 11 10  1  0
 12 11  2  0
 13 12  1  0
 13 14  1  0
 14 15  2  0
 16 22  1  0
 16  9  1  0
 17 16  2  0
 19 21  1  0
 19 18  1  1
 20 19  1  0
 21 23  1  0
 21 22  1  6
 23 24  1  0
 25 23  2  0
M  END
$$$$
