VHV.pdb
     RDKit          3D

 25 25  0  0  1  0  0  0  0  0999 V2000
    8.8039  -13.1700   18.1986 C   0  0  0  0  0  0  0  0  0  0  0  0
    8.5093  -13.5745   19.6162 C   0  0  1  0  0  0  0  0  0  0  0  0
    7.2178  -12.9296   20.0724 C   0  0  0  0  0  0  0  0  0  0  0  0
    8.3211  -15.0740   19.7275 C   0  0  2  0  0  0  0  0  0  0  0  0
    7.2812  -15.4854   18.7476 N   0  0  0  0  0  0  0  0  0  0  0  0
    7.8020  -15.5061   21.0465 C   0  0  0  0  0  0  0  0  0  0  0  0
    6.5329  -15.6011   21.2110 O   0  0  0  0  0  0  0  0  0  0  0  0
    8.5661  -15.8358   22.1721 N   0  0  0  0  0  0  0  0  0  0  0  0
    7.9322  -16.2051   23.4655 C   0  0  1  0  0  0  0  0  0  0  0  0
    8.1430  -17.6663   23.5834 C   0  0  0  0  0  0  0  0  0  0  0  0
    7.7139  -18.2873   24.8499 C   0  0  0  0  0  0  0  0  0  0  0  0
    7.1798  -17.6713   25.9616 C   0  0  0  0  0  0  0  0  0  0  0  0
    6.9785  -18.6446   26.8649 N   0  0  0  0  0  0  0  0  0  0  0  0
    7.3697  -19.8026   26.3348 C   0  0  0  0  0  0  0  0  0  0  0  0
    7.8291  -19.6218   25.0931 N   0  0  0  0  0  0  0  0  0  0  0  0
    8.4047  -15.3347   24.5221 C   0  0  0  0  0  0  0  0  0  0  0  0
    9.6689  -15.0865   24.5386 O   0  0  0  0  0  0  0  0  0  0  0  0
    7.3752  -11.8525   25.3735 C   0  0  0  0  0  0  0  0  0  0  0  0
    7.3766  -12.6321   26.6570 C   0  0  1  0  0  0  0  0  0  0  0  0
    6.0143  -13.0563   27.1110 C   0  0  0  0  0  0  0  0  0  0  0  0
    8.3159  -13.8351   26.5053 C   0  0  2  0  0  0  0  0  0  0  0  0
    7.6775  -14.7067   25.5455 N   0  0  0  0  0  0  0  0  0  0  0  0
    8.4599  -14.5453   27.7859 C   0  0  0  0  0  0  0  0  0  0  0  0
    9.3525  -14.1155   28.7812 O   0  0  0  0  0  0  0  0  0  0  0  0
    7.7982  -15.5678   28.0593 O   0  0  0  0  0  0  0  0  0  0  0  0
  2  4  1  0
  2  1  1  6
  3  2  1  0
  4  5  1  6
  6  7  2  0
  6  4  1  0
  8  6  1  0
  9  8  1  0
  9 10  1  1
 11 15  1  0
 11 10  1  0
 12 11  2  0
 13 12  1  0
 13 14  1  0
 14 15  2  0
 16 22  1  0
 16  9  1  0
 17 16  2  0
 19 21  1  0
 19 18  1  6
 20 19  1  0
 21 23  1  0
 21 22  1  6
 23 24  1  0
 25 23  2  0
M  END
$$$$
