VHV.pdb
     RDKit          3D

 25 25  0  0  1  0  0  0  0  0999 V2000
    8.2509  -12.5964   20.4089 C   0  0  0  0  0  0  0  0  0  0  0  0
    7.7334  -13.5614   19.3789 C   0  0  1  0  0  0  0  0  0  0  0  0
    8.3140  -13.2197   18.0230 C   0  0  0  0  0  0  0  0  0  0  0  0
    8.1574  -14.9805   19.6994 C   0  0  2  0  0  0  0  0  0  0  0  0
    7.5359  -15.8880   18.6989 N   0  0  0  0  0  0  0  0  0  0  0  0
    7.6667  -15.4593   21.0131 C   0  0  0  0  0  0  0  0  0  0  0  0
    6.4117  -15.6829   21.1607 O   0  0  0  0  0  0  0  0  0  0  0  0
    8.4445  -15.7057   22.1506 N   0  0  0  0  0  0  0  0  0  0  0  0
    7.8278  -16.0537   23.4581 C   0  0  1  0  0  0  0  0  0  0  0  0
    8.0339  -17.5140   23.5938 C   0  0  0  0  0  0  0  0  0  0  0  0
    7.6825  -18.1040   24.8984 C   0  0  0  0  0  0  0  0  0  0  0  0
    7.2089  -17.4621   26.0228 C   0  0  0  0  0  0  0  0  0  0  0  0
    7.0664  -18.4126   26.9610 N   0  0  0  0  0  0  0  0  0  0  0  0
    7.4343  -19.5820   26.4391 C   0  0  0  0  0  0  0  0  0  0  0  0
    7.8205  -19.4311   25.1689 N   0  0  0  0  0  0  0  0  0  0  0  0
    8.3194  -15.1705   24.4952 C   0  0  0  0  0  0  0  0  0  0  0  0
    9.5969  -15.0168   24.5600 O   0  0  0  0  0  0  0  0  0  0  0  0
    7.3775  -11.5563   25.4228 C   0  0  0  0  0  0  0  0  0  0  0  0
    7.3481  -12.4112   26.6571 C   0  0  1  0  0  0  0  0  0  0  0  0
    5.9722  -12.8322   27.0713 C   0  0  0  0  0  0  0  0  0  0  0  0
    8.2635  -13.6231   26.4425 C   0  0  2  0  0  0  0  0  0  0  0  0
    7.5987  -14.4408   25.4537 N   0  0  0  0  0  0  0  0  0  0  0  0
    8.4087  -14.3905   27.6895 C   0  0  0  0  0  0  0  0  0  0  0  0
    9.2912  -13.9980   28.7089 O   0  0  0  0  0  0  0  0  0  0  0  0
    7.7569  -15.4318   27.9113 O   0  0  0  0  0  0  0  0  0  0  0  0
  2  4  1  0
  2  1  1  1
  3  2  1  0
  4  5  1  6
  6  7  2  0
  6  4  1  0
  8  6  1  0
  9  8  1  0
  9 10  1  1
 11 15  1  0
 11 10  1  0
 12 11  2  0
 13 12  1  0
 13 14  1  0
 14 15  2  0
 16 22  1  0
 16  9  1  0
 17 16  2  0
 19 21  1  0
 19 18  1  6
 20 19  1  0
 21 23  1  0
 21 22  1  6
 23 24  1  0
 25 23  2  0
M  END
$$$$
