VHV.pdb
     RDKit          3D

 25 25  0  0  1  0  0  0  0  0999 V2000
    7.6848  -11.4122   25.1662 C   0  0  0  0  0  0  0  0  0  0  0  0
    6.5633  -11.9703   25.9973 C   0  0  1  0  0  0  0  0  0  0  0  0
    5.4511  -10.9487   26.1045 C   0  0  0  0  0  0  0  0  0  0  0  0
    5.9703  -13.2071   25.3530 C   0  0  2  0  0  0  0  0  0  0  0  0
    4.9215  -13.7452   26.2592 N   0  0  0  0  0  0  0  0  0  0  0  0
    6.9450  -14.3115   25.1909 C   0  0  0  0  0  0  0  0  0  0  0  0
    7.2162  -15.0510   26.2039 O   0  0  0  0  0  0  0  0  0  0  0  0
    7.6258  -14.6525   24.0162 N   0  0  0  0  0  0  0  0  0  0  0  0
    8.5860  -15.7868   23.9713 C   0  0  1  0  0  0  0  0  0  0  0  0
    8.8531  -15.9960   22.5296 C   0  0  0  0  0  0  0  0  0  0  0  0
    9.8172  -17.0593   22.1923 C   0  0  0  0  0  0  0  0  0  0  0  0
   11.0436  -16.9319   21.5758 C   0  0  0  0  0  0  0  0  0  0  0  0
   11.5326  -18.1773   21.4603 N   0  0  0  0  0  0  0  0  0  0  0  0
   10.6501  -19.0293   21.9802 C   0  0  0  0  0  0  0  0  0  0  0  0
    9.5794  -18.3764   22.4416 N   0  0  0  0  0  0  0  0  0  0  0  0
    9.6962  -15.5399   24.8678 C   0  0  0  0  0  0  0  0  0  0  0  0
   10.5547  -14.6574   24.4884 O   0  0  0  0  0  0  0  0  0  0  0  0
   10.5773  -13.7580   27.6138 C   0  0  0  0  0  0  0  0  0  0  0  0
   10.9973  -15.1424   28.0164 C   0  0  1  0  0  0  0  0  0  0  0  0
   10.0252  -15.8322   28.9226 C   0  0  0  0  0  0  0  0  0  0  0  0
   11.2649  -15.9669   26.7510 C   0  0  2  0  0  0  0  0  0  0  0  0
    9.9784  -16.1252   26.1121 N   0  0  0  0  0  0  0  0  0  0  0  0
   11.8007  -17.2923   27.0993 C   0  0  0  0  0  0  0  0  0  0  0  0
   13.1451  -17.4832   27.4573 O   0  0  0  0  0  0  0  0  0  0  0  0
   11.0919  -18.3198   27.0963 O   0  0  0  0  0  0  0  0  0  0  0  0
  2  4  1  0
  2  1  1  6
  3  2  1  0
  4  5  1  1
  6  7  2  0
  6  4  1  0
  8  6  1  0
  9  8  1  0
  9 10  1  6
 11 15  1  0
 11 10  1  0
 12 11  2  0
 13 12  1  0
 13 14  1  0
 14 15  2  0
 16 22  1  0
 16  9  1  0
 17 16  2  0
 19 21  1  0
 19 18  1  6
 20 19  1  0
 21 23  1  0
 21 22  1  1
 23 24  1  0
 25 23  2  0
M  END
$$$$
