VHV.pdb
     RDKit          3D

 25 25  0  0  1  0  0  0  0  0999 V2000
    8.3241  -12.3509   20.5585 C   0  0  0  0  0  0  0  0  0  0  0  0
    7.8250  -13.3703   19.5727 C   0  0  1  0  0  0  0  0  0  0  0  0
    8.0681  -12.8769   18.1621 C   0  0  0  0  0  0  0  0  0  0  0  0
    8.5702  -14.6816   19.7197 C   0  0  2  0  0  0  0  0  0  0  0  0
    8.0050  -15.6489   18.7422 N   0  0  0  0  0  0  0  0  0  0  0  0
    8.3855  -15.3185   21.0449 C   0  0  0  0  0  0  0  0  0  0  0  0
    7.2315  -15.7900   21.3493 O   0  0  0  0  0  0  0  0  0  0  0  0
    9.3621  -15.4713   22.0361 N   0  0  0  0  0  0  0  0  0  0  0  0
    9.0580  -16.1215   23.3384 C   0  0  1  0  0  0  0  0  0  0  0  0
    9.8979  -17.3412   23.3543 C   0  0  0  0  0  0  0  0  0  0  0  0
    9.4560  -18.4489   22.4873 C   0  0  0  0  0  0  0  0  0  0  0  0
    9.9222  -18.7874   21.2349 C   0  0  0  0  0  0  0  0  0  0  0  0
    9.1933  -19.8441   20.8402 N   0  0  0  0  0  0  0  0  0  0  0  0
    8.3214  -20.1412   21.8028 C   0  0  0  0  0  0  0  0  0  0  0  0
    8.4537  -19.3023   22.8344 N   0  0  0  0  0  0  0  0  0  0  0  0
    9.1809  -15.1638   24.4178 C   0  0  0  0  0  0  0  0  0  0  0  0
   10.3403  -14.6253   24.5778 O   0  0  0  0  0  0  0  0  0  0  0  0
    7.1580  -12.0786   25.3560 C   0  0  0  0  0  0  0  0  0  0  0  0
    7.3101  -12.9242   26.5877 C   0  0  1  0  0  0  0  0  0  0  0  0
    6.0871  -13.7150   26.9359 C   0  0  0  0  0  0  0  0  0  0  0  0
    8.5342  -13.8325   26.4175 C   0  0  2  0  0  0  0  0  0  0  0  0
    8.2071  -14.7239   25.3281 N   0  0  0  0  0  0  0  0  0  0  0  0
    8.7681  -14.6215   27.6373 C   0  0  0  0  0  0  0  0  0  0  0  0
    9.4120  -14.0822   28.7628 O   0  0  0  0  0  0  0  0  0  0  0  0
    8.4081  -15.8122   27.7404 O   0  0  0  0  0  0  0  0  0  0  0  0
  2  4  1  0
  2  1  1  1
  3  2  1  0
  4  5  1  6
  6  7  2  0
  6  4  1  0
  8  6  1  0
  9  8  1  0
  9 10  1  1
 11 15  1  0
 11 10  1  0
 12 11  2  0
 13 12  1  0
 13 14  1  0
 14 15  2  0
 16 22  1  0
 16  9  1  0
 17 16  2  0
 19 21  1  0
 19 18  1  6
 20 19  1  0
 21 23  1  0
 21 22  1  6
 23 24  1  0
 25 23  2  0
M  END
$$$$
