DWT.pdb
     RDKit          3D

 30 31  0  0  1  0  0  0  0  0999 V2000
    9.4723  -17.4527   20.7952 N   0  0  0  0  0  0  0  0  0  0  0  0
   10.6653  -17.5351   21.6008 C   0  0  1  0  0  0  0  0  0  0  0  0
   11.6882  -16.5874   20.9787 C   0  0  0  0  0  0  0  0  0  0  0  0
   12.0630  -17.1578   19.6725 C   0  0  0  0  0  0  0  0  0  0  0  0
   11.5430  -18.2257   19.2951 O   0  0  0  0  0  0  0  0  0  0  0  0
   10.4050  -17.1865   23.0320 C   0  0  0  0  0  0  0  0  0  0  0  0
   11.3908  -16.8580   23.7272 O   0  0  0  0  0  0  0  0  0  0  0  0
   12.9807  -16.5220   18.8688 O   0  0  0  0  0  0  0  0  0  0  0  0
    9.1025  -17.2236   23.5875 N   0  0  0  0  0  0  0  0  0  0  0  0
    8.7479  -16.9087   24.9450 C   0  0  1  0  0  0  0  0  0  0  0  0
    7.3637  -16.2925   25.0992 C   0  0  0  0  0  0  0  0  0  0  0  0
    7.3442  -14.9444   24.5061 C   0  0  0  0  0  0  0  0  0  0  0  0
    7.4477  -14.5609   23.2216 C   0  0  0  0  0  0  0  0  0  0  0  0
    7.3726  -13.1996   23.1402 N   0  0  0  0  0  0  0  0  0  0  0  0
    7.2194  -12.7057   24.3811 C   0  0  0  0  0  0  0  0  0  0  0  0
    7.0886  -11.4273   24.8870 C   0  0  0  0  0  0  0  0  0  0  0  0
    6.9375  -11.2143   26.2462 C   0  0  0  0  0  0  0  0  0  0  0  0
    6.9162  -12.2774   27.1054 C   0  0  0  0  0  0  0  0  0  0  0  0
    7.0475  -13.5820   26.6140 C   0  0  0  0  0  0  0  0  0  0  0  0
    7.1977  -13.7808   25.2604 C   0  0  0  0  0  0  0  0  0  0  0  0
    9.0536  -17.9376   25.9265 C   0  0  0  0  0  0  0  0  0  0  0  0
    8.2925  -18.9447   26.1402 O   0  0  0  0  0  0  0  0  0  0  0  0
   11.6342  -20.2598   25.7399 C   0  0  0  0  0  0  0  0  0  0  0  0
   11.8076  -19.6377   27.0830 C   0  0  1  0  0  0  0  0  0  0  0  0
   12.8633  -18.7101   27.0337 O   0  0  0  0  0  0  0  0  0  0  0  0
   10.5963  -18.9479   27.6368 C   0  0  2  0  0  0  0  0  0  0  0  0
   10.2163  -17.8914   26.7103 N   0  0  0  0  0  0  0  0  0  0  0  0
   10.7576  -18.4616   29.0061 C   0  0  0  0  0  0  0  0  0  0  0  0
   10.9187  -19.2732   30.1154 O   0  0  0  0  0  0  0  0  0  0  0  0
   10.7525  -17.2193   29.2131 O   0  0  0  0  0  0  0  0  0  0  0  0
  2  1  1  6
  2  3  1  0
  4  3  1  0
  5  4  2  0
  6  9  1  0
  6  2  1  0
  7  6  2  0
  8  4  1  0
 10  9  1  0
 11 12  1  0
 10 11  1  6
 12 13  2  0
 12 20  1  0
 13 14  1  0
 14 15  1  0
 15 16  2  0
 16 17  1  0
 18 17  2  0
 19 18  1  0
 20 19  2  0
 20 15  1  0
 21 22  2  0
 21 10  1  0
 24 23  1  6
 24 25  1  0
 24 26  1  0
 26 27  1  6
 26 28  1  0
 27 21  1  0
 28 29  1  0
 30 28  2  0
M  END
$$$$
