DWT.pdb
     RDKit          3D

 30 31  0  0  1  0  0  0  0  0999 V2000
   10.6753  -17.1358   19.4090 N   0  0  0  0  0  0  0  0  0  0  0  0
   11.5498  -17.1536   20.5552 C   0  0  1  0  0  0  0  0  0  0  0  0
   12.8871  -16.5713   20.1031 C   0  0  0  0  0  0  0  0  0  0  0  0
   13.2790  -17.2950   18.8805 C   0  0  0  0  0  0  0  0  0  0  0  0
   13.0279  -18.5115   18.7781 O   0  0  0  0  0  0  0  0  0  0  0  0
   10.9862  -16.3836   21.7073 C   0  0  0  0  0  0  0  0  0  0  0  0
   11.6116  -15.3645   22.0723 O   0  0  0  0  0  0  0  0  0  0  0  0
   13.9186  -16.6395   17.8542 O   0  0  0  0  0  0  0  0  0  0  0  0
    9.7965  -16.7821   22.3647 N   0  0  0  0  0  0  0  0  0  0  0  0
    9.2043  -16.1461   23.5102 C   0  0  1  0  0  0  0  0  0  0  0  0
    7.7298  -15.8050   23.3392 C   0  0  0  0  0  0  0  0  0  0  0  0
    7.1942  -15.2458   24.5922 C   0  0  0  0  0  0  0  0  0  0  0  0
    6.5927  -15.8579   25.6272 C   0  0  0  0  0  0  0  0  0  0  0  0
    6.2645  -14.9357   26.5797 N   0  0  0  0  0  0  0  0  0  0  0  0
    6.6583  -13.7231   26.1533 C   0  0  0  0  0  0  0  0  0  0  0  0
    6.5874  -12.4547   26.6951 C   0  0  0  0  0  0  0  0  0  0  0  0
    7.0930  -11.3624   26.0119 C   0  0  0  0  0  0  0  0  0  0  0  0
    7.6715  -11.5327   24.7850 C   0  0  0  0  0  0  0  0  0  0  0  0
    7.7536  -12.8099   24.2169 C   0  0  0  0  0  0  0  0  0  0  0  0
    7.2468  -13.8881   24.9060 C   0  0  0  0  0  0  0  0  0  0  0  0
    9.5315  -16.7420   24.7959 C   0  0  0  0  0  0  0  0  0  0  0  0
    9.5526  -18.0070   24.9924 O   0  0  0  0  0  0  0  0  0  0  0  0
   11.8451  -15.7164   29.0928 C   0  0  0  0  0  0  0  0  0  0  0  0
   11.2755  -15.3994   27.7527 C   0  0  1  0  0  0  0  0  0  0  0  0
   12.3158  -15.0387   26.8780 O   0  0  0  0  0  0  0  0  0  0  0  0
   10.4782  -16.4973   27.1133 C   0  0  2  0  0  0  0  0  0  0  0  0
    9.8495  -15.9589   25.9159 N   0  0  0  0  0  0  0  0  0  0  0  0
    9.5187  -17.1408   28.0093 C   0  0  0  0  0  0  0  0  0  0  0  0
    9.8436  -18.1016   28.9509 O   0  0  0  0  0  0  0  0  0  0  0  0
    8.3053  -16.8119   27.9358 O   0  0  0  0  0  0  0  0  0  0  0  0
  2  1  1  6
  2  3  1  0
  4  3  1  0
  5  4  2  0
  6  9  1  0
  6  2  1  0
  7  6  2  0
  8  4  1  0
 10  9  1  0
 11 12  1  0
 10 11  1  6
 12 13  2  0
 12 20  1  0
 13 14  1  0
 14 15  1  0
 15 16  2  0
 16 17  1  0
 18 17  2  0
 19 18  1  0
 20 19  2  0
 20 15  1  0
 21 22  2  0
 21 10  1  0
 24 23  1  1
 24 25  1  0
 24 26  1  0
 26 27  1  6
 26 28  1  0
 27 21  1  0
 28 29  1  0
 30 28  2  0
M  END
$$$$
