DWT.pdb
     RDKit          3D

 30 31  0  0  1  0  0  0  0  0999 V2000
    6.7436  -17.1579   21.0500 N   0  0  0  0  0  0  0  0  0  0  0  0
    8.1293  -16.8540   20.7923 C   0  0  1  0  0  0  0  0  0  0  0  0
    8.1541  -15.7679   19.7192 C   0  0  0  0  0  0  0  0  0  0  0  0
    8.1148  -16.4525   18.4147 C   0  0  0  0  0  0  0  0  0  0  0  0
    8.1234  -17.6980   18.3726 O   0  0  0  0  0  0  0  0  0  0  0  0
    8.8492  -16.4115   22.0268 C   0  0  0  0  0  0  0  0  0  0  0  0
    9.7487  -15.5547   21.8860 O   0  0  0  0  0  0  0  0  0  0  0  0
    8.0690  -15.7286   17.2459 O   0  0  0  0  0  0  0  0  0  0  0  0
    8.5347  -16.9335   23.3055 N   0  0  0  0  0  0  0  0  0  0  0  0
    9.3083  -16.7659   24.5059 C   0  0  1  0  0  0  0  0  0  0  0  0
    8.4710  -16.6069   25.7681 C   0  0  0  0  0  0  0  0  0  0  0  0
    7.3916  -15.6318   25.5364 C   0  0  0  0  0  0  0  0  0  0  0  0
    6.1503  -15.8115   25.0522 C   0  0  0  0  0  0  0  0  0  0  0  0
    5.4924  -14.6152   25.0167 N   0  0  0  0  0  0  0  0  0  0  0  0
    6.3170  -13.6607   25.4819 C   0  0  0  0  0  0  0  0  0  0  0  0
    6.1858  -12.2988   25.6701 C   0  0  0  0  0  0  0  0  0  0  0  0
    7.2302  -11.5500   26.1838 C   0  0  0  0  0  0  0  0  0  0  0  0
    8.4097  -12.1584   26.5118 C   0  0  0  0  0  0  0  0  0  0  0  0
    8.5645  -13.5380   26.3288 C   0  0  0  0  0  0  0  0  0  0  0  0
    7.5187  -14.2718   25.8166 C   0  0  0  0  0  0  0  0  0  0  0  0
   10.4397  -17.6680   24.6524 C   0  0  0  0  0  0  0  0  0  0  0  0
   10.3075  -18.9154   24.9087 O   0  0  0  0  0  0  0  0  0  0  0  0
   13.5734  -17.4463   22.2959 C   0  0  0  0  0  0  0  0  0  0  0  0
   13.9848  -17.6057   23.7193 C   0  0  1  0  0  0  0  0  0  0  0  0
   14.4618  -16.3759   24.2067 O   0  0  0  0  0  0  0  0  0  0  0  0
   12.9172  -18.1017   24.6488 C   0  0  2  0  0  0  0  0  0  0  0  0
   11.7637  -17.2232   24.5199 N   0  0  0  0  0  0  0  0  0  0  0  0
   13.3538  -18.2538   26.0358 C   0  0  0  0  0  0  0  0  0  0  0  0
   14.2636  -19.1998   26.4749 O   0  0  0  0  0  0  0  0  0  0  0  0
   12.8809  -17.4793   26.9090 O   0  0  0  0  0  0  0  0  0  0  0  0
  2  1  1  1
  2  3  1  0
  4  3  1  0
  5  4  2  0
  6  9  1  0
  6  2  1  0
  7  6  2  0
  8  4  1  0
 10  9  1  0
 11 12  1  0
 10 11  1  1
 12 13  2  0
 12 20  1  0
 13 14  1  0
 14 15  1  0
 15 16  2  0
 16 17  1  0
 18 17  2  0
 19 18  1  0
 20 19  2  0
 20 15  1  0
 21 22  2  0
 21 10  1  0
 24 23  1  6
 24 25  1  0
 24 26  1  0
 26 27  1  1
 26 28  1  0
 27 21  1  0
 28 29  1  0
 30 28  2  0
M  END
$$$$
