DWT.pdb
     RDKit          3D

 30 31  0  0  1  0  0  0  0  0999 V2000
    9.8735  -17.7179   20.8973 N   0  0  0  0  0  0  0  0  0  0  0  0
   10.9641  -16.9286   21.4134 C   0  0  1  0  0  0  0  0  0  0  0  0
   11.2298  -15.8196   20.3979 C   0  0  0  0  0  0  0  0  0  0  0  0
   11.6702  -16.4741   19.1530 C   0  0  0  0  0  0  0  0  0  0  0  0
   12.3627  -17.5085   19.2131 O   0  0  0  0  0  0  0  0  0  0  0  0
   10.6618  -16.3635   22.7651 C   0  0  0  0  0  0  0  0  0  0  0  0
   11.3097  -15.3547   23.1192 O   0  0  0  0  0  0  0  0  0  0  0  0
   11.3238  -15.9526   17.9282 O   0  0  0  0  0  0  0  0  0  0  0  0
    9.6860  -16.9378   23.6163 N   0  0  0  0  0  0  0  0  0  0  0  0
    9.3646  -16.5102   24.9510 C   0  0  1  0  0  0  0  0  0  0  0  0
    7.9866  -16.9482   25.4294 C   0  0  0  0  0  0  0  0  0  0  0  0
    6.9963  -15.8964   25.1417 C   0  0  0  0  0  0  0  0  0  0  0  0
    5.7701  -15.9857   24.5976 C   0  0  0  0  0  0  0  0  0  0  0  0
    5.2067  -14.7436   24.5261 N   0  0  0  0  0  0  0  0  0  0  0  0
    6.0773  -13.8506   25.0281 C   0  0  0  0  0  0  0  0  0  0  0  0
    6.0400  -12.4814   25.2052 C   0  0  0  0  0  0  0  0  0  0  0  0
    7.1116  -11.8096   25.7673 C   0  0  0  0  0  0  0  0  0  0  0  0
    8.2245  -12.5026   26.1548 C   0  0  0  0  0  0  0  0  0  0  0  0
    8.2836  -13.8911   25.9841 C   0  0  0  0  0  0  0  0  0  0  0  0
    7.2117  -14.5478   25.4235 C   0  0  0  0  0  0  0  0  0  0  0  0
   10.4200  -16.6868   25.9360 C   0  0  0  0  0  0  0  0  0  0  0  0
   11.4304  -17.4496   25.7454 O   0  0  0  0  0  0  0  0  0  0  0  0
   11.2173  -13.8732   28.9272 C   0  0  0  0  0  0  0  0  0  0  0  0
   11.1134  -15.3021   29.3374 C   0  0  1  0  0  0  0  0  0  0  0  0
    9.8452  -15.5344   29.8988 O   0  0  0  0  0  0  0  0  0  0  0  0
   11.3394  -16.3058   28.2459 C   0  0  2  0  0  0  0  0  0  0  0  0
   10.3977  -16.0238   27.1723 N   0  0  0  0  0  0  0  0  0  0  0  0
   11.2823  -17.6974   28.6906 C   0  0  0  0  0  0  0  0  0  0  0  0
   10.2764  -18.5885   28.3594 O   0  0  0  0  0  0  0  0  0  0  0  0
   12.2038  -18.1368   29.4278 O   0  0  0  0  0  0  0  0  0  0  0  0
  2  1  1  6
  2  3  1  0
  4  3  1  0
  5  4  2  0
  6  9  1  0
  6  2  1  0
  7  6  2  0
  8  4  1  0
 10  9  1  0
 11 12  1  0
 10 11  1  1
 12 13  2  0
 12 20  1  0
 13 14  1  0
 14 15  1  0
 15 16  2  0
 16 17  1  0
 18 17  2  0
 19 18  1  0
 20 19  2  0
 20 15  1  0
 21 22  2  0
 21 10  1  0
 24 23  1  6
 24 25  1  0
 24 26  1  0
 26 27  1  6
 26 28  1  0
 27 21  1  0
 28 29  1  0
 30 28  2  0
M  END
$$$$
