DWT.pdb
     RDKit          3D

 30 31  0  0  1  0  0  0  0  0999 V2000
    9.8686  -16.2548   20.4302 N   0  0  0  0  0  0  0  0  0  0  0  0
   10.0532  -17.3281   21.3751 C   0  0  1  0  0  0  0  0  0  0  0  0
   11.4128  -17.9552   21.0754 C   0  0  0  0  0  0  0  0  0  0  0  0
   11.2782  -18.6832   19.8011 C   0  0  0  0  0  0  0  0  0  0  0  0
   10.4041  -18.3363   18.9833 O   0  0  0  0  0  0  0  0  0  0  0  0
    9.9771  -16.8525   22.7914 C   0  0  0  0  0  0  0  0  0  0  0  0
   10.7396  -15.9182   23.1208 O   0  0  0  0  0  0  0  0  0  0  0  0
   12.1080  -19.7405   19.5084 O   0  0  0  0  0  0  0  0  0  0  0  0
    9.0841  -17.4282   23.7282 N   0  0  0  0  0  0  0  0  0  0  0  0
    8.9755  -17.0858   25.1205 C   0  0  1  0  0  0  0  0  0  0  0  0
    7.5970  -16.5860   25.5324 C   0  0  0  0  0  0  0  0  0  0  0  0
    7.3202  -15.2888   24.8919 C   0  0  0  0  0  0  0  0  0  0  0  0
    7.0788  -14.9924   23.6028 C   0  0  0  0  0  0  0  0  0  0  0  0
    6.8700  -13.6492   23.4707 N   0  0  0  0  0  0  0  0  0  0  0  0
    6.9777  -13.0792   24.6834 C   0  0  0  0  0  0  0  0  0  0  0  0
    6.8633  -11.7800   25.1377 C   0  0  0  0  0  0  0  0  0  0  0  0
    7.0255  -11.4809   26.4793 C   0  0  0  0  0  0  0  0  0  0  0  0
    7.3025  -12.4782   27.3723 C   0  0  0  0  0  0  0  0  0  0  0  0
    7.4232  -13.8024   26.9333 C   0  0  0  0  0  0  0  0  0  0  0  0
    7.2601  -14.0870   25.5966 C   0  0  0  0  0  0  0  0  0  0  0  0
    9.5636  -18.0399   26.0474 C   0  0  0  0  0  0  0  0  0  0  0  0
    8.9917  -19.1381   26.3730 O   0  0  0  0  0  0  0  0  0  0  0  0
   13.7805  -19.6041   28.1147 C   0  0  0  0  0  0  0  0  0  0  0  0
   12.9453  -18.6598   27.3201 C   0  0  1  0  0  0  0  0  0  0  0  0
   13.2265  -18.8269   25.9525 O   0  0  0  0  0  0  0  0  0  0  0  0
   11.4636  -18.7842   27.5177 C   0  0  2  0  0  0  0  0  0  0  0  0
   10.8103  -17.8149   26.6504 N   0  0  0  0  0  0  0  0  0  0  0  0
   11.0333  -18.6701   28.9103 C   0  0  0  0  0  0  0  0  0  0  0  0
   11.2039  -19.6530   29.8696 O   0  0  0  0  0  0  0  0  0  0  0  0
   10.4652  -17.6103   29.2846 O   0  0  0  0  0  0  0  0  0  0  0  0
  2  1  1  6
  2  3  1  0
  4  3  1  0
  5  4  2  0
  6  9  1  0
  6  2  1  0
  7  6  2  0
  8  4  1  0
 10  9  1  0
 11 12  1  0
 10 11  1  1
 12 13  2  0
 12 20  1  0
 13 14  1  0
 14 15  1  0
 15 16  2  0
 16 17  1  0
 18 17  2  0
 19 18  1  0
 20 19  2  0
 20 15  1  0
 21 22  2  0
 21 10  1  0
 24 23  1  1
 24 25  1  0
 24 26  1  0
 26 27  1  6
 26 28  1  0
 27 21  1  0
 28 29  1  0
 30 28  2  0
M  END
$$$$
