DWT.pdb
     RDKit          3D

 30 31  0  0  1  0  0  0  0  0999 V2000
   10.0326  -17.6201   19.4416 N   0  0  0  0  0  0  0  0  0  0  0  0
   11.1255  -16.9914   20.1409 C   0  0  1  0  0  0  0  0  0  0  0  0
   11.6616  -15.8898   19.2294 C   0  0  0  0  0  0  0  0  0  0  0  0
   12.3285  -16.5566   18.0968 C   0  0  0  0  0  0  0  0  0  0  0  0
   13.5730  -16.6116   18.0610 O   0  0  0  0  0  0  0  0  0  0  0  0
   10.7048  -16.4400   21.4663 C   0  0  0  0  0  0  0  0  0  0  0  0
   11.5627  -15.8060   22.1183 O   0  0  0  0  0  0  0  0  0  0  0  0
   11.5892  -17.1170   17.0811 O   0  0  0  0  0  0  0  0  0  0  0  0
    9.3941  -16.6220   21.9719 N   0  0  0  0  0  0  0  0  0  0  0  0
    8.9238  -16.2340   23.2741 C   0  0  1  0  0  0  0  0  0  0  0  0
    7.4706  -15.7789   23.3003 C   0  0  0  0  0  0  0  0  0  0  0  0
    7.1157  -15.3061   24.6494 C   0  0  0  0  0  0  0  0  0  0  0  0
    6.5077  -15.9495   25.6614 C   0  0  0  0  0  0  0  0  0  0  0  0
    6.3890  -15.1123   26.7339 N   0  0  0  0  0  0  0  0  0  0  0  0
    6.9249  -13.9230   26.4083 C   0  0  0  0  0  0  0  0  0  0  0  0
    7.0810  -12.7314   27.0888 C   0  0  0  0  0  0  0  0  0  0  0  0
    7.6907  -11.6450   26.4859 C   0  0  0  0  0  0  0  0  0  0  0  0
    8.1470  -11.7445   25.2011 C   0  0  0  0  0  0  0  0  0  0  0  0
    7.9986  -12.9432   24.4926 C   0  0  0  0  0  0  0  0  0  0  0  0
    7.3902  -14.0163   25.1029 C   0  0  0  0  0  0  0  0  0  0  0  0
    9.2867  -17.1278   24.3626 C   0  0  0  0  0  0  0  0  0  0  0  0
    8.8700  -18.3358   24.4405 O   0  0  0  0  0  0  0  0  0  0  0  0
   12.6643  -18.5392   27.5059 C   0  0  0  0  0  0  0  0  0  0  0  0
   12.0367  -17.7646   26.3981 C   0  0  1  0  0  0  0  0  0  0  0  0
   12.3443  -18.3761   25.1698 O   0  0  0  0  0  0  0  0  0  0  0  0
   10.5483  -17.6011   26.4864 C   0  0  2  0  0  0  0  0  0  0  0  0
   10.1273  -16.7180   25.4085 N   0  0  0  0  0  0  0  0  0  0  0  0
   10.0710  -17.1560   27.7946 C   0  0  0  0  0  0  0  0  0  0  0  0
    9.8609  -17.9881   28.8803 O   0  0  0  0  0  0  0  0  0  0  0  0
    9.8280  -15.9324   27.9674 O   0  0  0  0  0  0  0  0  0  0  0  0
  2  1  1  6
  2  3  1  0
  4  3  1  0
  5  4  2  0
  6  9  1  0
  6  2  1  0
  7  6  2  0
  8  4  1  0
 10  9  1  0
 11 12  1  0
 10 11  1  6
 12 13  2  0
 12 20  1  0
 13 14  1  0
 14 15  1  0
 15 16  2  0
 16 17  1  0
 18 17  2  0
 19 18  1  0
 20 19  2  0
 20 15  1  0
 21 22  2  0
 21 10  1  0
 24 23  1  1
 24 25  1  0
 24 26  1  0
 26 27  1  6
 26 28  1  0
 27 21  1  0
 28 29  1  0
 30 28  2  0
M  END
$$$$
