DWT.pdb
     RDKit          3D

 30 31  0  0  1  0  0  0  0  0999 V2000
    9.6748  -17.9023   21.2095 N   0  0  0  0  0  0  0  0  0  0  0  0
   10.8289  -17.3618   21.8839 C   0  0  1  0  0  0  0  0  0  0  0  0
   11.3109  -16.1726   21.0562 C   0  0  0  0  0  0  0  0  0  0  0  0
   12.1131  -16.7187   19.9469 C   0  0  0  0  0  0  0  0  0  0  0  0
   12.0772  -17.9406   19.7046 O   0  0  0  0  0  0  0  0  0  0  0  0
   10.5214  -16.9535   23.2897 C   0  0  0  0  0  0  0  0  0  0  0  0
   11.4218  -16.3580   23.9204 O   0  0  0  0  0  0  0  0  0  0  0  0
   12.8996  -15.8916   19.1791 O   0  0  0  0  0  0  0  0  0  0  0  0
    9.2681  -17.2244   23.8917 N   0  0  0  0  0  0  0  0  0  0  0  0
    8.9044  -16.9544   25.2564 C   0  0  1  0  0  0  0  0  0  0  0  0
    7.4945  -16.4041   25.4270 C   0  0  0  0  0  0  0  0  0  0  0  0
    7.3776  -15.1013   24.7499 C   0  0  0  0  0  0  0  0  0  0  0  0
    7.3594  -14.8043   23.4387 C   0  0  0  0  0  0  0  0  0  0  0  0
    7.2295  -13.4548   23.2742 N   0  0  0  0  0  0  0  0  0  0  0  0
    7.1635  -12.8812   24.4883 C   0  0  0  0  0  0  0  0  0  0  0  0
    7.0304  -11.5754   24.9178 C   0  0  0  0  0  0  0  0  0  0  0  0
    6.9864  -11.2738   26.2678 C   0  0  0  0  0  0  0  0  0  0  0  0
    7.0750  -12.2753   27.1942 C   0  0  0  0  0  0  0  0  0  0  0  0
    7.2107  -13.6062   26.7807 C   0  0  0  0  0  0  0  0  0  0  0  0
    7.2538  -13.8933   25.4354 C   0  0  0  0  0  0  0  0  0  0  0  0
    9.2591  -17.9890   26.2151 C   0  0  0  0  0  0  0  0  0  0  0  0
    8.5225  -19.0114   26.4412 O   0  0  0  0  0  0  0  0  0  0  0  0
   12.1858  -20.0515   25.9572 C   0  0  0  0  0  0  0  0  0  0  0  0
   12.1963  -19.5150   27.3475 C   0  0  1  0  0  0  0  0  0  0  0  0
   13.1444  -18.4806   27.4404 O   0  0  0  0  0  0  0  0  0  0  0  0
   10.8810  -18.9987   27.8509 C   0  0  2  0  0  0  0  0  0  0  0  0
   10.4457  -17.9317   26.9616 N   0  0  0  0  0  0  0  0  0  0  0  0
   10.8960  -18.5881   29.2540 C   0  0  0  0  0  0  0  0  0  0  0  0
   11.0525  -19.4510   30.3246 O   0  0  0  0  0  0  0  0  0  0  0  0
   10.7585  -17.3671   29.5301 O   0  0  0  0  0  0  0  0  0  0  0  0
  2  1  1  6
  2  3  1  0
  4  3  1  0
  5  4  2  0
  6  9  1  0
  6  2  1  0
  7  6  2  0
  8  4  1  0
 10  9  1  0
 11 12  1  0
 10 11  1  6
 12 13  2  0
 12 20  1  0
 13 14  1  0
 14 15  1  0
 15 16  2  0
 16 17  1  0
 18 17  2  0
 19 18  1  0
 20 19  2  0
 20 15  1  0
 21 22  2  0
 21 10  1  0
 24 23  1  6
 24 25  1  0
 24 26  1  0
 26 27  1  6
 26 28  1  0
 27 21  1  0
 28 29  1  0
 30 28  2  0
M  END
$$$$
