DWT.pdb
     RDKit          3D

 30 31  0  0  1  0  0  0  0  0999 V2000
   10.0295  -17.2657   21.5502 N   0  0  0  0  0  0  0  0  0  0  0  0
   11.0877  -16.8881   22.4538 C   0  0  1  0  0  0  0  0  0  0  0  0
   11.7241  -15.6205   21.8881 C   0  0  0  0  0  0  0  0  0  0  0  0
   12.4906  -16.0209   20.6947 C   0  0  0  0  0  0  0  0  0  0  0  0
   12.4314  -17.1987   20.2916 O   0  0  0  0  0  0  0  0  0  0  0  0
   10.5886  -16.6677   23.8467 C   0  0  0  0  0  0  0  0  0  0  0  0
   11.3928  -16.1790   24.6698 O   0  0  0  0  0  0  0  0  0  0  0  0
   13.2694  -15.1065   20.0242 O   0  0  0  0  0  0  0  0  0  0  0  0
    9.2645  -16.9948   24.2289 N   0  0  0  0  0  0  0  0  0  0  0  0
    8.6956  -16.8409   25.5405 C   0  0  1  0  0  0  0  0  0  0  0  0
    7.2493  -16.3638   25.5389 C   0  0  0  0  0  0  0  0  0  0  0  0
    7.1573  -15.0387   24.9022 C   0  0  0  0  0  0  0  0  0  0  0  0
    7.2557  -14.6905   23.6073 C   0  0  0  0  0  0  0  0  0  0  0  0
    7.1002  -13.3395   23.4809 N   0  0  0  0  0  0  0  0  0  0  0  0
    6.9002  -12.8167   24.7032 C   0  0  0  0  0  0  0  0  0  0  0  0
    6.6858  -11.5331   25.1657 C   0  0  0  0  0  0  0  0  0  0  0  0
    6.5030  -11.2869   26.5153 C   0  0  0  0  0  0  0  0  0  0  0  0
    6.5335  -12.3216   27.4083 C   0  0  0  0  0  0  0  0  0  0  0  0
    6.7497  -13.6308   26.9611 C   0  0  0  0  0  0  0  0  0  0  0  0
    6.9306  -13.8628   25.6166 C   0  0  0  0  0  0  0  0  0  0  0  0
    8.9625  -17.9273   26.4699 C   0  0  0  0  0  0  0  0  0  0  0  0
    8.0365  -18.6406   26.9922 O   0  0  0  0  0  0  0  0  0  0  0  0
   10.8007  -21.0742   26.0572 C   0  0  0  0  0  0  0  0  0  0  0  0
   11.4310  -20.3308   27.1846 C   0  0  1  0  0  0  0  0  0  0  0  0
   12.6045  -19.7032   26.7302 O   0  0  0  0  0  0  0  0  0  0  0  0
   10.5649  -19.2973   27.8415 C   0  0  2  0  0  0  0  0  0  0  0  0
   10.2676  -18.2669   26.8573 N   0  0  0  0  0  0  0  0  0  0  0  0
   11.1201  -18.7483   29.0776 C   0  0  0  0  0  0  0  0  0  0  0  0
   11.2145  -19.4397   30.2728 O   0  0  0  0  0  0  0  0  0  0  0  0
   11.5486  -17.5641   29.0766 O   0  0  0  0  0  0  0  0  0  0  0  0
  2  1  1  6
  2  3  1  0
  4  3  1  0
  5  4  2  0
  6  9  1  0
  6  2  1  0
  7  6  2  0
  8  4  1  0
 10  9  1  0
 11 12  1  0
 10 11  1  6
 12 13  2  0
 12 20  1  0
 13 14  1  0
 14 15  1  0
 15 16  2  0
 16 17  1  0
 18 17  2  0
 19 18  1  0
 20 19  2  0
 20 15  1  0
 21 22  2  0
 21 10  1  0
 24 23  1  6
 24 25  1  0
 24 26  1  0
 26 27  1  6
 26 28  1  0
 27 21  1  0
 28 29  1  0
 30 28  2  0
M  END
$$$$
