DWT.pdb
     RDKit          3D

 30 31  0  0  1  0  0  0  0  0999 V2000
    9.5644  -16.5096   20.6082 N   0  0  0  0  0  0  0  0  0  0  0  0
   10.3897  -17.2522   21.5281 C   0  0  1  0  0  0  0  0  0  0  0  0
   11.8399  -17.0246   21.1076 C   0  0  0  0  0  0  0  0  0  0  0  0
   12.0009  -17.6331   19.7750 C   0  0  0  0  0  0  0  0  0  0  0  0
   11.0344  -18.2111   19.2414 O   0  0  0  0  0  0  0  0  0  0  0  0
   10.1666  -16.8373   22.9479 C   0  0  0  0  0  0  0  0  0  0  0  0
   10.9438  -15.9794   23.4200 O   0  0  0  0  0  0  0  0  0  0  0  0
   13.2074  -17.5681   19.1175 O   0  0  0  0  0  0  0  0  0  0  0  0
    9.1235  -17.3857   23.7338 N   0  0  0  0  0  0  0  0  0  0  0  0
    8.8419  -17.0748   25.1092 C   0  0  1  0  0  0  0  0  0  0  0  0
    7.4289  -16.5620   25.3541 C   0  0  0  0  0  0  0  0  0  0  0  0
    7.2653  -15.2292   24.7485 C   0  0  0  0  0  0  0  0  0  0  0  0
    7.0756  -14.8779   23.4647 C   0  0  0  0  0  0  0  0  0  0  0  0
    6.9723  -13.5193   23.3697 N   0  0  0  0  0  0  0  0  0  0  0  0
    7.0961  -12.9948   24.6014 C   0  0  0  0  0  0  0  0  0  0  0  0
    7.0706  -11.7045   25.0931 C   0  0  0  0  0  0  0  0  0  0  0  0
    7.2255  -11.4579   26.4461 C   0  0  0  0  0  0  0  0  0  0  0  0
    7.4063  -12.4991   27.3134 C   0  0  0  0  0  0  0  0  0  0  0  0
    7.4358  -13.8152   26.8363 C   0  0  0  0  0  0  0  0  0  0  0  0
    7.2811  -14.0475   25.4885 C   0  0  0  0  0  0  0  0  0  0  0  0
    9.2931  -18.0606   26.0788 C   0  0  0  0  0  0  0  0  0  0  0  0
    8.7245  -19.1972   26.2330 O   0  0  0  0  0  0  0  0  0  0  0  0
   12.2861  -19.8091   26.0507 C   0  0  0  0  0  0  0  0  0  0  0  0
   12.2258  -19.2718   27.4394 C   0  0  1  0  0  0  0  0  0  0  0  0
   13.1385  -18.2098   27.5679 O   0  0  0  0  0  0  0  0  0  0  0  0
   10.8770  -18.7943   27.8896 C   0  0  2  0  0  0  0  0  0  0  0  0
   10.3940  -17.8257   26.9163 N   0  0  0  0  0  0  0  0  0  0  0  0
   10.8503  -18.2766   29.2566 C   0  0  0  0  0  0  0  0  0  0  0  0
   11.1201  -19.0273   30.3875 O   0  0  0  0  0  0  0  0  0  0  0  0
   10.5641  -17.0641   29.4404 O   0  0  0  0  0  0  0  0  0  0  0  0
  2  1  1  6
  2  3  1  0
  4  3  1  0
  5  4  2  0
  6  9  1  0
  6  2  1  0
  7  6  2  0
  8  4  1  0
 10  9  1  0
 11 12  1  0
 10 11  1  6
 12 13  2  0
 12 20  1  0
 13 14  1  0
 14 15  1  0
 15 16  2  0
 16 17  1  0
 18 17  2  0
 19 18  1  0
 20 19  2  0
 20 15  1  0
 21 22  2  0
 21 10  1  0
 24 23  1  6
 24 25  1  0
 24 26  1  0
 26 27  1  6
 26 28  1  0
 27 21  1  0
 28 29  1  0
 30 28  2  0
M  END
$$$$
