DWT.pdb
     RDKit          3D

 30 31  0  0  1  0  0  0  0  0999 V2000
   10.5112  -16.1446   18.4509 N   0  0  0  0  0  0  0  0  0  0  0  0
   10.1548  -17.1673   19.4027 C   0  0  1  0  0  0  0  0  0  0  0  0
   11.2596  -18.2205   19.3581 C   0  0  0  0  0  0  0  0  0  0  0  0
   11.2558  -18.7892   17.9984 C   0  0  0  0  0  0  0  0  0  0  0  0
   12.2838  -19.3396   17.5585 O   0  0  0  0  0  0  0  0  0  0  0  0
    9.9858  -16.6187   20.7841 C   0  0  0  0  0  0  0  0  0  0  0  0
   11.0134  -16.2028   21.3620 O   0  0  0  0  0  0  0  0  0  0  0  0
   10.1288  -18.7168   17.2130 O   0  0  0  0  0  0  0  0  0  0  0  0
    8.7214  -16.5676   21.4206 N   0  0  0  0  0  0  0  0  0  0  0  0
    8.4662  -16.1464   22.7716 C   0  0  1  0  0  0  0  0  0  0  0  0
    7.0728  -15.5722   22.9912 C   0  0  0  0  0  0  0  0  0  0  0  0
    6.9086  -15.1749   24.4000 C   0  0  0  0  0  0  0  0  0  0  0  0
    6.4253  -15.8684   25.4456 C   0  0  0  0  0  0  0  0  0  0  0  0
    6.4667  -15.0942   26.5700 N   0  0  0  0  0  0  0  0  0  0  0  0
    6.9805  -13.8954   26.2441 C   0  0  0  0  0  0  0  0  0  0  0  0
    7.2503  -12.7483   26.9643 C   0  0  0  0  0  0  0  0  0  0  0  0
    7.7986  -11.6367   26.3484 C   0  0  0  0  0  0  0  0  0  0  0  0
    8.0796  -11.6666   25.0108 C   0  0  0  0  0  0  0  0  0  0  0  0
    7.8137  -12.8192   24.2615 C   0  0  0  0  0  0  0  0  0  0  0  0
    7.2680  -13.9180   24.8853 C   0  0  0  0  0  0  0  0  0  0  0  0
    8.8984  -17.0710   23.8077 C   0  0  0  0  0  0  0  0  0  0  0  0
    8.4530  -18.2675   23.9038 O   0  0  0  0  0  0  0  0  0  0  0  0
   11.6435  -18.9273   24.1252 C   0  0  0  0  0  0  0  0  0  0  0  0
   11.6381  -18.1586   25.4019 C   0  0  1  0  0  0  0  0  0  0  0  0
   12.5472  -17.0901   25.3060 O   0  0  0  0  0  0  0  0  0  0  0  0
   10.3060  -17.6110   25.8209 C   0  0  2  0  0  0  0  0  0  0  0  0
    9.8429  -16.7062   24.7790 N   0  0  0  0  0  0  0  0  0  0  0  0
   10.3030  -16.9903   27.1446 C   0  0  0  0  0  0  0  0  0  0  0  0
   10.5214  -17.6675   28.3316 O   0  0  0  0  0  0  0  0  0  0  0  0
   10.0886  -15.7526   27.2336 O   0  0  0  0  0  0  0  0  0  0  0  0
  2  1  1  6
  2  3  1  0
  4  3  1  0
  5  4  2  0
  6  9  1  0
  6  2  1  0
  7  6  2  0
  8  4  1  0
 10  9  1  0
 11 12  1  0
 10 11  1  6
 12 13  2  0
 12 20  1  0
 13 14  1  0
 14 15  1  0
 15 16  2  0
 16 17  1  0
 18 17  2  0
 19 18  1  0
 20 19  2  0
 20 15  1  0
 21 22  2  0
 21 10  1  0
 24 23  1  6
 24 25  1  0
 24 26  1  0
 26 27  1  6
 26 28  1  0
 27 21  1  0
 28 29  1  0
 30 28  2  0
M  END
$$$$
