DWT.pdb
     RDKit          3D

 30 31  0  0  1  0  0  0  0  0999 V2000
    9.8075  -17.6887   21.2362 N   0  0  0  0  0  0  0  0  0  0  0  0
   10.9359  -17.2145   21.9983 C   0  0  1  0  0  0  0  0  0  0  0  0
   11.5174  -16.0247   21.2381 C   0  0  0  0  0  0  0  0  0  0  0  0
   12.1201  -16.5573   20.0032 C   0  0  0  0  0  0  0  0  0  0  0  0
   11.9920  -15.9284   18.9349 O   0  0  0  0  0  0  0  0  0  0  0  0
   10.5541  -16.8313   23.3930 C   0  0  0  0  0  0  0  0  0  0  0  0
   11.4163  -16.2392   24.0778 O   0  0  0  0  0  0  0  0  0  0  0  0
   12.8210  -17.7407   20.0209 O   0  0  0  0  0  0  0  0  0  0  0  0
    9.2743  -17.1216   23.9263 N   0  0  0  0  0  0  0  0  0  0  0  0
    8.8263  -16.8389   25.2630 C   0  0  1  0  0  0  0  0  0  0  0  0
    7.4034  -16.3017   25.3414 C   0  0  0  0  0  0  0  0  0  0  0  0
    7.3246  -14.9876   24.6805 C   0  0  0  0  0  0  0  0  0  0  0  0
    7.3555  -14.6711   23.3742 C   0  0  0  0  0  0  0  0  0  0  0  0
    7.2465  -13.3178   23.2258 N   0  0  0  0  0  0  0  0  0  0  0  0
    7.1444  -12.7616   24.4454 C   0  0  0  0  0  0  0  0  0  0  0  0
    7.0108  -11.4608   24.8899 C   0  0  0  0  0  0  0  0  0  0  0  0
    6.9229  -11.1789   26.2421 C   0  0  0  0  0  0  0  0  0  0  0  0
    6.9679  -12.1949   27.1556 C   0  0  0  0  0  0  0  0  0  0  0  0
    7.1034  -13.5211   26.7269 C   0  0  0  0  0  0  0  0  0  0  0  0
    7.1902  -13.7886   25.3796 C   0  0  0  0  0  0  0  0  0  0  0  0
    9.1327  -17.8580   26.2544 C   0  0  0  0  0  0  0  0  0  0  0  0
    8.2494  -18.6507   26.7346 O   0  0  0  0  0  0  0  0  0  0  0  0
   11.3581  -20.6332   25.7432 C   0  0  0  0  0  0  0  0  0  0  0  0
   11.8063  -19.9804   27.0057 C   0  0  1  0  0  0  0  0  0  0  0  0
   12.9546  -19.2103   26.7495 O   0  0  0  0  0  0  0  0  0  0  0  0
   10.7895  -19.1057   27.6772 C   0  0  2  0  0  0  0  0  0  0  0  0
   10.4315  -18.0396   26.7530 N   0  0  0  0  0  0  0  0  0  0  0  0
   11.2049  -18.5988   28.9841 C   0  0  0  0  0  0  0  0  0  0  0  0
   11.4142  -19.3860   30.1030 O   0  0  0  0  0  0  0  0  0  0  0  0
   11.3912  -17.3612   29.1233 O   0  0  0  0  0  0  0  0  0  0  0  0
  2  1  1  6
  2  3  1  0
  4  3  1  0
  5  4  2  0
  6  9  1  0
  6  2  1  0
  7  6  2  0
  8  4  1  0
 10  9  1  0
 11 12  1  0
 10 11  1  6
 12 13  2  0
 12 20  1  0
 13 14  1  0
 14 15  1  0
 15 16  2  0
 16 17  1  0
 18 17  2  0
 19 18  1  0
 20 19  2  0
 20 15  1  0
 21 22  2  0
 21 10  1  0
 24 23  1  6
 24 25  1  0
 24 26  1  0
 26 27  1  6
 26 28  1  0
 27 21  1  0
 28 29  1  0
 30 28  2  0
M  END
$$$$
