DWT.pdb
     RDKit          3D

 30 31  0  0  1  0  0  0  0  0999 V2000
   10.4695  -16.1635   20.9029 N   0  0  0  0  0  0  0  0  0  0  0  0
   10.7441  -17.2226   21.8420 C   0  0  1  0  0  0  0  0  0  0  0  0
   12.2387  -17.5217   21.7502 C   0  0  0  0  0  0  0  0  0  0  0  0
   12.5056  -17.9547   20.3670 C   0  0  0  0  0  0  0  0  0  0  0  0
   11.6486  -18.6203   19.7541 O   0  0  0  0  0  0  0  0  0  0  0  0
   10.3504  -16.8555   23.2377 C   0  0  0  0  0  0  0  0  0  0  0  0
   11.0690  -16.0231   23.8325 O   0  0  0  0  0  0  0  0  0  0  0  0
   13.6910  -17.6307   19.7490 O   0  0  0  0  0  0  0  0  0  0  0  0
    9.2151  -17.4200   23.8692 N   0  0  0  0  0  0  0  0  0  0  0  0
    8.7686  -17.1551   25.2102 C   0  0  1  0  0  0  0  0  0  0  0  0
    7.3369  -16.6435   25.2992 C   0  0  0  0  0  0  0  0  0  0  0  0
    7.2427  -15.3041   24.6936 C   0  0  0  0  0  0  0  0  0  0  0  0
    7.1760  -14.9398   23.4011 C   0  0  0  0  0  0  0  0  0  0  0  0
    7.0946  -13.5796   23.3099 N   0  0  0  0  0  0  0  0  0  0  0  0
    7.1088  -13.0668   24.5526 C   0  0  0  0  0  0  0  0  0  0  0  0
    7.0499  -11.7806   25.0520 C   0  0  0  0  0  0  0  0  0  0  0  0
    7.0810  -11.5471   26.4158 C   0  0  0  0  0  0  0  0  0  0  0  0
    7.1709  -12.5975   27.2862 C   0  0  0  0  0  0  0  0  0  0  0  0
    7.2322  -13.9097   26.8015 C   0  0  0  0  0  0  0  0  0  0  0  0
    7.2009  -14.1289   25.4431 C   0  0  0  0  0  0  0  0  0  0  0  0
    9.0975  -18.1760   26.1925 C   0  0  0  0  0  0  0  0  0  0  0  0
    8.9027  -19.4252   25.9911 O   0  0  0  0  0  0  0  0  0  0  0  0
   11.0000  -19.9348   26.0853 C   0  0  0  0  0  0  0  0  0  0  0  0
   11.4426  -19.4433   27.4207 C   0  0  1  0  0  0  0  0  0  0  0  0
   12.4831  -18.5125   27.2529 O   0  0  0  0  0  0  0  0  0  0  0  0
   10.3742  -18.8127   28.2639 C   0  0  2  0  0  0  0  0  0  0  0  0
    9.6566  -17.8526   27.4380 N   0  0  0  0  0  0  0  0  0  0  0  0
   10.8634  -18.2253   29.5101 C   0  0  0  0  0  0  0  0  0  0  0  0
   11.3422  -18.9507   30.5871 O   0  0  0  0  0  0  0  0  0  0  0  0
   10.8576  -16.9720   29.6330 O   0  0  0  0  0  0  0  0  0  0  0  0
  2  1  1  6
  2  3  1  0
  4  3  1  0
  5  4  2  0
  6  9  1  0
  6  2  1  0
  7  6  2  0
  8  4  1  0
 10  9  1  0
 11 12  1  0
 10 11  1  6
 12 13  2  0
 12 20  1  0
 13 14  1  0
 14 15  1  0
 15 16  2  0
 16 17  1  0
 18 17  2  0
 19 18  1  0
 20 19  2  0
 20 15  1  0
 21 22  2  0
 21 10  1  0
 24 23  1  6
 24 25  1  0
 24 26  1  0
 26 27  1  6
 26 28  1  0
 27 21  1  0
 28 29  1  0
 30 28  2  0
M  END
$$$$
