DWT.pdb
     RDKit          3D

 30 31  0  0  1  0  0  0  0  0999 V2000
    8.4666  -17.1971   18.7349 N   0  0  0  0  0  0  0  0  0  0  0  0
    7.9205  -17.2432   20.0685 C   0  0  1  0  0  0  0  0  0  0  0  0
    7.3567  -18.6480   20.2696 C   0  0  0  0  0  0  0  0  0  0  0  0
    6.5423  -18.9578   19.0810 C   0  0  0  0  0  0  0  0  0  0  0  0
    6.5915  -18.2063   18.0881 O   0  0  0  0  0  0  0  0  0  0  0  0
    8.9444  -16.9170   21.1092 C   0  0  0  0  0  0  0  0  0  0  0  0
   10.1130  -17.3101   20.9023 O   0  0  0  0  0  0  0  0  0  0  0  0
    5.7298  -20.0676   19.0596 O   0  0  0  0  0  0  0  0  0  0  0  0
    8.6163  -16.1950   22.2829 N   0  0  0  0  0  0  0  0  0  0  0  0
    9.5113  -15.8738   23.3615 C   0  0  1  0  0  0  0  0  0  0  0  0
    9.3393  -14.4649   23.9137 C   0  0  0  0  0  0  0  0  0  0  0  0
    8.0448  -14.3508   24.6071 C   0  0  0  0  0  0  0  0  0  0  0  0
    7.0799  -15.2675   24.7980 C   0  0  0  0  0  0  0  0  0  0  0  0
    6.0516  -14.7129   25.5053 N   0  0  0  0  0  0  0  0  0  0  0  0
    6.3586  -13.4312   25.7708 C   0  0  0  0  0  0  0  0  0  0  0  0
    5.7057  -12.4156   26.4413 C   0  0  0  0  0  0  0  0  0  0  0  0
    6.2807  -11.1627   26.5643 C   0  0  0  0  0  0  0  0  0  0  0  0
    7.5101  -10.9193   26.0183 C   0  0  0  0  0  0  0  0  0  0  0  0
    8.1896  -11.9346   25.3339 C   0  0  0  0  0  0  0  0  0  0  0  0
    7.6071  -13.1762   25.2179 C   0  0  0  0  0  0  0  0  0  0  0  0
    9.6542  -16.8994   24.3828 C   0  0  0  0  0  0  0  0  0  0  0  0
    8.6537  -17.4626   24.9495 O   0  0  0  0  0  0  0  0  0  0  0  0
   11.4466  -20.0772   23.8483 C   0  0  0  0  0  0  0  0  0  0  0  0
   11.9808  -19.4642   25.0971 C   0  0  1  0  0  0  0  0  0  0  0  0
   13.2222  -18.8617   24.8261 O   0  0  0  0  0  0  0  0  0  0  0  0
   11.0924  -18.4462   25.7485 C   0  0  2  0  0  0  0  0  0  0  0  0
   10.9128  -17.3426   24.8165 N   0  0  0  0  0  0  0  0  0  0  0  0
   11.5543  -18.0010   27.0623 C   0  0  0  0  0  0  0  0  0  0  0  0
   11.5406  -18.7795   28.2064 O   0  0  0  0  0  0  0  0  0  0  0  0
   12.0003  -16.8296   27.1834 O   0  0  0  0  0  0  0  0  0  0  0  0
  2  1  1  6
  2  3  1  0
  4  3  1  0
  5  4  2  0
  6  9  1  0
  6  2  1  0
  7  6  2  0
  8  4  1  0
 10  9  1  0
 11 12  1  0
 10 11  1  1
 12 13  2  0
 12 20  1  0
 13 14  1  0
 14 15  1  0
 15 16  2  0
 16 17  1  0
 18 17  2  0
 19 18  1  0
 20 19  2  0
 20 15  1  0
 21 22  2  0
 21 10  1  0
 24 23  1  6
 24 25  1  0
 24 26  1  0
 26 27  1  6
 26 28  1  0
 27 21  1  0
 28 29  1  0
 30 28  2  0
M  END
$$$$
