QMR.pdb
     RDKit          3D

 29 28  0  0  1  0  0  0  0  0999 V2000
    9.4591  -13.3024   16.8982 N   0  0  0  0  0  0  0  0  0  0  0  0
    8.0717  -13.4499   16.6800 C   0  0  0  0  0  0  0  0  0  0  0  0
    7.6639  -13.7804   15.5479 O   0  0  0  0  0  0  0  0  0  0  0  0
    7.0967  -13.2216   17.7607 C   0  0  0  0  0  0  0  0  0  0  0  0
    7.7646  -12.9459   19.0994 C   0  0  0  0  0  0  0  0  0  0  0  0
    7.9149  -14.2931   19.7677 C   0  0  2  0  0  0  0  0  0  0  0  0
    6.6733  -14.9868   19.8992 N   0  0  0  0  0  0  0  0  0  0  0  0
    8.4950  -14.1515   21.1406 C   0  0  0  0  0  0  0  0  0  0  0  0
    9.6039  -13.5873   21.3592 O   0  0  0  0  0  0  0  0  0  0  0  0
    6.4100  -11.5909   26.7180 C   0  0  0  0  0  0  0  0  0  0  0  0
    6.1699  -13.3832   26.8634 S   0  0  0  0  0  0  0  0  0  0  0  0
    7.5097  -14.2407   25.9529 C   0  0  0  0  0  0  0  0  0  0  0  0
    7.0948  -14.3491   24.5115 C   0  0  0  0  0  0  0  0  0  0  0  0
    8.2614  -14.6992   23.6106 C   0  0  2  0  0  0  0  0  0  0  0  0
    7.7799  -14.6688   22.2509 N   0  0  0  0  0  0  0  0  0  0  0  0
    8.8351  -16.0255   23.9647 C   0  0  0  0  0  0  0  0  0  0  0  0
    8.1550  -17.0477   23.7326 O   0  0  0  0  0  0  0  0  0  0  0  0
   15.4864  -14.4796   21.5686 N   0  0  0  0  0  0  0  0  0  0  0  0
   15.2546  -14.9632   20.2505 C   0  0  0  0  0  0  0  0  0  0  0  0
   16.1540  -14.9006   19.3050 N   0  0  0  0  0  0  0  0  0  0  0  0
   14.0079  -15.5578   19.8707 N   0  0  0  0  0  0  0  0  0  0  0  0
   12.7608  -15.1739   20.5055 C   0  0  0  0  0  0  0  0  0  0  0  0
   12.7208  -15.9877   21.8277 C   0  0  0  0  0  0  0  0  0  0  0  0
   11.4494  -15.7271   22.5538 C   0  0  0  0  0  0  0  0  0  0  0  0
   11.3381  -16.4862   23.8219 C   0  0  2  0  0  0  0  0  0  0  0  0
   10.1128  -16.1388   24.5476 N   0  0  0  0  0  0  0  0  0  0  0  0
   12.5212  -16.4982   24.7022 C   0  0  0  0  0  0  0  0  0  0  0  0
   12.5452  -15.7584   25.7115 O   0  0  0  0  0  0  0  0  0  0  0  0
   13.6205  -17.2822   24.4794 O   0  0  0  0  0  0  0  0  0  0  0  0
  1  2  1  0
  2  3  2  0
  4  5  1  0
  4  2  1  0
  6  7  1  1
  6  5  1  0
  8  6  1  0
  9  8  2  0
 11 10  1  0
 11 12  1  0
 12 13  1  0
 14 13  1  1
 14 15  1  0
 15  8  1  0
 16 17  2  0
 16 14  1  0
 18 19  1  0
 19 21  1  0
 20 19  2  0
 21 22  1  0
 22 23  1  0
 23 24  1  0
 25 24  1  6
 25 26  1  0
 26 16  1  0
 27 25  1  0
 28 27  2  0
 29 27  1  0
M  END
$$$$
