QMR.pdb
     RDKit          3D

 29 28  0  0  1  0  0  0  0  0999 V2000
    9.7043  -14.4454   16.9062 N   0  0  0  0  0  0  0  0  0  0  0  0
    8.4056  -13.8910   16.8920 C   0  0  0  0  0  0  0  0  0  0  0  0
    7.6870  -14.0462   15.8837 O   0  0  0  0  0  0  0  0  0  0  0  0
    7.8822  -13.1338   18.0424 C   0  0  0  0  0  0  0  0  0  0  0  0
    8.8251  -13.1614   19.2359 C   0  0  0  0  0  0  0  0  0  0  0  0
    8.4058  -14.3555   20.0620 C   0  0  2  0  0  0  0  0  0  0  0  0
    6.9964  -14.5845   20.0273 N   0  0  0  0  0  0  0  0  0  0  0  0
    8.7946  -14.1808   21.4972 C   0  0  0  0  0  0  0  0  0  0  0  0
    9.9758  -13.9149   21.8578 O   0  0  0  0  0  0  0  0  0  0  0  0
    7.7256  -11.3637   27.8986 C   0  0  0  0  0  0  0  0  0  0  0  0
    6.4984  -12.0297   26.7404 S   0  0  0  0  0  0  0  0  0  0  0  0
    7.0878  -13.6470   26.1109 C   0  0  0  0  0  0  0  0  0  0  0  0
    6.9242  -13.6500   24.6160 C   0  0  0  0  0  0  0  0  0  0  0  0
    8.0623  -14.3707   23.9227 C   0  0  2  0  0  0  0  0  0  0  0  0
    7.8050  -14.3176   22.5040 N   0  0  0  0  0  0  0  0  0  0  0  0
    8.1883  -15.7708   24.4099 C   0  0  0  0  0  0  0  0  0  0  0  0
    7.4768  -16.6504   23.8793 O   0  0  0  0  0  0  0  0  0  0  0  0
   12.8383  -21.1619   21.1194 N   0  0  0  0  0  0  0  0  0  0  0  0
   12.1514  -19.9654   20.7707 C   0  0  0  0  0  0  0  0  0  0  0  0
   11.9519  -19.5988   19.5327 N   0  0  0  0  0  0  0  0  0  0  0  0
   11.6271  -19.0765   21.7641 N   0  0  0  0  0  0  0  0  0  0  0  0
   12.4807  -18.4841   22.7771 C   0  0  0  0  0  0  0  0  0  0  0  0
   11.6385  -18.5267   24.0812 C   0  0  0  0  0  0  0  0  0  0  0  0
   10.7595  -17.3301   24.1652 C   0  0  0  0  0  0  0  0  0  0  0  0
    9.9854  -17.2649   25.4274 C   0  0  2  0  0  0  0  0  0  0  0  0
    9.0842  -16.1089   25.4433 N   0  0  0  0  0  0  0  0  0  0  0  0
   10.7427  -17.3968   26.6860 C   0  0  0  0  0  0  0  0  0  0  0  0
   11.2478  -18.5016   26.9878 O   0  0  0  0  0  0  0  0  0  0  0  0
   10.9304  -16.3660   27.5662 O   0  0  0  0  0  0  0  0  0  0  0  0
  1  2  1  0
  2  3  2  0
  4  5  1  0
  4  2  1  0
  6  7  1  1
  6  5  1  0
  8  6  1  0
  9  8  2  0
 11 10  1  0
 11 12  1  0
 12 13  1  0
 14 13  1  1
 14 15  1  0
 15  8  1  0
 16 17  2  0
 16 14  1  0
 18 19  1  0
 19 21  1  0
 20 19  2  0
 21 22  1  0
 22 23  1  0
 23 24  1  0
 25 24  1  6
 25 26  1  0
 26 16  1  0
 27 25  1  0
 28 27  2  0
 29 27  1  0
M  END
$$$$
