QMR.pdb
     RDKit          3D

 29 28  0  0  1  0  0  0  0  0999 V2000
    8.7435  -12.2454   17.6836 N   0  0  0  0  0  0  0  0  0  0  0  0
    8.0511  -13.4524   17.4426 C   0  0  0  0  0  0  0  0  0  0  0  0
    7.4549  -13.6075   16.3575 O   0  0  0  0  0  0  0  0  0  0  0  0
    8.0184  -14.5312   18.4455 C   0  0  0  0  0  0  0  0  0  0  0  0
    8.7745  -14.1697   19.7151 C   0  0  0  0  0  0  0  0  0  0  0  0
    8.6822  -15.3860   20.6075 C   0  0  2  0  0  0  0  0  0  0  0  0
    7.3713  -15.9522   20.6368 N   0  0  0  0  0  0  0  0  0  0  0  0
    9.0547  -15.0488   22.0178 C   0  0  0  0  0  0  0  0  0  0  0  0
   10.2524  -14.9047   22.3926 O   0  0  0  0  0  0  0  0  0  0  0  0
    6.6743  -10.4128   26.5769 C   0  0  0  0  0  0  0  0  0  0  0  0
    5.7861  -11.9871   26.4224 S   0  0  0  0  0  0  0  0  0  0  0  0
    7.0040  -13.3435   26.2325 C   0  0  0  0  0  0  0  0  0  0  0  0
    6.9113  -13.8554   24.8215 C   0  0  0  0  0  0  0  0  0  0  0  0
    8.2277  -14.4292   24.3390 C   0  0  2  0  0  0  0  0  0  0  0  0
    8.0293  -14.8818   22.9834 N   0  0  0  0  0  0  0  0  0  0  0  0
    8.6926  -15.5289   25.2268 C   0  0  0  0  0  0  0  0  0  0  0  0
    8.8139  -15.2948   26.4482 O   0  0  0  0  0  0  0  0  0  0  0  0
   12.8289  -21.6020   23.6593 N   0  0  0  0  0  0  0  0  0  0  0  0
   12.4597  -21.2257   22.3375 C   0  0  0  0  0  0  0  0  0  0  0  0
   13.3130  -21.1836   21.3490 N   0  0  0  0  0  0  0  0  0  0  0  0
   11.1147  -20.8663   22.0004 N   0  0  0  0  0  0  0  0  0  0  0  0
   10.0758  -20.7873   23.0105 C   0  0  0  0  0  0  0  0  0  0  0  0
   10.3855  -19.4852   23.7983 C   0  0  0  0  0  0  0  0  0  0  0  0
    9.3139  -19.2196   24.7946 C   0  0  0  0  0  0  0  0  0  0  0  0
    9.4904  -17.9333   25.5093 C   0  0  2  0  0  0  0  0  0  0  0  0
    8.9917  -16.8069   24.7147 N   0  0  0  0  0  0  0  0  0  0  0  0
   10.8215  -17.6625   26.0835 C   0  0  0  0  0  0  0  0  0  0  0  0
   11.1670  -18.2424   27.1376 O   0  0  0  0  0  0  0  0  0  0  0  0
   11.7223  -16.7959   25.5265 O   0  0  0  0  0  0  0  0  0  0  0  0
  1  2  1  0
  2  3  2  0
  4  5  1  0
  4  2  1  0
  6  7  1  1
  6  5  1  0
  8  6  1  0
  9  8  2  0
 11 10  1  0
 11 12  1  0
 12 13  1  0
 14 13  1  1
 14 15  1  0
 15  8  1  0
 16 17  2  0
 16 14  1  0
 18 19  1  0
 19 21  1  0
 20 19  2  0
 21 22  1  0
 22 23  1  0
 23 24  1  0
 25 24  1  6
 25 26  1  0
 26 16  1  0
 27 25  1  0
 28 27  2  0
 29 27  1  0
M  END
$$$$
