QMR.pdb
     RDKit          3D

 29 28  0  0  1  0  0  0  0  0999 V2000
   10.0062  -14.0888   16.5383 N   0  0  0  0  0  0  0  0  0  0  0  0
    8.6747  -13.6629   16.3386 C   0  0  0  0  0  0  0  0  0  0  0  0
    8.1110  -13.9111   15.2533 O   0  0  0  0  0  0  0  0  0  0  0  0
    7.9380  -12.9323   17.3847 C   0  0  0  0  0  0  0  0  0  0  0  0
    8.6932  -12.8856   18.7045 C   0  0  0  0  0  0  0  0  0  0  0  0
    8.4451  -14.2215   19.3662 C   0  0  2  0  0  0  0  0  0  0  0  0
    7.0712  -14.6104   19.3290 N   0  0  0  0  0  0  0  0  0  0  0  0
    8.8634  -14.1966   20.8035 C   0  0  0  0  0  0  0  0  0  0  0  0
   10.0172  -13.8390   21.1735 O   0  0  0  0  0  0  0  0  0  0  0  0
    6.9360  -11.0261   26.2609 C   0  0  0  0  0  0  0  0  0  0  0  0
    6.0678  -12.6092   26.0843 S   0  0  0  0  0  0  0  0  0  0  0  0
    7.2262  -13.8518   25.3962 C   0  0  0  0  0  0  0  0  0  0  0  0
    7.0937  -13.8295   23.8984 C   0  0  0  0  0  0  0  0  0  0  0  0
    8.1982  -14.6137   23.2199 C   0  0  2  0  0  0  0  0  0  0  0  0
    7.9351  -14.5890   21.8015 N   0  0  0  0  0  0  0  0  0  0  0  0
    8.2711  -16.0039   23.7448 C   0  0  0  0  0  0  0  0  0  0  0  0
    7.2453  -16.7151   23.6868 O   0  0  0  0  0  0  0  0  0  0  0  0
   12.4161  -15.9217   28.4967 N   0  0  0  0  0  0  0  0  0  0  0  0
   12.0071  -16.9148   29.4302 C   0  0  0  0  0  0  0  0  0  0  0  0
   11.8580  -16.6697   30.7048 N   0  0  0  0  0  0  0  0  0  0  0  0
   11.7278  -18.2614   29.0293 N   0  0  0  0  0  0  0  0  0  0  0  0
   12.1633  -18.7751   27.7440 C   0  0  0  0  0  0  0  0  0  0  0  0
   10.8677  -18.8652   26.8922 C   0  0  0  0  0  0  0  0  0  0  0  0
   10.7453  -17.6710   26.0144 C   0  0  0  0  0  0  0  0  0  0  0  0
    9.5481  -17.7114   25.1417 C   0  0  2  0  0  0  0  0  0  0  0  0
    9.4618  -16.5172   24.2960 N   0  0  0  0  0  0  0  0  0  0  0  0
    8.2600  -18.0314   25.7848 C   0  0  0  0  0  0  0  0  0  0  0  0
    7.7074  -17.1778   26.5146 O   0  0  0  0  0  0  0  0  0  0  0  0
    7.6175  -19.2301   25.6336 O   0  0  0  0  0  0  0  0  0  0  0  0
  1  2  1  0
  2  3  2  0
  4  5  1  0
  4  2  1  0
  6  7  1  1
  6  5  1  0
  8  6  1  0
  9  8  2  0
 11 10  1  0
 11 12  1  0
 12 13  1  0
 14 13  1  1
 14 15  1  0
 15  8  1  0
 16 17  2  0
 16 14  1  0
 18 19  1  0
 19 21  1  0
 20 19  2  0
 21 22  1  0
 22 23  1  0
 23 24  1  0
 25 24  1  1
 25 26  1  0
 26 16  1  0
 27 25  1  0
 28 27  2  0
 29 27  1  0
M  END
$$$$
