QMR.pdb
     RDKit          3D

 29 28  0  0  1  0  0  0  0  0999 V2000
   12.8789  -17.0904   13.8204 N   0  0  0  0  0  0  0  0  0  0  0  0
   11.6106  -17.7019   13.9292 C   0  0  0  0  0  0  0  0  0  0  0  0
   11.1897  -18.4053   12.9884 O   0  0  0  0  0  0  0  0  0  0  0  0
   10.7751  -17.5266   15.1300 C   0  0  0  0  0  0  0  0  0  0  0  0
   11.4544  -16.6772   16.1936 C   0  0  0  0  0  0  0  0  0  0  0  0
   11.0738  -17.2974   17.5183 C   0  0  2  0  0  0  0  0  0  0  0  0
    9.7569  -17.8506   17.5119 N   0  0  0  0  0  0  0  0  0  0  0  0
   11.1283  -16.2869   18.6216 C   0  0  0  0  0  0  0  0  0  0  0  0
   12.1812  -15.6551   18.9184 O   0  0  0  0  0  0  0  0  0  0  0  0
    6.5351  -12.2102   21.4263 C   0  0  0  0  0  0  0  0  0  0  0  0
    7.7380  -12.0905   20.0736 S   0  0  0  0  0  0  0  0  0  0  0  0
    8.0974  -13.7738   19.4437 C   0  0  0  0  0  0  0  0  0  0  0  0
    8.4618  -14.6399   20.6177 C   0  0  0  0  0  0  0  0  0  0  0  0
    9.8846  -15.1520   20.5244 C   0  0  2  0  0  0  0  0  0  0  0  0
    9.9558  -16.0189   19.3732 N   0  0  0  0  0  0  0  0  0  0  0  0
   10.2858  -15.8556   21.7723 C   0  0  0  0  0  0  0  0  0  0  0  0
   10.3204  -15.2028   22.8372 O   0  0  0  0  0  0  0  0  0  0  0  0
   14.6599  -20.6197   20.6373 N   0  0  0  0  0  0  0  0  0  0  0  0
   15.5312  -20.0533   21.6093 C   0  0  0  0  0  0  0  0  0  0  0  0
   16.7194  -19.5970   21.3146 N   0  0  0  0  0  0  0  0  0  0  0  0
   15.1583  -19.9438   22.9880 N   0  0  0  0  0  0  0  0  0  0  0  0
   13.8646  -20.3996   23.4615 C   0  0  0  0  0  0  0  0  0  0  0  0
   13.1147  -19.1047   23.8775 C   0  0  0  0  0  0  0  0  0  0  0  0
   12.5123  -18.4533   22.6841 C   0  0  0  0  0  0  0  0  0  0  0  0
   11.1323  -17.9677   22.9213 C   0  0  2  0  0  0  0  0  0  0  0  0
   10.6207  -17.2242   21.7662 N   0  0  0  0  0  0  0  0  0  0  0  0
   10.8784  -17.2640   24.1923 C   0  0  0  0  0  0  0  0  0  0  0  0
    9.9675  -17.6692   24.9492 O   0  0  0  0  0  0  0  0  0  0  0  0
   11.5892  -16.1699   24.6050 O   0  0  0  0  0  0  0  0  0  0  0  0
  1  2  1  0
  2  3  2  0
  4  5  1  0
  4  2  1  0
  6  7  1  6
  6  5  1  0
  8  6  1  0
  9  8  2  0
 11 10  1  0
 11 12  1  0
 12 13  1  0
 14 13  1  1
 14 15  1  0
 15  8  1  0
 16 17  2  0
 16 14  1  0
 18 19  1  0
 19 21  1  0
 20 19  2  0
 21 22  1  0
 22 23  1  0
 23 24  1  0
 25 24  1  6
 25 26  1  0
 26 16  1  0
 27 25  1  0
 28 27  2  0
 29 27  1  0
M  END
$$$$
