QMR.pdb
     RDKit          3D

 29 28  0  0  1  0  0  0  0  0999 V2000
   10.0329  -13.4934   17.4739 N   0  0  0  0  0  0  0  0  0  0  0  0
    8.6401  -13.5085   17.2406 C   0  0  0  0  0  0  0  0  0  0  0  0
    8.2108  -13.8985   16.1357 O   0  0  0  0  0  0  0  0  0  0  0  0
    7.6845  -13.0735   18.2742 C   0  0  0  0  0  0  0  0  0  0  0  0
    8.3550  -12.8116   19.6145 C   0  0  0  0  0  0  0  0  0  0  0  0
    8.2463  -14.1061   20.3870 C   0  0  2  0  0  0  0  0  0  0  0  0
    6.9017  -14.5762   20.4921 N   0  0  0  0  0  0  0  0  0  0  0  0
    8.7744  -13.9485   21.7790 C   0  0  0  0  0  0  0  0  0  0  0  0
    9.9255  -13.4902   22.0256 O   0  0  0  0  0  0  0  0  0  0  0  0
    6.2491  -12.5725   27.6986 C   0  0  0  0  0  0  0  0  0  0  0  0
    5.4436  -12.2261   26.1105 S   0  0  0  0  0  0  0  0  0  0  0  0
    6.5686  -12.7199   24.7503 C   0  0  0  0  0  0  0  0  0  0  0  0
    7.1756  -14.0480   25.1100 C   0  0  0  0  0  0  0  0  0  0  0  0
    8.3834  -14.3697   24.2539 C   0  0  2  0  0  0  0  0  0  0  0  0
    7.9584  -14.3264   22.8758 N   0  0  0  0  0  0  0  0  0  0  0  0
    8.9601  -15.6932   24.6135 C   0  0  0  0  0  0  0  0  0  0  0  0
    8.2346  -16.7052   24.5092 O   0  0  0  0  0  0  0  0  0  0  0  0
   15.6330  -14.6950   21.5772 N   0  0  0  0  0  0  0  0  0  0  0  0
   14.4729  -15.0146   20.8175 C   0  0  0  0  0  0  0  0  0  0  0  0
   14.2680  -14.5561   19.6114 N   0  0  0  0  0  0  0  0  0  0  0  0
   13.4443  -15.8698   21.3300 N   0  0  0  0  0  0  0  0  0  0  0  0
   13.6080  -16.5860   22.5814 C   0  0  0  0  0  0  0  0  0  0  0  0
   12.2034  -16.5555   23.2435 C   0  0  0  0  0  0  0  0  0  0  0  0
   12.2591  -17.1711   24.5961 C   0  0  0  0  0  0  0  0  0  0  0  0
   10.9728  -17.0850   25.3273 C   0  0  2  0  0  0  0  0  0  0  0  0
   10.2903  -15.8152   25.0617 N   0  0  0  0  0  0  0  0  0  0  0  0
   10.9953  -17.4141   26.7647 C   0  0  0  0  0  0  0  0  0  0  0  0
   11.4223  -18.5312   27.1340 O   0  0  0  0  0  0  0  0  0  0  0  0
   10.5669  -16.5577   27.7424 O   0  0  0  0  0  0  0  0  0  0  0  0
  1  2  1  0
  2  3  2  0
  4  5  1  0
  4  2  1  0
  6  7  1  1
  6  5  1  0
  8  6  1  0
  9  8  2  0
 11 10  1  0
 11 12  1  0
 12 13  1  0
 14 13  1  1
 14 15  1  0
 15  8  1  0
 16 17  2  0
 16 14  1  0
 18 19  1  0
 19 21  1  0
 20 19  2  0
 21 22  1  0
 22 23  1  0
 23 24  1  0
 25 24  1  1
 25 26  1  0
 26 16  1  0
 27 25  1  0
 28 27  2  0
 29 27  1  0
M  END
$$$$
