QMR.pdb
     RDKit          3D

 29 28  0  0  1  0  0  0  0  0999 V2000
    8.8277  -18.2530   17.9642 N   0  0  0  0  0  0  0  0  0  0  0  0
    7.4841  -18.2879   18.3977 C   0  0  0  0  0  0  0  0  0  0  0  0
    6.6978  -19.1080   17.8819 O   0  0  0  0  0  0  0  0  0  0  0  0
    6.9924  -17.3765   19.4457 C   0  0  0  0  0  0  0  0  0  0  0  0
    8.0827  -16.4590   19.9786 C   0  0  0  0  0  0  0  0  0  0  0  0
    8.3294  -16.9000   21.4030 C   0  0  2  0  0  0  0  0  0  0  0  0
    7.1268  -17.2483   22.0903 N   0  0  0  0  0  0  0  0  0  0  0  0
    8.9984  -15.8187   22.1933 C   0  0  0  0  0  0  0  0  0  0  0  0
   10.0127  -15.1933   21.7739 O   0  0  0  0  0  0  0  0  0  0  0  0
    7.0285  -11.6317   27.0839 C   0  0  0  0  0  0  0  0  0  0  0  0
    6.0599  -12.0481   25.6075 S   0  0  0  0  0  0  0  0  0  0  0  0
    7.1301  -12.9547   24.4276 C   0  0  0  0  0  0  0  0  0  0  0  0
    7.9589  -13.9341   25.2121 C   0  0  0  0  0  0  0  0  0  0  0  0
    9.0776  -14.5252   24.3787 C   0  0  2  0  0  0  0  0  0  0  0  0
    8.4820  -15.4727   23.4682 N   0  0  0  0  0  0  0  0  0  0  0  0
   10.1115  -15.1603   25.2397 C   0  0  0  0  0  0  0  0  0  0  0  0
   11.2093  -14.5793   25.3761 O   0  0  0  0  0  0  0  0  0  0  0  0
   11.9978  -21.5687   31.0610 N   0  0  0  0  0  0  0  0  0  0  0  0
   10.8215  -21.0809   30.4260 C   0  0  0  0  0  0  0  0  0  0  0  0
    9.6953  -20.9016   31.0635 N   0  0  0  0  0  0  0  0  0  0  0  0
   10.7952  -20.7498   29.0326 N   0  0  0  0  0  0  0  0  0  0  0  0
   11.5717  -19.6449   28.5016 C   0  0  0  0  0  0  0  0  0  0  0  0
   11.3334  -19.6925   26.9676 C   0  0  0  0  0  0  0  0  0  0  0  0
   10.3167  -18.6812   26.5735 C   0  0  0  0  0  0  0  0  0  0  0  0
   10.9046  -17.3573   26.2604 C   0  0  2  0  0  0  0  0  0  0  0  0
    9.8704  -16.3866   25.8904 N   0  0  0  0  0  0  0  0  0  0  0  0
   12.0474  -17.3346   25.3285 C   0  0  0  0  0  0  0  0  0  0  0  0
   11.8766  -17.6757   24.1364 O   0  0  0  0  0  0  0  0  0  0  0  0
   13.3118  -16.9588   25.6928 O   0  0  0  0  0  0  0  0  0  0  0  0
  1  2  1  0
  2  3  2  0
  4  5  1  0
  4  2  1  0
  6  7  1  1
  6  5  1  0
  8  6  1  0
  9  8  2  0
 11 10  1  0
 11 12  1  0
 12 13  1  0
 14 13  1  1
 14 15  1  0
 15  8  1  0
 16 17  2  0
 16 14  1  0
 18 19  1  0
 19 21  1  0
 20 19  2  0
 21 22  1  0
 22 23  1  0
 23 24  1  0
 25 24  1  6
 25 26  1  0
 26 16  1  0
 27 25  1  0
 28 27  2  0
 29 27  1  0
M  END
$$$$
