QMR.pdb
     RDKit          3D

 29 28  0  0  1  0  0  0  0  0999 V2000
    9.5289  -12.3270   18.2881 N   0  0  0  0  0  0  0  0  0  0  0  0
    8.7265  -13.3890   17.8163 C   0  0  0  0  0  0  0  0  0  0  0  0
    8.5746  -13.5394   16.5869 O   0  0  0  0  0  0  0  0  0  0  0  0
    8.0656  -14.3222   18.7453 C   0  0  0  0  0  0  0  0  0  0  0  0
    8.3429  -13.9874   20.2032 C   0  0  0  0  0  0  0  0  0  0  0  0
    8.5953  -15.3114   20.8869 C   0  0  2  0  0  0  0  0  0  0  0  0
    7.4105  -16.0970   21.0255 N   0  0  0  0  0  0  0  0  0  0  0  0
    9.1606  -15.1101   22.2585 C   0  0  0  0  0  0  0  0  0  0  0  0
   10.3493  -14.7325   22.4592 O   0  0  0  0  0  0  0  0  0  0  0  0
    7.2899  -11.3554   27.4024 C   0  0  0  0  0  0  0  0  0  0  0  0
    6.4690  -11.9203   25.8865 S   0  0  0  0  0  0  0  0  0  0  0  0
    7.6595  -12.8951   24.8906 C   0  0  0  0  0  0  0  0  0  0  0  0
    7.6640  -14.3024   25.4206 C   0  0  0  0  0  0  0  0  0  0  0  0
    8.7313  -15.1526   24.7624 C   0  0  2  0  0  0  0  0  0  0  0  0
    8.3378  -15.3505   23.3884 N   0  0  0  0  0  0  0  0  0  0  0  0
    8.9072  -16.4446   25.4789 C   0  0  0  0  0  0  0  0  0  0  0  0
    7.9872  -17.2878   25.4172 O   0  0  0  0  0  0  0  0  0  0  0  0
   13.0543  -22.3180   30.9758 N   0  0  0  0  0  0  0  0  0  0  0  0
   13.4080  -20.9469   30.8342 C   0  0  0  0  0  0  0  0  0  0  0  0
   14.6004  -20.4910   31.1122 N   0  0  0  0  0  0  0  0  0  0  0  0
   12.4710  -19.9673   30.3714 N   0  0  0  0  0  0  0  0  0  0  0  0
   12.8205  -19.0154   29.3334 C   0  0  0  0  0  0  0  0  0  0  0  0
   11.9242  -19.3987   28.1243 C   0  0  0  0  0  0  0  0  0  0  0  0
   11.6962  -18.2126   27.2567 C   0  0  0  0  0  0  0  0  0  0  0  0
   10.2614  -17.8791   27.0932 C   0  0  2  0  0  0  0  0  0  0  0  0
   10.0780  -16.7221   26.2120 N   0  0  0  0  0  0  0  0  0  0  0  0
    9.4528  -17.7756   28.3223 C   0  0  0  0  0  0  0  0  0  0  0  0
    9.3002  -16.6588   28.8666 O   0  0  0  0  0  0  0  0  0  0  0  0
    8.8476  -18.8471   28.9207 O   0  0  0  0  0  0  0  0  0  0  0  0
  1  2  1  0
  2  3  2  0
  4  5  1  0
  4  2  1  0
  6  7  1  1
  6  5  1  0
  8  6  1  0
  9  8  2  0
 11 10  1  0
 11 12  1  0
 12 13  1  0
 14 13  1  1
 14 15  1  0
 15  8  1  0
 16 17  2  0
 16 14  1  0
 18 19  1  0
 19 21  1  0
 20 19  2  0
 21 22  1  0
 22 23  1  0
 23 24  1  0
 25 24  1  1
 25 26  1  0
 26 16  1  0
 27 25  1  0
 28 27  2  0
 29 27  1  0
M  END
$$$$
