QMR.pdb
     RDKit          3D

 29 28  0  0  1  0  0  0  0  0999 V2000
   10.0523  -15.3567   17.8849 N   0  0  0  0  0  0  0  0  0  0  0  0
    8.6470  -15.2770   17.7705 C   0  0  0  0  0  0  0  0  0  0  0  0
    8.0860  -15.7839   16.7777 O   0  0  0  0  0  0  0  0  0  0  0  0
    7.8305  -14.6083   18.7985 C   0  0  0  0  0  0  0  0  0  0  0  0
    8.6410  -14.2231   20.0269 C   0  0  0  0  0  0  0  0  0  0  0  0
    8.5229  -15.3911   20.9787 C   0  0  2  0  0  0  0  0  0  0  0  0
    7.1791  -15.8530   21.1232 N   0  0  0  0  0  0  0  0  0  0  0  0
    9.0188  -15.0261   22.3434 C   0  0  0  0  0  0  0  0  0  0  0  0
   10.1640  -14.5323   22.5450 O   0  0  0  0  0  0  0  0  0  0  0  0
    7.4599  -11.2519   27.4429 C   0  0  0  0  0  0  0  0  0  0  0  0
    6.4100  -11.8984   26.1122 S   0  0  0  0  0  0  0  0  0  0  0  0
    7.4370  -12.9087   24.9790 C   0  0  0  0  0  0  0  0  0  0  0  0
    7.5428  -14.2922   25.5588 C   0  0  0  0  0  0  0  0  0  0  0  0
    8.5855  -15.1278   24.8448 C   0  0  2  0  0  0  0  0  0  0  0  0
    8.1777  -15.2390   23.4653 N   0  0  0  0  0  0  0  0  0  0  0  0
    8.7369  -16.4617   25.4861 C   0  0  0  0  0  0  0  0  0  0  0  0
    7.7036  -17.0914   25.7977 O   0  0  0  0  0  0  0  0  0  0  0  0
   11.6856  -21.2003   21.6115 N   0  0  0  0  0  0  0  0  0  0  0  0
   12.5234  -20.0705   21.3953 C   0  0  0  0  0  0  0  0  0  0  0  0
   13.4468  -20.0404   20.4716 N   0  0  0  0  0  0  0  0  0  0  0  0
   12.4069  -18.8798   22.1830 N   0  0  0  0  0  0  0  0  0  0  0  0
   12.6338  -18.8942   23.6162 C   0  0  0  0  0  0  0  0  0  0  0  0
   11.2170  -19.0089   24.2419 C   0  0  0  0  0  0  0  0  0  0  0  0
   11.3130  -19.0687   25.7248 C   0  0  0  0  0  0  0  0  0  0  0  0
   10.2493  -18.2949   26.4078 C   0  0  2  0  0  0  0  0  0  0  0  0
   10.0087  -17.0120   25.7408 N   0  0  0  0  0  0  0  0  0  0  0  0
   10.3612  -18.1485   27.8710 C   0  0  0  0  0  0  0  0  0  0  0  0
   10.5312  -19.1656   28.5804 O   0  0  0  0  0  0  0  0  0  0  0  0
   10.2865  -16.9447   28.5175 O   0  0  0  0  0  0  0  0  0  0  0  0
  1  2  1  0
  2  3  2  0
  4  5  1  0
  4  2  1  0
  6  7  1  1
  6  5  1  0
  8  6  1  0
  9  8  2  0
 11 10  1  0
 11 12  1  0
 12 13  1  0
 14 13  1  1
 14 15  1  0
 15  8  1  0
 16 17  2  0
 16 14  1  0
 18 19  1  0
 19 21  1  0
 20 19  2  0
 21 22  1  0
 22 23  1  0
 23 24  1  0
 25 24  1  6
 25 26  1  0
 26 16  1  0
 27 25  1  0
 28 27  2  0
 29 27  1  0
M  END
$$$$
