QMR.pdb
     RDKit          3D

 29 28  0  0  1  0  0  0  0  0999 V2000
    8.8807  -13.9523   15.3373 N   0  0  0  0  0  0  0  0  0  0  0  0
    7.7493  -13.9912   16.1816 C   0  0  0  0  0  0  0  0  0  0  0  0
    6.6528  -13.5789   15.7518 O   0  0  0  0  0  0  0  0  0  0  0  0
    7.8372  -14.5083   17.5585 C   0  0  0  0  0  0  0  0  0  0  0  0
    9.2331  -15.0024   17.9074 C   0  0  0  0  0  0  0  0  0  0  0  0
    9.0623  -15.8932   19.1163 C   0  0  2  0  0  0  0  0  0  0  0  0
    7.7487  -16.4450   19.2154 N   0  0  0  0  0  0  0  0  0  0  0  0
    9.3269  -15.1394   20.3825 C   0  0  0  0  0  0  0  0  0  0  0  0
   10.3745  -14.4578   20.5660 O   0  0  0  0  0  0  0  0  0  0  0  0
    6.5856  -11.3697   25.9685 C   0  0  0  0  0  0  0  0  0  0  0  0
    7.3627  -12.9251   25.4510 S   0  0  0  0  0  0  0  0  0  0  0  0
    6.6447  -13.4465   23.8472 C   0  0  0  0  0  0  0  0  0  0  0  0
    7.2371  -14.7807   23.4861 C   0  0  0  0  0  0  0  0  0  0  0  0
    8.5530  -14.6361   22.7495 C   0  0  2  0  0  0  0  0  0  0  0  0
    8.3694  -15.1847   21.4278 N   0  0  0  0  0  0  0  0  0  0  0  0
    9.6563  -15.3145   23.4816 C   0  0  0  0  0  0  0  0  0  0  0  0
   10.5793  -14.6129   23.9475 O   0  0  0  0  0  0  0  0  0  0  0  0
   10.5326  -16.4723   31.3374 N   0  0  0  0  0  0  0  0  0  0  0  0
   10.3500  -15.6966   30.1585 C   0  0  0  0  0  0  0  0  0  0  0  0
    9.8343  -14.4964   30.1736 N   0  0  0  0  0  0  0  0  0  0  0  0
   10.7247  -16.1854   28.8652 N   0  0  0  0  0  0  0  0  0  0  0  0
   10.3556  -17.5170   28.4222 C   0  0  0  0  0  0  0  0  0  0  0  0
   11.0335  -17.6763   27.0340 C   0  0  0  0  0  0  0  0  0  0  0  0
   10.2762  -16.9195   26.0019 C   0  0  0  0  0  0  0  0  0  0  0  0
   10.4962  -17.4305   24.6282 C   0  0  2  0  0  0  0  0  0  0  0  0
    9.6711  -16.7131   23.6518 N   0  0  0  0  0  0  0  0  0  0  0  0
   10.4371  -18.8919   24.4390 C   0  0  0  0  0  0  0  0  0  0  0  0
    9.3950  -19.4117   23.9801 O   0  0  0  0  0  0  0  0  0  0  0  0
   11.4711  -19.7353   24.7427 O   0  0  0  0  0  0  0  0  0  0  0  0
  1  2  1  0
  2  3  2  0
  4  5  1  0
  4  2  1  0
  6  7  1  1
  6  5  1  0
  8  6  1  0
  9  8  2  0
 11 10  1  0
 11 12  1  0
 12 13  1  0
 14 13  1  1
 14 15  1  0
 15  8  1  0
 16 17  2  0
 16 14  1  0
 18 19  1  0
 19 21  1  0
 20 19  2  0
 21 22  1  0
 22 23  1  0
 23 24  1  0
 25 24  1  1
 25 26  1  0
 26 16  1  0
 27 25  1  0
 28 27  2  0
 29 27  1  0
M  END
$$$$
