QMR.pdb
     RDKit          3D

 29 28  0  0  1  0  0  0  0  0999 V2000
    6.5582  -19.1733   19.7123 N   0  0  0  0  0  0  0  0  0  0  0  0
    7.0736  -18.3951   18.6525 C   0  0  0  0  0  0  0  0  0  0  0  0
    7.3198  -18.9416   17.5580 O   0  0  0  0  0  0  0  0  0  0  0  0
    7.3263  -16.9525   18.8126 C   0  0  0  0  0  0  0  0  0  0  0  0
    6.9911  -16.4538   20.2102 C   0  0  0  0  0  0  0  0  0  0  0  0
    7.3868  -14.9953   20.2308 C   0  0  2  0  0  0  0  0  0  0  0  0
    8.2489  -14.6409   19.1487 N   0  0  0  0  0  0  0  0  0  0  0  0
    8.0989  -14.6484   21.5013 C   0  0  0  0  0  0  0  0  0  0  0  0
    9.3096  -14.9433   21.7086 O   0  0  0  0  0  0  0  0  0  0  0  0
    6.5076  -11.2086   28.4928 C   0  0  0  0  0  0  0  0  0  0  0  0
    6.0428  -11.5284   26.7687 S   0  0  0  0  0  0  0  0  0  0  0  0
    7.2012  -12.7572   26.0563 C   0  0  0  0  0  0  0  0  0  0  0  0
    6.8399  -12.9502   24.6093 C   0  0  0  0  0  0  0  0  0  0  0  0
    7.7899  -13.9007   23.9097 C   0  0  2  0  0  0  0  0  0  0  0  0
    7.3960  -13.9602   22.5230 N   0  0  0  0  0  0  0  0  0  0  0  0
    7.7726  -15.2445   24.5478 C   0  0  0  0  0  0  0  0  0  0  0  0
    6.8992  -16.0620   24.1869 O   0  0  0  0  0  0  0  0  0  0  0  0
   14.5202  -18.9773   23.1912 N   0  0  0  0  0  0  0  0  0  0  0  0
   13.6374  -20.0674   22.9520 C   0  0  0  0  0  0  0  0  0  0  0  0
   14.0592  -21.2712   22.6694 N   0  0  0  0  0  0  0  0  0  0  0  0
   12.2141  -19.9152   23.0074 N   0  0  0  0  0  0  0  0  0  0  0  0
   11.5871  -18.6105   22.9058 C   0  0  0  0  0  0  0  0  0  0  0  0
   10.9646  -18.3584   24.3062 C   0  0  0  0  0  0  0  0  0  0  0  0
   10.0674  -17.1731   24.2644 C   0  0  0  0  0  0  0  0  0  0  0  0
    9.4508  -16.8643   25.5762 C   0  0  2  0  0  0  0  0  0  0  0  0
    8.7127  -15.5984   25.5358 N   0  0  0  0  0  0  0  0  0  0  0  0
   10.3180  -16.9645   26.7649 C   0  0  0  0  0  0  0  0  0  0  0  0
   10.7474  -15.9195   27.3036 O   0  0  0  0  0  0  0  0  0  0  0  0
   10.6940  -18.1539   27.3274 O   0  0  0  0  0  0  0  0  0  0  0  0
  1  2  1  0
  2  3  2  0
  4  5  1  0
  4  2  1  0
  6  7  1  6
  6  5  1  0
  8  6  1  0
  9  8  2  0
 11 10  1  0
 11 12  1  0
 12 13  1  0
 14 13  1  1
 14 15  1  0
 15  8  1  0
 16 17  2  0
 16 14  1  0
 18 19  1  0
 19 21  1  0
 20 19  2  0
 21 22  1  0
 22 23  1  0
 23 24  1  0
 25 24  1  6
 25 26  1  0
 26 16  1  0
 27 25  1  0
 28 27  2  0
 29 27  1  0
M  END
$$$$
