QMR.pdb
     RDKit          3D

 29 28  0  0  1  0  0  0  0  0999 V2000
    8.2306  -12.6433   16.3396 N   0  0  0  0  0  0  0  0  0  0  0  0
    7.2567  -13.6661   16.3325 C   0  0  0  0  0  0  0  0  0  0  0  0
    6.8699  -14.1325   15.2416 O   0  0  0  0  0  0  0  0  0  0  0  0
    6.6887  -14.1931   17.5856 C   0  0  0  0  0  0  0  0  0  0  0  0
    7.3896  -13.6443   18.8192 C   0  0  0  0  0  0  0  0  0  0  0  0
    7.7301  -14.8483   19.6669 C   0  0  2  0  0  0  0  0  0  0  0  0
    6.5727  -15.5617   20.1045 N   0  0  0  0  0  0  0  0  0  0  0  0
    8.4962  -14.4473   20.8891 C   0  0  0  0  0  0  0  0  0  0  0  0
    9.6362  -13.9059   20.8341 O   0  0  0  0  0  0  0  0  0  0  0  0
    7.2137  -10.7761   26.6712 C   0  0  0  0  0  0  0  0  0  0  0  0
    6.8485  -12.5529   26.6473 S   0  0  0  0  0  0  0  0  0  0  0  0
    8.1437  -13.4156   25.6790 C   0  0  0  0  0  0  0  0  0  0  0  0
    7.5524  -13.7960   24.3497 C   0  0  0  0  0  0  0  0  0  0  0  0
    8.5820  -14.4173   23.4282 C   0  0  2  0  0  0  0  0  0  0  0  0
    7.9297  -14.6800   22.1683 N   0  0  0  0  0  0  0  0  0  0  0  0
    9.1577  -15.6542   24.0214 C   0  0  0  0  0  0  0  0  0  0  0  0
    8.3759  -16.5619   24.3768 O   0  0  0  0  0  0  0  0  0  0  0  0
   16.4732  -15.8374   20.7629 N   0  0  0  0  0  0  0  0  0  0  0  0
   15.3811  -14.9359   20.6232 C   0  0  0  0  0  0  0  0  0  0  0  0
   15.4458  -13.8529   19.8953 N   0  0  0  0  0  0  0  0  0  0  0  0
   14.1262  -15.1598   21.2768 N   0  0  0  0  0  0  0  0  0  0  0  0
   14.0589  -15.5805   22.6639 C   0  0  0  0  0  0  0  0  0  0  0  0
   12.8669  -16.5745   22.7204 C   0  0  0  0  0  0  0  0  0  0  0  0
   12.6502  -17.0389   24.1165 C   0  0  0  0  0  0  0  0  0  0  0  0
   11.2196  -17.0738   24.5021 C   0  0  2  0  0  0  0  0  0  0  0  0
   10.5486  -15.8100   24.1836 N   0  0  0  0  0  0  0  0  0  0  0  0
   10.9035  -17.5434   25.8639 C   0  0  0  0  0  0  0  0  0  0  0  0
   10.9577  -18.7670   26.1214 O   0  0  0  0  0  0  0  0  0  0  0  0
   10.5439  -16.7080   26.8864 O   0  0  0  0  0  0  0  0  0  0  0  0
  1  2  1  0
  2  3  2  0
  4  5  1  0
  4  2  1  0
  6  7  1  1
  6  5  1  0
  8  6  1  0
  9  8  2  0
 11 10  1  0
 11 12  1  0
 12 13  1  0
 14 13  1  1
 14 15  1  0
 15  8  1  0
 16 17  2  0
 16 14  1  0
 18 19  1  0
 19 21  1  0
 20 19  2  0
 21 22  1  0
 22 23  1  0
 23 24  1  0
 25 24  1  1
 25 26  1  0
 26 16  1  0
 27 25  1  0
 28 27  2  0
 29 27  1  0
M  END
$$$$
