QMR.pdb
     RDKit          3D

 29 28  0  0  1  0  0  0  0  0999 V2000
    9.6373  -13.5619   17.2717 N   0  0  0  0  0  0  0  0  0  0  0  0
    8.2648  -13.8302   17.0750 C   0  0  0  0  0  0  0  0  0  0  0  0
    7.8832  -14.2838   15.9770 O   0  0  0  0  0  0  0  0  0  0  0  0
    7.2753  -13.5857   18.1389 C   0  0  0  0  0  0  0  0  0  0  0  0
    7.9210  -13.1568   19.4479 C   0  0  0  0  0  0  0  0  0  0  0  0
    8.2029  -14.4348   20.2039 C   0  0  2  0  0  0  0  0  0  0  0  0
    7.0209  -15.1897   20.4741 N   0  0  0  0  0  0  0  0  0  0  0  0
    8.8606  -14.1491   21.5182 C   0  0  0  0  0  0  0  0  0  0  0  0
    9.9233  -13.4736   21.6181 O   0  0  0  0  0  0  0  0  0  0  0  0
    7.3218  -11.9183   27.5574 C   0  0  0  0  0  0  0  0  0  0  0  0
    6.2111  -12.4386   26.2207 S   0  0  0  0  0  0  0  0  0  0  0  0
    7.2136  -12.9044   24.7588 C   0  0  0  0  0  0  0  0  0  0  0  0
    7.7953  -14.2680   25.0111 C   0  0  0  0  0  0  0  0  0  0  0  0
    8.8846  -14.6127   24.0161 C   0  0  2  0  0  0  0  0  0  0  0  0
    8.2764  -14.6529   22.7084 N   0  0  0  0  0  0  0  0  0  0  0  0
    9.5395  -15.9031   24.3615 C   0  0  0  0  0  0  0  0  0  0  0  0
    8.8851  -16.9580   24.2188 O   0  0  0  0  0  0  0  0  0  0  0  0
   10.2611  -19.2051   30.2103 N   0  0  0  0  0  0  0  0  0  0  0  0
   11.3680  -18.6859   30.9384 C   0  0  0  0  0  0  0  0  0  0  0  0
   11.9517  -19.3442   31.9041 N   0  0  0  0  0  0  0  0  0  0  0  0
   11.9213  -17.3951   30.6562 N   0  0  0  0  0  0  0  0  0  0  0  0
   11.3196  -16.5106   29.6757 C   0  0  0  0  0  0  0  0  0  0  0  0
   11.9215  -16.9569   28.3153 C   0  0  0  0  0  0  0  0  0  0  0  0
   11.3776  -16.1199   27.2130 C   0  0  0  0  0  0  0  0  0  0  0  0
   11.3411  -16.8262   25.9105 C   0  0  2  0  0  0  0  0  0  0  0  0
   10.8645  -15.9475   24.8384 N   0  0  0  0  0  0  0  0  0  0  0  0
   10.6831  -18.1458   25.8816 C   0  0  0  0  0  0  0  0  0  0  0  0
    9.4406  -18.2173   26.0144 O   0  0  0  0  0  0  0  0  0  0  0  0
   11.3600  -19.3239   25.7180 O   0  0  0  0  0  0  0  0  0  0  0  0
  1  2  1  0
  2  3  2  0
  4  5  1  0
  4  2  1  0
  6  7  1  1
  6  5  1  0
  8  6  1  0
  9  8  2  0
 11 10  1  0
 11 12  1  0
 12 13  1  0
 14 13  1  1
 14 15  1  0
 15  8  1  0
 16 17  2  0
 16 14  1  0
 18 19  1  0
 19 21  1  0
 20 19  2  0
 21 22  1  0
 22 23  1  0
 23 24  1  0
 25 24  1  1
 25 26  1  0
 26 16  1  0
 27 25  1  0
 28 27  2  0
 29 27  1  0
M  END
$$$$
