QMR.pdb
     RDKit          3D

 29 28  0  0  1  0  0  0  0  0999 V2000
    7.7523  -12.1645   18.4916 N   0  0  0  0  0  0  0  0  0  0  0  0
    8.9099  -12.9206   18.7790 C   0  0  0  0  0  0  0  0  0  0  0  0
   10.0186  -12.5172   18.3725 O   0  0  0  0  0  0  0  0  0  0  0  0
    8.8353  -14.1749   19.5483 C   0  0  0  0  0  0  0  0  0  0  0  0
    7.4199  -14.4954   20.0045 C   0  0  0  0  0  0  0  0  0  0  0  0
    7.5537  -15.6398   20.9826 C   0  0  2  0  0  0  0  0  0  0  0  0
    6.2917  -16.1764   21.3819 N   0  0  0  0  0  0  0  0  0  0  0  0
    8.2677  -15.2058   22.2249 C   0  0  0  0  0  0  0  0  0  0  0  0
    9.5059  -14.9566   22.2499 O   0  0  0  0  0  0  0  0  0  0  0  0
    6.1183  -10.1610   26.2806 C   0  0  0  0  0  0  0  0  0  0  0  0
    6.0760  -11.9512   26.5716 S   0  0  0  0  0  0  0  0  0  0  0  0
    7.1459  -12.7820   25.3369 C   0  0  0  0  0  0  0  0  0  0  0  0
    7.1438  -14.2553   25.6386 C   0  0  0  0  0  0  0  0  0  0  0  0
    8.1096  -15.0165   24.7536 C   0  0  2  0  0  0  0  0  0  0  0  0
    7.5349  -15.0653   23.4311 N   0  0  0  0  0  0  0  0  0  0  0  0
    8.3738  -16.3779   25.2925 C   0  0  0  0  0  0  0  0  0  0  0  0
    7.7340  -17.3396   24.8159 O   0  0  0  0  0  0  0  0  0  0  0  0
   13.8758  -20.7657   21.8249 N   0  0  0  0  0  0  0  0  0  0  0  0
   14.3202  -20.6425   23.1711 C   0  0  0  0  0  0  0  0  0  0  0  0
   15.5406  -20.9245   23.5424 N   0  0  0  0  0  0  0  0  0  0  0  0
   13.4502  -20.1953   24.2176 N   0  0  0  0  0  0  0  0  0  0  0  0
   12.0346  -19.9771   23.9847 C   0  0  0  0  0  0  0  0  0  0  0  0
   11.4675  -19.5411   25.3632 C   0  0  0  0  0  0  0  0  0  0  0  0
   10.7153  -18.2652   25.2296 C   0  0  0  0  0  0  0  0  0  0  0  0
   10.0932  -17.8215   26.4996 C   0  0  2  0  0  0  0  0  0  0  0  0
    9.3197  -16.5901   26.3149 N   0  0  0  0  0  0  0  0  0  0  0  0
   10.9656  -17.7573   27.6869 C   0  0  0  0  0  0  0  0  0  0  0  0
   11.3368  -16.6426   28.1187 O   0  0  0  0  0  0  0  0  0  0  0  0
   11.4075  -18.8636   28.3603 O   0  0  0  0  0  0  0  0  0  0  0  0
  1  2  1  0
  2  3  2  0
  4  5  1  0
  4  2  1  0
  6  7  1  1
  6  5  1  0
  8  6  1  0
  9  8  2  0
 11 10  1  0
 11 12  1  0
 12 13  1  0
 14 13  1  1
 14 15  1  0
 15  8  1  0
 16 17  2  0
 16 14  1  0
 18 19  1  0
 19 21  1  0
 20 19  2  0
 21 22  1  0
 22 23  1  0
 23 24  1  0
 25 24  1  6
 25 26  1  0
 26 16  1  0
 27 25  1  0
 28 27  2  0
 29 27  1  0
M  END
$$$$
