QMR.pdb
     RDKit          3D

 29 28  0  0  1  0  0  0  0  0999 V2000
    9.2385  -15.5441   13.5864 N   0  0  0  0  0  0  0  0  0  0  0  0
    9.4240  -16.9429   13.5297 C   0  0  0  0  0  0  0  0  0  0  0  0
    9.8540  -17.4592   12.4782 O   0  0  0  0  0  0  0  0  0  0  0  0
    9.1206  -17.8044   14.6858 C   0  0  0  0  0  0  0  0  0  0  0  0
    8.6144  -17.0151   15.8838 C   0  0  0  0  0  0  0  0  0  0  0  0
    9.1052  -17.7610   17.1031 C   0  0  2  0  0  0  0  0  0  0  0  0
    8.1750  -18.7427   17.5625 N   0  0  0  0  0  0  0  0  0  0  0  0
    9.3626  -16.8227   18.2410 C   0  0  0  0  0  0  0  0  0  0  0  0
   10.3737  -16.0668   18.2883 O   0  0  0  0  0  0  0  0  0  0  0  0
    8.5894  -11.8260   21.9639 C   0  0  0  0  0  0  0  0  0  0  0  0
    7.5766  -12.5856   20.6646 S   0  0  0  0  0  0  0  0  0  0  0  0
    6.7817  -14.0956   21.3335 C   0  0  0  0  0  0  0  0  0  0  0  0
    6.9607  -15.1984   20.3268 C   0  0  0  0  0  0  0  0  0  0  0  0
    8.3801  -15.7280   20.3126 C   0  0  2  0  0  0  0  0  0  0  0  0
    8.4407  -16.7710   19.3176 N   0  0  0  0  0  0  0  0  0  0  0  0
    8.7831  -16.2219   21.6569 C   0  0  0  0  0  0  0  0  0  0  0  0
    8.7210  -15.4319   22.6230 O   0  0  0  0  0  0  0  0  0  0  0  0
   16.3581  -18.0592   18.7392 N   0  0  0  0  0  0  0  0  0  0  0  0
   16.2998  -18.7484   19.9828 C   0  0  0  0  0  0  0  0  0  0  0  0
   17.2854  -19.4767   20.4354 N   0  0  0  0  0  0  0  0  0  0  0  0
   15.1456  -18.6870   20.8289 N   0  0  0  0  0  0  0  0  0  0  0  0
   13.8496  -18.2848   20.3146 C   0  0  0  0  0  0  0  0  0  0  0  0
   12.9123  -18.2870   21.5530 C   0  0  0  0  0  0  0  0  0  0  0  0
   11.5339  -17.8952   21.1555 C   0  0  0  0  0  0  0  0  0  0  0  0
   10.5729  -17.9253   22.2834 C   0  0  2  0  0  0  0  0  0  0  0  0
    9.2255  -17.5458   21.8485 N   0  0  0  0  0  0  0  0  0  0  0  0
   10.9724  -17.2337   23.5232 C   0  0  0  0  0  0  0  0  0  0  0  0
   12.0543  -17.5357   24.0755 O   0  0  0  0  0  0  0  0  0  0  0  0
   10.2174  -16.2630   24.1235 O   0  0  0  0  0  0  0  0  0  0  0  0
  1  2  1  0
  2  3  2  0
  4  5  1  0
  4  2  1  0
  6  7  1  1
  6  5  1  0
  8  6  1  0
  9  8  2  0
 11 10  1  0
 11 12  1  0
 12 13  1  0
 14 13  1  1
 14 15  1  0
 15  8  1  0
 16 17  2  0
 16 14  1  0
 18 19  1  0
 19 21  1  0
 20 19  2  0
 21 22  1  0
 22 23  1  0
 23 24  1  0
 25 24  1  6
 25 26  1  0
 26 16  1  0
 27 25  1  0
 28 27  2  0
 29 27  1  0
M  END
$$$$
