LHT.pdb
     RDKit          3D

 26 26  0  0  1  0  0  0  0  0999 V2000
    7.6042  -11.9662   19.8582 C   0  0  0  0  0  0  0  0  0  0  0  0
    7.9427  -13.4290   19.6893 C   0  0  1  0  0  0  0  0  0  0  0  0
    9.2263  -13.6018   18.9306 C   0  0  0  0  0  0  0  0  0  0  0  0
    7.9679  -14.1394   21.0278 C   0  0  0  0  0  0  0  0  0  0  0  0
    8.1470  -15.6360   20.8647 C   0  0  2  0  0  0  0  0  0  0  0  0
    6.9483  -16.1478   20.2543 N   0  0  0  0  0  0  0  0  0  0  0  0
    8.3372  -16.2466   22.1799 C   0  0  0  0  0  0  0  0  0  0  0  0
    7.3713  -16.3650   22.9681 O   0  0  0  0  0  0  0  0  0  0  0  0
    9.6189  -16.7060   22.5641 N   0  0  0  0  0  0  0  0  0  0  0  0
    9.9124  -17.2395   23.8781 C   0  0  1  0  0  0  0  0  0  0  0  0
   10.8935  -18.3672   23.8569 C   0  0  0  0  0  0  0  0  0  0  0  0
   11.2006  -18.9751   25.1436 C   0  0  0  0  0  0  0  0  0  0  0  0
   10.7575  -18.7289   26.4038 C   0  0  0  0  0  0  0  0  0  0  0  0
   11.3501  -19.5739   27.2640 N   0  0  0  0  0  0  0  0  0  0  0  0
   12.1733  -20.3644   26.5672 C   0  0  0  0  0  0  0  0  0  0  0  0
   12.0878  -20.0079   25.2848 N   0  0  0  0  0  0  0  0  0  0  0  0
   10.2465  -16.1630   24.8289 C   0  0  0  0  0  0  0  0  0  0  0  0
   11.2155  -15.4043   24.5750 O   0  0  0  0  0  0  0  0  0  0  0  0
    8.7886  -12.8210   27.8937 C   0  0  0  0  0  0  0  0  0  0  0  0
    8.5155  -14.1351   27.1950 C   0  0  1  0  0  0  0  0  0  0  0  0
    7.9361  -13.7989   25.9505 O   0  0  0  0  0  0  0  0  0  0  0  0
    9.8099  -14.8925   26.9640 C   0  0  2  0  0  0  0  0  0  0  0  0
    9.5122  -15.9497   26.0249 N   0  0  0  0  0  0  0  0  0  0  0  0
   10.4150  -15.3667   28.2045 C   0  0  0  0  0  0  0  0  0  0  0  0
   10.3584  -16.6937   28.5957 O   0  0  0  0  0  0  0  0  0  0  0  0
   11.0134  -14.5651   28.9618 O   0  0  0  0  0  0  0  0  0  0  0  0
  2  1  1  1
  2  4  1  0
  2  3  1  0
  4  5  1  0
  5  6  1  1
  7  9  1  0
  7  5  1  0
  8  7  2  0
 10  9  1  0
 11 12  1  0
 10 11  1  6
 12 16  1  0
 12 13  2  0
 13 14  1  0
 15 14  1  0
 16 15  2  0
 17 23  1  0
 17 10  1  0
 18 17  2  0
 20 19  1  6
 20 22  1  0
 21 20  1  0
 22 23  1  6
 22 24  1  0
 24 25  1  0
 26 24  2  0
M  END
$$$$
