LHT.pdb
     RDKit          3D

 26 26  0  0  1  0  0  0  0  0999 V2000
    7.2710  -12.3376   20.4274 C   0  0  0  0  0  0  0  0  0  0  0  0
    7.4607  -13.5089   19.4921 C   0  0  1  0  0  0  0  0  0  0  0  0
    8.0005  -13.0586   18.1659 C   0  0  0  0  0  0  0  0  0  0  0  0
    8.3243  -14.5791   20.1290 C   0  0  0  0  0  0  0  0  0  0  0  0
    8.5117  -15.7692   19.2087 C   0  0  2  0  0  0  0  0  0  0  0  0
    7.2189  -16.3725   19.0184 N   0  0  0  0  0  0  0  0  0  0  0  0
    9.4218  -16.7270   19.8357 C   0  0  0  0  0  0  0  0  0  0  0  0
    8.9904  -17.5600   20.6654 O   0  0  0  0  0  0  0  0  0  0  0  0
   10.7970  -16.7128   19.5036 N   0  0  0  0  0  0  0  0  0  0  0  0
   11.7630  -17.6295   20.0726 C   0  0  1  0  0  0  0  0  0  0  0  0
   12.9304  -17.8950   19.1775 C   0  0  0  0  0  0  0  0  0  0  0  0
   12.6394  -18.5912   17.9325 C   0  0  0  0  0  0  0  0  0  0  0  0
   12.2058  -19.8504   17.6650 C   0  0  0  0  0  0  0  0  0  0  0  0
   12.0886  -20.0149   16.3368 N   0  0  0  0  0  0  0  0  0  0  0  0
   12.4437  -18.8699   15.7445 C   0  0  0  0  0  0  0  0  0  0  0  0
   12.7778  -18.0049   16.7034 N   0  0  0  0  0  0  0  0  0  0  0  0
   12.1290  -17.2348   21.4455 C   0  0  0  0  0  0  0  0  0  0  0  0
   13.1816  -16.5738   21.6297 O   0  0  0  0  0  0  0  0  0  0  0  0
    9.7928  -15.6888   24.0983 C   0  0  0  0  0  0  0  0  0  0  0  0
   10.4305  -16.9333   24.6761 C   0  0  1  0  0  0  0  0  0  0  0  0
    9.4907  -17.9723   24.4899 O   0  0  0  0  0  0  0  0  0  0  0  0
   11.7106  -17.2678   23.9329 C   0  0  2  0  0  0  0  0  0  0  0  0
   11.3342  -17.5741   22.5717 N   0  0  0  0  0  0  0  0  0  0  0  0
   12.4774  -18.3280   24.5794 C   0  0  0  0  0  0  0  0  0  0  0  0
   12.6611  -19.5700   23.9956 O   0  0  0  0  0  0  0  0  0  0  0  0
   12.9993  -18.1340   25.7037 O   0  0  0  0  0  0  0  0  0  0  0  0
  2  1  1  1
  2  4  1  0
  2  3  1  0
  4  5  1  0
  5  6  1  1
  7  9  1  0
  7  5  1  0
  8  7  2  0
 10  9  1  0
 11 12  1  0
 10 11  1  6
 12 16  1  0
 12 13  2  0
 13 14  1  0
 15 14  1  0
 16 15  2  0
 17 23  1  0
 17 10  1  0
 18 17  2  0
 20 19  1  6
 20 22  1  0
 21 20  1  0
 22 23  1  6
 22 24  1  0
 24 25  1  0
 26 24  2  0
M  END
$$$$
