LHT.pdb
     RDKit          3D

 26 26  0  0  1  0  0  0  0  0999 V2000
    7.5467  -12.0516   19.3545 C   0  0  0  0  0  0  0  0  0  0  0  0
    8.2770  -13.2909   18.8921 C   0  0  1  0  0  0  0  0  0  0  0  0
    9.6590  -12.9553   18.4121 C   0  0  0  0  0  0  0  0  0  0  0  0
    8.2881  -14.3513   19.9748 C   0  0  0  0  0  0  0  0  0  0  0  0
    9.0401  -15.5924   19.5360 C   0  0  2  0  0  0  0  0  0  0  0  0
    8.2562  -16.2293   18.5106 N   0  0  0  0  0  0  0  0  0  0  0  0
    9.1948  -16.4933   20.6777 C   0  0  0  0  0  0  0  0  0  0  0  0
    8.1941  -17.0508   21.1839 O   0  0  0  0  0  0  0  0  0  0  0  0
   10.4814  -16.7364   21.2135 N   0  0  0  0  0  0  0  0  0  0  0  0
   10.7198  -17.6003   22.3510 C   0  0  1  0  0  0  0  0  0  0  0  0
   12.0453  -18.2900   22.3069 C   0  0  0  0  0  0  0  0  0  0  0  0
   12.3222  -19.2185   23.3936 C   0  0  0  0  0  0  0  0  0  0  0  0
   13.2093  -19.1892   24.4218 C   0  0  0  0  0  0  0  0  0  0  0  0
   13.0735  -20.2989   25.1670 N   0  0  0  0  0  0  0  0  0  0  0  0
   12.1042  -21.0448   24.6266 C   0  0  0  0  0  0  0  0  0  0  0  0
   11.6457  -20.3975   23.5542 N   0  0  0  0  0  0  0  0  0  0  0  0
   10.4418  -16.9016   23.6195 C   0  0  0  0  0  0  0  0  0  0  0  0
   11.0977  -15.8678   23.9025 O   0  0  0  0  0  0  0  0  0  0  0  0
    7.4918  -15.2742   24.7930 C   0  0  0  0  0  0  0  0  0  0  0  0
    7.7646  -16.3216   25.8504 C   0  0  1  0  0  0  0  0  0  0  0  0
    6.9521  -17.4290   25.5174 O   0  0  0  0  0  0  0  0  0  0  0  0
    9.2240  -16.7365   25.8225 C   0  0  2  0  0  0  0  0  0  0  0  0
    9.4573  -17.3536   24.5368 N   0  0  0  0  0  0  0  0  0  0  0  0
    9.5911  -17.5842   26.9523 C   0  0  0  0  0  0  0  0  0  0  0  0
    9.5017  -17.1492   28.2638 O   0  0  0  0  0  0  0  0  0  0  0  0
   10.0052  -18.7523   26.7568 O   0  0  0  0  0  0  0  0  0  0  0  0
  2  1  1  1
  2  4  1  0
  2  3  1  0
  4  5  1  0
  5  6  1  6
  7  9  1  0
  7  5  1  0
  8  7  2  0
 10  9  1  0
 11 12  1  0
 10 11  1  1
 12 16  1  0
 12 13  2  0
 13 14  1  0
 15 14  1  0
 16 15  2  0
 17 23  1  0
 17 10  1  0
 18 17  2  0
 20 19  1  6
 20 22  1  0
 21 20  1  0
 22 23  1  6
 22 24  1  0
 24 25  1  0
 26 24  2  0
M  END
$$$$
