LHT.pdb
     RDKit          3D

 26 26  0  0  1  0  0  0  0  0999 V2000
    7.1865  -12.0605   18.9491 C   0  0  0  0  0  0  0  0  0  0  0  0
    8.0251  -13.3154   19.0201 C   0  0  1  0  0  0  0  0  0  0  0  0
    9.4786  -13.0057   18.8093 C   0  0  0  0  0  0  0  0  0  0  0  0
    7.7800  -14.0606   20.3168 C   0  0  0  0  0  0  0  0  0  0  0  0
    8.5736  -15.3507   20.3804 C   0  0  2  0  0  0  0  0  0  0  0  0
    7.9562  -16.2798   19.4709 N   0  0  0  0  0  0  0  0  0  0  0  0
    8.5273  -15.8806   21.7427 C   0  0  0  0  0  0  0  0  0  0  0  0
    7.4962  -16.4528   22.1644 O   0  0  0  0  0  0  0  0  0  0  0  0
    9.6530  -15.7461   22.5891 N   0  0  0  0  0  0  0  0  0  0  0  0
    9.6679  -16.1837   23.9695 C   0  0  1  0  0  0  0  0  0  0  0  0
   10.7686  -17.1474   24.2764 C   0  0  0  0  0  0  0  0  0  0  0  0
   10.6941  -18.4401   23.6108 C   0  0  0  0  0  0  0  0  0  0  0  0
    9.8040  -18.9697   22.7319 C   0  0  0  0  0  0  0  0  0  0  0  0
   10.1799  -20.2175   22.4053 N   0  0  0  0  0  0  0  0  0  0  0  0
   11.3072  -20.4974   23.0678 C   0  0  0  0  0  0  0  0  0  0  0  0
   11.6237  -19.4272   23.7984 N   0  0  0  0  0  0  0  0  0  0  0  0
    9.5906  -15.0373   24.8937 C   0  0  0  0  0  0  0  0  0  0  0  0
   10.4737  -14.1454   24.8340 O   0  0  0  0  0  0  0  0  0  0  0  0
    6.9243  -12.5439   25.4104 C   0  0  0  0  0  0  0  0  0  0  0  0
    7.1204  -13.2267   26.7463 C   0  0  1  0  0  0  0  0  0  0  0  0
    6.1467  -14.2494   26.8051 O   0  0  0  0  0  0  0  0  0  0  0  0
    8.5059  -13.8397   26.8309 C   0  0  2  0  0  0  0  0  0  0  0  0
    8.5522  -14.9018   25.8521 N   0  0  0  0  0  0  0  0  0  0  0  0
    8.8487  -14.2746   28.1812 C   0  0  0  0  0  0  0  0  0  0  0  0
    9.1235  -15.5972   28.4855 O   0  0  0  0  0  0  0  0  0  0  0  0
    8.9033  -13.4418   29.1179 O   0  0  0  0  0  0  0  0  0  0  0  0
  2  1  1  1
  2  4  1  0
  2  3  1  0
  4  5  1  0
  5  6  1  6
  7  9  1  0
  7  5  1  0
  8  7  2  0
 10  9  1  0
 11 12  1  0
 10 11  1  1
 12 16  1  0
 12 13  2  0
 13 14  1  0
 15 14  1  0
 16 15  2  0
 17 23  1  0
 17 10  1  0
 18 17  2  0
 20 19  1  6
 20 22  1  0
 21 20  1  0
 22 23  1  6
 22 24  1  0
 24 25  1  0
 26 24  2  0
M  END
$$$$
