LHT.pdb
     RDKit          3D

 26 26  0  0  1  0  0  0  0  0999 V2000
    6.7247  -12.2920   19.9871 C   0  0  0  0  0  0  0  0  0  0  0  0
    7.4532  -13.4251   19.3028 C   0  0  1  0  0  0  0  0  0  0  0  0
    8.5422  -12.9054   18.4100 C   0  0  0  0  0  0  0  0  0  0  0  0
    7.9708  -14.4282   20.3141 C   0  0  0  0  0  0  0  0  0  0  0  0
    8.6231  -15.6187   19.6392 C   0  0  2  0  0  0  0  0  0  0  0  0
    7.6045  -16.2909   18.8762 N   0  0  0  0  0  0  0  0  0  0  0  0
    9.1586  -16.5196   20.6593 C   0  0  0  0  0  0  0  0  0  0  0  0
    8.4145  -17.3595   21.2153 O   0  0  0  0  0  0  0  0  0  0  0  0
   10.5244  -16.4421   21.0201 N   0  0  0  0  0  0  0  0  0  0  0  0
   11.1135  -17.2321   22.0813 C   0  0  1  0  0  0  0  0  0  0  0  0
   12.5528  -17.5621   21.8487 C   0  0  0  0  0  0  0  0  0  0  0  0
   12.8376  -18.4263   20.7123 C   0  0  0  0  0  0  0  0  0  0  0  0
   12.1356  -19.4291   20.1235 C   0  0  0  0  0  0  0  0  0  0  0  0
   12.8371  -19.9254   19.0907 N   0  0  0  0  0  0  0  0  0  0  0  0
   13.9879  -19.2493   19.0086 C   0  0  0  0  0  0  0  0  0  0  0  0
   13.9947  -18.3416   19.9859 N   0  0  0  0  0  0  0  0  0  0  0  0
   10.8324  -16.6436   23.4039 C   0  0  0  0  0  0  0  0  0  0  0  0
   11.5535  -15.7013   23.8176 O   0  0  0  0  0  0  0  0  0  0  0  0
    7.8403  -15.0318   24.6065 C   0  0  0  0  0  0  0  0  0  0  0  0
    8.0756  -16.1510   25.5971 C   0  0  1  0  0  0  0  0  0  0  0  0
    7.2446  -17.2163   25.1825 O   0  0  0  0  0  0  0  0  0  0  0  0
    9.5261  -16.5954   25.5613 C   0  0  2  0  0  0  0  0  0  0  0  0
    9.7739  -17.1024   24.2310 N   0  0  0  0  0  0  0  0  0  0  0  0
    9.8505  -17.5473   26.6189 C   0  0  0  0  0  0  0  0  0  0  0  0
    9.7398  -17.2282   27.9617 O   0  0  0  0  0  0  0  0  0  0  0  0
   10.2460  -18.7023   26.3292 O   0  0  0  0  0  0  0  0  0  0  0  0
  2  1  1  1
  2  4  1  0
  2  3  1  0
  4  5  1  0
  5  6  1  1
  7  9  1  0
  7  5  1  0
  8  7  2  0
 10  9  1  0
 11 12  1  0
 10 11  1  6
 12 16  1  0
 12 13  2  0
 13 14  1  0
 15 14  1  0
 16 15  2  0
 17 23  1  0
 17 10  1  0
 18 17  2  0
 20 19  1  6
 20 22  1  0
 21 20  1  0
 22 23  1  6
 22 24  1  0
 24 25  1  0
 26 24  2  0
M  END
$$$$
