LHT.pdb
     RDKit          3D

 26 26  0  0  1  0  0  0  0  0999 V2000
    7.0486  -12.5380   19.0587 C   0  0  0  0  0  0  0  0  0  0  0  0
    8.2070  -13.4833   19.2759 C   0  0  1  0  0  0  0  0  0  0  0  0
    9.5117  -12.8264   18.9303 C   0  0  0  0  0  0  0  0  0  0  0  0
    8.2000  -14.0370   20.6866 C   0  0  0  0  0  0  0  0  0  0  0  0
    9.4590  -14.8273   20.9848 C   0  0  2  0  0  0  0  0  0  0  0  0
    9.5327  -15.8960   20.0235 N   0  0  0  0  0  0  0  0  0  0  0  0
    9.3759  -15.3774   22.3372 C   0  0  0  0  0  0  0  0  0  0  0  0
    8.3486  -15.1991   23.0309 O   0  0  0  0  0  0  0  0  0  0  0  0
   10.4616  -16.1151   22.8652 N   0  0  0  0  0  0  0  0  0  0  0  0
   10.4397  -16.7388   24.1720 C   0  0  1  0  0  0  0  0  0  0  0  0
   11.3260  -17.9382   24.2738 C   0  0  0  0  0  0  0  0  0  0  0  0
   10.9284  -19.0986   23.4896 C   0  0  0  0  0  0  0  0  0  0  0  0
    9.8596  -19.3413   22.6873 C   0  0  0  0  0  0  0  0  0  0  0  0
    9.9478  -20.5826   22.1809 N   0  0  0  0  0  0  0  0  0  0  0  0
   11.0670  -21.1432   22.6511 C   0  0  0  0  0  0  0  0  0  0  0  0
   11.6647  -20.2516   23.4429 N   0  0  0  0  0  0  0  0  0  0  0  0
   10.6406  -15.7439   25.2418 C   0  0  0  0  0  0  0  0  0  0  0  0
   11.6725  -15.0272   25.2219 O   0  0  0  0  0  0  0  0  0  0  0  0
    8.6584  -12.8571   26.2818 C   0  0  0  0  0  0  0  0  0  0  0  0
    8.7221  -13.7606   27.4937 C   0  0  1  0  0  0  0  0  0  0  0  0
    7.5418  -14.5374   27.4602 O   0  0  0  0  0  0  0  0  0  0  0  0
    9.9322  -14.6727   27.4130 C   0  0  2  0  0  0  0  0  0  0  0  0
    9.7087  -15.5636   26.2974 N   0  0  0  0  0  0  0  0  0  0  0  0
   10.2010  -15.3655   28.6690 C   0  0  0  0  0  0  0  0  0  0  0  0
   10.5099  -14.6883   29.8365 O   0  0  0  0  0  0  0  0  0  0  0  0
   10.1575  -16.6183   28.7207 O   0  0  0  0  0  0  0  0  0  0  0  0
  2  1  1  1
  2  4  1  0
  2  3  1  0
  4  5  1  0
  5  6  1  6
  7  9  1  0
  7  5  1  0
  8  7  2  0
 10  9  1  0
 11 12  1  0
 10 11  1  6
 12 16  1  0
 12 13  2  0
 13 14  1  0
 15 14  1  0
 16 15  2  0
 17 23  1  0
 17 10  1  0
 18 17  2  0
 20 19  1  6
 20 22  1  0
 21 20  1  0
 22 23  1  6
 22 24  1  0
 24 25  1  0
 26 24  2  0
M  END
$$$$
