LHT.pdb
     RDKit          3D

 26 26  0  0  1  0  0  0  0  0999 V2000
    7.7787  -12.0009   19.4549 C   0  0  0  0  0  0  0  0  0  0  0  0
    7.8916  -13.5074   19.4802 C   0  0  1  0  0  0  0  0  0  0  0  0
    9.0289  -13.9778   18.6210 C   0  0  0  0  0  0  0  0  0  0  0  0
    7.9969  -14.0211   20.9021 C   0  0  0  0  0  0  0  0  0  0  0  0
    8.0642  -15.5349   20.9476 C   0  0  2  0  0  0  0  0  0  0  0  0
    6.7930  -16.0350   20.4943 N   0  0  0  0  0  0  0  0  0  0  0  0
    8.3088  -15.9672   22.3231 C   0  0  0  0  0  0  0  0  0  0  0  0
    7.3859  -15.9378   23.1692 O   0  0  0  0  0  0  0  0  0  0  0  0
    9.5946  -16.4210   22.7005 N   0  0  0  0  0  0  0  0  0  0  0  0
    9.9069  -16.9166   24.0249 C   0  0  1  0  0  0  0  0  0  0  0  0
   10.9595  -17.9781   24.0301 C   0  0  0  0  0  0  0  0  0  0  0  0
   11.3006  -18.5373   25.3303 C   0  0  0  0  0  0  0  0  0  0  0  0
   10.8440  -18.2875   26.5849 C   0  0  0  0  0  0  0  0  0  0  0  0
   11.4840  -19.0769   27.4638 N   0  0  0  0  0  0  0  0  0  0  0  0
   12.3512  -19.8350   26.7846 C   0  0  0  0  0  0  0  0  0  0  0  0
   12.2455  -19.5140   25.4943 N   0  0  0  0  0  0  0  0  0  0  0  0
   10.1593  -15.8079   24.9638 C   0  0  0  0  0  0  0  0  0  0  0  0
   11.0772  -14.9889   24.7076 O   0  0  0  0  0  0  0  0  0  0  0  0
    8.2270  -13.0272   26.0033 C   0  0  0  0  0  0  0  0  0  0  0  0
    8.5061  -13.7511   27.3023 C   0  0  1  0  0  0  0  0  0  0  0  0
    7.3639  -14.5434   27.5573 O   0  0  0  0  0  0  0  0  0  0  0  0
    9.7232  -14.6463   27.1602 C   0  0  2  0  0  0  0  0  0  0  0  0
    9.4018  -15.6294   26.1510 N   0  0  0  0  0  0  0  0  0  0  0  0
   10.1458  -15.2292   28.4296 C   0  0  0  0  0  0  0  0  0  0  0  0
   10.5818  -14.4545   29.4912 O   0  0  0  0  0  0  0  0  0  0  0  0
   10.1235  -16.4731   28.5917 O   0  0  0  0  0  0  0  0  0  0  0  0
  2  1  1  1
  2  4  1  0
  2  3  1  0
  4  5  1  0
  5  6  1  1
  7  9  1  0
  7  5  1  0
  8  7  2  0
 10  9  1  0
 11 12  1  0
 10 11  1  6
 12 16  1  0
 12 13  2  0
 13 14  1  0
 15 14  1  0
 16 15  2  0
 17 23  1  0
 17 10  1  0
 18 17  2  0
 20 19  1  6
 20 22  1  0
 21 20  1  0
 22 23  1  6
 22 24  1  0
 24 25  1  0
 26 24  2  0
M  END
$$$$
