LHT.pdb
     RDKit          3D

 26 26  0  0  1  0  0  0  0  0999 V2000
    7.0605  -12.1038   20.4863 C   0  0  0  0  0  0  0  0  0  0  0  0
    7.8381  -13.3560   20.1540 C   0  0  1  0  0  0  0  0  0  0  0  0
    9.1630  -13.0198   19.5337 C   0  0  0  0  0  0  0  0  0  0  0  0
    7.9849  -14.2445   21.3730 C   0  0  0  0  0  0  0  0  0  0  0  0
    8.7088  -15.5348   21.0421 C   0  0  2  0  0  0  0  0  0  0  0  0
    7.8021  -16.3525   20.2800 N   0  0  0  0  0  0  0  0  0  0  0  0
    9.0730  -16.2171   22.2833 C   0  0  0  0  0  0  0  0  0  0  0  0
    8.2081  -16.8412   22.9396 O   0  0  0  0  0  0  0  0  0  0  0  0
   10.4095  -16.1722   22.7454 N   0  0  0  0  0  0  0  0  0  0  0  0
   10.8520  -16.8152   23.9652 C   0  0  1  0  0  0  0  0  0  0  0  0
   12.0388  -17.7035   23.7728 C   0  0  0  0  0  0  0  0  0  0  0  0
   11.7976  -18.9524   23.0644 C   0  0  0  0  0  0  0  0  0  0  0  0
   10.9629  -19.2825   22.0449 C   0  0  0  0  0  0  0  0  0  0  0  0
   11.1134  -20.5826   21.7411 N   0  0  0  0  0  0  0  0  0  0  0  0
   12.0402  -21.0943   22.5580 C   0  0  0  0  0  0  0  0  0  0  0  0
   12.4579  -20.1142   23.3606 N   0  0  0  0  0  0  0  0  0  0  0  0
   10.9968  -15.8390   25.0609 C   0  0  0  0  0  0  0  0  0  0  0  0
   11.9708  -15.0453   25.0457 O   0  0  0  0  0  0  0  0  0  0  0  0
    9.0505  -13.0693   26.2873 C   0  0  0  0  0  0  0  0  0  0  0  0
    9.1025  -14.0339   27.4519 C   0  0  1  0  0  0  0  0  0  0  0  0
    7.9087  -14.7874   27.3843 O   0  0  0  0  0  0  0  0  0  0  0  0
   10.2962  -14.9616   27.3198 C   0  0  2  0  0  0  0  0  0  0  0  0
   10.0738  -15.7609   26.1367 N   0  0  0  0  0  0  0  0  0  0  0  0
   10.5314  -15.7527   28.5234 C   0  0  0  0  0  0  0  0  0  0  0  0
   10.8468  -15.1729   29.7405 O   0  0  0  0  0  0  0  0  0  0  0  0
   10.4514  -17.0042   28.4819 O   0  0  0  0  0  0  0  0  0  0  0  0
  2  1  1  1
  2  4  1  0
  2  3  1  0
  4  5  1  0
  5  6  1  6
  7  9  1  0
  7  5  1  0
  8  7  2  0
 10  9  1  0
 11 12  1  0
 10 11  1  6
 12 16  1  0
 12 13  2  0
 13 14  1  0
 15 14  1  0
 16 15  2  0
 17 23  1  0
 17 10  1  0
 18 17  2  0
 20 19  1  6
 20 22  1  0
 21 20  1  0
 22 23  1  6
 22 24  1  0
 24 25  1  0
 26 24  2  0
M  END
$$$$
