LHT.pdb
     RDKit          3D

 26 26  0  0  1  0  0  0  0  0999 V2000
    6.5295  -11.2694   27.1300 C   0  0  0  0  0  0  0  0  0  0  0  0
    6.2405  -12.1380   25.9279 C   0  0  1  0  0  0  0  0  0  0  0  0
    6.8355  -11.5499   24.6816 C   0  0  0  0  0  0  0  0  0  0  0  0
    6.6981  -13.5633   26.1642 C   0  0  0  0  0  0  0  0  0  0  0  0
    6.3753  -14.4585   24.9840 C   0  0  2  0  0  0  0  0  0  0  0  0
    5.0824  -15.0416   25.2285 N   0  0  0  0  0  0  0  0  0  0  0  0
    7.3863  -15.5105   24.8840 C   0  0  0  0  0  0  0  0  0  0  0  0
    7.2516  -16.5802   25.5210 O   0  0  0  0  0  0  0  0  0  0  0  0
    8.5228  -15.3190   24.0633 N   0  0  0  0  0  0  0  0  0  0  0  0
    9.5244  -16.3408   23.8395 C   0  0  1  0  0  0  0  0  0  0  0  0
   10.5012  -15.9909   22.7634 C   0  0  0  0  0  0  0  0  0  0  0  0
   11.5196  -16.9896   22.4715 C   0  0  0  0  0  0  0  0  0  0  0  0
   12.8588  -17.0269   22.6952 C   0  0  0  0  0  0  0  0  0  0  0  0
   13.3614  -18.1847   22.2346 N   0  0  0  0  0  0  0  0  0  0  0  0
   12.3551  -18.8955   21.7148 C   0  0  0  0  0  0  0  0  0  0  0  0
   11.2388  -18.1789   21.8547 N   0  0  0  0  0  0  0  0  0  0  0  0
   10.1457  -16.7660   25.1075 C   0  0  0  0  0  0  0  0  0  0  0  0
   10.6988  -15.9034   25.8348 O   0  0  0  0  0  0  0  0  0  0  0  0
    8.7424  -18.8707   27.9961 C   0  0  0  0  0  0  0  0  0  0  0  0
    9.9457  -19.5755   27.4089 C   0  0  1  0  0  0  0  0  0  0  0  0
    9.4339  -20.4939   26.4644 O   0  0  0  0  0  0  0  0  0  0  0  0
   10.8540  -18.5814   26.7094 C   0  0  2  0  0  0  0  0  0  0  0  0
   10.1426  -18.1180   25.5400 N   0  0  0  0  0  0  0  0  0  0  0  0
   12.1711  -19.1344   26.4105 C   0  0  0  0  0  0  0  0  0  0  0  0
   13.0212  -19.5982   27.4003 O   0  0  0  0  0  0  0  0  0  0  0  0
   12.5723  -19.2037   25.2238 O   0  0  0  0  0  0  0  0  0  0  0  0
  2  1  1  1
  2  4  1  0
  2  3  1  0
  4  5  1  0
  5  6  1  1
  7  9  1  0
  7  5  1  0
  8  7  2  0
 10  9  1  0
 11 12  1  0
 10 11  1  6
 12 16  1  0
 12 13  2  0
 13 14  1  0
 15 14  1  0
 16 15  2  0
 17 23  1  0
 17 10  1  0
 18 17  2  0
 20 19  1  6
 20 22  1  0
 21 20  1  0
 22 23  1  6
 22 24  1  0
 24 25  1  0
 26 24  2  0
M  END
$$$$
