LHT.pdb
     RDKit          3D

 26 26  0  0  1  0  0  0  0  0999 V2000
    8.0602  -12.0951   18.6216 C   0  0  0  0  0  0  0  0  0  0  0  0
    8.5393  -13.5086   18.8567 C   0  0  1  0  0  0  0  0  0  0  0  0
    9.9610  -13.5236   19.3378 C   0  0  0  0  0  0  0  0  0  0  0  0
    7.6085  -14.2492   19.7958 C   0  0  0  0  0  0  0  0  0  0  0  0
    8.1221  -15.6400   20.1125 C   0  0  2  0  0  0  0  0  0  0  0  0
    7.5820  -16.5331   19.1215 N   0  0  0  0  0  0  0  0  0  0  0  0
    7.6618  -16.0343   21.4434 C   0  0  0  0  0  0  0  0  0  0  0  0
    6.4507  -16.2793   21.6473 O   0  0  0  0  0  0  0  0  0  0  0  0
    8.5892  -16.1396   22.5066 N   0  0  0  0  0  0  0  0  0  0  0  0
    8.2078  -16.4560   23.8674 C   0  0  1  0  0  0  0  0  0  0  0  0
    8.6208  -17.8267   24.2978 C   0  0  0  0  0  0  0  0  0  0  0  0
    8.1747  -18.2464   25.6186 C   0  0  0  0  0  0  0  0  0  0  0  0
    7.3573  -17.6693   26.5373 C   0  0  0  0  0  0  0  0  0  0  0  0
    7.2574  -18.4647   27.6154 N   0  0  0  0  0  0  0  0  0  0  0  0
    8.0051  -19.5519   27.3990 C   0  0  0  0  0  0  0  0  0  0  0  0
    8.5625  -19.4264   26.1937 N   0  0  0  0  0  0  0  0  0  0  0  0
    8.6065  -15.3828   24.7968 C   0  0  0  0  0  0  0  0  0  0  0  0
    9.8153  -15.0446   24.8549 O   0  0  0  0  0  0  0  0  0  0  0  0
    6.6666  -12.0295   25.2568 C   0  0  0  0  0  0  0  0  0  0  0  0
    6.8641  -12.6982   26.5997 C   0  0  1  0  0  0  0  0  0  0  0  0
    5.6753  -13.4198   26.8516 O   0  0  0  0  0  0  0  0  0  0  0  0
    8.0386  -13.6576   26.5474 C   0  0  2  0  0  0  0  0  0  0  0  0
    7.6732  -14.7140   25.6315 N   0  0  0  0  0  0  0  0  0  0  0  0
    8.4324  -14.1395   27.8675 C   0  0  0  0  0  0  0  0  0  0  0  0
    8.9149  -13.2927   28.8510 O   0  0  0  0  0  0  0  0  0  0  0  0
    8.3407  -15.3591   28.1476 O   0  0  0  0  0  0  0  0  0  0  0  0
  2  1  1  1
  2  4  1  0
  2  3  1  0
  4  5  1  0
  5  6  1  6
  7  9  1  0
  7  5  1  0
  8  7  2  0
 10  9  1  0
 11 12  1  0
 10 11  1  1
 12 16  1  0
 12 13  2  0
 13 14  1  0
 15 14  1  0
 16 15  2  0
 17 23  1  0
 17 10  1  0
 18 17  2  0
 20 19  1  6
 20 22  1  0
 21 20  1  0
 22 23  1  6
 22 24  1  0
 24 25  1  0
 26 24  2  0
M  END
$$$$
