LHT.pdb
     RDKit          3D

 26 26  0  0  1  0  0  0  0  0999 V2000
    7.2193  -12.0545   19.3980 C   0  0  0  0  0  0  0  0  0  0  0  0
    8.1682  -13.1205   18.9018 C   0  0  1  0  0  0  0  0  0  0  0  0
    9.4909  -12.5270   18.5128 C   0  0  0  0  0  0  0  0  0  0  0  0
    8.3165  -14.2333   19.9198 C   0  0  0  0  0  0  0  0  0  0  0  0
    9.2560  -15.3183   19.4314 C   0  0  2  0  0  0  0  0  0  0  0  0
    8.6108  -15.9802   18.3282 N   0  0  0  0  0  0  0  0  0  0  0  0
    9.4977  -16.2721   20.5133 C   0  0  0  0  0  0  0  0  0  0  0  0
    8.5761  -17.0174   20.9175 O   0  0  0  0  0  0  0  0  0  0  0  0
   10.7794  -16.3534   21.1070 N   0  0  0  0  0  0  0  0  0  0  0  0
   11.1093  -17.2866   22.1641 C   0  0  1  0  0  0  0  0  0  0  0  0
   12.4614  -17.9053   22.0111 C   0  0  0  0  0  0  0  0  0  0  0  0
   12.6194  -18.8370   20.9035 C   0  0  0  0  0  0  0  0  0  0  0  0
   11.7980  -19.7802   20.3737 C   0  0  0  0  0  0  0  0  0  0  0  0
   12.4122  -20.3869   19.3442 N   0  0  0  0  0  0  0  0  0  0  0  0
   13.6252  -19.8414   19.2057 C   0  0  0  0  0  0  0  0  0  0  0  0
   13.7570  -18.9038   20.1452 N   0  0  0  0  0  0  0  0  0  0  0  0
   10.8585  -16.6984   23.4929 C   0  0  0  0  0  0  0  0  0  0  0  0
   11.5963  -15.7642   23.8951 O   0  0  0  0  0  0  0  0  0  0  0  0
    7.9247  -15.0131   24.7839 C   0  0  0  0  0  0  0  0  0  0  0  0
    8.1451  -16.1745   25.7283 C   0  0  1  0  0  0  0  0  0  0  0  0
    7.2982  -17.2102   25.2727 O   0  0  0  0  0  0  0  0  0  0  0  0
    9.5890  -16.6379   25.6719 C   0  0  2  0  0  0  0  0  0  0  0  0
    9.8109  -17.1487   24.3384 N   0  0  0  0  0  0  0  0  0  0  0  0
    9.9161  -17.5936   26.7253 C   0  0  0  0  0  0  0  0  0  0  0  0
    9.8406  -17.2686   28.0691 O   0  0  0  0  0  0  0  0  0  0  0  0
   10.2814  -18.7572   26.4308 O   0  0  0  0  0  0  0  0  0  0  0  0
  2  1  1  1
  2  4  1  0
  2  3  1  0
  4  5  1  0
  5  6  1  6
  7  9  1  0
  7  5  1  0
  8  7  2  0
 10  9  1  0
 11 12  1  0
 10 11  1  1
 12 16  1  0
 12 13  2  0
 13 14  1  0
 15 14  1  0
 16 15  2  0
 17 23  1  0
 17 10  1  0
 18 17  2  0
 20 19  1  6
 20 22  1  0
 21 20  1  0
 22 23  1  6
 22 24  1  0
 24 25  1  0
 26 24  2  0
M  END
$$$$
