GQD.pdb
     RDKit          3D

 22 21  0  0  1  0  0  0  0  0999 V2000
   28.0455  -21.5170  -16.2053 N   0  0  0  0  0  0  0  0  0  0  0  0
   27.6219  -20.6093  -15.1881 C   0  0  0  0  0  0  0  0  0  0  0  0
   26.4410  -21.1735  -14.4918 C   0  0  0  0  0  0  0  0  0  0  0  0
   25.8507  -22.1944  -14.9409 O   0  0  0  0  0  0  0  0  0  0  0  0
   24.8055  -20.5921   -8.4383 N   0  0  0  0  0  0  0  0  0  0  0  0
   26.0133  -20.9441   -9.0811 C   0  0  0  0  0  0  0  0  0  0  0  0
   27.0388  -21.0049   -8.3632 O   0  0  0  0  0  0  0  0  0  0  0  0
   26.1010  -21.2344  -10.5329 C   0  0  0  0  0  0  0  0  0  0  0  0
   24.8033  -20.8779  -11.1749 C   0  0  0  0  0  0  0  0  0  0  0  0
   24.7832  -21.0644  -12.6755 C   0  0  2  0  0  0  0  0  0  0  0  0
   25.9744  -20.5505  -13.3042 N   0  0  0  0  0  0  0  0  0  0  0  0
   23.5778  -20.4029  -13.2786 C   0  0  0  0  0  0  0  0  0  0  0  0
   23.6251  -19.1983  -13.6446 O   0  0  0  0  0  0  0  0  0  0  0  0
   22.3610  -21.0907  -13.4582 N   0  0  0  0  0  0  0  0  0  0  0  0
   21.1994  -20.4895  -14.1592 C   0  0  1  0  0  0  0  0  0  0  0  0
   21.5430  -20.5745  -15.6219 C   0  0  0  0  0  0  0  0  0  0  0  0
   20.5225  -20.0598  -16.5218 C   0  0  0  0  0  0  0  0  0  0  0  0
   19.5363  -19.3820  -16.1785 O   0  0  0  0  0  0  0  0  0  0  0  0
   19.9796  -21.2203  -13.7943 C   0  0  0  0  0  0  0  0  0  0  0  0
   20.0204  -22.4756  -13.6774 O   0  0  0  0  0  0  0  0  0  0  0  0
   20.6147  -20.3236  -17.8992 O   0  0  0  0  0  0  0  0  0  0  0  0
   18.7767  -20.6073  -13.5678 O   0  0  0  0  0  0  0  0  0  0  0  0
  2  1  1  0
  2  3  1  0
  3 11  1  0
  4  3  2  0
  6  7  2  0
  6  5  1  0
  8  6  1  0
  9  8  1  0
 10 12  1  0
 10  9  1  1
 11 10  1  0
 12 14  1  0
 13 12  2  0
 14 15  1  0
 15 19  1  0
 15 16  1  6
 16 17  1  0
 17 18  2  0
 17 21  1  0
 19 20  2  0
 19 22  1  0
M  END
$$$$
