GQD.pdb
     RDKit          3D

 22 21  0  0  1  0  0  0  0  0999 V2000
   15.9957  -10.6612  -15.5761 N   0  0  0  0  0  0  0  0  0  0  0  0
   16.4149   -9.3711  -16.0209 C   0  0  0  0  0  0  0  0  0  0  0  0
   17.7770   -9.0958  -15.5046 C   0  0  0  0  0  0  0  0  0  0  0  0
   18.0173   -9.1196  -14.2660 O   0  0  0  0  0  0  0  0  0  0  0  0
   23.2113  -10.5982  -18.0789 N   0  0  0  0  0  0  0  0  0  0  0  0
   22.2075  -11.3806  -17.4656 C   0  0  0  0  0  0  0  0  0  0  0  0
   22.3176  -12.6247  -17.5705 O   0  0  0  0  0  0  0  0  0  0  0  0
   21.0646  -10.7928  -16.7253 C   0  0  0  0  0  0  0  0  0  0  0  0
   21.1988   -9.3078  -16.7317 C   0  0  0  0  0  0  0  0  0  0  0  0
   20.1507   -8.5880  -15.9129 C   0  0  2  0  0  0  0  0  0  0  0  0
   18.8194   -8.8022  -16.4229 N   0  0  0  0  0  0  0  0  0  0  0  0
   20.4329   -7.1142  -15.8631 C   0  0  0  0  0  0  0  0  0  0  0  0
   20.0921   -6.3650  -16.8170 O   0  0  0  0  0  0  0  0  0  0  0  0
   21.0808   -6.5154  -14.7642 N   0  0  0  0  0  0  0  0  0  0  0  0
   21.3809   -5.0633  -14.7079 C   0  0  1  0  0  0  0  0  0  0  0  0
   20.0474   -4.3852  -14.8720 C   0  0  0  0  0  0  0  0  0  0  0  0
   20.0704   -2.9402  -14.7063 C   0  0  0  0  0  0  0  0  0  0  0  0
   21.0418   -2.2029  -14.9570 O   0  0  0  0  0  0  0  0  0  0  0  0
   22.0500   -4.7537  -13.4384 C   0  0  0  0  0  0  0  0  0  0  0  0
   22.2266   -5.6710  -12.5907 O   0  0  0  0  0  0  0  0  0  0  0  0
   18.9270   -2.2782  -14.2271 O   0  0  0  0  0  0  0  0  0  0  0  0
   22.5037   -3.5034  -13.1144 O   0  0  0  0  0  0  0  0  0  0  0  0
  2  1  1  0
  2  3  1  0
  3 11  1  0
  4  3  2  0
  6  7  2  0
  6  5  1  0
  8  6  1  0
  9  8  1  0
 10 12  1  0
 10  9  1  6
 11 10  1  0
 12 14  1  0
 13 12  2  0
 14 15  1  0
 15 19  1  0
 15 16  1  1
 16 17  1  0
 17 18  2  0
 17 21  1  0
 19 20  2  0
 19 22  1  0
M  END
$$$$
