GQD.pdb
     RDKit          3D

 22 21  0  0  1  0  0  0  0  0999 V2000
   18.1480  -25.4791   -6.3192 N   0  0  0  0  0  0  0  0  0  0  0  0
   17.5819  -25.8077   -5.0505 C   0  0  0  0  0  0  0  0  0  0  0  0
   16.8335  -24.6375   -4.5324 C   0  0  0  0  0  0  0  0  0  0  0  0
   17.0655  -23.4759   -4.9676 O   0  0  0  0  0  0  0  0  0  0  0  0
   11.1130  -23.6518   -4.5867 N   0  0  0  0  0  0  0  0  0  0  0  0
   12.0063  -22.6519   -5.0319 C   0  0  0  0  0  0  0  0  0  0  0  0
   11.5653  -21.8338   -5.8728 O   0  0  0  0  0  0  0  0  0  0  0  0
   13.4047  -22.5449   -4.5495 C   0  0  0  0  0  0  0  0  0  0  0  0
   13.6835  -23.6801   -3.6240 C   0  0  0  0  0  0  0  0  0  0  0  0
   15.0908  -23.6966   -3.0708 C   0  0  2  0  0  0  0  0  0  0  0  0
   15.8444  -24.8353   -3.5332 N   0  0  0  0  0  0  0  0  0  0  0  0
   15.0734  -23.6883   -1.5695 C   0  0  0  0  0  0  0  0  0  0  0  0
   15.2450  -24.7552   -0.9218 O   0  0  0  0  0  0  0  0  0  0  0  0
   14.8677  -22.5050   -0.8323 N   0  0  0  0  0  0  0  0  0  0  0  0
   14.9265  -22.4668    0.6499 C   0  0  1  0  0  0  0  0  0  0  0  0
   15.7982  -21.2832    0.9729 C   0  0  0  0  0  0  0  0  0  0  0  0
   16.0640  -21.0866    2.3895 C   0  0  0  0  0  0  0  0  0  0  0  0
   15.6953  -21.8479    3.3030 O   0  0  0  0  0  0  0  0  0  0  0  0
   13.5647  -22.3632    1.1882 C   0  0  0  0  0  0  0  0  0  0  0  0
   12.6391  -21.9227    0.4530 O   0  0  0  0  0  0  0  0  0  0  0  0
   16.7921  -19.9600    2.8092 O   0  0  0  0  0  0  0  0  0  0  0  0
   13.2331  -22.7249    2.4662 O   0  0  0  0  0  0  0  0  0  0  0  0
  2  1  1  0
  2  3  1  0
  3 11  1  0
  4  3  2  0
  6  7  2  0
  6  5  1  0
  8  6  1  0
  9  8  1  0
 10 12  1  0
 10  9  1  6
 11 10  1  0
 12 14  1  0
 13 12  2  0
 14 15  1  0
 15 19  1  0
 15 16  1  6
 16 17  1  0
 17 18  2  0
 17 21  1  0
 19 20  2  0
 19 22  1  0
M  END
$$$$
