GQD.pdb
     RDKit          3D

 22 21  0  0  1  0  0  0  0  0999 V2000
   10.9129  -10.3943   -9.3611 N   0  0  0  0  0  0  0  0  0  0  0  0
   12.0353  -10.6954  -10.1905 C   0  0  0  0  0  0  0  0  0  0  0  0
   13.2236   -9.9659   -9.6868 C   0  0  0  0  0  0  0  0  0  0  0  0
   13.2728   -9.5520   -8.4957 O   0  0  0  0  0  0  0  0  0  0  0  0
   18.7665   -9.1704  -12.7224 N   0  0  0  0  0  0  0  0  0  0  0  0
   18.9447   -8.5267  -11.4775 C   0  0  0  0  0  0  0  0  0  0  0  0
   20.0890   -8.0782  -11.2318 O   0  0  0  0  0  0  0  0  0  0  0  0
   17.8537   -8.3709  -10.4850 C   0  0  0  0  0  0  0  0  0  0  0  0
   16.6546   -9.1152  -10.9661 C   0  0  0  0  0  0  0  0  0  0  0  0
   15.4362   -8.9628  -10.0835 C   0  0  2  0  0  0  0  0  0  0  0  0
   14.3165   -9.7339  -10.5631 N   0  0  0  0  0  0  0  0  0  0  0  0
   15.0353   -7.5202   -9.9727 C   0  0  0  0  0  0  0  0  0  0  0  0
   14.5246   -6.9207  -10.9561 O   0  0  0  0  0  0  0  0  0  0  0  0
   15.2105   -6.7865   -8.7823 N   0  0  0  0  0  0  0  0  0  0  0  0
   14.7671   -5.3776   -8.6397 C   0  0  1  0  0  0  0  0  0  0  0  0
   14.1611   -5.2993   -7.2643 C   0  0  0  0  0  0  0  0  0  0  0  0
   13.6889   -3.9789   -6.8772 C   0  0  0  0  0  0  0  0  0  0  0  0
   13.6784   -3.5308   -5.7156 O   0  0  0  0  0  0  0  0  0  0  0  0
   15.9161   -4.4843   -8.8318 C   0  0  0  0  0  0  0  0  0  0  0  0
   17.0698   -4.8798   -8.5095 O   0  0  0  0  0  0  0  0  0  0  0  0
   13.1953   -3.1029   -7.8590 O   0  0  0  0  0  0  0  0  0  0  0  0
   15.8074   -3.2225   -9.3518 O   0  0  0  0  0  0  0  0  0  0  0  0
  2  1  1  0
  2  3  1  0
  3 11  1  0
  4  3  2  0
  6  7  2  0
  6  5  1  0
  8  6  1  0
  9  8  1  0
 10 12  1  0
 10  9  1  6
 11 10  1  0
 12 14  1  0
 13 12  2  0
 14 15  1  0
 15 19  1  0
 15 16  1  1
 16 17  1  0
 17 18  2  0
 17 21  1  0
 19 20  2  0
 19 22  1  0
M  END
$$$$
