GQD.pdb
     RDKit          3D

 22 21  0  0  1  0  0  0  0  0999 V2000
   17.1640  -12.5171  -15.6908 N   0  0  0  0  0  0  0  0  0  0  0  0
   18.3350  -11.8164  -15.2712 C   0  0  0  0  0  0  0  0  0  0  0  0
   17.9539  -10.4574  -14.8176 C   0  0  0  0  0  0  0  0  0  0  0  0
   17.7282   -9.5362  -15.6499 O   0  0  0  0  0  0  0  0  0  0  0  0
   15.2550   -8.7096   -9.3833 N   0  0  0  0  0  0  0  0  0  0  0  0
   14.6227   -9.2274  -10.5356 C   0  0  0  0  0  0  0  0  0  0  0  0
   13.4358   -9.6088  -10.4060 O   0  0  0  0  0  0  0  0  0  0  0  0
   15.2994   -9.3299  -11.8514 C   0  0  0  0  0  0  0  0  0  0  0  0
   16.7098   -8.8688  -11.7052 C   0  0  0  0  0  0  0  0  0  0  0  0
   17.4971   -8.8657  -12.9963 C   0  0  2  0  0  0  0  0  0  0  0  0
   17.8438  -10.1974  -13.4260 N   0  0  0  0  0  0  0  0  0  0  0  0
   18.7479   -8.0472  -12.8559 C   0  0  0  0  0  0  0  0  0  0  0  0
   19.6316   -8.3682  -12.0173 O   0  0  0  0  0  0  0  0  0  0  0  0
   18.9831   -6.9029  -13.6440 N   0  0  0  0  0  0  0  0  0  0  0  0
   20.2124   -6.0820  -13.5137 C   0  0  1  0  0  0  0  0  0  0  0  0
   21.0389   -6.4272  -14.7230 C   0  0  0  0  0  0  0  0  0  0  0  0
   22.2885   -5.6918  -14.8414 C   0  0  0  0  0  0  0  0  0  0  0  0
   22.6864   -4.8178  -14.0490 O   0  0  0  0  0  0  0  0  0  0  0  0
   19.8437   -4.6633  -13.4342 C   0  0  0  0  0  0  0  0  0  0  0  0
   20.7370   -3.8022  -13.2065 O   0  0  0  0  0  0  0  0  0  0  0  0
   23.1488   -5.9544  -15.9212 O   0  0  0  0  0  0  0  0  0  0  0  0
   18.5620   -4.2104  -13.5970 O   0  0  0  0  0  0  0  0  0  0  0  0
  2  1  1  0
  2  3  1  0
  3 11  1  0
  4  3  2  0
  6  7  2  0
  6  5  1  0
  8  6  1  0
  9  8  1  0
 10 12  1  0
 10  9  1  1
 11 10  1  0
 12 14  1  0
 13 12  2  0
 14 15  1  0
 15 19  1  0
 15 16  1  6
 16 17  1  0
 17 18  2  0
 17 21  1  0
 19 20  2  0
 19 22  1  0
M  END
$$$$
