GQD.pdb
     RDKit          3D

 22 21  0  0  1  0  0  0  0  0999 V2000
   20.1038  -15.2126  -15.9186 N   0  0  0  0  0  0  0  0  0  0  0  0
   20.8028  -14.3851  -16.8486 C   0  0  0  0  0  0  0  0  0  0  0  0
   21.5449  -13.3374  -16.1075 C   0  0  0  0  0  0  0  0  0  0  0  0
   21.1350  -12.9219  -14.9887 O   0  0  0  0  0  0  0  0  0  0  0  0
   27.4703  -11.3177  -16.9982 N   0  0  0  0  0  0  0  0  0  0  0  0
   26.9006  -10.3349  -16.1584 C   0  0  0  0  0  0  0  0  0  0  0  0
   27.6650   -9.4309  -15.7469 O   0  0  0  0  0  0  0  0  0  0  0  0
   25.4714  -10.3408  -15.7620 C   0  0  0  0  0  0  0  0  0  0  0  0
   24.8052  -11.5237  -16.3783 C   0  0  0  0  0  0  0  0  0  0  0  0
   23.3352  -11.6492  -16.0462 C   0  0  2  0  0  0  0  0  0  0  0  0
   22.7319  -12.7996  -16.6714 N   0  0  0  0  0  0  0  0  0  0  0  0
   22.5889  -10.4124  -16.4557 C   0  0  0  0  0  0  0  0  0  0  0  0
   22.3712  -10.1700  -17.6727 O   0  0  0  0  0  0  0  0  0  0  0  0
   22.1075   -9.4844  -15.5107 N   0  0  0  0  0  0  0  0  0  0  0  0
   21.3546   -8.2662  -15.8993 C   0  0  1  0  0  0  0  0  0  0  0  0
   20.1281   -8.2739  -15.0271 C   0  0  0  0  0  0  0  0  0  0  0  0
   19.2993   -7.0824  -15.1249 C   0  0  0  0  0  0  0  0  0  0  0  0
   18.7581   -6.6662  -16.1660 O   0  0  0  0  0  0  0  0  0  0  0  0
   22.2075   -7.0863  -15.7105 C   0  0  0  0  0  0  0  0  0  0  0  0
   23.3024   -7.2046  -15.0953 O   0  0  0  0  0  0  0  0  0  0  0  0
   19.0621   -6.3059  -13.9777 O   0  0  0  0  0  0  0  0  0  0  0  0
   21.8786   -5.8405  -16.1730 O   0  0  0  0  0  0  0  0  0  0  0  0
  2  1  1  0
  2  3  1  0
  3 11  1  0
  4  3  2  0
  6  7  2  0
  6  5  1  0
  8  6  1  0
  9  8  1  0
 10 12  1  0
 10  9  1  6
 11 10  1  0
 12 14  1  0
 13 12  2  0
 14 15  1  0
 15 19  1  0
 15 16  1  1
 16 17  1  0
 17 18  2  0
 17 21  1  0
 19 20  2  0
 19 22  1  0
M  END
$$$$
