GQD.pdb
     RDKit          3D

 22 21  0  0  1  0  0  0  0  0999 V2000
   27.4340  -15.8134  -15.7886 N   0  0  0  0  0  0  0  0  0  0  0  0
   26.5254  -14.9316  -15.1289 C   0  0  0  0  0  0  0  0  0  0  0  0
   25.2863  -14.8159  -15.9344 C   0  0  0  0  0  0  0  0  0  0  0  0
   25.2892  -15.0780  -17.1687 O   0  0  0  0  0  0  0  0  0  0  0  0
   19.6265  -16.7721  -14.9577 N   0  0  0  0  0  0  0  0  0  0  0  0
   20.7796  -17.3944  -15.4858 C   0  0  0  0  0  0  0  0  0  0  0  0
   20.7513  -18.6433  -15.5880 O   0  0  0  0  0  0  0  0  0  0  0  0
   21.9835  -16.6386  -15.9090 C   0  0  0  0  0  0  0  0  0  0  0  0
   21.7822  -15.1954  -15.5933 C   0  0  0  0  0  0  0  0  0  0  0  0
   22.8865  -14.2921  -16.0948 C   0  0  2  0  0  0  0  0  0  0  0  0
   24.0844  -14.4039  -15.3005 N   0  0  0  0  0  0  0  0  0  0  0  0
   22.4356  -12.8602  -16.1156 C   0  0  0  0  0  0  0  0  0  0  0  0
   22.6351  -12.1121  -15.1217 O   0  0  0  0  0  0  0  0  0  0  0  0
   21.7801  -12.3006  -17.2306 N   0  0  0  0  0  0  0  0  0  0  0  0
   21.4309  -10.8607  -17.3123 C   0  0  1  0  0  0  0  0  0  0  0  0
   21.3313  -10.5690  -18.7854 C   0  0  0  0  0  0  0  0  0  0  0  0
   22.6063  -10.3834  -19.4608 C   0  0  0  0  0  0  0  0  0  0  0  0
   23.7187  -10.3557  -18.9023 O   0  0  0  0  0  0  0  0  0  0  0  0
   20.1840  -10.6200  -16.5758 C   0  0  0  0  0  0  0  0  0  0  0  0
   19.3220  -11.5378  -16.4991 O   0  0  0  0  0  0  0  0  0  0  0  0
   22.6349  -10.2174  -20.8561 O   0  0  0  0  0  0  0  0  0  0  0  0
   19.8964   -9.4349  -15.9538 O   0  0  0  0  0  0  0  0  0  0  0  0
  2  1  1  0
  2  3  1  0
  3 11  1  0
  4  3  2  0
  6  7  2  0
  6  5  1  0
  8  6  1  0
  9  8  1  0
 10 12  1  0
 10  9  1  1
 11 10  1  0
 12 14  1  0
 13 12  2  0
 14 15  1  0
 15 19  1  0
 15 16  1  6
 16 17  1  0
 17 18  2  0
 17 21  1  0
 19 20  2  0
 19 22  1  0
M  END
$$$$
