GQD.pdb
     RDKit          3D

 22 21  0  0  1  0  0  0  0  0999 V2000
   13.9046  -12.2059  -11.7809 N   0  0  0  0  0  0  0  0  0  0  0  0
   14.8744  -11.7259  -10.8496 C   0  0  0  0  0  0  0  0  0  0  0  0
   15.1123  -10.2831  -11.0932 C   0  0  0  0  0  0  0  0  0  0  0  0
   14.8019   -9.7524  -12.1952 O   0  0  0  0  0  0  0  0  0  0  0  0
   15.2314   -5.7531   -6.8453 N   0  0  0  0  0  0  0  0  0  0  0  0
   14.1185   -6.3149   -7.5099 C   0  0  0  0  0  0  0  0  0  0  0  0
   12.9938   -6.1206   -6.9922 O   0  0  0  0  0  0  0  0  0  0  0  0
   14.2376   -7.1021   -8.7612 C   0  0  0  0  0  0  0  0  0  0  0  0
   15.6810   -7.2378   -9.1097 C   0  0  0  0  0  0  0  0  0  0  0  0
   15.9462   -8.0984  -10.3245 C   0  0  2  0  0  0  0  0  0  0  0  0
   15.6978   -9.4950  -10.0674 N   0  0  0  0  0  0  0  0  0  0  0  0
   17.3588   -7.9246  -10.8026 C   0  0  0  0  0  0  0  0  0  0  0  0
   18.3104   -8.4979  -10.2085 O   0  0  0  0  0  0  0  0  0  0  0  0
   17.6755   -7.1251  -11.9191 N   0  0  0  0  0  0  0  0  0  0  0  0
   19.0613   -6.9776  -12.4288 C   0  0  1  0  0  0  0  0  0  0  0  0
   19.5092   -8.3790  -12.7452 C   0  0  0  0  0  0  0  0  0  0  0  0
   20.8007   -8.4746  -13.4078 C   0  0  0  0  0  0  0  0  0  0  0  0
   21.7026   -7.6181  -13.3524 O   0  0  0  0  0  0  0  0  0  0  0  0
   19.0593   -6.0803  -13.5907 C   0  0  0  0  0  0  0  0  0  0  0  0
   18.0721   -6.0848  -14.3759 O   0  0  0  0  0  0  0  0  0  0  0  0
   21.1001   -9.6068  -14.1848 O   0  0  0  0  0  0  0  0  0  0  0  0
   20.0858   -5.2210  -13.8774 O   0  0  0  0  0  0  0  0  0  0  0  0
  2  1  1  0
  2  3  1  0
  3 11  1  0
  4  3  2  0
  6  7  2  0
  6  5  1  0
  8  6  1  0
  9  8  1  0
 10 12  1  0
 10  9  1  1
 11 10  1  0
 12 14  1  0
 13 12  2  0
 14 15  1  0
 15 19  1  0
 15 16  1  6
 16 17  1  0
 17 18  2  0
 17 21  1  0
 19 20  2  0
 19 22  1  0
M  END
$$$$
