GQD.pdb
     RDKit          3D

 22 21  0  0  1  0  0  0  0  0999 V2000
   15.1394  -12.6902  -12.0957 N   0  0  0  0  0  0  0  0  0  0  0  0
   15.3755  -12.0267  -10.8538 C   0  0  0  0  0  0  0  0  0  0  0  0
   15.4327  -10.5635  -11.0856 C   0  0  0  0  0  0  0  0  0  0  0  0
   14.8374  -10.0394  -12.0671 O   0  0  0  0  0  0  0  0  0  0  0  0
   14.5538   -6.4280   -6.8558 N   0  0  0  0  0  0  0  0  0  0  0  0
   14.9498   -5.6076   -7.9357 C   0  0  0  0  0  0  0  0  0  0  0  0
   14.8280   -4.3700   -7.7797 O   0  0  0  0  0  0  0  0  0  0  0  0
   15.4878   -6.1497   -9.2071 C   0  0  0  0  0  0  0  0  0  0  0  0
   15.6288   -7.6285   -9.0792 C   0  0  0  0  0  0  0  0  0  0  0  0
   16.1046   -8.3162  -10.3391 C   0  0  2  0  0  0  0  0  0  0  0  0
   16.1696   -9.7483  -10.1865 N   0  0  0  0  0  0  0  0  0  0  0  0
   17.4520   -7.7987  -10.7525 C   0  0  0  0  0  0  0  0  0  0  0  0
   18.5019   -8.2576  -10.2287 O   0  0  0  0  0  0  0  0  0  0  0  0
   17.5974   -6.7932  -11.7291 N   0  0  0  0  0  0  0  0  0  0  0  0
   18.9024   -6.4746  -12.3595 C   0  0  1  0  0  0  0  0  0  0  0  0
   19.3536   -7.7645  -12.9900 C   0  0  0  0  0  0  0  0  0  0  0  0
   20.7932   -7.9735  -12.9947 C   0  0  0  0  0  0  0  0  0  0  0  0
   21.6389   -7.1635  -12.5722 O   0  0  0  0  0  0  0  0  0  0  0  0
   18.7243   -5.3777  -13.3188 C   0  0  0  0  0  0  0  0  0  0  0  0
   17.6235   -5.2542  -13.9222 O   0  0  0  0  0  0  0  0  0  0  0  0
   21.3189   -9.1715  -13.5082 O   0  0  0  0  0  0  0  0  0  0  0  0
   19.7017   -4.4617  -13.6017 O   0  0  0  0  0  0  0  0  0  0  0  0
  2  1  1  0
  2  3  1  0
  3 11  1  0
  4  3  2  0
  6  7  2  0
  6  5  1  0
  8  6  1  0
  9  8  1  0
 10 12  1  0
 10  9  1  1
 11 10  1  0
 12 14  1  0
 13 12  2  0
 14 15  1  0
 15 19  1  0
 15 16  1  6
 16 17  1  0
 17 18  2  0
 17 21  1  0
 19 20  2  0
 19 22  1  0
M  END
$$$$
