GQD.pdb
     RDKit          3D

 22 21  0  0  1  0  0  0  0  0999 V2000
   26.2067  -13.4569  -16.1056 N   0  0  0  0  0  0  0  0  0  0  0  0
   25.0505  -13.0296  -15.3852 C   0  0  0  0  0  0  0  0  0  0  0  0
   24.4469  -11.8659  -16.0775 C   0  0  0  0  0  0  0  0  0  0  0  0
   25.0152  -11.3380  -17.0729 O   0  0  0  0  0  0  0  0  0  0  0  0
   20.7351   -9.9904  -19.6778 N   0  0  0  0  0  0  0  0  0  0  0  0
   21.2510  -11.2889  -19.4687 C   0  0  0  0  0  0  0  0  0  0  0  0
   21.3464  -12.0282  -20.4763 O   0  0  0  0  0  0  0  0  0  0  0  0
   21.6693  -11.7871  -18.1359 C   0  0  0  0  0  0  0  0  0  0  0  0
   21.3769  -10.7394  -17.1162 C   0  0  0  0  0  0  0  0  0  0  0  0
   22.5897  -10.2724  -16.3430 C   0  0  2  0  0  0  0  0  0  0  0  0
   23.2127  -11.3444  -15.6075 N   0  0  0  0  0  0  0  0  0  0  0  0
   22.2244   -9.1663  -15.3957 C   0  0  0  0  0  0  0  0  0  0  0  0
   21.8787   -9.4256  -14.2123 O   0  0  0  0  0  0  0  0  0  0  0  0
   22.2524   -7.8119  -15.7840 N   0  0  0  0  0  0  0  0  0  0  0  0
   21.9799   -6.7033  -14.8360 C   0  0  1  0  0  0  0  0  0  0  0  0
   22.4769   -5.4658  -15.5335 C   0  0  0  0  0  0  0  0  0  0  0  0
   22.2617   -4.2244  -14.8064 C   0  0  0  0  0  0  0  0  0  0  0  0
   21.7806   -4.1356  -13.6615 O   0  0  0  0  0  0  0  0  0  0  0  0
   20.5458   -6.6713  -14.5242 C   0  0  0  0  0  0  0  0  0  0  0  0
   20.1739   -6.4737  -13.3351 O   0  0  0  0  0  0  0  0  0  0  0  0
   22.6095   -3.0008  -15.4039 O   0  0  0  0  0  0  0  0  0  0  0  0
   19.5685   -6.8456  -15.4670 O   0  0  0  0  0  0  0  0  0  0  0  0
  2  1  1  0
  2  3  1  0
  3 11  1  0
  4  3  2  0
  6  7  2  0
  6  5  1  0
  8  6  1  0
  9  8  1  0
 10 12  1  0
 10  9  1  1
 11 10  1  0
 12 14  1  0
 13 12  2  0
 14 15  1  0
 15 19  1  0
 15 16  1  6
 16 17  1  0
 17 18  2  0
 17 21  1  0
 19 20  2  0
 19 22  1  0
M  END
$$$$
