GQD.pdb
     RDKit          3D

 22 21  0  0  1  0  0  0  0  0999 V2000
   28.6995  -21.0344  -15.9498 N   0  0  0  0  0  0  0  0  0  0  0  0
   27.9258  -20.1498  -15.1393 C   0  0  0  0  0  0  0  0  0  0  0  0
   26.9556  -20.9397  -14.3439 C   0  0  0  0  0  0  0  0  0  0  0  0
   26.5313  -22.0529  -14.7598 O   0  0  0  0  0  0  0  0  0  0  0  0
   25.2872  -20.3824   -8.2159 N   0  0  0  0  0  0  0  0  0  0  0  0
   26.5451  -20.6841   -8.7839 C   0  0  0  0  0  0  0  0  0  0  0  0
   27.5251  -20.7145   -8.0032 O   0  0  0  0  0  0  0  0  0  0  0  0
   26.7343  -20.9570  -10.2294 C   0  0  0  0  0  0  0  0  0  0  0  0
   25.4262  -20.7934  -10.9260 C   0  0  0  0  0  0  0  0  0  0  0  0
   25.4613  -21.1382  -12.3980 C   0  0  2  0  0  0  0  0  0  0  0  0
   26.5029  -20.4293  -13.0987 N   0  0  0  0  0  0  0  0  0  0  0  0
   24.1387  -20.8459  -13.0455 C   0  0  0  0  0  0  0  0  0  0  0  0
   23.8789  -19.6911  -13.4771 O   0  0  0  0  0  0  0  0  0  0  0  0
   23.1468  -21.8356  -13.1960 N   0  0  0  0  0  0  0  0  0  0  0  0
   21.8570  -21.5761  -13.8823 C   0  0  1  0  0  0  0  0  0  0  0  0
   21.5111  -22.8740  -14.5610 C   0  0  0  0  0  0  0  0  0  0  0  0
   22.4599  -23.3070  -15.5752 C   0  0  0  0  0  0  0  0  0  0  0  0
   22.9911  -22.5684  -16.4251 O   0  0  0  0  0  0  0  0  0  0  0  0
   20.8605  -21.1399  -12.8964 C   0  0  0  0  0  0  0  0  0  0  0  0
   21.0995  -21.2868  -11.6665 O   0  0  0  0  0  0  0  0  0  0  0  0
   22.8377  -24.6591  -15.6400 O   0  0  0  0  0  0  0  0  0  0  0  0
   19.6638  -20.5707  -13.2400 O   0  0  0  0  0  0  0  0  0  0  0  0
  2  1  1  0
  2  3  1  0
  3 11  1  0
  4  3  2  0
  6  7  2  0
  6  5  1  0
  8  6  1  0
  9  8  1  0
 10 12  1  0
 10  9  1  1
 11 10  1  0
 12 14  1  0
 13 12  2  0
 14 15  1  0
 15 19  1  0
 15 16  1  1
 16 17  1  0
 17 18  2  0
 17 21  1  0
 19 20  2  0
 19 22  1  0
M  END
$$$$
