GQD.pdb
     RDKit          3D

 22 21  0  0  1  0  0  0  0  0999 V2000
   18.8066  -12.3057  -16.6413 N   0  0  0  0  0  0  0  0  0  0  0  0
   19.0147  -10.9511  -17.0410 C   0  0  0  0  0  0  0  0  0  0  0  0
   20.0791  -10.3525  -16.2006 C   0  0  0  0  0  0  0  0  0  0  0  0
   19.8297   -9.9443  -15.0328 O   0  0  0  0  0  0  0  0  0  0  0  0
   26.2353  -11.4015  -16.7290 N   0  0  0  0  0  0  0  0  0  0  0  0
   26.1272  -10.5346  -15.6187 C   0  0  0  0  0  0  0  0  0  0  0  0
   27.1673  -10.3463  -14.9452 O   0  0  0  0  0  0  0  0  0  0  0  0
   24.8607   -9.8627  -15.2386 C   0  0  0  0  0  0  0  0  0  0  0  0
   23.7771  -10.3244  -16.1527 C   0  0  0  0  0  0  0  0  0  0  0  0
   22.4294   -9.6933  -15.8836 C   0  0  2  0  0  0  0  0  0  0  0  0
   21.3941  -10.2406  -16.7243 N   0  0  0  0  0  0  0  0  0  0  0  0
   22.4900   -8.2053  -16.0744 C   0  0  0  0  0  0  0  0  0  0  0  0
   22.5386   -7.7102  -17.2319 O   0  0  0  0  0  0  0  0  0  0  0  0
   22.4950   -7.3129  -14.9838 N   0  0  0  0  0  0  0  0  0  0  0  0
   22.3485   -5.8458  -15.1514 C   0  0  1  0  0  0  0  0  0  0  0  0
   21.0532   -5.6682  -15.8966 C   0  0  0  0  0  0  0  0  0  0  0  0
   20.5983   -4.2915  -16.0151 C   0  0  0  0  0  0  0  0  0  0  0  0
   21.2829   -3.2834  -15.7603 O   0  0  0  0  0  0  0  0  0  0  0  0
   22.3655   -5.2014  -13.8324 C   0  0  0  0  0  0  0  0  0  0  0  0
   22.2240   -3.9506  -13.7514 O   0  0  0  0  0  0  0  0  0  0  0  0
   19.2874   -4.0286  -16.4483 O   0  0  0  0  0  0  0  0  0  0  0  0
   22.5279   -5.8921  -12.6616 O   0  0  0  0  0  0  0  0  0  0  0  0
  2  1  1  0
  2  3  1  0
  3 11  1  0
  4  3  2  0
  6  7  2  0
  6  5  1  0
  8  6  1  0
  9  8  1  0
 10 12  1  0
 10  9  1  6
 11 10  1  0
 12 14  1  0
 13 12  2  0
 14 15  1  0
 15 19  1  0
 15 16  1  1
 16 17  1  0
 17 18  2  0
 17 21  1  0
 19 20  2  0
 19 22  1  0
M  END
$$$$
