GQD.pdb
     RDKit          3D

 22 21  0  0  1  0  0  0  0  0999 V2000
   26.3574  -24.5652  -15.9856 N   0  0  0  0  0  0  0  0  0  0  0  0
   26.6758  -23.2188  -15.6332 C   0  0  0  0  0  0  0  0  0  0  0  0
   25.7309  -22.7509  -14.5911 C   0  0  0  0  0  0  0  0  0  0  0  0
   24.6661  -23.3840  -14.3507 O   0  0  0  0  0  0  0  0  0  0  0  0
   24.0610  -20.5059   -9.6890 N   0  0  0  0  0  0  0  0  0  0  0  0
   25.3755  -21.0208   -9.6338 C   0  0  0  0  0  0  0  0  0  0  0  0
   25.7139  -21.5938   -8.5717 O   0  0  0  0  0  0  0  0  0  0  0  0
   26.3355  -20.9071  -10.7586 C   0  0  0  0  0  0  0  0  0  0  0  0
   25.6812  -20.1714  -11.8782 C   0  0  0  0  0  0  0  0  0  0  0  0
   25.0594  -21.0660  -12.9270 C   0  0  2  0  0  0  0  0  0  0  0  0
   26.0358  -21.5735  -13.8583 N   0  0  0  0  0  0  0  0  0  0  0  0
   23.9855  -20.3363  -13.6811 C   0  0  0  0  0  0  0  0  0  0  0  0
   24.2858  -19.5151  -14.5880 O   0  0  0  0  0  0  0  0  0  0  0  0
   22.6169  -20.5360  -13.4107 N   0  0  0  0  0  0  0  0  0  0  0  0
   21.5439  -20.0159  -14.2938 C   0  0  1  0  0  0  0  0  0  0  0  0
   21.8067  -20.6456  -15.6352 C   0  0  0  0  0  0  0  0  0  0  0  0
   20.8227  -20.3358  -16.6609 C   0  0  0  0  0  0  0  0  0  0  0  0
   19.8470  -19.5762  -16.5154 O   0  0  0  0  0  0  0  0  0  0  0  0
   20.2354  -20.3607  -13.7244 C   0  0  0  0  0  0  0  0  0  0  0  0
   20.0511  -21.5139  -13.2476 O   0  0  0  0  0  0  0  0  0  0  0  0
   20.9413  -20.9174  -17.9348 O   0  0  0  0  0  0  0  0  0  0  0  0
   19.1828  -19.4866  -13.6785 O   0  0  0  0  0  0  0  0  0  0  0  0
  2  1  1  0
  2  3  1  0
  3 11  1  0
  4  3  2  0
  6  7  2  0
  6  5  1  0
  8  6  1  0
  9  8  1  0
 10 12  1  0
 10  9  1  1
 11 10  1  0
 12 14  1  0
 13 12  2  0
 14 15  1  0
 15 19  1  0
 15 16  1  6
 16 17  1  0
 17 18  2  0
 17 21  1  0
 19 20  2  0
 19 22  1  0
M  END
$$$$
