GQD.pdb
     RDKit          3D

 22 21  0  0  1  0  0  0  0  0999 V2000
   25.5080  -20.1025   -8.3717 N   0  0  0  0  0  0  0  0  0  0  0  0
   24.8224  -20.7132   -9.4649 C   0  0  0  0  0  0  0  0  0  0  0  0
   25.5905  -20.4835  -10.7119 C   0  0  0  0  0  0  0  0  0  0  0  0
   26.5907  -19.7141  -10.7243 O   0  0  0  0  0  0  0  0  0  0  0  0
   26.3691  -24.5635  -15.3171 N   0  0  0  0  0  0  0  0  0  0  0  0
   27.0909  -23.4311  -15.7560 C   0  0  0  0  0  0  0  0  0  0  0  0
   27.8050  -23.5763  -16.7756 O   0  0  0  0  0  0  0  0  0  0  0  0
   27.0306  -22.1184  -15.0683 C   0  0  0  0  0  0  0  0  0  0  0  0
   26.1165  -22.2300  -13.8957 C   0  0  0  0  0  0  0  0  0  0  0  0
   25.9750  -20.9535  -13.0974 C   0  0  2  0  0  0  0  0  0  0  0  0
   25.1885  -21.1419  -11.9040 N   0  0  0  0  0  0  0  0  0  0  0  0
   25.3593  -19.8682  -13.9323 C   0  0  0  0  0  0  0  0  0  0  0  0
   24.1079  -19.7320  -13.9829 O   0  0  0  0  0  0  0  0  0  0  0  0
   26.1430  -18.9693  -14.6833 N   0  0  0  0  0  0  0  0  0  0  0  0
   25.5522  -17.8556  -15.4659 C   0  0  1  0  0  0  0  0  0  0  0  0
   26.7117  -16.9533  -15.7921 C   0  0  0  0  0  0  0  0  0  0  0  0
   26.3833  -15.8144  -16.6355 C   0  0  0  0  0  0  0  0  0  0  0  0
   25.2407  -15.5182  -17.0313 O   0  0  0  0  0  0  0  0  0  0  0  0
   24.8739  -18.3987  -16.6491 C   0  0  0  0  0  0  0  0  0  0  0  0
   25.4476  -19.2838  -17.3411 O   0  0  0  0  0  0  0  0  0  0  0  0
   27.4057  -14.9503  -17.0637 O   0  0  0  0  0  0  0  0  0  0  0  0
   23.6300  -17.9941  -17.0532 O   0  0  0  0  0  0  0  0  0  0  0  0
  2  1  1  0
  2  3  1  0
  3 11  1  0
  4  3  2  0
  6  7  2  0
  6  5  1  0
  8  6  1  0
  9  8  1  0
 10 12  1  0
 10  9  1  6
 11 10  1  0
 12 14  1  0
 13 12  2  0
 14 15  1  0
 15 19  1  0
 15 16  1  6
 16 17  1  0
 17 18  2  0
 17 21  1  0
 19 20  2  0
 19 22  1  0
M  END
$$$$
