NML.pdb
     RDKit          3D

 25 24  0  0  1  0  0  0  0  0999 V2000
   28.0510  -19.8961  -19.0085 N   0  0  0  0  0  0  0  0  0  0  0  0
   28.0468  -19.6050  -17.6173 C   0  0  0  0  0  0  0  0  0  0  0  0
   28.9055  -18.7772  -17.2185 O   0  0  0  0  0  0  0  0  0  0  0  0
   27.1304  -20.1916  -16.6436 C   0  0  0  0  0  0  0  0  0  0  0  0
   27.7804  -20.8771  -15.4969 C   0  0  2  0  0  0  0  0  0  0  0  0
   28.4902  -22.0662  -15.7981 N   0  0  0  0  0  0  0  0  0  0  0  0
   26.7412  -21.1972  -14.4725 C   0  0  0  0  0  0  0  0  0  0  0  0
   25.7504  -21.8590  -14.8985 O   0  0  0  0  0  0  0  0  0  0  0  0
   27.3807  -20.0662   -8.0999 C   0  0  0  0  0  0  0  0  0  0  0  0
   25.5847  -20.3734   -8.1536 S   0  0  0  0  0  0  0  0  0  0  0  0
   25.1777  -21.0772   -9.7746 C   0  0  0  0  0  0  0  0  0  0  0  0
   26.2037  -20.5792  -10.7733 C   0  0  0  0  0  0  0  0  0  0  0  0
   25.8520  -21.0868  -12.1583 C   0  0  2  0  0  0  0  0  0  0  0  0
   26.8579  -20.7885  -13.1220 N   0  0  0  0  0  0  0  0  0  0  0  0
   24.5566  -20.4680  -12.5209 C   0  0  0  0  0  0  0  0  0  0  0  0
   24.5535  -19.2611  -12.8613 O   0  0  0  0  0  0  0  0  0  0  0  0
   21.9149  -20.6409  -16.9283 C   0  0  0  0  0  0  0  0  0  0  0  0
   21.9672  -20.0205  -15.5457 C   0  0  2  0  0  0  0  0  0  0  0  0
   22.8678  -18.8566  -15.5313 C   0  0  0  0  0  0  0  0  0  0  0  0
   22.0384  -21.0144  -14.4626 C   0  0  0  0  0  0  0  0  0  0  0  0
   22.0729  -20.5799  -13.0511 C   0  0  2  0  0  0  0  0  0  0  0  0
   23.3293  -21.1635  -12.5033 N   0  0  0  0  0  0  0  0  0  0  0  0
   20.9464  -21.1271  -12.2780 C   0  0  0  0  0  0  0  0  0  0  0  0
   19.8053  -20.6522  -12.3524 O   0  0  0  0  0  0  0  0  0  0  0  0
   21.1150  -22.2278  -11.4089 O   0  0  0  0  0  0  0  0  0  0  0  0
  1  2  1  0
  2  3  2  0
  4  2  1  0
  5  7  1  0
  5  4  1  0
  5  6  1  6
  7  8  2  0
  9 10  1  0
 10 11  1  0
 12 11  1  0
 13 12  1  1
 13 14  1  0
 14  7  1  0
 15 13  1  0
 16 15  2  0
 18 17  1  6
 18 20  1  0
 18 19  1  0
 21 20  1  6
 21 22  1  0
 21 23  1  0
 22 15  1  0
 23 25  1  0
 24 23  2  0
M  END
$$$$
