NML.pdb
     RDKit          3D

 25 24  0  0  1  0  0  0  0  0999 V2000
   29.1978  -19.8637  -17.4866 N   0  0  0  0  0  0  0  0  0  0  0  0
   29.2830  -21.1240  -16.8348 C   0  0  0  0  0  0  0  0  0  0  0  0
   30.1804  -21.9039  -17.2448 O   0  0  0  0  0  0  0  0  0  0  0  0
   28.4158  -21.5611  -15.7445 C   0  0  0  0  0  0  0  0  0  0  0  0
   27.4053  -20.5657  -15.3027 C   0  0  2  0  0  0  0  0  0  0  0  0
   27.9101  -19.3350  -14.8136 N   0  0  0  0  0  0  0  0  0  0  0  0
   26.5539  -21.1798  -14.2397 C   0  0  0  0  0  0  0  0  0  0  0  0
   25.8963  -22.1996  -14.5982 O   0  0  0  0  0  0  0  0  0  0  0  0
   26.7687  -19.7059   -8.0381 C   0  0  0  0  0  0  0  0  0  0  0  0
   25.3814  -20.8828   -7.9232 S   0  0  0  0  0  0  0  0  0  0  0  0
   24.8638  -21.3158   -9.6064 C   0  0  0  0  0  0  0  0  0  0  0  0
   25.7998  -20.6240  -10.5777 C   0  0  0  0  0  0  0  0  0  0  0  0
   25.5150  -21.1052  -11.9872 C   0  0  2  0  0  0  0  0  0  0  0  0
   26.4887  -20.6569  -12.9256 N   0  0  0  0  0  0  0  0  0  0  0  0
   24.1622  -20.6156  -12.3377 C   0  0  0  0  0  0  0  0  0  0  0  0
   23.9952  -19.3788  -12.4601 O   0  0  0  0  0  0  0  0  0  0  0  0
   21.9281  -19.9820  -15.8701 C   0  0  0  0  0  0  0  0  0  0  0  0
   22.0482  -21.4266  -15.4253 C   0  0  2  0  0  0  0  0  0  0  0  0
   21.8726  -22.3389  -16.5667 C   0  0  0  0  0  0  0  0  0  0  0  0
   21.3612  -21.7045  -14.1538 C   0  0  0  0  0  0  0  0  0  0  0  0
   21.7136  -20.9498  -12.9337 C   0  0  2  0  0  0  0  0  0  0  0  0
   23.0546  -21.4657  -12.5405 N   0  0  0  0  0  0  0  0  0  0  0  0
   20.7823  -21.2238  -11.8274 C   0  0  0  0  0  0  0  0  0  0  0  0
   19.6837  -20.6600  -11.7377 O   0  0  0  0  0  0  0  0  0  0  0  0
   21.1003  -22.1496  -10.8090 O   0  0  0  0  0  0  0  0  0  0  0  0
  1  2  1  0
  2  3  2  0
  4  2  1  0
  5  7  1  0
  5  4  1  0
  5  6  1  1
  7  8  2  0
  9 10  1  0
 10 11  1  0
 12 11  1  0
 13 12  1  1
 13 14  1  0
 14  7  1  0
 15 13  1  0
 16 15  2  0
 18 17  1  6
 18 20  1  0
 18 19  1  0
 21 20  1  6
 21 22  1  0
 21 23  1  0
 22 15  1  0
 23 25  1  0
 24 23  2  0
M  END
$$$$
