NML.pdb
     RDKit          3D

 25 24  0  0  1  0  0  0  0  0999 V2000
   19.9419  -15.3390  -18.4183 N   0  0  0  0  0  0  0  0  0  0  0  0
   19.7876  -14.9590  -17.0573 C   0  0  0  0  0  0  0  0  0  0  0  0
   19.1397  -15.7521  -16.3273 O   0  0  0  0  0  0  0  0  0  0  0  0
   20.3210  -13.7353  -16.4659 C   0  0  0  0  0  0  0  0  0  0  0  0
   21.0367  -12.8374  -17.4087 C   0  0  2  0  0  0  0  0  0  0  0  0
   22.1200  -13.4110  -18.1201 N   0  0  0  0  0  0  0  0  0  0  0  0
   21.5448  -11.6514  -16.6557 C   0  0  0  0  0  0  0  0  0  0  0  0
   20.7057  -11.1036  -15.8832 O   0  0  0  0  0  0  0  0  0  0  0  0
   28.0679  -12.4228  -14.7264 C   0  0  0  0  0  0  0  0  0  0  0  0
   27.3014  -11.0097  -15.5858 S   0  0  0  0  0  0  0  0  0  0  0  0
   25.5002  -11.1819  -15.4660 C   0  0  0  0  0  0  0  0  0  0  0  0
   24.8689   -9.9529  -16.0898 C   0  0  0  0  0  0  0  0  0  0  0  0
   23.3583  -10.0750  -16.0354 C   0  0  2  0  0  0  0  0  0  0  0  0
   22.8707  -11.1755  -16.7975 N   0  0  0  0  0  0  0  0  0  0  0  0
   22.8106   -8.7913  -16.5300 C   0  0  0  0  0  0  0  0  0  0  0  0
   22.8895   -8.5496  -17.7579 O   0  0  0  0  0  0  0  0  0  0  0  0
   18.2490   -6.7770  -18.2048 C   0  0  0  0  0  0  0  0  0  0  0  0
   19.5422   -6.1402  -17.7342 C   0  0  2  0  0  0  0  0  0  0  0  0
   20.0625   -5.2085  -18.7478 C   0  0  0  0  0  0  0  0  0  0  0  0
   20.4542   -7.0895  -17.0761 C   0  0  0  0  0  0  0  0  0  0  0  0
   21.5610   -6.5979  -16.2301 C   0  0  2  0  0  0  0  0  0  0  0  0
   22.2065   -7.8287  -15.6939 N   0  0  0  0  0  0  0  0  0  0  0  0
   21.0732   -5.8094  -15.0870 C   0  0  0  0  0  0  0  0  0  0  0  0
   20.8230   -6.3266  -13.9902 O   0  0  0  0  0  0  0  0  0  0  0  0
   20.8662   -4.4158  -15.1881 O   0  0  0  0  0  0  0  0  0  0  0  0
  1  2  1  0
  2  3  2  0
  4  2  1  0
  5  7  1  0
  5  4  1  0
  5  6  1  1
  7  8  2  0
  9 10  1  0
 10 11  1  0
 12 11  1  0
 13 12  1  6
 13 14  1  0
 14  7  1  0
 15 13  1  0
 16 15  2  0
 18 17  1  6
 18 20  1  0
 18 19  1  0
 21 20  1  6
 21 22  1  0
 21 23  1  0
 22 15  1  0
 23 25  1  0
 24 23  2  0
M  END
$$$$
