NML.pdb
     RDKit          3D

 25 24  0  0  1  0  0  0  0  0999 V2000
   24.1009  -16.8178  -17.4775 N   0  0  0  0  0  0  0  0  0  0  0  0
   24.8366  -17.0305  -16.2800 C   0  0  0  0  0  0  0  0  0  0  0  0
   25.1018  -16.0066  -15.5995 O   0  0  0  0  0  0  0  0  0  0  0  0
   25.2935  -18.3316  -15.8000 C   0  0  0  0  0  0  0  0  0  0  0  0
   26.6876  -18.6878  -16.1698 C   0  0  2  0  0  0  0  0  0  0  0  0
   26.9177  -18.9819  -17.5369 N   0  0  0  0  0  0  0  0  0  0  0  0
   27.1178  -19.8653  -15.3573 C   0  0  0  0  0  0  0  0  0  0  0  0
   26.8647  -20.9945  -15.8690 O   0  0  0  0  0  0  0  0  0  0  0  0
   29.6169  -20.7416   -8.6236 C   0  0  0  0  0  0  0  0  0  0  0  0
   30.5701  -21.2755  -10.0828 S   0  0  0  0  0  0  0  0  0  0  0  0
   29.3988  -21.7418  -11.3862 C   0  0  0  0  0  0  0  0  0  0  0  0
   29.1409  -20.5192  -12.2446 C   0  0  0  0  0  0  0  0  0  0  0  0
   28.1227  -20.8570  -13.3164 C   0  0  2  0  0  0  0  0  0  0  0  0
   27.7623  -19.7262  -14.1044 N   0  0  0  0  0  0  0  0  0  0  0  0
   26.9465  -21.4264  -12.6200 C   0  0  0  0  0  0  0  0  0  0  0  0
   27.0238  -22.6045  -12.1972 O   0  0  0  0  0  0  0  0  0  0  0  0
   25.8264  -22.4174   -9.2386 C   0  0  0  0  0  0  0  0  0  0  0  0
   25.4971  -20.9528   -9.4529 C   0  0  2  0  0  0  0  0  0  0  0  0
   25.4488  -20.2368   -8.1680 C   0  0  0  0  0  0  0  0  0  0  0  0
   24.4405  -20.7329  -10.4535 C   0  0  0  0  0  0  0  0  0  0  0  0
   24.5434  -21.3429  -11.7950 C   0  0  2  0  0  0  0  0  0  0  0  0
   25.7469  -20.7147  -12.4082 N   0  0  0  0  0  0  0  0  0  0  0  0
   23.3835  -21.0160  -12.6400 C   0  0  0  0  0  0  0  0  0  0  0  0
   22.2480  -21.4428  -12.3920 O   0  0  0  0  0  0  0  0  0  0  0  0
   23.5120  -20.1939  -13.7814 O   0  0  0  0  0  0  0  0  0  0  0  0
  1  2  1  0
  2  3  2  0
  4  2  1  0
  5  7  1  0
  5  4  1  0
  5  6  1  6
  7  8  2  0
  9 10  1  0
 10 11  1  0
 12 11  1  0
 13 12  1  1
 13 14  1  0
 14  7  1  0
 15 13  1  0
 16 15  2  0
 18 17  1  1
 18 20  1  0
 18 19  1  0
 21 20  1  1
 21 22  1  0
 21 23  1  0
 22 15  1  0
 23 25  1  0
 24 23  2  0
M  END
$$$$
