NML.pdb
     RDKit          3D

 25 24  0  0  1  0  0  0  0  0999 V2000
   28.8747  -17.6462  -17.7536 N   0  0  0  0  0  0  0  0  0  0  0  0
   28.9415  -19.0579  -17.6023 C   0  0  0  0  0  0  0  0  0  0  0  0
   29.7157  -19.6663  -18.3847 O   0  0  0  0  0  0  0  0  0  0  0  0
   28.1867  -19.8295  -16.6190 C   0  0  0  0  0  0  0  0  0  0  0  0
   27.3030  -19.0303  -15.7316 C   0  0  2  0  0  0  0  0  0  0  0  0
   27.9364  -18.0301  -14.9525 N   0  0  0  0  0  0  0  0  0  0  0  0
   26.5791  -19.9559  -14.8090 C   0  0  0  0  0  0  0  0  0  0  0  0
   26.0950  -20.9902  -15.3540 O   0  0  0  0  0  0  0  0  0  0  0  0
   26.4608  -19.4755   -8.3636 C   0  0  0  0  0  0  0  0  0  0  0  0
   25.6435  -21.0950   -8.5432 S   0  0  0  0  0  0  0  0  0  0  0  0
   25.1552  -21.2948  -10.2782 C   0  0  0  0  0  0  0  0  0  0  0  0
   25.9564  -20.3107  -11.1074 C   0  0  0  0  0  0  0  0  0  0  0  0
   25.6492  -20.5176  -12.5779 C   0  0  2  0  0  0  0  0  0  0  0  0
   26.4450  -19.6931  -13.4244 N   0  0  0  0  0  0  0  0  0  0  0  0
   24.2058  -20.2372  -12.7535 C   0  0  0  0  0  0  0  0  0  0  0  0
   23.8205  -19.0472  -12.6654 O   0  0  0  0  0  0  0  0  0  0  0  0
   21.4916  -18.9403  -15.5669 C   0  0  0  0  0  0  0  0  0  0  0  0
   21.9996  -20.3666  -15.6500 C   0  0  2  0  0  0  0  0  0  0  0  0
   21.9870  -20.8433  -17.0423 C   0  0  0  0  0  0  0  0  0  0  0  0
   21.4870  -21.2319  -14.5755 C   0  0  0  0  0  0  0  0  0  0  0  0
   21.7943  -20.9299  -13.1625 C   0  0  2  0  0  0  0  0  0  0  0  0
   23.2445  -21.2365  -13.0139 N   0  0  0  0  0  0  0  0  0  0  0  0
   21.0516  -21.8016  -12.2380 C   0  0  0  0  0  0  0  0  0  0  0  0
   21.4759  -22.9143  -11.8993 O   0  0  0  0  0  0  0  0  0  0  0  0
   19.8111  -21.4069  -11.6897 O   0  0  0  0  0  0  0  0  0  0  0  0
  1  2  1  0
  2  3  2  0
  4  2  1  0
  5  7  1  0
  5  4  1  0
  5  6  1  1
  7  8  2  0
  9 10  1  0
 10 11  1  0
 12 11  1  0
 13 12  1  1
 13 14  1  0
 14  7  1  0
 15 13  1  0
 16 15  2  0
 18 17  1  6
 18 20  1  0
 18 19  1  0
 21 20  1  6
 21 22  1  0
 21 23  1  0
 22 15  1  0
 23 25  1  0
 24 23  2  0
M  END
$$$$
