NML.pdb
     RDKit          3D

 25 24  0  0  1  0  0  0  0  0999 V2000
   26.9019  -19.2321  -18.1382 N   0  0  0  0  0  0  0  0  0  0  0  0
   26.0201  -18.2527  -17.6057 C   0  0  0  0  0  0  0  0  0  0  0  0
   25.7001  -17.3124  -18.3771 O   0  0  0  0  0  0  0  0  0  0  0  0
   25.4739  -18.2680  -16.2516 C   0  0  0  0  0  0  0  0  0  0  0  0
   25.9298  -19.3961  -15.3990 C   0  0  2  0  0  0  0  0  0  0  0  0
   25.5267  -20.6923  -15.8063 N   0  0  0  0  0  0  0  0  0  0  0  0
   25.4488  -19.1719  -14.0024 C   0  0  0  0  0  0  0  0  0  0  0  0
   25.2446  -17.9628  -13.6904 O   0  0  0  0  0  0  0  0  0  0  0  0
   20.5517  -21.9031  -11.8221 C   0  0  0  0  0  0  0  0  0  0  0  0
   20.6358  -20.5338  -13.0225 S   0  0  0  0  0  0  0  0  0  0  0  0
   22.2917  -19.8002  -12.9313 C   0  0  0  0  0  0  0  0  0  0  0  0
   23.1095  -20.6092  -11.9440 C   0  0  0  0  0  0  0  0  0  0  0  0
   24.5192  -20.0543  -11.8775 C   0  0  2  0  0  0  0  0  0  0  0  0
   25.2371  -20.2372  -13.0943 N   0  0  0  0  0  0  0  0  0  0  0  0
   25.1906  -20.7355  -10.7471 C   0  0  0  0  0  0  0  0  0  0  0  0
   25.6251  -21.8972  -10.9317 O   0  0  0  0  0  0  0  0  0  0  0  0
   28.7253  -20.5802   -7.6605 C   0  0  0  0  0  0  0  0  0  0  0  0
   27.7013  -19.4683   -7.5405 C   0  0  2  0  0  0  0  0  0  0  0  0
   28.2172  -18.3739   -6.7025 C   0  0  0  0  0  0  0  0  0  0  0  0
   26.3283  -19.9589   -7.3399 C   0  0  0  0  0  0  0  0  0  0  0  0
   25.7423  -20.9418   -8.2741 C   0  0  2  0  0  0  0  0  0  0  0  0
   25.3661  -20.1473   -9.4768 N   0  0  0  0  0  0  0  0  0  0  0  0
   24.5164  -21.5523   -7.7349 C   0  0  0  0  0  0  0  0  0  0  0  0
   23.3881  -21.1630   -8.0641 O   0  0  0  0  0  0  0  0  0  0  0  0
   24.5698  -22.6187   -6.8101 O   0  0  0  0  0  0  0  0  0  0  0  0
  1  2  1  0
  2  3  2  0
  4  2  1  0
  5  7  1  0
  5  4  1  0
  5  6  1  6
  7  8  2  0
  9 10  1  0
 10 11  1  0
 12 11  1  0
 13 12  1  6
 13 14  1  0
 14  7  1  0
 15 13  1  0
 16 15  2  0
 18 17  1  1
 18 20  1  0
 18 19  1  0
 21 20  1  1
 21 22  1  0
 21 23  1  0
 22 15  1  0
 23 25  1  0
 24 23  2  0
M  END
$$$$
