NML.pdb
     RDKit          3D

 25 24  0  0  1  0  0  0  0  0999 V2000
   19.3041  -21.4927  -13.7129 N   0  0  0  0  0  0  0  0  0  0  0  0
   20.0609  -20.8449  -14.7267 C   0  0  0  0  0  0  0  0  0  0  0  0
   20.2041  -21.4765  -15.8048 O   0  0  0  0  0  0  0  0  0  0  0  0
   20.6685  -19.5233  -14.6001 C   0  0  0  0  0  0  0  0  0  0  0  0
   22.0418  -19.4033  -15.1543 C   0  0  2  0  0  0  0  0  0  0  0  0
   23.0262  -20.2435  -14.5770 N   0  0  0  0  0  0  0  0  0  0  0  0
   22.4958  -17.9864  -15.0191 C   0  0  0  0  0  0  0  0  0  0  0  0
   22.2002  -17.4281  -13.9228 O   0  0  0  0  0  0  0  0  0  0  0  0
   28.1860  -14.9984  -16.9699 C   0  0  0  0  0  0  0  0  0  0  0  0
   27.5268  -14.6201  -15.3129 S   0  0  0  0  0  0  0  0  0  0  0  0
   25.7165  -14.5909  -15.4156 C   0  0  0  0  0  0  0  0  0  0  0  0
   25.2386  -16.0055  -15.6778 C   0  0  0  0  0  0  0  0  0  0  0  0
   23.7333  -16.0070  -15.8612 C   0  0  2  0  0  0  0  0  0  0  0  0
   23.2059  -17.3175  -16.0452 N   0  0  0  0  0  0  0  0  0  0  0  0
   23.4470  -15.1413  -17.0279 C   0  0  0  0  0  0  0  0  0  0  0  0
   23.5765  -15.6331  -18.1741 O   0  0  0  0  0  0  0  0  0  0  0  0
   19.9375  -12.6663  -18.8338 C   0  0  0  0  0  0  0  0  0  0  0  0
   20.5151  -12.0493  -17.5748 C   0  0  2  0  0  0  0  0  0  0  0  0
   19.6391  -10.9798  -17.0703 C   0  0  0  0  0  0  0  0  0  0  0  0
   21.9690  -11.8322  -17.6457 C   0  0  0  0  0  0  0  0  0  0  0  0
   22.8643  -12.9137  -18.1052 C   0  0  2  0  0  0  0  0  0  0  0  0
   23.0373  -13.7958  -16.9173 N   0  0  0  0  0  0  0  0  0  0  0  0
   24.1917  -12.4057  -18.4874 C   0  0  0  0  0  0  0  0  0  0  0  0
   25.0791  -12.1899  -17.6514 O   0  0  0  0  0  0  0  0  0  0  0  0
   24.5181  -12.1388  -19.8356 O   0  0  0  0  0  0  0  0  0  0  0  0
  1  2  1  0
  2  3  2  0
  4  2  1  0
  5  7  1  0
  5  4  1  0
  5  6  1  1
  7  8  2  0
  9 10  1  0
 10 11  1  0
 12 11  1  0
 13 12  1  6
 13 14  1  0
 14  7  1  0
 15 13  1  0
 16 15  2  0
 18 17  1  6
 18 20  1  0
 18 19  1  0
 21 20  1  1
 21 22  1  0
 21 23  1  0
 22 15  1  0
 23 25  1  0
 24 23  2  0
M  END
$$$$
