NML.pdb
     RDKit          3D

 25 24  0  0  1  0  0  0  0  0999 V2000
   21.3280  -20.8732  -15.2846 N   0  0  0  0  0  0  0  0  0  0  0  0
   21.2986  -21.0961  -13.8811 C   0  0  0  0  0  0  0  0  0  0  0  0
   20.2171  -20.8299  -13.2970 O   0  0  0  0  0  0  0  0  0  0  0  0
   22.4176  -21.6030  -13.0920 C   0  0  0  0  0  0  0  0  0  0  0  0
   22.6181  -20.9371  -11.7791 C   0  0  2  0  0  0  0  0  0  0  0  0
   22.4730  -19.5274  -11.7627 N   0  0  0  0  0  0  0  0  0  0  0  0
   23.9809  -21.2748  -11.2685 C   0  0  0  0  0  0  0  0  0  0  0  0
   24.2910  -22.5000  -11.3297 O   0  0  0  0  0  0  0  0  0  0  0  0
   29.1517  -21.1881  -14.7268 C   0  0  0  0  0  0  0  0  0  0  0  0
   28.7943  -20.1079  -13.3026 S   0  0  0  0  0  0  0  0  0  0  0  0
   27.4933  -20.8894  -12.3101 C   0  0  0  0  0  0  0  0  0  0  0  0
   27.2745  -20.0419  -11.0723 C   0  0  0  0  0  0  0  0  0  0  0  0
   26.1486  -20.6320  -10.2456 C   0  0  2  0  0  0  0  0  0  0  0  0
   24.8614  -20.2931  -10.7532 N   0  0  0  0  0  0  0  0  0  0  0  0
   26.3315  -20.1346   -8.8629 C   0  0  0  0  0  0  0  0  0  0  0  0
   25.7200  -19.0935   -8.5242 O   0  0  0  0  0  0  0  0  0  0  0  0
   30.5552  -21.1880   -4.5444 C   0  0  0  0  0  0  0  0  0  0  0  0
   29.1914  -20.5615   -4.7610 C   0  0  2  0  0  0  0  0  0  0  0  0
   28.3973  -20.6025   -3.5226 C   0  0  0  0  0  0  0  0  0  0  0  0
   28.5716  -20.9412   -6.0407 C   0  0  0  0  0  0  0  0  0  0  0  0
   27.4149  -20.1857   -6.5638 C   0  0  2  0  0  0  0  0  0  0  0  0
   27.1557  -20.7691   -7.9097 N   0  0  0  0  0  0  0  0  0  0  0  0
   27.7241  -18.7578   -6.7427 C   0  0  0  0  0  0  0  0  0  0  0  0
   28.3259  -18.3350   -7.7387 O   0  0  0  0  0  0  0  0  0  0  0  0
   27.3458  -17.7959   -5.7798 O   0  0  0  0  0  0  0  0  0  0  0  0
  1  2  1  0
  2  3  2  0
  4  2  1  0
  5  7  1  0
  5  4  1  0
  5  6  1  6
  7  8  2  0
  9 10  1  0
 10 11  1  0
 12 11  1  0
 13 12  1  6
 13 14  1  0
 14  7  1  0
 15 13  1  0
 16 15  2  0
 18 17  1  1
 18 20  1  0
 18 19  1  0
 21 20  1  6
 21 22  1  0
 21 23  1  0
 22 15  1  0
 23 25  1  0
 24 23  2  0
M  END
$$$$
