NML.pdb
     RDKit          3D

 25 24  0  0  1  0  0  0  0  0999 V2000
   27.3288  -33.3419   -2.1602 N   0  0  0  0  0  0  0  0  0  0  0  0
   26.4186  -33.9333   -1.2426 C   0  0  0  0  0  0  0  0  0  0  0  0
   25.3732  -34.4290   -1.7357 O   0  0  0  0  0  0  0  0  0  0  0  0
   26.6148  -34.0010    0.2027 C   0  0  0  0  0  0  0  0  0  0  0  0
   27.8292  -33.3106    0.7087 C   0  0  2  0  0  0  0  0  0  0  0  0
   29.0707  -33.9228    0.4048 N   0  0  0  0  0  0  0  0  0  0  0  0
   27.7243  -33.1728    2.1926 C   0  0  0  0  0  0  0  0  0  0  0  0
   28.1336  -34.1690    2.8566 O   0  0  0  0  0  0  0  0  0  0  0  0
   27.1134  -27.6324    5.2440 C   0  0  0  0  0  0  0  0  0  0  0  0
   26.8583  -28.6788    6.7148 S   0  0  0  0  0  0  0  0  0  0  0  0
   26.9881  -30.4144    6.2056 C   0  0  0  0  0  0  0  0  0  0  0  0
   26.9690  -30.4616    4.6905 C   0  0  0  0  0  0  0  0  0  0  0  0
   27.0883  -31.9002    4.2259 C   0  0  2  0  0  0  0  0  0  0  0  0
   27.2037  -32.0100    2.8102 N   0  0  0  0  0  0  0  0  0  0  0  0
   25.8881  -32.6087    4.7261 C   0  0  0  0  0  0  0  0  0  0  0  0
   24.8341  -32.5339    4.0510 O   0  0  0  0  0  0  0  0  0  0  0  0
   24.9636  -37.3508    8.4751 C   0  0  0  0  0  0  0  0  0  0  0  0
   24.3050  -36.3752    7.5192 C   0  0  2  0  0  0  0  0  0  0  0  0
   23.4688  -37.0891    6.5410 C   0  0  0  0  0  0  0  0  0  0  0  0
   25.2063  -35.3030    7.0673 C   0  0  0  0  0  0  0  0  0  0  0  0
   24.6672  -34.1203    6.3652 C   0  0  2  0  0  0  0  0  0  0  0  0
   25.8689  -33.3612    5.9193 N   0  0  0  0  0  0  0  0  0  0  0  0
   23.8921  -33.2508    7.2648 C   0  0  0  0  0  0  0  0  0  0  0  0
   24.4375  -32.4671    8.0532 O   0  0  0  0  0  0  0  0  0  0  0  0
   22.4797  -33.2693    7.2710 O   0  0  0  0  0  0  0  0  0  0  0  0
  1  2  1  0
  2  3  2  0
  4  2  1  0
  5  7  1  0
  5  4  1  0
  5  6  1  1
  7  8  2  0
  9 10  1  0
 10 11  1  0
 12 11  1  0
 13 12  1  6
 13 14  1  0
 14  7  1  0
 15 13  1  0
 16 15  2  0
 18 17  1  6
 18 20  1  0
 18 19  1  0
 21 20  1  1
 21 22  1  0
 21 23  1  0
 22 15  1  0
 23 25  1  0
 24 23  2  0
M  END
$$$$
