NML.pdb
     RDKit          3D

 25 24  0  0  1  0  0  0  0  0999 V2000
   29.9372  -20.4917  -18.1738 N   0  0  0  0  0  0  0  0  0  0  0  0
   29.0911  -19.3726  -17.9455 C   0  0  0  0  0  0  0  0  0  0  0  0
   29.0664  -18.4989  -18.8498 O   0  0  0  0  0  0  0  0  0  0  0  0
   28.2674  -19.1769  -16.7559 C   0  0  0  0  0  0  0  0  0  0  0  0
   28.4511  -20.1912  -15.6860 C   0  0  2  0  0  0  0  0  0  0  0  0
   28.1279  -21.5281  -16.0277 N   0  0  0  0  0  0  0  0  0  0  0  0
   27.6310  -19.7980  -14.5008 C   0  0  0  0  0  0  0  0  0  0  0  0
   27.8321  -18.6249  -14.0715 O   0  0  0  0  0  0  0  0  0  0  0  0
   21.6745  -20.5421  -14.6536 C   0  0  0  0  0  0  0  0  0  0  0  0
   21.6750  -20.2699  -12.8512 S   0  0  0  0  0  0  0  0  0  0  0  0
   23.3712  -19.8886  -12.3354 C   0  0  0  0  0  0  0  0  0  0  0  0
   24.3180  -20.4893  -13.3556 C   0  0  0  0  0  0  0  0  0  0  0  0
   25.7509  -20.2221  -12.9374 C   0  0  2  0  0  0  0  0  0  0  0  0
   26.6960  -20.6764  -13.9018 N   0  0  0  0  0  0  0  0  0  0  0  0
   25.9450  -20.8952  -11.6329 C   0  0  0  0  0  0  0  0  0  0  0  0
   26.0770  -22.1422  -11.6257 O   0  0  0  0  0  0  0  0  0  0  0  0
   28.8642  -20.9050   -8.1231 C   0  0  0  0  0  0  0  0  0  0  0  0
   27.9973  -19.6613   -8.1568 C   0  0  2  0  0  0  0  0  0  0  0  0
   28.5467  -18.6199   -7.2739 C   0  0  0  0  0  0  0  0  0  0  0  0
   26.5553  -19.9546   -8.1336 C   0  0  0  0  0  0  0  0  0  0  0  0
   25.9732  -20.9173   -9.0910 C   0  0  2  0  0  0  0  0  0  0  0  0
   25.9889  -20.2086  -10.4012 N   0  0  0  0  0  0  0  0  0  0  0  0
   24.5736  -21.2384   -8.7682 C   0  0  0  0  0  0  0  0  0  0  0  0
   23.6238  -20.6597   -9.3121 O   0  0  0  0  0  0  0  0  0  0  0  0
   24.2459  -22.2291   -7.8161 O   0  0  0  0  0  0  0  0  0  0  0  0
  1  2  1  0
  2  3  2  0
  4  2  1  0
  5  7  1  0
  5  4  1  0
  5  6  1  6
  7  8  2  0
  9 10  1  0
 10 11  1  0
 12 11  1  0
 13 12  1  6
 13 14  1  0
 14  7  1  0
 15 13  1  0
 16 15  2  0
 18 17  1  1
 18 20  1  0
 18 19  1  0
 21 20  1  1
 21 22  1  0
 21 23  1  0
 22 15  1  0
 23 25  1  0
 24 23  2  0
M  END
$$$$
