NML.pdb
     RDKit          3D

 25 24  0  0  1  0  0  0  0  0999 V2000
   16.2795  -23.8027   -6.2196 N   0  0  0  0  0  0  0  0  0  0  0  0
   15.7360  -24.1513   -4.9533 C   0  0  0  0  0  0  0  0  0  0  0  0
   14.8062  -23.4203   -4.5256 O   0  0  0  0  0  0  0  0  0  0  0  0
   16.1773  -25.2779   -4.1361 C   0  0  0  0  0  0  0  0  0  0  0  0
   17.2188  -26.1379   -4.7549 C   0  0  2  0  0  0  0  0  0  0  0  0
   16.8214  -26.8826   -5.8933 N   0  0  0  0  0  0  0  0  0  0  0  0
   17.7327  -27.0914   -3.7260 C   0  0  0  0  0  0  0  0  0  0  0  0
   16.8837  -27.9213   -3.2885 O   0  0  0  0  0  0  0  0  0  0  0  0
   23.6108  -30.1626   -3.1468 C   0  0  0  0  0  0  0  0  0  0  0  0
   23.2794  -29.4262   -1.5125 S   0  0  0  0  0  0  0  0  0  0  0  0
   21.4878  -29.2020   -1.3439 C   0  0  0  0  0  0  0  0  0  0  0  0
   21.0640  -28.0888   -2.2815 C   0  0  0  0  0  0  0  0  0  0  0  0
   19.5514  -27.9814   -2.2911 C   0  0  2  0  0  0  0  0  0  0  0  0
   19.0741  -27.0669   -3.2736 N   0  0  0  0  0  0  0  0  0  0  0  0
   19.1465  -27.5689   -0.9279 C   0  0  0  0  0  0  0  0  0  0  0  0
   18.6322  -26.4345   -0.7825 O   0  0  0  0  0  0  0  0  0  0  0  0
   16.4935  -26.3463    2.6338 C   0  0  0  0  0  0  0  0  0  0  0  0
   16.2429  -27.1530    1.3744 C   0  0  2  0  0  0  0  0  0  0  0  0
   14.8010  -27.3663    1.1714 C   0  0  0  0  0  0  0  0  0  0  0  0
   17.1799  -28.2751    1.2044 C   0  0  0  0  0  0  0  0  0  0  0  0
   18.6165  -28.1003    1.5009 C   0  0  2  0  0  0  0  0  0  0  0  0
   19.3088  -28.3834    0.2126 N   0  0  0  0  0  0  0  0  0  0  0  0
   19.0969  -29.0736    2.4949 C   0  0  0  0  0  0  0  0  0  0  0  0
   19.3852  -30.2382    2.1890 O   0  0  0  0  0  0  0  0  0  0  0  0
   19.2529  -28.7224    3.8542 O   0  0  0  0  0  0  0  0  0  0  0  0
  1  2  1  0
  2  3  2  0
  4  2  1  0
  5  7  1  0
  5  4  1  0
  5  6  1  6
  7  8  2  0
  9 10  1  0
 10 11  1  0
 12 11  1  0
 13 12  1  1
 13 14  1  0
 14  7  1  0
 15 13  1  0
 16 15  2  0
 18 17  1  1
 18 20  1  0
 18 19  1  0
 21 20  1  6
 21 22  1  0
 21 23  1  0
 22 15  1  0
 23 25  1  0
 24 23  2  0
M  END
$$$$
