NML.pdb
     RDKit          3D

 25 24  0  0  1  0  0  0  0  0999 V2000
   29.4149  -23.2722  -17.4821 N   0  0  0  0  0  0  0  0  0  0  0  0
   28.7000  -22.1961  -16.8892 C   0  0  0  0  0  0  0  0  0  0  0  0
   28.7818  -21.0846  -17.4718 O   0  0  0  0  0  0  0  0  0  0  0  0
   27.8949  -22.2962  -15.6753 C   0  0  0  0  0  0  0  0  0  0  0  0
   27.1793  -21.0533  -15.2872 C   0  0  2  0  0  0  0  0  0  0  0  0
   27.9886  -19.9190  -15.0285 N   0  0  0  0  0  0  0  0  0  0  0  0
   26.3551  -21.3291  -14.0720 C   0  0  0  0  0  0  0  0  0  0  0  0
   25.4861  -22.2391  -14.2054 O   0  0  0  0  0  0  0  0  0  0  0  0
   25.4188  -20.8102   -6.3112 C   0  0  0  0  0  0  0  0  0  0  0  0
   26.2866  -20.1134   -7.7549 S   0  0  0  0  0  0  0  0  0  0  0  0
   25.4845  -20.7398   -9.2558 C   0  0  0  0  0  0  0  0  0  0  0  0
   26.2883  -20.2653  -10.4503 C   0  0  0  0  0  0  0  0  0  0  0  0
   25.7161  -20.8677  -11.7189 C   0  0  2  0  0  0  0  0  0  0  0  0
   26.5346  -20.6219  -12.8587 N   0  0  0  0  0  0  0  0  0  0  0  0
   24.3638  -20.2896  -11.8908 C   0  0  0  0  0  0  0  0  0  0  0  0
   24.2610  -19.0427  -11.9749 O   0  0  0  0  0  0  0  0  0  0  0  0
   21.7666  -19.0253  -14.9887 C   0  0  0  0  0  0  0  0  0  0  0  0
   22.0144  -20.5089  -14.7962 C   0  0  2  0  0  0  0  0  0  0  0  0
   21.8100  -21.2386  -16.0578 C   0  0  0  0  0  0  0  0  0  0  0  0
   21.4478  -21.0373  -13.5449 C   0  0  0  0  0  0  0  0  0  0  0  0
   21.8525  -20.4688  -12.2429 C   0  0  2  0  0  0  0  0  0  0  0  0
   23.1884  -21.0664  -11.9646 N   0  0  0  0  0  0  0  0  0  0  0  0
   20.9429  -20.8720  -11.1584 C   0  0  0  0  0  0  0  0  0  0  0  0
   21.0663  -21.9508  -10.5634 O   0  0  0  0  0  0  0  0  0  0  0  0
   19.8790  -20.0412  -10.7421 O   0  0  0  0  0  0  0  0  0  0  0  0
  1  2  1  0
  2  3  2  0
  4  2  1  0
  5  7  1  0
  5  4  1  0
  5  6  1  1
  7  8  2  0
  9 10  1  0
 10 11  1  0
 12 11  1  0
 13 12  1  1
 13 14  1  0
 14  7  1  0
 15 13  1  0
 16 15  2  0
 18 17  1  6
 18 20  1  0
 18 19  1  0
 21 20  1  6
 21 22  1  0
 21 23  1  0
 22 15  1  0
 23 25  1  0
 24 23  2  0
M  END
$$$$
