NML.pdb
     RDKit          3D

 25 24  0  0  1  0  0  0  0  0999 V2000
   26.0073  -20.0644  -17.3214 N   0  0  0  0  0  0  0  0  0  0  0  0
   24.8433  -19.4823  -16.7498 C   0  0  0  0  0  0  0  0  0  0  0  0
   24.0751  -18.8794  -17.5423 O   0  0  0  0  0  0  0  0  0  0  0  0
   24.4902  -19.5383  -15.3342 C   0  0  0  0  0  0  0  0  0  0  0  0
   25.4768  -20.2280  -14.4634 C   0  0  2  0  0  0  0  0  0  0  0  0
   25.4277  -21.6444  -14.4604 N   0  0  0  0  0  0  0  0  0  0  0  0
   25.3009  -19.7490  -13.0593 C   0  0  0  0  0  0  0  0  0  0  0  0
   25.3768  -18.4955  -12.9041 O   0  0  0  0  0  0  0  0  0  0  0  0
   20.7544  -21.2984   -9.0670 C   0  0  0  0  0  0  0  0  0  0  0  0
   20.5986  -20.2844  -10.5738 S   0  0  0  0  0  0  0  0  0  0  0  0
   22.2589  -19.7559  -11.0763 C   0  0  0  0  0  0  0  0  0  0  0  0
   23.2680  -20.5984  -10.3213 C   0  0  0  0  0  0  0  0  0  0  0  0
   24.6722  -20.1647  -10.6950 C   0  0  2  0  0  0  0  0  0  0  0  0
   25.0663  -20.6353  -11.9806 N   0  0  0  0  0  0  0  0  0  0  0  0
   25.5706  -20.6758   -9.6346 C   0  0  0  0  0  0  0  0  0  0  0  0
   25.8487  -21.8985   -9.6349 O   0  0  0  0  0  0  0  0  0  0  0  0
   28.7536  -18.0580   -5.0403 C   0  0  0  0  0  0  0  0  0  0  0  0
   28.3720  -19.3897   -5.6569 C   0  0  2  0  0  0  0  0  0  0  0  0
   29.4879  -20.3448   -5.5643 C   0  0  0  0  0  0  0  0  0  0  0  0
   27.6257  -19.2561   -6.9183 C   0  0  0  0  0  0  0  0  0  0  0  0
   26.9227  -20.4192   -7.4972 C   0  0  2  0  0  0  0  0  0  0  0  0
   26.1281  -19.8609   -8.6268 N   0  0  0  0  0  0  0  0  0  0  0  0
   25.9831  -21.0274   -6.5415 C   0  0  0  0  0  0  0  0  0  0  0  0
   26.3691  -21.7114   -5.5843 O   0  0  0  0  0  0  0  0  0  0  0  0
   24.5868  -20.8580   -6.6720 O   0  0  0  0  0  0  0  0  0  0  0  0
  1  2  1  0
  2  3  2  0
  4  2  1  0
  5  7  1  0
  5  4  1  0
  5  6  1  1
  7  8  2  0
  9 10  1  0
 10 11  1  0
 12 11  1  0
 13 12  1  1
 13 14  1  0
 14  7  1  0
 15 13  1  0
 16 15  2  0
 18 17  1  6
 18 20  1  0
 18 19  1  0
 21 20  1  1
 21 22  1  0
 21 23  1  0
 22 15  1  0
 23 25  1  0
 24 23  2  0
M  END
$$$$
