NML.pdb
     RDKit          3D

 25 24  0  0  1  0  0  0  0  0999 V2000
   29.3789  -25.1610  -19.0962 N   0  0  0  0  0  0  0  0  0  0  0  0
   28.2094  -25.1247  -18.2891 C   0  0  0  0  0  0  0  0  0  0  0  0
   27.3247  -25.9794  -18.5511 O   0  0  0  0  0  0  0  0  0  0  0  0
   27.9748  -24.1809  -17.2000 C   0  0  0  0  0  0  0  0  0  0  0  0
   29.0547  -23.1837  -16.9842 C   0  0  2  0  0  0  0  0  0  0  0  0
   30.2617  -23.6772  -16.4290 N   0  0  0  0  0  0  0  0  0  0  0  0
   28.5397  -22.0973  -16.0974 C   0  0  0  0  0  0  0  0  0  0  0  0
   28.6155  -22.3331  -14.8566 O   0  0  0  0  0  0  0  0  0  0  0  0
   26.0592  -14.6600  -15.2589 C   0  0  0  0  0  0  0  0  0  0  0  0
   26.6033  -15.9431  -16.4339 S   0  0  0  0  0  0  0  0  0  0  0  0
   26.8034  -17.4983  -15.5232 C   0  0  0  0  0  0  0  0  0  0  0  0
   27.3687  -18.5316  -16.4777 C   0  0  0  0  0  0  0  0  0  0  0  0
   27.5383  -19.8529  -15.7532 C   0  0  2  0  0  0  0  0  0  0  0  0
   28.0052  -20.8907  -16.6103 N   0  0  0  0  0  0  0  0  0  0  0  0
   26.2201  -20.1884  -15.1680 C   0  0  0  0  0  0  0  0  0  0  0  0
   25.3409  -20.6624  -15.9261 O   0  0  0  0  0  0  0  0  0  0  0  0
   25.8180  -22.5279  -11.3589 C   0  0  0  0  0  0  0  0  0  0  0  0
   25.8307  -21.0423  -11.0553 C   0  0  2  0  0  0  0  0  0  0  0  0
   26.0596  -20.8062   -9.6208 C   0  0  0  0  0  0  0  0  0  0  0  0
   24.7787  -20.2936  -11.7615 C   0  0  0  0  0  0  0  0  0  0  0  0
   24.6060  -20.4445  -13.2209 C   0  0  2  0  0  0  0  0  0  0  0  0
   25.9028  -20.0028  -13.8059 N   0  0  0  0  0  0  0  0  0  0  0  0
   23.5506  -19.5629  -13.7454 C   0  0  0  0  0  0  0  0  0  0  0  0
   23.7948  -18.4266  -14.1723 O   0  0  0  0  0  0  0  0  0  0  0  0
   22.2000  -19.9745  -13.7868 O   0  0  0  0  0  0  0  0  0  0  0  0
  1  2  1  0
  2  3  2  0
  4  2  1  0
  5  7  1  0
  5  4  1  0
  5  6  1  1
  7  8  2  0
  9 10  1  0
 10 11  1  0
 12 11  1  0
 13 12  1  6
 13 14  1  0
 14  7  1  0
 15 13  1  0
 16 15  2  0
 18 17  1  1
 18 20  1  0
 18 19  1  0
 21 20  1  1
 21 22  1  0
 21 23  1  0
 22 15  1  0
 23 25  1  0
 24 23  2  0
M  END
$$$$
