PFL.pdb
     RDKit          3D

 27 28  0  0  1  0  0  0  0  0999 V2000
   27.9421  -20.8351  -16.9584 N   0  0  0  0  0  0  0  0  0  0  0  0
   28.9359  -21.0809  -17.9961 C   0  0  0  0  0  0  0  0  0  0  0  0
   29.6248  -22.3618  -17.6572 C   0  0  0  0  0  0  0  0  0  0  0  0
   28.9053  -22.8413  -16.3907 C   0  0  0  0  0  0  0  0  0  0  0  0
   27.5457  -22.1591  -16.5900 C   0  0  1  0  0  0  0  0  0  0  0  0
   26.7555  -22.1822  -15.3207 C   0  0  0  0  0  0  0  0  0  0  0  0
   25.9836  -23.1451  -15.0873 O   0  0  0  0  0  0  0  0  0  0  0  0
   26.8608  -21.1455  -14.3834 N   0  0  0  0  0  0  0  0  0  0  0  0
   26.1436  -21.0788  -13.1462 C   0  0  1  0  0  0  0  0  0  0  0  0
   27.0541  -20.5465  -12.0602 C   0  0  0  0  0  0  0  0  0  0  0  0
   26.4029  -20.4889  -10.7443 C   0  0  0  0  0  0  0  0  0  0  0  0
   26.0573  -21.6181  -10.0378 C   0  0  0  0  0  0  0  0  0  0  0  0
   25.4418  -21.5424   -8.7941 C   0  0  0  0  0  0  0  0  0  0  0  0
   25.1545  -20.3237   -8.2220 C   0  0  0  0  0  0  0  0  0  0  0  0
   25.4960  -19.1880   -8.9205 C   0  0  0  0  0  0  0  0  0  0  0  0
   26.1110  -19.2766  -10.1630 C   0  0  0  0  0  0  0  0  0  0  0  0
   24.8710  -20.3589  -13.2430 C   0  0  0  0  0  0  0  0  0  0  0  0
   24.9029  -19.1268  -13.4933 O   0  0  0  0  0  0  0  0  0  0  0  0
   21.4902  -20.7312  -16.8875 C   0  0  0  0  0  0  0  0  0  0  0  0
   22.1503  -20.1735  -15.6879 C   0  0  1  0  0  0  0  0  0  0  0  0
   22.3432  -18.6617  -15.8895 C   0  0  0  0  0  0  0  0  0  0  0  0
   21.6238  -20.4863  -14.3554 C   0  0  0  0  0  0  0  0  0  0  0  0
   22.3525  -20.1289  -13.1292 C   0  0  2  0  0  0  0  0  0  0  0  0
   23.5929  -20.9501  -13.0744 N   0  0  0  0  0  0  0  0  0  0  0  0
   21.7111  -20.3053  -11.8328 C   0  0  0  0  0  0  0  0  0  0  0  0
   20.9097  -19.3974  -11.4148 O   0  0  0  0  0  0  0  0  0  0  0  0
   21.8504  -21.3640  -10.9566 O   0  0  0  0  0  0  0  0  0  0  0  0
  1  2  1  0
  2  3  1  0
  4  3  1  0
  5  1  1  0
  5  4  1  0
  5  6  1  1
  7  6  2  0
  8  6  1  0
  9  8  1  0
  9 10  1  1
 10 11  1  0
 11 12  2  0
 12 13  1  0
 14 13  2  0
 15 14  1  0
 16 15  2  0
 16 11  1  0
 17 24  1  0
 17  9  1  0
 18 17  2  0
 20 19  1  6
 20 21  1  0
 22 20  1  0
 23 22  1  6
 23 24  1  0
 25 23  1  0
 26 25  2  0
 27 25  1  0
M  END
$$$$
