PFL.pdb
     RDKit          3D

 27 28  0  0  1  0  0  0  0  0999 V2000
   25.2940  -20.6127  -13.0756 N   0  0  0  0  0  0  0  0  0  0  0  0
   25.0528  -20.5681  -14.5125 C   0  0  0  0  0  0  0  0  0  0  0  0
   26.3756  -20.3796  -15.1794 C   0  0  0  0  0  0  0  0  0  0  0  0
   27.3758  -20.3811  -14.0172 C   0  0  0  0  0  0  0  0  0  0  0  0
   26.5889  -21.2150  -12.9979 C   0  0  1  0  0  0  0  0  0  0  0  0
   27.1934  -21.0871  -11.6361 C   0  0  0  0  0  0  0  0  0  0  0  0
   28.3164  -21.5994  -11.4047 O   0  0  0  0  0  0  0  0  0  0  0  0
   26.5272  -20.4035  -10.6097 N   0  0  0  0  0  0  0  0  0  0  0  0
   27.0824  -20.1057   -9.3242 C   0  0  1  0  0  0  0  0  0  0  0  0
   26.8524  -18.6453   -8.9985 C   0  0  0  0  0  0  0  0  0  0  0  0
   27.4485  -18.2437   -7.7169 C   0  0  0  0  0  0  0  0  0  0  0  0
   26.7044  -18.0847   -6.5704 C   0  0  0  0  0  0  0  0  0  0  0  0
   27.2873  -17.7041   -5.3675 C   0  0  0  0  0  0  0  0  0  0  0  0
   28.6413  -17.4712   -5.2821 C   0  0  0  0  0  0  0  0  0  0  0  0
   29.3948  -17.6274   -6.4233 C   0  0  0  0  0  0  0  0  0  0  0  0
   28.8006  -18.0083   -7.6199 C   0  0  0  0  0  0  0  0  0  0  0  0
   26.6350  -21.0151   -8.2660 C   0  0  0  0  0  0  0  0  0  0  0  0
   25.5434  -21.6193   -8.4241 O   0  0  0  0  0  0  0  0  0  0  0  0
   29.6230  -21.0695   -3.5603 C   0  0  0  0  0  0  0  0  0  0  0  0
   28.9032  -21.3302   -4.8251 C   0  0  1  0  0  0  0  0  0  0  0  0
   29.8675  -22.0118   -5.8094 C   0  0  0  0  0  0  0  0  0  0  0  0
   27.5937  -21.9896   -4.7949 C   0  0  0  0  0  0  0  0  0  0  0  0
   26.7768  -22.1493   -6.0071 C   0  0  2  0  0  0  0  0  0  0  0  0
   27.3452  -21.2695   -7.0650 N   0  0  0  0  0  0  0  0  0  0  0  0
   25.3543  -21.8366   -5.9635 C   0  0  0  0  0  0  0  0  0  0  0  0
   24.5243  -22.7817   -5.7202 O   0  0  0  0  0  0  0  0  0  0  0  0
   24.7515  -20.6081   -6.1520 O   0  0  0  0  0  0  0  0  0  0  0  0
  1  2  1  0
  2  3  1  0
  4  3  1  0
  5  1  1  0
  5  4  1  0
  5  6  1  1
  7  6  2  0
  8  6  1  0
  9  8  1  0
  9 10  1  1
 10 11  1  0
 11 12  2  0
 12 13  1  0
 14 13  2  0
 15 14  1  0
 16 15  2  0
 16 11  1  0
 17 24  1  0
 17  9  1  0
 18 17  2  0
 20 19  1  1
 20 21  1  0
 22 20  1  0
 23 22  1  1
 23 24  1  0
 25 23  1  0
 26 25  2  0
 27 25  1  0
M  END
$$$$
