PFL.pdb
     RDKit          3D

 27 28  0  0  1  0  0  0  0  0999 V2000
   25.3917  -20.8971  -14.6284 N   0  0  0  0  0  0  0  0  0  0  0  0
   25.4625  -21.0765  -16.0733 C   0  0  0  0  0  0  0  0  0  0  0  0
   26.4988  -22.1178  -16.3415 C   0  0  0  0  0  0  0  0  0  0  0  0
   26.9579  -22.5472  -14.9428 C   0  0  0  0  0  0  0  0  0  0  0  0
   25.6965  -22.2060  -14.1390 C   0  0  1  0  0  0  0  0  0  0  0  0
   25.9912  -22.2092  -12.6729 C   0  0  0  0  0  0  0  0  0  0  0  0
   26.1478  -23.3016  -12.0735 O   0  0  0  0  0  0  0  0  0  0  0  0
   26.0962  -21.0112  -11.9531 N   0  0  0  0  0  0  0  0  0  0  0  0
   26.5019  -20.9067  -10.5842 C   0  0  1  0  0  0  0  0  0  0  0  0
   27.4276  -19.7203  -10.4187 C   0  0  0  0  0  0  0  0  0  0  0  0
   27.9036  -19.5535   -9.0386 C   0  0  0  0  0  0  0  0  0  0  0  0
   29.0103  -20.2104   -8.5515 C   0  0  0  0  0  0  0  0  0  0  0  0
   29.4446  -20.0390   -7.2424 C   0  0  0  0  0  0  0  0  0  0  0  0
   28.7759  -19.1986   -6.3814 C   0  0  0  0  0  0  0  0  0  0  0  0
   27.6676  -18.5367   -6.8588 C   0  0  0  0  0  0  0  0  0  0  0  0
   27.2431  -18.7162   -8.1694 C   0  0  0  0  0  0  0  0  0  0  0  0
   25.3830  -20.9079   -9.6380 C   0  0  0  0  0  0  0  0  0  0  0  0
   24.2488  -20.5641  -10.0588 O   0  0  0  0  0  0  0  0  0  0  0  0
   25.0789  -19.8321   -4.7800 C   0  0  0  0  0  0  0  0  0  0  0  0
   25.5496  -21.1523   -5.2502 C   0  0  1  0  0  0  0  0  0  0  0  0
   26.0640  -21.9512   -4.0417 C   0  0  0  0  0  0  0  0  0  0  0  0
   24.6913  -21.9642   -6.1190 C   0  0  0  0  0  0  0  0  0  0  0  0
   24.2628  -21.4945   -7.4449 C   0  0  2  0  0  0  0  0  0  0  0  0
   25.4812  -21.2706   -8.2704 N   0  0  0  0  0  0  0  0  0  0  0  0
   23.4851  -20.2674   -7.5578 C   0  0  0  0  0  0  0  0  0  0  0  0
   24.0304  -19.2415   -8.0975 O   0  0  0  0  0  0  0  0  0  0  0  0
   22.1835  -20.0497   -7.1496 O   0  0  0  0  0  0  0  0  0  0  0  0
  1  2  1  0
  2  3  1  0
  4  3  1  0
  5  1  1  0
  5  4  1  0
  5  6  1  1
  7  6  2  0
  8  6  1  0
  9  8  1  0
  9 10  1  6
 10 11  1  0
 11 12  2  0
 12 13  1  0
 14 13  2  0
 15 14  1  0
 16 15  2  0
 16 11  1  0
 17 24  1  0
 17  9  1  0
 18 17  2  0
 20 19  1  1
 20 21  1  0
 22 20  1  0
 23 22  1  1
 23 24  1  0
 25 23  1  0
 26 25  2  0
 27 25  1  0
M  END
$$$$
