PFL.pdb
     RDKit          3D

 27 28  0  0  1  0  0  0  0  0999 V2000
   28.5101  -19.5349  -17.1810 N   0  0  0  0  0  0  0  0  0  0  0  0
   29.0288  -19.4679  -18.5416 C   0  0  0  0  0  0  0  0  0  0  0  0
   29.3825  -20.8597  -18.9514 C   0  0  0  0  0  0  0  0  0  0  0  0
   28.9700  -21.7130  -17.7459 C   0  0  0  0  0  0  0  0  0  0  0  0
   27.8746  -20.8160  -17.1551 C   0  0  1  0  0  0  0  0  0  0  0  0
   27.5318  -21.2513  -15.7661 C   0  0  0  0  0  0  0  0  0  0  0  0
   27.8564  -22.4007  -15.3778 O   0  0  0  0  0  0  0  0  0  0  0  0
   26.8526  -20.3970  -14.8867 N   0  0  0  0  0  0  0  0  0  0  0  0
   26.5068  -20.7144  -13.5342 C   0  0  1  0  0  0  0  0  0  0  0  0
   27.2492  -19.7919  -12.5910 C   0  0  0  0  0  0  0  0  0  0  0  0
   26.9501  -20.0571  -11.1771 C   0  0  0  0  0  0  0  0  0  0  0  0
   25.9172  -19.4400  -10.5092 C   0  0  0  0  0  0  0  0  0  0  0  0
   25.6506  -19.7046   -9.1711 C   0  0  0  0  0  0  0  0  0  0  0  0
   26.4180  -20.6012   -8.4626 C   0  0  0  0  0  0  0  0  0  0  0  0
   27.4537  -21.2239   -9.1214 C   0  0  0  0  0  0  0  0  0  0  0  0
   27.7104  -20.9512  -10.4592 C   0  0  0  0  0  0  0  0  0  0  0  0
   25.0624  -20.7550  -13.2912 C   0  0  0  0  0  0  0  0  0  0  0  0
   24.3723  -19.7650  -13.6450 O   0  0  0  0  0  0  0  0  0  0  0  0
   22.3773  -25.2366  -14.4296 C   0  0  0  0  0  0  0  0  0  0  0  0
   22.6203  -23.7922  -14.2282 C   0  0  1  0  0  0  0  0  0  0  0  0
   21.8826  -23.0104  -15.3273 C   0  0  0  0  0  0  0  0  0  0  0  0
   22.4184  -23.1978  -12.9029 C   0  0  0  0  0  0  0  0  0  0  0  0
   22.8901  -21.8430  -12.5797 C   0  0  2  0  0  0  0  0  0  0  0  0
   24.3752  -21.8357  -12.6816 N   0  0  0  0  0  0  0  0  0  0  0  0
   22.5863  -21.2663  -11.2765 C   0  0  0  0  0  0  0  0  0  0  0  0
   23.5136  -21.2194  -10.3937 O   0  0  0  0  0  0  0  0  0  0  0  0
   21.3861  -20.7363  -10.8444 O   0  0  0  0  0  0  0  0  0  0  0  0
  1  2  1  0
  2  3  1  0
  4  3  1  0
  5  1  1  0
  5  4  1  0
  5  6  1  1
  7  6  2  0
  8  6  1  0
  9  8  1  0
  9 10  1  1
 10 11  1  0
 11 12  2  0
 12 13  1  0
 14 13  2  0
 15 14  1  0
 16 15  2  0
 16 11  1  0
 17 24  1  0
 17  9  1  0
 18 17  2  0
 20 19  1  1
 20 21  1  0
 22 20  1  0
 23 22  1  1
 23 24  1  0
 25 23  1  0
 26 25  2  0
 27 25  1  0
M  END
$$$$
