PFL.pdb
     RDKit          3D

 27 28  0  0  1  0  0  0  0  0999 V2000
   25.1166  -20.7355  -13.1433 N   0  0  0  0  0  0  0  0  0  0  0  0
   24.8216  -20.7220  -14.5708 C   0  0  0  0  0  0  0  0  0  0  0  0
   26.0911  -20.3899  -15.2838 C   0  0  0  0  0  0  0  0  0  0  0  0
   27.1256  -20.2772  -14.1575 C   0  0  0  0  0  0  0  0  0  0  0  0
   26.4723  -21.1903  -13.1120 C   0  0  1  0  0  0  0  0  0  0  0  0
   27.1063  -20.9923  -11.7722 C   0  0  0  0  0  0  0  0  0  0  0  0
   28.2963  -21.3499  -11.5895 O   0  0  0  0  0  0  0  0  0  0  0  0
   26.3944  -20.4130  -10.7130 N   0  0  0  0  0  0  0  0  0  0  0  0
   26.9568  -20.0394   -9.4506 C   0  0  1  0  0  0  0  0  0  0  0  0
   26.5793  -18.6087   -9.1307 C   0  0  0  0  0  0  0  0  0  0  0  0
   27.1546  -18.1340   -7.8647 C   0  0  0  0  0  0  0  0  0  0  0  0
   28.4308  -17.6274   -7.7739 C   0  0  0  0  0  0  0  0  0  0  0  0
   28.9567  -17.1834   -6.5665 C   0  0  0  0  0  0  0  0  0  0  0  0
   28.2116  -17.2362   -5.4102 C   0  0  0  0  0  0  0  0  0  0  0  0
   26.9337  -17.7414   -5.4903 C   0  0  0  0  0  0  0  0  0  0  0  0
   26.4191  -18.1821   -6.7030 C   0  0  0  0  0  0  0  0  0  0  0  0
   26.6479  -20.9782   -8.3688 C   0  0  0  0  0  0  0  0  0  0  0  0
   25.7436  -21.8306   -8.5621 O   0  0  0  0  0  0  0  0  0  0  0  0
   30.0827  -21.1370   -3.9173 C   0  0  0  0  0  0  0  0  0  0  0  0
   29.2303  -21.3501   -5.1063 C   0  0  1  0  0  0  0  0  0  0  0  0
   30.0201  -22.1720   -6.1379 C   0  0  0  0  0  0  0  0  0  0  0  0
   27.8610  -21.8481   -4.9408 C   0  0  0  0  0  0  0  0  0  0  0  0
   26.9566  -22.0284   -6.0862 C   0  0  2  0  0  0  0  0  0  0  0  0
   27.2965  -21.0002   -7.1077 N   0  0  0  0  0  0  0  0  0  0  0  0
   25.5166  -21.9220   -5.8907 C   0  0  0  0  0  0  0  0  0  0  0  0
   24.9128  -20.8787   -6.3245 O   0  0  0  0  0  0  0  0  0  0  0  0
   24.6758  -22.8320   -5.2800 O   0  0  0  0  0  0  0  0  0  0  0  0
  1  2  1  0
  2  3  1  0
  4  3  1  0
  5  1  1  0
  5  4  1  0
  5  6  1  1
  7  6  2  0
  8  6  1  0
  9  8  1  0
  9 10  1  1
 10 11  1  0
 11 12  2  0
 12 13  1  0
 14 13  2  0
 15 14  1  0
 16 15  2  0
 16 11  1  0
 17 24  1  0
 17  9  1  0
 18 17  2  0
 20 19  1  1
 20 21  1  0
 22 20  1  0
 23 22  1  1
 23 24  1  0
 25 23  1  0
 26 25  2  0
 27 25  1  0
M  END
$$$$
