PFL.pdb
     RDKit          3D

 27 28  0  0  1  0  0  0  0  0999 V2000
   26.5939  -18.1683  -14.9039 N   0  0  0  0  0  0  0  0  0  0  0  0
   26.1604  -17.3671  -16.0419 C   0  0  0  0  0  0  0  0  0  0  0  0
   26.6788  -18.0305  -17.2754 C   0  0  0  0  0  0  0  0  0  0  0  0
   27.3808  -19.2877  -16.7484 C   0  0  0  0  0  0  0  0  0  0  0  0
   26.6013  -19.4930  -15.4431 C   0  0  1  0  0  0  0  0  0  0  0  0
   27.3115  -20.4634  -14.5543 C   0  0  0  0  0  0  0  0  0  0  0  0
   27.3250  -21.6833  -14.8524 O   0  0  0  0  0  0  0  0  0  0  0  0
   27.9646  -20.0349  -13.3905 N   0  0  0  0  0  0  0  0  0  0  0  0
   28.6228  -20.8935  -12.4529 C   0  0  1  0  0  0  0  0  0  0  0  0
   29.8637  -20.2080  -11.9219 C   0  0  0  0  0  0  0  0  0  0  0  0
   30.5915  -21.0221  -10.9388 C   0  0  0  0  0  0  0  0  0  0  0  0
   30.5097  -20.7972   -9.5837 C   0  0  0  0  0  0  0  0  0  0  0  0
   31.2062  -21.5788   -8.6697 C   0  0  0  0  0  0  0  0  0  0  0  0
   32.0087  -22.6140   -9.0934 C   0  0  0  0  0  0  0  0  0  0  0  0
   32.0973  -22.8474  -10.4470 C   0  0  0  0  0  0  0  0  0  0  0  0
   31.3962  -22.0591  -11.3509 C   0  0  0  0  0  0  0  0  0  0  0  0
   27.7400  -21.3975  -11.3975 C   0  0  0  0  0  0  0  0  0  0  0  0
   27.7613  -22.6288  -11.1428 O   0  0  0  0  0  0  0  0  0  0  0  0
   26.7824  -18.7627   -7.8891 C   0  0  0  0  0  0  0  0  0  0  0  0
   27.2416  -20.1680   -7.8779 C   0  0  1  0  0  0  0  0  0  0  0  0
   27.7970  -20.4937   -6.4819 C   0  0  0  0  0  0  0  0  0  0  0  0
   26.3582  -21.2266   -8.3773 C   0  0  0  0  0  0  0  0  0  0  0  0
   25.8279  -21.2125   -9.7488 C   0  0  2  0  0  0  0  0  0  0  0  0
   26.8542  -20.5957  -10.6333 N   0  0  0  0  0  0  0  0  0  0  0  0
   24.5889  -20.5009  -10.0347 C   0  0  0  0  0  0  0  0  0  0  0  0
   23.5241  -20.8456   -9.4114 O   0  0  0  0  0  0  0  0  0  0  0  0
   24.3968  -19.4581  -10.9200 O   0  0  0  0  0  0  0  0  0  0  0  0
  1  2  1  0
  2  3  1  0
  4  3  1  0
  5  1  1  0
  5  4  1  0
  5  6  1  1
  7  6  2  0
  8  6  1  0
  9  8  1  0
  9 10  1  1
 10 11  1  0
 11 12  2  0
 12 13  1  0
 14 13  2  0
 15 14  1  0
 16 15  2  0
 16 11  1  0
 17 24  1  0
 17  9  1  0
 18 17  2  0
 20 19  1  1
 20 21  1  0
 22 20  1  0
 23 22  1  1
 23 24  1  0
 25 23  1  0
 26 25  2  0
 27 25  1  0
M  END
$$$$
