PFL.pdb
     RDKit          3D

 27 28  0  0  1  0  0  0  0  0999 V2000
   27.5204  -19.4620  -16.7466 N   0  0  0  0  0  0  0  0  0  0  0  0
   28.1503  -19.3594  -18.0572 C   0  0  0  0  0  0  0  0  0  0  0  0
   28.9539  -20.6014  -18.2623 C   0  0  0  0  0  0  0  0  0  0  0  0
   28.6804  -21.4279  -17.0000 C   0  0  0  0  0  0  0  0  0  0  0  0
   27.3036  -20.8698  -16.6170 C   0  0  1  0  0  0  0  0  0  0  0  0
   26.9482  -21.2627  -15.2186 C   0  0  0  0  0  0  0  0  0  0  0  0
   26.6915  -22.4640  -14.9575 O   0  0  0  0  0  0  0  0  0  0  0  0
   26.8960  -20.3115  -14.1905 N   0  0  0  0  0  0  0  0  0  0  0  0
   26.5801  -20.5944  -12.8231 C   0  0  1  0  0  0  0  0  0  0  0  0
   27.5695  -19.8915  -11.9182 C   0  0  0  0  0  0  0  0  0  0  0  0
   27.3011  -20.1174  -10.4913 C   0  0  0  0  0  0  0  0  0  0  0  0
   27.7778  -21.2149   -9.8118 C   0  0  0  0  0  0  0  0  0  0  0  0
   27.5127  -21.4105   -8.4616 C   0  0  0  0  0  0  0  0  0  0  0  0
   26.7573  -20.5043   -7.7523 C   0  0  0  0  0  0  0  0  0  0  0  0
   26.2756  -19.4030   -8.4228 C   0  0  0  0  0  0  0  0  0  0  0  0
   26.5473  -19.2184   -9.7726 C   0  0  0  0  0  0  0  0  0  0  0  0
   25.1820  -20.3267  -12.4756 C   0  0  0  0  0  0  0  0  0  0  0  0
   24.6933  -19.2127  -12.7946 O   0  0  0  0  0  0  0  0  0  0  0  0
   21.1463  -22.1313  -14.8072 C   0  0  0  0  0  0  0  0  0  0  0  0
   21.7435  -21.2080  -13.8189 C   0  0  1  0  0  0  0  0  0  0  0  0
   20.8989  -19.9243  -13.7708 C   0  0  0  0  0  0  0  0  0  0  0  0
   22.0779  -21.6950  -12.4767 C   0  0  0  0  0  0  0  0  0  0  0  0
   22.8993  -20.9058  -11.5468 C   0  0  2  0  0  0  0  0  0  0  0  0
   24.3285  -21.2362  -11.8003 N   0  0  0  0  0  0  0  0  0  0  0  0
   22.7125  -21.0619  -10.1102 C   0  0  0  0  0  0  0  0  0  0  0  0
   21.6681  -20.5559   -9.5675 O   0  0  0  0  0  0  0  0  0  0  0  0
   23.5394  -21.7120   -9.2148 O   0  0  0  0  0  0  0  0  0  0  0  0
  1  2  1  0
  2  3  1  0
  4  3  1  0
  5  1  1  0
  5  4  1  0
  5  6  1  1
  7  6  2  0
  8  6  1  0
  9  8  1  0
  9 10  1  1
 10 11  1  0
 11 12  2  0
 12 13  1  0
 14 13  2  0
 15 14  1  0
 16 15  2  0
 16 11  1  0
 17 24  1  0
 17  9  1  0
 18 17  2  0
 20 19  1  1
 20 21  1  0
 22 20  1  0
 23 22  1  6
 23 24  1  0
 25 23  1  0
 26 25  2  0
 27 25  1  0
M  END
$$$$
