PFL.pdb
     RDKit          3D

 27 28  0  0  1  0  0  0  0  0999 V2000
   28.3442  -21.0114  -17.3155 N   0  0  0  0  0  0  0  0  0  0  0  0
   29.4348  -21.1544  -18.2720 C   0  0  0  0  0  0  0  0  0  0  0  0
   30.2260  -22.3547  -17.8676 C   0  0  0  0  0  0  0  0  0  0  0  0
   29.4658  -22.9033  -16.6543 C   0  0  0  0  0  0  0  0  0  0  0  0
   28.0615  -22.3687  -16.9637 C   0  0  1  0  0  0  0  0  0  0  0  0
   27.1831  -22.4710  -15.7578 C   0  0  0  0  0  0  0  0  0  0  0  0
   26.8649  -23.6027  -15.3157 O   0  0  0  0  0  0  0  0  0  0  0  0
   26.7066  -21.3232  -15.1098 N   0  0  0  0  0  0  0  0  0  0  0  0
   25.8917  -21.3213  -13.9327 C   0  0  1  0  0  0  0  0  0  0  0  0
   26.5297  -20.4457  -12.8755 C   0  0  0  0  0  0  0  0  0  0  0  0
   25.8123  -20.4806  -11.5936 C   0  0  0  0  0  0  0  0  0  0  0  0
   26.2170  -21.2657  -10.5385 C   0  0  0  0  0  0  0  0  0  0  0  0
   25.5244  -21.2846   -9.3337 C   0  0  0  0  0  0  0  0  0  0  0  0
   24.3998  -20.5112   -9.1540 C   0  0  0  0  0  0  0  0  0  0  0  0
   23.9866  -19.7223  -10.2034 C   0  0  0  0  0  0  0  0  0  0  0  0
   24.6873  -19.7119  -11.4029 C   0  0  0  0  0  0  0  0  0  0  0  0
   24.4874  -20.9919  -14.1910 C   0  0  0  0  0  0  0  0  0  0  0  0
   24.2261  -19.8870  -14.7317 O   0  0  0  0  0  0  0  0  0  0  0  0
   19.3702  -24.2269  -15.0875 C   0  0  0  0  0  0  0  0  0  0  0  0
   19.9746  -23.0176  -14.4892 C   0  0  1  0  0  0  0  0  0  0  0  0
   19.7521  -23.0564  -12.9685 C   0  0  0  0  0  0  0  0  0  0  0  0
   21.3508  -22.6452  -14.8327 C   0  0  0  0  0  0  0  0  0  0  0  0
   21.9999  -21.4574  -14.2585 C   0  0  2  0  0  0  0  0  0  0  0  0
   23.3888  -21.8314  -13.8750 N   0  0  0  0  0  0  0  0  0  0  0  0
   21.4274  -20.8233  -13.0782 C   0  0  0  0  0  0  0  0  0  0  0  0
   21.9515  -21.0660  -11.9346 O   0  0  0  0  0  0  0  0  0  0  0  0
   20.3540  -19.9558  -13.0200 O   0  0  0  0  0  0  0  0  0  0  0  0
  1  2  1  0
  2  3  1  0
  4  3  1  0
  5  1  1  0
  5  4  1  0
  5  6  1  1
  7  6  2  0
  8  6  1  0
  9  8  1  0
  9 10  1  1
 10 11  1  0
 11 12  2  0
 12 13  1  0
 14 13  2  0
 15 14  1  0
 16 15  2  0
 16 11  1  0
 17 24  1  0
 17  9  1  0
 18 17  2  0
 20 19  1  1
 20 21  1  0
 22 20  1  0
 23 22  1  1
 23 24  1  0
 25 23  1  0
 26 25  2  0
 27 25  1  0
M  END
$$$$
