PFL.pdb
     RDKit          3D

 27 28  0  0  1  0  0  0  0  0999 V2000
   25.5445  -20.6332  -13.2441 N   0  0  0  0  0  0  0  0  0  0  0  0
   25.3737  -20.5928  -14.6912 C   0  0  0  0  0  0  0  0  0  0  0  0
   26.7220  -20.7867  -15.3033 C   0  0  0  0  0  0  0  0  0  0  0  0
   27.6456  -20.9961  -14.0973 C   0  0  0  0  0  0  0  0  0  0  0  0
   26.6323  -21.5483  -13.0865 C   0  0  1  0  0  0  0  0  0  0  0  0
   27.2013  -21.5206  -11.7038 C   0  0  0  0  0  0  0  0  0  0  0  0
   28.0942  -22.3435  -11.3833 O   0  0  0  0  0  0  0  0  0  0  0  0
   26.7548  -20.5897  -10.7559 N   0  0  0  0  0  0  0  0  0  0  0  0
   27.3193  -20.4069   -9.4530 C   0  0  1  0  0  0  0  0  0  0  0  0
   27.5862  -18.9355   -9.2179 C   0  0  0  0  0  0  0  0  0  0  0  0
   28.2539  -18.6723   -7.9357 C   0  0  0  0  0  0  0  0  0  0  0  0
   29.5644  -19.0176   -7.6974 C   0  0  0  0  0  0  0  0  0  0  0  0
   30.1780  -18.7600   -6.4773 C   0  0  0  0  0  0  0  0  0  0  0  0
   29.4886  -18.1451   -5.4567 C   0  0  0  0  0  0  0  0  0  0  0  0
   28.1770  -17.7956   -5.6848 C   0  0  0  0  0  0  0  0  0  0  0  0
   27.5747  -18.0584   -6.9087 C   0  0  0  0  0  0  0  0  0  0  0  0
   26.5412  -21.0353   -8.3821 C   0  0  0  0  0  0  0  0  0  0  0  0
   25.4803  -21.6354   -8.6922 O   0  0  0  0  0  0  0  0  0  0  0  0
   28.5604  -21.0149   -3.0746 C   0  0  0  0  0  0  0  0  0  0  0  0
   28.0470  -21.3320   -4.4242 C   0  0  1  0  0  0  0  0  0  0  0  0
   28.7550  -22.5970   -4.9361 C   0  0  0  0  0  0  0  0  0  0  0  0
   26.6004  -21.3798   -4.6603 C   0  0  0  0  0  0  0  0  0  0  0  0
   26.0396  -21.6802   -5.9860 C   0  0  2  0  0  0  0  0  0  0  0  0
   26.8956  -21.0191   -7.0090 N   0  0  0  0  0  0  0  0  0  0  0  0
   24.6753  -21.2757   -6.2996 C   0  0  0  0  0  0  0  0  0  0  0  0
   24.4931  -20.3363   -7.1514 O   0  0  0  0  0  0  0  0  0  0  0  0
   23.5008  -21.7906   -5.7865 O   0  0  0  0  0  0  0  0  0  0  0  0
  1  2  1  0
  2  3  1  0
  4  3  1  0
  5  1  1  0
  5  4  1  0
  5  6  1  1
  7  6  2  0
  8  6  1  0
  9  8  1  0
  9 10  1  1
 10 11  1  0
 11 12  2  0
 12 13  1  0
 14 13  2  0
 15 14  1  0
 16 15  2  0
 16 11  1  0
 17 24  1  0
 17  9  1  0
 18 17  2  0
 20 19  1  1
 20 21  1  0
 22 20  1  0
 23 22  1  1
 23 24  1  0
 25 23  1  0
 26 25  2  0
 27 25  1  0
M  END
$$$$
