PFL.pdb
     RDKit          3D

 27 28  0  0  1  0  0  0  0  0999 V2000
   28.0392  -22.2230  -17.6600 N   0  0  0  0  0  0  0  0  0  0  0  0
   28.9324  -22.7263  -18.6963 C   0  0  0  0  0  0  0  0  0  0  0  0
   30.1377  -21.8446  -18.7106 C   0  0  0  0  0  0  0  0  0  0  0  0
   29.8792  -20.8515  -17.5712 C   0  0  0  0  0  0  0  0  0  0  0  0
   28.9526  -21.7006  -16.6913 C   0  0  1  0  0  0  0  0  0  0  0  0
   28.2703  -20.8471  -15.6705 C   0  0  0  0  0  0  0  0  0  0  0  0
   28.9502  -20.2845  -14.7769 O   0  0  0  0  0  0  0  0  0  0  0  0
   26.8810  -20.6629  -15.6927 N   0  0  0  0  0  0  0  0  0  0  0  0
   26.1517  -19.7973  -14.8162 C   0  0  1  0  0  0  0  0  0  0  0  0
   25.4292  -18.7442  -15.6291 C   0  0  0  0  0  0  0  0  0  0  0  0
   26.3199  -17.6762  -16.1036 C   0  0  0  0  0  0  0  0  0  0  0  0
   26.8766  -17.6795  -17.3621 C   0  0  0  0  0  0  0  0  0  0  0  0
   27.7170  -16.6596  -17.7922 C   0  0  0  0  0  0  0  0  0  0  0  0
   28.0235  -15.6021  -16.9659 C   0  0  0  0  0  0  0  0  0  0  0  0
   27.4717  -15.5893  -15.7050 C   0  0  0  0  0  0  0  0  0  0  0  0
   26.6330  -16.6146  -15.2865 C   0  0  0  0  0  0  0  0  0  0  0  0
   25.2784  -20.5097  -13.8797 C   0  0  0  0  0  0  0  0  0  0  0  0
   24.6791  -21.5364  -14.2900 O   0  0  0  0  0  0  0  0  0  0  0  0
   26.5738  -20.3637   -8.5461 C   0  0  0  0  0  0  0  0  0  0  0  0
   26.1321  -20.8040   -9.8865 C   0  0  1  0  0  0  0  0  0  0  0  0
   26.7329  -22.1899  -10.1727 C   0  0  0  0  0  0  0  0  0  0  0  0
   24.7112  -20.7381  -10.2430 C   0  0  0  0  0  0  0  0  0  0  0  0
   24.2436  -20.9754  -11.6168 C   0  0  2  0  0  0  0  0  0  0  0  0
   25.0545  -20.1269  -12.5325 N   0  0  0  0  0  0  0  0  0  0  0  0
   22.8543  -20.7035  -11.9620 C   0  0  0  0  0  0  0  0  0  0  0  0
   21.9339  -21.3890  -11.3926 O   0  0  0  0  0  0  0  0  0  0  0  0
   22.3718  -19.7651  -12.8535 O   0  0  0  0  0  0  0  0  0  0  0  0
  1  2  1  0
  2  3  1  0
  4  3  1  0
  5  1  1  0
  5  4  1  0
  5  6  1  1
  7  6  2  0
  8  6  1  0
  9  8  1  0
  9 10  1  6
 10 11  1  0
 11 12  2  0
 12 13  1  0
 14 13  2  0
 15 14  1  0
 16 15  2  0
 16 11  1  0
 17 24  1  0
 17  9  1  0
 18 17  2  0
 20 19  1  1
 20 21  1  0
 22 20  1  0
 23 22  1  1
 23 24  1  0
 25 23  1  0
 26 25  2  0
 27 25  1  0
M  END
$$$$
