PFL.pdb
     RDKit          3D

 27 28  0  0  1  0  0  0  0  0999 V2000
   27.6231  -20.2050  -16.8075 N   0  0  0  0  0  0  0  0  0  0  0  0
   28.4876  -20.2567  -17.9800 C   0  0  0  0  0  0  0  0  0  0  0  0
   29.3344  -21.4803  -17.8542 C   0  0  0  0  0  0  0  0  0  0  0  0
   28.8401  -22.1369  -16.5596 C   0  0  0  0  0  0  0  0  0  0  0  0
   27.4074  -21.5896  -16.5210 C   0  0  1  0  0  0  0  0  0  0  0  0
   26.8003  -21.8019  -15.1710 C   0  0  0  0  0  0  0  0  0  0  0  0
   26.3870  -22.9431  -14.8486 O   0  0  0  0  0  0  0  0  0  0  0  0
   26.6838  -20.7468  -14.2558 N   0  0  0  0  0  0  0  0  0  0  0  0
   26.1494  -20.8607  -12.9325 C   0  0  1  0  0  0  0  0  0  0  0  0
   27.0976  -20.2141  -11.9453 C   0  0  0  0  0  0  0  0  0  0  0  0
   26.6117  -20.2762  -10.5599 C   0  0  0  0  0  0  0  0  0  0  0  0
   26.8614  -21.3481   -9.7339 C   0  0  0  0  0  0  0  0  0  0  0  0
   26.3928  -21.3877   -8.4261 C   0  0  0  0  0  0  0  0  0  0  0  0
   25.6564  -20.3461   -7.9085 C   0  0  0  0  0  0  0  0  0  0  0  0
   25.4011  -19.2691   -8.7266 C   0  0  0  0  0  0  0  0  0  0  0  0
   25.8749  -19.2411  -10.0322 C   0  0  0  0  0  0  0  0  0  0  0  0
   24.7697  -20.3821  -12.8128 C   0  0  0  0  0  0  0  0  0  0  0  0
   24.5199  -19.1978  -13.1544 O   0  0  0  0  0  0  0  0  0  0  0  0
   21.0756  -22.0465  -15.7605 C   0  0  0  0  0  0  0  0  0  0  0  0
   21.6994  -21.1280  -14.7843 C   0  0  1  0  0  0  0  0  0  0  0  0
   21.3547  -19.6824  -15.1780 C   0  0  0  0  0  0  0  0  0  0  0  0
   21.5218  -21.3622  -13.3476 C   0  0  0  0  0  0  0  0  0  0  0  0
   22.2945  -20.6221  -12.3390 C   0  0  2  0  0  0  0  0  0  0  0  0
   23.6829  -21.1591  -12.3368 N   0  0  0  0  0  0  0  0  0  0  0  0
   21.8668  -20.6426  -10.9462 C   0  0  0  0  0  0  0  0  0  0  0  0
   22.4815  -21.4108  -10.1256 O   0  0  0  0  0  0  0  0  0  0  0  0
   20.8492  -19.9134  -10.3624 O   0  0  0  0  0  0  0  0  0  0  0  0
  1  2  1  0
  2  3  1  0
  4  3  1  0
  5  1  1  0
  5  4  1  0
  5  6  1  1
  7  6  2  0
  8  6  1  0
  9  8  1  0
  9 10  1  1
 10 11  1  0
 11 12  2  0
 12 13  1  0
 14 13  2  0
 15 14  1  0
 16 15  2  0
 16 11  1  0
 17 24  1  0
 17  9  1  0
 18 17  2  0
 20 19  1  6
 20 21  1  0
 22 20  1  0
 23 22  1  6
 23 24  1  0
 25 23  1  0
 26 25  2  0
 27 25  1  0
M  END
$$$$
