PFL.pdb
     RDKit          3D

 27 28  0  0  1  0  0  0  0  0999 V2000
   16.4199  -26.8150   -3.8074 N   0  0  0  0  0  0  0  0  0  0  0  0
   15.9383  -26.3648   -5.1075 C   0  0  0  0  0  0  0  0  0  0  0  0
   17.1139  -25.8266   -5.8548 C   0  0  0  0  0  0  0  0  0  0  0  0
   18.2928  -26.0623   -4.9030 C   0  0  0  0  0  0  0  0  0  0  0  0
   17.7483  -27.2539   -4.1048 C   0  0  1  0  0  0  0  0  0  0  0  0
   18.5625  -27.4750   -2.8701 C   0  0  0  0  0  0  0  0  0  0  0  0
   19.7952  -27.6936   -2.9702 O   0  0  0  0  0  0  0  0  0  0  0  0
   17.9731  -27.4428   -1.5989 N   0  0  0  0  0  0  0  0  0  0  0  0
   18.6892  -27.4570   -0.3593 C   0  0  1  0  0  0  0  0  0  0  0  0
   18.1978  -26.3295    0.5233 C   0  0  0  0  0  0  0  0  0  0  0  0
   18.9267  -26.2392    1.7959 C   0  0  0  0  0  0  0  0  0  0  0  0
   20.2096  -25.7489    1.8825 C   0  0  0  0  0  0  0  0  0  0  0  0
   20.8821  -25.6717    3.0962 C   0  0  0  0  0  0  0  0  0  0  0  0
   20.2818  -26.0869    4.2633 C   0  0  0  0  0  0  0  0  0  0  0  0
   18.9986  -26.5790    4.1876 C   0  0  0  0  0  0  0  0  0  0  0  0
   18.3366  -26.6513    2.9684 C   0  0  0  0  0  0  0  0  0  0  0  0
   18.6841  -28.7620    0.3071 C   0  0  0  0  0  0  0  0  0  0  0  0
   17.5736  -29.2878    0.5752 O   0  0  0  0  0  0  0  0  0  0  0  0
   21.5756  -32.7037   -1.5550 C   0  0  0  0  0  0  0  0  0  0  0  0
   20.4530  -32.1525   -0.7665 C   0  0  1  0  0  0  0  0  0  0  0  0
   19.2494  -33.1005   -0.8935 C   0  0  0  0  0  0  0  0  0  0  0  0
   20.6752  -31.7311    0.6204 C   0  0  0  0  0  0  0  0  0  0  0  0
   19.7471  -30.8266    1.3152 C   0  0  2  0  0  0  0  0  0  0  0  0
   19.8466  -29.4853    0.6770 N   0  0  0  0  0  0  0  0  0  0  0  0
   19.9056  -30.5906    2.7443 C   0  0  0  0  0  0  0  0  0  0  0  0
   19.7218  -31.5672    3.5528 O   0  0  0  0  0  0  0  0  0  0  0  0
   20.2458  -29.4094    3.3745 O   0  0  0  0  0  0  0  0  0  0  0  0
  1  2  1  0
  2  3  1  0
  4  3  1  0
  5  1  1  0
  5  4  1  0
  5  6  1  1
  7  6  2  0
  8  6  1  0
  9  8  1  0
  9 10  1  1
 10 11  1  0
 11 12  2  0
 12 13  1  0
 14 13  2  0
 15 14  1  0
 16 15  2  0
 16 11  1  0
 17 24  1  0
 17  9  1  0
 18 17  2  0
 20 19  1  1
 20 21  1  0
 22 20  1  0
 23 22  1  6
 23 24  1  0
 25 23  1  0
 26 25  2  0
 27 25  1  0
M  END
$$$$
