PFL.pdb
     RDKit          3D

 27 28  0  0  1  0  0  0  0  0999 V2000
   27.9057  -19.3524  -13.4165 N   0  0  0  0  0  0  0  0  0  0  0  0
   28.4385  -19.3114  -14.7728 C   0  0  0  0  0  0  0  0  0  0  0  0
   29.1228  -20.6154  -15.0209 C   0  0  0  0  0  0  0  0  0  0  0  0
   28.8830  -21.4070  -13.7297 C   0  0  0  0  0  0  0  0  0  0  0  0
   27.5886  -20.7372  -13.2506 C   0  0  1  0  0  0  0  0  0  0  0  0
   27.3124  -21.0889  -11.8237 C   0  0  0  0  0  0  0  0  0  0  0  0
   26.7746  -22.1900  -11.5485 O   0  0  0  0  0  0  0  0  0  0  0  0
   27.6436  -20.2092  -10.7841 N   0  0  0  0  0  0  0  0  0  0  0  0
   27.4328  -20.4648   -9.3913 C   0  0  1  0  0  0  0  0  0  0  0  0
   28.4803  -19.7352   -8.5775 C   0  0  0  0  0  0  0  0  0  0  0  0
   28.2945  -19.8961   -7.1289 C   0  0  0  0  0  0  0  0  0  0  0  0
   28.6980  -21.0231   -6.4502 C   0  0  0  0  0  0  0  0  0  0  0  0
   28.5132  -21.1561   -5.0792 C   0  0  0  0  0  0  0  0  0  0  0  0
   27.9146  -20.1555   -4.3475 C   0  0  0  0  0  0  0  0  0  0  0  0
   27.5074  -19.0239   -5.0169 C   0  0  0  0  0  0  0  0  0  0  0  0
   27.6976  -18.9026   -6.3876 C   0  0  0  0  0  0  0  0  0  0  0  0
   26.0620  -20.2000   -8.9463 C   0  0  0  0  0  0  0  0  0  0  0  0
   25.6294  -19.0217   -9.0240 O   0  0  0  0  0  0  0  0  0  0  0  0
   22.1897  -21.3874  -11.6113 C   0  0  0  0  0  0  0  0  0  0  0  0
   22.8830  -20.7133  -10.4931 C   0  0  1  0  0  0  0  0  0  0  0  0
   22.4135  -19.2506  -10.4323 C   0  0  0  0  0  0  0  0  0  0  0  0
   22.9037  -21.3381   -9.1665 C   0  0  0  0  0  0  0  0  0  0  0  0
   23.7683  -20.8393   -8.0868 C   0  0  2  0  0  0  0  0  0  0  0  0
   25.1764  -21.1798   -8.4295 N   0  0  0  0  0  0  0  0  0  0  0  0
   23.5715  -21.3208   -6.7257 C   0  0  0  0  0  0  0  0  0  0  0  0
   22.7212  -20.7209   -5.9783 O   0  0  0  0  0  0  0  0  0  0  0  0
   24.1988  -22.3833   -6.1047 O   0  0  0  0  0  0  0  0  0  0  0  0
  1  2  1  0
  2  3  1  0
  4  3  1  0
  5  1  1  0
  5  4  1  0
  5  6  1  1
  7  6  2  0
  8  6  1  0
  9  8  1  0
  9 10  1  1
 10 11  1  0
 11 12  2  0
 12 13  1  0
 14 13  2  0
 15 14  1  0
 16 15  2  0
 16 11  1  0
 17 24  1  0
 17  9  1  0
 18 17  2  0
 20 19  1  6
 20 21  1  0
 22 20  1  0
 23 22  1  6
 23 24  1  0
 25 23  1  0
 26 25  2  0
 27 25  1  0
M  END
$$$$
