DEH.pdb
     RDKit          3D

 28 28  0  0  1  0  0  0  0  0999 V2000
   16.5589  -11.2874  -17.4824 N   0  0  0  0  0  0  0  0  0  0  0  0
   17.1270  -10.8654  -16.2231 C   0  0  1  0  0  0  0  0  0  0  0  0
   18.0660  -11.8977  -15.6720 C   0  0  0  0  0  0  0  0  0  0  0  0
   17.2980  -12.8984  -14.8902 C   0  0  0  0  0  0  0  0  0  0  0  0
   16.0786  -12.7635  -14.6352 O   0  0  0  0  0  0  0  0  0  0  0  0
   17.7030   -9.5312  -16.3585 C   0  0  0  0  0  0  0  0  0  0  0  0
   18.4841   -9.3443  -17.3521 O   0  0  0  0  0  0  0  0  0  0  0  0
   17.9356  -14.0337  -14.4139 O   0  0  0  0  0  0  0  0  0  0  0  0
   17.4446   -8.4572  -15.4631 N   0  0  0  0  0  0  0  0  0  0  0  0
   18.0851   -7.1775  -15.7606 C   0  0  1  0  0  0  0  0  0  0  0  0
   17.0322   -6.1374  -15.4646 C   0  0  0  0  0  0  0  0  0  0  0  0
   17.4462   -4.7425  -15.7748 C   0  0  0  0  0  0  0  0  0  0  0  0
   16.2979   -3.8373  -15.3782 C   0  0  0  0  0  0  0  0  0  0  0  0
   16.3166   -3.2429  -14.2716 O   0  0  0  0  0  0  0  0  0  0  0  0
   19.2404   -6.9448  -14.8835 C   0  0  0  0  0  0  0  0  0  0  0  0
   19.1487   -7.2482  -13.6757 O   0  0  0  0  0  0  0  0  0  0  0  0
   15.2522   -3.6982  -16.2698 O   0  0  0  0  0  0  0  0  0  0  0  0
   20.4689   -6.3912  -15.3203 N   0  0  0  0  0  0  0  0  0  0  0  0
   21.6292   -6.3233  -14.4503 C   0  0  1  0  0  0  0  0  0  0  0  0
   22.8443   -6.9332  -15.1183 C   0  0  0  0  0  0  0  0  0  0  0  0
   22.6238   -8.3495  -15.4781 C   0  0  0  0  0  0  0  0  0  0  0  0
   21.9664   -9.2949  -14.7253 C   0  0  0  0  0  0  0  0  0  0  0  0
   21.9949  -10.4406  -15.4003 N   0  0  0  0  0  0  0  0  0  0  0  0
   22.6589  -10.2326  -16.5649 C   0  0  0  0  0  0  0  0  0  0  0  0
   23.0504   -8.9503  -16.6237 N   0  0  0  0  0  0  0  0  0  0  0  0
   21.8465   -4.9712  -13.9325 C   0  0  0  0  0  0  0  0  0  0  0  0
   21.1199   -3.8488  -14.2446 O   0  0  0  0  0  0  0  0  0  0  0  0
   22.8002   -4.8016  -13.1106 O   0  0  0  0  0  0  0  0  0  0  0  0
  2  6  1  0
  2  1  1  6
  3  2  1  0
  3  4  1  0
  4  5  2  0
  6  7  2  0
  8  4  1  0
  9 10  1  0
  9  6  1  0
 10 11  1  1
 11 12  1  0
 12 13  1  0
 13 14  2  0
 13 17  1  0
 15 10  1  0
 16 15  2  0
 18 15  1  0
 19 20  1  6
 19 18  1  0
 20 21  1  0
 21 25  1  0
 21 22  2  0
 22 23  1  0
 24 23  1  0
 25 24  2  0
 26 19  1  0
 27 26  1  0
 28 26  2  0
M  END
$$$$
