DEH.pdb
     RDKit          3D

 28 28  0  0  1  0  0  0  0  0999 V2000
   21.6050  -14.4240  -19.2669 N   0  0  0  0  0  0  0  0  0  0  0  0
   22.2578  -13.5053  -18.3634 C   0  0  1  0  0  0  0  0  0  0  0  0
   23.5936  -13.0728  -18.8921 C   0  0  0  0  0  0  0  0  0  0  0  0
   24.5954  -14.1375  -18.6366 C   0  0  0  0  0  0  0  0  0  0  0  0
   24.3153  -15.1941  -18.0238 O   0  0  0  0  0  0  0  0  0  0  0  0
   21.3539  -12.4095  -18.0278 C   0  0  0  0  0  0  0  0  0  0  0  0
   20.9418  -11.6907  -19.0004 O   0  0  0  0  0  0  0  0  0  0  0  0
   25.8977  -13.9766  -19.0845 O   0  0  0  0  0  0  0  0  0  0  0  0
   20.9203  -12.1104  -16.7070 N   0  0  0  0  0  0  0  0  0  0  0  0
   19.9895  -10.9943  -16.5518 C   0  0  1  0  0  0  0  0  0  0  0  0
   18.8699  -11.5374  -15.6977 C   0  0  0  0  0  0  0  0  0  0  0  0
   17.9496  -12.4630  -16.4117 C   0  0  0  0  0  0  0  0  0  0  0  0
   16.8598  -12.8516  -15.4336 C   0  0  0  0  0  0  0  0  0  0  0  0
   16.2095  -11.9633  -14.8283 O   0  0  0  0  0  0  0  0  0  0  0  0
   20.6202   -9.8703  -15.8470 C   0  0  0  0  0  0  0  0  0  0  0  0
   21.4018  -10.1146  -14.9042 O   0  0  0  0  0  0  0  0  0  0  0  0
   16.6191  -14.1981  -15.2420 O   0  0  0  0  0  0  0  0  0  0  0  0
   20.3991   -8.5085  -16.1679 N   0  0  0  0  0  0  0  0  0  0  0  0
   21.1499   -7.4412  -15.5313 C   0  0  1  0  0  0  0  0  0  0  0  0
   21.8530   -6.5830  -16.5628 C   0  0  0  0  0  0  0  0  0  0  0  0
   22.9296   -7.3221  -17.2547 C   0  0  0  0  0  0  0  0  0  0  0  0
   23.3190   -8.6198  -17.0158 C   0  0  0  0  0  0  0  0  0  0  0  0
   24.3224   -8.8995  -17.8427 N   0  0  0  0  0  0  0  0  0  0  0  0
   24.5713   -7.8004  -18.5980 C   0  0  0  0  0  0  0  0  0  0  0  0
   23.7209   -6.8239  -18.2451 N   0  0  0  0  0  0  0  0  0  0  0  0
   20.3298   -6.6856  -14.5827 C   0  0  0  0  0  0  0  0  0  0  0  0
   20.7845   -5.8936  -13.5575 O   0  0  0  0  0  0  0  0  0  0  0  0
   19.0676   -6.7597  -14.7062 O   0  0  0  0  0  0  0  0  0  0  0  0
  2  6  1  0
  2  1  1  6
  3  2  1  0
  3  4  1  0
  4  5  2  0
  6  7  2  0
  8  4  1  0
  9 10  1  0
  9  6  1  0
 10 11  1  1
 11 12  1  0
 12 13  1  0
 13 14  2  0
 13 17  1  0
 15 10  1  0
 16 15  2  0
 18 15  1  0
 19 20  1  6
 19 18  1  0
 20 21  1  0
 21 25  1  0
 21 22  2  0
 22 23  1  0
 24 23  1  0
 25 24  2  0
 26 19  1  0
 27 26  1  0
 28 26  2  0
M  END
$$$$
