DEH.pdb
     RDKit          3D

 28 28  0  0  1  0  0  0  0  0999 V2000
   15.5171  -15.0037  -13.7984 N   0  0  0  0  0  0  0  0  0  0  0  0
   16.9567  -15.0171  -13.9163 C   0  0  1  0  0  0  0  0  0  0  0  0
   17.3977  -15.7173  -15.1677 C   0  0  0  0  0  0  0  0  0  0  0  0
   16.9501  -17.1317  -15.1274 C   0  0  0  0  0  0  0  0  0  0  0  0
   15.7691  -17.4582  -14.8648 O   0  0  0  0  0  0  0  0  0  0  0  0
   17.4819  -13.6643  -13.7602 C   0  0  0  0  0  0  0  0  0  0  0  0
   18.7165  -13.4947  -14.0425 O   0  0  0  0  0  0  0  0  0  0  0  0
   17.8582  -18.1468  -15.3872 O   0  0  0  0  0  0  0  0  0  0  0  0
   16.7083  -12.5548  -13.3215 N   0  0  0  0  0  0  0  0  0  0  0  0
   17.3918  -11.2664  -13.2262 C   0  0  1  0  0  0  0  0  0  0  0  0
   17.6051  -10.8325  -14.6560 C   0  0  0  0  0  0  0  0  0  0  0  0
   16.3503  -10.5417  -15.4007 C   0  0  0  0  0  0  0  0  0  0  0  0
   16.7491  -10.1233  -16.8011 C   0  0  0  0  0  0  0  0  0  0  0  0
   17.0204   -8.9215  -17.0471 O   0  0  0  0  0  0  0  0  0  0  0  0
   16.5529  -10.2686  -12.5489 C   0  0  0  0  0  0  0  0  0  0  0  0
   15.3898  -10.5838  -12.2215 O   0  0  0  0  0  0  0  0  0  0  0  0
   16.7996  -11.1023  -17.7740 O   0  0  0  0  0  0  0  0  0  0  0  0
   16.9792   -8.9541  -12.2375 N   0  0  0  0  0  0  0  0  0  0  0  0
   16.1974   -8.0792  -11.3823 C   0  0  1  0  0  0  0  0  0  0  0  0
   15.9867   -8.7018  -10.0175 C   0  0  0  0  0  0  0  0  0  0  0  0
   15.2530   -7.7989   -9.1061 C   0  0  0  0  0  0  0  0  0  0  0  0
   13.8956   -7.5752   -9.0894 C   0  0  0  0  0  0  0  0  0  0  0  0
   13.6433   -6.6917   -8.1278 N   0  0  0  0  0  0  0  0  0  0  0  0
   14.8183   -6.3555   -7.5390 C   0  0  0  0  0  0  0  0  0  0  0  0
   15.8153   -7.0301   -8.1324 N   0  0  0  0  0  0  0  0  0  0  0  0
   16.7437   -6.7214  -11.3429 C   0  0  0  0  0  0  0  0  0  0  0  0
   16.0434   -5.5641  -11.1078 O   0  0  0  0  0  0  0  0  0  0  0  0
   17.9901   -6.5822  -11.5453 O   0  0  0  0  0  0  0  0  0  0  0  0
  2  6  1  0
  2  1  1  6
  3  2  1  0
  3  4  1  0
  4  5  2  0
  6  7  2  0
  8  4  1  0
  9 10  1  0
  9  6  1  0
 10 11  1  6
 11 12  1  0
 12 13  1  0
 13 14  2  0
 13 17  1  0
 15 10  1  0
 16 15  2  0
 18 15  1  0
 19 20  1  1
 19 18  1  0
 20 21  1  0
 21 25  1  0
 21 22  2  0
 22 23  1  0
 24 23  1  0
 25 24  2  0
 26 19  1  0
 27 26  1  0
 28 26  2  0
M  END
$$$$
