DEH.pdb
     RDKit          3D

 28 28  0  0  1  0  0  0  0  0999 V2000
   16.9982  -14.6753  -16.8278 N   0  0  0  0  0  0  0  0  0  0  0  0
   17.1100  -13.8748  -15.6306 C   0  0  1  0  0  0  0  0  0  0  0  0
   17.9453  -14.5595  -14.5893 C   0  0  0  0  0  0  0  0  0  0  0  0
   17.1443  -15.6221  -13.9323 C   0  0  0  0  0  0  0  0  0  0  0  0
   15.8912  -15.6232  -13.9384 O   0  0  0  0  0  0  0  0  0  0  0  0
   17.5510  -12.5261  -15.9724 C   0  0  0  0  0  0  0  0  0  0  0  0
   18.3159  -12.4159  -16.9899 O   0  0  0  0  0  0  0  0  0  0  0  0
   17.7878  -16.6631  -13.2806 O   0  0  0  0  0  0  0  0  0  0  0  0
   17.1813  -11.3594  -15.2485 N   0  0  0  0  0  0  0  0  0  0  0  0
   17.7820  -10.0969  -15.6745 C   0  0  1  0  0  0  0  0  0  0  0  0
   16.9539   -9.0269  -15.0056 C   0  0  0  0  0  0  0  0  0  0  0  0
   15.5665   -8.9101  -15.5298 C   0  0  0  0  0  0  0  0  0  0  0  0
   14.6701   -8.5859  -14.3522 C   0  0  0  0  0  0  0  0  0  0  0  0
   13.8296   -9.4280  -13.9487 O   0  0  0  0  0  0  0  0  0  0  0  0
   19.1697   -9.9837  -15.2059 C   0  0  0  0  0  0  0  0  0  0  0  0
   19.4607  -10.4290  -14.0761 O   0  0  0  0  0  0  0  0  0  0  0  0
   14.8161   -7.3490  -13.7553 O   0  0  0  0  0  0  0  0  0  0  0  0
   20.2154   -9.3951  -15.9587 N   0  0  0  0  0  0  0  0  0  0  0  0
   21.5720   -9.3123  -15.4481 C   0  0  1  0  0  0  0  0  0  0  0  0
   22.5322  -10.0806  -16.3327 C   0  0  0  0  0  0  0  0  0  0  0  0
   23.9312   -9.9469  -15.8757 C   0  0  0  0  0  0  0  0  0  0  0  0
   24.6037  -10.7992  -15.0306 C   0  0  0  0  0  0  0  0  0  0  0  0
   25.8330  -10.3187  -14.8661 N   0  0  0  0  0  0  0  0  0  0  0  0
   25.9458   -9.1788  -15.5930 C   0  0  0  0  0  0  0  0  0  0  0  0
   24.7824   -8.9402  -16.2182 N   0  0  0  0  0  0  0  0  0  0  0  0
   21.9750   -7.9292  -15.1871 C   0  0  0  0  0  0  0  0  0  0  0  0
   22.9176   -7.5083  -14.2819 O   0  0  0  0  0  0  0  0  0  0  0  0
   21.4041   -7.0132  -15.8571 O   0  0  0  0  0  0  0  0  0  0  0  0
  2  6  1  0
  2  1  1  6
  3  2  1  0
  3  4  1  0
  4  5  2  0
  6  7  2  0
  8  4  1  0
  9 10  1  0
  9  6  1  0
 10 11  1  1
 11 12  1  0
 12 13  1  0
 13 14  2  0
 13 17  1  0
 15 10  1  0
 16 15  2  0
 18 15  1  0
 19 20  1  6
 19 18  1  0
 20 21  1  0
 21 25  1  0
 21 22  2  0
 22 23  1  0
 24 23  1  0
 25 24  2  0
 26 19  1  0
 27 26  1  0
 28 26  2  0
M  END
$$$$
