DEH.pdb
     RDKit          3D

 28 28  0  0  1  0  0  0  0  0999 V2000
   35.8505   -7.8706  -16.3824 N   0  0  0  0  0  0  0  0  0  0  0  0
   34.5218   -7.7291  -15.8339 C   0  0  1  0  0  0  0  0  0  0  0  0
   34.3257   -6.3767  -15.2144 C   0  0  0  0  0  0  0  0  0  0  0  0
   35.2030   -6.2453  -14.0247 C   0  0  0  0  0  0  0  0  0  0  0  0
   35.9176   -7.1859  -13.6065 O   0  0  0  0  0  0  0  0  0  0  0  0
   33.5267   -8.0860  -16.8402 C   0  0  0  0  0  0  0  0  0  0  0  0
   33.6937   -7.5953  -18.0080 O   0  0  0  0  0  0  0  0  0  0  0  0
   35.2485   -5.0436  -13.3346 O   0  0  0  0  0  0  0  0  0  0  0  0
   32.4101   -8.9308  -16.5921 N   0  0  0  0  0  0  0  0  0  0  0  0
   31.4987   -9.1700  -17.7094 C   0  0  1  0  0  0  0  0  0  0  0  0
   30.8008  -10.4650  -17.3717 C   0  0  0  0  0  0  0  0  0  0  0  0
   29.7766  -10.8851  -18.3657 C   0  0  0  0  0  0  0  0  0  0  0  0
   29.1937  -12.1962  -17.8792 C   0  0  0  0  0  0  0  0  0  0  0  0
   29.6144  -13.2847  -18.3445 O   0  0  0  0  0  0  0  0  0  0  0  0
   30.4937   -8.1037  -17.8131 C   0  0  0  0  0  0  0  0  0  0  0  0
   30.0757   -7.5678  -16.7655 O   0  0  0  0  0  0  0  0  0  0  0  0
   28.2001  -12.1412  -16.9213 O   0  0  0  0  0  0  0  0  0  0  0  0
   29.9581   -7.6351  -19.0379 N   0  0  0  0  0  0  0  0  0  0  0  0
   29.0835   -6.4777  -19.0970 C   0  0  1  0  0  0  0  0  0  0  0  0
   29.7148   -5.2854  -18.4080 C   0  0  0  0  0  0  0  0  0  0  0  0
   28.8796   -4.0721  -18.5286 C   0  0  0  0  0  0  0  0  0  0  0  0
   27.6381   -3.9852  -19.1151 C   0  0  0  0  0  0  0  0  0  0  0  0
   27.2347   -2.7212  -19.0220 N   0  0  0  0  0  0  0  0  0  0  0  0
   28.2007   -2.0112  -18.3872 C   0  0  0  0  0  0  0  0  0  0  0  0
   29.2173   -2.8315  -18.0790 N   0  0  0  0  0  0  0  0  0  0  0  0
   28.6251   -6.2072  -20.4609 C   0  0  0  0  0  0  0  0  0  0  0  0
   28.9333   -6.9308  -21.5864 O   0  0  0  0  0  0  0  0  0  0  0  0
   27.8652   -5.2049  -20.6388 O   0  0  0  0  0  0  0  0  0  0  0  0
  2  6  1  0
  2  1  1  6
  3  2  1  0
  3  4  1  0
  4  5  2  0
  6  7  2  0
  8  4  1  0
  9 10  1  0
  9  6  1  0
 10 11  1  1
 11 12  1  0
 12 13  1  0
 13 14  2  0
 13 17  1  0
 15 10  1  0
 16 15  2  0
 18 15  1  0
 19 20  1  6
 19 18  1  0
 20 21  1  0
 21 25  1  0
 21 22  2  0
 22 23  1  0
 24 23  1  0
 25 24  2  0
 26 19  1  0
 27 26  1  0
 28 26  2  0
M  END
$$$$
