DEH.pdb
     RDKit          3D

 28 28  0  0  1  0  0  0  0  0999 V2000
   24.3466  -11.4079  -18.3855 N   0  0  0  0  0  0  0  0  0  0  0  0
   23.0455  -10.8456  -18.6633 C   0  0  1  0  0  0  0  0  0  0  0  0
   22.1755  -11.8170  -19.4052 C   0  0  0  0  0  0  0  0  0  0  0  0
   20.9399  -11.1301  -19.8568 C   0  0  0  0  0  0  0  0  0  0  0  0
   20.9594  -10.0201  -20.4380 O   0  0  0  0  0  0  0  0  0  0  0  0
   22.4577  -10.3192  -17.4354 C   0  0  0  0  0  0  0  0  0  0  0  0
   22.1961  -11.1686  -16.5174 O   0  0  0  0  0  0  0  0  0  0  0  0
   19.7057  -11.7222  -19.6367 O   0  0  0  0  0  0  0  0  0  0  0  0
   22.1695   -8.9442  -17.2156 N   0  0  0  0  0  0  0  0  0  0  0  0
   21.6345   -8.5803  -15.9051 C   0  0  1  0  0  0  0  0  0  0  0  0
   22.2338   -7.2287  -15.6018 C   0  0  0  0  0  0  0  0  0  0  0  0
   21.7759   -6.6305  -14.3188 C   0  0  0  0  0  0  0  0  0  0  0  0
   22.3953   -5.2512  -14.2232 C   0  0  0  0  0  0  0  0  0  0  0  0
   23.2158   -4.8665  -15.0933 O   0  0  0  0  0  0  0  0  0  0  0  0
   20.1717   -8.4514  -15.9454 C   0  0  0  0  0  0  0  0  0  0  0  0
   19.6437   -7.9032  -16.9354 O   0  0  0  0  0  0  0  0  0  0  0  0
   22.0246   -4.4531  -13.1586 O   0  0  0  0  0  0  0  0  0  0  0  0
   19.3065   -8.9126  -14.9230 N   0  0  0  0  0  0  0  0  0  0  0  0
   17.8651   -8.7659  -15.0173 C   0  0  1  0  0  0  0  0  0  0  0  0
   17.1577   -9.8126  -14.1814 C   0  0  0  0  0  0  0  0  0  0  0  0
   17.1338  -11.1300  -14.8508 C   0  0  0  0  0  0  0  0  0  0  0  0
   17.6502  -11.4305  -16.0900 C   0  0  0  0  0  0  0  0  0  0  0  0
   17.4155  -12.7185  -16.3243 N   0  0  0  0  0  0  0  0  0  0  0  0
   16.7603  -13.2339  -15.2539 C   0  0  0  0  0  0  0  0  0  0  0  0
   16.5814  -12.2661  -14.3414 N   0  0  0  0  0  0  0  0  0  0  0  0
   17.4358   -7.3928  -14.7457 C   0  0  0  0  0  0  0  0  0  0  0  0
   18.2342   -6.3498  -14.3457 O   0  0  0  0  0  0  0  0  0  0  0  0
   16.2030   -7.1220  -14.8892 O   0  0  0  0  0  0  0  0  0  0  0  0
  2  6  1  0
  2  1  1  1
  3  2  1  0
  3  4  1  0
  4  5  2  0
  6  7  2  0
  8  4  1  0
  9 10  1  0
  9  6  1  0
 10 11  1  6
 11 12  1  0
 12 13  1  0
 13 14  2  0
 13 17  1  0
 15 10  1  0
 16 15  2  0
 18 15  1  0
 19 20  1  1
 19 18  1  0
 20 21  1  0
 21 25  1  0
 21 22  2  0
 22 23  1  0
 24 23  1  0
 25 24  2  0
 26 19  1  0
 27 26  1  0
 28 26  2  0
M  END
$$$$
