DEH.pdb
     RDKit          3D

 28 28  0  0  1  0  0  0  0  0999 V2000
   16.7547   -9.7002  -14.9544 N   0  0  0  0  0  0  0  0  0  0  0  0
   18.0423   -9.0952  -14.7042 C   0  0  1  0  0  0  0  0  0  0  0  0
   18.9487   -9.2240  -15.8928 C   0  0  0  0  0  0  0  0  0  0  0  0
   19.1118  -10.6582  -16.2378 C   0  0  0  0  0  0  0  0  0  0  0  0
   18.4212  -11.2229  -17.1178 O   0  0  0  0  0  0  0  0  0  0  0  0
   17.8655   -7.7294  -14.2206 C   0  0  0  0  0  0  0  0  0  0  0  0
   18.9307   -7.0688  -13.9728 O   0  0  0  0  0  0  0  0  0  0  0  0
   20.0593  -11.4209  -15.5723 O   0  0  0  0  0  0  0  0  0  0  0  0
   16.6000   -7.1137  -14.0172 N   0  0  0  0  0  0  0  0  0  0  0  0
   16.6035   -5.7469  -13.4996 C   0  0  1  0  0  0  0  0  0  0  0  0
   15.8585   -4.9377  -14.5332 C   0  0  0  0  0  0  0  0  0  0  0  0
   14.7853   -5.6876  -15.2399 C   0  0  0  0  0  0  0  0  0  0  0  0
   13.5140   -4.8733  -15.1131 C   0  0  0  0  0  0  0  0  0  0  0  0
   13.3993   -3.7833  -15.7272 O   0  0  0  0  0  0  0  0  0  0  0  0
   15.8838   -5.6605  -12.2219 C   0  0  0  0  0  0  0  0  0  0  0  0
   14.7115   -6.0865  -12.1624 O   0  0  0  0  0  0  0  0  0  0  0  0
   12.5084   -5.3735  -14.3091 O   0  0  0  0  0  0  0  0  0  0  0  0
   16.4365   -5.1187  -11.0355 N   0  0  0  0  0  0  0  0  0  0  0  0
   15.6511   -4.9738   -9.8229 C   0  0  1  0  0  0  0  0  0  0  0  0
   16.1570   -5.8991   -8.7354 C   0  0  0  0  0  0  0  0  0  0  0  0
   16.0380   -7.3208   -9.1207 C   0  0  0  0  0  0  0  0  0  0  0  0
   17.0336   -8.1172   -9.6379 C   0  0  0  0  0  0  0  0  0  0  0  0
   16.5152   -9.3226   -9.8552 N   0  0  0  0  0  0  0  0  0  0  0  0
   15.2106   -9.2987   -9.4838 C   0  0  0  0  0  0  0  0  0  0  0  0
   14.9059   -8.0727   -9.0306 N   0  0  0  0  0  0  0  0  0  0  0  0
   15.5340   -3.5738   -9.4109 C   0  0  0  0  0  0  0  0  0  0  0  0
   16.0832   -2.4859  -10.0435 O   0  0  0  0  0  0  0  0  0  0  0  0
   14.8600   -3.3226   -8.3638 O   0  0  0  0  0  0  0  0  0  0  0  0
  2  6  1  0
  2  1  1  6
  3  2  1  0
  3  4  1  0
  4  5  2  0
  6  7  2  0
  8  4  1  0
  9 10  1  0
  9  6  1  0
 10 11  1  6
 11 12  1  0
 12 13  1  0
 13 14  2  0
 13 17  1  0
 15 10  1  0
 16 15  2  0
 18 15  1  0
 19 20  1  1
 19 18  1  0
 20 21  1  0
 21 25  1  0
 21 22  2  0
 22 23  1  0
 24 23  1  0
 25 24  2  0
 26 19  1  0
 27 26  1  0
 28 26  2  0
M  END
$$$$
