DEH.pdb
     RDKit          3D

 28 28  0  0  1  0  0  0  0  0999 V2000
   43.5027  -12.2048   -8.2212 N   0  0  0  0  0  0  0  0  0  0  0  0
   43.6902  -10.8397   -8.6545 C   0  0  1  0  0  0  0  0  0  0  0  0
   44.7282  -10.7448   -9.7336 C   0  0  0  0  0  0  0  0  0  0  0  0
   46.0460  -11.1579   -9.1905 C   0  0  0  0  0  0  0  0  0  0  0  0
   46.9345  -11.6817   -9.9022 O   0  0  0  0  0  0  0  0  0  0  0  0
   42.4023  -10.2442   -8.9968 C   0  0  0  0  0  0  0  0  0  0  0  0
   42.1263  -10.1561  -10.2412 O   0  0  0  0  0  0  0  0  0  0  0  0
   46.3252  -10.9661   -7.8460 O   0  0  0  0  0  0  0  0  0  0  0  0
   41.4641   -9.7700   -8.0393 N   0  0  0  0  0  0  0  0  0  0  0  0
   40.1848   -9.2816   -8.5504 C   0  0  1  0  0  0  0  0  0  0  0  0
   39.2412   -9.3590   -7.3749 C   0  0  0  0  0  0  0  0  0  0  0  0
   38.6236  -10.6975   -7.1734 C   0  0  0  0  0  0  0  0  0  0  0  0
   37.7065  -10.5898   -5.9723 C   0  0  0  0  0  0  0  0  0  0  0  0
   37.0575   -9.5338   -5.7671 O   0  0  0  0  0  0  0  0  0  0  0  0
   40.2856   -7.8820   -8.9852 C   0  0  0  0  0  0  0  0  0  0  0  0
   41.4060   -7.3306   -8.9812 O   0  0  0  0  0  0  0  0  0  0  0  0
   37.6183  -11.6820   -5.1316 O   0  0  0  0  0  0  0  0  0  0  0  0
   39.1827   -7.1037   -9.4146 N   0  0  0  0  0  0  0  0  0  0  0  0
   39.3608   -5.8771  -10.1708 C   0  0  1  0  0  0  0  0  0  0  0  0
   40.2091   -6.1178  -11.4025 C   0  0  0  0  0  0  0  0  0  0  0  0
   41.6431   -5.8740  -11.1415 C   0  0  0  0  0  0  0  0  0  0  0  0
   42.2028   -5.4612   -9.9544 C   0  0  0  0  0  0  0  0  0  0  0  0
   43.5152   -5.3541  -10.1419 N   0  0  0  0  0  0  0  0  0  0  0  0
   43.7912   -5.6922  -11.4264 C   0  0  0  0  0  0  0  0  0  0  0  0
   42.6476   -6.0137  -12.0509 N   0  0  0  0  0  0  0  0  0  0  0  0
   38.0852   -5.2121  -10.4431 C   0  0  0  0  0  0  0  0  0  0  0  0
   37.8530   -3.8589  -10.4505 O   0  0  0  0  0  0  0  0  0  0  0  0
   37.0812   -5.9468  -10.7000 O   0  0  0  0  0  0  0  0  0  0  0  0
  2  6  1  0
  2  1  1  6
  3  2  1  0
  3  4  1  0
  4  5  2  0
  6  7  2  0
  8  4  1  0
  9 10  1  0
  9  6  1  0
 10 11  1  1
 11 12  1  0
 12 13  1  0
 13 14  2  0
 13 17  1  0
 15 10  1  0
 16 15  2  0
 18 15  1  0
 19 20  1  6
 19 18  1  0
 20 21  1  0
 21 25  1  0
 21 22  2  0
 22 23  1  0
 24 23  1  0
 25 24  2  0
 26 19  1  0
 27 26  1  0
 28 26  2  0
M  END
$$$$
