DEH.pdb
     RDKit          3D

 28 28  0  0  1  0  0  0  0  0999 V2000
   17.6667  -12.1456  -17.7219 N   0  0  0  0  0  0  0  0  0  0  0  0
   18.0509  -11.4893  -16.4939 C   0  0  1  0  0  0  0  0  0  0  0  0
   18.8037  -12.4186  -15.5880 C   0  0  0  0  0  0  0  0  0  0  0  0
   17.8822  -13.4613  -15.0722 C   0  0  0  0  0  0  0  0  0  0  0  0
   16.6754  -13.2322  -14.8245 O   0  0  0  0  0  0  0  0  0  0  0  0
   18.7430  -10.2394  -16.7923 C   0  0  0  0  0  0  0  0  0  0  0  0
   19.6319  -10.2834  -17.7091 O   0  0  0  0  0  0  0  0  0  0  0  0
   18.3548  -14.7454  -14.8484 O   0  0  0  0  0  0  0  0  0  0  0  0
   18.4838   -9.0075  -16.1311 N   0  0  0  0  0  0  0  0  0  0  0  0
   19.2592   -7.8468  -16.5643 C   0  0  1  0  0  0  0  0  0  0  0  0
   18.3762   -6.6580  -16.2722 C   0  0  0  0  0  0  0  0  0  0  0  0
   18.9505   -5.3515  -16.6925 C   0  0  0  0  0  0  0  0  0  0  0  0
   17.9532   -4.2795  -16.3033 C   0  0  0  0  0  0  0  0  0  0  0  0
   18.0964   -3.6453  -15.2282 O   0  0  0  0  0  0  0  0  0  0  0  0
   20.4999   -7.7168  -15.7886 C   0  0  0  0  0  0  0  0  0  0  0  0
   20.4707   -7.9569  -14.5635 O   0  0  0  0  0  0  0  0  0  0  0  0
   16.9022   -4.0364  -17.1657 O   0  0  0  0  0  0  0  0  0  0  0  0
   21.7452   -7.3317  -16.3431 N   0  0  0  0  0  0  0  0  0  0  0  0
   22.9509   -7.2584  -15.5375 C   0  0  1  0  0  0  0  0  0  0  0  0
   24.1893   -7.3457  -16.4057 C   0  0  0  0  0  0  0  0  0  0  0  0
   25.0200   -8.5198  -16.0659 C   0  0  0  0  0  0  0  0  0  0  0  0
   24.7216   -9.4977  -15.1453 C   0  0  0  0  0  0  0  0  0  0  0  0
   25.7296  -10.3654  -15.1361 N   0  0  0  0  0  0  0  0  0  0  0  0
   26.6572   -9.9506  -16.0350 C   0  0  0  0  0  0  0  0  0  0  0  0
   26.2316   -8.8165  -16.6129 N   0  0  0  0  0  0  0  0  0  0  0  0
   22.9349   -6.1080  -14.6320 C   0  0  0  0  0  0  0  0  0  0  0  0
   23.5004   -6.0421  -13.3826 O   0  0  0  0  0  0  0  0  0  0  0  0
   22.3412   -5.0565  -15.0264 O   0  0  0  0  0  0  0  0  0  0  0  0
  2  6  1  0
  2  1  1  6
  3  2  1  0
  3  4  1  0
  4  5  2  0
  6  7  2  0
  8  4  1  0
  9 10  1  0
  9  6  1  0
 10 11  1  1
 11 12  1  0
 12 13  1  0
 13 14  2  0
 13 17  1  0
 15 10  1  0
 16 15  2  0
 18 15  1  0
 19 20  1  6
 19 18  1  0
 20 21  1  0
 21 25  1  0
 21 22  2  0
 22 23  1  0
 24 23  1  0
 25 24  2  0
 26 19  1  0
 27 26  1  0
 28 26  2  0
M  END
$$$$
