WRW.pdb
     RDKit          3D

 40 43  0  0  1  0  0  0  0  0999 V2000
   23.7174  -21.3818  -18.7718 N   0  0  0  0  0  0  0  0  0  0  0  0
   23.7173  -20.6207  -17.5509 C   0  0  1  0  0  0  0  0  0  0  0  0
   22.3821  -20.7372  -16.8019 C   0  0  0  0  0  0  0  0  0  0  0  0
   21.2985  -20.0761  -17.5500 C   0  0  0  0  0  0  0  0  0  0  0  0
   20.2065  -20.7132  -18.1597 C   0  0  0  0  0  0  0  0  0  0  0  0
   19.4210  -19.7931  -18.7283 N   0  0  0  0  0  0  0  0  0  0  0  0
   19.9178  -18.5619  -18.5399 C   0  0  0  0  0  0  0  0  0  0  0  0
   19.4707  -17.3070  -18.9391 C   0  0  0  0  0  0  0  0  0  0  0  0
   20.2286  -16.2207  -18.5830 C   0  0  0  0  0  0  0  0  0  0  0  0
   21.3986  -16.3631  -17.8530 C   0  0  0  0  0  0  0  0  0  0  0  0
   21.8323  -17.5970  -17.4660 C   0  0  0  0  0  0  0  0  0  0  0  0
   21.0971  -18.7313  -17.8015 C   0  0  0  0  0  0  0  0  0  0  0  0
   24.7232  -21.1948  -16.5828 C   0  0  0  0  0  0  0  0  0  0  0  0
   24.8515  -22.4233  -16.5336 O   0  0  0  0  0  0  0  0  0  0  0  0
   31.1571  -23.6749  -15.3106 N   0  0  0  0  0  0  0  0  0  0  0  0
   30.5626  -22.7550  -16.1979 C   0  0  0  0  0  0  0  0  0  0  0  0
   30.6281  -22.8566  -17.4807 N   0  0  0  0  0  0  0  0  0  0  0  0
   29.8539  -21.6466  -15.6479 N   0  0  0  0  0  0  0  0  0  0  0  0
   29.4176  -21.7152  -14.2679 C   0  0  0  0  0  0  0  0  0  0  0  0
   28.7114  -20.4268  -13.9243 C   0  0  0  0  0  0  0  0  0  0  0  0
   27.7125  -20.0989  -14.9616 C   0  0  0  0  0  0  0  0  0  0  0  0
   26.4417  -20.8956  -14.8264 C   0  0  2  0  0  0  0  0  0  0  0  0
   25.4596  -20.3218  -15.7906 N   0  0  0  0  0  0  0  0  0  0  0  0
   25.7812  -20.8598  -13.5400 C   0  0  0  0  0  0  0  0  0  0  0  0
   24.7675  -20.0548  -13.4261 O   0  0  0  0  0  0  0  0  0  0  0  0
   30.1480  -22.2100  -18.1260 N   0  0  0  0  0  0  0  0  0  0  0  0
   26.1584  -21.6270  -12.4361 C   0  0  1  0  0  0  0  0  0  0  0  0
   25.3362  -21.5845  -11.2003 C   0  0  0  0  0  0  0  0  0  0  0  0
   26.2306  -22.1121  -10.1341 C   0  0  0  0  0  0  0  0  0  0  0  0
   26.6398  -21.1618   -9.0988 C   0  0  0  0  0  0  0  0  0  0  0  0
   25.7955  -20.3362   -8.3758 N   0  0  0  0  0  0  0  0  0  0  0  0
   26.5157  -19.5818   -7.5476 C   0  0  0  0  0  0  0  0  0  0  0  0
   27.8447  -19.8662   -7.6796 C   0  0  0  0  0  0  0  0  0  0  0  0
   28.9760  -19.3766   -7.0538 C   0  0  0  0  0  0  0  0  0  0  0  0
   30.2097  -19.8819   -7.3980 C   0  0  0  0  0  0  0  0  0  0  0  0
   30.3130  -20.8662   -8.3573 C   0  0  0  0  0  0  0  0  0  0  0  0
   29.1719  -21.3336   -8.9635 C   0  0  0  0  0  0  0  0  0  0  0  0
   27.8996  -20.8475   -8.6442 C   0  0  0  0  0  0  0  0  0  0  0  0
   24.8375  -20.2220  -11.0392 O   0  0  0  0  0  0  0  0  0  0  0  0
   25.5335  -19.2482  -11.3905 O   0  0  0  0  0  0  0  0  0  0  0  0
  2  1  1  6
  2  3  1  0
  3  4  1  0
  4  5  2  0
  6  5  1  0
  7  6  1  0
  8  7  2  0
  9  8  1  0
 10 11  1  0
 10  9  2  0
 11 12  2  0
 12  7  1  0
 12  4  1  0
 13  2  1  0
 13 14  2  0
 15 16  1  0
 16 18  1  0
 17 16  2  0
 18 19  1  0
 19 20  1  0
 20 21  1  0
 22 21  1  1
 22 23  1  0
 22 24  1  0
 23 13  1  0
 24 25  2  0
 26 24  1  0
 26 27  1  0
 27 38  1  0
 27 28  1  1
 29 28  1  0
 30 29  2  0
 31 30  1  0
 32 31  1  0
 32 37  2  0
 33 32  1  0
 34 33  2  0
 34 35  1  0
 35 36  2  0
 36 37  1  0
 37 29  1  0
 38 40  1  0
 39 38  2  0
M  END
$$$$
