WRW.pdb
     RDKit          3D

 40 43  0  0  1  0  0  0  0  0999 V2000
   29.1035  -21.0216   -9.9953 N   0  0  0  0  0  0  0  0  0  0  0  0
   27.6699  -20.9861   -9.8795 C   0  0  1  0  0  0  0  0  0  0  0  0
   27.1763  -19.6699   -9.2621 C   0  0  0  0  0  0  0  0  0  0  0  0
   27.7350  -19.4784   -7.9122 C   0  0  0  0  0  0  0  0  0  0  0  0
   28.7399  -18.5658   -7.5552 C   0  0  0  0  0  0  0  0  0  0  0  0
   28.9757  -18.6615   -6.2428 N   0  0  0  0  0  0  0  0  0  0  0  0
   28.1860  -19.5904   -5.6845 C   0  0  0  0  0  0  0  0  0  0  0  0
   28.0676  -20.0465   -4.3761 C   0  0  0  0  0  0  0  0  0  0  0  0
   27.1481  -21.0338   -4.1292 C   0  0  0  0  0  0  0  0  0  0  0  0
   26.3640  -21.5618   -5.1431 C   0  0  0  0  0  0  0  0  0  0  0  0
   26.4863  -21.1111   -6.4247 C   0  0  0  0  0  0  0  0  0  0  0  0
   27.4046  -20.1084   -6.7264 C   0  0  0  0  0  0  0  0  0  0  0  0
   27.0393  -20.9982  -11.2508 C   0  0  0  0  0  0  0  0  0  0  0  0
   27.7176  -20.6119  -12.2094 O   0  0  0  0  0  0  0  0  0  0  0  0
   22.9856  -25.2277  -16.4250 N   0  0  0  0  0  0  0  0  0  0  0  0
   23.6852  -25.9934  -15.4702 C   0  0  0  0  0  0  0  0  0  0  0  0
   24.4327  -26.9989  -15.7708 N   0  0  0  0  0  0  0  0  0  0  0  0
   23.5553  -25.6413  -14.0946 N   0  0  0  0  0  0  0  0  0  0  0  0
   22.7720  -24.4731  -13.7463 C   0  0  0  0  0  0  0  0  0  0  0  0
   23.6368  -23.2485  -13.9164 C   0  0  0  0  0  0  0  0  0  0  0  0
   24.3578  -22.9533  -12.6617 C   0  0  0  0  0  0  0  0  0  0  0  0
   25.1979  -21.7062  -12.7460 C   0  0  2  0  0  0  0  0  0  0  0  0
   25.7279  -21.4410  -11.3778 N   0  0  0  0  0  0  0  0  0  0  0  0
   24.5229  -20.4884  -13.1382 C   0  0  0  0  0  0  0  0  0  0  0  0
   23.8924  -19.8431  -12.2030 O   0  0  0  0  0  0  0  0  0  0  0  0
   24.9748  -27.5312  -15.0725 N   0  0  0  0  0  0  0  0  0  0  0  0
   24.5124  -19.9731  -14.4357 C   0  0  2  0  0  0  0  0  0  0  0  0
   23.8009  -18.6991  -14.7112 C   0  0  0  0  0  0  0  0  0  0  0  0
   24.5364  -18.0965  -15.8562 C   0  0  0  0  0  0  0  0  0  0  0  0
   25.1422  -16.7847  -15.6224 C   0  0  0  0  0  0  0  0  0  0  0  0
   26.1519  -16.5071  -14.7164 N   0  0  0  0  0  0  0  0  0  0  0  0
   26.4296  -15.2049  -14.7478 C   0  0  0  0  0  0  0  0  0  0  0  0
   25.6333  -14.5707  -15.6578 C   0  0  0  0  0  0  0  0  0  0  0  0
   25.5382  -13.2528  -16.0644 C   0  0  0  0  0  0  0  0  0  0  0  0
   24.6255  -12.9108  -17.0368 C   0  0  0  0  0  0  0  0  0  0  0  0
   23.8157  -13.8749  -17.5979 C   0  0  0  0  0  0  0  0  0  0  0  0
   23.9313  -15.1768  -17.1740 C   0  0  0  0  0  0  0  0  0  0  0  0
   24.8445  -15.5668  -16.1887 C   0  0  0  0  0  0  0  0  0  0  0  0
   22.3886  -19.0082  -14.9137 O   0  0  0  0  0  0  0  0  0  0  0  0
   22.0384  -20.1414  -15.3002 O   0  0  0  0  0  0  0  0  0  0  0  0
  2  1  1  6
  2  3  1  0
  3  4  1  0
  4  5  2  0
  6  5  1  0
  7  6  1  0
  8  7  2  0
  9  8  1  0
 10 11  1  0
 10  9  2  0
 11 12  2  0
 12  7  1  0
 12  4  1  0
 13  2  1  0
 13 14  2  0
 15 16  1  0
 16 18  1  0
 17 16  2  0
 18 19  1  0
 19 20  1  0
 20 21  1  0
 22 21  1  1
 22 23  1  0
 22 24  1  0
 23 13  1  0
 24 25  2  0
 26 24  1  0
 26 27  1  0
 27 38  1  0
 27 28  1  1
 29 28  1  0
 30 29  2  0
 31 30  1  0
 32 31  1  0
 32 37  2  0
 33 32  1  0
 34 33  2  0
 34 35  1  0
 35 36  2  0
 36 37  1  0
 37 29  1  0
 38 40  1  0
 39 38  2  0
M  END
$$$$
