WRW.pdb
     RDKit          3D

 40 43  0  0  1  0  0  0  0  0999 V2000
   25.8088  -17.6750  -19.6649 N   0  0  0  0  0  0  0  0  0  0  0  0
   26.2354  -18.7996  -18.8753 C   0  0  1  0  0  0  0  0  0  0  0  0
   25.9818  -18.5783  -17.3773 C   0  0  0  0  0  0  0  0  0  0  0  0
   26.7442  -17.4202  -16.8789 C   0  0  0  0  0  0  0  0  0  0  0  0
   26.2234  -16.3388  -16.1511 C   0  0  0  0  0  0  0  0  0  0  0  0
   27.2129  -15.4899  -15.8552 N   0  0  0  0  0  0  0  0  0  0  0  0
   28.3810  -15.9332  -16.3419 C   0  0  0  0  0  0  0  0  0  0  0  0
   29.6674  -15.4067  -16.2974 C   0  0  0  0  0  0  0  0  0  0  0  0
   30.6659  -16.1185  -16.9119 C   0  0  0  0  0  0  0  0  0  0  0  0
   30.4074  -17.3187  -17.5559 C   0  0  0  0  0  0  0  0  0  0  0  0
   29.1431  -17.8288  -17.5972 C   0  0  0  0  0  0  0  0  0  0  0  0
   28.0949  -17.1444  -16.9866 C   0  0  0  0  0  0  0  0  0  0  0  0
   25.3985  -20.0115  -19.2059 C   0  0  0  0  0  0  0  0  0  0  0  0
   24.2203  -19.8356  -19.5365 O   0  0  0  0  0  0  0  0  0  0  0  0
   28.3069  -25.8427  -15.9940 N   0  0  0  0  0  0  0  0  0  0  0  0
   27.5575  -26.6186  -16.9015 C   0  0  0  0  0  0  0  0  0  0  0  0
   27.0071  -27.7424  -16.5943 N   0  0  0  0  0  0  0  0  0  0  0  0
   27.4036  -26.1384  -18.2352 N   0  0  0  0  0  0  0  0  0  0  0  0
   27.9829  -24.8570  -18.5846 C   0  0  0  0  0  0  0  0  0  0  0  0
   26.9442  -23.7853  -18.3627 C   0  0  0  0  0  0  0  0  0  0  0  0
   26.0979  -23.6370  -19.5640 C   0  0  0  0  0  0  0  0  0  0  0  0
   25.1619  -22.4601  -19.4817 C   0  0  2  0  0  0  0  0  0  0  0  0
   25.9850  -21.2691  -19.1250 N   0  0  0  0  0  0  0  0  0  0  0  0
   24.1215  -22.5211  -18.4786 C   0  0  0  0  0  0  0  0  0  0  0  0
   24.2815  -21.7773  -17.4252 O   0  0  0  0  0  0  0  0  0  0  0  0
   26.5314  -28.3475  -17.2818 N   0  0  0  0  0  0  0  0  0  0  0  0
   22.9757  -23.3132  -18.5752 C   0  0  1  0  0  0  0  0  0  0  0  0
   21.9132  -23.1914  -17.5450 C   0  0  0  0  0  0  0  0  0  0  0  0
   21.5617  -21.7453  -17.5351 C   0  0  0  0  0  0  0  0  0  0  0  0
   20.3927  -21.3651  -16.7407 C   0  0  0  0  0  0  0  0  0  0  0  0
   20.0392  -21.8964  -15.5117 N   0  0  0  0  0  0  0  0  0  0  0  0
   18.9009  -21.3410  -15.0998 C   0  0  0  0  0  0  0  0  0  0  0  0
   18.4551  -20.4336  -16.0176 C   0  0  0  0  0  0  0  0  0  0  0  0
   17.3515  -19.6020  -16.0558 C   0  0  0  0  0  0  0  0  0  0  0  0
   17.1732  -18.7664  -17.1354 C   0  0  0  0  0  0  0  0  0  0  0  0
   18.0876  -18.7608  -18.1667 C   0  0  0  0  0  0  0  0  0  0  0  0
   19.1749  -19.5984  -18.1027 C   0  0  0  0  0  0  0  0  0  0  0  0
   19.3936  -20.4632  -17.0250 C   0  0  0  0  0  0  0  0  0  0  0  0
   20.8507  -24.1341  -17.8821 O   0  0  0  0  0  0  0  0  0  0  0  0
   20.5018  -24.2959  -19.0687 O   0  0  0  0  0  0  0  0  0  0  0  0
  2  1  1  6
  2  3  1  0
  3  4  1  0
  4  5  2  0
  6  5  1  0
  7  6  1  0
  8  7  2  0
  9  8  1  0
 10 11  1  0
 10  9  2  0
 11 12  2  0
 12  7  1  0
 12  4  1  0
 13  2  1  0
 13 14  2  0
 15 16  1  0
 16 18  1  0
 17 16  2  0
 18 19  1  0
 19 20  1  0
 20 21  1  0
 22 21  1  1
 22 23  1  0
 22 24  1  0
 23 13  1  0
 24 25  2  0
 26 24  1  0
 26 27  1  0
 27 38  1  0
 27 28  1  6
 29 28  1  0
 30 29  2  0
 31 30  1  0
 32 31  1  0
 32 37  2  0
 33 32  1  0
 34 33  2  0
 34 35  1  0
 35 36  2  0
 36 37  1  0
 37 29  1  0
 38 40  1  0
 39 38  2  0
M  END
$$$$
