WRW.pdb
     RDKit          3D

 40 43  0  0  1  0  0  0  0  0999 V2000
   23.4978  -18.6052  -17.7028 N   0  0  0  0  0  0  0  0  0  0  0  0
   24.8231  -19.0975  -17.4358 C   0  0  1  0  0  0  0  0  0  0  0  0
   25.3238  -18.6744  -16.0474 C   0  0  0  0  0  0  0  0  0  0  0  0
   26.4214  -17.6977  -16.1578 C   0  0  0  0  0  0  0  0  0  0  0  0
   26.2994  -16.3026  -16.0619 C   0  0  0  0  0  0  0  0  0  0  0  0
   27.5073  -15.7449  -16.1930 N   0  0  0  0  0  0  0  0  0  0  0  0
   28.4473  -16.6839  -16.3734 C   0  0  0  0  0  0  0  0  0  0  0  0
   29.8229  -16.5996  -16.5597 C   0  0  0  0  0  0  0  0  0  0  0  0
   30.5137  -17.7729  -16.7251 C   0  0  0  0  0  0  0  0  0  0  0  0
   29.8692  -19.0002  -16.7091 C   0  0  0  0  0  0  0  0  0  0  0  0
   28.5195  -19.0757  -16.5275 C   0  0  0  0  0  0  0  0  0  0  0  0
   27.7733  -17.9127  -16.3533 C   0  0  0  0  0  0  0  0  0  0  0  0
   24.8114  -20.6054  -17.3690 C   0  0  0  0  0  0  0  0  0  0  0  0
   23.7240  -21.1756  -17.2248 O   0  0  0  0  0  0  0  0  0  0  0  0
   29.3843  -27.0957  -15.8994 N   0  0  0  0  0  0  0  0  0  0  0  0
   29.1218  -27.5091  -17.2213 C   0  0  0  0  0  0  0  0  0  0  0  0
   28.9907  -28.7424  -17.5704 N   0  0  0  0  0  0  0  0  0  0  0  0
   29.0001  -26.5093  -18.2307 N   0  0  0  0  0  0  0  0  0  0  0  0
   28.9799  -25.1165  -17.8317 C   0  0  0  0  0  0  0  0  0  0  0  0
   27.5497  -24.7144  -17.5684 C   0  0  0  0  0  0  0  0  0  0  0  0
   27.3975  -23.2512  -17.6999 C   0  0  0  0  0  0  0  0  0  0  0  0
   26.0018  -22.7758  -17.3935 C   0  0  2  0  0  0  0  0  0  0  0  0
   26.0185  -21.2868  -17.4719 N   0  0  0  0  0  0  0  0  0  0  0  0
   25.4794  -23.0844  -16.0804 C   0  0  0  0  0  0  0  0  0  0  0  0
   26.1867  -22.6919  -15.0634 O   0  0  0  0  0  0  0  0  0  0  0  0
   28.8245  -29.0415  -18.5441 N   0  0  0  0  0  0  0  0  0  0  0  0
   24.2815  -23.7621  -15.8454 C   0  0  1  0  0  0  0  0  0  0  0  0
   23.8264  -23.9807  -14.4488 C   0  0  0  0  0  0  0  0  0  0  0  0
   24.0374  -22.6709  -13.7743 C   0  0  0  0  0  0  0  0  0  0  0  0
   22.8423  -21.8580  -13.5433 C   0  0  0  0  0  0  0  0  0  0  0  0
   21.6576  -22.2992  -12.9783 N   0  0  0  0  0  0  0  0  0  0  0  0
   20.7780  -21.2994  -12.9561 C   0  0  0  0  0  0  0  0  0  0  0  0
   21.3270  -20.1709  -13.4942 C   0  0  0  0  0  0  0  0  0  0  0  0
   20.8410  -18.8915  -13.6887 C   0  0  0  0  0  0  0  0  0  0  0  0
   21.6563  -17.9391  -14.2578 C   0  0  0  0  0  0  0  0  0  0  0  0
   22.9442  -18.2607  -14.6289 C   0  0  0  0  0  0  0  0  0  0  0  0
   23.4008  -19.5404  -14.4245 C   0  0  0  0  0  0  0  0  0  0  0  0
   22.6056  -20.5381  -13.8505 C   0  0  0  0  0  0  0  0  0  0  0  0
   22.4607  -24.4943  -14.4967 O   0  0  0  0  0  0  0  0  0  0  0  0
   21.9843  -25.1153  -13.5255 O   0  0  0  0  0  0  0  0  0  0  0  0
  2  1  1  1
  2  3  1  0
  3  4  1  0
  4  5  2  0
  6  5  1  0
  7  6  1  0
  8  7  2  0
  9  8  1  0
 10 11  1  0
 10  9  2  0
 11 12  2  0
 12  7  1  0
 12  4  1  0
 13  2  1  0
 13 14  2  0
 15 16  1  0
 16 18  1  0
 17 16  2  0
 18 19  1  0
 19 20  1  0
 20 21  1  0
 22 21  1  1
 22 23  1  0
 22 24  1  0
 23 13  1  0
 24 25  2  0
 26 24  1  0
 26 27  1  0
 27 38  1  0
 27 28  1  1
 29 28  1  0
 30 29  2  0
 31 30  1  0
 32 31  1  0
 32 37  2  0
 33 32  1  0
 34 33  2  0
 34 35  1  0
 35 36  2  0
 36 37  1  0
 37 29  1  0
 38 40  1  0
 39 38  2  0
M  END
$$$$
