WRW.pdb
     RDKit          3D

 40 43  0  0  1  0  0  0  0  0999 V2000
   22.8763  -19.7454  -16.5959 N   0  0  0  0  0  0  0  0  0  0  0  0
   23.5715  -19.1669  -15.4769 C   0  0  1  0  0  0  0  0  0  0  0  0
   22.6021  -18.6087  -14.4252 C   0  0  0  0  0  0  0  0  0  0  0  0
   21.8898  -17.4260  -14.9397 C   0  0  0  0  0  0  0  0  0  0  0  0
   20.5054  -17.3192  -15.1450 C   0  0  0  0  0  0  0  0  0  0  0  0
   20.2211  -16.0957  -15.6025 N   0  0  0  0  0  0  0  0  0  0  0  0
   21.3367  -15.3614  -15.7209 C   0  0  0  0  0  0  0  0  0  0  0  0
   21.5505  -14.0565  -16.1519 C   0  0  0  0  0  0  0  0  0  0  0  0
   22.8419  -13.5947  -16.1602 C   0  0  0  0  0  0  0  0  0  0  0  0
   23.8990  -14.3953  -15.7558 C   0  0  0  0  0  0  0  0  0  0  0  0
   23.6826  -15.6748  -15.3357 C   0  0  0  0  0  0  0  0  0  0  0  0
   22.3889  -16.1899  -15.3073 C   0  0  0  0  0  0  0  0  0  0  0  0
   24.3330  -20.2360  -14.7317 C   0  0  0  0  0  0  0  0  0  0  0  0
   23.7846  -21.3302  -14.5574 O   0  0  0  0  0  0  0  0  0  0  0  0
   31.3733  -24.0444  -14.2200 N   0  0  0  0  0  0  0  0  0  0  0  0
   30.7916  -23.3031  -15.2685 C   0  0  0  0  0  0  0  0  0  0  0  0
   30.7902  -23.6872  -16.4985 N   0  0  0  0  0  0  0  0  0  0  0  0
   30.1755  -22.0562  -14.9541 N   0  0  0  0  0  0  0  0  0  0  0  0
   30.1093  -21.6430  -13.5669 C   0  0  0  0  0  0  0  0  0  0  0  0
   28.6803  -21.7656  -13.0984 C   0  0  0  0  0  0  0  0  0  0  0  0
   27.8102  -20.8522  -13.8665 C   0  0  0  0  0  0  0  0  0  0  0  0
   26.3521  -20.9995  -13.5199 C   0  0  2  0  0  0  0  0  0  0  0  0
   25.6133  -19.9467  -14.2744 N   0  0  0  0  0  0  0  0  0  0  0  0
   25.9866  -20.8052  -12.1339 C   0  0  0  0  0  0  0  0  0  0  0  0
   25.7274  -19.5870  -11.7635 O   0  0  0  0  0  0  0  0  0  0  0  0
   30.3945  -23.1244  -17.2677 N   0  0  0  0  0  0  0  0  0  0  0  0
   25.8936  -21.8297  -11.1898 C   0  0  1  0  0  0  0  0  0  0  0  0
   25.4531  -21.5130   -9.8075 C   0  0  0  0  0  0  0  0  0  0  0  0
   26.2338  -20.3032   -9.4309 C   0  0  0  0  0  0  0  0  0  0  0  0
   27.5865  -20.5342   -8.9217 C   0  0  0  0  0  0  0  0  0  0  0  0
   28.5982  -21.2095   -9.5834 N   0  0  0  0  0  0  0  0  0  0  0  0
   29.6796  -21.2582   -8.8075 C   0  0  0  0  0  0  0  0  0  0  0  0
   29.4407  -20.6299   -7.6189 C   0  0  0  0  0  0  0  0  0  0  0  0
   30.2247  -20.4029   -6.5032 C   0  0  0  0  0  0  0  0  0  0  0  0
   29.6969  -19.7089   -5.4375 C   0  0  0  0  0  0  0  0  0  0  0  0
   28.3994  -19.2462   -5.4852 C   0  0  0  0  0  0  0  0  0  0  0  0
   27.6429  -19.4871   -6.6066 C   0  0  0  0  0  0  0  0  0  0  0  0
   28.1397  -20.1881   -7.7106 C   0  0  0  0  0  0  0  0  0  0  0  0
   23.9982  -21.3923   -9.8163 O   0  0  0  0  0  0  0  0  0  0  0  0
   23.4132  -20.8670  -10.7847 O   0  0  0  0  0  0  0  0  0  0  0  0
  2  1  1  6
  2  3  1  0
  3  4  1  0
  4  5  2  0
  6  5  1  0
  7  6  1  0
  8  7  2  0
  9  8  1  0
 10 11  1  0
 10  9  2  0
 11 12  2  0
 12  7  1  0
 12  4  1  0
 13  2  1  0
 13 14  2  0
 15 16  1  0
 16 18  1  0
 17 16  2  0
 18 19  1  0
 19 20  1  0
 20 21  1  0
 22 21  1  1
 22 23  1  0
 22 24  1  0
 23 13  1  0
 24 25  2  0
 26 24  1  0
 26 27  1  0
 27 38  1  0
 27 28  1  1
 29 28  1  0
 30 29  2  0
 31 30  1  0
 32 31  1  0
 32 37  2  0
 33 32  1  0
 34 33  2  0
 34 35  1  0
 35 36  2  0
 36 37  1  0
 37 29  1  0
 38 40  1  0
 39 38  2  0
M  END
$$$$
