WRW.pdb
     RDKit          3D

 40 43  0  0  1  0  0  0  0  0999 V2000
   27.4651  -19.1735  -11.4324 N   0  0  0  0  0  0  0  0  0  0  0  0
   27.3071  -20.5826  -11.6760 C   0  0  1  0  0  0  0  0  0  0  0  0
   26.4784  -21.2655  -10.5785 C   0  0  0  0  0  0  0  0  0  0  0  0
   26.9628  -20.8867   -9.2395 C   0  0  0  0  0  0  0  0  0  0  0  0
   26.1868  -20.3477   -8.2016 C   0  0  0  0  0  0  0  0  0  0  0  0
   26.9615  -20.1479   -7.1306 N   0  0  0  0  0  0  0  0  0  0  0  0
   28.2247  -20.5213   -7.3814 C   0  0  0  0  0  0  0  0  0  0  0  0
   29.3738  -20.5010   -6.5983 C   0  0  0  0  0  0  0  0  0  0  0  0
   30.5363  -20.9569   -7.1658 C   0  0  0  0  0  0  0  0  0  0  0  0
   30.5702  -21.4209   -8.4717 C   0  0  0  0  0  0  0  0  0  0  0  0
   29.4397  -21.4366   -9.2348 C   0  0  0  0  0  0  0  0  0  0  0  0
   28.2338  -20.9856   -8.7038 C   0  0  0  0  0  0  0  0  0  0  0  0
   26.4947  -20.8035  -12.9289 C   0  0  0  0  0  0  0  0  0  0  0  0
   25.6193  -19.9774  -13.2110 O   0  0  0  0  0  0  0  0  0  0  0  0
   30.8191  -24.3301  -16.3013 N   0  0  0  0  0  0  0  0  0  0  0  0
   29.6432  -25.0810  -16.5022 C   0  0  0  0  0  0  0  0  0  0  0  0
   29.5177  -26.3161  -16.1571 N   0  0  0  0  0  0  0  0  0  0  0  0
   28.5317  -24.4426  -17.1269 N   0  0  0  0  0  0  0  0  0  0  0  0
   28.6980  -23.0956  -17.6344 C   0  0  0  0  0  0  0  0  0  0  0  0
   27.9056  -22.1538  -16.7617 C   0  0  0  0  0  0  0  0  0  0  0  0
   26.9819  -22.9142  -15.8957 C   0  0  0  0  0  0  0  0  0  0  0  0
   26.1101  -22.0283  -15.0454 C   0  0  2  0  0  0  0  0  0  0  0  0
   26.7638  -21.9216  -13.7095 N   0  0  0  0  0  0  0  0  0  0  0  0
   24.7670  -22.4945  -14.7786 C   0  0  0  0  0  0  0  0  0  0  0  0
   24.4366  -22.6403  -13.5304 O   0  0  0  0  0  0  0  0  0  0  0  0
   28.6685  -26.8729  -16.3415 N   0  0  0  0  0  0  0  0  0  0  0  0
   23.8217  -22.7875  -15.7635 C   0  0  2  0  0  0  0  0  0  0  0  0
   22.3895  -22.4822  -15.5168 C   0  0  0  0  0  0  0  0  0  0  0  0
   22.3696  -21.0408  -15.1470 C   0  0  0  0  0  0  0  0  0  0  0  0
   21.0564  -20.4598  -14.8637 C   0  0  0  0  0  0  0  0  0  0  0  0
   20.1487  -20.9243  -13.9269 N   0  0  0  0  0  0  0  0  0  0  0  0
   19.0485  -20.1747  -13.9663 C   0  0  0  0  0  0  0  0  0  0  0  0
   19.1726  -19.1974  -14.9118 C   0  0  0  0  0  0  0  0  0  0  0  0
   18.3331  -18.1803  -15.3261 C   0  0  0  0  0  0  0  0  0  0  0  0
   18.7519  -17.3210  -16.3171 C   0  0  0  0  0  0  0  0  0  0  0  0
   19.9965  -17.4757  -16.8888 C   0  0  0  0  0  0  0  0  0  0  0  0
   20.8098  -18.4959  -16.4580 C   0  0  0  0  0  0  0  0  0  0  0  0
   20.4232  -19.3911  -15.4549 C   0  0  0  0  0  0  0  0  0  0  0  0
   21.6353  -22.8775  -16.7027 O   0  0  0  0  0  0  0  0  0  0  0  0
   20.5392  -23.4619  -16.5892 O   0  0  0  0  0  0  0  0  0  0  0  0
  2  1  1  1
  2  3  1  0
  3  4  1  0
  4  5  2  0
  6  5  1  0
  7  6  1  0
  8  7  2  0
  9  8  1  0
 10 11  1  0
 10  9  2  0
 11 12  2  0
 12  7  1  0
 12  4  1  0
 13  2  1  0
 13 14  2  0
 15 16  1  0
 16 18  1  0
 17 16  2  0
 18 19  1  0
 19 20  1  0
 20 21  1  0
 22 21  1  6
 22 23  1  0
 22 24  1  0
 23 13  1  0
 24 25  2  0
 26 24  1  0
 26 27  1  0
 27 38  1  0
 27 28  1  1
 29 28  1  0
 30 29  2  0
 31 30  1  0
 32 31  1  0
 32 37  2  0
 33 32  1  0
 34 33  2  0
 34 35  1  0
 35 36  2  0
 36 37  1  0
 37 29  1  0
 38 40  1  0
 39 38  2  0
M  END
$$$$
