WRW.pdb
     RDKit          3D

 40 43  0  0  1  0  0  0  0  0999 V2000
   23.4295  -16.7917  -16.1637 N   0  0  0  0  0  0  0  0  0  0  0  0
   24.6316  -17.3417  -15.5958 C   0  0  1  0  0  0  0  0  0  0  0  0
   25.4556  -16.2783  -14.8558 C   0  0  0  0  0  0  0  0  0  0  0  0
   26.0326  -15.3064  -15.8011 C   0  0  0  0  0  0  0  0  0  0  0  0
   25.6732  -13.9548  -15.9194 C   0  0  0  0  0  0  0  0  0  0  0  0
   26.4208  -13.3817  -16.8681 N   0  0  0  0  0  0  0  0  0  0  0  0
   27.2711  -14.2693  -17.4040 C   0  0  0  0  0  0  0  0  0  0  0  0
   28.2270  -14.1534  -18.4074 C   0  0  0  0  0  0  0  0  0  0  0  0
   28.9434  -15.2765  -18.7339 C   0  0  0  0  0  0  0  0  0  0  0  0
   28.7258  -16.4854  -18.0912 C   0  0  0  0  0  0  0  0  0  0  0  0
   27.7855  -16.5926  -17.1090 C   0  0  0  0  0  0  0  0  0  0  0  0
   27.0330  -15.4804  -16.7398 C   0  0  0  0  0  0  0  0  0  0  0  0
   24.2852  -18.3410  -14.5188 C   0  0  0  0  0  0  0  0  0  0  0  0
   23.2193  -18.1974  -13.9094 O   0  0  0  0  0  0  0  0  0  0  0  0
   25.7021  -26.0293  -13.5470 N   0  0  0  0  0  0  0  0  0  0  0  0
   24.5079  -25.3096  -13.7542 C   0  0  0  0  0  0  0  0  0  0  0  0
   23.3643  -25.6748  -13.2861 N   0  0  0  0  0  0  0  0  0  0  0  0
   24.5649  -24.1140  -14.5292 N   0  0  0  0  0  0  0  0  0  0  0  0
   25.8620  -23.5962  -14.9151 C   0  0  0  0  0  0  0  0  0  0  0  0
   26.0303  -22.2252  -14.3079 C   0  0  0  0  0  0  0  0  0  0  0  0
   24.7272  -21.7083  -13.8431 C   0  0  0  0  0  0  0  0  0  0  0  0
   24.8310  -20.3560  -13.1886 C   0  0  2  0  0  0  0  0  0  0  0  0
   25.1755  -19.3762  -14.2585 N   0  0  0  0  0  0  0  0  0  0  0  0
   25.8537  -20.1954  -12.1783 C   0  0  0  0  0  0  0  0  0  0  0  0
   27.0472  -19.8978  -12.5975 O   0  0  0  0  0  0  0  0  0  0  0  0
   22.4770  -25.2060  -13.5270 N   0  0  0  0  0  0  0  0  0  0  0  0
   25.6379  -20.3342  -10.8059 C   0  0  2  0  0  0  0  0  0  0  0  0
   26.7786  -20.1842   -9.8670 C   0  0  0  0  0  0  0  0  0  0  0  0
   26.1465  -19.9464   -8.5408 C   0  0  0  0  0  0  0  0  0  0  0  0
   27.0241  -19.4450   -7.4822 C   0  0  0  0  0  0  0  0  0  0  0  0
   27.7578  -18.2714   -7.5245 N   0  0  0  0  0  0  0  0  0  0  0  0
   28.4682  -18.1523   -6.4043 C   0  0  0  0  0  0  0  0  0  0  0  0
   28.2434  -19.2197   -5.5829 C   0  0  0  0  0  0  0  0  0  0  0  0
   28.7212  -19.5572   -4.3304 C   0  0  0  0  0  0  0  0  0  0  0  0
   28.2901  -20.7213   -3.7347 C   0  0  0  0  0  0  0  0  0  0  0  0
   27.3908  -21.5403   -4.3831 C   0  0  0  0  0  0  0  0  0  0  0  0
   26.9332  -21.1805   -5.6277 C   0  0  0  0  0  0  0  0  0  0  0  0
   27.3458  -20.0074   -6.2686 C   0  0  0  0  0  0  0  0  0  0  0  0
   27.6276  -21.3644   -9.9997 O   0  0  0  0  0  0  0  0  0  0  0  0
   27.1481  -22.4476  -10.3905 O   0  0  0  0  0  0  0  0  0  0  0  0
  2  1  1  1
  2  3  1  0
  3  4  1  0
  4  5  2  0
  6  5  1  0
  7  6  1  0
  8  7  2  0
  9  8  1  0
 10 11  1  0
 10  9  2  0
 11 12  2  0
 12  7  1  0
 12  4  1  0
 13  2  1  0
 13 14  2  0
 15 16  1  0
 16 18  1  0
 17 16  2  0
 18 19  1  0
 19 20  1  0
 20 21  1  0
 22 21  1  6
 22 23  1  0
 22 24  1  0
 23 13  1  0
 24 25  2  0
 26 24  1  0
 26 27  1  0
 27 38  1  0
 27 28  1  1
 29 28  1  0
 30 29  2  0
 31 30  1  0
 32 31  1  0
 32 37  2  0
 33 32  1  0
 34 33  2  0
 34 35  1  0
 35 36  2  0
 36 37  1  0
 37 29  1  0
 38 40  1  0
 39 38  2  0
M  END
$$$$
