WRW.pdb
     RDKit          3D

 40 43  0  0  1  0  0  0  0  0999 V2000
   27.3842  -22.2083  -18.6651 N   0  0  0  0  0  0  0  0  0  0  0  0
   26.6340  -21.1420  -18.0567 C   0  0  1  0  0  0  0  0  0  0  0  0
   25.3284  -20.8552  -18.8119 C   0  0  0  0  0  0  0  0  0  0  0  0
   25.6028  -20.2710  -20.1365 C   0  0  0  0  0  0  0  0  0  0  0  0
   25.7185  -20.9776  -21.3437 C   0  0  0  0  0  0  0  0  0  0  0  0
   25.9512  -20.1151  -22.3383 N   0  0  0  0  0  0  0  0  0  0  0  0
   26.0009  -18.8578  -21.8751 C   0  0  0  0  0  0  0  0  0  0  0  0
   26.2187  -17.6400  -22.5105 C   0  0  0  0  0  0  0  0  0  0  0  0
   26.2141  -16.5095  -21.7340 C   0  0  0  0  0  0  0  0  0  0  0  0
   26.0016  -16.5729  -20.3655 C   0  0  0  0  0  0  0  0  0  0  0  0
   25.7902  -17.7707  -19.7483 C   0  0  0  0  0  0  0  0  0  0  0  0
   25.7838  -18.9474  -20.4933 C   0  0  0  0  0  0  0  0  0  0  0  0
   26.1697  -21.5551  -16.6811 C   0  0  0  0  0  0  0  0  0  0  0  0
   26.0535  -22.7623  -16.4416 O   0  0  0  0  0  0  0  0  0  0  0  0
   28.2206  -21.8168   -9.0488 N   0  0  0  0  0  0  0  0  0  0  0  0
   28.9888  -21.7783  -10.2301 C   0  0  0  0  0  0  0  0  0  0  0  0
   30.0587  -22.4740  -10.4084 N   0  0  0  0  0  0  0  0  0  0  0  0
   28.5639  -20.9185  -11.2852 N   0  0  0  0  0  0  0  0  0  0  0  0
   27.3268  -20.1809  -11.1263 C   0  0  0  0  0  0  0  0  0  0  0  0
   26.2803  -20.8034  -12.0172 C   0  0  0  0  0  0  0  0  0  0  0  0
   26.5802  -20.5178  -13.4349 C   0  0  0  0  0  0  0  0  0  0  0  0
   25.4941  -20.9802  -14.3701 C   0  0  2  0  0  0  0  0  0  0  0  0
   25.8934  -20.5651  -15.7454 N   0  0  0  0  0  0  0  0  0  0  0  0
   24.1756  -20.4205  -14.1685 C   0  0  0  0  0  0  0  0  0  0  0  0
   24.0162  -19.1713  -14.4888 O   0  0  0  0  0  0  0  0  0  0  0  0
   30.6057  -22.4587  -11.2833 N   0  0  0  0  0  0  0  0  0  0  0  0
   23.0842  -21.1303  -13.6640 C   0  0  1  0  0  0  0  0  0  0  0  0
   21.8203  -20.4114  -13.3621 C   0  0  0  0  0  0  0  0  0  0  0  0
   21.4511  -19.7451  -14.6406 C   0  0  0  0  0  0  0  0  0  0  0  0
   20.8029  -20.5853  -15.6488 C   0  0  0  0  0  0  0  0  0  0  0  0
   19.6840  -21.3761  -15.4484 N   0  0  0  0  0  0  0  0  0  0  0  0
   19.3947  -22.0276  -16.5734 C   0  0  0  0  0  0  0  0  0  0  0  0
   20.2900  -21.7058  -17.5530 C   0  0  0  0  0  0  0  0  0  0  0  0
   20.4173  -22.0958  -18.8731 C   0  0  0  0  0  0  0  0  0  0  0  0
   21.4399  -21.5763  -19.6346 C   0  0  0  0  0  0  0  0  0  0  0  0
   22.3267  -20.6762  -19.0838 C   0  0  0  0  0  0  0  0  0  0  0  0
   22.1767  -20.3069  -17.7689 C   0  0  0  0  0  0  0  0  0  0  0  0
   21.1526  -20.8110  -16.9600 C   0  0  0  0  0  0  0  0  0  0  0  0
   20.8731  -21.3785  -12.8157 O   0  0  0  0  0  0  0  0  0  0  0  0
   21.1318  -22.5986  -12.8372 O   0  0  0  0  0  0  0  0  0  0  0  0
  2  1  1  6
  2  3  1  0
  3  4  1  0
  4  5  2  0
  6  5  1  0
  7  6  1  0
  8  7  2  0
  9  8  1  0
 10 11  1  0
 10  9  2  0
 11 12  2  0
 12  7  1  0
 12  4  1  0
 13  2  1  0
 13 14  2  0
 15 16  1  0
 16 18  1  0
 17 16  2  0
 18 19  1  0
 19 20  1  0
 20 21  1  0
 22 21  1  1
 22 23  1  0
 22 24  1  0
 23 13  1  0
 24 25  2  0
 26 24  1  0
 26 27  1  0
 27 38  1  0
 27 28  1  6
 29 28  1  0
 30 29  2  0
 31 30  1  0
 32 31  1  0
 32 37  2  0
 33 32  1  0
 34 33  2  0
 34 35  1  0
 35 36  2  0
 36 37  1  0
 37 29  1  0
 38 40  1  0
 39 38  2  0
M  END
$$$$
