WRW.pdb
     RDKit          3D

 40 43  0  0  1  0  0  0  0  0999 V2000
   24.4369  -18.8404  -17.5190 N   0  0  0  0  0  0  0  0  0  0  0  0
   25.2129  -18.6157  -16.3284 C   0  0  1  0  0  0  0  0  0  0  0  0
   24.3265  -18.2854  -15.1192 C   0  0  0  0  0  0  0  0  0  0  0  0
   23.6358  -16.9977  -15.3078 C   0  0  0  0  0  0  0  0  0  0  0  0
   22.2584  -16.8204  -15.5116 C   0  0  0  0  0  0  0  0  0  0  0  0
   21.9941  -15.5147  -15.6233 N   0  0  0  0  0  0  0  0  0  0  0  0
   23.1169  -14.7909  -15.5069 C   0  0  0  0  0  0  0  0  0  0  0  0
   23.3502  -13.4208  -15.5578 C   0  0  0  0  0  0  0  0  0  0  0  0
   24.6440  -12.9915  -15.4059 C   0  0  0  0  0  0  0  0  0  0  0  0
   25.6845  -13.8862  -15.2094 C   0  0  0  0  0  0  0  0  0  0  0  0
   25.4490  -15.2289  -15.1620 C   0  0  0  0  0  0  0  0  0  0  0  0
   24.1522  -15.7149  -15.3094 C   0  0  0  0  0  0  0  0  0  0  0  0
   25.9161  -19.8878  -15.9212 C   0  0  0  0  0  0  0  0  0  0  0  0
   25.4386  -20.9650  -16.2953 O   0  0  0  0  0  0  0  0  0  0  0  0
   32.8267  -22.2024  -12.4568 N   0  0  0  0  0  0  0  0  0  0  0  0
   32.3100  -23.3227  -13.1387 C   0  0  0  0  0  0  0  0  0  0  0  0
   32.2274  -24.4988  -12.6189 N   0  0  0  0  0  0  0  0  0  0  0  0
   31.8587  -23.1487  -14.4800 N   0  0  0  0  0  0  0  0  0  0  0  0
   31.1310  -21.9422  -14.8184 C   0  0  0  0  0  0  0  0  0  0  0  0
   29.9738  -21.7966  -13.8612 C   0  0  0  0  0  0  0  0  0  0  0  0
   29.1352  -20.6428  -14.2445 C   0  0  0  0  0  0  0  0  0  0  0  0
   27.8026  -21.0491  -14.8165 C   0  0  2  0  0  0  0  0  0  0  0  0
   27.0660  -19.7952  -15.1459 N   0  0  0  0  0  0  0  0  0  0  0  0
   26.9188  -21.7958  -13.9484 C   0  0  0  0  0  0  0  0  0  0  0  0
   26.7628  -23.0571  -14.2190 O   0  0  0  0  0  0  0  0  0  0  0  0
   31.8797  -25.3230  -13.1334 N   0  0  0  0  0  0  0  0  0  0  0  0
   26.2398  -21.2532  -12.8557 C   0  0  1  0  0  0  0  0  0  0  0  0
   25.2914  -22.1008  -12.0893 C   0  0  0  0  0  0  0  0  0  0  0  0
   26.0508  -22.5160  -10.8785 C   0  0  0  0  0  0  0  0  0  0  0  0
   26.4731  -21.4440   -9.9759 C   0  0  0  0  0  0  0  0  0  0  0  0
   25.6368  -20.5414   -9.3409 N   0  0  0  0  0  0  0  0  0  0  0  0
   26.3674  -19.6872   -8.6265 C   0  0  0  0  0  0  0  0  0  0  0  0
   27.6958  -19.9775   -8.7516 C   0  0  0  0  0  0  0  0  0  0  0  0
   28.8355  -19.4084   -8.2147 C   0  0  0  0  0  0  0  0  0  0  0  0
   30.0662  -19.9444   -8.5211 C   0  0  0  0  0  0  0  0  0  0  0  0
   30.1581  -21.0378   -9.3553 C   0  0  0  0  0  0  0  0  0  0  0  0
   29.0089  -21.5826   -9.8753 C   0  0  0  0  0  0  0  0  0  0  0  0
   27.7393  -21.0689   -9.5902 C   0  0  0  0  0  0  0  0  0  0  0  0
   24.0695  -21.3302  -11.8789 O   0  0  0  0  0  0  0  0  0  0  0  0
   23.9963  -20.1444  -12.2592 O   0  0  0  0  0  0  0  0  0  0  0  0
  2  1  1  6
  2  3  1  0
  3  4  1  0
  4  5  2  0
  6  5  1  0
  7  6  1  0
  8  7  2  0
  9  8  1  0
 10 11  1  0
 10  9  2  0
 11 12  2  0
 12  7  1  0
 12  4  1  0
 13  2  1  0
 13 14  2  0
 15 16  1  0
 16 18  1  0
 17 16  2  0
 18 19  1  0
 19 20  1  0
 20 21  1  0
 22 21  1  1
 22 23  1  0
 22 24  1  0
 23 13  1  0
 24 25  2  0
 26 24  1  0
 26 27  1  0
 27 38  1  0
 27 28  1  1
 29 28  1  0
 30 29  2  0
 31 30  1  0
 32 31  1  0
 32 37  2  0
 33 32  1  0
 34 33  2  0
 34 35  1  0
 35 36  2  0
 36 37  1  0
 37 29  1  0
 38 40  1  0
 39 38  2  0
M  END
$$$$
