WRW.pdb
     RDKit          3D

 40 43  0  0  1  0  0  0  0  0999 V2000
   22.1489  -22.4833  -18.5875 N   0  0  0  0  0  0  0  0  0  0  0  0
   22.8526  -21.3664  -18.0154 C   0  0  1  0  0  0  0  0  0  0  0  0
   21.8961  -20.3604  -17.3592 C   0  0  0  0  0  0  0  0  0  0  0  0
   21.2639  -19.4965  -18.3716 C   0  0  0  0  0  0  0  0  0  0  0  0
   20.1688  -19.8364  -19.1811 C   0  0  0  0  0  0  0  0  0  0  0  0
   19.8609  -18.7978  -19.9644 N   0  0  0  0  0  0  0  0  0  0  0  0
   20.6870  -17.7671  -19.7336 C   0  0  0  0  0  0  0  0  0  0  0  0
   20.7677  -16.4961  -20.2924 C   0  0  0  0  0  0  0  0  0  0  0  0
   21.7533  -15.6615  -19.8306 C   0  0  0  0  0  0  0  0  0  0  0  0
   22.6396  -16.0654  -18.8441 C   0  0  0  0  0  0  0  0  0  0  0  0
   22.5558  -17.3139  -18.3013 C   0  0  0  0  0  0  0  0  0  0  0  0
   21.5713  -18.1982  -18.7352 C   0  0  0  0  0  0  0  0  0  0  0  0
   23.7222  -21.8325  -16.8731 C   0  0  0  0  0  0  0  0  0  0  0  0
   23.3497  -22.8117  -16.2169 O   0  0  0  0  0  0  0  0  0  0  0  0
   30.5209  -24.4417  -16.8443 N   0  0  0  0  0  0  0  0  0  0  0  0
   30.3184  -23.6964  -18.0236 C   0  0  0  0  0  0  0  0  0  0  0  0
   30.5727  -24.1458  -19.2041 N   0  0  0  0  0  0  0  0  0  0  0  0
   29.8097  -22.3696  -17.9058 N   0  0  0  0  0  0  0  0  0  0  0  0
   29.3619  -21.9087  -16.6071 C   0  0  0  0  0  0  0  0  0  0  0  0
   27.9168  -22.3052  -16.4304 C   0  0  0  0  0  0  0  0  0  0  0  0
   27.1633  -21.2143  -15.7796 C   0  0  0  0  0  0  0  0  0  0  0  0
   25.7407  -21.5918  -15.4605 C   0  0  2  0  0  0  0  0  0  0  0  0
   24.9002  -21.1441  -16.6079 N   0  0  0  0  0  0  0  0  0  0  0  0
   25.1488  -20.9807  -14.2906 C   0  0  0  0  0  0  0  0  0  0  0  0
   24.0624  -20.2928  -14.4775 O   0  0  0  0  0  0  0  0  0  0  0  0
   30.5064  -23.5686  -20.0570 N   0  0  0  0  0  0  0  0  0  0  0  0
   25.6633  -21.0876  -12.9970 C   0  0  2  0  0  0  0  0  0  0  0  0
   24.9420  -20.4478  -11.8676 C   0  0  0  0  0  0  0  0  0  0  0  0
   23.6079  -21.1074  -11.8505 C   0  0  0  0  0  0  0  0  0  0  0  0
   22.7480  -20.8066  -10.7049 C   0  0  0  0  0  0  0  0  0  0  0  0
   21.4781  -20.2578  -10.7656 N   0  0  0  0  0  0  0  0  0  0  0  0
   21.0082  -20.0906   -9.5306 C   0  0  0  0  0  0  0  0  0  0  0  0
   21.9258  -20.5125   -8.6116 C   0  0  0  0  0  0  0  0  0  0  0  0
   21.9173  -20.5589   -7.2300 C   0  0  0  0  0  0  0  0  0  0  0  0
   23.0124  -21.0634   -6.5650 C   0  0  0  0  0  0  0  0  0  0  0  0
   24.1049  -21.5171   -7.2723 C   0  0  0  0  0  0  0  0  0  0  0  0
   24.0863  -21.4583   -8.6449 C   0  0  0  0  0  0  0  0  0  0  0  0
   22.9950  -20.9528   -9.3595 C   0  0  0  0  0  0  0  0  0  0  0  0
   25.7688  -20.5835  -10.6722 O   0  0  0  0  0  0  0  0  0  0  0  0
   26.5058  -21.5787  -10.5226 O   0  0  0  0  0  0  0  0  0  0  0  0
  2  1  1  1
  2  3  1  0
  3  4  1  0
  4  5  2  0
  6  5  1  0
  7  6  1  0
  8  7  2  0
  9  8  1  0
 10 11  1  0
 10  9  2  0
 11 12  2  0
 12  7  1  0
 12  4  1  0
 13  2  1  0
 13 14  2  0
 15 16  1  0
 16 18  1  0
 17 16  2  0
 18 19  1  0
 19 20  1  0
 20 21  1  0
 22 21  1  6
 22 23  1  0
 22 24  1  0
 23 13  1  0
 24 25  2  0
 26 24  1  0
 26 27  1  0
 27 38  1  0
 27 28  1  6
 29 28  1  0
 30 29  2  0
 31 30  1  0
 32 31  1  0
 32 37  2  0
 33 32  1  0
 34 33  2  0
 34 35  1  0
 35 36  2  0
 36 37  1  0
 37 29  1  0
 38 40  1  0
 39 38  2  0
M  END
$$$$
