WRW.pdb
     RDKit          3D

 40 43  0  0  1  0  0  0  0  0999 V2000
   24.3778  -17.7408  -16.0967 N   0  0  0  0  0  0  0  0  0  0  0  0
   25.2744  -18.3456  -15.1478 C   0  0  1  0  0  0  0  0  0  0  0  0
   26.0024  -17.2958  -14.2961 C   0  0  0  0  0  0  0  0  0  0  0  0
   26.9959  -16.5619  -15.0994 C   0  0  0  0  0  0  0  0  0  0  0  0
   27.0367  -15.1727  -15.2961 C   0  0  0  0  0  0  0  0  0  0  0  0
   28.0869  -14.8675  -16.0650 N   0  0  0  0  0  0  0  0  0  0  0  0
   28.7651  -15.9734  -16.4042 C   0  0  0  0  0  0  0  0  0  0  0  0
   29.9027  -16.1658  -17.1806 C   0  0  0  0  0  0  0  0  0  0  0  0
   30.3497  -17.4523  -17.3431 C   0  0  0  0  0  0  0  0  0  0  0  0
   29.6948  -18.5249  -16.7579 C   0  0  0  0  0  0  0  0  0  0  0  0
   28.5786  -18.3293  -15.9987 C   0  0  0  0  0  0  0  0  0  0  0  0
   28.0859  -17.0416  -15.8023 C   0  0  0  0  0  0  0  0  0  0  0  0
   24.4930  -19.1491  -14.1367 C   0  0  0  0  0  0  0  0  0  0  0  0
   23.3001  -18.8728  -13.9666 O   0  0  0  0  0  0  0  0  0  0  0  0
   25.3380  -23.6410  -17.1228 N   0  0  0  0  0  0  0  0  0  0  0  0
   26.1908  -24.4952  -16.3948 C   0  0  0  0  0  0  0  0  0  0  0  0
   27.2847  -24.9843  -16.8686 N   0  0  0  0  0  0  0  0  0  0  0  0
   25.8218  -24.8435  -15.0622 N   0  0  0  0  0  0  0  0  0  0  0  0
   24.6657  -24.2015  -14.4700 C   0  0  0  0  0  0  0  0  0  0  0  0
   25.1062  -22.8974  -13.8521 C   0  0  0  0  0  0  0  0  0  0  0  0
   23.9721  -22.2494  -13.1627 C   0  0  0  0  0  0  0  0  0  0  0  0
   24.3601  -20.9715  -12.4666 C   0  0  2  0  0  0  0  0  0  0  0  0
   25.1447  -20.1615  -13.4421 N   0  0  0  0  0  0  0  0  0  0  0  0
   25.2074  -21.0933  -11.3006 C   0  0  0  0  0  0  0  0  0  0  0  0
   26.4482  -21.4165  -11.5116 O   0  0  0  0  0  0  0  0  0  0  0  0
   27.8552  -25.6851  -16.3701 N   0  0  0  0  0  0  0  0  0  0  0  0
   24.7804  -20.8841   -9.9878 C   0  0  1  0  0  0  0  0  0  0  0  0
   25.6918  -21.2095   -8.8615 C   0  0  0  0  0  0  0  0  0  0  0  0
   26.7799  -20.1982   -8.9528 C   0  0  0  0  0  0  0  0  0  0  0  0
   27.9375  -20.4075   -8.0818 C   0  0  0  0  0  0  0  0  0  0  0  0
   29.0502  -21.1753   -8.3816 N   0  0  0  0  0  0  0  0  0  0  0  0
   29.8860  -21.1679   -7.3447 C   0  0  0  0  0  0  0  0  0  0  0  0
   29.3773  -20.4100   -6.3292 C   0  0  0  0  0  0  0  0  0  0  0  0
   29.8519  -20.0845   -5.0723 C   0  0  0  0  0  0  0  0  0  0  0  0
   29.1005  -19.2671   -4.2580 C   0  0  0  0  0  0  0  0  0  0  0  0
   27.8874  -18.7795   -4.6941 C   0  0  0  0  0  0  0  0  0  0  0  0
   27.4398  -19.1200   -5.9478 C   0  0  0  0  0  0  0  0  0  0  0  0
   28.1711  -19.9477   -6.8064 C   0  0  0  0  0  0  0  0  0  0  0  0
   24.9005  -21.2295   -7.6349 O   0  0  0  0  0  0  0  0  0  0  0  0
   25.4412  -21.4732   -6.5375 O   0  0  0  0  0  0  0  0  0  0  0  0
  2  1  1  6
  2  3  1  0
  3  4  1  0
  4  5  2  0
  6  5  1  0
  7  6  1  0
  8  7  2  0
  9  8  1  0
 10 11  1  0
 10  9  2  0
 11 12  2  0
 12  7  1  0
 12  4  1  0
 13  2  1  0
 13 14  2  0
 15 16  1  0
 16 18  1  0
 17 16  2  0
 18 19  1  0
 19 20  1  0
 20 21  1  0
 22 21  1  6
 22 23  1  0
 22 24  1  0
 23 13  1  0
 24 25  2  0
 26 24  1  0
 26 27  1  0
 27 38  1  0
 27 28  1  1
 29 28  1  0
 30 29  2  0
 31 30  1  0
 32 31  1  0
 32 37  2  0
 33 32  1  0
 34 33  2  0
 34 35  1  0
 35 36  2  0
 36 37  1  0
 37 29  1  0
 38 40  1  0
 39 38  2  0
M  END
$$$$
