WRW.pdb
     RDKit          3D

 40 43  0  0  1  0  0  0  0  0999 V2000
   28.3879  -19.6686  -10.0720 N   0  0  0  0  0  0  0  0  0  0  0  0
   27.2646  -20.5575   -9.9380 C   0  0  1  0  0  0  0  0  0  0  0  0
   26.3275  -20.1307   -8.7991 C   0  0  0  0  0  0  0  0  0  0  0  0
   27.0935  -19.6107   -7.6529 C   0  0  0  0  0  0  0  0  0  0  0  0
   27.5127  -18.2833   -7.4726 C   0  0  0  0  0  0  0  0  0  0  0  0
   28.1652  -18.1816   -6.3103 N   0  0  0  0  0  0  0  0  0  0  0  0
   28.2143  -19.3680   -5.6873 C   0  0  0  0  0  0  0  0  0  0  0  0
   28.7782  -19.7616   -4.4785 C   0  0  0  0  0  0  0  0  0  0  0  0
   28.6574  -21.0804   -4.1217 C   0  0  0  0  0  0  0  0  0  0  0  0
   27.9993  -21.9918   -4.9330 C   0  0  0  0  0  0  0  0  0  0  0  0
   27.4497  -21.5994   -6.1181 C   0  0  0  0  0  0  0  0  0  0  0  0
   27.5442  -20.2706   -6.5244 C   0  0  0  0  0  0  0  0  0  0  0  0
   26.3932  -20.4797  -11.1681 C   0  0  0  0  0  0  0  0  0  0  0  0
   26.1808  -19.3676  -11.6644 O   0  0  0  0  0  0  0  0  0  0  0  0
   27.0694  -26.2787  -15.7844 N   0  0  0  0  0  0  0  0  0  0  0  0
   25.6758  -26.3548  -15.5861 C   0  0  0  0  0  0  0  0  0  0  0  0
   25.0504  -27.4518  -15.3300 N   0  0  0  0  0  0  0  0  0  0  0  0
   24.9131  -25.1536  -15.6796 N   0  0  0  0  0  0  0  0  0  0  0  0
   25.6009  -23.9143  -15.9802 C   0  0  0  0  0  0  0  0  0  0  0  0
   24.9874  -22.8128  -15.1513 C   0  0  0  0  0  0  0  0  0  0  0  0
   25.6900  -22.6946  -13.8575 C   0  0  0  0  0  0  0  0  0  0  0  0
   25.1399  -21.5947  -12.9884 C   0  0  2  0  0  0  0  0  0  0  0  0
   25.8683  -21.6567  -11.6889 N   0  0  0  0  0  0  0  0  0  0  0  0
   23.7368  -21.6724  -12.6453 C   0  0  0  0  0  0  0  0  0  0  0  0
   23.3635  -22.6995  -11.9422 O   0  0  0  0  0  0  0  0  0  0  0  0
   24.0291  -27.5031  -15.1908 N   0  0  0  0  0  0  0  0  0  0  0  0
   22.7792  -20.7254  -13.0139 C   0  0  2  0  0  0  0  0  0  0  0  0
   21.3869  -20.8608  -12.5156 C   0  0  0  0  0  0  0  0  0  0  0  0
   20.8311  -19.4813  -12.5707 C   0  0  0  0  0  0  0  0  0  0  0  0
   20.6686  -18.8980  -13.9033 C   0  0  0  0  0  0  0  0  0  0  0  0
   19.6328  -19.1618  -14.7837 N   0  0  0  0  0  0  0  0  0  0  0  0
   19.8273  -18.4829  -15.9129 C   0  0  0  0  0  0  0  0  0  0  0  0
   20.9780  -17.7517  -15.8359 C   0  0  0  0  0  0  0  0  0  0  0  0
   21.6043  -16.8917  -16.7186 C   0  0  0  0  0  0  0  0  0  0  0  0
   22.7766  -16.2751  -16.3429 C   0  0  0  0  0  0  0  0  0  0  0  0
   23.3183  -16.5146  -15.0982 C   0  0  0  0  0  0  0  0  0  0  0  0
   22.6747  -17.3746  -14.2415 C   0  0  0  0  0  0  0  0  0  0  0  0
   21.4827  -18.0221  -14.5835 C   0  0  0  0  0  0  0  0  0  0  0  0
   20.7199  -21.8816  -13.3183 O   0  0  0  0  0  0  0  0  0  0  0  0
   19.6678  -22.4161  -12.9142 O   0  0  0  0  0  0  0  0  0  0  0  0
  2  1  1  6
  2  3  1  0
  3  4  1  0
  4  5  2  0
  6  5  1  0
  7  6  1  0
  8  7  2  0
  9  8  1  0
 10 11  1  0
 10  9  2  0
 11 12  2  0
 12  7  1  0
 12  4  1  0
 13  2  1  0
 13 14  2  0
 15 16  1  0
 16 18  1  0
 17 16  2  0
 18 19  1  0
 19 20  1  0
 20 21  1  0
 22 21  1  6
 22 23  1  0
 22 24  1  0
 23 13  1  0
 24 25  2  0
 26 24  1  0
 26 27  1  0
 27 38  1  0
 27 28  1  6
 29 28  1  0
 30 29  2  0
 31 30  1  0
 32 31  1  0
 32 37  2  0
 33 32  1  0
 34 33  2  0
 34 35  1  0
 35 36  2  0
 36 37  1  0
 37 29  1  0
 38 40  1  0
 39 38  2  0
M  END
$$$$
