WRW.pdb
     RDKit          3D

 40 43  0  0  1  0  0  0  0  0999 V2000
   22.8132  -22.1789  -15.8982 N   0  0  0  0  0  0  0  0  0  0  0  0
   23.4295  -21.1217  -15.1414 C   0  0  1  0  0  0  0  0  0  0  0  0
   22.4794  -20.5449  -14.0822 C   0  0  0  0  0  0  0  0  0  0  0  0
   21.4817  -19.6528  -14.6985 C   0  0  0  0  0  0  0  0  0  0  0  0
   20.1747  -20.0053  -15.0694 C   0  0  0  0  0  0  0  0  0  0  0  0
   19.5575  -18.9344  -15.5788 N   0  0  0  0  0  0  0  0  0  0  0  0
   20.3727  -17.8698  -15.5759 C   0  0  0  0  0  0  0  0  0  0  0  0
   20.1917  -16.5581  -16.0009 C   0  0  0  0  0  0  0  0  0  0  0  0
   21.2487  -15.6950  -15.8631 C   0  0  0  0  0  0  0  0  0  0  0  0
   22.4555  -16.1100  -15.3216 C   0  0  0  0  0  0  0  0  0  0  0  0
   22.6269  -17.3985  -14.9081 C   0  0  0  0  0  0  0  0  0  0  0  0
   21.5832  -18.3130  -15.0254 C   0  0  0  0  0  0  0  0  0  0  0  0
   24.5806  -21.6677  -14.3319 C   0  0  0  0  0  0  0  0  0  0  0  0
   24.5692  -22.8678  -14.0355 O   0  0  0  0  0  0  0  0  0  0  0  0
   31.8089  -22.8634  -13.2571 N   0  0  0  0  0  0  0  0  0  0  0  0
   31.3558  -22.4016  -14.5095 C   0  0  0  0  0  0  0  0  0  0  0  0
   31.4791  -23.0706  -15.6039 N   0  0  0  0  0  0  0  0  0  0  0  0
   30.7314  -21.1213  -14.5724 N   0  0  0  0  0  0  0  0  0  0  0  0
   30.4043  -20.4450  -13.3334 C   0  0  0  0  0  0  0  0  0  0  0  0
   29.1525  -21.0663  -12.7646 C   0  0  0  0  0  0  0  0  0  0  0  0
   27.9801  -20.6943  -13.5822 C   0  0  0  0  0  0  0  0  0  0  0  0
   26.7030  -21.3325  -13.1028 C   0  0  2  0  0  0  0  0  0  0  0  0
   25.6006  -20.8019  -13.9552 N   0  0  0  0  0  0  0  0  0  0  0  0
   26.3031  -21.0524  -11.7412 C   0  0  0  0  0  0  0  0  0  0  0  0
   25.4784  -20.0636  -11.5663 O   0  0  0  0  0  0  0  0  0  0  0  0
   31.1223  -22.7397  -16.5140 N   0  0  0  0  0  0  0  0  0  0  0  0
   26.7390  -21.7703  -10.6258 C   0  0  2  0  0  0  0  0  0  0  0  0
   26.2871  -21.3628   -9.2712 C   0  0  0  0  0  0  0  0  0  0  0  0
   27.4704  -21.5852   -8.3963 C   0  0  0  0  0  0  0  0  0  0  0  0
   27.6527  -20.6383   -7.2952 C   0  0  0  0  0  0  0  0  0  0  0  0
   26.7503  -19.6626   -6.9063 N   0  0  0  0  0  0  0  0  0  0  0  0
   27.2615  -18.9645   -5.8938 C   0  0  0  0  0  0  0  0  0  0  0  0
   28.5018  -19.4350   -5.5702 C   0  0  0  0  0  0  0  0  0  0  0  0
   29.4235  -19.0671   -4.6078 C   0  0  0  0  0  0  0  0  0  0  0  0
   30.6119  -19.7560   -4.5132 C   0  0  0  0  0  0  0  0  0  0  0  0
   30.8775  -20.8018   -5.3708 C   0  0  0  0  0  0  0  0  0  0  0  0
   29.9435  -21.1453   -6.3183 C   0  0  0  0  0  0  0  0  0  0  0  0
   28.7244  -20.4716   -6.4490 C   0  0  0  0  0  0  0  0  0  0  0  0
   25.7703  -20.0004   -9.3611 O   0  0  0  0  0  0  0  0  0  0  0  0
   26.3777  -19.1362  -10.0244 O   0  0  0  0  0  0  0  0  0  0  0  0
  2  1  1  1
  2  3  1  0
  3  4  1  0
  4  5  2  0
  6  5  1  0
  7  6  1  0
  8  7  2  0
  9  8  1  0
 10 11  1  0
 10  9  2  0
 11 12  2  0
 12  7  1  0
 12  4  1  0
 13  2  1  0
 13 14  2  0
 15 16  1  0
 16 18  1  0
 17 16  2  0
 18 19  1  0
 19 20  1  0
 20 21  1  0
 22 21  1  6
 22 23  1  0
 22 24  1  0
 23 13  1  0
 24 25  2  0
 26 24  1  0
 26 27  1  0
 27 38  1  0
 27 28  1  1
 29 28  1  0
 30 29  2  0
 31 30  1  0
 32 31  1  0
 32 37  2  0
 33 32  1  0
 34 33  2  0
 34 35  1  0
 35 36  2  0
 36 37  1  0
 37 29  1  0
 38 40  1  0
 39 38  2  0
M  END
$$$$
