WRW.pdb
     RDKit          3D

 40 43  0  0  1  0  0  0  0  0999 V2000
   27.4792  -22.2457  -11.0844 N   0  0  0  0  0  0  0  0  0  0  0  0
   26.7790  -21.0249  -10.7856 C   0  0  1  0  0  0  0  0  0  0  0  0
   27.7286  -19.9253  -10.2889 C   0  0  0  0  0  0  0  0  0  0  0  0
   28.5329  -20.3987   -9.1488 C   0  0  0  0  0  0  0  0  0  0  0  0
   29.6947  -21.1827   -9.2254 C   0  0  0  0  0  0  0  0  0  0  0  0
   30.1609  -21.4009   -7.9917 N   0  0  0  0  0  0  0  0  0  0  0  0
   29.3800  -20.8084   -7.0767 C   0  0  0  0  0  0  0  0  0  0  0  0
   29.4488  -20.7554   -5.6887 C   0  0  0  0  0  0  0  0  0  0  0  0
   28.4693  -20.0557   -5.0313 C   0  0  0  0  0  0  0  0  0  0  0  0
   27.4456  -19.4237   -5.7202 C   0  0  0  0  0  0  0  0  0  0  0  0
   27.3832  -19.4809   -7.0815 C   0  0  0  0  0  0  0  0  0  0  0  0
   28.3551  -20.1777   -7.7953 C   0  0  0  0  0  0  0  0  0  0  0  0
   26.1874  -20.4452  -12.0475 C   0  0  0  0  0  0  0  0  0  0  0  0
   25.7679  -19.2827  -12.0158 O   0  0  0  0  0  0  0  0  0  0  0  0
   30.4633  -22.8715  -15.5089 N   0  0  0  0  0  0  0  0  0  0  0  0
   29.7987  -23.6916  -16.4431 C   0  0  0  0  0  0  0  0  0  0  0  0
   30.1088  -24.9235  -16.6590 N   0  0  0  0  0  0  0  0  0  0  0  0
   28.7275  -23.1274  -17.1964 N   0  0  0  0  0  0  0  0  0  0  0  0
   28.2599  -21.7993  -16.8539 C   0  0  0  0  0  0  0  0  0  0  0  0
   27.2283  -21.9221  -15.7598 C   0  0  0  0  0  0  0  0  0  0  0  0
   26.6454  -20.5995  -15.4559 C   0  0  0  0  0  0  0  0  0  0  0  0
   25.5462  -20.6638  -14.4284 C   0  0  2  0  0  0  0  0  0  0  0  0
   26.1391  -21.2393  -13.1872 N   0  0  0  0  0  0  0  0  0  0  0  0
   24.4112  -21.5058  -14.7369 C   0  0  0  0  0  0  0  0  0  0  0  0
   24.6020  -22.7896  -14.6732 O   0  0  0  0  0  0  0  0  0  0  0  0
   29.5789  -25.5383  -17.2964 N   0  0  0  0  0  0  0  0  0  0  0  0
   23.1464  -21.0302  -15.0882 C   0  0  1  0  0  0  0  0  0  0  0  0
   21.9625  -21.9119  -14.9270 C   0  0  0  0  0  0  0  0  0  0  0  0
   21.9995  -22.3356  -13.5008 C   0  0  0  0  0  0  0  0  0  0  0  0
   21.4615  -21.3857  -12.5256 C   0  0  0  0  0  0  0  0  0  0  0  0
   20.3339  -20.6001  -12.6951 N   0  0  0  0  0  0  0  0  0  0  0  0
   20.1633  -19.8323  -11.6202 C   0  0  0  0  0  0  0  0  0  0  0  0
   21.1497  -20.0681  -10.7059 C   0  0  0  0  0  0  0  0  0  0  0  0
   21.4112  -19.5478   -9.4522 C   0  0  0  0  0  0  0  0  0  0  0  0
   22.5011  -20.0049   -8.7458 C   0  0  0  0  0  0  0  0  0  0  0  0
   23.3218  -20.9718   -9.2857 C   0  0  0  0  0  0  0  0  0  0  0  0
   23.0384  -21.4705  -10.5342 C   0  0  0  0  0  0  0  0  0  0  0  0
   21.9422  -21.0337  -11.2856 C   0  0  0  0  0  0  0  0  0  0  0  0
   20.7864  -21.1707  -15.3727 O   0  0  0  0  0  0  0  0  0  0  0  0
   19.7049  -21.7600  -15.5702 O   0  0  0  0  0  0  0  0  0  0  0  0
  2  1  1  6
  2  3  1  0
  3  4  1  0
  4  5  2  0
  6  5  1  0
  7  6  1  0
  8  7  2  0
  9  8  1  0
 10 11  1  0
 10  9  2  0
 11 12  2  0
 12  7  1  0
 12  4  1  0
 13  2  1  0
 13 14  2  0
 15 16  1  0
 16 18  1  0
 17 16  2  0
 18 19  1  0
 19 20  1  0
 20 21  1  0
 22 21  1  6
 22 23  1  0
 22 24  1  0
 23 13  1  0
 24 25  2  0
 26 24  1  0
 26 27  1  0
 27 38  1  0
 27 28  1  6
 29 28  1  0
 30 29  2  0
 31 30  1  0
 32 31  1  0
 32 37  2  0
 33 32  1  0
 34 33  2  0
 34 35  1  0
 35 36  2  0
 36 37  1  0
 37 29  1  0
 38 40  1  0
 39 38  2  0
M  END
$$$$
