AQE.pdb
     RDKit          3D

 24 23  0  0  1  0  0  0  0  0999 V2000
    9.7583  -17.8166   15.5105 C   0  0  0  0  0  0  0  0  0  0  0  0
    9.6336  -16.3237   15.2568 C   0  0  2  0  0  0  0  0  0  0  0  0
   10.6175  -15.9490   14.2832 N   0  0  0  0  0  0  0  0  0  0  0  0
    9.8663  -15.5984   16.5667 C   0  0  0  0  0  0  0  0  0  0  0  0
   11.0345  -15.3335   16.9408 O   0  0  0  0  0  0  0  0  0  0  0  0
    8.6737  -11.7270   19.5177 N   0  0  0  0  0  0  0  0  0  0  0  0
    8.1572  -12.3441   20.6959 C   0  0  0  0  0  0  0  0  0  0  0  0
    8.3172  -11.7294   21.7669 O   0  0  0  0  0  0  0  0  0  0  0  0
    7.4660  -13.6698   20.5751 C   0  0  0  0  0  0  0  0  0  0  0  0
    7.4314  -14.2051   19.1874 C   0  0  0  0  0  0  0  0  0  0  0  0
    8.8283  -14.5924   18.6698 C   0  0  2  0  0  0  0  0  0  0  0  0
    8.7812  -15.2160   17.3749 N   0  0  0  0  0  0  0  0  0  0  0  0
    9.4114  -15.5020   19.6838 C   0  0  0  0  0  0  0  0  0  0  0  0
    8.9589  -16.6949   19.8136 O   0  0  0  0  0  0  0  0  0  0  0  0
   10.4681  -15.1731   20.5671 N   0  0  0  0  0  0  0  0  0  0  0  0
   11.0391  -16.1611   21.4966 C   0  0  1  0  0  0  0  0  0  0  0  0
   12.4930  -16.3294   21.2572 C   0  0  0  0  0  0  0  0  0  0  0  0
   13.2508  -15.0588   21.5094 C   0  0  0  0  0  0  0  0  0  0  0  0
   14.7033  -15.2131   21.2134 C   0  0  0  0  0  0  0  0  0  0  0  0
   15.5191  -14.4213   21.7208 O   0  0  0  0  0  0  0  0  0  0  0  0
   10.7510  -15.6889   22.8632 C   0  0  0  0  0  0  0  0  0  0  0  0
   10.2028  -14.5927   23.1372 O   0  0  0  0  0  0  0  0  0  0  0  0
   15.1515  -16.2230   20.3838 O   0  0  0  0  0  0  0  0  0  0  0  0
   11.1035  -16.5008   23.9431 O   0  0  0  0  0  0  0  0  0  0  0  0
  2  1  1  1
  3  2  1  0
  4  5  2  0
  4  2  1  0
  6  7  1  0
  7  9  1  0
  7  8  2  0
  9 10  1  0
 11 10  1  1
 11 13  1  0
 11 12  1  0
 12  4  1  0
 13 15  1  0
 14 13  2  0
 15 16  1  0
 16 21  1  0
 17 18  1  0
 16 17  1  1
 19 23  1  0
 19 18  1  0
 20 19  2  0
 21 22  2  0
 21 24  1  0
M  END
$$$$
