AQE.pdb
     RDKit          3D

 24 23  0  0  1  0  0  0  0  0999 V2000
   10.5865  -19.2049   20.3268 C   0  0  0  0  0  0  0  0  0  0  0  0
   11.1018  -20.2168   21.3363 C   0  0  2  0  0  0  0  0  0  0  0  0
   10.2450  -21.3660   21.2990 N   0  0  0  0  0  0  0  0  0  0  0  0
   11.0814  -19.5721   22.7075 C   0  0  0  0  0  0  0  0  0  0  0  0
   11.7996  -18.5704   22.9431 O   0  0  0  0  0  0  0  0  0  0  0  0
    6.5942  -21.0371   27.1309 N   0  0  0  0  0  0  0  0  0  0  0  0
    7.3457  -19.9980   27.7564 C   0  0  0  0  0  0  0  0  0  0  0  0
    6.9427  -19.6054   28.8673 O   0  0  0  0  0  0  0  0  0  0  0  0
    8.5522  -19.4526   27.0518 C   0  0  0  0  0  0  0  0  0  0  0  0
    8.7389  -19.9896   25.6770 C   0  0  0  0  0  0  0  0  0  0  0  0
   10.0817  -19.5655   25.0555 C   0  0  2  0  0  0  0  0  0  0  0  0
   10.2618  -20.0867   23.7274 N   0  0  0  0  0  0  0  0  0  0  0  0
   11.1383  -20.0536   25.9725 C   0  0  0  0  0  0  0  0  0  0  0  0
   11.3072  -21.3129   26.1468 O   0  0  0  0  0  0  0  0  0  0  0  0
   12.0235  -19.2324   26.7122 N   0  0  0  0  0  0  0  0  0  0  0  0
   13.0215  -19.7992   27.6335 C   0  0  1  0  0  0  0  0  0  0  0  0
   14.3707  -19.2538   27.3475 C   0  0  0  0  0  0  0  0  0  0  0  0
   14.8861  -19.7108   26.0142 C   0  0  0  0  0  0  0  0  0  0  0  0
   16.2476  -19.1733   25.7338 C   0  0  0  0  0  0  0  0  0  0  0  0
   16.7793  -18.3970   26.5491 O   0  0  0  0  0  0  0  0  0  0  0  0
   12.5742  -19.4880   29.0033 C   0  0  0  0  0  0  0  0  0  0  0  0
   13.1349  -19.9039   30.0474 O   0  0  0  0  0  0  0  0  0  0  0  0
   16.9230  -19.5270   24.5816 O   0  0  0  0  0  0  0  0  0  0  0  0
   11.4514  -18.6760   29.1756 O   0  0  0  0  0  0  0  0  0  0  0  0
  2  1  1  6
  3  2  1  0
  4  5  2  0
  4  2  1  0
  6  7  1  0
  7  9  1  0
  7  8  2  0
  9 10  1  0
 11 10  1  1
 11 13  1  0
 11 12  1  0
 12  4  1  0
 13 15  1  0
 14 13  2  0
 15 16  1  0
 16 21  1  0
 17 18  1  0
 16 17  1  6
 19 23  1  0
 19 18  1  0
 20 19  2  0
 21 22  2  0
 21 24  1  0
M  END
$$$$
