AQE.pdb
     RDKit          3D

 24 23  0  0  1  0  0  0  0  0999 V2000
    7.0604  -19.5820   24.3953 C   0  0  0  0  0  0  0  0  0  0  0  0
    6.5015  -19.2094   23.0324 C   0  0  2  0  0  0  0  0  0  0  0  0
    6.1139  -20.4152   22.3601 N   0  0  0  0  0  0  0  0  0  0  0  0
    7.5829  -18.4831   22.2582 C   0  0  0  0  0  0  0  0  0  0  0  0
    8.5773  -19.1131   21.8236 O   0  0  0  0  0  0  0  0  0  0  0  0
    7.7344  -11.9060   19.3867 N   0  0  0  0  0  0  0  0  0  0  0  0
    7.8195  -13.2499   18.9152 C   0  0  0  0  0  0  0  0  0  0  0  0
    7.2710  -13.4973   17.8250 O   0  0  0  0  0  0  0  0  0  0  0  0
    8.5505  -14.2632   19.7451 C   0  0  0  0  0  0  0  0  0  0  0  0
    7.6690  -15.0434   20.6547 C   0  0  0  0  0  0  0  0  0  0  0  0
    8.3733  -16.2802   21.2410 C   0  0  2  0  0  0  0  0  0  0  0  0
    7.4855  -17.1010   22.0194 N   0  0  0  0  0  0  0  0  0  0  0  0
    9.4947  -15.7702   22.0644 C   0  0  0  0  0  0  0  0  0  0  0  0
    9.2589  -15.1908   23.1840 O   0  0  0  0  0  0  0  0  0  0  0  0
   10.8665  -15.8611   21.7253 N   0  0  0  0  0  0  0  0  0  0  0  0
   11.9229  -15.8351   22.7497 C   0  0  1  0  0  0  0  0  0  0  0  0
   11.7152  -16.9133   23.7467 C   0  0  0  0  0  0  0  0  0  0  0  0
   12.8478  -16.9913   24.7282 C   0  0  0  0  0  0  0  0  0  0  0  0
   12.6717  -18.1185   25.6873 C   0  0  0  0  0  0  0  0  0  0  0  0
   11.5283  -18.5548   25.9161 O   0  0  0  0  0  0  0  0  0  0  0  0
   13.2123  -15.9673   22.0474 C   0  0  0  0  0  0  0  0  0  0  0  0
   13.3507  -16.4546   20.8982 O   0  0  0  0  0  0  0  0  0  0  0  0
   13.7615  -18.6817   26.3229 O   0  0  0  0  0  0  0  0  0  0  0  0
   14.3735  -15.5265   22.6854 O   0  0  0  0  0  0  0  0  0  0  0  0
  2  1  1  1
  3  2  1  0
  4  5  2  0
  4  2  1  0
  6  7  1  0
  7  9  1  0
  7  8  2  0
  9 10  1  0
 11 10  1  1
 11 13  1  0
 11 12  1  0
 12  4  1  0
 13 15  1  0
 14 13  2  0
 15 16  1  0
 16 21  1  0
 17 18  1  0
 16 17  1  1
 19 23  1  0
 19 18  1  0
 20 19  2  0
 21 22  2  0
 21 24  1  0
M  END
$$$$
