AQE.pdb
     RDKit          3D

 24 23  0  0  1  0  0  0  0  0999 V2000
    8.4894  -19.8732   18.1849 C   0  0  0  0  0  0  0  0  0  0  0  0
    8.6402  -19.5287   19.6571 C   0  0  2  0  0  0  0  0  0  0  0  0
    7.3468  -19.1881   20.1743 N   0  0  0  0  0  0  0  0  0  0  0  0
    9.5948  -18.3579   19.7754 C   0  0  0  0  0  0  0  0  0  0  0  0
   10.8258  -18.5292   19.6021 O   0  0  0  0  0  0  0  0  0  0  0  0
    7.1597  -12.5848   19.3717 N   0  0  0  0  0  0  0  0  0  0  0  0
    7.5358  -13.4210   18.2785 C   0  0  0  0  0  0  0  0  0  0  0  0
    6.9941  -13.1874   17.1819 O   0  0  0  0  0  0  0  0  0  0  0  0
    8.5415  -14.5089   18.5121 C   0  0  0  0  0  0  0  0  0  0  0  0
    9.0079  -14.6035   19.9216 C   0  0  0  0  0  0  0  0  0  0  0  0
    9.8711  -15.8526   20.1746 C   0  0  2  0  0  0  0  0  0  0  0  0
    9.1148  -17.0719   20.0798 N   0  0  0  0  0  0  0  0  0  0  0  0
   10.4579  -15.6874   21.5251 C   0  0  0  0  0  0  0  0  0  0  0  0
    9.6941  -15.5948   22.5512 O   0  0  0  0  0  0  0  0  0  0  0  0
   11.8426  -15.6176   21.8130 N   0  0  0  0  0  0  0  0  0  0  0  0
   12.3707  -15.8935   23.1587 C   0  0  1  0  0  0  0  0  0  0  0  0
   11.9607  -17.2427   23.6181 C   0  0  0  0  0  0  0  0  0  0  0  0
   12.5959  -17.6026   24.9293 C   0  0  0  0  0  0  0  0  0  0  0  0
   12.2075  -18.9707   25.3749 C   0  0  0  0  0  0  0  0  0  0  0  0
   13.0865  -19.8407   25.5181 O   0  0  0  0  0  0  0  0  0  0  0  0
   13.8363  -15.7512   23.0877 C   0  0  0  0  0  0  0  0  0  0  0  0
   14.6011  -15.7525   24.0839 O   0  0  0  0  0  0  0  0  0  0  0  0
   10.8856  -19.2818   25.6296 O   0  0  0  0  0  0  0  0  0  0  0  0
   14.4374  -15.6036   21.8360 O   0  0  0  0  0  0  0  0  0  0  0  0
  2  1  1  6
  3  2  1  0
  4  5  2  0
  4  2  1  0
  6  7  1  0
  7  9  1  0
  7  8  2  0
  9 10  1  0
 11 10  1  1
 11 13  1  0
 11 12  1  0
 12  4  1  0
 13 15  1  0
 14 13  2  0
 15 16  1  0
 16 21  1  0
 17 18  1  0
 16 17  1  6
 19 23  1  0
 19 18  1  0
 20 19  2  0
 21 22  2  0
 21 24  1  0
M  END
$$$$
