AQE.pdb
     RDKit          3D

 24 23  0  0  1  0  0  0  0  0999 V2000
    8.1420  -12.7506   20.7898 C   0  0  0  0  0  0  0  0  0  0  0  0
    8.5253  -14.1602   20.3717 C   0  0  2  0  0  0  0  0  0  0  0  0
    7.6117  -14.5918   19.3543 N   0  0  0  0  0  0  0  0  0  0  0  0
    8.4397  -15.0567   21.5903 C   0  0  0  0  0  0  0  0  0  0  0  0
    7.5538  -14.8587   22.4567 O   0  0  0  0  0  0  0  0  0  0  0  0
   10.5752  -20.3586   20.3837 N   0  0  0  0  0  0  0  0  0  0  0  0
    9.1786  -20.0667   20.3933 C   0  0  0  0  0  0  0  0  0  0  0  0
    8.4687  -20.6962   19.5869 O   0  0  0  0  0  0  0  0  0  0  0  0
    8.6604  -19.0395   21.3557 C   0  0  0  0  0  0  0  0  0  0  0  0
    9.6950  -18.5111   22.2850 C   0  0  0  0  0  0  0  0  0  0  0  0
    9.3543  -17.1042   22.8084 C   0  0  2  0  0  0  0  0  0  0  0  0
    9.3481  -16.1157   21.7641 N   0  0  0  0  0  0  0  0  0  0  0  0
   10.3669  -16.7874   23.8427 C   0  0  0  0  0  0  0  0  0  0  0  0
   11.4676  -16.2182   23.5120 O   0  0  0  0  0  0  0  0  0  0  0  0
   10.2379  -17.0623   25.2257 N   0  0  0  0  0  0  0  0  0  0  0  0
   11.3372  -16.8145   26.1725 C   0  0  1  0  0  0  0  0  0  0  0  0
   11.1837  -15.4897   26.8214 C   0  0  0  0  0  0  0  0  0  0  0  0
    9.8198  -15.3181   27.4235 C   0  0  0  0  0  0  0  0  0  0  0  0
    9.6814  -14.0046   28.1140 C   0  0  0  0  0  0  0  0  0  0  0  0
    8.7573  -13.2363   27.7888 O   0  0  0  0  0  0  0  0  0  0  0  0
   11.3256  -17.9178   27.1501 C   0  0  0  0  0  0  0  0  0  0  0  0
   12.1652  -18.0604   28.0732 O   0  0  0  0  0  0  0  0  0  0  0  0
   10.5661  -13.6326   29.1079 O   0  0  0  0  0  0  0  0  0  0  0  0
   10.3201  -18.8828   27.0626 O   0  0  0  0  0  0  0  0  0  0  0  0
  2  1  1  1
  3  2  1  0
  4  5  2  0
  4  2  1  0
  6  7  1  0
  7  9  1  0
  7  8  2  0
  9 10  1  0
 11 10  1  6
 11 13  1  0
 11 12  1  0
 12  4  1  0
 13 15  1  0
 14 13  2  0
 15 16  1  0
 16 21  1  0
 17 18  1  0
 16 17  1  1
 19 23  1  0
 19 18  1  0
 20 19  2  0
 21 22  2  0
 21 24  1  0
M  END
$$$$
