AQE.pdb
     RDKit          3D

 24 23  0  0  1  0  0  0  0  0999 V2000
    7.0856  -14.7831   19.6448 C   0  0  0  0  0  0  0  0  0  0  0  0
    7.4282  -13.4729   20.3339 C   0  0  2  0  0  0  0  0  0  0  0  0
    8.2534  -12.7021   19.4502 N   0  0  0  0  0  0  0  0  0  0  0  0
    8.1640  -13.7911   21.6199 C   0  0  0  0  0  0  0  0  0  0  0  0
    9.3878  -14.0672   21.5933 O   0  0  0  0  0  0  0  0  0  0  0  0
    5.3333  -12.8130   27.3115 N   0  0  0  0  0  0  0  0  0  0  0  0
    6.1770  -11.8169   26.7354 C   0  0  0  0  0  0  0  0  0  0  0  0
    6.0785  -10.6642   27.1959 O   0  0  0  0  0  0  0  0  0  0  0  0
    7.1132  -12.2113   25.6319 C   0  0  0  0  0  0  0  0  0  0  0  0
    7.0609  -13.6577   25.2878 C   0  0  0  0  0  0  0  0  0  0  0  0
    8.0367  -14.0306   24.1573 C   0  0  2  0  0  0  0  0  0  0  0  0
    7.4871  -13.7814   22.8521 N   0  0  0  0  0  0  0  0  0  0  0  0
    8.3582  -15.4654   24.3404 C   0  0  0  0  0  0  0  0  0  0  0  0
    7.4922  -16.3621   24.0390 O   0  0  0  0  0  0  0  0  0  0  0  0
    9.5828  -15.9727   24.8384 N   0  0  0  0  0  0  0  0  0  0  0  0
    9.8324  -17.4181   24.9601 C   0  0  1  0  0  0  0  0  0  0  0  0
   10.9317  -17.8397   24.0582 C   0  0  0  0  0  0  0  0  0  0  0  0
   11.9561  -16.7570   23.8833 C   0  0  0  0  0  0  0  0  0  0  0  0
   13.0501  -17.1745   22.9613 C   0  0  0  0  0  0  0  0  0  0  0  0
   13.0004  -18.2945   22.4197 O   0  0  0  0  0  0  0  0  0  0  0  0
   10.1399  -17.6880   26.3764 C   0  0  0  0  0  0  0  0  0  0  0  0
   10.4091  -18.8225   26.8431 O   0  0  0  0  0  0  0  0  0  0  0  0
   14.1153  -16.3334   22.7028 O   0  0  0  0  0  0  0  0  0  0  0  0
   10.1374  -16.6230   27.2795 O   0  0  0  0  0  0  0  0  0  0  0  0
  2  1  1  6
  3  2  1  0
  4  5  2  0
  4  2  1  0
  6  7  1  0
  7  9  1  0
  7  8  2  0
  9 10  1  0
 11 10  1  1
 11 13  1  0
 11 12  1  0
 12  4  1  0
 13 15  1  0
 14 13  2  0
 15 16  1  0
 16 21  1  0
 17 18  1  0
 16 17  1  6
 19 23  1  0
 19 18  1  0
 20 19  2  0
 21 22  2  0
 21 24  1  0
M  END
$$$$
