AQE.pdb
     RDKit          3D

 24 23  0  0  1  0  0  0  0  0999 V2000
    9.3091  -17.6644   17.3512 C   0  0  0  0  0  0  0  0  0  0  0  0
   10.1197  -18.3491   18.4388 C   0  0  2  0  0  0  0  0  0  0  0  0
    9.2524  -19.2404   19.1526 N   0  0  0  0  0  0  0  0  0  0  0  0
   10.6747  -17.2819   19.3604 C   0  0  0  0  0  0  0  0  0  0  0  0
   11.5287  -16.4660   18.9365 O   0  0  0  0  0  0  0  0  0  0  0  0
   10.0039  -14.6955   26.3960 N   0  0  0  0  0  0  0  0  0  0  0  0
    9.4421  -15.2514   25.2081 C   0  0  0  0  0  0  0  0  0  0  0  0
    8.2835  -15.6999   25.2926 O   0  0  0  0  0  0  0  0  0  0  0  0
   10.2650  -15.2613   23.9541 C   0  0  0  0  0  0  0  0  0  0  0  0
    9.8112  -16.2563   22.9456 C   0  0  0  0  0  0  0  0  0  0  0  0
   10.7491  -16.3311   21.7274 C   0  0  2  0  0  0  0  0  0  0  0  0
   10.2418  -17.1942   20.6951 N   0  0  0  0  0  0  0  0  0  0  0  0
   12.0555  -16.8111   22.2357 C   0  0  0  0  0  0  0  0  0  0  0  0
   12.1917  -18.0305   22.6089 O   0  0  0  0  0  0  0  0  0  0  0  0
   13.2257  -16.0233   22.3579 N   0  0  0  0  0  0  0  0  0  0  0  0
   14.4719  -16.5663   22.9220 C   0  0  1  0  0  0  0  0  0  0  0  0
   15.6439  -15.7862   22.4557 C   0  0  0  0  0  0  0  0  0  0  0  0
   15.8689  -15.9454   20.9804 C   0  0  0  0  0  0  0  0  0  0  0  0
   17.0007  -15.1033   20.4996 C   0  0  0  0  0  0  0  0  0  0  0  0
   16.7612  -14.0172   19.9399 O   0  0  0  0  0  0  0  0  0  0  0  0
   14.3329  -16.5384   24.3894 C   0  0  0  0  0  0  0  0  0  0  0  0
   13.3989  -15.9681   25.0056 O   0  0  0  0  0  0  0  0  0  0  0  0
   18.3087  -15.5151   20.6683 O   0  0  0  0  0  0  0  0  0  0  0  0
   15.2951  -17.1846   25.1681 O   0  0  0  0  0  0  0  0  0  0  0  0
  2  1  1  6
  3  2  1  0
  4  5  2  0
  4  2  1  0
  6  7  1  0
  7  9  1  0
  7  8  2  0
  9 10  1  0
 11 10  1  1
 11 13  1  0
 11 12  1  0
 12  4  1  0
 13 15  1  0
 14 13  2  0
 15 16  1  0
 16 21  1  0
 17 18  1  0
 16 17  1  1
 19 23  1  0
 19 18  1  0
 20 19  2  0
 21 22  2  0
 21 24  1  0
M  END
$$$$
