AQE.pdb
     RDKit          3D

 24 23  0  0  1  0  0  0  0  0999 V2000
   10.0838  -18.0681   17.0690 C   0  0  0  0  0  0  0  0  0  0  0  0
    9.8954  -18.4987   18.5139 C   0  0  2  0  0  0  0  0  0  0  0  0
    8.5011  -18.7557   18.7287 N   0  0  0  0  0  0  0  0  0  0  0  0
   10.3826  -17.3786   19.4105 C   0  0  0  0  0  0  0  0  0  0  0  0
   11.5842  -17.0187   19.3722 O   0  0  0  0  0  0  0  0  0  0  0  0
    6.7382  -12.2040   19.2763 N   0  0  0  0  0  0  0  0  0  0  0  0
    7.0507  -13.4686   19.8585 C   0  0  0  0  0  0  0  0  0  0  0  0
    6.1020  -14.2565   20.0301 O   0  0  0  0  0  0  0  0  0  0  0  0
    8.4754  -13.7662   20.2210 C   0  0  0  0  0  0  0  0  0  0  0  0
    8.6205  -14.6887   21.3791 C   0  0  0  0  0  0  0  0  0  0  0  0
    9.7970  -15.6667   21.2103 C   0  0  2  0  0  0  0  0  0  0  0  0
    9.4984  -16.7326   20.2924 N   0  0  0  0  0  0  0  0  0  0  0  0
   10.1010  -16.1908   22.5624 C   0  0  0  0  0  0  0  0  0  0  0  0
    9.1477  -16.4604   23.3770 O   0  0  0  0  0  0  0  0  0  0  0  0
   11.3990  -16.4363   23.0724 N   0  0  0  0  0  0  0  0  0  0  0  0
   11.6132  -16.9590   24.4315 C   0  0  1  0  0  0  0  0  0  0  0  0
   11.5159  -18.4389   24.4470 C   0  0  0  0  0  0  0  0  0  0  0  0
   12.1369  -19.0517   23.2260 C   0  0  0  0  0  0  0  0  0  0  0  0
   12.0997  -20.5408   23.2748 C   0  0  0  0  0  0  0  0  0  0  0  0
   11.0264  -21.1340   23.0594 O   0  0  0  0  0  0  0  0  0  0  0  0
   12.9359  -16.4836   24.8762 C   0  0  0  0  0  0  0  0  0  0  0  0
   13.7401  -15.8403   24.1574 O   0  0  0  0  0  0  0  0  0  0  0  0
   13.2410  -21.2669   23.5562 O   0  0  0  0  0  0  0  0  0  0  0  0
   13.3434  -16.7560   26.1837 O   0  0  0  0  0  0  0  0  0  0  0  0
  2  1  1  6
  3  2  1  0
  4  5  2  0
  4  2  1  0
  6  7  1  0
  7  9  1  0
  7  8  2  0
  9 10  1  0
 11 10  1  1
 11 13  1  0
 11 12  1  0
 12  4  1  0
 13 15  1  0
 14 13  2  0
 15 16  1  0
 16 21  1  0
 17 18  1  0
 16 17  1  6
 19 23  1  0
 19 18  1  0
 20 19  2  0
 21 22  2  0
 21 24  1  0
M  END
$$$$
