AQE.pdb
     RDKit          3D

 24 23  0  0  1  0  0  0  0  0999 V2000
    8.0683  -12.0171   19.9487 C   0  0  0  0  0  0  0  0  0  0  0  0
    8.2048  -13.2895   19.1295 C   0  0  2  0  0  0  0  0  0  0  0  0
    7.0666  -13.3910   18.2632 N   0  0  0  0  0  0  0  0  0  0  0  0
    8.2636  -14.4648   20.0841 C   0  0  0  0  0  0  0  0  0  0  0  0
    7.2334  -15.1449   20.3097 O   0  0  0  0  0  0  0  0  0  0  0  0
   11.1300  -18.8114   18.0389 N   0  0  0  0  0  0  0  0  0  0  0  0
   11.0944  -19.3118   19.3747 C   0  0  0  0  0  0  0  0  0  0  0  0
   11.4193  -20.5030   19.5359 O   0  0  0  0  0  0  0  0  0  0  0  0
   10.6764  -18.3903   20.4818 C   0  0  0  0  0  0  0  0  0  0  0  0
   10.2856  -17.0320   20.0177 C   0  0  0  0  0  0  0  0  0  0  0  0
    9.8834  -16.1050   21.1788 C   0  0  2  0  0  0  0  0  0  0  0  0
    9.4674  -14.8052   20.7258 N   0  0  0  0  0  0  0  0  0  0  0  0
   11.0658  -16.0120   22.0669 C   0  0  0  0  0  0  0  0  0  0  0  0
   12.0648  -15.2803   21.7332 O   0  0  0  0  0  0  0  0  0  0  0  0
   11.2131  -16.6807   23.3064 N   0  0  0  0  0  0  0  0  0  0  0  0
   12.4001  -16.4897   24.1554 C   0  0  1  0  0  0  0  0  0  0  0  0
   12.1327  -16.9417   25.5424 C   0  0  0  0  0  0  0  0  0  0  0  0
   10.8753  -16.3359   26.0940 C   0  0  0  0  0  0  0  0  0  0  0  0
   10.6656  -16.7025   27.5233 C   0  0  0  0  0  0  0  0  0  0  0  0
   11.4561  -17.4899   28.0757 O   0  0  0  0  0  0  0  0  0  0  0  0
   13.5063  -17.2370   23.5300 C   0  0  0  0  0  0  0  0  0  0  0  0
   13.3783  -18.0098   22.5483 O   0  0  0  0  0  0  0  0  0  0  0  0
    9.6058  -16.1789   28.2385 O   0  0  0  0  0  0  0  0  0  0  0  0
   14.7944  -17.0904   24.0488 O   0  0  0  0  0  0  0  0  0  0  0  0
  2  1  1  1
  3  2  1  0
  4  5  2  0
  4  2  1  0
  6  7  1  0
  7  9  1  0
  7  8  2  0
  9 10  1  0
 11 10  1  6
 11 13  1  0
 11 12  1  0
 12  4  1  0
 13 15  1  0
 14 13  2  0
 15 16  1  0
 16 21  1  0
 17 18  1  0
 16 17  1  1
 19 23  1  0
 19 18  1  0
 20 19  2  0
 21 22  2  0
 21 24  1  0
M  END
$$$$
