AQE.pdb
     RDKit          3D

 24 23  0  0  1  0  0  0  0  0999 V2000
    4.6306  -18.4849   22.9143 C   0  0  0  0  0  0  0  0  0  0  0  0
    4.5945  -18.1683   21.4286 C   0  0  2  0  0  0  0  0  0  0  0  0
    4.4739  -19.4024   20.7084 N   0  0  0  0  0  0  0  0  0  0  0  0
    5.8800  -17.4536   21.0642 C   0  0  0  0  0  0  0  0  0  0  0  0
    6.9105  -18.1136   20.7866 O   0  0  0  0  0  0  0  0  0  0  0  0
    7.8500  -13.5687   17.9428 N   0  0  0  0  0  0  0  0  0  0  0  0
    8.6120  -13.1622   19.0786 C   0  0  0  0  0  0  0  0  0  0  0  0
    9.8442  -13.0709   18.9234 O   0  0  0  0  0  0  0  0  0  0  0  0
    7.8966  -12.8751   20.3651 C   0  0  0  0  0  0  0  0  0  0  0  0
    6.7072  -13.7382   20.5968 C   0  0  0  0  0  0  0  0  0  0  0  0
    7.0812  -15.2193   20.7856 C   0  0  2  0  0  0  0  0  0  0  0  0
    5.9331  -16.0489   21.0333 N   0  0  0  0  0  0  0  0  0  0  0  0
    8.0342  -15.2676   21.9192 C   0  0  0  0  0  0  0  0  0  0  0  0
    7.7028  -14.7821   23.0590 O   0  0  0  0  0  0  0  0  0  0  0  0
    9.3365  -15.8214   21.8706 N   0  0  0  0  0  0  0  0  0  0  0  0
   10.2040  -15.8709   23.0586 C   0  0  1  0  0  0  0  0  0  0  0  0
    9.9983  -17.1344   23.8076 C   0  0  0  0  0  0  0  0  0  0  0  0
   10.9442  -17.2564   24.9662 C   0  0  0  0  0  0  0  0  0  0  0  0
   10.7517  -18.5366   25.7048 C   0  0  0  0  0  0  0  0  0  0  0  0
    9.9011  -19.3527   25.3042 O   0  0  0  0  0  0  0  0  0  0  0  0
   11.5933  -15.7225   22.5883 C   0  0  0  0  0  0  0  0  0  0  0  0
   12.5928  -15.6180   23.3416 O   0  0  0  0  0  0  0  0  0  0  0  0
   11.5056  -18.8251   26.8261 O   0  0  0  0  0  0  0  0  0  0  0  0
   11.8382  -15.6938   21.2139 O   0  0  0  0  0  0  0  0  0  0  0  0
  2  1  1  1
  3  2  1  0
  4  5  2  0
  4  2  1  0
  6  7  1  0
  7  9  1  0
  7  8  2  0
  9 10  1  0
 11 10  1  1
 11 13  1  0
 11 12  1  0
 12  4  1  0
 13 15  1  0
 14 13  2  0
 15 16  1  0
 16 21  1  0
 17 18  1  0
 16 17  1  6
 19 23  1  0
 19 18  1  0
 20 19  2  0
 21 22  2  0
 21 24  1  0
M  END
$$$$
