AQE.pdb
     RDKit          3D

 24 23  0  0  1  0  0  0  0  0999 V2000
    6.4733  -20.2206   18.9759 C   0  0  0  0  0  0  0  0  0  0  0  0
    6.3487  -18.9448   18.1601 C   0  0  2  0  0  0  0  0  0  0  0  0
    6.4623  -19.2856   16.7718 N   0  0  0  0  0  0  0  0  0  0  0  0
    7.4604  -18.0036   18.5779 C   0  0  0  0  0  0  0  0  0  0  0  0
    8.6568  -18.2965   18.3380 O   0  0  0  0  0  0  0  0  0  0  0  0
    8.9593  -12.6839   18.2756 N   0  0  0  0  0  0  0  0  0  0  0  0
    9.3756  -13.0922   19.5779 C   0  0  0  0  0  0  0  0  0  0  0  0
   10.6022  -13.1221   19.7906 O   0  0  0  0  0  0  0  0  0  0  0  0
    8.3309  -13.4531   20.5917 C   0  0  0  0  0  0  0  0  0  0  0  0
    7.3778  -14.4965   20.1269 C   0  0  0  0  0  0  0  0  0  0  0  0
    8.0894  -15.7771   19.6546 C   0  0  2  0  0  0  0  0  0  0  0  0
    7.1658  -16.7970   19.2367 N   0  0  0  0  0  0  0  0  0  0  0  0
    8.9194  -16.2369   20.7926 C   0  0  0  0  0  0  0  0  0  0  0  0
    8.3747  -16.8458   21.7812 O   0  0  0  0  0  0  0  0  0  0  0  0
   10.3203  -16.0643   20.9063 N   0  0  0  0  0  0  0  0  0  0  0  0
   11.0948  -16.6933   21.9882 C   0  0  1  0  0  0  0  0  0  0  0  0
   12.5158  -16.8516   21.5941 C   0  0  0  0  0  0  0  0  0  0  0  0
   13.3216  -17.5211   22.6687 C   0  0  0  0  0  0  0  0  0  0  0  0
   14.7484  -17.6834   22.2699 C   0  0  0  0  0  0  0  0  0  0  0  0
   15.4444  -18.5535   22.8256 O   0  0  0  0  0  0  0  0  0  0  0  0
   10.9400  -15.8444   23.1835 C   0  0  0  0  0  0  0  0  0  0  0  0
   10.8836  -14.5899   23.1636 O   0  0  0  0  0  0  0  0  0  0  0  0
   15.3044  -16.8801   21.2930 O   0  0  0  0  0  0  0  0  0  0  0  0
   10.8475  -16.4564   24.4352 O   0  0  0  0  0  0  0  0  0  0  0  0
  2  1  1  1
  3  2  1  0
  4  5  2  0
  4  2  1  0
  6  7  1  0
  7  9  1  0
  7  8  2  0
  9 10  1  0
 11 10  1  1
 11 13  1  0
 11 12  1  0
 12  4  1  0
 13 15  1  0
 14 13  2  0
 15 16  1  0
 16 21  1  0
 17 18  1  0
 16 17  1  6
 19 23  1  0
 19 18  1  0
 20 19  2  0
 21 22  2  0
 21 24  1  0
M  END
$$$$
