AQE.pdb
     RDKit          3D

 24 23  0  0  1  0  0  0  0  0999 V2000
    1.2365  -20.3622   22.7913 C   0  0  0  0  0  0  0  0  0  0  0  0
    2.1285  -20.2378   21.5675 C   0  0  2  0  0  0  0  0  0  0  0  0
    1.8921  -21.3712   20.7214 N   0  0  0  0  0  0  0  0  0  0  0  0
    3.5702  -20.2022   22.0324 C   0  0  0  0  0  0  0  0  0  0  0  0
    3.9973  -21.0743   22.8273 O   0  0  0  0  0  0  0  0  0  0  0  0
    8.9291  -17.4763   18.9097 N   0  0  0  0  0  0  0  0  0  0  0  0
    7.5943  -17.9071   18.6479 C   0  0  0  0  0  0  0  0  0  0  0  0
    7.0763  -17.5136   17.5861 O   0  0  0  0  0  0  0  0  0  0  0  0
    6.9097  -18.7908   19.6479 C   0  0  0  0  0  0  0  0  0  0  0  0
    6.5627  -18.1021   20.9201 C   0  0  0  0  0  0  0  0  0  0  0  0
    5.8318  -19.0261   21.9106 C   0  0  2  0  0  0  0  0  0  0  0  0
    4.4423  -19.1958   21.5813 N   0  0  0  0  0  0  0  0  0  0  0  0
    5.9961  -18.4147   23.2503 C   0  0  0  0  0  0  0  0  0  0  0  0
    5.3179  -17.3742   23.5699 O   0  0  0  0  0  0  0  0  0  0  0  0
    6.8676  -18.8841   24.2629 N   0  0  0  0  0  0  0  0  0  0  0  0
    6.9341  -18.2456   25.5873 C   0  0  1  0  0  0  0  0  0  0  0  0
    6.7700  -19.2515   26.6647 C   0  0  0  0  0  0  0  0  0  0  0  0
    7.8644  -20.2782   26.6409 C   0  0  0  0  0  0  0  0  0  0  0  0
    7.7016  -21.2853   27.7274 C   0  0  0  0  0  0  0  0  0  0  0  0
    7.8139  -20.9285   28.9149 O   0  0  0  0  0  0  0  0  0  0  0  0
    8.2308  -17.5490   25.6690 C   0  0  0  0  0  0  0  0  0  0  0  0
    9.1341  -17.6212   24.7994 O   0  0  0  0  0  0  0  0  0  0  0  0
    7.4284  -22.6067   27.4303 O   0  0  0  0  0  0  0  0  0  0  0  0
    8.4944  -16.7477   26.7818 O   0  0  0  0  0  0  0  0  0  0  0  0
  2  1  1  1
  3  2  1  0
  4  5  2  0
  4  2  1  0
  6  7  1  0
  7  9  1  0
  7  8  2  0
  9 10  1  0
 11 10  1  6
 11 13  1  0
 11 12  1  0
 12  4  1  0
 13 15  1  0
 14 13  2  0
 15 16  1  0
 16 21  1  0
 17 18  1  0
 16 17  1  1
 19 23  1  0
 19 18  1  0
 20 19  2  0
 21 22  2  0
 21 24  1  0
M  END
$$$$
