PTC.pdb
     RDKit          3D

 21 21  0  0  1  0  0  0  0  0999 V2000
    8.7979  -14.9708   19.5682 N   0  0  0  0  0  0  0  0  0  0  0  0
    8.8988  -14.3946   18.2334 C   0  0  0  0  0  0  0  0  0  0  0  0
    7.7419  -13.4217   18.2335 C   0  0  0  0  0  0  0  0  0  0  0  0
    7.6121  -13.0073   19.6879 C   0  0  0  0  0  0  0  0  0  0  0  0
    8.6954  -13.7931   20.3761 C   0  0  1  0  0  0  0  0  0  0  0  0
    8.3342  -14.0863   21.7853 C   0  0  0  0  0  0  0  0  0  0  0  0
    8.1214  -13.1379   22.5714 O   0  0  0  0  0  0  0  0  0  0  0  0
    6.1834  -17.3162   22.6432 C   0  0  0  0  0  0  0  0  0  0  0  0
    7.3842  -17.2293   23.5956 C   0  0  1  0  0  0  0  0  0  0  0  0
    8.2887  -18.1845   23.1983 O   0  0  0  0  0  0  0  0  0  0  0  0
    7.9082  -15.8174   23.6004 C   0  0  2  0  0  0  0  0  0  0  0  0
    8.2229  -15.4094   22.2683 N   0  0  0  0  0  0  0  0  0  0  0  0
    8.9809  -15.5889   24.5953 C   0  0  0  0  0  0  0  0  0  0  0  0
   10.1749  -15.5082   24.1937 O   0  0  0  0  0  0  0  0  0  0  0  0
    8.7498  -15.4574   25.9691 N   0  0  0  0  0  0  0  0  0  0  0  0
    9.7690  -15.1563   26.9501 C   0  0  1  0  0  0  0  0  0  0  0  0
    9.4168  -14.0124   27.8451 C   0  0  0  0  0  0  0  0  0  0  0  0
   10.8212  -13.7334   28.9660 S   0  0  0  0  0  0  0  0  0  0  0  0
   10.1191  -16.3826   27.7319 C   0  0  0  0  0  0  0  0  0  0  0  0
   11.3708  -16.5600   28.2956 O   0  0  0  0  0  0  0  0  0  0  0  0
    9.2569  -17.2635   27.8757 O   0  0  0  0  0  0  0  0  0  0  0  0
  1  5  1  0
  2  3  1  0
  2  1  1  0
  3  4  1  0
  4  5  1  0
  5  6  1  1
  6  7  2  0
  9  8  1  6
  9 11  1  0
 10  9  1  0
 11 12  1  6
 11 13  1  0
 12  6  1  0
 13 14  2  0
 13 15  1  0
 15 16  1  0
 16 19  1  0
 16 17  1  1
 18 17  1  0
 19 21  2  0
 19 20  1  0
M  END
$$$$
