PTC.pdb
     RDKit          3D

 21 21  0  0  1  0  0  0  0  0999 V2000
    8.3756  -18.0225   17.1215 N   0  0  0  0  0  0  0  0  0  0  0  0
    7.3181  -18.6647   16.3513 C   0  0  0  0  0  0  0  0  0  0  0  0
    6.6867  -19.5624   17.3908 C   0  0  0  0  0  0  0  0  0  0  0  0
    6.9080  -18.8220   18.6971 C   0  0  0  0  0  0  0  0  0  0  0  0
    7.6547  -17.5844   18.2785 C   0  0  1  0  0  0  0  0  0  0  0  0
    8.5415  -17.0984   19.3645 C   0  0  0  0  0  0  0  0  0  0  0  0
    9.7624  -17.3639   19.3212 O   0  0  0  0  0  0  0  0  0  0  0  0
    6.7532  -14.8620   22.5764 C   0  0  0  0  0  0  0  0  0  0  0  0
    8.1789  -14.5811   22.0814 C   0  0  1  0  0  0  0  0  0  0  0  0
    8.8585  -13.9836   23.1156 O   0  0  0  0  0  0  0  0  0  0  0  0
    8.7862  -15.8628   21.5750 C   0  0  2  0  0  0  0  0  0  0  0  0
    8.0472  -16.3419   20.4507 N   0  0  0  0  0  0  0  0  0  0  0  0
    9.0260  -16.8638   22.6396 C   0  0  0  0  0  0  0  0  0  0  0  0
    8.1455  -17.7417   22.8575 O   0  0  0  0  0  0  0  0  0  0  0  0
   10.1807  -16.8953   23.4292 N   0  0  0  0  0  0  0  0  0  0  0  0
   10.5005  -17.9385   24.3786 C   0  0  1  0  0  0  0  0  0  0  0  0
   11.2925  -19.0603   23.7887 C   0  0  0  0  0  0  0  0  0  0  0  0
   12.8832  -18.3805   23.2285 S   0  0  0  0  0  0  0  0  0  0  0  0
   11.1736  -17.3597   25.5826 C   0  0  0  0  0  0  0  0  0  0  0  0
   11.4623  -18.1247   26.6995 O   0  0  0  0  0  0  0  0  0  0  0  0
   11.4796  -16.1571   25.5733 O   0  0  0  0  0  0  0  0  0  0  0  0
  1  5  1  0
  2  3  1  0
  2  1  1  0
  3  4  1  0
  4  5  1  0
  5  6  1  1
  6  7  2  0
  9  8  1  1
  9 11  1  0
 10  9  1  0
 11 12  1  6
 11 13  1  0
 12  6  1  0
 13 14  2  0
 13 15  1  0
 15 16  1  0
 16 19  1  0
 16 17  1  6
 18 17  1  0
 19 21  2  0
 19 20  1  0
M  END
$$$$
