PTC.pdb
     RDKit          3D

 21 21  0  0  1  0  0  0  0  0999 V2000
    7.7931  -14.8045   19.1592 N   0  0  0  0  0  0  0  0  0  0  0  0
    7.8887  -13.7098   18.2019 C   0  0  0  0  0  0  0  0  0  0  0  0
    7.4832  -12.5267   19.0508 C   0  0  0  0  0  0  0  0  0  0  0  0
    7.9304  -12.9095   20.4498 C   0  0  0  0  0  0  0  0  0  0  0  0
    8.5327  -14.2761   20.2656 C   0  0  1  0  0  0  0  0  0  0  0  0
    8.3976  -15.0936   21.4967 C   0  0  0  0  0  0  0  0  0  0  0  0
    7.2644  -15.4897   21.8457 O   0  0  0  0  0  0  0  0  0  0  0  0
    8.9760  -18.1441   22.2016 C   0  0  0  0  0  0  0  0  0  0  0  0
    9.8459  -17.5796   23.3334 C   0  0  1  0  0  0  0  0  0  0  0  0
   11.1563  -17.8262   23.0012 O   0  0  0  0  0  0  0  0  0  0  0  0
    9.5028  -16.1281   23.5415 C   0  0  2  0  0  0  0  0  0  0  0  0
    9.5143  -15.4398   22.2901 N   0  0  0  0  0  0  0  0  0  0  0  0
   10.2896  -15.4836   24.6179 C   0  0  0  0  0  0  0  0  0  0  0  0
   10.8381  -14.3706   24.3864 O   0  0  0  0  0  0  0  0  0  0  0  0
   10.4659  -16.0401   25.8896 N   0  0  0  0  0  0  0  0  0  0  0  0
   10.3369  -15.3112   27.1321 C   0  0  1  0  0  0  0  0  0  0  0  0
    9.1267  -14.4360   27.1880 C   0  0  0  0  0  0  0  0  0  0  0  0
    9.6603  -12.7875   27.7393 S   0  0  0  0  0  0  0  0  0  0  0  0
   10.3948  -16.2495   28.2957 C   0  0  0  0  0  0  0  0  0  0  0  0
   11.0903  -15.9409   29.4521 O   0  0  0  0  0  0  0  0  0  0  0  0
    9.7994  -17.3353   28.2155 O   0  0  0  0  0  0  0  0  0  0  0  0
  1  5  1  0
  2  3  1  0
  2  1  1  0
  3  4  1  0
  4  5  1  0
  5  6  1  1
  6  7  2  0
  9  8  1  6
  9 11  1  0
 10  9  1  0
 11 12  1  6
 11 13  1  0
 12  6  1  0
 13 14  2  0
 13 15  1  0
 15 16  1  0
 16 19  1  0
 16 17  1  6
 18 17  1  0
 19 21  2  0
 19 20  1  0
M  END
$$$$
