PTC.pdb
     RDKit          3D

 21 21  0  0  1  0  0  0  0  0999 V2000
    9.2861  -14.2329   19.6801 N   0  0  0  0  0  0  0  0  0  0  0  0
    8.9950  -13.4123   18.5113 C   0  0  0  0  0  0  0  0  0  0  0  0
    7.4834  -13.4174   18.5046 C   0  0  0  0  0  0  0  0  0  0  0  0
    7.1112  -13.5533   19.9697 C   0  0  0  0  0  0  0  0  0  0  0  0
    8.4431  -13.6269   20.6662 C   0  0  1  0  0  0  0  0  0  0  0  0
    8.3524  -14.4195   21.9175 C   0  0  0  0  0  0  0  0  0  0  0  0
    7.4853  -14.1220   22.7676 O   0  0  0  0  0  0  0  0  0  0  0  0
    9.2031  -18.2353   21.8736 C   0  0  0  0  0  0  0  0  0  0  0  0
    9.9076  -17.6192   23.0905 C   0  0  1  0  0  0  0  0  0  0  0  0
   11.2542  -17.6047   22.8169 O   0  0  0  0  0  0  0  0  0  0  0  0
    9.3010  -16.2718   23.3811 C   0  0  2  0  0  0  0  0  0  0  0  0
    9.2189  -15.5044   22.1793 N   0  0  0  0  0  0  0  0  0  0  0  0
    9.9299  -15.5756   24.5269 C   0  0  0  0  0  0  0  0  0  0  0  0
   10.4484  -14.4404   24.3377 O   0  0  0  0  0  0  0  0  0  0  0  0
    9.9872  -16.1060   25.8204 N   0  0  0  0  0  0  0  0  0  0  0  0
   10.3264  -15.3499   27.0058 C   0  0  1  0  0  0  0  0  0  0  0  0
    9.4391  -14.1692   27.2350 C   0  0  0  0  0  0  0  0  0  0  0  0
   10.0252  -13.3182   28.7312 S   0  0  0  0  0  0  0  0  0  0  0  0
   10.3724  -16.2474   28.2016 C   0  0  0  0  0  0  0  0  0  0  0  0
   11.1487  -15.9533   29.3093 O   0  0  0  0  0  0  0  0  0  0  0  0
    9.6918  -17.2850   28.1940 O   0  0  0  0  0  0  0  0  0  0  0  0
  1  5  1  0
  2  3  1  0
  2  1  1  0
  3  4  1  0
  4  5  1  0
  5  6  1  1
  6  7  2  0
  9  8  1  6
  9 11  1  0
 10  9  1  0
 11 12  1  6
 11 13  1  0
 12  6  1  0
 13 14  2  0
 13 15  1  0
 15 16  1  0
 16 19  1  0
 16 17  1  1
 18 17  1  0
 19 21  2  0
 19 20  1  0
M  END
$$$$
