PTC.pdb
     RDKit          3D

 21 21  0  0  1  0  0  0  0  0999 V2000
    8.7252  -14.9656   19.1618 N   0  0  0  0  0  0  0  0  0  0  0  0
    9.0150  -14.5149   17.8064 C   0  0  0  0  0  0  0  0  0  0  0  0
    7.9756  -13.4339   17.6164 C   0  0  0  0  0  0  0  0  0  0  0  0
    7.7532  -12.8897   19.0156 C   0  0  0  0  0  0  0  0  0  0  0  0
    8.6743  -13.7207   19.8674 C   0  0  1  0  0  0  0  0  0  0  0  0
    8.1506  -13.8584   21.2491 C   0  0  0  0  0  0  0  0  0  0  0  0
    7.9143  -12.8292   21.9183 O   0  0  0  0  0  0  0  0  0  0  0  0
    5.9516  -17.1234   22.1501 C   0  0  0  0  0  0  0  0  0  0  0  0
    6.9751  -16.8215   23.2536 C   0  0  1  0  0  0  0  0  0  0  0  0
    7.9872  -17.7433   23.1332 O   0  0  0  0  0  0  0  0  0  0  0  0
    7.4065  -15.3827   23.1453 C   0  0  2  0  0  0  0  0  0  0  0  0
    7.9097  -15.1217   21.8344 N   0  0  0  0  0  0  0  0  0  0  0  0
    8.2869  -14.9451   24.2527 C   0  0  0  0  0  0  0  0  0  0  0  0
    9.5376  -14.9934   24.0898 O   0  0  0  0  0  0  0  0  0  0  0  0
    7.8119  -14.4781   25.4832 N   0  0  0  0  0  0  0  0  0  0  0  0
    8.6459  -13.9517   26.5413 C   0  0  1  0  0  0  0  0  0  0  0  0
    8.0164  -12.8231   27.2921 C   0  0  0  0  0  0  0  0  0  0  0  0
    6.2301  -12.8614   26.9545 S   0  0  0  0  0  0  0  0  0  0  0  0
    9.0814  -15.0507   27.4579 C   0  0  0  0  0  0  0  0  0  0  0  0
    9.9852  -14.8346   28.4838 O   0  0  0  0  0  0  0  0  0  0  0  0
    8.6147  -16.1880   27.2880 O   0  0  0  0  0  0  0  0  0  0  0  0
  1  5  1  0
  2  3  1  0
  2  1  1  0
  3  4  1  0
  4  5  1  0
  5  6  1  1
  6  7  2  0
  9  8  1  6
  9 11  1  0
 10  9  1  0
 11 12  1  6
 11 13  1  0
 12  6  1  0
 13 14  2  0
 13 15  1  0
 15 16  1  0
 16 19  1  0
 16 17  1  1
 18 17  1  0
 19 21  2  0
 19 20  1  0
M  END
$$$$
