PTC.pdb
     RDKit          3D

 21 21  0  0  1  0  0  0  0  0999 V2000
    8.1619  -15.0116   19.2983 N   0  0  0  0  0  0  0  0  0  0  0  0
    8.3258  -14.0294   18.2340 C   0  0  0  0  0  0  0  0  0  0  0  0
    7.7686  -12.7826   18.8820 C   0  0  0  0  0  0  0  0  0  0  0  0
    8.0578  -12.9771   20.3592 C   0  0  0  0  0  0  0  0  0  0  0  0
    8.7371  -14.3188   20.4115 C   0  0  1  0  0  0  0  0  0  0  0  0
    8.4884  -14.9971   21.7078 C   0  0  0  0  0  0  0  0  0  0  0  0
    7.3339  -14.9938   22.1874 O   0  0  0  0  0  0  0  0  0  0  0  0
    8.9809  -18.3791   22.4234 C   0  0  0  0  0  0  0  0  0  0  0  0
    9.7948  -17.7468   23.5610 C   0  0  1  0  0  0  0  0  0  0  0  0
   11.1217  -17.9807   23.2908 O   0  0  0  0  0  0  0  0  0  0  0  0
    9.4163  -16.2948   23.6897 C   0  0  2  0  0  0  0  0  0  0  0  0
    9.5199  -15.6494   22.4198 N   0  0  0  0  0  0  0  0  0  0  0  0
   10.1044  -15.6015   24.8026 C   0  0  0  0  0  0  0  0  0  0  0  0
   10.5902  -14.4548   24.5962 O   0  0  0  0  0  0  0  0  0  0  0  0
   10.2527  -16.1464   26.0828 N   0  0  0  0  0  0  0  0  0  0  0  0
   10.4776  -15.3744   27.2850 C   0  0  1  0  0  0  0  0  0  0  0  0
    9.3627  -14.4326   27.6071 C   0  0  0  0  0  0  0  0  0  0  0  0
    9.7730  -13.6034   29.1725 S   0  0  0  0  0  0  0  0  0  0  0  0
   10.7871  -16.2789   28.4355 C   0  0  0  0  0  0  0  0  0  0  0  0
   10.3589  -17.5948   28.4691 O   0  0  0  0  0  0  0  0  0  0  0  0
   11.4480  -15.8300   29.3851 O   0  0  0  0  0  0  0  0  0  0  0  0
  1  5  1  0
  2  3  1  0
  2  1  1  0
  3  4  1  0
  4  5  1  0
  5  6  1  1
  6  7  2  0
  9  8  1  6
  9 11  1  0
 10  9  1  0
 11 12  1  6
 11 13  1  0
 12  6  1  0
 13 14  2  0
 13 15  1  0
 15 16  1  0
 16 19  1  0
 16 17  1  1
 18 17  1  0
 19 21  2  0
 19 20  1  0
M  END
$$$$
