PTC.pdb
     RDKit          3D

 21 21  0  0  1  0  0  0  0  0999 V2000
    9.2039  -14.6333   19.3484 N   0  0  0  0  0  0  0  0  0  0  0  0
    9.1527  -13.8541   18.1178 C   0  0  0  0  0  0  0  0  0  0  0  0
    7.7602  -13.2700   18.1850 C   0  0  0  0  0  0  0  0  0  0  0  0
    7.4889  -13.1402   19.6727 C   0  0  0  0  0  0  0  0  0  0  0  0
    8.7442  -13.6748   20.3076 C   0  0  1  0  0  0  0  0  0  0  0  0
    8.4619  -14.2734   21.6358 C   0  0  0  0  0  0  0  0  0  0  0  0
    7.8989  -13.5806   22.5110 O   0  0  0  0  0  0  0  0  0  0  0  0
    7.9267  -18.2653   21.9458 C   0  0  0  0  0  0  0  0  0  0  0  0
    8.8779  -17.7483   23.0341 C   0  0  1  0  0  0  0  0  0  0  0  0
   10.1501  -18.1233   22.6744 O   0  0  0  0  0  0  0  0  0  0  0  0
    8.6737  -16.2660   23.2035 C   0  0  2  0  0  0  0  0  0  0  0  0
    8.8110  -15.6075   21.9436 N   0  0  0  0  0  0  0  0  0  0  0  0
    9.4718  -15.6819   24.3057 C   0  0  0  0  0  0  0  0  0  0  0  0
   10.5505  -15.0889   24.0265 O   0  0  0  0  0  0  0  0  0  0  0  0
    9.1003  -15.7497   25.6530 N   0  0  0  0  0  0  0  0  0  0  0  0
    9.8681  -15.1974   26.7473 C   0  0  1  0  0  0  0  0  0  0  0  0
    9.1469  -14.1283   27.5028 C   0  0  0  0  0  0  0  0  0  0  0  0
   10.3853  -13.1764   28.4337 S   0  0  0  0  0  0  0  0  0  0  0  0
   10.3452  -16.2883   27.6527 C   0  0  0  0  0  0  0  0  0  0  0  0
   11.3522  -16.0832   28.5801 O   0  0  0  0  0  0  0  0  0  0  0  0
    9.8184  -17.4085   27.5647 O   0  0  0  0  0  0  0  0  0  0  0  0
  1  5  1  0
  2  3  1  0
  2  1  1  0
  3  4  1  0
  4  5  1  0
  5  6  1  1
  6  7  2  0
  9  8  1  6
  9 11  1  0
 10  9  1  0
 11 12  1  6
 11 13  1  0
 12  6  1  0
 13 14  2  0
 13 15  1  0
 15 16  1  0
 16 19  1  0
 16 17  1  1
 18 17  1  0
 19 21  2  0
 19 20  1  0
M  END
$$$$
