PTC.pdb
     RDKit          3D

 21 21  0  0  1  0  0  0  0  0999 V2000
    8.8245  -15.0452   19.2014 N   0  0  0  0  0  0  0  0  0  0  0  0
    8.9308  -14.5952   17.8192 C   0  0  0  0  0  0  0  0  0  0  0  0
    7.9737  -13.4254   17.8055 C   0  0  0  0  0  0  0  0  0  0  0  0
    8.0282  -12.8909   19.2250 C   0  0  0  0  0  0  0  0  0  0  0  0
    8.9976  -13.8143   19.9121 C   0  0  1  0  0  0  0  0  0  0  0  0
    8.6931  -13.9329   21.3596 C   0  0  0  0  0  0  0  0  0  0  0  0
    8.6850  -12.9032   22.0686 O   0  0  0  0  0  0  0  0  0  0  0  0
    5.9737  -16.4809   22.5536 C   0  0  0  0  0  0  0  0  0  0  0  0
    7.2149  -16.6501   23.4409 C   0  0  1  0  0  0  0  0  0  0  0  0
    7.8288  -17.8201   23.0633 O   0  0  0  0  0  0  0  0  0  0  0  0
    8.0711  -15.4161   23.3310 C   0  0  2  0  0  0  0  0  0  0  0  0
    8.4109  -15.1783   21.9643 N   0  0  0  0  0  0  0  0  0  0  0  0
    9.2147  -15.4050   24.2717 C   0  0  0  0  0  0  0  0  0  0  0  0
   10.3563  -15.7322   23.8441 O   0  0  0  0  0  0  0  0  0  0  0  0
    9.1057  -15.0520   25.6213 N   0  0  0  0  0  0  0  0  0  0  0  0
   10.2117  -15.0072   26.5523 C   0  0  1  0  0  0  0  0  0  0  0  0
   10.2086  -13.7941   27.4252 C   0  0  0  0  0  0  0  0  0  0  0  0
    8.4977  -13.5086   27.9706 S   0  0  0  0  0  0  0  0  0  0  0  0
   10.2677  -16.2671   27.3567 C   0  0  0  0  0  0  0  0  0  0  0  0
   11.3272  -16.5510   28.2012 O   0  0  0  0  0  0  0  0  0  0  0  0
    9.3333  -17.0778   27.2596 O   0  0  0  0  0  0  0  0  0  0  0  0
  1  5  1  0
  2  3  1  0
  2  1  1  0
  3  4  1  0
  4  5  1  0
  5  6  1  1
  6  7  2  0
  9  8  1  6
  9 11  1  0
 10  9  1  0
 11 12  1  6
 11 13  1  0
 12  6  1  0
 13 14  2  0
 13 15  1  0
 15 16  1  0
 16 19  1  0
 16 17  1  1
 18 17  1  0
 19 21  2  0
 19 20  1  0
M  END
$$$$
