GTW.pdb
     RDKit          3D

 26 27  0  0  1  0  0  0  0  0999 V2000
   28.4689  -22.9467  -17.5745 N   0  0  0  0  0  0  0  0  0  0  0  0
   27.3393  -22.7857  -16.6836 C   0  0  0  0  0  0  0  0  0  0  0  0
   27.6960  -21.8195  -15.6036 C   0  0  0  0  0  0  0  0  0  0  0  0
   28.8626  -21.3430  -15.5208 O   0  0  0  0  0  0  0  0  0  0  0  0
   26.7197  -18.5559  -15.2508 C   0  0  0  0  0  0  0  0  0  0  0  0
   26.0963  -19.2450  -14.0654 C   0  0  1  0  0  0  0  0  0  0  0  0
   24.7599  -19.5471  -14.2399 O   0  0  0  0  0  0  0  0  0  0  0  0
   26.9353  -20.4595  -13.6851 C   0  0  2  0  0  0  0  0  0  0  0  0
   26.6785  -21.4645  -14.6855 N   0  0  0  0  0  0  0  0  0  0  0  0
   26.4499  -20.9267  -12.3571 C   0  0  0  0  0  0  0  0  0  0  0  0
   25.6994  -21.9467  -12.2950 O   0  0  0  0  0  0  0  0  0  0  0  0
   26.7916  -20.2801  -11.1650 N   0  0  0  0  0  0  0  0  0  0  0  0
   26.3209  -20.8025   -9.8628 C   0  0  1  0  0  0  0  0  0  0  0  0
   27.2661  -20.2434   -8.8585 C   0  0  0  0  0  0  0  0  0  0  0  0
   26.9152  -20.3941   -7.4472 C   0  0  0  0  0  0  0  0  0  0  0  0
   25.8241  -21.1010   -6.9672 C   0  0  0  0  0  0  0  0  0  0  0  0
   25.8018  -20.9962   -5.6302 N   0  0  0  0  0  0  0  0  0  0  0  0
   26.8361  -20.2493   -5.2212 C   0  0  0  0  0  0  0  0  0  0  0  0
   27.2487  -19.8675   -3.9434 C   0  0  0  0  0  0  0  0  0  0  0  0
   28.3810  -19.0995   -3.8563 C   0  0  0  0  0  0  0  0  0  0  0  0
   29.0934  -18.7115   -4.9654 C   0  0  0  0  0  0  0  0  0  0  0  0
   28.6873  -19.0861   -6.2193 C   0  0  0  0  0  0  0  0  0  0  0  0
   27.5425  -19.8643   -6.3361 C   0  0  0  0  0  0  0  0  0  0  0  0
   24.9065  -20.5062   -9.7083 C   0  0  0  0  0  0  0  0  0  0  0  0
   24.0500  -21.3386   -9.0092 O   0  0  0  0  0  0  0  0  0  0  0  0
   24.4101  -19.4696  -10.2170 O   0  0  0  0  0  0  0  0  0  0  0  0
  2  1  1  0
  3  9  1  0
  3  2  1  0
  4  3  2  0
  6  5  1  6
  6  8  1  0
  7  6  1  0
  8 10  1  0
  8  9  1  6
 10 12  1  0
 11 10  2  0
 12 13  1  0
 13 14  1  1
 14 15  1  0
 15 23  1  0
 15 16  2  0
 16 17  1  0
 17 18  1  0
 18 19  2  0
 20 19  1  0
 21 20  2  0
 22 23  2  0
 22 21  1  0
 23 18  1  0
 24 25  1  0
 24 13  1  0
 26 24  2  0
M  END
$$$$
