GTW.pdb
     RDKit          3D

 26 27  0  0  1  0  0  0  0  0999 V2000
   22.9839  -26.6803  -12.1060 N   0  0  0  0  0  0  0  0  0  0  0  0
   22.3857  -25.6630  -12.9444 C   0  0  0  0  0  0  0  0  0  0  0  0
   23.3133  -24.4983  -13.0457 C   0  0  0  0  0  0  0  0  0  0  0  0
   24.2554  -24.3474  -12.2184 O   0  0  0  0  0  0  0  0  0  0  0  0
   25.7360  -23.8612  -15.4108 C   0  0  0  0  0  0  0  0  0  0  0  0
   24.7315  -22.7571  -15.6121 C   0  0  1  0  0  0  0  0  0  0  0  0
   23.8682  -22.9791  -16.6671 O   0  0  0  0  0  0  0  0  0  0  0  0
   24.0071  -22.4842  -14.2990 C   0  0  2  0  0  0  0  0  0  0  0  0
   23.0924  -23.5798  -14.1001 N   0  0  0  0  0  0  0  0  0  0  0  0
   23.2502  -21.2138  -14.4740 C   0  0  0  0  0  0  0  0  0  0  0  0
   22.0011  -21.2605  -14.6864 O   0  0  0  0  0  0  0  0  0  0  0  0
   23.8669  -19.9601  -14.4129 N   0  0  0  0  0  0  0  0  0  0  0  0
   23.0815  -18.7230  -14.6203 C   0  0  1  0  0  0  0  0  0  0  0  0
   24.0267  -17.6120  -14.3255 C   0  0  0  0  0  0  0  0  0  0  0  0
   25.2995  -17.6027  -15.0447 C   0  0  0  0  0  0  0  0  0  0  0  0
   25.5400  -16.9308  -16.2328 C   0  0  0  0  0  0  0  0  0  0  0  0
   26.8033  -17.1735  -16.6127 N   0  0  0  0  0  0  0  0  0  0  0  0
   27.3946  -17.9765  -15.7181 C   0  0  0  0  0  0  0  0  0  0  0  0
   28.6890  -18.4961  -15.6600 C   0  0  0  0  0  0  0  0  0  0  0  0
   28.9962  -19.2884  -14.5842 C   0  0  0  0  0  0  0  0  0  0  0  0
   28.0850  -19.5712  -13.5954 C   0  0  0  0  0  0  0  0  0  0  0  0
   26.8145  -19.0615  -13.6535 C   0  0  0  0  0  0  0  0  0  0  0  0
   26.4765  -18.2558  -14.7334 C   0  0  0  0  0  0  0  0  0  0  0  0
   22.4614  -18.7613  -15.9341 C   0  0  0  0  0  0  0  0  0  0  0  0
   21.3404  -18.0109  -16.2435 O   0  0  0  0  0  0  0  0  0  0  0  0
   22.9304  -19.4925  -16.8425 O   0  0  0  0  0  0  0  0  0  0  0  0
  2  1  1  0
  3  9  1  0
  3  2  1  0
  4  3  2  0
  6  5  1  1
  6  8  1  0
  7  6  1  0
  8 10  1  0
  8  9  1  6
 10 12  1  0
 11 10  2  0
 12 13  1  0
 13 14  1  6
 14 15  1  0
 15 23  1  0
 15 16  2  0
 16 17  1  0
 17 18  1  0
 18 19  2  0
 20 19  1  0
 21 20  2  0
 22 23  2  0
 22 21  1  0
 23 18  1  0
 24 25  1  0
 24 13  1  0
 26 24  2  0
M  END
$$$$
