GTW.pdb
     RDKit          3D

 26 27  0  0  1  0  0  0  0  0999 V2000
   28.8057  -22.6474  -17.2774 N   0  0  0  0  0  0  0  0  0  0  0  0
   27.6134  -22.1699  -16.6095 C   0  0  0  0  0  0  0  0  0  0  0  0
   27.9813  -21.6323  -15.2668 C   0  0  0  0  0  0  0  0  0  0  0  0
   29.1037  -21.8937  -14.7502 O   0  0  0  0  0  0  0  0  0  0  0  0
   28.0137  -18.1073  -14.3031 C   0  0  0  0  0  0  0  0  0  0  0  0
   27.0183  -18.7789  -13.3938 C   0  0  1  0  0  0  0  0  0  0  0  0
   25.7026  -18.5229  -13.7273 O   0  0  0  0  0  0  0  0  0  0  0  0
   27.3311  -20.2685  -13.3108 C   0  0  2  0  0  0  0  0  0  0  0  0
   27.0259  -20.8242  -14.6049 N   0  0  0  0  0  0  0  0  0  0  0  0
   26.4251  -20.8479  -12.2808 C   0  0  0  0  0  0  0  0  0  0  0  0
   25.3729  -21.4514  -12.6494 O   0  0  0  0  0  0  0  0  0  0  0  0
   26.6905  -20.7525  -10.9110 N   0  0  0  0  0  0  0  0  0  0  0  0
   25.7554  -21.3305   -9.9202 C   0  0  1  0  0  0  0  0  0  0  0  0
   26.5764  -21.5534   -8.6992 C   0  0  0  0  0  0  0  0  0  0  0  0
   26.9664  -20.3753   -7.9262 C   0  0  0  0  0  0  0  0  0  0  0  0
   26.6483  -19.0662   -8.2514 C   0  0  0  0  0  0  0  0  0  0  0  0
   27.1972  -18.2532   -7.3366 N   0  0  0  0  0  0  0  0  0  0  0  0
   27.8596  -18.9821   -6.4283 C   0  0  0  0  0  0  0  0  0  0  0  0
   28.5752  -18.6070   -5.2899 C   0  0  0  0  0  0  0  0  0  0  0  0
   29.1334  -19.6125   -4.5437 C   0  0  0  0  0  0  0  0  0  0  0  0
   29.0061  -20.9378   -4.8836 C   0  0  0  0  0  0  0  0  0  0  0  0
   28.3042  -21.3051   -6.0015 C   0  0  0  0  0  0  0  0  0  0  0  0
   27.7286  -20.3058   -6.7761 C   0  0  0  0  0  0  0  0  0  0  0  0
   24.5842  -20.4773   -9.8090 C   0  0  0  0  0  0  0  0  0  0  0  0
   24.5247  -19.2251  -10.3953 O   0  0  0  0  0  0  0  0  0  0  0  0
   23.5748  -20.8561   -9.1628 O   0  0  0  0  0  0  0  0  0  0  0  0
  2  1  1  0
  3  9  1  0
  3  2  1  0
  4  3  2  0
  6  5  1  6
  6  8  1  0
  7  6  1  0
  8 10  1  0
  8  9  1  6
 10 12  1  0
 11 10  2  0
 12 13  1  0
 13 14  1  1
 14 15  1  0
 15 23  1  0
 15 16  2  0
 16 17  1  0
 17 18  1  0
 18 19  2  0
 20 19  1  0
 21 20  2  0
 22 23  2  0
 22 21  1  0
 23 18  1  0
 24 25  1  0
 24 13  1  0
 26 24  2  0
M  END
$$$$
