GTW.pdb
     RDKit          3D

 26 27  0  0  1  0  0  0  0  0999 V2000
   26.7502  -24.3257  -17.3270 N   0  0  0  0  0  0  0  0  0  0  0  0
   26.1051  -23.1279  -16.8322 C   0  0  0  0  0  0  0  0  0  0  0  0
   26.9118  -22.5590  -15.7128 C   0  0  0  0  0  0  0  0  0  0  0  0
   27.8298  -23.2340  -15.1684 O   0  0  0  0  0  0  0  0  0  0  0  0
   28.1352  -18.7002  -15.5351 C   0  0  0  0  0  0  0  0  0  0  0  0
   27.2419  -19.1326  -14.4022 C   0  0  1  0  0  0  0  0  0  0  0  0
   25.9365  -18.6994  -14.5295 O   0  0  0  0  0  0  0  0  0  0  0  0
   27.3516  -20.6416  -14.2166 C   0  0  2  0  0  0  0  0  0  0  0  0
   26.6052  -21.2423  -15.2930 N   0  0  0  0  0  0  0  0  0  0  0  0
   26.7149  -20.9681  -12.9106 C   0  0  0  0  0  0  0  0  0  0  0  0
   25.5563  -21.4828  -12.8972 O   0  0  0  0  0  0  0  0  0  0  0  0
   27.3490  -20.7279  -11.6875 N   0  0  0  0  0  0  0  0  0  0  0  0
   26.6561  -21.0115  -10.4109 C   0  0  1  0  0  0  0  0  0  0  0  0
   27.6757  -20.7646   -9.3554 C   0  0  0  0  0  0  0  0  0  0  0  0
   27.1917  -20.4916   -8.0031 C   0  0  0  0  0  0  0  0  0  0  0  0
   25.8628  -20.3154   -7.6514 C   0  0  0  0  0  0  0  0  0  0  0  0
   25.7998  -20.0533   -6.3375 N   0  0  0  0  0  0  0  0  0  0  0  0
   27.0356  -20.0527   -5.8201 C   0  0  0  0  0  0  0  0  0  0  0  0
   27.4884  -19.8481   -4.5155 C   0  0  0  0  0  0  0  0  0  0  0  0
   28.8403  -19.9311   -4.3035 C   0  0  0  0  0  0  0  0  0  0  0  0
   29.7281  -20.2027   -5.3165 C   0  0  0  0  0  0  0  0  0  0  0  0
   29.2829  -20.4027   -6.5968 C   0  0  0  0  0  0  0  0  0  0  0  0
   27.9174  -20.3237   -6.8396 C   0  0  0  0  0  0  0  0  0  0  0  0
   25.4186  -20.2514  -10.3560 C   0  0  0  0  0  0  0  0  0  0  0  0
   24.2526  -20.7764   -9.8267 O   0  0  0  0  0  0  0  0  0  0  0  0
   25.3688  -19.0760  -10.7986 O   0  0  0  0  0  0  0  0  0  0  0  0
  2  1  1  0
  3  9  1  0
  3  2  1  0
  4  3  2  0
  6  5  1  6
  6  8  1  0
  7  6  1  0
  8 10  1  0
  8  9  1  6
 10 12  1  0
 11 10  2  0
 12 13  1  0
 13 14  1  1
 14 15  1  0
 15 23  1  0
 15 16  2  0
 16 17  1  0
 17 18  1  0
 18 19  2  0
 20 19  1  0
 21 20  2  0
 22 23  2  0
 22 21  1  0
 23 18  1  0
 24 25  1  0
 24 13  1  0
 26 24  2  0
M  END
$$$$
