GTW.pdb
     RDKit          3D

 26 27  0  0  1  0  0  0  0  0999 V2000
   15.9191  -15.9163  -15.7728 N   0  0  0  0  0  0  0  0  0  0  0  0
   15.3020  -14.6082  -15.8322 C   0  0  0  0  0  0  0  0  0  0  0  0
   16.2872  -13.6211  -16.3637 C   0  0  0  0  0  0  0  0  0  0  0  0
   17.4903  -13.9499  -16.5614 O   0  0  0  0  0  0  0  0  0  0  0  0
   15.4820  -11.1481  -19.2699 C   0  0  0  0  0  0  0  0  0  0  0  0
   15.9068  -10.3961  -18.0359 C   0  0  1  0  0  0  0  0  0  0  0  0
   14.8608   -9.7869  -17.3707 O   0  0  0  0  0  0  0  0  0  0  0  0
   16.7267  -11.3155  -17.1382 C   0  0  2  0  0  0  0  0  0  0  0  0
   15.8174  -12.3133  -16.6337 N   0  0  0  0  0  0  0  0  0  0  0  0
   17.2434  -10.4833  -16.0167 C   0  0  0  0  0  0  0  0  0  0  0  0
   16.6057  -10.4542  -14.9212 O   0  0  0  0  0  0  0  0  0  0  0  0
   18.4141   -9.7258  -16.1238 N   0  0  0  0  0  0  0  0  0  0  0  0
   18.8560   -8.8596  -15.0081 C   0  0  1  0  0  0  0  0  0  0  0  0
   20.3428   -8.9089  -15.0470 C   0  0  0  0  0  0  0  0  0  0  0  0
   21.0699   -7.8846  -14.2989 C   0  0  0  0  0  0  0  0  0  0  0  0
   21.5144   -8.0149  -12.9927 C   0  0  0  0  0  0  0  0  0  0  0  0
   22.1099   -6.8698  -12.6278 N   0  0  0  0  0  0  0  0  0  0  0  0
   22.0710   -5.9995  -13.6457 C   0  0  0  0  0  0  0  0  0  0  0  0
   22.5608   -4.6977  -13.7642 C   0  0  0  0  0  0  0  0  0  0  0  0
   22.3724   -4.0667  -14.9667 C   0  0  0  0  0  0  0  0  0  0  0  0
   21.7323   -4.6709  -16.0217 C   0  0  0  0  0  0  0  0  0  0  0  0
   21.2512   -5.9485  -15.9043 C   0  0  0  0  0  0  0  0  0  0  0  0
   21.4282   -6.6108  -14.6961 C   0  0  0  0  0  0  0  0  0  0  0  0
   18.2126   -7.5615  -15.1227 C   0  0  0  0  0  0  0  0  0  0  0  0
   17.7804   -7.0564  -16.3364 O   0  0  0  0  0  0  0  0  0  0  0  0
   18.0301   -6.8453  -14.1060 O   0  0  0  0  0  0  0  0  0  0  0  0
  2  1  1  0
  3  9  1  0
  3  2  1  0
  4  3  2  0
  6  5  1  6
  6  8  1  0
  7  6  1  0
  8 10  1  0
  8  9  1  1
 10 12  1  0
 11 10  2  0
 12 13  1  0
 13 14  1  6
 14 15  1  0
 15 23  1  0
 15 16  2  0
 16 17  1  0
 17 18  1  0
 18 19  2  0
 20 19  1  0
 21 20  2  0
 22 23  2  0
 22 21  1  0
 23 18  1  0
 24 25  1  0
 24 13  1  0
 26 24  2  0
M  END
$$$$
