GTW.pdb
     RDKit          3D

 26 27  0  0  1  0  0  0  0  0999 V2000
   23.2825  -17.9631  -16.5636 N   0  0  0  0  0  0  0  0  0  0  0  0
   24.4221  -18.5795  -15.9177 C   0  0  0  0  0  0  0  0  0  0  0  0
   24.1004  -18.8295  -14.4820 C   0  0  0  0  0  0  0  0  0  0  0  0
   23.5229  -17.9487  -13.7852 O   0  0  0  0  0  0  0  0  0  0  0  0
   22.3249  -21.9318  -13.1006 C   0  0  0  0  0  0  0  0  0  0  0  0
   23.7115  -21.8342  -12.5205 C   0  0  1  0  0  0  0  0  0  0  0  0
   24.6149  -22.7070  -13.0947 O   0  0  0  0  0  0  0  0  0  0  0  0
   24.1782  -20.3837  -12.5618 C   0  0  2  0  0  0  0  0  0  0  0  0
   24.4675  -20.0854  -13.9417 N   0  0  0  0  0  0  0  0  0  0  0  0
   25.4245  -20.3030  -11.7508 C   0  0  0  0  0  0  0  0  0  0  0  0
   26.5485  -20.3334  -12.3366 O   0  0  0  0  0  0  0  0  0  0  0  0
   25.4050  -20.1940  -10.3567 N   0  0  0  0  0  0  0  0  0  0  0  0
   26.6643  -20.0353   -9.5956 C   0  0  1  0  0  0  0  0  0  0  0  0
   26.2611  -19.4030   -8.3102 C   0  0  0  0  0  0  0  0  0  0  0  0
   27.3204  -19.0935   -7.3512 C   0  0  0  0  0  0  0  0  0  0  0  0
   28.2218  -18.0473   -7.4677 C   0  0  0  0  0  0  0  0  0  0  0  0
   29.0636  -18.0905   -6.4243 N   0  0  0  0  0  0  0  0  0  0  0  0
   28.7449  -19.1235   -5.6330 C   0  0  0  0  0  0  0  0  0  0  0  0
   29.3046  -19.5745   -4.4363 C   0  0  0  0  0  0  0  0  0  0  0  0
   28.7271  -20.6716   -3.8512 C   0  0  0  0  0  0  0  0  0  0  0  0
   27.6443  -21.3140   -4.4018 C   0  0  0  0  0  0  0  0  0  0  0  0
   27.0960  -20.8711   -5.5767 C   0  0  0  0  0  0  0  0  0  0  0  0
   27.6623  -19.7613   -6.1911 C   0  0  0  0  0  0  0  0  0  0  0  0
   27.3576  -21.3115   -9.5408 C   0  0  0  0  0  0  0  0  0  0  0  0
   28.7374  -21.4001   -9.4810 O   0  0  0  0  0  0  0  0  0  0  0  0
   26.7137  -22.3909   -9.5503 O   0  0  0  0  0  0  0  0  0  0  0  0
  2  1  1  0
  3  9  1  0
  3  2  1  0
  4  3  2  0
  6  5  1  6
  6  8  1  0
  7  6  1  0
  8 10  1  0
  8  9  1  6
 10 12  1  0
 11 10  2  0
 12 13  1  0
 13 14  1  1
 14 15  1  0
 15 23  1  0
 15 16  2  0
 16 17  1  0
 17 18  1  0
 18 19  2  0
 20 19  1  0
 21 20  2  0
 22 23  2  0
 22 21  1  0
 23 18  1  0
 24 25  1  0
 24 13  1  0
 26 24  2  0
M  END
$$$$
