GTW.pdb
     RDKit          3D

 26 27  0  0  1  0  0  0  0  0999 V2000
   28.4540  -22.8986  -17.4855 N   0  0  0  0  0  0  0  0  0  0  0  0
   27.3303  -22.4023  -16.7195 C   0  0  0  0  0  0  0  0  0  0  0  0
   27.8346  -21.6706  -15.5206 C   0  0  0  0  0  0  0  0  0  0  0  0
   29.0606  -21.6910  -15.2182 O   0  0  0  0  0  0  0  0  0  0  0  0
   27.7823  -18.1622  -14.7209 C   0  0  0  0  0  0  0  0  0  0  0  0
   26.8966  -18.8255  -13.6990 C   0  0  1  0  0  0  0  0  0  0  0  0
   25.5475  -18.6691  -13.9502 O   0  0  0  0  0  0  0  0  0  0  0  0
   27.3066  -20.2853  -13.5429 C   0  0  2  0  0  0  0  0  0  0  0  0
   26.8871  -20.9596  -14.7454 N   0  0  0  0  0  0  0  0  0  0  0  0
   26.5633  -20.8245  -12.3706 C   0  0  0  0  0  0  0  0  0  0  0  0
   25.4629  -21.4259  -12.5573 O   0  0  0  0  0  0  0  0  0  0  0  0
   27.0342  -20.6930  -11.0603 N   0  0  0  0  0  0  0  0  0  0  0  0
   26.2691  -21.2545   -9.9247 C   0  0  1  0  0  0  0  0  0  0  0  0
   27.2707  -21.4430   -8.8404 C   0  0  0  0  0  0  0  0  0  0  0  0
   27.3416  -20.4146   -7.8036 C   0  0  0  0  0  0  0  0  0  0  0  0
   26.8088  -19.1394   -7.9066 C   0  0  0  0  0  0  0  0  0  0  0  0
   27.0914  -18.4661   -6.7815 N   0  0  0  0  0  0  0  0  0  0  0  0
   27.7868  -19.2535   -5.9499 C   0  0  0  0  0  0  0  0  0  0  0  0
   28.2947  -19.0216   -4.6705 C   0  0  0  0  0  0  0  0  0  0  0  0
   28.9592  -20.0569   -4.0653 C   0  0  0  0  0  0  0  0  0  0  0  0
   29.1290  -21.2771   -4.6738 C   0  0  0  0  0  0  0  0  0  0  0  0
   28.6308  -21.5037   -5.9299 C   0  0  0  0  0  0  0  0  0  0  0  0
   27.9535  -20.4711   -6.5662 C   0  0  0  0  0  0  0  0  0  0  0  0
   25.1200  -20.4073   -9.6530 C   0  0  0  0  0  0  0  0  0  0  0  0
   24.0456  -20.8409   -8.8961 O   0  0  0  0  0  0  0  0  0  0  0  0
   25.0651  -19.2371  -10.1085 O   0  0  0  0  0  0  0  0  0  0  0  0
  2  1  1  0
  3  9  1  0
  3  2  1  0
  4  3  2  0
  6  5  1  6
  6  8  1  0
  7  6  1  0
  8 10  1  0
  8  9  1  6
 10 12  1  0
 11 10  2  0
 12 13  1  0
 13 14  1  1
 14 15  1  0
 15 23  1  0
 15 16  2  0
 16 17  1  0
 17 18  1  0
 18 19  2  0
 20 19  1  0
 21 20  2  0
 22 23  2  0
 22 21  1  0
 23 18  1  0
 24 25  1  0
 24 13  1  0
 26 24  2  0
M  END
$$$$
