GTW.pdb
     RDKit          3D

 26 27  0  0  1  0  0  0  0  0999 V2000
   19.3579  -14.5870  -17.4619 N   0  0  0  0  0  0  0  0  0  0  0  0
   18.6198  -13.3480  -17.3362 C   0  0  0  0  0  0  0  0  0  0  0  0
   19.5738  -12.2005  -17.3588 C   0  0  0  0  0  0  0  0  0  0  0  0
   20.8177  -12.3948  -17.4579 O   0  0  0  0  0  0  0  0  0  0  0  0
   19.9551   -9.5921  -19.6893 C   0  0  0  0  0  0  0  0  0  0  0  0
   19.5469   -8.8874  -18.4222 C   0  0  1  0  0  0  0  0  0  0  0  0
   18.2280   -8.4772  -18.4165 O   0  0  0  0  0  0  0  0  0  0  0  0
   19.9045   -9.7550  -17.2210 C   0  0  2  0  0  0  0  0  0  0  0  0
   19.0276  -10.8978  -17.2653 N   0  0  0  0  0  0  0  0  0  0  0  0
   19.6273   -8.9471  -16.0011 C   0  0  0  0  0  0  0  0  0  0  0  0
   18.4822   -9.0128  -15.4609 O   0  0  0  0  0  0  0  0  0  0  0  0
   20.5877   -8.1115  -15.4222 N   0  0  0  0  0  0  0  0  0  0  0  0
   20.2241   -7.2000  -14.3144 C   0  0  1  0  0  0  0  0  0  0  0  0
   21.5072   -6.9053  -13.6205 C   0  0  0  0  0  0  0  0  0  0  0  0
   22.5127   -6.1441  -14.3600 C   0  0  0  0  0  0  0  0  0  0  0  0
   22.5508   -4.7627  -14.4643 C   0  0  0  0  0  0  0  0  0  0  0  0
   23.5892   -4.4214  -15.2416 N   0  0  0  0  0  0  0  0  0  0  0  0
   24.2290   -5.5266  -15.6467 C   0  0  0  0  0  0  0  0  0  0  0  0
   25.3604   -5.6954  -16.4468 C   0  0  0  0  0  0  0  0  0  0  0  0
   25.7839   -6.9807  -16.6663 C   0  0  0  0  0  0  0  0  0  0  0  0
   25.1375   -8.0692  -16.1319 C   0  0  0  0  0  0  0  0  0  0  0  0
   24.0266   -7.9026  -15.3473 C   0  0  0  0  0  0  0  0  0  0  0  0
   23.5757   -6.6104  -15.1092 C   0  0  0  0  0  0  0  0  0  0  0  0
   19.4608   -6.0816  -14.8422 C   0  0  0  0  0  0  0  0  0  0  0  0
   18.7570   -5.2161  -14.0232 O   0  0  0  0  0  0  0  0  0  0  0  0
   19.4132   -5.8660  -16.0796 O   0  0  0  0  0  0  0  0  0  0  0  0
  2  1  1  0
  3  9  1  0
  3  2  1  0
  4  3  2  0
  6  5  1  6
  6  8  1  0
  7  6  1  0
  8 10  1  0
  8  9  1  1
 10 12  1  0
 11 10  2  0
 12 13  1  0
 13 14  1  6
 14 15  1  0
 15 23  1  0
 15 16  2  0
 16 17  1  0
 17 18  1  0
 18 19  2  0
 20 19  1  0
 21 20  2  0
 22 23  2  0
 22 21  1  0
 23 18  1  0
 24 25  1  0
 24 13  1  0
 26 24  2  0
M  END
$$$$
