GTW.pdb
     RDKit          3D

 26 27  0  0  1  0  0  0  0  0999 V2000
   16.9919  -27.6266  -17.5872 N   0  0  0  0  0  0  0  0  0  0  0  0
   16.2137  -26.5339  -17.0429 C   0  0  0  0  0  0  0  0  0  0  0  0
   16.7050  -25.2455  -17.6136 C   0  0  0  0  0  0  0  0  0  0  0  0
   17.7408  -25.2104  -18.3352 O   0  0  0  0  0  0  0  0  0  0  0  0
   14.1621  -22.6163  -19.0786 C   0  0  0  0  0  0  0  0  0  0  0  0
   15.0554  -22.0018  -18.0330 C   0  0  1  0  0  0  0  0  0  0  0  0
   14.4299  -21.8023  -16.8178 O   0  0  0  0  0  0  0  0  0  0  0  0
   16.3359  -22.8202  -17.9147 C   0  0  2  0  0  0  0  0  0  0  0  0
   15.9655  -24.0763  -17.3132 N   0  0  0  0  0  0  0  0  0  0  0  0
   17.2503  -22.0714  -17.0089 C   0  0  0  0  0  0  0  0  0  0  0  0
   17.2490  -22.3366  -15.7690 O   0  0  0  0  0  0  0  0  0  0  0  0
   18.1183  -21.0786  -17.4746 N   0  0  0  0  0  0  0  0  0  0  0  0
   18.9873  -20.3359  -16.5347 C   0  0  1  0  0  0  0  0  0  0  0  0
   20.1597  -19.9112  -17.3469 C   0  0  0  0  0  0  0  0  0  0  0  0
   20.6430  -18.5432  -17.1669 C   0  0  0  0  0  0  0  0  0  0  0  0
   21.6764  -18.1662  -16.3238 C   0  0  0  0  0  0  0  0  0  0  0  0
   21.8204  -16.8344  -16.3936 N   0  0  0  0  0  0  0  0  0  0  0  0
   20.9217  -16.3300  -17.2497 C   0  0  0  0  0  0  0  0  0  0  0  0
   20.6818  -15.0200  -17.6681 C   0  0  0  0  0  0  0  0  0  0  0  0
   19.6809  -14.8309  -18.5857 C   0  0  0  0  0  0  0  0  0  0  0  0
   18.9345  -15.8713  -19.0843 C   0  0  0  0  0  0  0  0  0  0  0  0
   19.1701  -17.1567  -18.6726 C   0  0  0  0  0  0  0  0  0  0  0  0
   20.1785  -17.3764  -17.7428 C   0  0  0  0  0  0  0  0  0  0  0  0
   18.2074  -19.3050  -15.8705 C   0  0  0  0  0  0  0  0  0  0  0  0
   16.9895  -18.8688  -16.3622 O   0  0  0  0  0  0  0  0  0  0  0  0
   18.6248  -18.7671  -14.8140 O   0  0  0  0  0  0  0  0  0  0  0  0
  2  1  1  0
  3  9  1  0
  3  2  1  0
  4  3  2  0
  6  5  1  6
  6  8  1  0
  7  6  1  0
  8 10  1  0
  8  9  1  1
 10 12  1  0
 11 10  2  0
 12 13  1  0
 13 14  1  6
 14 15  1  0
 15 23  1  0
 15 16  2  0
 16 17  1  0
 17 18  1  0
 18 19  2  0
 20 19  1  0
 21 20  2  0
 22 23  2  0
 22 21  1  0
 23 18  1  0
 24 25  1  0
 24 13  1  0
 26 24  2  0
M  END
$$$$
