GTW.pdb
     RDKit          3D

 26 27  0  0  1  0  0  0  0  0999 V2000
   24.4920  -20.6986   -8.1745 N   0  0  0  0  0  0  0  0  0  0  0  0
   24.4826  -21.1953   -9.5343 C   0  0  0  0  0  0  0  0  0  0  0  0
   25.2909  -20.2853  -10.3979 C   0  0  0  0  0  0  0  0  0  0  0  0
   25.7501  -19.2003   -9.9433 O   0  0  0  0  0  0  0  0  0  0  0  0
   28.2055  -21.0862  -12.8867 C   0  0  0  0  0  0  0  0  0  0  0  0
   26.9745  -20.6100  -13.6123 C   0  0  1  0  0  0  0  0  0  0  0  0
   26.2631  -21.6251  -14.2217 O   0  0  0  0  0  0  0  0  0  0  0  0
   26.1215  -19.7706  -12.6682 C   0  0  2  0  0  0  0  0  0  0  0  0
   25.5176  -20.6886  -11.7358 N   0  0  0  0  0  0  0  0  0  0  0  0
   25.0689  -19.1178  -13.4949 C   0  0  0  0  0  0  0  0  0  0  0  0
   23.9098  -19.6295  -13.5399 O   0  0  0  0  0  0  0  0  0  0  0  0
   25.3094  -17.9527  -14.2301 N   0  0  0  0  0  0  0  0  0  0  0  0
   24.2091  -17.2780  -14.9543 C   0  0  1  0  0  0  0  0  0  0  0  0
   24.6661  -15.8723  -15.1271 C   0  0  0  0  0  0  0  0  0  0  0  0
   25.4502  -15.5617  -16.3213 C   0  0  0  0  0  0  0  0  0  0  0  0
   25.0449  -14.7211  -17.3460 C   0  0  0  0  0  0  0  0  0  0  0  0
   26.0026  -14.6994  -18.2848 N   0  0  0  0  0  0  0  0  0  0  0  0
   27.0157  -15.4925  -17.9110 C   0  0  0  0  0  0  0  0  0  0  0  0
   28.2309  -15.7890  -18.5308 C   0  0  0  0  0  0  0  0  0  0  0  0
   29.0773  -16.6414  -17.8700 C   0  0  0  0  0  0  0  0  0  0  0  0
   28.7627  -17.1908  -16.6504 C   0  0  0  0  0  0  0  0  0  0  0  0
   27.5694  -16.8998  -16.0432 C   0  0  0  0  0  0  0  0  0  0  0  0
   26.6928  -16.0391  -16.6915 C   0  0  0  0  0  0  0  0  0  0  0  0
   23.8793  -18.0403  -16.1468 C   0  0  0  0  0  0  0  0  0  0  0  0
   22.7073  -17.8351  -16.8536 O   0  0  0  0  0  0  0  0  0  0  0  0
   24.6603  -18.9264  -16.5768 O   0  0  0  0  0  0  0  0  0  0  0  0
  2  1  1  0
  3  9  1  0
  3  2  1  0
  4  3  2  0
  6  5  1  1
  6  8  1  0
  7  6  1  0
  8 10  1  0
  8  9  1  1
 10 12  1  0
 11 10  2  0
 12 13  1  0
 13 14  1  6
 14 15  1  0
 15 23  1  0
 15 16  2  0
 16 17  1  0
 17 18  1  0
 18 19  2  0
 20 19  1  0
 21 20  2  0
 22 23  2  0
 22 21  1  0
 23 18  1  0
 24 25  1  0
 24 13  1  0
 26 24  2  0
M  END
$$$$
