GTW.pdb
     RDKit          3D

 26 27  0  0  1  0  0  0  0  0999 V2000
   29.9176  -22.7716  -17.8097 N   0  0  0  0  0  0  0  0  0  0  0  0
   28.5990  -22.3412  -17.3953 C   0  0  0  0  0  0  0  0  0  0  0  0
   28.6684  -21.8084  -16.0030 C   0  0  0  0  0  0  0  0  0  0  0  0
   29.6305  -22.1089  -15.2422 O   0  0  0  0  0  0  0  0  0  0  0  0
   28.4367  -18.1507  -15.1343 C   0  0  0  0  0  0  0  0  0  0  0  0
   27.2980  -18.8804  -14.4713 C   0  0  1  0  0  0  0  0  0  0  0  0
   26.0869  -18.7198  -15.1158 O   0  0  0  0  0  0  0  0  0  0  0  0
   27.6777  -20.3436  -14.2762 C   0  0  2  0  0  0  0  0  0  0  0  0
   27.6183  -20.9596  -15.5776 N   0  0  0  0  0  0  0  0  0  0  0  0
   26.6515  -20.9452  -13.3804 C   0  0  0  0  0  0  0  0  0  0  0  0
   25.6663  -21.5589  -13.8905 O   0  0  0  0  0  0  0  0  0  0  0  0
   26.7312  -20.8598  -11.9867 N   0  0  0  0  0  0  0  0  0  0  0  0
   25.7536  -21.5687  -11.1312 C   0  0  1  0  0  0  0  0  0  0  0  0
   26.4785  -21.8394   -9.8600 C   0  0  0  0  0  0  0  0  0  0  0  0
   26.6740  -20.7163   -8.9446 C   0  0  0  0  0  0  0  0  0  0  0  0
   25.9959  -19.5091   -9.0061 C   0  0  0  0  0  0  0  0  0  0  0  0
   26.4554  -18.7109   -8.0310 N   0  0  0  0  0  0  0  0  0  0  0  0
   27.4054  -19.3515   -7.3368 C   0  0  0  0  0  0  0  0  0  0  0  0
   28.1664  -18.9564   -6.2353 C   0  0  0  0  0  0  0  0  0  0  0  0
   29.0615  -19.8667   -5.7357 C   0  0  0  0  0  0  0  0  0  0  0  0
   29.2184  -21.1185   -6.2803 C   0  0  0  0  0  0  0  0  0  0  0  0
   28.4716  -21.5053   -7.3620 C   0  0  0  0  0  0  0  0  0  0  0  0
   27.5573  -20.6017   -7.8885 C   0  0  0  0  0  0  0  0  0  0  0  0
   24.5237  -20.7974  -11.0649 C   0  0  0  0  0  0  0  0  0  0  0  0
   24.4463  -19.4912  -11.5154 O   0  0  0  0  0  0  0  0  0  0  0  0
   23.4770  -21.3011  -10.5846 O   0  0  0  0  0  0  0  0  0  0  0  0
  2  1  1  0
  3  9  1  0
  3  2  1  0
  4  3  2  0
  6  5  1  6
  6  8  1  0
  7  6  1  0
  8 10  1  0
  8  9  1  6
 10 12  1  0
 11 10  2  0
 12 13  1  0
 13 14  1  1
 14 15  1  0
 15 23  1  0
 15 16  2  0
 16 17  1  0
 17 18  1  0
 18 19  2  0
 20 19  1  0
 21 20  2  0
 22 23  2  0
 22 21  1  0
 23 18  1  0
 24 25  1  0
 24 13  1  0
 26 24  2  0
M  END
$$$$
