GTW.pdb
     RDKit          3D

 26 27  0  0  1  0  0  0  0  0999 V2000
   29.5551  -22.9541  -17.0872 N   0  0  0  0  0  0  0  0  0  0  0  0
   28.3308  -23.1978  -16.3541 C   0  0  0  0  0  0  0  0  0  0  0  0
   28.0809  -22.0619  -15.4189 C   0  0  0  0  0  0  0  0  0  0  0  0
   29.0355  -21.3564  -14.9878 O   0  0  0  0  0  0  0  0  0  0  0  0
   26.4393  -19.0290  -15.9636 C   0  0  0  0  0  0  0  0  0  0  0  0
   25.5798  -19.7402  -14.9516 C   0  0  1  0  0  0  0  0  0  0  0  0
   24.4557  -20.3299  -15.4960 O   0  0  0  0  0  0  0  0  0  0  0  0
   26.4367  -20.7173  -14.1550 C   0  0  2  0  0  0  0  0  0  0  0  0
   26.7396  -21.8130  -15.0407 N   0  0  0  0  0  0  0  0  0  0  0  0
   25.6065  -21.1975  -13.0158 C   0  0  0  0  0  0  0  0  0  0  0  0
   25.0177  -22.3167  -13.1061 O   0  0  0  0  0  0  0  0  0  0  0  0
   25.4486  -20.4571  -11.8399 N   0  0  0  0  0  0  0  0  0  0  0  0
   24.7058  -21.0189  -10.6897 C   0  0  1  0  0  0  0  0  0  0  0  0
   25.2670  -20.3314   -9.4952 C   0  0  0  0  0  0  0  0  0  0  0  0
   26.6347  -20.6698   -9.1048 C   0  0  0  0  0  0  0  0  0  0  0  0
   27.4636  -21.5498   -9.7825 C   0  0  0  0  0  0  0  0  0  0  0  0
   28.6271  -21.6363   -9.1207 N   0  0  0  0  0  0  0  0  0  0  0  0
   28.5882  -20.8465   -8.0392 C   0  0  0  0  0  0  0  0  0  0  0  0
   29.5424  -20.5847   -7.0545 C   0  0  0  0  0  0  0  0  0  0  0  0
   29.1955  -19.6970   -6.0690 C   0  0  0  0  0  0  0  0  0  0  0  0
   27.9678  -19.0809   -6.0335 C   0  0  0  0  0  0  0  0  0  0  0  0
   27.0315  -19.3389   -7.0000 C   0  0  0  0  0  0  0  0  0  0  0  0
   27.3570  -20.2352   -8.0102 C   0  0  0  0  0  0  0  0  0  0  0  0
   23.2782  -20.9034  -10.9361 C   0  0  0  0  0  0  0  0  0  0  0  0
   22.3448  -21.6396  -10.2275 O   0  0  0  0  0  0  0  0  0  0  0  0
   22.8417  -20.1211  -11.8178 O   0  0  0  0  0  0  0  0  0  0  0  0
  2  1  1  0
  3  9  1  0
  3  2  1  0
  4  3  2  0
  6  5  1  6
  6  8  1  0
  7  6  1  0
  8 10  1  0
  8  9  1  6
 10 12  1  0
 11 10  2  0
 12 13  1  0
 13 14  1  1
 14 15  1  0
 15 23  1  0
 15 16  2  0
 16 17  1  0
 17 18  1  0
 18 19  2  0
 20 19  1  0
 21 20  2  0
 22 23  2  0
 22 21  1  0
 23 18  1  0
 24 25  1  0
 24 13  1  0
 26 24  2  0
M  END
$$$$
