GTW.pdb
     RDKit          3D

 26 27  0  0  1  0  0  0  0  0999 V2000
   29.0246  -21.7058  -18.8554 N   0  0  0  0  0  0  0  0  0  0  0  0
   28.2587  -20.5218  -18.5278 C   0  0  0  0  0  0  0  0  0  0  0  0
   28.4319  -20.2068  -17.0793 C   0  0  0  0  0  0  0  0  0  0  0  0
   29.5794  -20.1948  -16.5523 O   0  0  0  0  0  0  0  0  0  0  0  0
   27.8829  -17.1946  -15.4401 C   0  0  0  0  0  0  0  0  0  0  0  0
   26.8752  -18.1286  -14.8229 C   0  0  1  0  0  0  0  0  0  0  0  0
   25.5942  -17.9633  -15.3123 O   0  0  0  0  0  0  0  0  0  0  0  0
   27.3752  -19.5638  -14.9395 C   0  0  2  0  0  0  0  0  0  0  0  0
   27.2642  -19.9247  -16.3303 N   0  0  0  0  0  0  0  0  0  0  0  0
   26.4657  -20.4108  -14.1192 C   0  0  0  0  0  0  0  0  0  0  0  0
   25.4788  -20.9800  -14.6754 O   0  0  0  0  0  0  0  0  0  0  0  0
   26.6580  -20.6055  -12.7477 N   0  0  0  0  0  0  0  0  0  0  0  0
   25.7892  -21.5328  -11.9890 C   0  0  1  0  0  0  0  0  0  0  0  0
   26.5892  -21.9221  -10.7961 C   0  0  0  0  0  0  0  0  0  0  0  0
   26.6051  -20.9958   -9.6651 C   0  0  0  0  0  0  0  0  0  0  0  0
   25.5410  -20.2009   -9.2694 C   0  0  0  0  0  0  0  0  0  0  0  0
   25.9276  -19.4611   -8.2195 N   0  0  0  0  0  0  0  0  0  0  0  0
   27.2015  -19.7439   -7.9159 C   0  0  0  0  0  0  0  0  0  0  0  0
   28.0398  -19.2556   -6.9122 C   0  0  0  0  0  0  0  0  0  0  0  0
   29.3099  -19.7686   -6.8549 C   0  0  0  0  0  0  0  0  0  0  0  0
   29.7581  -20.7221   -7.7369 C   0  0  0  0  0  0  0  0  0  0  0  0
   28.9349  -21.2004   -8.7223 C   0  0  0  0  0  0  0  0  0  0  0  0
   27.6427  -20.6970   -8.8032 C   0  0  0  0  0  0  0  0  0  0  0  0
   24.4952  -20.9086  -11.7694 C   0  0  0  0  0  0  0  0  0  0  0  0
   23.3462  -21.6484  -11.5510 O   0  0  0  0  0  0  0  0  0  0  0  0
   24.3787  -19.6571  -11.7753 O   0  0  0  0  0  0  0  0  0  0  0  0
  2  1  1  0
  3  9  1  0
  3  2  1  0
  4  3  2  0
  6  5  1  6
  6  8  1  0
  7  6  1  0
  8 10  1  0
  8  9  1  6
 10 12  1  0
 11 10  2  0
 12 13  1  0
 13 14  1  1
 14 15  1  0
 15 23  1  0
 15 16  2  0
 16 17  1  0
 17 18  1  0
 18 19  2  0
 20 19  1  0
 21 20  2  0
 22 23  2  0
 22 21  1  0
 23 18  1  0
 24 25  1  0
 24 13  1  0
 26 24  2  0
M  END
$$$$
