GTW.pdb
     RDKit          3D

 26 27  0  0  1  0  0  0  0  0999 V2000
   29.0593  -21.5533  -16.4845 N   0  0  0  0  0  0  0  0  0  0  0  0
   28.2161  -22.1413  -15.4652 C   0  0  0  0  0  0  0  0  0  0  0  0
   27.6894  -21.0633  -14.5777 C   0  0  0  0  0  0  0  0  0  0  0  0
   27.8033  -19.8472  -14.8989 O   0  0  0  0  0  0  0  0  0  0  0  0
   25.3638  -19.7124  -14.8192 C   0  0  0  0  0  0  0  0  0  0  0  0
   24.9834  -20.3151  -13.4922 C   0  0  1  0  0  0  0  0  0  0  0  0
   24.2127  -21.4560  -13.6025 O   0  0  0  0  0  0  0  0  0  0  0  0
   26.2375  -20.5244  -12.6515 C   0  0  2  0  0  0  0  0  0  0  0  0
   27.0627  -21.4606  -13.3722 N   0  0  0  0  0  0  0  0  0  0  0  0
   25.8015  -21.1199  -11.3581 C   0  0  0  0  0  0  0  0  0  0  0  0
   25.6391  -22.3747  -11.2767 O   0  0  0  0  0  0  0  0  0  0  0  0
   25.5619  -20.3441  -10.2194 N   0  0  0  0  0  0  0  0  0  0  0  0
   25.1730  -20.9814   -8.9416 C   0  0  1  0  0  0  0  0  0  0  0  0
   25.7935  -20.1369   -7.8849 C   0  0  0  0  0  0  0  0  0  0  0  0
   27.2058  -20.3655   -7.5840 C   0  0  0  0  0  0  0  0  0  0  0  0
   28.1011  -21.0266   -8.4100 C   0  0  0  0  0  0  0  0  0  0  0  0
   29.2932  -21.0738   -7.7971 N   0  0  0  0  0  0  0  0  0  0  0  0
   29.2090  -20.4687   -6.6047 C   0  0  0  0  0  0  0  0  0  0  0  0
   30.1670  -20.2486   -5.6134 C   0  0  0  0  0  0  0  0  0  0  0  0
   29.7620  -19.5695   -4.4934 C   0  0  0  0  0  0  0  0  0  0  0  0
   28.4745  -19.1168   -4.3335 C   0  0  0  0  0  0  0  0  0  0  0  0
   27.5347  -19.3339   -5.3066 C   0  0  0  0  0  0  0  0  0  0  0  0
   27.9184  -20.0202   -6.4519 C   0  0  0  0  0  0  0  0  0  0  0  0
   23.7312  -21.1612   -8.9128 C   0  0  0  0  0  0  0  0  0  0  0  0
   22.9061  -20.6726   -9.9106 O   0  0  0  0  0  0  0  0  0  0  0  0
   23.1810  -21.7729   -7.9625 O   0  0  0  0  0  0  0  0  0  0  0  0
  2  1  1  0
  3  9  1  0
  3  2  1  0
  4  3  2  0
  6  5  1  6
  6  8  1  0
  7  6  1  0
  8 10  1  0
  8  9  1  6
 10 12  1  0
 11 10  2  0
 12 13  1  0
 13 14  1  1
 14 15  1  0
 15 23  1  0
 15 16  2  0
 16 17  1  0
 17 18  1  0
 18 19  2  0
 20 19  1  0
 21 20  2  0
 22 23  2  0
 22 21  1  0
 23 18  1  0
 24 25  1  0
 24 13  1  0
 26 24  2  0
M  END
$$$$
