GTW.pdb
     RDKit          3D

 26 27  0  0  1  0  0  0  0  0999 V2000
   25.2111  -16.2327  -18.9634 N   0  0  0  0  0  0  0  0  0  0  0  0
   25.9255  -16.3367  -17.7086 C   0  0  0  0  0  0  0  0  0  0  0  0
   25.7869  -17.7234  -17.1749 C   0  0  0  0  0  0  0  0  0  0  0  0
   24.6945  -18.3492  -17.2748 O   0  0  0  0  0  0  0  0  0  0  0  0
   27.3858  -20.6902  -18.2029 C   0  0  0  0  0  0  0  0  0  0  0  0
   27.8738  -20.4658  -16.7958 C   0  0  1  0  0  0  0  0  0  0  0  0
   29.1491  -19.9393  -16.7290 O   0  0  0  0  0  0  0  0  0  0  0  0
   26.8487  -19.6386  -16.0287 C   0  0  2  0  0  0  0  0  0  0  0  0
   26.9230  -18.3003  -16.5581 N   0  0  0  0  0  0  0  0  0  0  0  0
   27.2645  -19.6449  -14.5989 C   0  0  0  0  0  0  0  0  0  0  0  0
   27.9085  -18.6556  -14.1361 O   0  0  0  0  0  0  0  0  0  0  0  0
   26.9707  -20.7073  -13.7382 N   0  0  0  0  0  0  0  0  0  0  0  0
   27.3666  -20.6543  -12.3131 C   0  0  1  0  0  0  0  0  0  0  0  0
   26.6334  -19.4871  -11.7523 C   0  0  0  0  0  0  0  0  0  0  0  0
   25.2198  -19.6728  -11.4284 C   0  0  0  0  0  0  0  0  0  0  0  0
   24.7245  -20.0031  -10.1769 C   0  0  0  0  0  0  0  0  0  0  0  0
   23.3910  -20.1199  -10.2624 N   0  0  0  0  0  0  0  0  0  0  0  0
   22.9990  -19.8779  -11.5204 C   0  0  0  0  0  0  0  0  0  0  0  0
   21.7308  -19.8628  -12.1037 C   0  0  0  0  0  0  0  0  0  0  0  0
   21.6608  -19.5564  -13.4381 C   0  0  0  0  0  0  0  0  0  0  0  0
   22.7775  -19.2734  -14.1871 C   0  0  0  0  0  0  0  0  0  0  0  0
   24.0220  -19.2891  -13.6140 C   0  0  0  0  0  0  0  0  0  0  0  0
   24.1215  -19.5972  -12.2631 C   0  0  0  0  0  0  0  0  0  0  0  0
   27.1472  -21.9554  -11.7040 C   0  0  0  0  0  0  0  0  0  0  0  0
   26.4208  -22.9517  -12.3324 O   0  0  0  0  0  0  0  0  0  0  0  0
   27.6152  -22.2174  -10.5673 O   0  0  0  0  0  0  0  0  0  0  0  0
  2  1  1  0
  3  9  1  0
  3  2  1  0
  4  3  2  0
  6  5  1  6
  6  8  1  0
  7  6  1  0
  8 10  1  0
  8  9  1  6
 10 12  1  0
 11 10  2  0
 12 13  1  0
 13 14  1  1
 14 15  1  0
 15 23  1  0
 15 16  2  0
 16 17  1  0
 17 18  1  0
 18 19  2  0
 20 19  1  0
 21 20  2  0
 22 23  2  0
 22 21  1  0
 23 18  1  0
 24 25  1  0
 24 13  1  0
 26 24  2  0
M  END
$$$$
