IKV.pdb
     RDKit          3D

 25 24  0  0  1  0  0  0  0  0999 V2000
    5.9002  -10.0595   25.6404 C   0  0  0  0  0  0  0  0  0  0  0  0
    5.3547  -11.4216   25.3739 C   0  0  0  0  0  0  0  0  0  0  0  0
    6.3761  -12.5330   25.4754 C   0  0  2  0  0  0  0  0  0  0  0  0
    7.4659  -12.2233   24.4762 C   0  0  0  0  0  0  0  0  0  0  0  0
    5.7279  -13.8585   25.2589 C   0  0  2  0  0  0  0  0  0  0  0  0
    4.6124  -13.9904   26.1705 N   0  0  0  0  0  0  0  0  0  0  0  0
    6.6096  -15.0110   25.3997 C   0  0  0  0  0  0  0  0  0  0  0  0
    6.9426  -15.5322   26.4975 O   0  0  0  0  0  0  0  0  0  0  0  0
    7.1569  -15.6238   24.2447 N   0  0  0  0  0  0  0  0  0  0  0  0
    8.1116  -16.7633   24.3262 C   0  0  1  0  0  0  0  0  0  0  0  0
    8.3575  -17.3214   22.9755 C   0  0  0  0  0  0  0  0  0  0  0  0
    9.3325  -18.4641   23.0332 C   0  0  0  0  0  0  0  0  0  0  0  0
    9.6483  -18.9790   21.6271 C   0  0  0  0  0  0  0  0  0  0  0  0
   10.6254  -20.1445   21.8059 C   0  0  0  0  0  0  0  0  0  0  0  0
   11.1241  -20.5943   20.5325 N   0  0  0  0  0  0  0  0  0  0  0  0
    9.3411  -16.2840   25.0033 C   0  0  0  0  0  0  0  0  0  0  0  0
   10.1345  -15.4236   24.5636 O   0  0  0  0  0  0  0  0  0  0  0  0
    9.5869  -14.2590   27.8266 C   0  0  0  0  0  0  0  0  0  0  0  0
   10.4060  -15.4535   28.2248 C   0  0  2  0  0  0  0  0  0  0  0  0
   11.5425  -15.0890   29.1248 C   0  0  0  0  0  0  0  0  0  0  0  0
   10.8546  -16.2775   27.0363 C   0  0  2  0  0  0  0  0  0  0  0  0
    9.7319  -16.8073   26.2925 N   0  0  0  0  0  0  0  0  0  0  0  0
   11.6360  -17.4100   27.5632 C   0  0  0  0  0  0  0  0  0  0  0  0
   11.0472  -18.3623   28.1123 O   0  0  0  0  0  0  0  0  0  0  0  0
   13.0067  -17.4264   27.4551 O   0  0  0  0  0  0  0  0  0  0  0  0
  2  1  1  0
  3  2  1  0
  3  4  1  6
  5  3  1  0
  5  6  1  1
  7  5  1  0
  7  8  2  0
  9  7  1  0
 10  9  1  0
 10 11  1  6
 12 11  1  0
 13 12  1  0
 13 14  1  0
 15 14  1  0
 16 22  1  0
 16 10  1  0
 17 16  2  0
 19 18  1  6
 19 21  1  0
 20 19  1  0
 21 23  1  0
 21 22  1  1
 23 25  1  0
 24 23  2  0
M  END
$$$$
