IKV.pdb
     RDKit          3D

 25 24  0  0  1  0  0  0  0  0999 V2000
    5.6363  -10.8526   26.6314 C   0  0  0  0  0  0  0  0  0  0  0  0
    5.3607  -12.1094   25.8772 C   0  0  0  0  0  0  0  0  0  0  0  0
    6.5455  -13.0438   25.7686 C   0  0  2  0  0  0  0  0  0  0  0  0
    7.6480  -12.2795   25.0740 C   0  0  0  0  0  0  0  0  0  0  0  0
    6.1564  -14.3000   25.0655 C   0  0  2  0  0  0  0  0  0  0  0  0
    4.9803  -14.8503   25.7031 N   0  0  0  0  0  0  0  0  0  0  0  0
    7.1952  -15.3207   24.9977 C   0  0  0  0  0  0  0  0  0  0  0  0
    7.5485  -16.0526   25.9606 O   0  0  0  0  0  0  0  0  0  0  0  0
    7.8862  -15.5420   23.7801 N   0  0  0  0  0  0  0  0  0  0  0  0
    9.0476  -16.4684   23.6823 C   0  0  1  0  0  0  0  0  0  0  0  0
    9.5079  -16.5639   22.2769 C   0  0  0  0  0  0  0  0  0  0  0  0
   10.7319  -17.4299   22.1677 C   0  0  0  0  0  0  0  0  0  0  0  0
   10.5529  -18.4866   21.0753 C   0  0  0  0  0  0  0  0  0  0  0  0
   11.8557  -19.2905   21.0379 C   0  0  0  0  0  0  0  0  0  0  0  0
   11.8387  -20.2427   19.9582 N   0  0  0  0  0  0  0  0  0  0  0  0
   10.0945  -15.9919   24.6188 C   0  0  0  0  0  0  0  0  0  0  0  0
   10.9637  -15.1280   24.3716 O   0  0  0  0  0  0  0  0  0  0  0  0
    9.8308  -14.0739   27.5483 C   0  0  0  0  0  0  0  0  0  0  0  0
   10.5959  -15.2728   28.0317 C   0  0  2  0  0  0  0  0  0  0  0  0
   11.6057  -14.9195   29.0758 C   0  0  0  0  0  0  0  0  0  0  0  0
   11.1968  -16.0786   26.8993 C   0  0  2  0  0  0  0  0  0  0  0  0
   10.1899  -16.5226   25.9595 N   0  0  0  0  0  0  0  0  0  0  0  0
   11.8262  -17.2680   27.4991 C   0  0  0  0  0  0  0  0  0  0  0  0
   11.1354  -18.2802   27.7301 O   0  0  0  0  0  0  0  0  0  0  0  0
   13.1666  -17.2722   27.8061 O   0  0  0  0  0  0  0  0  0  0  0  0
  2  1  1  0
  3  2  1  0
  3  4  1  6
  5  3  1  0
  5  6  1  1
  7  5  1  0
  7  8  2  0
  9  7  1  0
 10  9  1  0
 10 11  1  6
 12 11  1  0
 13 12  1  0
 13 14  1  0
 15 14  1  0
 16 22  1  0
 16 10  1  0
 17 16  2  0
 19 18  1  6
 19 21  1  0
 20 19  1  0
 21 23  1  0
 21 22  1  6
 23 25  1  0
 24 23  2  0
M  END
$$$$
