IKV.pdb
     RDKit          3D

 25 24  0  0  1  0  0  0  0  0999 V2000
    5.7192  -10.8167   26.9556 C   0  0  0  0  0  0  0  0  0  0  0  0
    5.4273  -12.0434   26.1594 C   0  0  0  0  0  0  0  0  0  0  0  0
    6.6006  -12.9877   26.0166 C   0  0  2  0  0  0  0  0  0  0  0  0
    7.7177  -12.2080   25.3639 C   0  0  0  0  0  0  0  0  0  0  0  0
    6.2000  -14.2060   25.2555 C   0  0  2  0  0  0  0  0  0  0  0  0
    5.0109  -14.7670   25.8588 N   0  0  0  0  0  0  0  0  0  0  0  0
    7.2249  -15.2375   25.1510 C   0  0  0  0  0  0  0  0  0  0  0  0
    7.4306  -16.1368   26.0092 O   0  0  0  0  0  0  0  0  0  0  0  0
    8.0768  -15.2712   24.0186 N   0  0  0  0  0  0  0  0  0  0  0  0
    9.1750  -16.2667   23.8795 C   0  0  1  0  0  0  0  0  0  0  0  0
    9.6247  -16.3375   22.4692 C   0  0  0  0  0  0  0  0  0  0  0  0
    8.5603  -16.9365   21.5928 C   0  0  0  0  0  0  0  0  0  0  0  0
    9.0584  -17.0755   20.1525 C   0  0  0  0  0  0  0  0  0  0  0  0
    7.9047  -17.6924   19.3567 C   0  0  0  0  0  0  0  0  0  0  0  0
    8.2396  -17.7874   17.9598 N   0  0  0  0  0  0  0  0  0  0  0  0
   10.2530  -15.8960   24.8284 C   0  0  0  0  0  0  0  0  0  0  0  0
   11.1129  -15.0056   24.6525 O   0  0  0  0  0  0  0  0  0  0  0  0
   10.0048  -15.9598   29.0176 C   0  0  0  0  0  0  0  0  0  0  0  0
   11.0484  -15.3562   28.1215 C   0  0  2  0  0  0  0  0  0  0  0  0
   10.6470  -14.0112   27.6071 C   0  0  0  0  0  0  0  0  0  0  0  0
   11.4782  -16.2920   27.0114 C   0  0  2  0  0  0  0  0  0  0  0  0
   10.3945  -16.5763   26.0955 N   0  0  0  0  0  0  0  0  0  0  0  0
   11.8918  -17.5562   27.6450 C   0  0  0  0  0  0  0  0  0  0  0  0
   11.1564  -18.5594   27.5560 O   0  0  0  0  0  0  0  0  0  0  0  0
   13.0796  -17.6398   28.3328 O   0  0  0  0  0  0  0  0  0  0  0  0
  2  1  1  0
  3  2  1  0
  3  4  1  6
  5  3  1  0
  5  6  1  1
  7  5  1  0
  7  8  2  0
  9  7  1  0
 10  9  1  0
 10 11  1  6
 12 11  1  0
 13 12  1  0
 13 14  1  0
 15 14  1  0
 16 22  1  0
 16 10  1  0
 17 16  2  0
 19 18  1  6
 19 21  1  0
 20 19  1  0
 21 23  1  0
 21 22  1  6
 23 25  1  0
 24 23  2  0
M  END
$$$$
