IKV.pdb
     RDKit          3D

 25 24  0  0  1  0  0  0  0  0999 V2000
    7.7838  -12.3825   18.7422 C   0  0  0  0  0  0  0  0  0  0  0  0
    7.7530  -13.8451   19.0319 C   0  0  0  0  0  0  0  0  0  0  0  0
    7.3728  -14.1908   20.4548 C   0  0  2  0  0  0  0  0  0  0  0  0
    8.3811  -13.5187   21.3567 C   0  0  0  0  0  0  0  0  0  0  0  0
    7.3069  -15.6701   20.6323 C   0  0  2  0  0  0  0  0  0  0  0  0
    6.3686  -16.2166   19.6766 N   0  0  0  0  0  0  0  0  0  0  0  0
    6.9522  -16.1191   21.9732 C   0  0  0  0  0  0  0  0  0  0  0  0
    5.8312  -15.9381   22.5194 O   0  0  0  0  0  0  0  0  0  0  0  0
    7.9059  -16.8146   22.7579 N   0  0  0  0  0  0  0  0  0  0  0  0
    7.6737  -17.1330   24.1936 C   0  0  1  0  0  0  0  0  0  0  0  0
    7.6522  -18.6011   24.3944 C   0  0  0  0  0  0  0  0  0  0  0  0
    7.5081  -18.9446   25.8508 C   0  0  0  0  0  0  0  0  0  0  0  0
    7.5394  -20.4607   26.0562 C   0  0  0  0  0  0  0  0  0  0  0  0
    7.1733  -20.7030   27.5232 C   0  0  0  0  0  0  0  0  0  0  0  0
    7.0520  -22.1117   27.7946 N   0  0  0  0  0  0  0  0  0  0  0  0
    8.7145  -16.4399   24.9913 C   0  0  0  0  0  0  0  0  0  0  0  0
    9.9479  -16.4917   24.7935 O   0  0  0  0  0  0  0  0  0  0  0  0
    8.5964  -12.6711   26.0245 C   0  0  0  0  0  0  0  0  0  0  0  0
    8.8948  -13.4959   27.2440 C   0  0  2  0  0  0  0  0  0  0  0  0
    9.8370  -12.8081   28.1787 C   0  0  0  0  0  0  0  0  0  0  0  0
    9.3449  -14.9011   26.9039 C   0  0  2  0  0  0  0  0  0  0  0  0
    8.3570  -15.6086   26.1180 N   0  0  0  0  0  0  0  0  0  0  0  0
    9.5239  -15.6198   28.1775 C   0  0  0  0  0  0  0  0  0  0  0  0
    8.6249  -16.3807   28.5872 O   0  0  0  0  0  0  0  0  0  0  0  0
   10.6718  -15.4595   28.9174 O   0  0  0  0  0  0  0  0  0  0  0  0
  2  1  1  0
  3  2  1  0
  3  4  1  1
  5  3  1  0
  5  6  1  6
  7  5  1  0
  7  8  2  0
  9  7  1  0
 10  9  1  0
 10 11  1  6
 12 11  1  0
 13 12  1  0
 13 14  1  0
 15 14  1  0
 16 22  1  0
 16 10  1  0
 17 16  2  0
 19 18  1  6
 19 21  1  0
 20 19  1  0
 21 23  1  0
 21 22  1  6
 23 25  1  0
 24 23  2  0
M  END
$$$$
