IKV.pdb
     RDKit          3D

 25 24  0  0  1  0  0  0  0  0999 V2000
    7.0685  -11.8685   19.1789 C   0  0  0  0  0  0  0  0  0  0  0  0
    7.5617  -13.2705   19.3031 C   0  0  0  0  0  0  0  0  0  0  0  0
    7.5328  -13.8188   20.7129 C   0  0  2  0  0  0  0  0  0  0  0  0
    8.3791  -12.8992   21.5615 C   0  0  0  0  0  0  0  0  0  0  0  0
    7.9926  -15.2374   20.7303 C   0  0  2  0  0  0  0  0  0  0  0  0
    7.1672  -16.0098   19.8276 N   0  0  0  0  0  0  0  0  0  0  0  0
    8.0014  -15.8709   22.0433 C   0  0  0  0  0  0  0  0  0  0  0  0
    6.9715  -16.2032   22.6886 O   0  0  0  0  0  0  0  0  0  0  0  0
    9.2358  -16.1532   22.6803 N   0  0  0  0  0  0  0  0  0  0  0  0
    9.3099  -16.6958   24.0647 C   0  0  1  0  0  0  0  0  0  0  0  0
   10.1758  -17.8981   24.0965 C   0  0  0  0  0  0  0  0  0  0  0  0
    9.4899  -19.0740   23.4586 C   0  0  0  0  0  0  0  0  0  0  0  0
   10.3436  -20.3372   23.5911 C   0  0  0  0  0  0  0  0  0  0  0  0
    9.5377  -21.4695   22.9482 C   0  0  0  0  0  0  0  0  0  0  0  0
   10.2377  -22.7227   23.0587 N   0  0  0  0  0  0  0  0  0  0  0  0
    9.7725  -15.6073   24.9598 C   0  0  0  0  0  0  0  0  0  0  0  0
   10.7968  -14.9087   24.7988 O   0  0  0  0  0  0  0  0  0  0  0  0
    7.1236  -13.8284   27.8897 C   0  0  0  0  0  0  0  0  0  0  0  0
    8.3595  -13.2017   27.3096 C   0  0  2  0  0  0  0  0  0  0  0  0
    8.0616  -12.3642   26.1078 C   0  0  0  0  0  0  0  0  0  0  0  0
    9.4597  -14.2093   27.0505 C   0  0  2  0  0  0  0  0  0  0  0  0
    9.0304  -15.2571   26.1493 N   0  0  0  0  0  0  0  0  0  0  0  0
    9.7993  -14.8239   28.3458 C   0  0  0  0  0  0  0  0  0  0  0  0
    9.4388  -15.9932   28.5863 O   0  0  0  0  0  0  0  0  0  0  0  0
   10.5093  -14.1208   29.2905 O   0  0  0  0  0  0  0  0  0  0  0  0
  2  1  1  0
  3  2  1  0
  3  4  1  1
  5  3  1  0
  5  6  1  6
  7  5  1  0
  7  8  2  0
  9  7  1  0
 10  9  1  0
 10 11  1  6
 12 11  1  0
 13 12  1  0
 13 14  1  0
 15 14  1  0
 16 22  1  0
 16 10  1  0
 17 16  2  0
 19 18  1  6
 19 21  1  0
 20 19  1  0
 21 23  1  0
 21 22  1  6
 23 25  1  0
 24 23  2  0
M  END
$$$$
