IKV.pdb
     RDKit          3D

 25 24  0  0  1  0  0  0  0  0999 V2000
    8.5399  -12.1630   19.1293 C   0  0  0  0  0  0  0  0  0  0  0  0
    8.6907  -13.4781   19.8163 C   0  0  0  0  0  0  0  0  0  0  0  0
    7.7723  -14.5620   19.2961 C   0  0  2  0  0  0  0  0  0  0  0  0
    6.3652  -14.0159   19.3591 C   0  0  0  0  0  0  0  0  0  0  0  0
    7.9586  -15.8210   20.0735 C   0  0  2  0  0  0  0  0  0  0  0  0
    7.4006  -16.9240   19.3220 N   0  0  0  0  0  0  0  0  0  0  0  0
    7.3910  -15.8110   21.4163 C   0  0  0  0  0  0  0  0  0  0  0  0
    6.2151  -15.4566   21.6976 O   0  0  0  0  0  0  0  0  0  0  0  0
    8.1825  -16.2219   22.5180 N   0  0  0  0  0  0  0  0  0  0  0  0
    7.6271  -16.3441   23.8940 C   0  0  1  0  0  0  0  0  0  0  0  0
    7.7719  -17.7360   24.3816 C   0  0  0  0  0  0  0  0  0  0  0  0
    6.5356  -18.5407   24.0920 C   0  0  0  0  0  0  0  0  0  0  0  0
    6.5461  -19.0506   22.6491 C   0  0  0  0  0  0  0  0  0  0  0  0
    5.1860  -19.7154   22.4187 C   0  0  0  0  0  0  0  0  0  0  0  0
    5.0637  -20.1731   21.0592 N   0  0  0  0  0  0  0  0  0  0  0  0
    8.3032  -15.3410   24.7523 C   0  0  0  0  0  0  0  0  0  0  0  0
    9.5142  -15.0332   24.7088 O   0  0  0  0  0  0  0  0  0  0  0  0
    6.0773  -13.1990   27.9007 C   0  0  0  0  0  0  0  0  0  0  0  0
    7.2651  -12.6296   27.1785 C   0  0  2  0  0  0  0  0  0  0  0  0
    6.8696  -11.6740   26.0992 C   0  0  0  0  0  0  0  0  0  0  0  0
    8.2147  -13.6989   26.6808 C   0  0  2  0  0  0  0  0  0  0  0  0
    7.5688  -14.6066   25.7572 N   0  0  0  0  0  0  0  0  0  0  0  0
    8.6542  -14.4706   27.8564 C   0  0  0  0  0  0  0  0  0  0  0  0
    8.1960  -15.6143   28.0490 O   0  0  0  0  0  0  0  0  0  0  0  0
    9.5636  -13.9419   28.7419 O   0  0  0  0  0  0  0  0  0  0  0  0
  2  1  1  0
  3  2  1  0
  3  4  1  1
  5  3  1  0
  5  6  1  6
  7  5  1  0
  7  8  2  0
  9  7  1  0
 10  9  1  0
 10 11  1  1
 12 11  1  0
 13 12  1  0
 13 14  1  0
 15 14  1  0
 16 22  1  0
 16 10  1  0
 17 16  2  0
 19 18  1  6
 19 21  1  0
 20 19  1  0
 21 23  1  0
 21 22  1  6
 23 25  1  0
 24 23  2  0
M  END
$$$$
