IKV.pdb
     RDKit          3D

 25 24  0  0  1  0  0  0  0  0999 V2000
    7.7078  -11.7828   27.1156 C   0  0  0  0  0  0  0  0  0  0  0  0
    7.0792  -13.0653   26.6864 C   0  0  0  0  0  0  0  0  0  0  0  0
    6.6945  -13.1121   25.2240 C   0  0  2  0  0  0  0  0  0  0  0  0
    5.6126  -12.0780   25.0190 C   0  0  0  0  0  0  0  0  0  0  0  0
    6.2814  -14.4919   24.8373 C   0  0  2  0  0  0  0  0  0  0  0  0
    5.1935  -14.9135   25.6923 N   0  0  0  0  0  0  0  0  0  0  0  0
    7.3429  -15.4906   24.8730 C   0  0  0  0  0  0  0  0  0  0  0  0
    7.4753  -16.3680   25.7675 O   0  0  0  0  0  0  0  0  0  0  0  0
    8.3209  -15.5152   23.8473 N   0  0  0  0  0  0  0  0  0  0  0  0
    9.4723  -16.4588   23.8695 C   0  0  1  0  0  0  0  0  0  0  0  0
   10.0762  -16.5598   22.5199 C   0  0  0  0  0  0  0  0  0  0  0  0
    9.2506  -17.4403   21.6239 C   0  0  0  0  0  0  0  0  0  0  0  0
    9.8823  -17.5441   20.2339 C   0  0  0  0  0  0  0  0  0  0  0  0
    8.8775  -18.3011   19.3609 C   0  0  0  0  0  0  0  0  0  0  0  0
    9.3946  -18.4886   18.0304 N   0  0  0  0  0  0  0  0  0  0  0  0
   10.4221  -15.9991   24.9119 C   0  0  0  0  0  0  0  0  0  0  0  0
   11.3459  -15.1722   24.7513 O   0  0  0  0  0  0  0  0  0  0  0  0
    9.4615  -16.0793   29.1187 C   0  0  0  0  0  0  0  0  0  0  0  0
   10.4542  -15.2407   28.3652 C   0  0  2  0  0  0  0  0  0  0  0  0
    9.8394  -13.9992   27.8039 C   0  0  0  0  0  0  0  0  0  0  0  0
   11.2129  -16.0306   27.3197 C   0  0  2  0  0  0  0  0  0  0  0  0
   10.3429  -16.5030   26.2640 N   0  0  0  0  0  0  0  0  0  0  0  0
   11.7949  -17.2018   27.9981 C   0  0  0  0  0  0  0  0  0  0  0  0
   12.7179  -17.0414   28.8211 O   0  0  0  0  0  0  0  0  0  0  0  0
   11.3301  -18.4685   27.7323 O   0  0  0  0  0  0  0  0  0  0  0  0
  2  1  1  0
  3  2  1  0
  3  4  1  1
  5  3  1  0
  5  6  1  1
  7  5  1  0
  7  8  2  0
  9  7  1  0
 10  9  1  0
 10 11  1  6
 12 11  1  0
 13 12  1  0
 13 14  1  0
 15 14  1  0
 16 22  1  0
 16 10  1  0
 17 16  2  0
 19 18  1  6
 19 21  1  0
 20 19  1  0
 21 23  1  0
 21 22  1  6
 23 25  1  0
 24 23  2  0
M  END
$$$$
