IKV.pdb
     RDKit          3D

 25 24  0  0  1  0  0  0  0  0999 V2000
    5.6524  -10.7484   26.2376 C   0  0  0  0  0  0  0  0  0  0  0  0
    5.3979  -12.0257   25.5110 C   0  0  0  0  0  0  0  0  0  0  0  0
    6.5554  -12.9995   25.5381 C   0  0  2  0  0  0  0  0  0  0  0  0
    7.6836  -12.3657   24.7589 C   0  0  0  0  0  0  0  0  0  0  0  0
    6.1333  -14.3263   25.0037 C   0  0  2  0  0  0  0  0  0  0  0  0
    4.9259  -14.7435   25.6823 N   0  0  0  0  0  0  0  0  0  0  0  0
    7.1347  -15.3814   25.1004 C   0  0  0  0  0  0  0  0  0  0  0  0
    7.3902  -16.0371   26.1455 O   0  0  0  0  0  0  0  0  0  0  0  0
    7.9021  -15.7301   23.9608 N   0  0  0  0  0  0  0  0  0  0  0  0
    8.9894  -16.7456   24.0151 C   0  0  1  0  0  0  0  0  0  0  0  0
    9.4835  -17.0386   22.6490 C   0  0  0  0  0  0  0  0  0  0  0  0
   10.5283  -18.1193   22.6733 C   0  0  0  0  0  0  0  0  0  0  0  0
   10.9754  -18.4733   21.2532 C   0  0  0  0  0  0  0  0  0  0  0  0
   12.4600  -18.8365   21.3484 C   0  0  0  0  0  0  0  0  0  0  0  0
   12.6276  -20.1838   21.8274 N   0  0  0  0  0  0  0  0  0  0  0  0
   10.0415  -16.2425   24.9317 C   0  0  0  0  0  0  0  0  0  0  0  0
   10.8926  -15.3669   24.6635 O   0  0  0  0  0  0  0  0  0  0  0  0
    9.9688  -14.0464   27.5540 C   0  0  0  0  0  0  0  0  0  0  0  0
   10.5100  -15.2856   28.2083 C   0  0  2  0  0  0  0  0  0  0  0  0
   11.4220  -14.9731   29.3508 C   0  0  0  0  0  0  0  0  0  0  0  0
   11.1364  -16.2441   27.2174 C   0  0  2  0  0  0  0  0  0  0  0  0
   10.1649  -16.7581   26.2760 N   0  0  0  0  0  0  0  0  0  0  0  0
   11.6756  -17.3766   27.9903 C   0  0  0  0  0  0  0  0  0  0  0  0
   10.9911  -18.4098   28.1283 O   0  0  0  0  0  0  0  0  0  0  0  0
   12.9250  -17.3048   28.5602 O   0  0  0  0  0  0  0  0  0  0  0  0
  2  1  1  0
  3  2  1  0
  3  4  1  6
  5  3  1  0
  5  6  1  1
  7  5  1  0
  7  8  2  0
  9  7  1  0
 10  9  1  0
 10 11  1  6
 12 11  1  0
 13 12  1  0
 13 14  1  0
 15 14  1  0
 16 22  1  0
 16 10  1  0
 17 16  2  0
 19 18  1  6
 19 21  1  0
 20 19  1  0
 21 23  1  0
 21 22  1  6
 23 25  1  0
 24 23  2  0
M  END
$$$$
