IKV.pdb
     RDKit          3D

 25 24  0  0  1  0  0  0  0  0999 V2000
    5.7286  -10.8351   26.3469 C   0  0  0  0  0  0  0  0  0  0  0  0
    5.4897  -12.1633   25.7121 C   0  0  0  0  0  0  0  0  0  0  0  0
    6.6902  -13.0840   25.7221 C   0  0  2  0  0  0  0  0  0  0  0  0
    7.8041  -12.3644   24.9986 C   0  0  0  0  0  0  0  0  0  0  0  0
    6.3414  -14.4024   25.1187 C   0  0  2  0  0  0  0  0  0  0  0  0
    5.1568  -14.9182   25.7694 N   0  0  0  0  0  0  0  0  0  0  0  0
    7.3980  -15.4057   25.1661 C   0  0  0  0  0  0  0  0  0  0  0  0
    7.7169  -16.0667   26.1904 O   0  0  0  0  0  0  0  0  0  0  0  0
    8.1491  -15.6927   23.9988 N   0  0  0  0  0  0  0  0  0  0  0  0
    9.2987  -16.6388   24.0060 C   0  0  1  0  0  0  0  0  0  0  0  0
    9.7889  -16.8574   22.6246 C   0  0  0  0  0  0  0  0  0  0  0  0
   10.9228  -17.8442   22.6043 C   0  0  0  0  0  0  0  0  0  0  0  0
   10.9350  -18.6295   21.2910 C   0  0  0  0  0  0  0  0  0  0  0  0
   12.1071  -19.6101   21.3878 C   0  0  0  0  0  0  0  0  0  0  0  0
   12.2678  -20.3389   20.1566 N   0  0  0  0  0  0  0  0  0  0  0  0
   10.3312  -16.0990   24.9238 C   0  0  0  0  0  0  0  0  0  0  0  0
   11.1513  -15.1939   24.6567 O   0  0  0  0  0  0  0  0  0  0  0  0
    9.9386  -15.8666   29.1300 C   0  0  0  0  0  0  0  0  0  0  0  0
   10.9279  -15.1952   28.2204 C   0  0  2  0  0  0  0  0  0  0  0  0
   10.3858  -13.9381   27.6201 C   0  0  0  0  0  0  0  0  0  0  0  0
   11.4931  -16.1346   27.1760 C   0  0  2  0  0  0  0  0  0  0  0  0
   10.4711  -16.6100   26.2683 N   0  0  0  0  0  0  0  0  0  0  0  0
   12.0515  -17.2948   27.8922 C   0  0  0  0  0  0  0  0  0  0  0  0
   11.4449  -18.3841   27.8679 O   0  0  0  0  0  0  0  0  0  0  0  0
   13.2337  -17.1875   28.5862 O   0  0  0  0  0  0  0  0  0  0  0  0
  2  1  1  0
  3  2  1  0
  3  4  1  6
  5  3  1  0
  5  6  1  1
  7  5  1  0
  7  8  2  0
  9  7  1  0
 10  9  1  0
 10 11  1  6
 12 11  1  0
 13 12  1  0
 13 14  1  0
 15 14  1  0
 16 22  1  0
 16 10  1  0
 17 16  2  0
 19 18  1  6
 19 21  1  0
 20 19  1  0
 21 23  1  0
 21 22  1  6
 23 25  1  0
 24 23  2  0
M  END
$$$$
