IKV.pdb
     RDKit          3D

 25 24  0  0  1  0  0  0  0  0999 V2000
    7.9912  -11.9778   19.4170 C   0  0  0  0  0  0  0  0  0  0  0  0
    7.6219  -13.4197   19.5095 C   0  0  0  0  0  0  0  0  0  0  0  0
    8.7985  -14.3692   19.4554 C   0  0  2  0  0  0  0  0  0  0  0  0
    9.5100  -14.1161   18.1471 C   0  0  0  0  0  0  0  0  0  0  0  0
    8.3396  -15.7784   19.6216 C   0  0  2  0  0  0  0  0  0  0  0  0
    7.4441  -16.1120   18.5356 N   0  0  0  0  0  0  0  0  0  0  0  0
    7.6923  -16.0744   20.8939 C   0  0  0  0  0  0  0  0  0  0  0  0
    6.4554  -15.9741   21.1121 O   0  0  0  0  0  0  0  0  0  0  0  0
    8.4709  -16.5103   21.9952 N   0  0  0  0  0  0  0  0  0  0  0  0
    7.8683  -16.8241   23.3200 C   0  0  1  0  0  0  0  0  0  0  0  0
    8.1731  -18.2233   23.7013 C   0  0  0  0  0  0  0  0  0  0  0  0
    7.6384  -18.5381   25.0706 C   0  0  0  0  0  0  0  0  0  0  0  0
    7.9680  -19.9800   25.4632 C   0  0  0  0  0  0  0  0  0  0  0  0
    7.3185  -20.2120   26.8304 C   0  0  0  0  0  0  0  0  0  0  0  0
    6.3710  -21.2943   26.7700 N   0  0  0  0  0  0  0  0  0  0  0  0
    8.3603  -15.8220   24.2966 C   0  0  0  0  0  0  0  0  0  0  0  0
    9.5506  -15.4748   24.4569 O   0  0  0  0  0  0  0  0  0  0  0  0
    5.9330  -12.6706   25.5629 C   0  0  0  0  0  0  0  0  0  0  0  0
    6.7374  -13.3099   26.6588 C   0  0  2  0  0  0  0  0  0  0  0  0
    7.1734  -12.3231   27.6935 C   0  0  0  0  0  0  0  0  0  0  0  0
    7.8902  -14.1378   26.1312 C   0  0  2  0  0  0  0  0  0  0  0  0
    7.4472  -15.1370   25.1828 N   0  0  0  0  0  0  0  0  0  0  0  0
    8.4915  -14.8296   27.2847 C   0  0  0  0  0  0  0  0  0  0  0  0
    8.0034  -15.9069   27.6800 O   0  0  0  0  0  0  0  0  0  0  0  0
    9.5845  -14.2989   27.9286 O   0  0  0  0  0  0  0  0  0  0  0  0
  2  1  1  0
  3  2  1  0
  3  4  1  6
  5  3  1  0
  5  6  1  6
  7  5  1  0
  7  8  2  0
  9  7  1  0
 10  9  1  0
 10 11  1  1
 12 11  1  0
 13 12  1  0
 13 14  1  0
 15 14  1  0
 16 22  1  0
 16 10  1  0
 17 16  2  0
 19 18  1  6
 19 21  1  0
 20 19  1  0
 21 23  1  0
 21 22  1  6
 23 25  1  0
 24 23  2  0
M  END
$$$$
