IKV.pdb
     RDKit          3D

 25 24  0  0  1  0  0  0  0  0999 V2000
    7.3642  -12.4486   18.6125 C   0  0  0  0  0  0  0  0  0  0  0  0
    8.2061  -13.4664   19.3049 C   0  0  0  0  0  0  0  0  0  0  0  0
    7.7315  -13.8264   20.6956 C   0  0  2  0  0  0  0  0  0  0  0  0
    7.6869  -12.5437   21.4924 C   0  0  0  0  0  0  0  0  0  0  0  0
    8.6133  -14.8696   21.2939 C   0  0  2  0  0  0  0  0  0  0  0  0
    8.5233  -16.0739   20.4975 N   0  0  0  0  0  0  0  0  0  0  0  0
    8.3388  -15.1883   22.6898 C   0  0  0  0  0  0  0  0  0  0  0  0
    8.2023  -14.3369   23.6086 O   0  0  0  0  0  0  0  0  0  0  0  0
    8.2076  -16.5416   23.0902 N   0  0  0  0  0  0  0  0  0  0  0  0
    8.0300  -16.9353   24.5150 C   0  0  1  0  0  0  0  0  0  0  0  0
    7.7245  -18.3823   24.6110 C   0  0  0  0  0  0  0  0  0  0  0  0
    6.5059  -18.7312   23.8027 C   0  0  0  0  0  0  0  0  0  0  0  0
    6.3229  -20.2485   23.7249 C   0  0  0  0  0  0  0  0  0  0  0  0
    5.0452  -20.4860   22.9150 C   0  0  0  0  0  0  0  0  0  0  0  0
    4.8055  -21.8946   22.7384 N   0  0  0  0  0  0  0  0  0  0  0  0
    9.2507  -16.5359   25.2568 C   0  0  0  0  0  0  0  0  0  0  0  0
   10.4283  -16.6593   24.8552 O   0  0  0  0  0  0  0  0  0  0  0  0
    9.1005  -14.0023   28.8407 C   0  0  0  0  0  0  0  0  0  0  0  0
   10.2579  -14.1978   27.9033 C   0  0  2  0  0  0  0  0  0  0  0  0
   10.2976  -13.1627   26.8256 C   0  0  0  0  0  0  0  0  0  0  0  0
   10.3323  -15.6060   27.3518 C   0  0  2  0  0  0  0  0  0  0  0  0
    9.1610  -15.9424   26.5714 N   0  0  0  0  0  0  0  0  0  0  0  0
   10.3982  -16.5209   28.5047 C   0  0  0  0  0  0  0  0  0  0  0  0
    9.4111  -17.2289   28.7866 O   0  0  0  0  0  0  0  0  0  0  0  0
   11.5367  -16.6011   29.2718 O   0  0  0  0  0  0  0  0  0  0  0  0
  2  1  1  0
  3  2  1  0
  3  4  1  1
  5  3  1  0
  5  6  1  6
  7  5  1  0
  7  8  2  0
  9  7  1  0
 10  9  1  0
 10 11  1  6
 12 11  1  0
 13 12  1  0
 13 14  1  0
 15 14  1  0
 16 22  1  0
 16 10  1  0
 17 16  2  0
 19 18  1  6
 19 21  1  0
 20 19  1  0
 21 23  1  0
 21 22  1  1
 23 25  1  0
 24 23  2  0
M  END
$$$$
