IKV.pdb
     RDKit          3D

 25 24  0  0  1  0  0  0  0  0999 V2000
    7.6377  -11.8547   18.3422 C   0  0  0  0  0  0  0  0  0  0  0  0
    7.9569  -13.3001   18.5242 C   0  0  0  0  0  0  0  0  0  0  0  0
    7.7023  -13.8237   19.9206 C   0  0  2  0  0  0  0  0  0  0  0  0
    8.4854  -12.9476   20.8699 C   0  0  0  0  0  0  0  0  0  0  0  0
    8.0610  -15.2685   20.0093 C   0  0  2  0  0  0  0  0  0  0  0  0
    7.2512  -16.0122   19.0693 N   0  0  0  0  0  0  0  0  0  0  0  0
    7.9325  -15.8596   21.3358 C   0  0  0  0  0  0  0  0  0  0  0  0
    6.8415  -16.1852   21.8756 O   0  0  0  0  0  0  0  0  0  0  0  0
    9.0924  -16.1045   22.1127 N   0  0  0  0  0  0  0  0  0  0  0  0
    9.0200  -16.6024   23.5140 C   0  0  1  0  0  0  0  0  0  0  0  0
    9.9989  -17.6960   23.7187 C   0  0  0  0  0  0  0  0  0  0  0  0
    9.7359  -18.8387   22.7780 C   0  0  0  0  0  0  0  0  0  0  0  0
   10.7369  -19.9729   23.0093 C   0  0  0  0  0  0  0  0  0  0  0  0
   10.3424  -21.0968   22.0469 C   0  0  0  0  0  0  0  0  0  0  0  0
   11.2643  -22.1985   22.1410 N   0  0  0  0  0  0  0  0  0  0  0  0
    9.2218  -15.4473   24.4222 C   0  0  0  0  0  0  0  0  0  0  0  0
   10.1880  -14.6541   24.3990 O   0  0  0  0  0  0  0  0  0  0  0  0
    7.2880  -12.0292   27.3969 C   0  0  0  0  0  0  0  0  0  0  0  0
    7.1540  -13.1874   26.4497 C   0  0  2  0  0  0  0  0  0  0  0  0
    5.9518  -14.0258   26.7437 C   0  0  0  0  0  0  0  0  0  0  0  0
    8.4203  -14.0116   26.3509 C   0  0  2  0  0  0  0  0  0  0  0  0
    8.2619  -15.1390   25.4575 N   0  0  0  0  0  0  0  0  0  0  0  0
    8.7087  -14.5279   27.7004 C   0  0  0  0  0  0  0  0  0  0  0  0
    9.0544  -13.7381   28.6013 O   0  0  0  0  0  0  0  0  0  0  0  0
    8.6002  -15.8709   27.9750 O   0  0  0  0  0  0  0  0  0  0  0  0
  2  1  1  0
  3  2  1  0
  3  4  1  1
  5  3  1  0
  5  6  1  6
  7  5  1  0
  7  8  2  0
  9  7  1  0
 10  9  1  0
 10 11  1  6
 12 11  1  0
 13 12  1  0
 13 14  1  0
 15 14  1  0
 16 22  1  0
 16 10  1  0
 17 16  2  0
 19 18  1  1
 19 21  1  0
 20 19  1  0
 21 23  1  0
 21 22  1  6
 23 25  1  0
 24 23  2  0
M  END
$$$$
