IKV.pdb
     RDKit          3D

 25 24  0  0  1  0  0  0  0  0999 V2000
    7.4383  -12.0988   18.4610 C   0  0  0  0  0  0  0  0  0  0  0  0
    7.8667  -13.5110   18.6762 C   0  0  0  0  0  0  0  0  0  0  0  0
    7.5585  -14.0527   20.0548 C   0  0  2  0  0  0  0  0  0  0  0  0
    8.2311  -13.1361   21.0496 C   0  0  0  0  0  0  0  0  0  0  0  0
    7.9934  -15.4748   20.1657 C   0  0  2  0  0  0  0  0  0  0  0  0
    7.2744  -16.2634   19.1892 N   0  0  0  0  0  0  0  0  0  0  0  0
    7.8331  -16.0717   21.4860 C   0  0  0  0  0  0  0  0  0  0  0  0
    6.7437  -16.4960   21.9562 O   0  0  0  0  0  0  0  0  0  0  0  0
    8.9570  -16.2056   22.3393 N   0  0  0  0  0  0  0  0  0  0  0  0
    8.8299  -16.6313   23.7603 C   0  0  1  0  0  0  0  0  0  0  0  0
    9.7322  -17.7748   24.0336 C   0  0  0  0  0  0  0  0  0  0  0  0
    9.6705  -18.1769   25.4808 C   0  0  0  0  0  0  0  0  0  0  0  0
   10.6118  -19.3511   25.7581 C   0  0  0  0  0  0  0  0  0  0  0  0
   10.0738  -20.0459   27.0122 C   0  0  0  0  0  0  0  0  0  0  0  0
   10.7805  -21.2757   27.2590 N   0  0  0  0  0  0  0  0  0  0  0  0
    9.0920  -15.4501   24.6181 C   0  0  0  0  0  0  0  0  0  0  0  0
   10.1697  -14.8209   24.6933 O   0  0  0  0  0  0  0  0  0  0  0  0
    6.3406  -12.5536   25.3091 C   0  0  0  0  0  0  0  0  0  0  0  0
    7.0110  -12.9890   26.5809 C   0  0  2  0  0  0  0  0  0  0  0  0
    7.2133  -11.8551   27.5338 C   0  0  0  0  0  0  0  0  0  0  0  0
    8.2863  -13.7669   26.3331 C   0  0  2  0  0  0  0  0  0  0  0  0
    8.0620  -14.9120   25.4772 N   0  0  0  0  0  0  0  0  0  0  0  0
    8.7596  -14.2528   27.6410 C   0  0  0  0  0  0  0  0  0  0  0  0
    9.2259  -13.4432   28.4670 O   0  0  0  0  0  0  0  0  0  0  0  0
    8.6918  -15.5889   27.9587 O   0  0  0  0  0  0  0  0  0  0  0  0
  2  1  1  0
  3  2  1  0
  3  4  1  1
  5  3  1  0
  5  6  1  6
  7  5  1  0
  7  8  2  0
  9  7  1  0
 10  9  1  0
 10 11  1  1
 12 11  1  0
 13 12  1  0
 13 14  1  0
 15 14  1  0
 16 22  1  0
 16 10  1  0
 17 16  2  0
 19 18  1  6
 19 21  1  0
 20 19  1  0
 21 23  1  0
 21 22  1  6
 23 25  1  0
 24 23  2  0
M  END
$$$$
