IKV.pdb
     RDKit          3D

 25 24  0  0  1  0  0  0  0  0999 V2000
    7.6410  -11.8343   19.3785 C   0  0  0  0  0  0  0  0  0  0  0  0
    7.7830  -13.3182   19.4212 C   0  0  0  0  0  0  0  0  0  0  0  0
    7.8593  -13.8972   20.8168 C   0  0  2  0  0  0  0  0  0  0  0  0
    8.9534  -13.1520   21.5446 C   0  0  0  0  0  0  0  0  0  0  0  0
    8.0786  -15.3711   20.7588 C   0  0  2  0  0  0  0  0  0  0  0  0
    7.0223  -15.9728   19.9747 N   0  0  0  0  0  0  0  0  0  0  0  0
    8.1635  -16.0374   22.0527 C   0  0  0  0  0  0  0  0  0  0  0  0
    7.1801  -16.2832   22.8011 O   0  0  0  0  0  0  0  0  0  0  0  0
    9.4238  -16.4579   22.5466 N   0  0  0  0  0  0  0  0  0  0  0  0
    9.5691  -17.1847   23.8379 C   0  0  1  0  0  0  0  0  0  0  0  0
   10.3972  -18.3993   23.6500 C   0  0  0  0  0  0  0  0  0  0  0  0
    9.7130  -19.3839   22.7432 C   0  0  0  0  0  0  0  0  0  0  0  0
   10.5785  -20.6302   22.5444 C   0  0  0  0  0  0  0  0  0  0  0  0
   10.7995  -20.7632   21.0349 C   0  0  0  0  0  0  0  0  0  0  0  0
   11.6745  -21.8682   20.7411 N   0  0  0  0  0  0  0  0  0  0  0  0
   10.1217  -16.2382   24.8372 C   0  0  0  0  0  0  0  0  0  0  0  0
   11.0954  -15.4730   24.6651 O   0  0  0  0  0  0  0  0  0  0  0  0
    8.1333  -13.6350   26.7354 C   0  0  0  0  0  0  0  0  0  0  0  0
    8.9420  -14.3731   27.7639 C   0  0  2  0  0  0  0  0  0  0  0  0
    9.4427  -13.4723   28.8467 C   0  0  0  0  0  0  0  0  0  0  0  0
   10.0479  -15.2060   27.1508 C   0  0  2  0  0  0  0  0  0  0  0  0
    9.5415  -16.1270   26.1561 N   0  0  0  0  0  0  0  0  0  0  0  0
   10.6558  -15.9900   28.2400 C   0  0  0  0  0  0  0  0  0  0  0  0
   10.2705  -17.1577   28.4479 O   0  0  0  0  0  0  0  0  0  0  0  0
   11.6427  -15.4467   29.0285 O   0  0  0  0  0  0  0  0  0  0  0  0
  2  1  1  0
  3  2  1  0
  3  4  1  1
  5  3  1  0
  5  6  1  6
  7  5  1  0
  7  8  2  0
  9  7  1  0
 10  9  1  0
 10 11  1  6
 12 11  1  0
 13 12  1  0
 13 14  1  0
 15 14  1  0
 16 22  1  0
 16 10  1  0
 17 16  2  0
 19 18  1  6
 19 21  1  0
 20 19  1  0
 21 23  1  0
 21 22  1  6
 23 25  1  0
 24 23  2  0
M  END
$$$$
