SGQ.pdb
     RDKit          3D

 20 19  0  0  1  0  0  0  0  0999 V2000
    6.7249  -19.2681   19.0279 O   0  0  0  0  0  0  0  0  0  0  0  0
    7.2447  -20.1158   20.0244 C   0  0  0  0  0  0  0  0  0  0  0  0
    7.3163  -19.3288   21.3137 C   0  0  2  0  0  0  0  0  0  0  0  0
    5.9926  -18.8094   21.5769 N   0  0  0  0  0  0  0  0  0  0  0  0
    8.2416  -18.1726   21.1918 C   0  0  0  0  0  0  0  0  0  0  0  0
    9.4919  -18.3142   21.1920 O   0  0  0  0  0  0  0  0  0  0  0  0
    7.7359  -16.8242   21.0667 N   0  0  0  0  0  0  0  0  0  0  0  0
    8.6441  -15.7151   20.9344 C   0  0  0  0  0  0  0  0  0  0  0  0
    9.0422  -15.0796   22.1901 C   0  0  0  0  0  0  0  0  0  0  0  0
    9.9077  -14.1672   22.1235 O   0  0  0  0  0  0  0  0  0  0  0  0
    5.2609  -12.8898   26.1759 N   0  0  0  0  0  0  0  0  0  0  0  0
    6.5053  -12.3502   26.5815 C   0  0  0  0  0  0  0  0  0  0  0  0
    6.5062  -11.3651   27.3726 O   0  0  0  0  0  0  0  0  0  0  0  0
    7.7984  -12.8889   26.1288 C   0  0  0  0  0  0  0  0  0  0  0  0
    7.6766  -14.0172   25.1758 C   0  0  0  0  0  0  0  0  0  0  0  0
    8.9134  -14.6830   24.6963 C   0  0  2  0  0  0  0  0  0  0  0  0
    8.5188  -15.4256   23.4579 N   0  0  0  0  0  0  0  0  0  0  0  0
    9.5236  -15.6943   25.5544 C   0  0  0  0  0  0  0  0  0  0  0  0
   10.5227  -15.3849   26.4801 O   0  0  0  0  0  0  0  0  0  0  0  0
    9.1711  -16.8949   25.4844 O   0  0  0  0  0  0  0  0  0  0  0  0
  2  1  1  0
  3  5  1  0
  3  2  1  0
  3  4  1  6
  5  7  1  0
  5  6  2  0
  7  8  1  0
  9 10  2  0
  9  8  1  0
 11 12  1  0
 12 14  1  0
 13 12  2  0
 14 15  1  0
 16 15  1  1
 16 18  1  0
 16 17  1  0
 17  9  1  0
 18 19  1  0
 20 18  2  0
M  END
$$$$
