SGQ.pdb
     RDKit          3D

 20 19  0  0  1  0  0  0  0  0999 V2000
    7.5525  -18.6109   17.6992 O   0  0  0  0  0  0  0  0  0  0  0  0
    8.6281  -17.7228   17.5086 C   0  0  0  0  0  0  0  0  0  0  0  0
    9.4111  -17.6562   18.8006 C   0  0  2  0  0  0  0  0  0  0  0  0
    9.6547  -19.0159   19.2286 N   0  0  0  0  0  0  0  0  0  0  0  0
    8.6351  -16.9760   19.8696 C   0  0  0  0  0  0  0  0  0  0  0  0
    8.3051  -15.7644   19.7882 O   0  0  0  0  0  0  0  0  0  0  0  0
    8.2240  -17.6874   21.0589 N   0  0  0  0  0  0  0  0  0  0  0  0
    7.3776  -17.0496   22.0332 C   0  0  0  0  0  0  0  0  0  0  0  0
    8.0497  -16.0996   22.9192 C   0  0  0  0  0  0  0  0  0  0  0  0
    9.2485  -15.8174   22.6561 O   0  0  0  0  0  0  0  0  0  0  0  0
    6.2865  -10.4504   27.4259 N   0  0  0  0  0  0  0  0  0  0  0  0
    6.2001  -11.7198   26.8052 C   0  0  0  0  0  0  0  0  0  0  0  0
    5.0694  -12.2781   26.7290 O   0  0  0  0  0  0  0  0  0  0  0  0
    7.3669  -12.4161   26.2384 C   0  0  0  0  0  0  0  0  0  0  0  0
    7.0183  -13.6066   25.4277 C   0  0  0  0  0  0  0  0  0  0  0  0
    8.1121  -14.3795   24.7879 C   0  0  2  0  0  0  0  0  0  0  0  0
    7.4398  -15.4877   24.0392 N   0  0  0  0  0  0  0  0  0  0  0  0
    9.0746  -15.0513   25.6560 C   0  0  0  0  0  0  0  0  0  0  0  0
    9.0516  -16.4313   25.8702 O   0  0  0  0  0  0  0  0  0  0  0  0
    9.9645  -14.4020   26.2535 O   0  0  0  0  0  0  0  0  0  0  0  0
  2  1  1  0
  3  5  1  0
  3  2  1  0
  3  4  1  1
  5  7  1  0
  5  6  2  0
  7  8  1  0
  9 10  2  0
  9  8  1  0
 11 12  1  0
 12 14  1  0
 13 12  2  0
 14 15  1  0
 16 15  1  1
 16 18  1  0
 16 17  1  0
 17  9  1  0
 18 19  1  0
 20 18  2  0
M  END
$$$$
