SGQ.pdb
     RDKit          3D

 20 19  0  0  1  0  0  0  0  0999 V2000
    8.1047  -13.1525   16.3808 O   0  0  0  0  0  0  0  0  0  0  0  0
    7.4992  -13.4484   17.6169 C   0  0  0  0  0  0  0  0  0  0  0  0
    8.5871  -13.8702   18.5788 C   0  0  2  0  0  0  0  0  0  0  0  0
    9.2217  -15.0456   18.0248 N   0  0  0  0  0  0  0  0  0  0  0  0
    8.0251  -14.2397   19.9037 C   0  0  0  0  0  0  0  0  0  0  0  0
    7.4376  -13.4031   20.6375 O   0  0  0  0  0  0  0  0  0  0  0  0
    8.1325  -15.5903   20.4077 N   0  0  0  0  0  0  0  0  0  0  0  0
    7.6637  -15.9138   21.7298 C   0  0  0  0  0  0  0  0  0  0  0  0
    8.4869  -15.4059   22.8269 C   0  0  0  0  0  0  0  0  0  0  0  0
    9.6215  -14.9475   22.5296 O   0  0  0  0  0  0  0  0  0  0  0  0
    5.5523  -11.2053   26.2150 N   0  0  0  0  0  0  0  0  0  0  0  0
    6.5574  -12.1168   26.6191 C   0  0  0  0  0  0  0  0  0  0  0  0
    6.6497  -12.4083   27.8449 O   0  0  0  0  0  0  0  0  0  0  0  0
    7.4956  -12.7458   25.6749 C   0  0  0  0  0  0  0  0  0  0  0  0
    8.0272  -14.0495   26.1378 C   0  0  0  0  0  0  0  0  0  0  0  0
    8.9505  -14.7994   25.2501 C   0  0  2  0  0  0  0  0  0  0  0  0
    8.0881  -15.3997   24.1840 N   0  0  0  0  0  0  0  0  0  0  0  0
    9.6777  -15.9312   25.8174 C   0  0  0  0  0  0  0  0  0  0  0  0
   10.8569  -15.7710   26.5485 O   0  0  0  0  0  0  0  0  0  0  0  0
    9.2661  -17.1043   25.6599 O   0  0  0  0  0  0  0  0  0  0  0  0
  2  1  1  0
  3  5  1  0
  3  2  1  0
  3  4  1  6
  5  7  1  0
  5  6  2  0
  7  8  1  0
  9 10  2  0
  9  8  1  0
 11 12  1  0
 12 14  1  0
 13 12  2  0
 14 15  1  0
 16 15  1  1
 16 18  1  0
 16 17  1  0
 17  9  1  0
 18 19  1  0
 20 18  2  0
M  END
$$$$
