SGQ.pdb
     RDKit          3D

 20 19  0  0  1  0  0  0  0  0999 V2000
   12.4793  -21.9956   24.3338 O   0  0  0  0  0  0  0  0  0  0  0  0
   12.9868  -22.8770   23.3604 C   0  0  0  0  0  0  0  0  0  0  0  0
   12.9198  -24.2793   23.9224 C   0  0  2  0  0  0  0  0  0  0  0  0
   11.5273  -24.5782   24.1730 N   0  0  0  0  0  0  0  0  0  0  0  0
   13.6453  -24.3799   25.2152 C   0  0  0  0  0  0  0  0  0  0  0  0
   14.8928  -24.2354   25.2947 O   0  0  0  0  0  0  0  0  0  0  0  0
   12.9384  -24.6509   26.4467 N   0  0  0  0  0  0  0  0  0  0  0  0
   13.6509  -24.7182   27.6958 C   0  0  0  0  0  0  0  0  0  0  0  0
   12.9536  -24.1423   28.8453 C   0  0  0  0  0  0  0  0  0  0  0  0
   11.7467  -24.4643   29.0058 O   0  0  0  0  0  0  0  0  0  0  0  0
   13.0452  -26.1248   32.0159 N   0  0  0  0  0  0  0  0  0  0  0  0
   13.2881  -24.9988   32.8389 C   0  0  0  0  0  0  0  0  0  0  0  0
   12.6249  -24.8787   33.9075 O   0  0  0  0  0  0  0  0  0  0  0  0
   14.2830  -23.9649   32.5096 C   0  0  0  0  0  0  0  0  0  0  0  0
   13.6888  -22.6789   32.0746 C   0  0  0  0  0  0  0  0  0  0  0  0
   12.7665  -22.6760   30.9117 C   0  0  2  0  0  0  0  0  0  0  0  0
   13.5478  -23.2567   29.7745 N   0  0  0  0  0  0  0  0  0  0  0  0
   12.2945  -21.3869   30.4150 C   0  0  0  0  0  0  0  0  0  0  0  0
   12.8099  -20.7976   29.2583 O   0  0  0  0  0  0  0  0  0  0  0  0
   11.4013  -20.7516   31.0223 O   0  0  0  0  0  0  0  0  0  0  0  0
  2  1  1  0
  3  5  1  0
  3  2  1  0
  3  4  1  1
  5  7  1  0
  5  6  2  0
  7  8  1  0
  9 10  2  0
  9  8  1  0
 11 12  1  0
 12 14  1  0
 13 12  2  0
 14 15  1  0
 16 15  1  1
 16 18  1  0
 16 17  1  0
 17  9  1  0
 18 19  1  0
 20 18  2  0
M  END
$$$$
