SGQ.pdb
     RDKit          3D

 20 19  0  0  1  0  0  0  0  0999 V2000
    9.2834  -13.1292   16.2553 O   0  0  0  0  0  0  0  0  0  0  0  0
    9.2640  -13.5308   17.6045 C   0  0  0  0  0  0  0  0  0  0  0  0
    8.2288  -14.6235   17.7498 C   0  0  2  0  0  0  0  0  0  0  0  0
    6.9329  -13.9850   17.8154 N   0  0  0  0  0  0  0  0  0  0  0  0
    8.4220  -15.3886   19.0088 C   0  0  0  0  0  0  0  0  0  0  0  0
    9.4698  -16.0470   19.2368 O   0  0  0  0  0  0  0  0  0  0  0  0
    7.4021  -15.4068   20.0331 N   0  0  0  0  0  0  0  0  0  0  0  0
    7.6038  -16.1512   21.2486 C   0  0  0  0  0  0  0  0  0  0  0  0
    8.1864  -15.3942   22.3561 C   0  0  0  0  0  0  0  0  0  0  0  0
    9.3183  -14.8762   22.1657 O   0  0  0  0  0  0  0  0  0  0  0  0
    6.0819  -10.9538   27.8275 N   0  0  0  0  0  0  0  0  0  0  0  0
    6.0588  -12.0944   26.9892 C   0  0  0  0  0  0  0  0  0  0  0  0
    4.9436  -12.6256   26.7244 O   0  0  0  0  0  0  0  0  0  0  0  0
    7.2746  -12.6856   26.4063 C   0  0  0  0  0  0  0  0  0  0  0  0
    7.0066  -13.6551   25.3180 C   0  0  0  0  0  0  0  0  0  0  0  0
    8.1559  -14.3265   24.6614 C   0  0  2  0  0  0  0  0  0  0  0  0
    7.5609  -15.2125   23.6118 N   0  0  0  0  0  0  0  0  0  0  0  0
    8.9826  -15.2170   25.4706 C   0  0  0  0  0  0  0  0  0  0  0  0
    8.9904  -16.6016   25.2873 O   0  0  0  0  0  0  0  0  0  0  0  0
    9.7204  -14.7634   26.3763 O   0  0  0  0  0  0  0  0  0  0  0  0
  2  1  1  0
  3  5  1  0
  3  2  1  0
  3  4  1  1
  5  7  1  0
  5  6  2  0
  7  8  1  0
  9 10  2  0
  9  8  1  0
 11 12  1  0
 12 14  1  0
 13 12  2  0
 14 15  1  0
 16 15  1  1
 16 18  1  0
 16 17  1  0
 17  9  1  0
 18 19  1  0
 20 18  2  0
M  END
$$$$
