SGQ.pdb
     RDKit          3D

 20 19  0  0  1  0  0  0  0  0999 V2000
    7.6708  -16.9579   18.9844 O   0  0  0  0  0  0  0  0  0  0  0  0
    8.3464  -17.6856   19.9824 C   0  0  0  0  0  0  0  0  0  0  0  0
    8.4789  -16.7957   21.1979 C   0  0  2  0  0  0  0  0  0  0  0  0
    9.3618  -15.7071   20.8420 N   0  0  0  0  0  0  0  0  0  0  0  0
    9.0933  -17.5241   22.3379 C   0  0  0  0  0  0  0  0  0  0  0  0
    9.4253  -18.7351   22.2565 O   0  0  0  0  0  0  0  0  0  0  0  0
    9.3366  -16.8625   23.6000 N   0  0  0  0  0  0  0  0  0  0  0  0
   10.5383  -16.0957   23.8006 C   0  0  0  0  0  0  0  0  0  0  0  0
   10.6709  -15.4740   25.1178 C   0  0  0  0  0  0  0  0  0  0  0  0
   11.7950  -14.9902   25.4146 O   0  0  0  0  0  0  0  0  0  0  0  0
    5.7226  -12.6261   27.1620 N   0  0  0  0  0  0  0  0  0  0  0  0
    6.6798  -12.2216   26.2005 C   0  0  0  0  0  0  0  0  0  0  0  0
    6.3855  -11.2743   25.4182 O   0  0  0  0  0  0  0  0  0  0  0  0
    8.0052  -12.8501   26.0752 C   0  0  0  0  0  0  0  0  0  0  0  0
    8.3588  -13.7337   27.2112 C   0  0  0  0  0  0  0  0  0  0  0  0
    9.6779  -14.4141   27.2024 C   0  0  2  0  0  0  0  0  0  0  0  0
    9.6240  -15.3858   26.0651 N   0  0  0  0  0  0  0  0  0  0  0  0
   10.0388  -15.2234   28.3625 C   0  0  0  0  0  0  0  0  0  0  0  0
   10.1068  -16.6175   28.3092 O   0  0  0  0  0  0  0  0  0  0  0  0
   10.2978  -14.6874   29.4653 O   0  0  0  0  0  0  0  0  0  0  0  0
  2  1  1  0
  3  5  1  0
  3  2  1  0
  3  4  1  6
  5  7  1  0
  5  6  2  0
  7  8  1  0
  9 10  2  0
  9  8  1  0
 11 12  1  0
 12 14  1  0
 13 12  2  0
 14 15  1  0
 16 15  1  1
 16 18  1  0
 16 17  1  0
 17  9  1  0
 18 19  1  0
 20 18  2  0
M  END
$$$$
