SGQ.pdb
     RDKit          3D

 20 19  0  0  1  0  0  0  0  0999 V2000
    7.3559  -17.9080   17.7338 O   0  0  0  0  0  0  0  0  0  0  0  0
    8.2277  -16.8407   17.4458 C   0  0  0  0  0  0  0  0  0  0  0  0
    9.1070  -16.6188   18.6559 C   0  0  2  0  0  0  0  0  0  0  0  0
    9.6274  -17.9080   19.0540 N   0  0  0  0  0  0  0  0  0  0  0  0
    8.3294  -16.0711   19.7974 C   0  0  0  0  0  0  0  0  0  0  0  0
    7.8924  -14.8911   19.8036 O   0  0  0  0  0  0  0  0  0  0  0  0
    8.0409  -16.8817   20.9591 N   0  0  0  0  0  0  0  0  0  0  0  0
    7.3789  -16.3079   22.1014 C   0  0  0  0  0  0  0  0  0  0  0  0
    8.2601  -15.6753   23.0824 C   0  0  0  0  0  0  0  0  0  0  0  0
    9.4907  -15.6486   22.8167 O   0  0  0  0  0  0  0  0  0  0  0  0
    6.8215  -10.8651   26.6941 N   0  0  0  0  0  0  0  0  0  0  0  0
    6.1212  -12.0948   26.7341 C   0  0  0  0  0  0  0  0  0  0  0  0
    4.9619  -12.1123   27.2359 O   0  0  0  0  0  0  0  0  0  0  0  0
    6.6796  -13.3527   26.2116 C   0  0  0  0  0  0  0  0  0  0  0  0
    8.0826  -13.2383   25.7481 C   0  0  0  0  0  0  0  0  0  0  0  0
    8.7717  -14.4555   25.2515 C   0  0  2  0  0  0  0  0  0  0  0  0
    7.8164  -15.0995   24.2959 N   0  0  0  0  0  0  0  0  0  0  0  0
    9.0912  -15.5033   26.2165 C   0  0  0  0  0  0  0  0  0  0  0  0
    8.4678  -16.7531   26.1964 O   0  0  0  0  0  0  0  0  0  0  0  0
    9.9445  -15.3126   27.1142 O   0  0  0  0  0  0  0  0  0  0  0  0
  2  1  1  0
  3  5  1  0
  3  2  1  0
  3  4  1  1
  5  7  1  0
  5  6  2  0
  7  8  1  0
  9 10  2  0
  9  8  1  0
 11 12  1  0
 12 14  1  0
 13 12  2  0
 14 15  1  0
 16 15  1  1
 16 18  1  0
 16 17  1  0
 17  9  1  0
 18 19  1  0
 20 18  2  0
M  END
$$$$
