SGQ.pdb
     RDKit          3D

 20 19  0  0  1  0  0  0  0  0999 V2000
    5.8813  -18.0837   22.5886 O   0  0  0  0  0  0  0  0  0  0  0  0
    5.5875  -18.4195   21.2533 C   0  0  0  0  0  0  0  0  0  0  0  0
    6.8130  -18.1231   20.4186 C   0  0  2  0  0  0  0  0  0  0  0  0
    7.8950  -18.9296   20.9381 N   0  0  0  0  0  0  0  0  0  0  0  0
    7.2144  -16.6971   20.5332 C   0  0  0  0  0  0  0  0  0  0  0  0
    6.4967  -15.7630   20.0906 O   0  0  0  0  0  0  0  0  0  0  0  0
    8.4595  -16.3224   21.1649 N   0  0  0  0  0  0  0  0  0  0  0  0
    8.7805  -14.9350   21.3759 C   0  0  0  0  0  0  0  0  0  0  0  0
    8.8587  -14.5170   22.7753 C   0  0  0  0  0  0  0  0  0  0  0  0
    9.3675  -13.3894   23.0108 O   0  0  0  0  0  0  0  0  0  0  0  0
    6.5060  -10.8368   25.8171 N   0  0  0  0  0  0  0  0  0  0  0  0
    6.4030  -12.2022   26.1766 C   0  0  0  0  0  0  0  0  0  0  0  0
    6.1186  -12.4909   27.3732 O   0  0  0  0  0  0  0  0  0  0  0  0
    6.6054  -13.3011   25.2180 C   0  0  0  0  0  0  0  0  0  0  0  0
    7.2839  -14.4842   25.7977 C   0  0  0  0  0  0  0  0  0  0  0  0
    8.6226  -14.8635   25.2811 C   0  0  2  0  0  0  0  0  0  0  0  0
    8.4021  -15.2951   23.8648 N   0  0  0  0  0  0  0  0  0  0  0  0
    9.3046  -15.9915   25.9087 C   0  0  0  0  0  0  0  0  0  0  0  0
    9.6546  -17.1423   25.1985 O   0  0  0  0  0  0  0  0  0  0  0  0
    9.5982  -15.9688   27.1267 O   0  0  0  0  0  0  0  0  0  0  0  0
  2  1  1  0
  3  5  1  0
  3  2  1  0
  3  4  1  1
  5  7  1  0
  5  6  2  0
  7  8  1  0
  9 10  2  0
  9  8  1  0
 11 12  1  0
 12 14  1  0
 13 12  2  0
 14 15  1  0
 16 15  1  1
 16 18  1  0
 16 17  1  0
 17  9  1  0
 18 19  1  0
 20 18  2  0
M  END
$$$$
