SGQ.pdb
     RDKit          3D

 20 19  0  0  1  0  0  0  0  0999 V2000
    8.4355  -12.6885   20.0532 O   0  0  0  0  0  0  0  0  0  0  0  0
    7.3822  -13.4462   19.5069 C   0  0  0  0  0  0  0  0  0  0  0  0
    7.2707  -14.7282   20.3011 C   0  0  2  0  0  0  0  0  0  0  0  0
    6.8831  -14.3700   21.6474 N   0  0  0  0  0  0  0  0  0  0  0  0
    8.5762  -15.4335   20.3771 C   0  0  0  0  0  0  0  0  0  0  0  0
    9.1682  -15.8566   19.3504 O   0  0  0  0  0  0  0  0  0  0  0  0
    9.2251  -15.6642   21.6481 N   0  0  0  0  0  0  0  0  0  0  0  0
   10.5473  -16.2314   21.6985 C   0  0  0  0  0  0  0  0  0  0  0  0
   11.1347  -16.3305   23.0342 C   0  0  0  0  0  0  0  0  0  0  0  0
   12.2916  -16.8209   23.1184 O   0  0  0  0  0  0  0  0  0  0  0  0
    8.7991  -13.5409   28.1932 N   0  0  0  0  0  0  0  0  0  0  0  0
    9.8717  -14.2915   28.7321 C   0  0  0  0  0  0  0  0  0  0  0  0
   10.0786  -14.2392   29.9773 O   0  0  0  0  0  0  0  0  0  0  0  0
   10.7528  -15.1356   27.9084 C   0  0  0  0  0  0  0  0  0  0  0  0
   10.3835  -15.1656   26.4735 C   0  0  0  0  0  0  0  0  0  0  0  0
   11.1409  -16.0573   25.5601 C   0  0  2  0  0  0  0  0  0  0  0  0
   10.4878  -15.9133   24.2210 N   0  0  0  0  0  0  0  0  0  0  0  0
   11.1187  -17.4920   25.8292 C   0  0  0  0  0  0  0  0  0  0  0  0
   12.0989  -18.1233   26.5984 O   0  0  0  0  0  0  0  0  0  0  0  0
   10.2088  -18.2191   25.3668 O   0  0  0  0  0  0  0  0  0  0  0  0
  2  1  1  0
  3  5  1  0
  3  2  1  0
  3  4  1  1
  5  7  1  0
  5  6  2  0
  7  8  1  0
  9 10  2  0
  9  8  1  0
 11 12  1  0
 12 14  1  0
 13 12  2  0
 14 15  1  0
 16 15  1  1
 16 18  1  0
 16 17  1  0
 17  9  1  0
 18 19  1  0
 20 18  2  0
M  END
$$$$
