SGQ.pdb
     RDKit          3D

 20 19  0  0  1  0  0  0  0  0999 V2000
    8.4910  -17.2761   17.2072 O   0  0  0  0  0  0  0  0  0  0  0  0
    8.0897  -17.0220   18.5325 C   0  0  0  0  0  0  0  0  0  0  0  0
    9.2785  -17.2687   19.4340 C   0  0  2  0  0  0  0  0  0  0  0  0
    9.5401  -18.6909   19.4244 N   0  0  0  0  0  0  0  0  0  0  0  0
    8.9873  -16.8702   20.8355 C   0  0  0  0  0  0  0  0  0  0  0  0
    8.7813  -15.6722   21.1608 O   0  0  0  0  0  0  0  0  0  0  0  0
    8.9285  -17.8545   21.8926 N   0  0  0  0  0  0  0  0  0  0  0  0
    8.6510  -17.4531   23.2469 C   0  0  0  0  0  0  0  0  0  0  0  0
    9.8107  -17.0018   24.0154 C   0  0  0  0  0  0  0  0  0  0  0  0
   10.9380  -17.0929   23.4617 O   0  0  0  0  0  0  0  0  0  0  0  0
    9.5689  -13.3197   29.1561 N   0  0  0  0  0  0  0  0  0  0  0  0
    9.0706  -13.1599   27.8406 C   0  0  0  0  0  0  0  0  0  0  0  0
    8.2447  -12.2303   27.6175 O   0  0  0  0  0  0  0  0  0  0  0  0
    9.4762  -14.0234   26.7194 C   0  0  0  0  0  0  0  0  0  0  0  0
   10.4682  -15.0601   27.0902 C   0  0  0  0  0  0  0  0  0  0  0  0
   10.9619  -15.9839   26.0387 C   0  0  2  0  0  0  0  0  0  0  0  0
    9.7406  -16.4760   25.3268 N   0  0  0  0  0  0  0  0  0  0  0  0
   11.6555  -17.1965   26.4630 C   0  0  0  0  0  0  0  0  0  0  0  0
   11.0261  -18.4428   26.5012 O   0  0  0  0  0  0  0  0  0  0  0  0
   12.8563  -17.1593   26.8193 O   0  0  0  0  0  0  0  0  0  0  0  0
  2  1  1  0
  3  5  1  0
  3  2  1  0
  3  4  1  1
  5  7  1  0
  5  6  2  0
  7  8  1  0
  9 10  2  0
  9  8  1  0
 11 12  1  0
 12 14  1  0
 13 12  2  0
 14 15  1  0
 16 15  1  1
 16 18  1  0
 16 17  1  0
 17  9  1  0
 18 19  1  0
 20 18  2  0
M  END
$$$$
