SGQ.pdb
     RDKit          3D

 20 19  0  0  1  0  0  0  0  0999 V2000
    7.8513  -18.1054   17.5736 O   0  0  0  0  0  0  0  0  0  0  0  0
    6.9601  -17.5892   18.5335 C   0  0  0  0  0  0  0  0  0  0  0  0
    7.4907  -16.2478   18.9871 C   0  0  2  0  0  0  0  0  0  0  0  0
    8.8997  -16.2089   18.6641 N   0  0  0  0  0  0  0  0  0  0  0  0
    7.3575  -16.0819   20.4577 C   0  0  0  0  0  0  0  0  0  0  0  0
    6.2363  -15.9823   21.0202 O   0  0  0  0  0  0  0  0  0  0  0  0
    8.5240  -16.0277   21.3097 N   0  0  0  0  0  0  0  0  0  0  0  0
    8.3816  -15.8205   22.7272 C   0  0  0  0  0  0  0  0  0  0  0  0
    9.6168  -15.9316   23.5026 C   0  0  0  0  0  0  0  0  0  0  0  0
   10.7009  -15.9163   22.8620 O   0  0  0  0  0  0  0  0  0  0  0  0
   10.1192  -13.0154   28.6474 N   0  0  0  0  0  0  0  0  0  0  0  0
   10.3968  -14.3430   29.0534 C   0  0  0  0  0  0  0  0  0  0  0  0
   10.5037  -14.5858   30.2886 O   0  0  0  0  0  0  0  0  0  0  0  0
   10.5597  -15.4547   28.1022 C   0  0  0  0  0  0  0  0  0  0  0  0
   10.8197  -15.0184   26.7100 C   0  0  0  0  0  0  0  0  0  0  0  0
   10.9635  -16.0510   25.6536 C   0  0  2  0  0  0  0  0  0  0  0  0
    9.6638  -16.0535   24.9110 N   0  0  0  0  0  0  0  0  0  0  0  0
   11.1524  -17.4369   26.0717 C   0  0  0  0  0  0  0  0  0  0  0  0
   12.4171  -17.9803   26.3089 O   0  0  0  0  0  0  0  0  0  0  0  0
   10.1714  -18.2009   26.2284 O   0  0  0  0  0  0  0  0  0  0  0  0
  2  1  1  0
  3  5  1  0
  3  2  1  0
  3  4  1  1
  5  7  1  0
  5  6  2  0
  7  8  1  0
  9 10  2  0
  9  8  1  0
 11 12  1  0
 12 14  1  0
 13 12  2  0
 14 15  1  0
 16 15  1  1
 16 18  1  0
 16 17  1  0
 17  9  1  0
 18 19  1  0
 20 18  2  0
M  END
$$$$
