SGQ.pdb
     RDKit          3D

 20 19  0  0  1  0  0  0  0  0999 V2000
    9.2672  -14.9568   16.2607 O   0  0  0  0  0  0  0  0  0  0  0  0
    9.2732  -15.9943   17.2123 C   0  0  0  0  0  0  0  0  0  0  0  0
    7.9493  -15.9635   17.9425 C   0  0  2  0  0  0  0  0  0  0  0  0
    6.9754  -15.3800   17.0468 N   0  0  0  0  0  0  0  0  0  0  0  0
    8.0198  -15.1084   19.1556 C   0  0  0  0  0  0  0  0  0  0  0  0
    8.7858  -15.3749   20.1177 O   0  0  0  0  0  0  0  0  0  0  0  0
    7.2016  -13.9231   19.2798 N   0  0  0  0  0  0  0  0  0  0  0  0
    7.2191  -13.1500   20.4940 C   0  0  0  0  0  0  0  0  0  0  0  0
    7.9529  -13.7508   21.6074 C   0  0  0  0  0  0  0  0  0  0  0  0
    9.1447  -14.0953   21.3911 O   0  0  0  0  0  0  0  0  0  0  0  0
    5.6149  -10.9311   26.7142 N   0  0  0  0  0  0  0  0  0  0  0  0
    6.4814  -12.0440   26.5927 C   0  0  0  0  0  0  0  0  0  0  0  0
    6.7008  -12.7519   27.6158 O   0  0  0  0  0  0  0  0  0  0  0  0
    7.1332  -12.4180   25.3268 C   0  0  0  0  0  0  0  0  0  0  0  0
    7.5487  -13.8391   25.2640 C   0  0  0  0  0  0  0  0  0  0  0  0
    8.2777  -14.3172   24.0628 C   0  0  2  0  0  0  0  0  0  0  0  0
    7.4092  -13.9645   22.8957 N   0  0  0  0  0  0  0  0  0  0  0  0
    8.5108  -15.7521   23.9290 C   0  0  0  0  0  0  0  0  0  0  0  0
    9.5825  -16.3964   24.5513 O   0  0  0  0  0  0  0  0  0  0  0  0
    7.7493  -16.4655   23.2350 O   0  0  0  0  0  0  0  0  0  0  0  0
  2  1  1  0
  3  5  1  0
  3  2  1  0
  3  4  1  6
  5  7  1  0
  5  6  2  0
  7  8  1  0
  9 10  2  0
  9  8  1  0
 11 12  1  0
 12 14  1  0
 13 12  2  0
 14 15  1  0
 16 15  1  1
 16 18  1  0
 16 17  1  0
 17  9  1  0
 18 19  1  0
 20 18  2  0
M  END
$$$$
