SGQ.pdb
     RDKit          3D

 20 19  0  0  1  0  0  0  0  0999 V2000
   10.0255  -13.2627   18.6219 O   0  0  0  0  0  0  0  0  0  0  0  0
    9.3281  -14.0152   17.6578 C   0  0  0  0  0  0  0  0  0  0  0  0
    7.8639  -14.0124   18.0354 C   0  0  2  0  0  0  0  0  0  0  0  0
    7.5020  -12.6486   18.3523 N   0  0  0  0  0  0  0  0  0  0  0  0
    7.6146  -14.8405   19.2436 C   0  0  0  0  0  0  0  0  0  0  0  0
    7.8683  -16.0726   19.2736 O   0  0  0  0  0  0  0  0  0  0  0  0
    7.0643  -14.2565   20.4461 N   0  0  0  0  0  0  0  0  0  0  0  0
    6.8391  -15.0688   21.6131 C   0  0  0  0  0  0  0  0  0  0  0  0
    7.8763  -14.9879   22.6411 C   0  0  0  0  0  0  0  0  0  0  0  0
    8.9042  -14.3134   22.3686 O   0  0  0  0  0  0  0  0  0  0  0  0
    5.2360  -12.6932   26.9406 N   0  0  0  0  0  0  0  0  0  0  0  0
    6.5793  -12.2955   27.1446 C   0  0  0  0  0  0  0  0  0  0  0  0
    6.8054  -11.2825   27.8649 O   0  0  0  0  0  0  0  0  0  0  0  0
    7.7250  -13.0126   26.5611 C   0  0  0  0  0  0  0  0  0  0  0  0
    7.3438  -14.2009   25.7620 C   0  0  0  0  0  0  0  0  0  0  0  0
    8.4155  -15.0055   25.1238 C   0  0  2  0  0  0  0  0  0  0  0  0
    7.7931  -15.6148   23.9064 N   0  0  0  0  0  0  0  0  0  0  0  0
    8.9566  -16.1387   25.8682 C   0  0  0  0  0  0  0  0  0  0  0  0
   10.1094  -16.0373   26.6503 O   0  0  0  0  0  0  0  0  0  0  0  0
    8.4005  -17.2610   25.8254 O   0  0  0  0  0  0  0  0  0  0  0  0
  2  1  1  0
  3  5  1  0
  3  2  1  0
  3  4  1  1
  5  7  1  0
  5  6  2  0
  7  8  1  0
  9 10  2  0
  9  8  1  0
 11 12  1  0
 12 14  1  0
 13 12  2  0
 14 15  1  0
 16 15  1  1
 16 18  1  0
 16 17  1  0
 17  9  1  0
 18 19  1  0
 20 18  2  0
M  END
$$$$
