SGQ.pdb
     RDKit          3D

 20 19  0  0  1  0  0  0  0  0999 V2000
    6.9509  -19.3914   17.0890 O   0  0  0  0  0  0  0  0  0  0  0  0
    7.8903  -18.7063   17.8828 C   0  0  0  0  0  0  0  0  0  0  0  0
    7.6360  -17.2235   17.7293 C   0  0  2  0  0  0  0  0  0  0  0  0
    7.8058  -16.8987   16.3304 N   0  0  0  0  0  0  0  0  0  0  0  0
    8.6188  -16.4224   18.5038 C   0  0  0  0  0  0  0  0  0  0  0  0
    8.9689  -15.2675   18.1474 O   0  0  0  0  0  0  0  0  0  0  0  0
    9.2185  -16.9442   19.7112 N   0  0  0  0  0  0  0  0  0  0  0  0
   10.0517  -16.1050   20.5321 C   0  0  0  0  0  0  0  0  0  0  0  0
   10.4975  -16.7047   21.7894 C   0  0  0  0  0  0  0  0  0  0  0  0
    9.9816  -17.8063   22.1155 O   0  0  0  0  0  0  0  0  0  0  0  0
   16.9551  -16.8630   22.4078 N   0  0  0  0  0  0  0  0  0  0  0  0
   15.8037  -16.0828   22.6719 C   0  0  0  0  0  0  0  0  0  0  0  0
   15.9591  -14.8923   23.0649 O   0  0  0  0  0  0  0  0  0  0  0  0
   14.4333  -16.5936   22.5029 C   0  0  0  0  0  0  0  0  0  0  0  0
   13.5744  -16.4103   23.6967 C   0  0  0  0  0  0  0  0  0  0  0  0
   12.1901  -16.9450   23.6688 C   0  0  2  0  0  0  0  0  0  0  0  0
   11.4612  -16.1271   22.6488 N   0  0  0  0  0  0  0  0  0  0  0  0
   11.3854  -16.8261   24.8810 C   0  0  0  0  0  0  0  0  0  0  0  0
   11.4652  -17.7509   25.9247 O   0  0  0  0  0  0  0  0  0  0  0  0
   10.5777  -15.8790   25.0265 O   0  0  0  0  0  0  0  0  0  0  0  0
  2  1  1  0
  3  5  1  0
  3  2  1  0
  3  4  1  6
  5  7  1  0
  5  6  2  0
  7  8  1  0
  9 10  2  0
  9  8  1  0
 11 12  1  0
 12 14  1  0
 13 12  2  0
 14 15  1  0
 16 15  1  1
 16 18  1  0
 16 17  1  0
 17  9  1  0
 18 19  1  0
 20 18  2  0
M  END
$$$$
