SGQ.pdb
     RDKit          3D

 20 19  0  0  1  0  0  0  0  0999 V2000
   13.3067  -17.8052   19.2206 O   0  0  0  0  0  0  0  0  0  0  0  0
   12.4745  -17.2776   20.2261 C   0  0  0  0  0  0  0  0  0  0  0  0
   11.0824  -17.8291   20.0148 C   0  0  2  0  0  0  0  0  0  0  0  0
   10.6694  -17.4595   18.6791 N   0  0  0  0  0  0  0  0  0  0  0  0
   10.1131  -17.2336   20.9707 C   0  0  0  0  0  0  0  0  0  0  0  0
    9.3994  -16.2423   20.6684 O   0  0  0  0  0  0  0  0  0  0  0  0
    9.9500  -17.7759   22.3007 N   0  0  0  0  0  0  0  0  0  0  0  0
    8.9004  -17.2941   23.1600 C   0  0  0  0  0  0  0  0  0  0  0  0
    9.3129  -16.3089   24.1592 C   0  0  0  0  0  0  0  0  0  0  0  0
   10.5330  -15.9987   24.1909 O   0  0  0  0  0  0  0  0  0  0  0  0
    5.2960  -12.6205   26.1318 N   0  0  0  0  0  0  0  0  0  0  0  0
    6.4328  -11.9296   26.6160 C   0  0  0  0  0  0  0  0  0  0  0  0
    6.3399  -10.6870   26.8241 O   0  0  0  0  0  0  0  0  0  0  0  0
    7.7165  -12.5944   26.8945 C   0  0  0  0  0  0  0  0  0  0  0  0
    7.7033  -14.0538   26.6370 C   0  0  0  0  0  0  0  0  0  0  0  0
    8.9221  -14.6910   26.0787 C   0  0  2  0  0  0  0  0  0  0  0  0
    8.4331  -15.6926   25.0795 N   0  0  0  0  0  0  0  0  0  0  0  0
    9.7705  -15.4583   26.9856 C   0  0  0  0  0  0  0  0  0  0  0  0
   10.7953  -14.8683   27.7290 O   0  0  0  0  0  0  0  0  0  0  0  0
    9.6106  -16.6933   27.1258 O   0  0  0  0  0  0  0  0  0  0  0  0
  2  1  1  0
  3  5  1  0
  3  2  1  0
  3  4  1  6
  5  7  1  0
  5  6  2  0
  7  8  1  0
  9 10  2  0
  9  8  1  0
 11 12  1  0
 12 14  1  0
 13 12  2  0
 14 15  1  0
 16 15  1  1
 16 18  1  0
 16 17  1  0
 17  9  1  0
 18 19  1  0
 20 18  2  0
M  END
$$$$
