GAD.pdb
     RDKit          3D

 18 17  0  0  1  0  0  0  0  0999 V2000
    8.1166  -17.0631   16.0217 N   0  0  0  0  0  0  0  0  0  0  0  0
    7.5644  -16.3509   17.1571 C   0  0  0  0  0  0  0  0  0  0  0  0
    8.4384  -15.1959   17.4810 C   0  0  0  0  0  0  0  0  0  0  0  0
    9.6444  -15.1710   17.0748 O   0  0  0  0  0  0  0  0  0  0  0  0
    8.1513  -11.9692   19.4031 C   0  0  0  0  0  0  0  0  0  0  0  0
    8.9466  -13.0654   18.7082 C   0  0  2  0  0  0  0  0  0  0  0  0
    8.0146  -14.0706   18.2404 N   0  0  0  0  0  0  0  0  0  0  0  0
    9.9444  -13.5672   19.6508 C   0  0  0  0  0  0  0  0  0  0  0  0
   10.8912  -12.7910   19.9545 O   0  0  0  0  0  0  0  0  0  0  0  0
    9.9525  -14.8446   20.2591 N   0  0  0  0  0  0  0  0  0  0  0  0
   11.0009  -15.2389   21.1966 C   0  0  1  0  0  0  0  0  0  0  0  0
   10.4020  -15.6248   22.5425 C   0  0  0  0  0  0  0  0  0  0  0  0
   11.4579  -15.8958   23.5462 C   0  0  0  0  0  0  0  0  0  0  0  0
   12.6657  -15.8849   23.2081 O   0  0  0  0  0  0  0  0  0  0  0  0
   11.7324  -16.4302   20.6933 C   0  0  0  0  0  0  0  0  0  0  0  0
   12.8765  -16.8858   21.3278 O   0  0  0  0  0  0  0  0  0  0  0  0
   11.1547  -16.1651   24.8635 O   0  0  0  0  0  0  0  0  0  0  0  0
   11.3393  -17.0618   19.6787 O   0  0  0  0  0  0  0  0  0  0  0  0
  2  1  1  0
  3  2  1  0
  3  4  2  0
  6  5  1  1
  6  7  1  0
  7  3  1  0
  8  6  1  0
  9  8  2  0
 10  8  1  0
 11 12  1  1
 11 10  1  0
 12 13  1  0
 13 14  2  0
 15 16  1  0
 15 11  1  0
 17 13  1  0
 18 15  2  0
M  END
$$$$
