GAD.pdb
     RDKit          3D

 18 17  0  0  1  0  0  0  0  0999 V2000
    8.1061  -16.1106   16.0058 N   0  0  0  0  0  0  0  0  0  0  0  0
    7.2612  -15.8486   17.1541 C   0  0  0  0  0  0  0  0  0  0  0  0
    8.0767  -15.2313   18.2296 C   0  0  0  0  0  0  0  0  0  0  0  0
    9.3391  -15.3932   18.2498 O   0  0  0  0  0  0  0  0  0  0  0  0
    7.5086  -13.0321   21.2297 C   0  0  0  0  0  0  0  0  0  0  0  0
    8.3323  -14.0170   20.4122 C   0  0  2  0  0  0  0  0  0  0  0  0
    7.5341  -14.4416   19.2806 N   0  0  0  0  0  0  0  0  0  0  0  0
    8.7438  -15.1057   21.2961 C   0  0  0  0  0  0  0  0  0  0  0  0
    7.9083  -16.0283   21.5009 O   0  0  0  0  0  0  0  0  0  0  0  0
    9.9937  -15.2269   21.9480 N   0  0  0  0  0  0  0  0  0  0  0  0
   10.2622  -16.3080   22.8929 C   0  0  1  0  0  0  0  0  0  0  0  0
   11.7493  -16.6332   22.9301 C   0  0  0  0  0  0  0  0  0  0  0  0
   12.2281  -17.1255   21.6171 C   0  0  0  0  0  0  0  0  0  0  0  0
   11.5353  -17.9374   20.9583 O   0  0  0  0  0  0  0  0  0  0  0  0
    9.8741  -15.9081   24.2702 C   0  0  0  0  0  0  0  0  0  0  0  0
    9.4342  -14.6231   24.5430 O   0  0  0  0  0  0  0  0  0  0  0  0
   13.4310  -16.7157   21.0832 O   0  0  0  0  0  0  0  0  0  0  0  0
    9.9320  -16.7191   25.2303 O   0  0  0  0  0  0  0  0  0  0  0  0
  2  1  1  0
  3  2  1  0
  3  4  2  0
  6  5  1  1
  6  7  1  0
  7  3  1  0
  8  6  1  0
  9  8  2  0
 10  8  1  0
 11 12  1  1
 11 10  1  0
 12 13  1  0
 13 14  2  0
 15 16  1  0
 15 11  1  0
 17 13  1  0
 18 15  2  0
M  END
$$$$
