GAD.pdb
     RDKit          3D

 18 17  0  0  1  0  0  0  0  0999 V2000
    7.0585  -18.0071   17.4443 N   0  0  0  0  0  0  0  0  0  0  0  0
    6.7449  -17.3355   18.6900 C   0  0  0  0  0  0  0  0  0  0  0  0
    7.5757  -16.1113   18.8072 C   0  0  0  0  0  0  0  0  0  0  0  0
    8.7639  -16.0970   18.3512 O   0  0  0  0  0  0  0  0  0  0  0  0
    7.2101  -12.6540   20.2570 C   0  0  0  0  0  0  0  0  0  0  0  0
    8.0300  -13.8089   19.6994 C   0  0  2  0  0  0  0  0  0  0  0  0
    7.1279  -14.9055   19.4140 N   0  0  0  0  0  0  0  0  0  0  0  0
    9.0753  -14.1310   20.6687 C   0  0  0  0  0  0  0  0  0  0  0  0
    9.9683  -13.2615   20.8629 O   0  0  0  0  0  0  0  0  0  0  0  0
    9.1845  -15.3285   21.4144 N   0  0  0  0  0  0  0  0  0  0  0  0
   10.2603  -15.5325   22.3811 C   0  0  1  0  0  0  0  0  0  0  0  0
    9.7302  -16.1989   23.6435 C   0  0  0  0  0  0  0  0  0  0  0  0
   10.7799  -16.2963   24.6848 C   0  0  0  0  0  0  0  0  0  0  0  0
   11.8952  -15.7504   24.5077 O   0  0  0  0  0  0  0  0  0  0  0  0
   11.3016  -16.4337   21.8231 C   0  0  0  0  0  0  0  0  0  0  0  0
   12.6478  -16.1305   21.9454 O   0  0  0  0  0  0  0  0  0  0  0  0
   10.5711  -16.9790   25.8639 O   0  0  0  0  0  0  0  0  0  0  0  0
   10.9970  -17.4970   21.2236 O   0  0  0  0  0  0  0  0  0  0  0  0
  2  1  1  0
  3  2  1  0
  3  4  2  0
  6  5  1  1
  6  7  1  0
  7  3  1  0
  8  6  1  0
  9  8  2  0
 10  8  1  0
 11 12  1  1
 11 10  1  0
 12 13  1  0
 13 14  2  0
 15 16  1  0
 15 11  1  0
 17 13  1  0
 18 15  2  0
M  END
$$$$
