GAD.pdb
     RDKit          3D

 18 17  0  0  1  0  0  0  0  0999 V2000
   -2.0743  -25.7515   30.9267 N   0  0  0  0  0  0  0  0  0  0  0  0
   -3.1772  -25.5735   30.0030 C   0  0  0  0  0  0  0  0  0  0  0  0
   -3.5018  -24.1287   29.9028 C   0  0  0  0  0  0  0  0  0  0  0  0
   -3.7815  -23.4606   30.9495 O   0  0  0  0  0  0  0  0  0  0  0  0
   -3.6337  -21.4824   27.2375 C   0  0  0  0  0  0  0  0  0  0  0  0
   -4.0114  -22.0432   28.6012 C   0  0  2  0  0  0  0  0  0  0  0  0
   -3.5252  -23.4054   28.6786 N   0  0  0  0  0  0  0  0  0  0  0  0
   -5.4587  -21.9147   28.7581 C   0  0  0  0  0  0  0  0  0  0  0  0
   -5.9233  -20.7485   28.8820 O   0  0  0  0  0  0  0  0  0  0  0  0
   -6.3946  -22.9755   28.7849 N   0  0  0  0  0  0  0  0  0  0  0  0
   -7.8248  -22.7300   28.9519 C   0  0  1  0  0  0  0  0  0  0  0  0
   -8.6409  -23.8358   28.2960 C   0  0  0  0  0  0  0  0  0  0  0  0
  -10.0910  -23.6554   28.5413 C   0  0  0  0  0  0  0  0  0  0  0  0
  -10.6180  -22.5261   28.3994 O   0  0  0  0  0  0  0  0  0  0  0  0
   -8.1900  -22.7217   30.3921 C   0  0  0  0  0  0  0  0  0  0  0  0
   -9.3410  -22.0893   30.8328 O   0  0  0  0  0  0  0  0  0  0  0  0
  -10.8975  -24.7043   28.9277 O   0  0  0  0  0  0  0  0  0  0  0  0
   -7.4692  -23.2857   31.2554 O   0  0  0  0  0  0  0  0  0  0  0  0
  2  1  1  0
  3  2  1  0
  3  4  2  0
  6  5  1  6
  6  7  1  0
  7  3  1  0
  8  6  1  0
  9  8  2  0
 10  8  1  0
 11 12  1  6
 11 10  1  0
 12 13  1  0
 13 14  2  0
 15 16  1  0
 15 11  1  0
 17 13  1  0
 18 15  2  0
M  END
$$$$
