GAD.pdb
     RDKit          3D

 18 17  0  0  1  0  0  0  0  0999 V2000
    5.3138  -18.9965   16.8657 N   0  0  0  0  0  0  0  0  0  0  0  0
    4.0928  -19.4275   17.5174 C   0  0  0  0  0  0  0  0  0  0  0  0
    4.2594  -19.3172   18.9881 C   0  0  0  0  0  0  0  0  0  0  0  0
    5.3909  -19.0105   19.4838 O   0  0  0  0  0  0  0  0  0  0  0  0
    2.0811  -19.4636   22.0455 C   0  0  0  0  0  0  0  0  0  0  0  0
    3.4360  -19.5009   21.3528 C   0  0  2  0  0  0  0  0  0  0  0  0
    3.2100  -19.5367   19.9225 N   0  0  0  0  0  0  0  0  0  0  0  0
    4.1771  -20.6494   21.8702 C   0  0  0  0  0  0  0  0  0  0  0  0
    4.0224  -21.7505   21.2744 O   0  0  0  0  0  0  0  0  0  0  0  0
    5.0554  -20.6474   22.9794 N   0  0  0  0  0  0  0  0  0  0  0  0
    5.8779  -21.8095   23.3062 C   0  0  1  0  0  0  0  0  0  0  0  0
    7.2794  -21.6557   22.7309 C   0  0  0  0  0  0  0  0  0  0  0  0
    8.0964  -22.8693   22.9663 C   0  0  0  0  0  0  0  0  0  0  0  0
    7.6420  -24.0009   22.6726 O   0  0  0  0  0  0  0  0  0  0  0  0
    6.0290  -21.9468   24.7779 C   0  0  0  0  0  0  0  0  0  0  0  0
    6.4599  -23.1358   25.3432 O   0  0  0  0  0  0  0  0  0  0  0  0
    9.3622  -22.7982   23.5072 O   0  0  0  0  0  0  0  0  0  0  0  0
    5.7717  -20.9924   25.5562 O   0  0  0  0  0  0  0  0  0  0  0  0
  2  1  1  0
  3  2  1  0
  3  4  2  0
  6  5  1  1
  6  7  1  0
  7  3  1  0
  8  6  1  0
  9  8  2  0
 10  8  1  0
 11 12  1  6
 11 10  1  0
 12 13  1  0
 13 14  2  0
 15 16  1  0
 15 11  1  0
 17 13  1  0
 18 15  2  0
M  END
$$$$
