GAD.pdb
     RDKit          3D

 18 17  0  0  1  0  0  0  0  0999 V2000
   -2.6203  -17.9141   16.8352 N   0  0  0  0  0  0  0  0  0  0  0  0
   -1.2191  -17.6565   16.5676 C   0  0  0  0  0  0  0  0  0  0  0  0
   -0.4729  -18.9391   16.5961 C   0  0  0  0  0  0  0  0  0  0  0  0
   -1.0486  -20.0072   16.9805 O   0  0  0  0  0  0  0  0  0  0  0  0
    2.8703  -20.2491   15.5212 C   0  0  0  0  0  0  0  0  0  0  0  0
    1.6210  -20.3088   16.3887 C   0  0  2  0  0  0  0  0  0  0  0  0
    0.8900  -19.0710   16.2116 N   0  0  0  0  0  0  0  0  0  0  0  0
    2.0383  -20.5653   17.7656 C   0  0  0  0  0  0  0  0  0  0  0  0
    2.4533  -19.5797   18.4347 O   0  0  0  0  0  0  0  0  0  0  0  0
    2.0222  -21.8169   18.4252 N   0  0  0  0  0  0  0  0  0  0  0  0
    2.4315  -21.9517   19.8209 C   0  0  1  0  0  0  0  0  0  0  0  0
    1.6528  -23.0673   20.5047 C   0  0  0  0  0  0  0  0  0  0  0  0
    0.2346  -22.6898   20.7094 C   0  0  0  0  0  0  0  0  0  0  0  0
   -0.5714  -22.7257   19.7490 O   0  0  0  0  0  0  0  0  0  0  0  0
    3.8701  -22.3119   19.9122 C   0  0  0  0  0  0  0  0  0  0  0  0
    4.5729  -22.7320   18.7948 O   0  0  0  0  0  0  0  0  0  0  0  0
   -0.2401  -22.2924   21.9409 O   0  0  0  0  0  0  0  0  0  0  0  0
    4.4949  -22.2481   21.0023 O   0  0  0  0  0  0  0  0  0  0  0  0
  2  1  1  0
  3  2  1  0
  3  4  2  0
  6  5  1  6
  6  7  1  0
  7  3  1  0
  8  6  1  0
  9  8  2  0
 10  8  1  0
 11 12  1  6
 11 10  1  0
 12 13  1  0
 13 14  2  0
 15 16  1  0
 15 11  1  0
 17 13  1  0
 18 15  2  0
M  END
$$$$
