GAD.pdb
     RDKit          3D

 18 17  0  0  1  0  0  0  0  0999 V2000
    8.3768  -13.1725   17.7435 N   0  0  0  0  0  0  0  0  0  0  0  0
    7.5850  -13.9866   18.6443 C   0  0  0  0  0  0  0  0  0  0  0  0
    8.2123  -13.9777   19.9893 C   0  0  0  0  0  0  0  0  0  0  0  0
    9.4758  -13.8776   20.1066 O   0  0  0  0  0  0  0  0  0  0  0  0
    7.0641  -13.8972   23.5673 C   0  0  0  0  0  0  0  0  0  0  0  0
    8.1344  -14.0605   22.4974 C   0  0  2  0  0  0  0  0  0  0  0  0
    7.4808  -14.0764   21.2049 N   0  0  0  0  0  0  0  0  0  0  0  0
    8.8940  -15.2722   22.7987 C   0  0  0  0  0  0  0  0  0  0  0  0
    8.4250  -16.3652   22.3784 O   0  0  0  0  0  0  0  0  0  0  0  0
   10.1099  -15.3398   23.5190 N   0  0  0  0  0  0  0  0  0  0  0  0
   10.7862  -16.6117   23.7607 C   0  0  1  0  0  0  0  0  0  0  0  0
   12.2950  -16.4523   23.6300 C   0  0  0  0  0  0  0  0  0  0  0  0
   12.8119  -17.1607   22.4356 C   0  0  0  0  0  0  0  0  0  0  0  0
   12.1362  -18.0737   21.9035 O   0  0  0  0  0  0  0  0  0  0  0  0
   10.5218  -17.0911   25.1420 C   0  0  0  0  0  0  0  0  0  0  0  0
   10.4453  -18.4450   25.4251 O   0  0  0  0  0  0  0  0  0  0  0  0
   14.0325  -16.8468   21.8775 O   0  0  0  0  0  0  0  0  0  0  0  0
   10.3591  -16.2873   26.0961 O   0  0  0  0  0  0  0  0  0  0  0  0
  2  1  1  0
  3  2  1  0
  3  4  2  0
  6  5  1  1
  6  7  1  0
  7  3  1  0
  8  6  1  0
  9  8  2  0
 10  8  1  0
 11 12  1  1
 11 10  1  0
 12 13  1  0
 13 14  2  0
 15 16  1  0
 15 11  1  0
 17 13  1  0
 18 15  2  0
M  END
$$$$
