GAD.pdb
     RDKit          3D

 18 17  0  0  1  0  0  0  0  0999 V2000
    8.2290  -14.6030   13.7633 N   0  0  0  0  0  0  0  0  0  0  0  0
    7.5240  -14.8682   15.0018 C   0  0  0  0  0  0  0  0  0  0  0  0
    8.2775  -14.2677   16.1306 C   0  0  0  0  0  0  0  0  0  0  0  0
    9.5024  -13.9522   15.9879 O   0  0  0  0  0  0  0  0  0  0  0  0
    7.5523  -13.1677   19.6583 C   0  0  0  0  0  0  0  0  0  0  0  0
    8.4895  -13.4303   18.4880 C   0  0  2  0  0  0  0  0  0  0  0  0
    7.7134  -14.0078   17.4100 N   0  0  0  0  0  0  0  0  0  0  0  0
    9.5790  -14.2808   18.9630 C   0  0  0  0  0  0  0  0  0  0  0  0
    9.4572  -15.5241   18.7879 O   0  0  0  0  0  0  0  0  0  0  0  0
   10.7628  -13.8443   19.6031 N   0  0  0  0  0  0  0  0  0  0  0  0
   11.8606  -14.7638   19.8913 C   0  0  1  0  0  0  0  0  0  0  0  0
   13.1930  -14.0266   19.8959 C   0  0  0  0  0  0  0  0  0  0  0  0
   14.3286  -14.9636   20.0640 C   0  0  0  0  0  0  0  0  0  0  0  0
   14.1352  -16.2020   20.0178 O   0  0  0  0  0  0  0  0  0  0  0  0
   11.6977  -15.3677   21.2391 C   0  0  0  0  0  0  0  0  0  0  0  0
   10.6899  -14.9482   22.0919 O   0  0  0  0  0  0  0  0  0  0  0  0
   15.6147  -14.5146   20.2740 O   0  0  0  0  0  0  0  0  0  0  0  0
   12.4663  -16.2755   21.6489 O   0  0  0  0  0  0  0  0  0  0  0  0
  2  1  1  0
  3  2  1  0
  3  4  2  0
  6  5  1  1
  6  7  1  0
  7  3  1  0
  8  6  1  0
  9  8  2  0
 10  8  1  0
 11 12  1  1
 11 10  1  0
 12 13  1  0
 13 14  2  0
 15 16  1  0
 15 11  1  0
 17 13  1  0
 18 15  2  0
M  END
$$$$
