GAD.pdb
     RDKit          3D

 18 17  0  0  1  0  0  0  0  0999 V2000
    7.0099  -15.7494   19.3469 N   0  0  0  0  0  0  0  0  0  0  0  0
    6.3006  -15.4220   20.5680 C   0  0  0  0  0  0  0  0  0  0  0  0
    7.2601  -14.8711   21.5571 C   0  0  0  0  0  0  0  0  0  0  0  0
    8.4878  -14.7326   21.2508 O   0  0  0  0  0  0  0  0  0  0  0  0
    7.0907  -13.0821   24.8280 C   0  0  0  0  0  0  0  0  0  0  0  0
    7.8575  -13.8872   23.7884 C   0  0  2  0  0  0  0  0  0  0  0  0
    6.8984  -14.4702   22.8729 N   0  0  0  0  0  0  0  0  0  0  0  0
    8.6832  -14.8658   24.4930 C   0  0  0  0  0  0  0  0  0  0  0  0
    9.5894  -14.4178   25.2477 O   0  0  0  0  0  0  0  0  0  0  0  0
    8.5653  -16.2734   24.4114 N   0  0  0  0  0  0  0  0  0  0  0  0
    9.7054  -17.1523   24.6585 C   0  0  1  0  0  0  0  0  0  0  0  0
   10.7890  -16.9356   23.6108 C   0  0  0  0  0  0  0  0  0  0  0  0
   11.9482  -17.8299   23.8392 C   0  0  0  0  0  0  0  0  0  0  0  0
   11.9214  -18.6703   24.7699 O   0  0  0  0  0  0  0  0  0  0  0  0
   10.3181  -16.8563   25.9794 C   0  0  0  0  0  0  0  0  0  0  0  0
   10.9120  -15.6306   26.2320 O   0  0  0  0  0  0  0  0  0  0  0  0
   13.0772  -17.7702   23.0506 O   0  0  0  0  0  0  0  0  0  0  0  0
   10.3182  -17.7051   26.9081 O   0  0  0  0  0  0  0  0  0  0  0  0
  2  1  1  0
  3  2  1  0
  3  4  2  0
  6  5  1  1
  6  7  1  0
  7  3  1  0
  8  6  1  0
  9  8  2  0
 10  8  1  0
 11 12  1  6
 11 10  1  0
 12 13  1  0
 13 14  2  0
 15 16  1  0
 15 11  1  0
 17 13  1  0
 18 15  2  0
M  END
$$$$
