GAD.pdb
     RDKit          3D

 18 17  0  0  1  0  0  0  0  0999 V2000
    7.3701  -15.1683   19.0951 N   0  0  0  0  0  0  0  0  0  0  0  0
    6.5511  -14.9656   20.2738 C   0  0  0  0  0  0  0  0  0  0  0  0
    7.4317  -14.7449   21.4480 C   0  0  0  0  0  0  0  0  0  0  0  0
    8.6904  -14.9025   21.3438 O   0  0  0  0  0  0  0  0  0  0  0  0
    7.0608  -13.5200   24.9846 C   0  0  0  0  0  0  0  0  0  0  0  0
    7.8529  -14.1592   23.8528 C   0  0  2  0  0  0  0  0  0  0  0  0
    6.9578  -14.3555   22.7312 N   0  0  0  0  0  0  0  0  0  0  0  0
    8.4545  -15.3905   24.3608 C   0  0  0  0  0  0  0  0  0  0  0  0
    7.7523  -16.4373   24.3117 O   0  0  0  0  0  0  0  0  0  0  0  0
    9.7537  -15.5242   24.9049 N   0  0  0  0  0  0  0  0  0  0  0  0
   10.3176  -16.8327   25.2264 C   0  0  1  0  0  0  0  0  0  0  0  0
   11.6762  -17.0111   24.5622 C   0  0  0  0  0  0  0  0  0  0  0  0
   12.2847  -18.3146   24.9178 C   0  0  0  0  0  0  0  0  0  0  0  0
   11.5544  -19.2922   25.2078 O   0  0  0  0  0  0  0  0  0  0  0  0
   10.5334  -16.9644   26.6906 C   0  0  0  0  0  0  0  0  0  0  0  0
   10.4992  -18.2039   27.3083 O   0  0  0  0  0  0  0  0  0  0  0  0
   13.6510  -18.4949   24.9424 O   0  0  0  0  0  0  0  0  0  0  0  0
   10.7529  -15.9594   27.4149 O   0  0  0  0  0  0  0  0  0  0  0  0
  2  1  1  0
  3  2  1  0
  3  4  2  0
  6  5  1  1
  6  7  1  0
  7  3  1  0
  8  6  1  0
  9  8  2  0
 10  8  1  0
 11 12  1  6
 11 10  1  0
 12 13  1  0
 13 14  2  0
 15 16  1  0
 15 11  1  0
 17 13  1  0
 18 15  2  0
M  END
$$$$
