GAD.pdb
     RDKit          3D

 18 17  0  0  1  0  0  0  0  0999 V2000
   -3.7889  -27.3342   26.1238 N   0  0  0  0  0  0  0  0  0  0  0  0
   -4.0515  -26.0341   25.5390 C   0  0  0  0  0  0  0  0  0  0  0  0
   -3.5806  -24.9768   26.4680 C   0  0  0  0  0  0  0  0  0  0  0  0
   -3.1908  -25.2812   27.6409 O   0  0  0  0  0  0  0  0  0  0  0  0
   -3.0151  -21.2574   26.3735 C   0  0  0  0  0  0  0  0  0  0  0  0
   -3.1576  -22.5851   27.1041 C   0  0  2  0  0  0  0  0  0  0  0  0
   -3.5295  -23.5951   26.1348 N   0  0  0  0  0  0  0  0  0  0  0  0
   -4.1268  -22.4060   28.1832 C   0  0  0  0  0  0  0  0  0  0  0  0
   -3.7624  -21.7188   29.1763 O   0  0  0  0  0  0  0  0  0  0  0  0
   -5.4403  -22.9303   28.2234 N   0  0  0  0  0  0  0  0  0  0  0  0
   -6.3220  -22.6987   29.3647 C   0  0  1  0  0  0  0  0  0  0  0  0
   -7.5534  -21.9088   28.9420 C   0  0  0  0  0  0  0  0  0  0  0  0
   -8.4824  -21.7068   30.0785 C   0  0  0  0  0  0  0  0  0  0  0  0
   -8.0995  -21.0935   31.1034 O   0  0  0  0  0  0  0  0  0  0  0  0
   -6.8075  -23.9879   29.9214 C   0  0  0  0  0  0  0  0  0  0  0  0
   -7.4587  -24.0376   31.1431 O   0  0  0  0  0  0  0  0  0  0  0  0
   -9.7774  -22.1781   30.0496 O   0  0  0  0  0  0  0  0  0  0  0  0
   -6.6439  -25.0723   29.3049 O   0  0  0  0  0  0  0  0  0  0  0  0
  2  1  1  0
  3  2  1  0
  3  4  2  0
  6  5  1  6
  6  7  1  0
  7  3  1  0
  8  6  1  0
  9  8  2  0
 10  8  1  0
 11 12  1  6
 11 10  1  0
 12 13  1  0
 13 14  2  0
 15 16  1  0
 15 11  1  0
 17 13  1  0
 18 15  2  0
M  END
$$$$
