GAD.pdb
     RDKit          3D

 18 17  0  0  1  0  0  0  0  0999 V2000
    7.7978  -17.0247   16.3615 N   0  0  0  0  0  0  0  0  0  0  0  0
    7.0274  -16.3440   17.3835 C   0  0  0  0  0  0  0  0  0  0  0  0
    7.9064  -15.3878   18.1017 C   0  0  0  0  0  0  0  0  0  0  0  0
    9.1485  -15.3303   17.8294 O   0  0  0  0  0  0  0  0  0  0  0  0
    7.5269  -12.5923   20.5792 C   0  0  0  0  0  0  0  0  0  0  0  0
    8.3553  -13.6355   19.8427 C   0  0  2  0  0  0  0  0  0  0  0  0
    7.4490  -14.4959   19.1105 N   0  0  0  0  0  0  0  0  0  0  0  0
    9.1805  -14.3343   20.8259 C   0  0  0  0  0  0  0  0  0  0  0  0
   10.0831  -13.6656   21.3998 O   0  0  0  0  0  0  0  0  0  0  0  0
    9.0656  -15.6943   21.1991 N   0  0  0  0  0  0  0  0  0  0  0  0
    9.9985  -16.3112   22.1387 C   0  0  1  0  0  0  0  0  0  0  0  0
   11.3972  -15.7347   21.9652 C   0  0  0  0  0  0  0  0  0  0  0  0
   12.3500  -16.3275   22.9329 C   0  0  0  0  0  0  0  0  0  0  0  0
   12.0804  -17.4153   23.4962 O   0  0  0  0  0  0  0  0  0  0  0  0
    9.5895  -16.0350   23.5401 C   0  0  0  0  0  0  0  0  0  0  0  0
   10.2231  -16.6560   24.6040 O   0  0  0  0  0  0  0  0  0  0  0  0
   13.5450  -15.7144   23.2429 O   0  0  0  0  0  0  0  0  0  0  0  0
    8.6582  -15.2320   23.8061 O   0  0  0  0  0  0  0  0  0  0  0  0
  2  1  1  0
  3  2  1  0
  3  4  2  0
  6  5  1  1
  6  7  1  0
  7  3  1  0
  8  6  1  0
  9  8  2  0
 10  8  1  0
 11 12  1  6
 11 10  1  0
 12 13  1  0
 13 14  2  0
 15 16  1  0
 15 11  1  0
 17 13  1  0
 18 15  2  0
M  END
$$$$
