IGL.pdb
     RDKit          3D

 21 20  0  0  1  0  0  0  0  0999 V2000
    7.0934  -12.8448   18.2920 C   0  0  0  0  0  0  0  0  0  0  0  0
    7.9294  -13.9206   18.9021 C   0  0  0  0  0  0  0  0  0  0  0  0
    7.6384  -14.1868   20.3465 C   0  0  2  0  0  0  0  0  0  0  0  0
    7.8406  -12.9527   21.2053 C   0  0  0  0  0  0  0  0  0  0  0  0
    8.3540  -15.3892   20.8840 C   0  0  2  0  0  0  0  0  0  0  0  0
    8.1744  -16.5779   20.1099 N   0  0  0  0  0  0  0  0  0  0  0  0
    7.9829  -15.5849   22.3041 C   0  0  0  0  0  0  0  0  0  0  0  0
    8.2055  -14.6580   23.1211 O   0  0  0  0  0  0  0  0  0  0  0  0
    7.3802  -16.7897   22.7820 N   0  0  0  0  0  0  0  0  0  0  0  0
    7.1704  -16.9158   24.1848 C   0  0  0  0  0  0  0  0  0  0  0  0
    8.3702  -16.8678   25.0246 C   0  0  0  0  0  0  0  0  0  0  0  0
    9.5073  -17.0689   24.4695 O   0  0  0  0  0  0  0  0  0  0  0  0
   10.6314  -13.4029   27.6731 C   0  0  0  0  0  0  0  0  0  0  0  0
   10.3834  -14.4956   28.6556 C   0  0  1  0  0  0  0  0  0  0  0  0
   10.0720  -13.8181   29.9928 C   0  0  0  0  0  0  0  0  0  0  0  0
    9.4552  -15.5691   28.3228 C   0  0  0  0  0  0  0  0  0  0  0  0
    9.6865  -16.4515   27.1651 C   0  0  2  0  0  0  0  0  0  0  0  0
    8.4098  -16.6172   26.4160 N   0  0  0  0  0  0  0  0  0  0  0  0
   10.3235  -17.7467   27.3465 C   0  0  0  0  0  0  0  0  0  0  0  0
    9.8026  -18.8031   27.7220 O   0  0  0  0  0  0  0  0  0  0  0  0
   11.7047  -17.8453   27.0687 O   0  0  0  0  0  0  0  0  0  0  0  0
  1  2  1  0
  2  3  1  0
  3  5  1  0
  3  4  1  1
  5  6  1  6
  7  5  1  0
  7  9  1  0
  8  7  2  0
 10  9  1  0
 10 11  1  0
 11 18  1  0
 12 11  2  0
 14 13  1  6
 14 15  1  0
 16 14  1  0
 17 16  1  1
 18 17  1  0
 19 21  1  0
 19 17  1  0
 20 19  2  0
M  END
$$$$
