IGL.pdb
     RDKit          3D

 21 20  0  0  1  0  0  0  0  0999 V2000
    6.8623  -11.7783   19.7465 C   0  0  0  0  0  0  0  0  0  0  0  0
    7.2194  -13.2082   19.5098 C   0  0  0  0  0  0  0  0  0  0  0  0
    7.9609  -13.8562   20.6377 C   0  0  2  0  0  0  0  0  0  0  0  0
    9.2289  -13.1030   20.9931 C   0  0  0  0  0  0  0  0  0  0  0  0
    8.1979  -15.3213   20.4278 C   0  0  2  0  0  0  0  0  0  0  0  0
    7.0419  -16.0525   20.0113 N   0  0  0  0  0  0  0  0  0  0  0  0
    8.8150  -15.8962   21.6449 C   0  0  0  0  0  0  0  0  0  0  0  0
    8.1586  -16.7245   22.3227 O   0  0  0  0  0  0  0  0  0  0  0  0
   10.1307  -15.5447   22.0790 N   0  0  0  0  0  0  0  0  0  0  0  0
   10.7171  -16.3231   23.1173 C   0  0  0  0  0  0  0  0  0  0  0  0
   10.1093  -16.1931   24.4443 C   0  0  0  0  0  0  0  0  0  0  0  0
   10.7880  -16.5741   25.4620 O   0  0  0  0  0  0  0  0  0  0  0  0
    6.1301  -12.4216   25.7589 C   0  0  0  0  0  0  0  0  0  0  0  0
    7.3089  -13.3316   25.8129 C   0  0  1  0  0  0  0  0  0  0  0  0
    8.3633  -12.6298   26.6730 C   0  0  0  0  0  0  0  0  0  0  0  0
    7.1225  -14.7351   26.1597 C   0  0  0  0  0  0  0  0  0  0  0  0
    8.2398  -15.6945   26.1008 C   0  0  2  0  0  0  0  0  0  0  0  0
    8.8228  -15.6799   24.7301 N   0  0  0  0  0  0  0  0  0  0  0  0
    8.0505  -17.0679   26.5416 C   0  0  0  0  0  0  0  0  0  0  0  0
    7.7253  -18.0463   25.8596 O   0  0  0  0  0  0  0  0  0  0  0  0
    8.2552  -17.3540   27.9094 O   0  0  0  0  0  0  0  0  0  0  0  0
  1  2  1  0
  2  3  1  0
  3  5  1  0
  3  4  1  6
  5  6  1  1
  7  5  1  0
  7  9  1  0
  8  7  2  0
 10  9  1  0
 10 11  1  0
 11 18  1  0
 12 11  2  0
 14 13  1  1
 14 15  1  0
 16 14  1  0
 17 16  1  6
 18 17  1  0
 19 21  1  0
 19 17  1  0
 20 19  2  0
M  END
$$$$
