IGL.pdb
     RDKit          3D

 21 20  0  0  1  0  0  0  0  0999 V2000
    7.9747  -11.9342   19.0365 C   0  0  0  0  0  0  0  0  0  0  0  0
    7.6478  -13.3907   19.0384 C   0  0  0  0  0  0  0  0  0  0  0  0
    7.8803  -14.0758   20.3493 C   0  0  2  0  0  0  0  0  0  0  0  0
    9.3152  -13.9324   20.8204 C   0  0  0  0  0  0  0  0  0  0  0  0
    7.4044  -15.4970   20.3687 C   0  0  2  0  0  0  0  0  0  0  0  0
    6.1957  -15.7247   19.6395 N   0  0  0  0  0  0  0  0  0  0  0  0
    7.3075  -15.9613   21.7714 C   0  0  0  0  0  0  0  0  0  0  0  0
    6.3938  -15.5014   22.4993 O   0  0  0  0  0  0  0  0  0  0  0  0
    8.2146  -16.9142   22.3301 N   0  0  0  0  0  0  0  0  0  0  0  0
    8.0404  -17.2745   23.6967 C   0  0  0  0  0  0  0  0  0  0  0  0
    8.6241  -16.3634   24.6847 C   0  0  0  0  0  0  0  0  0  0  0  0
    9.8673  -16.0717   24.5806 O   0  0  0  0  0  0  0  0  0  0  0  0
    5.7872  -12.2879   26.9962 C   0  0  0  0  0  0  0  0  0  0  0  0
    6.8831  -13.1237   26.4294 C   0  0  1  0  0  0  0  0  0  0  0  0
    7.6885  -12.2143   25.4976 C   0  0  0  0  0  0  0  0  0  0  0  0
    7.7171  -13.9215   27.3197 C   0  0  0  0  0  0  0  0  0  0  0  0
    8.6484  -14.9357   26.7940 C   0  0  2  0  0  0  0  0  0  0  0  0
    7.9467  -15.7561   25.7677 N   0  0  0  0  0  0  0  0  0  0  0  0
    9.3772  -15.8041   27.7056 C   0  0  0  0  0  0  0  0  0  0  0  0
    9.2618  -17.0270   27.8446 O   0  0  0  0  0  0  0  0  0  0  0  0
   10.3422  -15.2109   28.5492 O   0  0  0  0  0  0  0  0  0  0  0  0
  1  2  1  0
  2  3  1  0
  3  5  1  0
  3  4  1  6
  5  6  1  1
  7  5  1  0
  7  9  1  0
  8  7  2  0
 10  9  1  0
 10 11  1  0
 11 18  1  0
 12 11  2  0
 14 13  1  1
 14 15  1  0
 16 14  1  0
 17 16  1  1
 18 17  1  0
 19 21  1  0
 19 17  1  0
 20 19  2  0
M  END
$$$$
