IGL.pdb
     RDKit          3D

 21 20  0  0  1  0  0  0  0  0999 V2000
    7.0876  -12.2663   18.7356 C   0  0  0  0  0  0  0  0  0  0  0  0
    6.7776  -13.4422   19.6012 C   0  0  0  0  0  0  0  0  0  0  0  0
    7.9550  -13.9901   20.3465 C   0  0  2  0  0  0  0  0  0  0  0  0
    9.0792  -14.3997   19.4138 C   0  0  0  0  0  0  0  0  0  0  0  0
    7.5905  -15.0685   21.3216 C   0  0  2  0  0  0  0  0  0  0  0  0
    6.3200  -14.8888   21.9526 N   0  0  0  0  0  0  0  0  0  0  0  0
    8.6858  -15.2293   22.3050 C   0  0  0  0  0  0  0  0  0  0  0  0
    8.9216  -14.2924   23.1068 O   0  0  0  0  0  0  0  0  0  0  0  0
    9.4863  -16.4112   22.3775 N   0  0  0  0  0  0  0  0  0  0  0  0
   10.5826  -16.4156   23.2863 C   0  0  0  0  0  0  0  0  0  0  0  0
   10.2927  -15.9670   24.6508 C   0  0  0  0  0  0  0  0  0  0  0  0
   11.2063  -15.3339   25.2879 O   0  0  0  0  0  0  0  0  0  0  0  0
    6.2820  -12.9789   26.5158 C   0  0  0  0  0  0  0  0  0  0  0  0
    7.5890  -13.6909   26.4404 C   0  0  1  0  0  0  0  0  0  0  0  0
    8.6471  -12.7183   26.9680 C   0  0  0  0  0  0  0  0  0  0  0  0
    7.7128  -15.0338   26.9936 C   0  0  0  0  0  0  0  0  0  0  0  0
    8.9372  -15.8318   26.8031 C   0  0  2  0  0  0  0  0  0  0  0  0
    9.0835  -16.1621   25.3579 N   0  0  0  0  0  0  0  0  0  0  0  0
    9.1689  -17.0220   27.6069 C   0  0  0  0  0  0  0  0  0  0  0  0
    9.0680  -18.2041   27.2598 O   0  0  0  0  0  0  0  0  0  0  0  0
    9.5580  -16.8416   28.9525 O   0  0  0  0  0  0  0  0  0  0  0  0
  1  2  1  0
  2  3  1  0
  3  5  1  0
  3  4  1  6
  5  6  1  1
  7  5  1  0
  7  9  1  0
  8  7  2  0
 10  9  1  0
 10 11  1  0
 11 18  1  0
 12 11  2  0
 14 13  1  1
 14 15  1  0
 16 14  1  0
 17 16  1  6
 18 17  1  0
 19 21  1  0
 19 17  1  0
 20 19  2  0
M  END
$$$$
