IGL.pdb
     RDKit          3D

 21 20  0  0  1  0  0  0  0  0999 V2000
    7.2486  -12.2092   18.2857 C   0  0  0  0  0  0  0  0  0  0  0  0
    8.4163  -13.0000   18.7750 C   0  0  0  0  0  0  0  0  0  0  0  0
    8.0740  -14.0459   19.7904 C   0  0  2  0  0  0  0  0  0  0  0  0
    7.3560  -13.4603   20.9916 C   0  0  0  0  0  0  0  0  0  0  0  0
    9.2415  -14.9033   20.1757 C   0  0  2  0  0  0  0  0  0  0  0  0
   10.0453  -15.3354   19.0749 N   0  0  0  0  0  0  0  0  0  0  0  0
    8.7646  -16.0377   20.9993 C   0  0  0  0  0  0  0  0  0  0  0  0
    9.0796  -17.2052   20.6618 O   0  0  0  0  0  0  0  0  0  0  0  0
    7.9583  -15.8554   22.1654 N   0  0  0  0  0  0  0  0  0  0  0  0
    8.0976  -16.7989   23.2229 C   0  0  0  0  0  0  0  0  0  0  0  0
    8.7241  -16.3044   24.4517 C   0  0  0  0  0  0  0  0  0  0  0  0
    9.9989  -16.3803   24.5554 O   0  0  0  0  0  0  0  0  0  0  0  0
    6.0566  -12.3817   27.2066 C   0  0  0  0  0  0  0  0  0  0  0  0
    7.0829  -13.2302   26.5376 C   0  0  1  0  0  0  0  0  0  0  0  0
    7.8758  -12.3062   25.6095 C   0  0  0  0  0  0  0  0  0  0  0  0
    7.9281  -14.1074   27.3382 C   0  0  0  0  0  0  0  0  0  0  0  0
    8.7860  -15.1282   26.7102 C   0  0  2  0  0  0  0  0  0  0  0  0
    8.0573  -15.7383   25.5632 N   0  0  0  0  0  0  0  0  0  0  0  0
    9.3948  -16.1726   27.5194 C   0  0  0  0  0  0  0  0  0  0  0  0
   10.2472  -16.0466   28.4058 O   0  0  0  0  0  0  0  0  0  0  0  0
    8.9850  -17.5047   27.2911 O   0  0  0  0  0  0  0  0  0  0  0  0
  1  2  1  0
  2  3  1  0
  3  5  1  0
  3  4  1  1
  5  6  1  6
  7  5  1  0
  7  9  1  0
  8  7  2  0
 10  9  1  0
 10 11  1  0
 11 18  1  0
 12 11  2  0
 14 13  1  1
 14 15  1  0
 16 14  1  0
 17 16  1  1
 18 17  1  0
 19 21  1  0
 19 17  1  0
 20 19  2  0
M  END
$$$$
