IGL.pdb
     RDKit          3D

 21 20  0  0  1  0  0  0  0  0999 V2000
    6.9517  -12.3078   18.5539 C   0  0  0  0  0  0  0  0  0  0  0  0
    6.7871  -13.5624   19.3459 C   0  0  0  0  0  0  0  0  0  0  0  0
    7.9624  -13.9106   20.2057 C   0  0  2  0  0  0  0  0  0  0  0  0
    9.2331  -14.0762   19.3938 C   0  0  0  0  0  0  0  0  0  0  0  0
    7.7055  -15.0696   21.1208 C   0  0  2  0  0  0  0  0  0  0  0  0
    6.3548  -15.1719   21.5788 N   0  0  0  0  0  0  0  0  0  0  0  0
    8.6744  -15.0334   22.2399 C   0  0  0  0  0  0  0  0  0  0  0  0
    8.5223  -14.1763   23.1447 O   0  0  0  0  0  0  0  0  0  0  0  0
    9.7778  -15.9373   22.3309 N   0  0  0  0  0  0  0  0  0  0  0  0
   10.7799  -15.6658   23.3056 C   0  0  0  0  0  0  0  0  0  0  0  0
   10.3489  -15.7109   24.7053 C   0  0  0  0  0  0  0  0  0  0  0  0
   11.2446  -15.6359   25.6183 O   0  0  0  0  0  0  0  0  0  0  0  0
    6.0836  -12.8697   26.2787 C   0  0  0  0  0  0  0  0  0  0  0  0
    7.3887  -13.5888   26.2935 C   0  0  1  0  0  0  0  0  0  0  0  0
    8.3947  -12.6539   26.9701 C   0  0  0  0  0  0  0  0  0  0  0  0
    7.4527  -14.9591   26.7864 C   0  0  0  0  0  0  0  0  0  0  0  0
    8.6649  -15.7799   26.6151 C   0  0  2  0  0  0  0  0  0  0  0  0
    9.0181  -15.8313   25.1689 N   0  0  0  0  0  0  0  0  0  0  0  0
    8.7323  -17.1158   27.1870 C   0  0  0  0  0  0  0  0  0  0  0  0
    8.7777  -17.4287   28.3821 O   0  0  0  0  0  0  0  0  0  0  0  0
    8.7495  -18.2123   26.2971 O   0  0  0  0  0  0  0  0  0  0  0  0
  1  2  1  0
  2  3  1  0
  3  5  1  0
  3  4  1  6
  5  6  1  1
  7  5  1  0
  7  9  1  0
  8  7  2  0
 10  9  1  0
 10 11  1  0
 11 18  1  0
 12 11  2  0
 14 13  1  1
 14 15  1  0
 16 14  1  0
 17 16  1  6
 18 17  1  0
 19 21  1  0
 19 17  1  0
 20 19  2  0
M  END
$$$$
