IGL.pdb
     RDKit          3D

 21 20  0  0  1  0  0  0  0  0999 V2000
    8.5242  -12.1477   27.2912 C   0  0  0  0  0  0  0  0  0  0  0  0
    8.1253  -13.5728   27.4867 C   0  0  0  0  0  0  0  0  0  0  0  0
    7.4986  -14.2107   26.2857 C   0  0  2  0  0  0  0  0  0  0  0  0
    6.3380  -13.3951   25.7479 C   0  0  0  0  0  0  0  0  0  0  0  0
    7.1443  -15.6518   26.4964 C   0  0  2  0  0  0  0  0  0  0  0  0
    8.1118  -16.3945   27.2427 N   0  0  0  0  0  0  0  0  0  0  0  0
    6.8456  -16.2783   25.1884 C   0  0  0  0  0  0  0  0  0  0  0  0
    5.9918  -15.7410   24.4409 O   0  0  0  0  0  0  0  0  0  0  0  0
    7.4921  -17.4726   24.7426 N   0  0  0  0  0  0  0  0  0  0  0  0
    7.2852  -17.8750   23.3924 C   0  0  0  0  0  0  0  0  0  0  0  0
    8.3928  -17.6241   22.4664 C   0  0  0  0  0  0  0  0  0  0  0  0
    9.4087  -18.4035   22.5108 O   0  0  0  0  0  0  0  0  0  0  0  0
    7.0387  -12.5672   21.2867 C   0  0  0  0  0  0  0  0  0  0  0  0
    7.6505  -13.9059   21.0538 C   0  0  1  0  0  0  0  0  0  0  0  0
    7.6151  -14.1450   19.5420 C   0  0  0  0  0  0  0  0  0  0  0  0
    8.9372  -14.2270   21.6587 C   0  0  0  0  0  0  0  0  0  0  0  0
    9.5427  -15.5625   21.5097 C   0  0  2  0  0  0  0  0  0  0  0  0
    8.4633  -16.5891   21.5052 N   0  0  0  0  0  0  0  0  0  0  0  0
   10.6187  -15.9823   22.3942 C   0  0  0  0  0  0  0  0  0  0  0  0
   10.5630  -16.1924   23.6111 O   0  0  0  0  0  0  0  0  0  0  0  0
   11.8961  -16.1838   21.8266 O   0  0  0  0  0  0  0  0  0  0  0  0
  1  2  1  0
  2  3  1  0
  3  5  1  0
  3  4  1  1
  5  6  1  6
  7  5  1  0
  7  9  1  0
  8  7  2  0
 10  9  1  0
 10 11  1  0
 11 18  1  0
 12 11  2  0
 14 13  1  6
 14 15  1  0
 16 14  1  0
 17 16  1  1
 18 17  1  0
 19 21  1  0
 19 17  1  0
 20 19  2  0
M  END
$$$$
