IGL.pdb
     RDKit          3D

 21 20  0  0  1  0  0  0  0  0999 V2000
    5.7257  -11.7131   26.7553 C   0  0  0  0  0  0  0  0  0  0  0  0
    5.5843  -12.9120   25.8773 C   0  0  0  0  0  0  0  0  0  0  0  0
    6.8758  -13.4319   25.3264 C   0  0  2  0  0  0  0  0  0  0  0  0
    7.6621  -12.3542   24.6042 C   0  0  0  0  0  0  0  0  0  0  0  0
    6.7132  -14.6765   24.5071 C   0  0  2  0  0  0  0  0  0  0  0  0
    5.9117  -15.6880   25.1229 N   0  0  0  0  0  0  0  0  0  0  0  0
    8.0487  -15.1823   24.1155 C   0  0  0  0  0  0  0  0  0  0  0  0
    8.8706  -14.3852   23.6004 O   0  0  0  0  0  0  0  0  0  0  0  0
    8.4394  -16.5446   24.3013 N   0  0  0  0  0  0  0  0  0  0  0  0
    9.7831  -16.8981   23.9894 C   0  0  0  0  0  0  0  0  0  0  0  0
   10.7034  -17.0050   25.1246 C   0  0  0  0  0  0  0  0  0  0  0  0
   11.9554  -17.1258   24.8810 O   0  0  0  0  0  0  0  0  0  0  0  0
    9.9431  -14.1344   29.5494 C   0  0  0  0  0  0  0  0  0  0  0  0
   10.4411  -14.9553   28.4098 C   0  0  1  0  0  0  0  0  0  0  0  0
   11.2859  -14.0235   27.5368 C   0  0  0  0  0  0  0  0  0  0  0  0
   11.0802  -16.2393   28.6696 C   0  0  0  0  0  0  0  0  0  0  0  0
   11.3462  -17.1976   27.5818 C   0  0  2  0  0  0  0  0  0  0  0  0
   10.3502  -16.9887   26.4941 N   0  0  0  0  0  0  0  0  0  0  0  0
   11.4706  -18.6180   27.8704 C   0  0  0  0  0  0  0  0  0  0  0  0
   10.7578  -19.5413   27.4610 O   0  0  0  0  0  0  0  0  0  0  0  0
   12.5234  -19.0273   28.7181 O   0  0  0  0  0  0  0  0  0  0  0  0
  1  2  1  0
  2  3  1  0
  3  5  1  0
  3  4  1  6
  5  6  1  1
  7  5  1  0
  7  9  1  0
  8  7  2  0
 10  9  1  0
 10 11  1  0
 11 18  1  0
 12 11  2  0
 14 13  1  1
 14 15  1  0
 16 14  1  0
 17 16  1  1
 18 17  1  0
 19 21  1  0
 19 17  1  0
 20 19  2  0
M  END
$$$$
