IGL.pdb
     RDKit          3D

 21 20  0  0  1  0  0  0  0  0999 V2000
    6.6877  -12.3415   21.0240 C   0  0  0  0  0  0  0  0  0  0  0  0
    7.0441  -13.7744   20.8045 C   0  0  0  0  0  0  0  0  0  0  0  0
    8.4176  -14.1489   21.2685 C   0  0  2  0  0  0  0  0  0  0  0  0
    9.4948  -13.3394   20.5716 C   0  0  0  0  0  0  0  0  0  0  0  0
    8.6791  -15.6240   21.2185 C   0  0  2  0  0  0  0  0  0  0  0  0
    7.5858  -16.4325   21.6608 N   0  0  0  0  0  0  0  0  0  0  0  0
    9.9297  -15.9242   21.9523 C   0  0  0  0  0  0  0  0  0  0  0  0
   10.9653  -15.2705   21.6760 O   0  0  0  0  0  0  0  0  0  0  0  0
   10.0042  -16.9306   22.9645 N   0  0  0  0  0  0  0  0  0  0  0  0
   11.2643  -17.1506   23.5903 C   0  0  0  0  0  0  0  0  0  0  0  0
   11.3128  -16.9349   25.0388 C   0  0  0  0  0  0  0  0  0  0  0  0
   12.4557  -16.9585   25.6175 O   0  0  0  0  0  0  0  0  0  0  0  0
    8.5464  -13.2268   27.3973 C   0  0  0  0  0  0  0  0  0  0  0  0
    9.6937  -14.1770   27.3582 C   0  0  1  0  0  0  0  0  0  0  0  0
   10.8962  -13.4341   27.9462 C   0  0  0  0  0  0  0  0  0  0  0  0
    9.5331  -15.5254   27.8880 C   0  0  0  0  0  0  0  0  0  0  0  0
   10.3308  -16.6523   27.3720 C   0  0  2  0  0  0  0  0  0  0  0  0
   10.2071  -16.6976   25.8882 N   0  0  0  0  0  0  0  0  0  0  0  0
   10.1552  -17.9874   27.9224 C   0  0  0  0  0  0  0  0  0  0  0  0
    9.6483  -18.9734   27.3758 O   0  0  0  0  0  0  0  0  0  0  0  0
   10.6078  -18.2206   29.2397 O   0  0  0  0  0  0  0  0  0  0  0  0
  1  2  1  0
  2  3  1  0
  3  5  1  0
  3  4  1  6
  5  6  1  1
  7  5  1  0
  7  9  1  0
  8  7  2  0
 10  9  1  0
 10 11  1  0
 11 18  1  0
 12 11  2  0
 14 13  1  1
 14 15  1  0
 16 14  1  0
 17 16  1  1
 18 17  1  0
 19 21  1  0
 19 17  1  0
 20 19  2  0
M  END
$$$$
