IGL.pdb
     RDKit          3D

 21 20  0  0  1  0  0  0  0  0999 V2000
    7.4542  -13.0661   16.9135 C   0  0  0  0  0  0  0  0  0  0  0  0
    8.4151  -13.8435   17.7505 C   0  0  0  0  0  0  0  0  0  0  0  0
    7.9647  -14.0715   19.1602 C   0  0  2  0  0  0  0  0  0  0  0  0
    7.7166  -12.7687   19.8968 C   0  0  0  0  0  0  0  0  0  0  0  0
    8.8532  -15.0071   19.9230 C   0  0  2  0  0  0  0  0  0  0  0  0
    9.1378  -16.2341   19.2462 N   0  0  0  0  0  0  0  0  0  0  0  0
    8.2847  -15.2310   21.2718 C   0  0  0  0  0  0  0  0  0  0  0  0
    8.1299  -14.2458   22.0345 O   0  0  0  0  0  0  0  0  0  0  0  0
    7.9046  -16.5268   21.7403 N   0  0  0  0  0  0  0  0  0  0  0  0
    7.3113  -16.6180   23.0316 C   0  0  0  0  0  0  0  0  0  0  0  0
    8.0777  -16.0375   24.1374 C   0  0  0  0  0  0  0  0  0  0  0  0
    9.3539  -15.9933   24.0331 O   0  0  0  0  0  0  0  0  0  0  0  0
    5.7607  -12.1067   27.0970 C   0  0  0  0  0  0  0  0  0  0  0  0
    6.7677  -12.9181   26.3564 C   0  0  1  0  0  0  0  0  0  0  0  0
    7.5449  -11.9439   25.4672 C   0  0  0  0  0  0  0  0  0  0  0  0
    7.6256  -13.8445   27.0848 C   0  0  0  0  0  0  0  0  0  0  0  0
    8.4031  -14.8821   26.3839 C   0  0  2  0  0  0  0  0  0  0  0  0
    7.5479  -15.5077   25.3369 N   0  0  0  0  0  0  0  0  0  0  0  0
    9.0935  -15.9160   27.1393 C   0  0  0  0  0  0  0  0  0  0  0  0
    9.9873  -15.7725   27.9812 O   0  0  0  0  0  0  0  0  0  0  0  0
    8.7222  -17.2588   26.9077 O   0  0  0  0  0  0  0  0  0  0  0  0
  1  2  1  0
  2  3  1  0
  3  5  1  0
  3  4  1  1
  5  6  1  6
  7  5  1  0
  7  9  1  0
  8  7  2  0
 10  9  1  0
 10 11  1  0
 11 18  1  0
 12 11  2  0
 14 13  1  1
 14 15  1  0
 16 14  1  0
 17 16  1  1
 18 17  1  0
 19 21  1  0
 19 17  1  0
 20 19  2  0
M  END
$$$$
