IGL.pdb
     RDKit          3D

 21 20  0  0  1  0  0  0  0  0999 V2000
    8.1219  -12.1373   18.9583 C   0  0  0  0  0  0  0  0  0  0  0  0
    7.8323  -13.1760   19.9906 C   0  0  0  0  0  0  0  0  0  0  0  0
    8.1842  -14.5722   19.5798 C   0  0  2  0  0  0  0  0  0  0  0  0
    7.5697  -14.9451   18.2439 C   0  0  0  0  0  0  0  0  0  0  0  0
    7.9128  -15.5904   20.6458 C   0  0  2  0  0  0  0  0  0  0  0  0
    6.5250  -15.8219   20.9012 N   0  0  0  0  0  0  0  0  0  0  0  0
    8.6538  -15.2225   21.8738 C   0  0  0  0  0  0  0  0  0  0  0  0
    8.0898  -14.4920   22.7250 O   0  0  0  0  0  0  0  0  0  0  0  0
    9.9881  -15.6670   22.1286 N   0  0  0  0  0  0  0  0  0  0  0  0
   10.6725  -15.1073   23.2449 C   0  0  0  0  0  0  0  0  0  0  0  0
   10.1236  -15.4262   24.5656 C   0  0  0  0  0  0  0  0  0  0  0  0
   10.9219  -15.8743   25.4620 O   0  0  0  0  0  0  0  0  0  0  0  0
    5.8845  -12.5201   26.5515 C   0  0  0  0  0  0  0  0  0  0  0  0
    7.1545  -13.2937   26.4543 C   0  0  1  0  0  0  0  0  0  0  0  0
    8.1744  -12.5714   27.3386 C   0  0  0  0  0  0  0  0  0  0  0  0
    7.1378  -14.7375   26.6540 C   0  0  0  0  0  0  0  0  0  0  0  0
    8.3204  -15.5662   26.3591 C   0  0  2  0  0  0  0  0  0  0  0  0
    8.7745  -15.2894   24.9677 N   0  0  0  0  0  0  0  0  0  0  0  0
    8.2852  -17.0021   26.5898 C   0  0  0  0  0  0  0  0  0  0  0  0
    8.0892  -17.8995   25.7626 O   0  0  0  0  0  0  0  0  0  0  0  0
    8.4969  -17.4620   27.9083 O   0  0  0  0  0  0  0  0  0  0  0  0
  1  2  1  0
  2  3  1  0
  3  5  1  0
  3  4  1  6
  5  6  1  1
  7  5  1  0
  7  9  1  0
  8  7  2  0
 10  9  1  0
 10 11  1  0
 11 18  1  0
 12 11  2  0
 14 13  1  1
 14 15  1  0
 16 14  1  0
 17 16  1  6
 18 17  1  0
 19 21  1  0
 19 17  1  0
 20 19  2  0
M  END
$$$$
