IGL.pdb
     RDKit          3D

 21 20  0  0  1  0  0  0  0  0999 V2000
    7.3998  -11.9143   19.4936 C   0  0  0  0  0  0  0  0  0  0  0  0
    7.2092  -13.3938   19.5501 C   0  0  0  0  0  0  0  0  0  0  0  0
    7.8532  -14.0566   20.7281 C   0  0  2  0  0  0  0  0  0  0  0  0
    9.3472  -13.7984   20.7808 C   0  0  0  0  0  0  0  0  0  0  0  0
    7.5129  -15.5112   20.8499 C   0  0  2  0  0  0  0  0  0  0  0  0
    6.1578  -15.8297   20.5230 N   0  0  0  0  0  0  0  0  0  0  0  0
    7.8904  -15.9907   22.1990 C   0  0  0  0  0  0  0  0  0  0  0  0
    7.0550  -15.8944   23.1312 O   0  0  0  0  0  0  0  0  0  0  0  0
    9.1707  -16.5597   22.4821 N   0  0  0  0  0  0  0  0  0  0  0  0
    9.4028  -17.0497   23.7989 C   0  0  0  0  0  0  0  0  0  0  0  0
    9.6644  -16.0396   24.8276 C   0  0  0  0  0  0  0  0  0  0  0  0
   10.8323  -15.5154   24.8796 O   0  0  0  0  0  0  0  0  0  0  0  0
    6.0408  -12.3230   26.7558 C   0  0  0  0  0  0  0  0  0  0  0  0
    7.2907  -13.0267   26.3519 C   0  0  1  0  0  0  0  0  0  0  0  0
    8.1844  -11.9796   25.6821 C   0  0  0  0  0  0  0  0  0  0  0  0
    7.9984  -13.8548   27.3205 C   0  0  0  0  0  0  0  0  0  0  0  0
    9.1485  -14.6866   26.9231 C   0  0  2  0  0  0  0  0  0  0  0  0
    8.7442  -15.5690   25.7931 N   0  0  0  0  0  0  0  0  0  0  0  0
    9.8716  -15.4615   27.9195 C   0  0  0  0  0  0  0  0  0  0  0  0
   10.6025  -15.0420   28.8240 O   0  0  0  0  0  0  0  0  0  0  0  0
    9.7457  -16.8676   27.8779 O   0  0  0  0  0  0  0  0  0  0  0  0
  1  2  1  0
  2  3  1  0
  3  5  1  0
  3  4  1  6
  5  6  1  1
  7  5  1  0
  7  9  1  0
  8  7  2  0
 10  9  1  0
 10 11  1  0
 11 18  1  0
 12 11  2  0
 14 13  1  1
 14 15  1  0
 16 14  1  0
 17 16  1  1
 18 17  1  0
 19 21  1  0
 19 17  1  0
 20 19  2  0
M  END
$$$$
