IGL.pdb
     RDKit          3D

 21 20  0  0  1  0  0  0  0  0999 V2000
    6.4520  -19.1792   25.3967 C   0  0  0  0  0  0  0  0  0  0  0  0
    7.0498  -19.2009   24.0290 C   0  0  0  0  0  0  0  0  0  0  0  0
    6.1103  -18.7951   22.9361 C   0  0  2  0  0  0  0  0  0  0  0  0
    4.9104  -19.7187   22.8440 C   0  0  0  0  0  0  0  0  0  0  0  0
    6.7887  -18.5946   21.6146 C   0  0  2  0  0  0  0  0  0  0  0  0
    7.3129  -19.7910   21.0327 N   0  0  0  0  0  0  0  0  0  0  0  0
    7.8192  -17.5398   21.7488 C   0  0  0  0  0  0  0  0  0  0  0  0
    9.0019  -17.8777   22.0008 O   0  0  0  0  0  0  0  0  0  0  0  0
    7.5200  -16.1498   21.6025 N   0  0  0  0  0  0  0  0  0  0  0  0
    8.5826  -15.2194   21.7841 C   0  0  0  0  0  0  0  0  0  0  0  0
    8.9641  -14.9367   23.1703 C   0  0  0  0  0  0  0  0  0  0  0  0
   10.0815  -14.3472   23.3835 O   0  0  0  0  0  0  0  0  0  0  0  0
    5.9183  -12.3998   26.6414 C   0  0  0  0  0  0  0  0  0  0  0  0
    7.1550  -12.9588   26.0259 C   0  0  1  0  0  0  0  0  0  0  0  0
    8.2140  -11.8554   26.0945 C   0  0  0  0  0  0  0  0  0  0  0  0
    7.6500  -14.2610   26.4548 C   0  0  0  0  0  0  0  0  0  0  0  0
    8.7045  -14.9659   25.7040 C   0  0  2  0  0  0  0  0  0  0  0  0
    8.2138  -15.2520   24.3270 N   0  0  0  0  0  0  0  0  0  0  0  0
    9.3310  -16.1547   26.2612 C   0  0  0  0  0  0  0  0  0  0  0  0
    9.2555  -17.3173   25.8479 O   0  0  0  0  0  0  0  0  0  0  0  0
   10.1301  -15.9978   27.4150 O   0  0  0  0  0  0  0  0  0  0  0  0
  1  2  1  0
  2  3  1  0
  3  5  1  0
  3  4  1  6
  5  6  1  1
  7  5  1  0
  7  9  1  0
  8  7  2  0
 10  9  1  0
 10 11  1  0
 11 18  1  0
 12 11  2  0
 14 13  1  1
 14 15  1  0
 16 14  1  0
 17 16  1  1
 18 17  1  0
 19 21  1  0
 19 17  1  0
 20 19  2  0
M  END
$$$$
