IGL.pdb
     RDKit          3D

 21 20  0  0  1  0  0  0  0  0999 V2000
    8.0485  -11.9027   18.8629 C   0  0  0  0  0  0  0  0  0  0  0  0
    7.8823  -13.3840   18.7816 C   0  0  0  0  0  0  0  0  0  0  0  0
    7.9785  -14.0911   20.0979 C   0  0  2  0  0  0  0  0  0  0  0  0
    9.3102  -13.8442   20.7812 C   0  0  0  0  0  0  0  0  0  0  0  0
    7.6315  -15.5469   20.0161 C   0  0  2  0  0  0  0  0  0  0  0  0
    6.5096  -15.8402   19.1794 N   0  0  0  0  0  0  0  0  0  0  0  0
    7.4653  -16.0878   21.3844 C   0  0  0  0  0  0  0  0  0  0  0  0
    6.4107  -15.8277   22.0140 O   0  0  0  0  0  0  0  0  0  0  0  0
    8.4600  -16.8956   22.0177 N   0  0  0  0  0  0  0  0  0  0  0  0
    8.2397  -17.2807   23.3708 C   0  0  0  0  0  0  0  0  0  0  0  0
    8.7057  -16.3412   24.3941 C   0  0  0  0  0  0  0  0  0  0  0  0
    9.8689  -15.8222   24.2561 O   0  0  0  0  0  0  0  0  0  0  0  0
    5.9301  -12.2426   26.4832 C   0  0  0  0  0  0  0  0  0  0  0  0
    7.0594  -13.1231   26.0708 C   0  0  1  0  0  0  0  0  0  0  0  0
    8.1059  -12.2150   25.4196 C   0  0  0  0  0  0  0  0  0  0  0  0
    7.6277  -14.0646   27.0275 C   0  0  0  0  0  0  0  0  0  0  0  0
    8.6019  -15.0887   26.6096 C   0  0  2  0  0  0  0  0  0  0  0  0
    7.9927  -15.9354   25.5462 N   0  0  0  0  0  0  0  0  0  0  0  0
    9.2490  -15.9330   27.6019 C   0  0  0  0  0  0  0  0  0  0  0  0
    9.0138  -17.1189   27.8594 O   0  0  0  0  0  0  0  0  0  0  0  0
   10.2758  -15.3601   28.3842 O   0  0  0  0  0  0  0  0  0  0  0  0
  1  2  1  0
  2  3  1  0
  3  5  1  0
  3  4  1  6
  5  6  1  6
  7  5  1  0
  7  9  1  0
  8  7  2  0
 10  9  1  0
 10 11  1  0
 11 18  1  0
 12 11  2  0
 14 13  1  1
 14 15  1  0
 16 14  1  0
 17 16  1  1
 18 17  1  0
 19 21  1  0
 19 17  1  0
 20 19  2  0
M  END
$$$$
