IGL.pdb
     RDKit          3D

 21 20  0  0  1  0  0  0  0  0999 V2000
    6.9536  -11.7741   19.4932 C   0  0  0  0  0  0  0  0  0  0  0  0
    6.9670  -13.2615   19.6190 C   0  0  0  0  0  0  0  0  0  0  0  0
    8.2611  -13.8294   20.1137 C   0  0  2  0  0  0  0  0  0  0  0  0
    9.4364  -13.4009   19.2555 C   0  0  0  0  0  0  0  0  0  0  0  0
    8.2139  -15.3116   20.3314 C   0  0  2  0  0  0  0  0  0  0  0  0
    7.0051  -15.7815   20.9338 N   0  0  0  0  0  0  0  0  0  0  0  0
    9.4158  -15.7338   21.0861 C   0  0  0  0  0  0  0  0  0  0  0  0
   10.5448  -15.3582   20.6855 O   0  0  0  0  0  0  0  0  0  0  0  0
    9.3410  -16.5533   22.2548 N   0  0  0  0  0  0  0  0  0  0  0  0
   10.4545  -16.5467   23.1425 C   0  0  0  0  0  0  0  0  0  0  0  0
   10.1737  -16.1627   24.5285 C   0  0  0  0  0  0  0  0  0  0  0  0
   11.1652  -15.9310   25.3062 O   0  0  0  0  0  0  0  0  0  0  0  0
    5.9457  -13.0385   26.1281 C   0  0  0  0  0  0  0  0  0  0  0  0
    7.2866  -13.6884   26.1090 C   0  0  1  0  0  0  0  0  0  0  0  0
    8.2932  -12.6260   26.5583 C   0  0  0  0  0  0  0  0  0  0  0  0
    7.4746  -14.9759   26.7662 C   0  0  0  0  0  0  0  0  0  0  0  0
    8.7044  -15.7644   26.5706 C   0  0  2  0  0  0  0  0  0  0  0  0
    8.8950  -16.0167   25.1150 N   0  0  0  0  0  0  0  0  0  0  0  0
    8.9114  -16.9964   27.3159 C   0  0  0  0  0  0  0  0  0  0  0  0
    8.7526  -18.1576   26.9226 O   0  0  0  0  0  0  0  0  0  0  0  0
    9.3470  -16.8899   28.6551 O   0  0  0  0  0  0  0  0  0  0  0  0
  1  2  1  0
  2  3  1  0
  3  5  1  0
  3  4  1  6
  5  6  1  1
  7  5  1  0
  7  9  1  0
  8  7  2  0
 10  9  1  0
 10 11  1  0
 11 18  1  0
 12 11  2  0
 14 13  1  1
 14 15  1  0
 16 14  1  0
 17 16  1  6
 18 17  1  0
 19 21  1  0
 19 17  1  0
 20 19  2  0
M  END
$$$$
