IGL.pdb
     RDKit          3D

 21 20  0  0  1  0  0  0  0  0999 V2000
    6.0219  -22.5774   24.4483 C   0  0  0  0  0  0  0  0  0  0  0  0
    6.3662  -21.9933   23.1184 C   0  0  0  0  0  0  0  0  0  0  0  0
    6.7399  -20.5439   23.1567 C   0  0  2  0  0  0  0  0  0  0  0  0
    5.5470  -19.6556   23.4553 C   0  0  0  0  0  0  0  0  0  0  0  0
    7.5061  -20.0967   21.9485 C   0  0  2  0  0  0  0  0  0  0  0  0
    8.4887  -21.0306   21.4936 N   0  0  0  0  0  0  0  0  0  0  0  0
    8.0832  -18.7572   22.2035 C   0  0  0  0  0  0  0  0  0  0  0  0
    9.1637  -18.6744   22.8376 O   0  0  0  0  0  0  0  0  0  0  0  0
    7.4576  -17.5527   21.7554 N   0  0  0  0  0  0  0  0  0  0  0  0
    8.1716  -16.3320   21.9225 C   0  0  0  0  0  0  0  0  0  0  0  0
    8.0997  -15.7179   23.2510 C   0  0  0  0  0  0  0  0  0  0  0  0
    7.1797  -16.1106   24.0515 O   0  0  0  0  0  0  0  0  0  0  0  0
    7.8237  -11.7293   27.1053 C   0  0  0  0  0  0  0  0  0  0  0  0
    7.0256  -12.7466   26.3646 C   0  0  1  0  0  0  0  0  0  0  0  0
    5.6130  -12.1739   26.2215 C   0  0  0  0  0  0  0  0  0  0  0  0
    7.5471  -13.3120   25.1264 C   0  0  0  0  0  0  0  0  0  0  0  0
    8.7816  -14.1170   25.1111 C   0  0  2  0  0  0  0  0  0  0  0  0
    8.9573  -14.7139   23.7577 N   0  0  0  0  0  0  0  0  0  0  0  0
    9.0086  -15.1301   26.1301 C   0  0  0  0  0  0  0  0  0  0  0  0
    9.4511  -14.9714   27.2734 O   0  0  0  0  0  0  0  0  0  0  0  0
    8.6960  -16.4691   25.8077 O   0  0  0  0  0  0  0  0  0  0  0  0
  1  2  1  0
  2  3  1  0
  3  5  1  0
  3  4  1  6
  5  6  1  1
  7  5  1  0
  7  9  1  0
  8  7  2  0
 10  9  1  0
 10 11  1  0
 11 18  1  0
 12 11  2  0
 14 13  1  6
 14 15  1  0
 16 14  1  0
 17 16  1  6
 18 17  1  0
 19 21  1  0
 19 17  1  0
 20 19  2  0
M  END
$$$$
