AGY.pdb
     RDKit          3D

 22 22  0  0  1  0  0  0  0  0999 V2000
   28.4158  -22.8432  -19.5974 C   0  0  0  0  0  0  0  0  0  0  0  0
   28.6934  -22.9383  -18.1212 C   0  0  2  0  0  0  0  0  0  0  0  0
   28.4881  -24.3147  -17.7120 N   0  0  0  0  0  0  0  0  0  0  0  0
   27.7075  -22.0544  -17.4065 C   0  0  0  0  0  0  0  0  0  0  0  0
   27.7404  -20.8075  -17.5627 O   0  0  0  0  0  0  0  0  0  0  0  0
   26.7246  -22.6000  -16.5460 N   0  0  0  0  0  0  0  0  0  0  0  0
   25.7924  -21.7433  -15.8216 C   0  0  0  0  0  0  0  0  0  0  0  0
   25.9132  -22.0406  -14.3683 C   0  0  0  0  0  0  0  0  0  0  0  0
   26.1694  -23.2080  -13.9623 O   0  0  0  0  0  0  0  0  0  0  0  0
   28.1343  -20.3643   -6.0288 O   0  0  0  0  0  0  0  0  0  0  0  0
   27.8626  -20.3449   -7.4102 C   0  0  0  0  0  0  0  0  0  0  0  0
   28.6602  -21.0547   -8.2914 C   0  0  0  0  0  0  0  0  0  0  0  0
   28.4102  -21.0510   -9.6692 C   0  0  0  0  0  0  0  0  0  0  0  0
   27.3446  -20.3211  -10.1433 C   0  0  0  0  0  0  0  0  0  0  0  0
   27.0687  -20.3058  -11.5930 C   0  0  0  0  0  0  0  0  0  0  0  0
   25.9504  -21.2366  -12.0067 C   0  0  2  0  0  0  0  0  0  0  0  0
   25.7386  -21.0007  -13.4252 N   0  0  0  0  0  0  0  0  0  0  0  0
   24.6875  -20.9960  -11.3103 C   0  0  0  0  0  0  0  0  0  0  0  0
   23.8658  -20.1765  -11.7816 O   0  0  0  0  0  0  0  0  0  0  0  0
   26.5647  -19.6229   -9.2504 C   0  0  0  0  0  0  0  0  0  0  0  0
   26.8063  -19.6225   -7.8886 C   0  0  0  0  0  0  0  0  0  0  0  0
   24.3568  -21.6448  -10.1352 O   0  0  0  0  0  0  0  0  0  0  0  0
  2  1  1  6
  2  4  1  0
  2  3  1  0
  4  6  1  0
  5  4  2  0
  6  7  1  0
  7  8  1  0
  8 17  1  0
  9  8  2  0
 10 11  1  0
 11 12  2  0
 11 21  1  0
 12 13  1  0
 13 14  2  0
 14 15  1  0
 16 15  1  1
 16 18  1  0
 17 16  1  0
 18 19  2  0
 18 22  1  0
 20 14  1  0
 21 20  2  0
M  END
$$$$
