AGY.pdb
     RDKit          3D

 22 22  0  0  1  0  0  0  0  0999 V2000
   16.8918  -14.3326  -17.9148 C   0  0  0  0  0  0  0  0  0  0  0  0
   18.0891  -13.8929  -17.1156 C   0  0  2  0  0  0  0  0  0  0  0  0
   17.8007  -14.1170  -15.7118 N   0  0  0  0  0  0  0  0  0  0  0  0
   18.2895  -12.4207  -17.3535 C   0  0  0  0  0  0  0  0  0  0  0  0
   18.7604  -12.0103  -18.4444 O   0  0  0  0  0  0  0  0  0  0  0  0
   17.9556  -11.4666  -16.3623 N   0  0  0  0  0  0  0  0  0  0  0  0
   18.1607  -10.0397  -16.5848 C   0  0  0  0  0  0  0  0  0  0  0  0
   18.9707   -9.5001  -15.4588 C   0  0  0  0  0  0  0  0  0  0  0  0
   18.7194   -9.8218  -14.2643 O   0  0  0  0  0  0  0  0  0  0  0  0
   23.6632  -13.8061  -15.6066 O   0  0  0  0  0  0  0  0  0  0  0  0
   23.3262  -12.4459  -15.4696 C   0  0  0  0  0  0  0  0  0  0  0  0
   22.9273  -11.7083  -16.5709 C   0  0  0  0  0  0  0  0  0  0  0  0
   22.5871  -10.3544  -16.4600 C   0  0  0  0  0  0  0  0  0  0  0  0
   22.6558   -9.7574  -15.2223 C   0  0  0  0  0  0  0  0  0  0  0  0
   22.3019   -8.3309  -15.0889 C   0  0  0  0  0  0  0  0  0  0  0  0
   20.8719   -8.0996  -14.6535 C   0  0  2  0  0  0  0  0  0  0  0  0
   20.0392   -8.6130  -15.7284 N   0  0  0  0  0  0  0  0  0  0  0  0
   20.5332   -6.6924  -14.4459 C   0  0  0  0  0  0  0  0  0  0  0  0
   19.9000   -6.0701  -15.3294 O   0  0  0  0  0  0  0  0  0  0  0  0
   23.0547  -10.5086  -14.1408 C   0  0  0  0  0  0  0  0  0  0  0  0
   23.3919  -11.8461  -14.2438 C   0  0  0  0  0  0  0  0  0  0  0  0
   20.8879   -6.0090  -13.2978 O   0  0  0  0  0  0  0  0  0  0  0  0
  2  1  1  6
  2  4  1  0
  2  3  1  0
  4  6  1  0
  5  4  2  0
  6  7  1  0
  7  8  1  0
  8 17  1  0
  9  8  2  0
 10 11  1  0
 11 12  2  0
 11 21  1  0
 12 13  1  0
 13 14  2  0
 14 15  1  0
 16 15  1  6
 16 18  1  0
 17 16  1  0
 18 19  2  0
 18 22  1  0
 20 14  1  0
 21 20  2  0
M  END
$$$$
