AGY.pdb
     RDKit          3D

 22 22  0  0  1  0  0  0  0  0999 V2000
   21.5895  -19.8669  -13.9620 C   0  0  0  0  0  0  0  0  0  0  0  0
   22.8369  -19.9359  -14.8014 C   0  0  2  0  0  0  0  0  0  0  0  0
   22.5521  -20.7540  -15.9650 N   0  0  0  0  0  0  0  0  0  0  0  0
   23.9117  -20.5954  -13.9806 C   0  0  0  0  0  0  0  0  0  0  0  0
   23.6470  -21.6016  -13.2751 O   0  0  0  0  0  0  0  0  0  0  0  0
   25.2393  -20.1036  -13.9815 N   0  0  0  0  0  0  0  0  0  0  0  0
   26.3826  -21.0093  -13.9691 C   0  0  0  0  0  0  0  0  0  0  0  0
   26.7634  -21.2661  -12.5534 C   0  0  0  0  0  0  0  0  0  0  0  0
   27.7238  -22.0338  -12.2673 O   0  0  0  0  0  0  0  0  0  0  0  0
   28.8802  -20.0735   -4.2674 O   0  0  0  0  0  0  0  0  0  0  0  0
   28.5178  -20.0279   -5.6272 C   0  0  0  0  0  0  0  0  0  0  0  0
   27.5271  -19.1632   -6.0598 C   0  0  0  0  0  0  0  0  0  0  0  0
   27.1492  -19.0996   -7.4067 C   0  0  0  0  0  0  0  0  0  0  0  0
   27.7855  -19.9208   -8.3087 C   0  0  0  0  0  0  0  0  0  0  0  0
   27.3977  -19.8667   -9.7317 C   0  0  0  0  0  0  0  0  0  0  0  0
   26.3643  -20.9016  -10.1177 C   0  0  2  0  0  0  0  0  0  0  0  0
   26.0398  -20.6417  -11.5105 N   0  0  0  0  0  0  0  0  0  0  0  0
   25.1286  -20.8278   -9.3396 C   0  0  0  0  0  0  0  0  0  0  0  0
   24.1552  -20.1755   -9.7821 O   0  0  0  0  0  0  0  0  0  0  0  0
   28.7673  -20.7727   -7.8577 C   0  0  0  0  0  0  0  0  0  0  0  0
   29.1451  -20.8403   -6.5289 C   0  0  0  0  0  0  0  0  0  0  0  0
   24.9869  -21.4573   -8.1170 O   0  0  0  0  0  0  0  0  0  0  0  0
  2  1  1  1
  2  4  1  0
  2  3  1  0
  4  6  1  0
  5  4  2  0
  6  7  1  0
  7  8  1  0
  8 17  1  0
  9  8  2  0
 10 11  1  0
 11 12  2  0
 11 21  1  0
 12 13  1  0
 13 14  2  0
 14 15  1  0
 16 15  1  1
 16 18  1  0
 17 16  1  0
 18 19  2  0
 18 22  1  0
 20 14  1  0
 21 20  2  0
M  END
$$$$
