AGY.pdb
     RDKit          3D

 22 22  0  0  1  0  0  0  0  0999 V2000
   23.9948   -4.6392  -21.6246 C   0  0  0  0  0  0  0  0  0  0  0  0
   23.6407   -3.9938  -20.3119 C   0  0  2  0  0  0  0  0  0  0  0  0
   22.4790   -3.1512  -20.5230 N   0  0  0  0  0  0  0  0  0  0  0  0
   24.8042   -3.1396  -19.8869 C   0  0  0  0  0  0  0  0  0  0  0  0
   25.9073   -3.6664  -19.5936 O   0  0  0  0  0  0  0  0  0  0  0  0
   24.6879   -1.7309  -19.8070 N   0  0  0  0  0  0  0  0  0  0  0  0
   25.8081   -0.9016  -19.3770 C   0  0  0  0  0  0  0  0  0  0  0  0
   25.2672    0.3749  -18.8355 C   0  0  0  0  0  0  0  0  0  0  0  0
   25.5336    1.4794  -19.3855 O   0  0  0  0  0  0  0  0  0  0  0  0
   17.8533   -0.5738  -18.3731 O   0  0  0  0  0  0  0  0  0  0  0  0
   19.1017    0.0771  -18.3569 C   0  0  0  0  0  0  0  0  0  0  0  0
   20.1431   -0.3846  -19.1435 C   0  0  0  0  0  0  0  0  0  0  0  0
   21.3936    0.2455  -19.1446 C   0  0  0  0  0  0  0  0  0  0  0  0
   21.5766    1.3471  -18.3408 C   0  0  0  0  0  0  0  0  0  0  0  0
   22.8892    2.0217  -18.3297 C   0  0  0  0  0  0  0  0  0  0  0  0
   23.7960    1.5642  -17.2088 C   0  0  2  0  0  0  0  0  0  0  0  0
   24.4418    0.3529  -17.6868 N   0  0  0  0  0  0  0  0  0  0  0  0
   23.0932    1.2471  -15.9665 C   0  0  0  0  0  0  0  0  0  0  0  0
   22.6025    2.1715  -15.2783 O   0  0  0  0  0  0  0  0  0  0  0  0
   20.5286    1.7895  -17.5670 C   0  0  0  0  0  0  0  0  0  0  0  0
   19.2912    1.1716  -17.5614 C   0  0  0  0  0  0  0  0  0  0  0  0
   22.9450   -0.0501  -15.5120 O   0  0  0  0  0  0  0  0  0  0  0  0
  2  1  1  6
  2  4  1  0
  2  3  1  0
  4  6  1  0
  5  4  2  0
  6  7  1  0
  7  8  1  0
  8 17  1  0
  9  8  2  0
 10 11  1  0
 11 12  2  0
 11 21  1  0
 12 13  1  0
 13 14  2  0
 14 15  1  0
 16 15  1  6
 16 18  1  0
 17 16  1  0
 18 19  2  0
 18 22  1  0
 20 14  1  0
 21 20  2  0
M  END
$$$$
