AGY.pdb
     RDKit          3D

 22 22  0  0  1  0  0  0  0  0999 V2000
   26.9647  -30.5974  -19.4326 C   0  0  0  0  0  0  0  0  0  0  0  0
   25.9948  -31.7435  -19.3268 C   0  0  2  0  0  0  0  0  0  0  0  0
   25.3229  -31.8844  -20.6045 N   0  0  0  0  0  0  0  0  0  0  0  0
   24.9830  -31.3978  -18.2680 C   0  0  0  0  0  0  0  0  0  0  0  0
   24.0238  -30.6290  -18.5308 O   0  0  0  0  0  0  0  0  0  0  0  0
   25.0843  -31.9255  -16.9582 N   0  0  0  0  0  0  0  0  0  0  0  0
   24.1033  -31.5950  -15.9305 C   0  0  0  0  0  0  0  0  0  0  0  0
   24.5299  -32.2280  -14.6528 C   0  0  0  0  0  0  0  0  0  0  0  0
   25.5486  -32.9718  -14.6038 O   0  0  0  0  0  0  0  0  0  0  0  0
   24.7052  -33.5409   -5.8816 O   0  0  0  0  0  0  0  0  0  0  0  0
   24.4507  -33.0752   -7.1857 C   0  0  0  0  0  0  0  0  0  0  0  0
   23.2691  -33.4022   -7.8285 C   0  0  0  0  0  0  0  0  0  0  0  0
   22.9931  -32.9512   -9.1252 C   0  0  0  0  0  0  0  0  0  0  0  0
   23.9266  -32.1664   -9.7621 C   0  0  0  0  0  0  0  0  0  0  0  0
   23.6513  -31.6842  -11.1295 C   0  0  0  0  0  0  0  0  0  0  0  0
   24.1721  -32.6031  -12.2123 C   0  0  2  0  0  0  0  0  0  0  0  0
   23.7840  -31.9941  -13.4737 N   0  0  0  0  0  0  0  0  0  0  0  0
   23.6136  -33.9536  -12.1663 C   0  0  0  0  0  0  0  0  0  0  0  0
   24.2830  -34.8846  -11.6623 O   0  0  0  0  0  0  0  0  0  0  0  0
   25.0943  -31.8532   -9.1053 C   0  0  0  0  0  0  0  0  0  0  0  0
   25.3728  -32.2954   -7.8247 C   0  0  0  0  0  0  0  0  0  0  0  0
   22.3583  -34.2510  -12.6633 O   0  0  0  0  0  0  0  0  0  0  0  0
  2  1  1  6
  2  4  1  0
  2  3  1  0
  4  6  1  0
  5  4  2  0
  6  7  1  0
  7  8  1  0
  8 17  1  0
  9  8  2  0
 10 11  1  0
 11 12  2  0
 11 21  1  0
 12 13  1  0
 13 14  2  0
 14 15  1  0
 16 15  1  1
 16 18  1  0
 17 16  1  0
 18 19  2  0
 18 22  1  0
 20 14  1  0
 21 20  2  0
M  END
$$$$
