AGY.pdb
     RDKit          3D

 22 22  0  0  1  0  0  0  0  0999 V2000
   16.9273  -13.8285  -16.7946 C   0  0  0  0  0  0  0  0  0  0  0  0
   18.3416  -13.3938  -17.0708 C   0  0  2  0  0  0  0  0  0  0  0  0
   19.1759  -13.8534  -15.9768 N   0  0  0  0  0  0  0  0  0  0  0  0
   18.3636  -11.8900  -17.1154 C   0  0  0  0  0  0  0  0  0  0  0  0
   17.2896  -11.2368  -17.1039 O   0  0  0  0  0  0  0  0  0  0  0  0
   19.5853  -11.1769  -17.1712 N   0  0  0  0  0  0  0  0  0  0  0  0
   19.6092   -9.7228  -17.2848 C   0  0  0  0  0  0  0  0  0  0  0  0
   19.7200   -9.1462  -15.9172 C   0  0  0  0  0  0  0  0  0  0  0  0
   19.1907   -9.7196  -14.9249 O   0  0  0  0  0  0  0  0  0  0  0  0
   25.8050   -5.2473  -17.5743 O   0  0  0  0  0  0  0  0  0  0  0  0
   24.8871   -5.8597  -16.6997 C   0  0  0  0  0  0  0  0  0  0  0  0
   24.5835   -7.2038  -16.8312 C   0  0  0  0  0  0  0  0  0  0  0  0
   23.6741   -7.8353  -15.9739 C   0  0  0  0  0  0  0  0  0  0  0  0
   23.0768   -7.0904  -14.9832 C   0  0  0  0  0  0  0  0  0  0  0  0
   22.1150   -7.7409  -14.0722 C   0  0  0  0  0  0  0  0  0  0  0  0
   20.6706   -7.4203  -14.3868 C   0  0  2  0  0  0  0  0  0  0  0  0
   20.4287   -7.9373  -15.7234 N   0  0  0  0  0  0  0  0  0  0  0  0
   20.3650   -5.9904  -14.3880 C   0  0  0  0  0  0  0  0  0  0  0  0
   20.1452   -5.4043  -15.4729 O   0  0  0  0  0  0  0  0  0  0  0  0
   23.3926   -5.7562  -14.8699 C   0  0  0  0  0  0  0  0  0  0  0  0
   24.2899   -5.1266  -15.7134 C   0  0  0  0  0  0  0  0  0  0  0  0
   20.3076   -5.2464  -13.2244 O   0  0  0  0  0  0  0  0  0  0  0  0
  2  1  1  1
  2  4  1  0
  2  3  1  0
  4  6  1  0
  5  4  2  0
  6  7  1  0
  7  8  1  0
  8 17  1  0
  9  8  2  0
 10 11  1  0
 11 12  2  0
 11 21  1  0
 12 13  1  0
 13 14  2  0
 14 15  1  0
 16 15  1  6
 16 18  1  0
 17 16  1  0
 18 19  2  0
 18 22  1  0
 20 14  1  0
 21 20  2  0
M  END
$$$$
