AGY.pdb
     RDKit          3D

 22 22  0  0  1  0  0  0  0  0999 V2000
   20.1998  -13.0605  -20.6329 C   0  0  0  0  0  0  0  0  0  0  0  0
   21.2413  -13.9665  -20.0333 C   0  0  2  0  0  0  0  0  0  0  0  0
   20.5608  -14.9711  -19.2384 N   0  0  0  0  0  0  0  0  0  0  0  0
   22.1192  -13.1346  -19.1382 C   0  0  0  0  0  0  0  0  0  0  0  0
   22.9943  -12.3776  -19.6296 O   0  0  0  0  0  0  0  0  0  0  0  0
   21.9835  -13.1823  -17.7298 N   0  0  0  0  0  0  0  0  0  0  0  0
   22.9487  -12.5284  -16.8532 C   0  0  0  0  0  0  0  0  0  0  0  0
   22.3416  -11.2694  -16.3418 C   0  0  0  0  0  0  0  0  0  0  0  0
   21.1313  -11.2289  -15.9855 O   0  0  0  0  0  0  0  0  0  0  0  0
   22.1397   -2.7899  -13.7083 O   0  0  0  0  0  0  0  0  0  0  0  0
   22.5190   -4.0900  -14.0935 C   0  0  0  0  0  0  0  0  0  0  0  0
   23.3168   -4.2862  -15.2076 C   0  0  0  0  0  0  0  0  0  0  0  0
   23.7071   -5.5692  -15.6106 C   0  0  0  0  0  0  0  0  0  0  0  0
   23.2804   -6.6494  -14.8730 C   0  0  0  0  0  0  0  0  0  0  0  0
   23.6820   -8.0084  -15.2855 C   0  0  0  0  0  0  0  0  0  0  0  0
   22.5441   -8.8327  -15.8453 C   0  0  2  0  0  0  0  0  0  0  0  0
   23.1307  -10.0986  -16.2527 N   0  0  0  0  0  0  0  0  0  0  0  0
   21.8932   -8.2351  -17.0103 C   0  0  0  0  0  0  0  0  0  0  0  0
   22.4528   -8.2904  -18.1296 O   0  0  0  0  0  0  0  0  0  0  0  0
   22.4882   -6.4323  -13.7694 C   0  0  0  0  0  0  0  0  0  0  0  0
   22.0992   -5.1677  -13.3661 C   0  0  0  0  0  0  0  0  0  0  0  0
   20.6672   -7.6018  -16.9275 O   0  0  0  0  0  0  0  0  0  0  0  0
  2  1  1  1
  2  4  1  0
  2  3  1  0
  4  6  1  0
  5  4  2  0
  6  7  1  0
  7  8  1  0
  8 17  1  0
  9  8  2  0
 10 11  1  0
 11 12  2  0
 11 21  1  0
 12 13  1  0
 13 14  2  0
 14 15  1  0
 16 15  1  6
 16 18  1  0
 17 16  1  0
 18 19  2  0
 18 22  1  0
 20 14  1  0
 21 20  2  0
M  END
$$$$
