AGY.pdb
     RDKit          3D

 22 22  0  0  1  0  0  0  0  0999 V2000
   25.3455  -17.3899  -18.4061 C   0  0  0  0  0  0  0  0  0  0  0  0
   26.0951  -18.4301  -17.6178 C   0  0  2  0  0  0  0  0  0  0  0  0
   26.8739  -19.2255  -18.5478 N   0  0  0  0  0  0  0  0  0  0  0  0
   25.0845  -19.3110  -16.9347 C   0  0  0  0  0  0  0  0  0  0  0  0
   24.4562  -20.1832  -17.5864 O   0  0  0  0  0  0  0  0  0  0  0  0
   24.8169  -19.1814  -15.5505 N   0  0  0  0  0  0  0  0  0  0  0  0
   23.8168  -20.0138  -14.8912 C   0  0  0  0  0  0  0  0  0  0  0  0
   22.5295  -19.2674  -14.8618 C   0  0  0  0  0  0  0  0  0  0  0  0
   22.4677  -18.0955  -14.3967 O   0  0  0  0  0  0  0  0  0  0  0  0
   22.7543  -14.8530  -19.3070 O   0  0  0  0  0  0  0  0  0  0  0  0
   21.9985  -15.8659  -18.6864 C   0  0  0  0  0  0  0  0  0  0  0  0
   22.4389  -17.1782  -18.7017 C   0  0  0  0  0  0  0  0  0  0  0  0
   21.7049  -18.2029  -18.0916 C   0  0  0  0  0  0  0  0  0  0  0  0
   20.5215  -17.8832  -17.4667 C   0  0  0  0  0  0  0  0  0  0  0  0
   19.7356  -18.9520  -16.8202 C   0  0  0  0  0  0  0  0  0  0  0  0
   20.0879  -19.1674  -15.3651 C   0  0  2  0  0  0  0  0  0  0  0  0
   21.3556  -19.8782  -15.3620 N   0  0  0  0  0  0  0  0  0  0  0  0
   19.1124  -19.9703  -14.6291 C   0  0  0  0  0  0  0  0  0  0  0  0
   17.9618  -19.5178  -14.4285 O   0  0  0  0  0  0  0  0  0  0  0  0
   20.1021  -16.5729  -17.4631 C   0  0  0  0  0  0  0  0  0  0  0  0
   20.8223  -15.5563  -18.0638 C   0  0  0  0  0  0  0  0  0  0  0  0
   19.4110  -21.2274  -14.1375 O   0  0  0  0  0  0  0  0  0  0  0  0
  2  1  1  6
  2  4  1  0
  2  3  1  0
  4  6  1  0
  5  4  2  0
  6  7  1  0
  7  8  1  0
  8 17  1  0
  9  8  2  0
 10 11  1  0
 11 12  2  0
 11 21  1  0
 12 13  1  0
 13 14  2  0
 14 15  1  0
 16 15  1  6
 16 18  1  0
 17 16  1  0
 18 19  2  0
 18 22  1  0
 20 14  1  0
 21 20  2  0
M  END
$$$$
