AGY.pdb
     RDKit          3D

 22 22  0  0  1  0  0  0  0  0999 V2000
   24.7687  -17.3122  -18.4047 C   0  0  0  0  0  0  0  0  0  0  0  0
   24.4324  -18.6083  -17.7174 C   0  0  2  0  0  0  0  0  0  0  0  0
   23.7882  -18.2953  -16.4559 N   0  0  0  0  0  0  0  0  0  0  0  0
   25.7205  -19.3388  -17.4504 C   0  0  0  0  0  0  0  0  0  0  0  0
   26.3207  -19.9324  -18.3819 O   0  0  0  0  0  0  0  0  0  0  0  0
   26.2857  -19.3764  -16.1530 N   0  0  0  0  0  0  0  0  0  0  0  0
   27.0803  -20.5148  -15.7056 C   0  0  0  0  0  0  0  0  0  0  0  0
   26.4220  -21.1062  -14.5089 C   0  0  0  0  0  0  0  0  0  0  0  0
   26.8610  -22.1662  -13.9824 O   0  0  0  0  0  0  0  0  0  0  0  0
   29.6423  -21.4097   -8.6483 O   0  0  0  0  0  0  0  0  0  0  0  0
   28.4999  -21.0483   -9.3877 C   0  0  0  0  0  0  0  0  0  0  0  0
   28.5981  -20.7776  -10.7417 C   0  0  0  0  0  0  0  0  0  0  0  0
   27.4765  -20.4162  -11.4983 C   0  0  0  0  0  0  0  0  0  0  0  0
   26.2562  -20.3325  -10.8683 C   0  0  0  0  0  0  0  0  0  0  0  0
   25.0648  -19.9515  -11.6515 C   0  0  0  0  0  0  0  0  0  0  0  0
   24.6925  -20.9588  -12.7167 C   0  0  2  0  0  0  0  0  0  0  0  0
   25.2867  -20.4729  -13.9509 N   0  0  0  0  0  0  0  0  0  0  0  0
   23.2523  -21.0978  -12.9271 C   0  0  0  0  0  0  0  0  0  0  0  0
   22.5216  -21.4781  -11.9835 O   0  0  0  0  0  0  0  0  0  0  0  0
   26.1807  -20.6057   -9.5220 C   0  0  0  0  0  0  0  0  0  0  0  0
   27.2846  -20.9631   -8.7691 C   0  0  0  0  0  0  0  0  0  0  0  0
   22.6535  -20.8229  -14.1424 O   0  0  0  0  0  0  0  0  0  0  0  0
  2  1  1  1
  2  4  1  0
  2  3  1  0
  4  6  1  0
  5  4  2  0
  6  7  1  0
  7  8  1  0
  8 17  1  0
  9  8  2  0
 10 11  1  0
 11 12  2  0
 11 21  1  0
 12 13  1  0
 13 14  2  0
 14 15  1  0
 16 15  1  1
 16 18  1  0
 17 16  1  0
 18 19  2  0
 18 22  1  0
 20 14  1  0
 21 20  2  0
M  END
$$$$
