SRE.pdb
     RDKit          3D

 27 26  0  0  1  0  0  0  0  0999 V2000
   20.0267  -20.8781   -9.5058 O   0  0  0  0  0  0  0  0  0  0  0  0
   21.0636  -21.8055   -9.5984 C   0  0  0  0  0  0  0  0  0  0  0  0
   22.4159  -21.2060   -9.2739 C   0  0  2  0  0  0  0  0  0  0  0  0
   22.2544  -20.3198   -8.1462 N   0  0  0  0  0  0  0  0  0  0  0  0
   22.9130  -20.5220  -10.4768 C   0  0  0  0  0  0  0  0  0  0  0  0
   22.8728  -19.2434  -10.5624 O   0  0  0  0  0  0  0  0  0  0  0  0
   28.1758  -18.6758  -15.0987 N   0  0  0  0  0  0  0  0  0  0  0  0
   28.1819  -19.6103  -16.1814 C   0  0  0  0  0  0  0  0  0  0  0  0
   28.6487  -19.2503  -17.3200 N   0  0  0  0  0  0  0  0  0  0  0  0
   27.6799  -20.9194  -15.9954 N   0  0  0  0  0  0  0  0  0  0  0  0
   27.1477  -21.3635  -14.7273 C   0  0  0  0  0  0  0  0  0  0  0  0
   25.9169  -20.5511  -14.3769 C   0  0  0  0  0  0  0  0  0  0  0  0
   25.2606  -21.1897  -13.1898 C   0  0  0  0  0  0  0  0  0  0  0  0
   24.0363  -20.4415  -12.7284 C   0  0  2  0  0  0  0  0  0  0  0  0
   23.4601  -21.1912  -11.6021 N   0  0  0  0  0  0  0  0  0  0  0  0
   23.0678  -20.4650  -13.8641 C   0  0  0  0  0  0  0  0  0  0  0  0
   22.5447  -21.5705  -14.1459 O   0  0  0  0  0  0  0  0  0  0  0  0
   28.6616  -19.8717  -18.1507 N   0  0  0  0  0  0  0  0  0  0  0  0
   22.7258  -19.3159  -14.6127 C   0  0  2  0  0  0  0  0  0  0  0  0
   21.6290  -19.4796  -15.5926 C   0  0  0  0  0  0  0  0  0  0  0  0
   21.1367  -18.0821  -15.9113 C   0  0  0  0  0  0  0  0  0  0  0  0
   21.6683  -17.6154  -17.2313 C   0  0  0  0  0  0  0  0  0  0  0  0
   21.4516  -16.1396  -17.3747 O   0  0  0  0  0  0  0  0  0  0  0  0
   21.8365  -15.4976  -18.3593 C   0  0  0  0  0  0  0  0  0  0  0  0
   22.1213  -20.2327  -16.7523 O   0  0  0  0  0  0  0  0  0  0  0  0
   21.3249  -20.9125  -17.6421 O   0  0  0  0  0  0  0  0  0  0  0  0
   20.7846  -15.4785  -16.3347 O   0  0  0  0  0  0  0  0  0  0  0  0
  2  1  1  0
  3  4  1  1
  3  2  1  0
  5  3  1  0
  6  5  2  0
  7  8  1  0
  8 10  1  0
  9  8  2  0
 10 11  1  0
 12 11  1  0
 13 12  1  0
 14 13  1  6
 14 15  1  0
 15  5  1  0
 16 14  1  0
 16 17  2  0
 18 16  1  0
 19 18  1  0
 19 20  1  1
 20 21  1  0
 21 22  1  0
 22 26  1  0
 22 23  2  0
 24 19  1  0
 25 24  1  0
 27 24  2  0
M  END
$$$$
