SRE.pdb
     RDKit          3D

 27 26  0  0  1  0  0  0  0  0999 V2000
   16.5242  -23.3699  -14.2450 O   0  0  0  0  0  0  0  0  0  0  0  0
   16.6095  -23.7546  -12.9077 C   0  0  0  0  0  0  0  0  0  0  0  0
   18.0395  -23.8912  -12.4279 C   0  0  2  0  0  0  0  0  0  0  0  0
   18.0108  -24.2527  -11.0309 N   0  0  0  0  0  0  0  0  0  0  0  0
   18.7291  -22.6170  -12.6787 C   0  0  0  0  0  0  0  0  0  0  0  0
   18.5010  -21.5961  -11.9374 O   0  0  0  0  0  0  0  0  0  0  0  0
   26.4172  -22.4718  -15.5693 N   0  0  0  0  0  0  0  0  0  0  0  0
   25.3254  -23.2617  -15.0903 C   0  0  0  0  0  0  0  0  0  0  0  0
   25.4012  -24.5403  -15.1486 N   0  0  0  0  0  0  0  0  0  0  0  0
   24.1748  -22.6368  -14.5554 N   0  0  0  0  0  0  0  0  0  0  0  0
   24.0836  -21.2031  -14.3989 C   0  0  0  0  0  0  0  0  0  0  0  0
   22.7821  -20.8462  -13.7086 C   0  0  0  0  0  0  0  0  0  0  0  0
   21.6528  -21.3493  -14.5566 C   0  0  0  0  0  0  0  0  0  0  0  0
   20.3024  -21.1044  -13.9335 C   0  0  2  0  0  0  0  0  0  0  0  0
   19.6711  -22.4153  -13.7205 N   0  0  0  0  0  0  0  0  0  0  0  0
   19.5001  -20.3444  -14.9371 C   0  0  0  0  0  0  0  0  0  0  0  0
   18.7968  -21.0144  -15.7318 O   0  0  0  0  0  0  0  0  0  0  0  0
   24.6764  -25.1707  -14.7566 N   0  0  0  0  0  0  0  0  0  0  0  0
   19.5023  -18.9334  -15.0206 C   0  0  1  0  0  0  0  0  0  0  0  0
   18.4931  -18.3329  -15.9211 C   0  0  0  0  0  0  0  0  0  0  0  0
   17.1428  -18.6415  -15.3060 C   0  0  0  0  0  0  0  0  0  0  0  0
   16.2064  -19.2091  -16.3278 C   0  0  0  0  0  0  0  0  0  0  0  0
   14.8694  -19.4708  -15.7037 O   0  0  0  0  0  0  0  0  0  0  0  0
   14.6192  -19.2122  -14.5204 C   0  0  0  0  0  0  0  0  0  0  0  0
   18.7769  -16.9020  -16.0842 O   0  0  0  0  0  0  0  0  0  0  0  0
   18.2049  -16.0921  -17.0355 O   0  0  0  0  0  0  0  0  0  0  0  0
   13.8758  -20.0365  -16.5139 O   0  0  0  0  0  0  0  0  0  0  0  0
  2  1  1  0
  3  4  1  1
  3  2  1  0
  5  3  1  0
  6  5  2  0
  7  8  1  0
  8 10  1  0
  9  8  2  0
 10 11  1  0
 12 11  1  0
 13 12  1  0
 14 13  1  6
 14 15  1  0
 15  5  1  0
 16 14  1  0
 16 17  2  0
 18 16  1  0
 19 18  1  0
 19 20  1  6
 20 21  1  0
 21 22  1  0
 22 26  1  0
 22 23  2  0
 24 19  1  0
 25 24  1  0
 27 24  2  0
M  END
$$$$
