SRE.pdb
     RDKit          3D

 27 26  0  0  1  0  0  0  0  0999 V2000
   21.4992  -24.6479  -16.7698 O   0  0  0  0  0  0  0  0  0  0  0  0
   21.6846  -23.2851  -16.5416 C   0  0  0  0  0  0  0  0  0  0  0  0
   21.5837  -22.9179  -15.0758 C   0  0  2  0  0  0  0  0  0  0  0  0
   20.2076  -23.0726  -14.6687 N   0  0  0  0  0  0  0  0  0  0  0  0
   22.0807  -21.5436  -14.9139 C   0  0  0  0  0  0  0  0  0  0  0  0
   21.6591  -20.8076  -13.9525 O   0  0  0  0  0  0  0  0  0  0  0  0
   26.7824  -19.7071  -10.0625 N   0  0  0  0  0  0  0  0  0  0  0  0
   26.0316  -20.8281  -10.5369 C   0  0  0  0  0  0  0  0  0  0  0  0
   25.3659  -21.5377   -9.7020 N   0  0  0  0  0  0  0  0  0  0  0  0
   26.0227  -21.1479  -11.9146 N   0  0  0  0  0  0  0  0  0  0  0  0
   26.8691  -20.4646  -12.8659 C   0  0  0  0  0  0  0  0  0  0  0  0
   26.0126  -19.6921  -13.8494 C   0  0  0  0  0  0  0  0  0  0  0  0
   24.9070  -20.5933  -14.3112 C   0  0  0  0  0  0  0  0  0  0  0  0
   23.9667  -19.9154  -15.2745 C   0  0  2  0  0  0  0  0  0  0  0  0
   23.0339  -20.9374  -15.7726 N   0  0  0  0  0  0  0  0  0  0  0  0
   24.7992  -19.4310  -16.4150 C   0  0  0  0  0  0  0  0  0  0  0  0
   25.4727  -20.2893  -17.0355 O   0  0  0  0  0  0  0  0  0  0  0  0
   24.8423  -22.3915   -9.9729 N   0  0  0  0  0  0  0  0  0  0  0  0
   24.8530  -18.0757  -16.8123 C   0  0  2  0  0  0  0  0  0  0  0  0
   25.2848  -17.8219  -18.2048 C   0  0  0  0  0  0  0  0  0  0  0  0
   24.5613  -16.5660  -18.6480 C   0  0  0  0  0  0  0  0  0  0  0  0
   24.9663  -16.1767  -20.0362 C   0  0  0  0  0  0  0  0  0  0  0  0
   24.3380  -14.8662  -20.4015 O   0  0  0  0  0  0  0  0  0  0  0  0
   23.6386  -14.2155  -19.6160 C   0  0  0  0  0  0  0  0  0  0  0  0
   26.7491  -17.7315  -18.2512 O   0  0  0  0  0  0  0  0  0  0  0  0
   27.5213  -18.0580  -19.3399 O   0  0  0  0  0  0  0  0  0  0  0  0
   24.5636  -14.3778  -21.6954 O   0  0  0  0  0  0  0  0  0  0  0  0
  2  1  1  0
  3  4  1  6
  3  2  1  0
  5  3  1  0
  6  5  2  0
  7  8  1  0
  8 10  1  0
  9  8  2  0
 10 11  1  0
 12 11  1  0
 13 12  1  0
 14 13  1  1
 14 15  1  0
 15  5  1  0
 16 14  1  0
 16 17  2  0
 18 16  1  0
 19 18  1  0
 19 20  1  6
 20 21  1  0
 21 22  1  0
 22 26  1  0
 22 23  2  0
 24 19  1  0
 25 24  1  0
 27 24  2  0
M  END
$$$$
