SRE.pdb
     RDKit          3D

 27 26  0  0  1  0  0  0  0  0999 V2000
   23.9815   -9.7224  -14.4331 O   0  0  0  0  0  0  0  0  0  0  0  0
   22.7413   -9.2404  -14.8494 C   0  0  0  0  0  0  0  0  0  0  0  0
   21.8553  -10.3248  -15.4263 C   0  0  2  0  0  0  0  0  0  0  0  0
   22.3822  -10.6939  -16.7183 N   0  0  0  0  0  0  0  0  0  0  0  0
   20.4814   -9.8052  -15.4919 C   0  0  0  0  0  0  0  0  0  0  0  0
   20.0470   -9.2461  -16.5608 O   0  0  0  0  0  0  0  0  0  0  0  0
   12.9681  -12.5553  -11.9395 N   0  0  0  0  0  0  0  0  0  0  0  0
   12.6083  -11.3966  -12.6966 C   0  0  0  0  0  0  0  0  0  0  0  0
   11.3688  -11.1277  -12.8838 N   0  0  0  0  0  0  0  0  0  0  0  0
   13.6117  -10.5549  -13.2308 N   0  0  0  0  0  0  0  0  0  0  0  0
   15.0189  -10.8239  -13.0417 C   0  0  0  0  0  0  0  0  0  0  0  0
   15.8409   -9.8170  -13.8215 C   0  0  0  0  0  0  0  0  0  0  0  0
   17.2830  -10.2136  -13.7175 C   0  0  0  0  0  0  0  0  0  0  0  0
   18.1867   -9.3515  -14.5611 C   0  0  2  0  0  0  0  0  0  0  0  0
   19.5532   -9.8765  -14.4210 N   0  0  0  0  0  0  0  0  0  0  0  0
   18.1387   -7.9797  -13.9742 C   0  0  0  0  0  0  0  0  0  0  0  0
   18.6707   -7.8211  -12.8486 O   0  0  0  0  0  0  0  0  0  0  0  0
   11.0401  -10.2683  -13.3631 N   0  0  0  0  0  0  0  0  0  0  0  0
   17.5332   -6.8809  -14.6251 C   0  0  2  0  0  0  0  0  0  0  0  0
   17.5036   -5.6104  -13.8668 C   0  0  0  0  0  0  0  0  0  0  0  0
   18.5075   -4.6952  -14.5390 C   0  0  0  0  0  0  0  0  0  0  0  0
   17.9689   -4.1689  -15.8335 C   0  0  0  0  0  0  0  0  0  0  0  0
   18.9818   -3.2737  -16.4802 O   0  0  0  0  0  0  0  0  0  0  0  0
   20.0761   -3.0163  -15.9645 C   0  0  0  0  0  0  0  0  0  0  0  0
   16.1302   -5.0933  -13.8375 O   0  0  0  0  0  0  0  0  0  0  0  0
   15.7055   -4.0377  -13.0670 O   0  0  0  0  0  0  0  0  0  0  0  0
   18.6521   -2.7124  -17.7211 O   0  0  0  0  0  0  0  0  0  0  0  0
  2  1  1  0
  3  4  1  6
  3  2  1  0
  5  3  1  0
  6  5  2  0
  7  8  1  0
  8 10  1  0
  9  8  2  0
 10 11  1  0
 12 11  1  0
 13 12  1  0
 14 13  1  1
 14 15  1  0
 15  5  1  0
 16 14  1  0
 16 17  2  0
 18 16  1  0
 19 18  1  0
 19 20  1  6
 20 21  1  0
 21 22  1  0
 22 26  1  0
 22 23  2  0
 24 19  1  0
 25 24  1  0
 27 24  2  0
M  END
$$$$
