SRE.pdb
     RDKit          3D

 27 26  0  0  1  0  0  0  0  0999 V2000
   25.2933  -24.8791  -18.2751 O   0  0  0  0  0  0  0  0  0  0  0  0
   25.7749  -24.1457  -17.1916 C   0  0  0  0  0  0  0  0  0  0  0  0
   25.2941  -24.6839  -15.8602 C   0  0  2  0  0  0  0  0  0  0  0  0
   24.2962  -25.6940  -16.1191 N   0  0  0  0  0  0  0  0  0  0  0  0
   24.7794  -23.5555  -15.0703 C   0  0  0  0  0  0  0  0  0  0  0  0
   23.5222  -23.3069  -15.0323 O   0  0  0  0  0  0  0  0  0  0  0  0
   24.8182  -19.3509   -8.5812 N   0  0  0  0  0  0  0  0  0  0  0  0
   25.2370  -20.6155   -8.0609 C   0  0  0  0  0  0  0  0  0  0  0  0
   24.8043  -20.9991   -6.9166 N   0  0  0  0  0  0  0  0  0  0  0  0
   26.1183  -21.4350   -8.8040 N   0  0  0  0  0  0  0  0  0  0  0  0
   26.5536  -21.0823  -10.1361 C   0  0  0  0  0  0  0  0  0  0  0  0
   25.4641  -21.4174  -11.1353 C   0  0  0  0  0  0  0  0  0  0  0  0
   25.9934  -21.1413  -12.5105 C   0  0  0  0  0  0  0  0  0  0  0  0
   25.0232  -21.5288  -13.5969 C   0  0  2  0  0  0  0  0  0  0  0  0
   25.5971  -22.6796  -14.3103 N   0  0  0  0  0  0  0  0  0  0  0  0
   24.9495  -20.3715  -14.5369 C   0  0  0  0  0  0  0  0  0  0  0  0
   25.8089  -20.3219  -15.4502 O   0  0  0  0  0  0  0  0  0  0  0  0
   25.0746  -21.9007   -6.4802 N   0  0  0  0  0  0  0  0  0  0  0  0
   23.9704  -19.3569  -14.4391 C   0  0  2  0  0  0  0  0  0  0  0  0
   23.4203  -18.8572  -15.7188 C   0  0  0  0  0  0  0  0  0  0  0  0
   22.9283  -20.0776  -16.4709 C   0  0  0  0  0  0  0  0  0  0  0  0
   23.5128  -20.1287  -17.8488 C   0  0  0  0  0  0  0  0  0  0  0  0
   22.7725  -21.1327  -18.6793 O   0  0  0  0  0  0  0  0  0  0  0  0
   21.7927  -20.8371  -19.3736 C   0  0  0  0  0  0  0  0  0  0  0  0
   22.3869  -17.8516  -15.4444 O   0  0  0  0  0  0  0  0  0  0  0  0
   22.3613  -16.5865  -15.9802 O   0  0  0  0  0  0  0  0  0  0  0  0
   23.2258  -22.4583  -18.6499 O   0  0  0  0  0  0  0  0  0  0  0  0
  2  1  1  0
  3  4  1  6
  3  2  1  0
  5  3  1  0
  6  5  2  0
  7  8  1  0
  8 10  1  0
  9  8  2  0
 10 11  1  0
 12 11  1  0
 13 12  1  0
 14 13  1  1
 14 15  1  0
 15  5  1  0
 16 14  1  0
 16 17  2  0
 18 16  1  0
 19 18  1  0
 19 20  1  6
 20 21  1  0
 21 22  1  0
 22 26  1  0
 22 23  2  0
 24 19  1  0
 25 24  1  0
 27 24  2  0
M  END
$$$$
