SRE.pdb
     RDKit          3D

 27 26  0  0  1  0  0  0  0  0999 V2000
   23.0777  -21.0029   -8.2100 O   0  0  0  0  0  0  0  0  0  0  0  0
   23.3468  -20.4802   -9.4741 C   0  0  0  0  0  0  0  0  0  0  0  0
   24.6869  -20.9275  -10.0196 C   0  0  2  0  0  0  0  0  0  0  0  0
   25.7220  -20.3358   -9.2062 N   0  0  0  0  0  0  0  0  0  0  0  0
   24.7631  -20.5241  -11.4315 C   0  0  0  0  0  0  0  0  0  0  0  0
   25.2837  -19.3994  -11.7602 O   0  0  0  0  0  0  0  0  0  0  0  0
   27.9948  -21.7133  -18.0176 N   0  0  0  0  0  0  0  0  0  0  0  0
   28.1735  -22.7225  -17.0201 C   0  0  0  0  0  0  0  0  0  0  0  0
   29.3603  -23.0859  -16.6988 N   0  0  0  0  0  0  0  0  0  0  0  0
   27.0506  -23.3112  -16.3932 N   0  0  0  0  0  0  0  0  0  0  0  0
   25.6984  -23.0189  -16.8108 C   0  0  0  0  0  0  0  0  0  0  0  0
   25.2149  -21.7545  -16.1286 C   0  0  0  0  0  0  0  0  0  0  0  0
   24.9885  -22.0654  -14.6796 C   0  0  0  0  0  0  0  0  0  0  0  0
   24.4639  -20.8836  -13.9051 C   0  0  2  0  0  0  0  0  0  0  0  0
   24.2877  -21.3140  -12.5101 N   0  0  0  0  0  0  0  0  0  0  0  0
   23.1246  -20.5576  -14.4781 C   0  0  0  0  0  0  0  0  0  0  0  0
   22.1799  -21.3359  -14.2006 O   0  0  0  0  0  0  0  0  0  0  0  0
   29.5577  -23.8609  -16.0380 N   0  0  0  0  0  0  0  0  0  0  0  0
   22.8879  -19.4315  -15.2989 C   0  0  2  0  0  0  0  0  0  0  0  0
   21.4812  -19.1988  -15.6952 C   0  0  0  0  0  0  0  0  0  0  0  0
   21.4366  -17.8062  -16.2917 C   0  0  0  0  0  0  0  0  0  0  0  0
   20.0607  -17.4787  -16.7843 C   0  0  0  0  0  0  0  0  0  0  0  0
   20.0829  -16.1802  -17.5319 O   0  0  0  0  0  0  0  0  0  0  0  0
   21.1242  -15.6748  -17.9676 C   0  0  0  0  0  0  0  0  0  0  0  0
   21.0491  -20.2666  -16.6049 O   0  0  0  0  0  0  0  0  0  0  0  0
   19.7757  -20.7794  -16.6641 O   0  0  0  0  0  0  0  0  0  0  0  0
   18.8597  -15.5265  -17.7315 O   0  0  0  0  0  0  0  0  0  0  0  0
  2  1  1  0
  3  4  1  1
  3  2  1  0
  5  3  1  0
  6  5  2  0
  7  8  1  0
  8 10  1  0
  9  8  2  0
 10 11  1  0
 12 11  1  0
 13 12  1  0
 14 13  1  6
 14 15  1  0
 15  5  1  0
 16 14  1  0
 16 17  2  0
 18 16  1  0
 19 18  1  0
 19 20  1  1
 20 21  1  0
 21 22  1  0
 22 26  1  0
 22 23  2  0
 24 19  1  0
 25 24  1  0
 27 24  2  0
M  END
$$$$
