SRE.pdb
     RDKit          3D

 27 26  0  0  1  0  0  0  0  0999 V2000
   12.9392   -5.6902   -6.4341 O   0  0  0  0  0  0  0  0  0  0  0  0
   13.9920   -6.4411   -6.9551 C   0  0  0  0  0  0  0  0  0  0  0  0
   13.5188   -7.6453   -7.7424 C   0  0  2  0  0  0  0  0  0  0  0  0
   13.0515   -8.6383   -6.8049 N   0  0  0  0  0  0  0  0  0  0  0  0
   14.6377   -8.1177   -8.5711 C   0  0  0  0  0  0  0  0  0  0  0  0
   15.6312   -8.7277   -8.0376 O   0  0  0  0  0  0  0  0  0  0  0  0
   16.8487  -13.3543  -13.4045 N   0  0  0  0  0  0  0  0  0  0  0  0
   15.5516  -13.0108  -13.8992 C   0  0  0  0  0  0  0  0  0  0  0  0
   14.9395  -13.8252  -14.6776 N   0  0  0  0  0  0  0  0  0  0  0  0
   14.9502  -11.7849  -13.5302 N   0  0  0  0  0  0  0  0  0  0  0  0
   15.4508  -10.5132  -13.9998 C   0  0  0  0  0  0  0  0  0  0  0  0
   16.1945   -9.8120  -12.8805 C   0  0  0  0  0  0  0  0  0  0  0  0
   15.1854   -9.3317  -11.8811 C   0  0  0  0  0  0  0  0  0  0  0  0
   15.8072   -8.5386  -10.7604 C   0  0  2  0  0  0  0  0  0  0  0  0
   14.7113   -7.9477   -9.9779 N   0  0  0  0  0  0  0  0  0  0  0  0
   16.5877   -7.4373  -11.3980 C   0  0  0  0  0  0  0  0  0  0  0  0
   15.9355   -6.4761  -11.8734 O   0  0  0  0  0  0  0  0  0  0  0  0
   13.9927  -13.6420  -15.0603 N   0  0  0  0  0  0  0  0  0  0  0  0
   17.9986   -7.4372  -11.4813 C   0  0  2  0  0  0  0  0  0  0  0  0
   18.6134   -6.2508  -12.1172 C   0  0  0  0  0  0  0  0  0  0  0  0
   20.1087   -6.3913  -11.9141 C   0  0  0  0  0  0  0  0  0  0  0  0
   20.8513   -5.3135  -12.6420 C   0  0  0  0  0  0  0  0  0  0  0  0
   22.3262   -5.4853  -12.4398 O   0  0  0  0  0  0  0  0  0  0  0  0
   22.8172   -5.8596  -11.3681 C   0  0  0  0  0  0  0  0  0  0  0  0
   18.1921   -6.1784  -13.5214 O   0  0  0  0  0  0  0  0  0  0  0  0
   17.9537   -5.0134  -14.2100 O   0  0  0  0  0  0  0  0  0  0  0  0
   23.1664   -5.2007  -13.5245 O   0  0  0  0  0  0  0  0  0  0  0  0
  2  1  1  0
  3  4  1  1
  3  2  1  0
  5  3  1  0
  6  5  2  0
  7  8  1  0
  8 10  1  0
  9  8  2  0
 10 11  1  0
 12 11  1  0
 13 12  1  0
 14 13  1  6
 14 15  1  0
 15  5  1  0
 16 14  1  0
 16 17  2  0
 18 16  1  0
 19 18  1  0
 19 20  1  1
 20 21  1  0
 21 22  1  0
 22 26  1  0
 22 23  2  0
 24 19  1  0
 25 24  1  0
 27 24  2  0
M  END
$$$$
