SRE.pdb
     RDKit          3D

 27 26  0  0  1  0  0  0  0  0999 V2000
   19.9223  -12.4953  -15.4873 O   0  0  0  0  0  0  0  0  0  0  0  0
   19.2014  -11.3803  -15.0622 C   0  0  0  0  0  0  0  0  0  0  0  0
   17.7215  -11.6634  -14.9094 C   0  0  2  0  0  0  0  0  0  0  0  0
   17.1711  -11.8926  -16.2238 N   0  0  0  0  0  0  0  0  0  0  0  0
   17.1066  -10.5199  -14.2193 C   0  0  0  0  0  0  0  0  0  0  0  0
   16.7520   -9.4771  -14.8755 O   0  0  0  0  0  0  0  0  0  0  0  0
   11.2141   -9.9992   -7.6978 N   0  0  0  0  0  0  0  0  0  0  0  0
   11.3158   -8.7304   -8.3498 C   0  0  0  0  0  0  0  0  0  0  0  0
   10.3637   -7.8810   -8.2246 N   0  0  0  0  0  0  0  0  0  0  0  0
   12.4579   -8.4163   -9.1227 N   0  0  0  0  0  0  0  0  0  0  0  0
   13.2157   -9.4312   -9.8186 C   0  0  0  0  0  0  0  0  0  0  0  0
   14.3375   -8.7821  -10.6048 C   0  0  0  0  0  0  0  0  0  0  0  0
   15.0813   -9.8620  -11.3316 C   0  0  0  0  0  0  0  0  0  0  0  0
   16.1843   -9.3228  -12.2058 C   0  0  2  0  0  0  0  0  0  0  0  0
   16.8603  -10.4739  -12.8227 N   0  0  0  0  0  0  0  0  0  0  0  0
   17.1482   -8.6311  -11.2998 C   0  0  0  0  0  0  0  0  0  0  0  0
   17.7106   -9.3309  -10.4228 O   0  0  0  0  0  0  0  0  0  0  0  0
   10.3868   -6.9350   -8.6501 N   0  0  0  0  0  0  0  0  0  0  0  0
   17.4443   -7.2522  -11.3933 C   0  0  2  0  0  0  0  0  0  0  0  0
   18.3546   -6.7100  -10.3602 C   0  0  0  0  0  0  0  0  0  0  0  0
   19.4473   -5.9717  -11.1071 C   0  0  0  0  0  0  0  0  0  0  0  0
   20.3118   -6.9260  -11.8718 C   0  0  0  0  0  0  0  0  0  0  0  0
   21.3065   -6.1651  -12.6946 O   0  0  0  0  0  0  0  0  0  0  0  0
   21.4524   -4.9400  -12.6069 C   0  0  0  0  0  0  0  0  0  0  0  0
   17.5877   -5.8803   -9.4232 O   0  0  0  0  0  0  0  0  0  0  0  0
   18.0116   -5.5190   -8.1670 O   0  0  0  0  0  0  0  0  0  0  0  0
   22.0923   -6.8930  -13.5980 O   0  0  0  0  0  0  0  0  0  0  0  0
  2  1  1  0
  3  4  1  6
  3  2  1  0
  5  3  1  0
  6  5  2  0
  7  8  1  0
  8 10  1  0
  9  8  2  0
 10 11  1  0
 12 11  1  0
 13 12  1  0
 14 13  1  1
 14 15  1  0
 15  5  1  0
 16 14  1  0
 16 17  2  0
 18 16  1  0
 19 18  1  0
 19 20  1  6
 20 21  1  0
 21 22  1  0
 22 26  1  0
 22 23  2  0
 24 19  1  0
 25 24  1  0
 27 24  2  0
M  END
$$$$
