SRE.pdb
     RDKit          3D

 27 26  0  0  1  0  0  0  0  0999 V2000
   22.1948  -21.5751   -7.9165 O   0  0  0  0  0  0  0  0  0  0  0  0
   22.6746  -20.7247   -8.9116 C   0  0  0  0  0  0  0  0  0  0  0  0
   24.1789  -20.7987   -9.0697 C   0  0  2  0  0  0  0  0  0  0  0  0
   24.7798  -20.0353   -8.0023 N   0  0  0  0  0  0  0  0  0  0  0  0
   24.5234  -20.2901  -10.4056 C   0  0  0  0  0  0  0  0  0  0  0  0
   24.6504  -19.0308  -10.6103 O   0  0  0  0  0  0  0  0  0  0  0  0
   29.2845  -23.5038  -17.0722 N   0  0  0  0  0  0  0  0  0  0  0  0
   28.7567  -22.2681  -17.5618 C   0  0  0  0  0  0  0  0  0  0  0  0
   29.1550  -21.8193  -18.6949 N   0  0  0  0  0  0  0  0  0  0  0  0
   27.8027  -21.5506  -16.8032 N   0  0  0  0  0  0  0  0  0  0  0  0
   27.3402  -22.0155  -15.5155 C   0  0  0  0  0  0  0  0  0  0  0  0
   26.3884  -20.9989  -14.9169 C   0  0  0  0  0  0  0  0  0  0  0  0
   25.9732  -21.4914  -13.5631 C   0  0  0  0  0  0  0  0  0  0  0  0
   25.0438  -20.5384  -12.8562 C   0  0  2  0  0  0  0  0  0  0  0  0
   24.7383  -21.1164  -11.5389 N   0  0  0  0  0  0  0  0  0  0  0  0
   23.7873  -20.4909  -13.6608 C   0  0  0  0  0  0  0  0  0  0  0  0
   23.0877  -21.5325  -13.6894 O   0  0  0  0  0  0  0  0  0  0  0  0
   28.7871  -20.9482  -19.1218 N   0  0  0  0  0  0  0  0  0  0  0  0
   23.3669  -19.3438  -14.3715 C   0  0  2  0  0  0  0  0  0  0  0  0
   22.0465  -19.4352  -15.0332 C   0  0  0  0  0  0  0  0  0  0  0  0
   21.6551  -18.0153  -15.3905 C   0  0  0  0  0  0  0  0  0  0  0  0
   20.3144  -17.9812  -16.0569 C   0  0  0  0  0  0  0  0  0  0  0  0
   20.0354  -16.6011  -16.5699 O   0  0  0  0  0  0  0  0  0  0  0  0
   20.8391  -15.6680  -16.4561 C   0  0  0  0  0  0  0  0  0  0  0  0
   22.1383  -20.3495  -16.1779 O   0  0  0  0  0  0  0  0  0  0  0  0
   23.2345  -20.4735  -16.9970 O   0  0  0  0  0  0  0  0  0  0  0  0
   18.8030  -16.3807  -17.1994 O   0  0  0  0  0  0  0  0  0  0  0  0
  2  1  1  0
  3  4  1  1
  3  2  1  0
  5  3  1  0
  6  5  2  0
  7  8  1  0
  8 10  1  0
  9  8  2  0
 10 11  1  0
 12 11  1  0
 13 12  1  0
 14 13  1  6
 14 15  1  0
 15  5  1  0
 16 14  1  0
 16 17  2  0
 18 16  1  0
 19 18  1  0
 19 20  1  1
 20 21  1  0
 21 22  1  0
 22 26  1  0
 22 23  2  0
 24 19  1  0
 25 24  1  0
 27 24  2  0
M  END
$$$$
