SRE.pdb
     RDKit          3D

 27 26  0  0  1  0  0  0  0  0999 V2000
   36.9671   -9.2034   -9.6994 O   0  0  0  0  0  0  0  0  0  0  0  0
   37.7795   -8.7058   -8.6815 C   0  0  0  0  0  0  0  0  0  0  0  0
   38.8458   -9.6905   -8.2492 C   0  0  2  0  0  0  0  0  0  0  0  0
   38.1915  -10.8095   -7.6144 N   0  0  0  0  0  0  0  0  0  0  0  0
   39.7809   -8.9890   -7.3574 C   0  0  0  0  0  0  0  0  0  0  0  0
   39.6387   -9.0522   -6.0848 O   0  0  0  0  0  0  0  0  0  0  0  0
   47.1413  -11.1471   -6.0354 N   0  0  0  0  0  0  0  0  0  0  0  0
   45.7326  -11.2429   -5.8081 C   0  0  0  0  0  0  0  0  0  0  0  0
   45.2274  -12.3676   -5.4562 N   0  0  0  0  0  0  0  0  0  0  0  0
   44.9063  -10.1061   -5.9679 N   0  0  0  0  0  0  0  0  0  0  0  0
   45.4339   -8.8274   -6.3861 C   0  0  0  0  0  0  0  0  0  0  0  0
   44.3291   -7.7897   -6.3727 C   0  0  0  0  0  0  0  0  0  0  0  0
   43.2079   -8.2930   -7.2314 C   0  0  0  0  0  0  0  0  0  0  0  0
   41.8777   -7.6842   -6.8686 C   0  0  2  0  0  0  0  0  0  0  0  0
   40.8795   -8.2134   -7.8100 N   0  0  0  0  0  0  0  0  0  0  0  0
   42.0075   -6.2130   -7.0857 C   0  0  0  0  0  0  0  0  0  0  0  0
   42.0115   -5.8092   -8.2741 O   0  0  0  0  0  0  0  0  0  0  0  0
   44.2123  -12.5087   -5.2950 N   0  0  0  0  0  0  0  0  0  0  0  0
   42.1207   -5.2822   -6.0281 C   0  0  2  0  0  0  0  0  0  0  0  0
   42.1414   -3.8545   -6.4166 C   0  0  0  0  0  0  0  0  0  0  0  0
   41.5592   -3.0904   -5.2442 C   0  0  0  0  0  0  0  0  0  0  0  0
   40.0701   -3.2411   -5.1936 C   0  0  0  0  0  0  0  0  0  0  0  0
   39.5213   -2.4860   -4.0213 O   0  0  0  0  0  0  0  0  0  0  0  0
   40.2328   -1.8205   -3.2593 C   0  0  0  0  0  0  0  0  0  0  0  0
   43.5107   -3.4683   -6.7775 O   0  0  0  0  0  0  0  0  0  0  0  0
   43.8409   -2.3888   -7.5610 O   0  0  0  0  0  0  0  0  0  0  0  0
   38.1399   -2.5539   -3.7960 O   0  0  0  0  0  0  0  0  0  0  0  0
  2  1  1  0
  3  4  1  1
  3  2  1  0
  5  3  1  0
  6  5  2  0
  7  8  1  0
  8 10  1  0
  9  8  2  0
 10 11  1  0
 12 11  1  0
 13 12  1  0
 14 13  1  6
 14 15  1  0
 15  5  1  0
 16 14  1  0
 16 17  2  0
 18 16  1  0
 19 18  1  0
 19 20  1  6
 20 21  1  0
 21 22  1  0
 22 26  1  0
 22 23  2  0
 24 19  1  0
 25 24  1  0
 27 24  2  0
M  END
$$$$
