SRE.pdb
     RDKit          3D

 27 26  0  0  1  0  0  0  0  0999 V2000
   26.8985  -19.5454  -17.8515 O   0  0  0  0  0  0  0  0  0  0  0  0
   28.0983  -19.7318  -17.1663 C   0  0  0  0  0  0  0  0  0  0  0  0
   28.2963  -21.1626  -16.7110 C   0  0  2  0  0  0  0  0  0  0  0  0
   28.3304  -22.0050  -17.8825 N   0  0  0  0  0  0  0  0  0  0  0  0
   27.2034  -21.5038  -15.7884 C   0  0  0  0  0  0  0  0  0  0  0  0
   26.3857  -22.4506  -16.0692 O   0  0  0  0  0  0  0  0  0  0  0  0
   26.3689  -20.3031   -7.0189 N   0  0  0  0  0  0  0  0  0  0  0  0
   25.0971  -20.7748   -7.4721 C   0  0  0  0  0  0  0  0  0  0  0  0
   24.1182  -20.8352   -6.6464 N   0  0  0  0  0  0  0  0  0  0  0  0
   24.9220  -21.1681   -8.8194 N   0  0  0  0  0  0  0  0  0  0  0  0
   25.7221  -20.6169   -9.8892 C   0  0  0  0  0  0  0  0  0  0  0  0
   25.2909  -21.2187  -11.2120 C   0  0  0  0  0  0  0  0  0  0  0  0
   26.2362  -20.7379  -12.2717 C   0  0  0  0  0  0  0  0  0  0  0  0
   25.9166  -21.2968  -13.6346 C   0  0  2  0  0  0  0  0  0  0  0  0
   26.9693  -20.8421  -14.5552 N   0  0  0  0  0  0  0  0  0  0  0  0
   24.6194  -20.6878  -14.0528 C   0  0  0  0  0  0  0  0  0  0  0  0
   24.6464  -19.4925  -14.4346 O   0  0  0  0  0  0  0  0  0  0  0  0
   23.1896  -21.2261   -6.8939 N   0  0  0  0  0  0  0  0  0  0  0  0
   23.3938  -21.3917  -14.0368 C   0  0  2  0  0  0  0  0  0  0  0  0
   22.2172  -20.6624  -14.5597 C   0  0  0  0  0  0  0  0  0  0  0  0
   21.4576  -21.6511  -15.4215 C   0  0  0  0  0  0  0  0  0  0  0  0
   20.2168  -21.0286  -15.9833 C   0  0  0  0  0  0  0  0  0  0  0  0
   19.4531  -22.0432  -16.7789 O   0  0  0  0  0  0  0  0  0  0  0  0
   19.0849  -21.8442  -17.9427 C   0  0  0  0  0  0  0  0  0  0  0  0
   21.4470  -20.1132  -13.4373 O   0  0  0  0  0  0  0  0  0  0  0  0
   20.5354  -19.0899  -13.5374 O   0  0  0  0  0  0  0  0  0  0  0  0
   19.1516  -23.2617  -16.1560 O   0  0  0  0  0  0  0  0  0  0  0  0
  2  1  1  0
  3  4  1  6
  3  2  1  0
  5  3  1  0
  6  5  2  0
  7  8  1  0
  8 10  1  0
  9  8  2  0
 10 11  1  0
 12 11  1  0
 13 12  1  0
 14 13  1  1
 14 15  1  0
 15  5  1  0
 16 14  1  0
 16 17  2  0
 18 16  1  0
 19 18  1  0
 19 20  1  1
 20 21  1  0
 21 22  1  0
 22 26  1  0
 22 23  2  0
 24 19  1  0
 25 24  1  0
 27 24  2  0
M  END
$$$$
