SRE.pdb
     RDKit          3D

 27 26  0  0  1  0  0  0  0  0999 V2000
   18.5377  -11.6288  -13.4999 O   0  0  0  0  0  0  0  0  0  0  0  0
   17.5129  -12.1863  -14.2631 C   0  0  0  0  0  0  0  0  0  0  0  0
   16.1980  -12.2573  -13.5150 C   0  0  2  0  0  0  0  0  0  0  0  0
   15.1980  -12.7800  -14.4150 N   0  0  0  0  0  0  0  0  0  0  0  0
   15.8799  -10.9092  -13.0216 C   0  0  0  0  0  0  0  0  0  0  0  0
   15.6505   -9.9521  -13.8433 O   0  0  0  0  0  0  0  0  0  0  0  0
   10.2218   -9.8703   -7.2135 N   0  0  0  0  0  0  0  0  0  0  0  0
    9.9174  -10.0079   -8.6040 C   0  0  0  0  0  0  0  0  0  0  0  0
    8.7137  -10.2671   -8.9616 N   0  0  0  0  0  0  0  0  0  0  0  0
   10.9352   -9.8566   -9.5744 N   0  0  0  0  0  0  0  0  0  0  0  0
   12.3029   -9.5629   -9.2117 C   0  0  0  0  0  0  0  0  0  0  0  0
   13.1423   -9.4100  -10.4646 C   0  0  0  0  0  0  0  0  0  0  0  0
   14.5748   -9.2585  -10.0491 C   0  0  0  0  0  0  0  0  0  0  0  0
   15.5174   -9.1854  -11.2229 C   0  0  2  0  0  0  0  0  0  0  0  0
   15.8004  -10.5647  -11.6474 N   0  0  0  0  0  0  0  0  0  0  0  0
   16.7810   -8.5712  -10.7187 C   0  0  0  0  0  0  0  0  0  0  0  0
   17.4226   -9.2140   -9.8524 O   0  0  0  0  0  0  0  0  0  0  0  0
    8.4353  -10.4216   -9.9490 N   0  0  0  0  0  0  0  0  0  0  0  0
   17.2696   -7.3247  -11.1721 C   0  0  1  0  0  0  0  0  0  0  0  0
   18.5409   -6.8655  -10.5697 C   0  0  0  0  0  0  0  0  0  0  0  0
   19.4852   -6.6053  -11.7263 C   0  0  0  0  0  0  0  0  0  0  0  0
   20.7775   -6.0239  -11.2417 C   0  0  0  0  0  0  0  0  0  0  0  0
   21.6593   -5.6989  -12.4089 O   0  0  0  0  0  0  0  0  0  0  0  0
   22.1884   -6.5677  -13.1124 C   0  0  0  0  0  0  0  0  0  0  0  0
   18.2820   -5.6981   -9.7184 O   0  0  0  0  0  0  0  0  0  0  0  0
   19.0888   -5.2860   -8.6853 O   0  0  0  0  0  0  0  0  0  0  0  0
   21.8826   -4.3454  -12.6952 O   0  0  0  0  0  0  0  0  0  0  0  0
  2  1  1  0
  3  4  1  6
  3  2  1  0
  5  3  1  0
  6  5  2  0
  7  8  1  0
  8 10  1  0
  9  8  2  0
 10 11  1  0
 12 11  1  0
 13 12  1  0
 14 13  1  1
 14 15  1  0
 15  5  1  0
 16 14  1  0
 16 17  2  0
 18 16  1  0
 19 18  1  0
 19 20  1  1
 20 21  1  0
 21 22  1  0
 22 26  1  0
 22 23  2  0
 24 19  1  0
 25 24  1  0
 27 24  2  0
M  END
$$$$
