SRE.pdb
     RDKit          3D

 27 26  0  0  1  0  0  0  0  0999 V2000
   26.4633  -18.7956  -18.9199 O   0  0  0  0  0  0  0  0  0  0  0  0
   27.8344  -18.9161  -18.6981 C   0  0  0  0  0  0  0  0  0  0  0  0
   28.2515  -20.3337  -18.3664 C   0  0  2  0  0  0  0  0  0  0  0  0
   28.1501  -21.1239  -19.5698 N   0  0  0  0  0  0  0  0  0  0  0  0
   27.3867  -20.8224  -17.2823 C   0  0  0  0  0  0  0  0  0  0  0  0
   26.4252  -21.6330  -17.5314 O   0  0  0  0  0  0  0  0  0  0  0  0
   24.3135  -19.7604  -10.6876 N   0  0  0  0  0  0  0  0  0  0  0  0
   24.9546  -20.6192   -9.7406 C   0  0  0  0  0  0  0  0  0  0  0  0
   24.3276  -20.9597   -8.6754 N   0  0  0  0  0  0  0  0  0  0  0  0
   26.2668  -21.0897   -9.9799 N   0  0  0  0  0  0  0  0  0  0  0  0
   27.0470  -20.6435  -11.1115 C   0  0  0  0  0  0  0  0  0  0  0  0
   26.3407  -21.0192  -12.3991 C   0  0  0  0  0  0  0  0  0  0  0  0
   27.2036  -20.5864  -13.5462 C   0  0  0  0  0  0  0  0  0  0  0  0
   26.6369  -20.9854  -14.8845 C   0  0  2  0  0  0  0  0  0  0  0  0
   27.5367  -20.4552  -15.9199 N   0  0  0  0  0  0  0  0  0  0  0  0
   25.3132  -20.3065  -15.0077 C   0  0  0  0  0  0  0  0  0  0  0  0
   25.3167  -19.0524  -15.0554 O   0  0  0  0  0  0  0  0  0  0  0  0
   24.7492  -21.5472   -7.9314 N   0  0  0  0  0  0  0  0  0  0  0  0
   24.0876  -21.0076  -15.0733 C   0  0  2  0  0  0  0  0  0  0  0  0
   22.8672  -20.1773  -15.1781 C   0  0  0  0  0  0  0  0  0  0  0  0
   22.0658  -20.7498  -16.3301 C   0  0  0  0  0  0  0  0  0  0  0  0
   21.2678  -21.9377  -15.8889 C   0  0  0  0  0  0  0  0  0  0  0  0
   20.4978  -22.4933  -17.0482 O   0  0  0  0  0  0  0  0  0  0  0  0
   20.4923  -21.9633  -18.1656 C   0  0  0  0  0  0  0  0  0  0  0  0
   22.1669  -20.1769  -13.8881 O   0  0  0  0  0  0  0  0  0  0  0  0
   22.4203  -21.0496  -12.8574 O   0  0  0  0  0  0  0  0  0  0  0  0
   19.7566  -23.6628  -16.8329 O   0  0  0  0  0  0  0  0  0  0  0  0
  2  1  1  0
  3  4  1  6
  3  2  1  0
  5  3  1  0
  6  5  2  0
  7  8  1  0
  8 10  1  0
  9  8  2  0
 10 11  1  0
 12 11  1  0
 13 12  1  0
 14 13  1  1
 14 15  1  0
 15  5  1  0
 16 14  1  0
 16 17  2  0
 18 16  1  0
 19 18  1  0
 19 20  1  6
 20 21  1  0
 21 22  1  0
 22 26  1  0
 22 23  2  0
 24 19  1  0
 25 24  1  0
 27 24  2  0
M  END
$$$$
