ACK.pdb
     RDKit          3D

 21 20  0  0  1  0  0  0  0  0999 V2000
    2.5042  -20.0028   21.9900 C   0  0  0  0  0  0  0  0  0  0  0  0
    3.3675  -19.1839   21.0400 C   0  0  2  0  0  0  0  0  0  0  0  0
    3.4157  -19.8520   19.7524 N   0  0  0  0  0  0  0  0  0  0  0  0
    4.7446  -19.0306   21.5423 C   0  0  0  0  0  0  0  0  0  0  0  0
    5.5009  -20.0461   21.7159 O   0  0  0  0  0  0  0  0  0  0  0  0
    5.3293  -17.7760   21.8661 N   0  0  0  0  0  0  0  0  0  0  0  0
    6.6558  -17.6427   22.4374 C   0  0  1  0  0  0  0  0  0  0  0  0
    7.2784  -16.4097   21.7745 C   0  0  0  0  0  0  0  0  0  0  0  0
    6.2178  -14.9709   21.9305 S   0  0  0  0  0  0  0  0  0  0  0  0
    6.6041  -17.4775   23.9108 C   0  0  0  0  0  0  0  0  0  0  0  0
    5.7450  -16.7171   24.3851 O   0  0  0  0  0  0  0  0  0  0  0  0
    7.4631  -18.1244   24.8074 N   0  0  0  0  0  0  0  0  0  0  0  0
    7.4652  -18.0517   26.2108 C   0  0  1  0  0  0  0  0  0  0  0  0
    7.1645  -19.2977   26.9726 C   0  0  0  0  0  0  0  0  0  0  0  0
    6.9744  -20.4987   26.0785 C   0  0  0  0  0  0  0  0  0  0  0  0
    6.6669  -21.7047   26.9198 C   0  0  0  0  0  0  0  0  0  0  0  0
    6.5783  -22.9963   26.1878 C   0  0  0  0  0  0  0  0  0  0  0  0
    6.5303  -24.0561   27.1852 N   0  0  0  0  0  0  0  0  0  0  0  0
    8.7658  -17.5272   26.6817 C   0  0  0  0  0  0  0  0  0  0  0  0
    9.7515  -17.2830   25.9402 O   0  0  0  0  0  0  0  0  0  0  0  0
    8.9266  -17.2818   28.0332 O   0  0  0  0  0  0  0  0  0  0  0  0
  2  1  1  1
  2  3  1  0
  4  2  1  0
  5  4  2  0
  6  4  1  0
  7  6  1  0
  7 10  1  0
  7  8  1  6
  9  8  1  0
 10 11  2  0
 12 10  1  0
 12 13  1  0
 13 14  1  1
 14 15  1  0
 15 16  1  0
 16 17  1  0
 18 17  1  0
 19 13  1  0
 19 21  1  0
 20 19  2  0
M  END
$$$$
