ACK.pdb
     RDKit          3D

 21 20  0  0  1  0  0  0  0  0999 V2000
   -7.5550  -27.5856   29.8203 C   0  0  0  0  0  0  0  0  0  0  0  0
   -8.2310  -26.2773   30.2072 C   0  0  2  0  0  0  0  0  0  0  0  0
   -9.5959  -26.5548   30.6156 N   0  0  0  0  0  0  0  0  0  0  0  0
   -8.2606  -25.3211   29.0860 C   0  0  0  0  0  0  0  0  0  0  0  0
   -9.3327  -25.1161   28.4213 O   0  0  0  0  0  0  0  0  0  0  0  0
   -7.1311  -24.5688   28.6629 N   0  0  0  0  0  0  0  0  0  0  0  0
   -7.1967  -23.5509   27.6319 C   0  0  1  0  0  0  0  0  0  0  0  0
   -8.1069  -22.4491   28.1845 C   0  0  0  0  0  0  0  0  0  0  0  0
   -7.3770  -21.6458   29.6133 S   0  0  0  0  0  0  0  0  0  0  0  0
   -5.8536  -23.0101   27.3090 C   0  0  0  0  0  0  0  0  0  0  0  0
   -5.1120  -22.6837   28.2496 O   0  0  0  0  0  0  0  0  0  0  0  0
   -5.3629  -22.8420   26.0084 N   0  0  0  0  0  0  0  0  0  0  0  0
   -4.0800  -22.4265   25.6134 C   0  0  1  0  0  0  0  0  0  0  0  0
   -3.3049  -23.3248   24.7104 C   0  0  0  0  0  0  0  0  0  0  0  0
   -1.9289  -22.7909   24.3943 C   0  0  0  0  0  0  0  0  0  0  0  0
   -1.2074  -23.7634   23.5051 C   0  0  0  0  0  0  0  0  0  0  0  0
    0.1674  -23.3679   23.0985 C   0  0  0  0  0  0  0  0  0  0  0  0
    0.7163  -24.4618   22.3095 N   0  0  0  0  0  0  0  0  0  0  0  0
   -4.1607  -21.0933   24.9773 C   0  0  0  0  0  0  0  0  0  0  0  0
   -3.2135  -20.2685   24.9184 O   0  0  0  0  0  0  0  0  0  0  0  0
   -5.3578  -20.7100   24.4007 O   0  0  0  0  0  0  0  0  0  0  0  0
  2  1  1  6
  2  3  1  0
  4  2  1  0
  5  4  2  0
  6  4  1  0
  7  6  1  0
  7 10  1  0
  7  8  1  1
  9  8  1  0
 10 11  2  0
 12 10  1  0
 12 13  1  0
 13 14  1  6
 14 15  1  0
 15 16  1  0
 16 17  1  0
 18 17  1  0
 19 13  1  0
 19 21  1  0
 20 19  2  0
M  END
$$$$
