ACK.pdb
     RDKit          3D

 21 20  0  0  1  0  0  0  0  0999 V2000
    6.7458  -14.5154   20.3055 C   0  0  0  0  0  0  0  0  0  0  0  0
    7.1727  -13.1863   20.9136 C   0  0  2  0  0  0  0  0  0  0  0  0
    8.0733  -12.5151   19.9944 N   0  0  0  0  0  0  0  0  0  0  0  0
    7.8650  -13.3682   22.2019 C   0  0  0  0  0  0  0  0  0  0  0  0
    9.1378  -13.4681   22.2591 O   0  0  0  0  0  0  0  0  0  0  0  0
    7.1935  -13.4455   23.4524 N   0  0  0  0  0  0  0  0  0  0  0  0
    7.8759  -13.7110   24.7044 C   0  0  1  0  0  0  0  0  0  0  0  0
    6.9531  -13.1832   25.8078 C   0  0  0  0  0  0  0  0  0  0  0  0
    5.3335  -13.9521   25.7366 S   0  0  0  0  0  0  0  0  0  0  0  0
    8.1402  -15.1591   24.8884 C   0  0  0  0  0  0  0  0  0  0  0  0
    7.2352  -15.9603   24.6052 O   0  0  0  0  0  0  0  0  0  0  0  0
    9.3476  -15.6863   25.3625 N   0  0  0  0  0  0  0  0  0  0  0  0
    9.6632  -17.0306   25.6228 C   0  0  1  0  0  0  0  0  0  0  0  0
   10.6716  -17.6913   24.7455 C   0  0  0  0  0  0  0  0  0  0  0  0
   10.3212  -17.6005   23.2801 C   0  0  0  0  0  0  0  0  0  0  0  0
   11.3994  -18.2581   22.4666 C   0  0  0  0  0  0  0  0  0  0  0  0
   11.2120  -18.2145   20.9918 C   0  0  0  0  0  0  0  0  0  0  0  0
   12.4307  -18.7319   20.3857 N   0  0  0  0  0  0  0  0  0  0  0  0
   10.1085  -17.1764   27.0261 C   0  0  0  0  0  0  0  0  0  0  0  0
   10.3615  -18.2725   27.5878 O   0  0  0  0  0  0  0  0  0  0  0  0
   10.2628  -16.0341   27.7901 O   0  0  0  0  0  0  0  0  0  0  0  0
  2  1  1  6
  2  3  1  0
  4  2  1  0
  5  4  2  0
  6  4  1  0
  7  6  1  0
  7 10  1  0
  7  8  1  1
  9  8  1  0
 10 11  2  0
 12 10  1  0
 12 13  1  0
 13 14  1  6
 14 15  1  0
 15 16  1  0
 16 17  1  0
 18 17  1  0
 19 13  1  0
 19 21  1  0
 20 19  2  0
M  END
$$$$
