ACK.pdb
     RDKit          3D

 21 20  0  0  1  0  0  0  0  0999 V2000
   10.7490  -18.6966   19.2299 C   0  0  0  0  0  0  0  0  0  0  0  0
   10.4555  -17.2714   18.7817 C   0  0  2  0  0  0  0  0  0  0  0  0
   11.5539  -16.8007   17.9578 N   0  0  0  0  0  0  0  0  0  0  0  0
   10.3003  -16.3560   19.9263 C   0  0  0  0  0  0  0  0  0  0  0  0
   11.3070  -15.7482   20.4269 O   0  0  0  0  0  0  0  0  0  0  0  0
    9.0533  -16.0808   20.5508 N   0  0  0  0  0  0  0  0  0  0  0  0
    8.9097  -15.1663   21.6673 C   0  0  1  0  0  0  0  0  0  0  0  0
    7.4356  -14.7490   21.6837 C   0  0  0  0  0  0  0  0  0  0  0  0
    6.3684  -16.1162   22.1434 S   0  0  0  0  0  0  0  0  0  0  0  0
    9.2895  -15.8048   22.9514 C   0  0  0  0  0  0  0  0  0  0  0  0
    9.5958  -17.0077   22.9393 O   0  0  0  0  0  0  0  0  0  0  0  0
    9.3260  -15.1390   24.1826 N   0  0  0  0  0  0  0  0  0  0  0  0
    9.7401  -15.6421   25.4276 C   0  0  1  0  0  0  0  0  0  0  0  0
    9.7406  -14.7085   26.5902 C   0  0  0  0  0  0  0  0  0  0  0  0
   10.2592  -15.3490   27.8547 C   0  0  0  0  0  0  0  0  0  0  0  0
   10.1484  -14.3729   28.9913 C   0  0  0  0  0  0  0  0  0  0  0  0
   10.6836  -14.8406   30.2977 C   0  0  0  0  0  0  0  0  0  0  0  0
   10.5015  -13.7565   31.2526 N   0  0  0  0  0  0  0  0  0  0  0  0
    8.9235  -16.8225   25.7859 C   0  0  0  0  0  0  0  0  0  0  0  0
    9.3361  -17.8032   26.4559 O   0  0  0  0  0  0  0  0  0  0  0  0
    7.6082  -16.8669   25.3612 O   0  0  0  0  0  0  0  0  0  0  0  0
  2  1  1  1
  2  3  1  0
  4  2  1  0
  5  4  2  0
  6  4  1  0
  7  6  1  0
  7 10  1  0
  7  8  1  1
  9  8  1  0
 10 11  2  0
 12 10  1  0
 12 13  1  0
 13 14  1  1
 14 15  1  0
 15 16  1  0
 16 17  1  0
 18 17  1  0
 19 13  1  0
 19 21  1  0
 20 19  2  0
M  END
$$$$
