ACK.pdb
     RDKit          3D

 21 20  0  0  1  0  0  0  0  0999 V2000
    7.6806  -12.8082   19.6905 C   0  0  0  0  0  0  0  0  0  0  0  0
    8.5737  -13.1298   18.5002 C   0  0  2  0  0  0  0  0  0  0  0  0
    7.7427  -13.3229   17.3259 N   0  0  0  0  0  0  0  0  0  0  0  0
    9.3662  -14.3526   18.7219 C   0  0  0  0  0  0  0  0  0  0  0  0
    9.3877  -15.2916   17.8551 O   0  0  0  0  0  0  0  0  0  0  0  0
   10.1503  -14.5824   19.8851 N   0  0  0  0  0  0  0  0  0  0  0  0
   11.0357  -15.7216   20.0328 C   0  0  1  0  0  0  0  0  0  0  0  0
   12.0061  -15.6577   18.8489 C   0  0  0  0  0  0  0  0  0  0  0  0
   13.0124  -14.1731   18.9005 S   0  0  0  0  0  0  0  0  0  0  0  0
   11.7730  -15.6798   21.3195 C   0  0  0  0  0  0  0  0  0  0  0  0
   12.0707  -14.5694   21.7881 O   0  0  0  0  0  0  0  0  0  0  0  0
   12.1579  -16.8138   22.0450 N   0  0  0  0  0  0  0  0  0  0  0  0
   12.4691  -16.9031   23.4124 C   0  0  1  0  0  0  0  0  0  0  0  0
   11.8073  -17.9765   24.2081 C   0  0  0  0  0  0  0  0  0  0  0  0
   12.3292  -18.0631   25.6217 C   0  0  0  0  0  0  0  0  0  0  0  0
   11.7812  -19.2961   26.2823 C   0  0  0  0  0  0  0  0  0  0  0  0
   12.2782  -19.5659   27.6578 C   0  0  0  0  0  0  0  0  0  0  0  0
   11.5499  -20.7218   28.1616 N   0  0  0  0  0  0  0  0  0  0  0  0
   13.9322  -17.0391   23.5838 C   0  0  0  0  0  0  0  0  0  0  0  0
   14.7153  -17.5053   22.7176 O   0  0  0  0  0  0  0  0  0  0  0  0
   14.4964  -16.6283   24.7777 O   0  0  0  0  0  0  0  0  0  0  0  0
  2  1  1  1
  2  3  1  0
  4  2  1  0
  5  4  2  0
  6  4  1  0
  7  6  1  0
  7 10  1  0
  7  8  1  6
  9  8  1  0
 10 11  2  0
 12 10  1  0
 12 13  1  0
 13 14  1  6
 14 15  1  0
 15 16  1  0
 16 17  1  0
 18 17  1  0
 19 13  1  0
 19 21  1  0
 20 19  2  0
M  END
$$$$
