ACK.pdb
     RDKit          3D

 21 20  0  0  1  0  0  0  0  0999 V2000
    6.3817  -15.0052   20.3794 C   0  0  0  0  0  0  0  0  0  0  0  0
    6.8555  -13.6099   20.7629 C   0  0  2  0  0  0  0  0  0  0  0  0
    7.7071  -13.0944   19.7066 N   0  0  0  0  0  0  0  0  0  0  0  0
    7.6200  -13.6158   22.0229 C   0  0  0  0  0  0  0  0  0  0  0  0
    8.8761  -13.8517   22.0318 O   0  0  0  0  0  0  0  0  0  0  0  0
    7.0404  -13.3666   23.2967 N   0  0  0  0  0  0  0  0  0  0  0  0
    7.7815  -13.4682   24.5393 C   0  0  1  0  0  0  0  0  0  0  0  0
    6.8985  -12.8207   25.6110 C   0  0  0  0  0  0  0  0  0  0  0  0
    7.5988  -13.0197   27.2509 S   0  0  0  0  0  0  0  0  0  0  0  0
    8.0795  -14.8795   24.8862 C   0  0  0  0  0  0  0  0  0  0  0  0
    7.1547  -15.7054   24.8251 O   0  0  0  0  0  0  0  0  0  0  0  0
    9.3398  -15.3455   25.2798 N   0  0  0  0  0  0  0  0  0  0  0  0
    9.7228  -16.6654   25.5728 C   0  0  1  0  0  0  0  0  0  0  0  0
   10.8192  -17.2681   24.7618 C   0  0  0  0  0  0  0  0  0  0  0  0
   11.1588  -18.6749   25.1907 C   0  0  0  0  0  0  0  0  0  0  0  0
   12.2427  -19.2198   24.3047 C   0  0  0  0  0  0  0  0  0  0  0  0
   12.5825  -20.6533   24.5085 C   0  0  0  0  0  0  0  0  0  0  0  0
   13.6919  -20.9653   23.6183 N   0  0  0  0  0  0  0  0  0  0  0  0
   10.0947  -16.7723   27.0007 C   0  0  0  0  0  0  0  0  0  0  0  0
   10.2750  -15.7940   27.7698 O   0  0  0  0  0  0  0  0  0  0  0  0
   10.2601  -18.0325   27.5456 O   0  0  0  0  0  0  0  0  0  0  0  0
  2  1  1  6
  2  3  1  0
  4  2  1  0
  5  4  2  0
  6  4  1  0
  7  6  1  0
  7 10  1  0
  7  8  1  1
  9  8  1  0
 10 11  2  0
 12 10  1  0
 12 13  1  0
 13 14  1  6
 14 15  1  0
 15 16  1  0
 16 17  1  0
 18 17  1  0
 19 13  1  0
 19 21  1  0
 20 19  2  0
M  END
$$$$
