ACK.pdb
     RDKit          3D

 21 20  0  0  1  0  0  0  0  0999 V2000
    8.0058  -13.9052   19.9401 C   0  0  0  0  0  0  0  0  0  0  0  0
    7.7843  -14.9077   21.0644 C   0  0  2  0  0  0  0  0  0  0  0  0
    6.3748  -15.2499   21.1199 N   0  0  0  0  0  0  0  0  0  0  0  0
    8.1882  -14.3639   22.3734 C   0  0  0  0  0  0  0  0  0  0  0  0
    9.4185  -14.1573   22.6513 O   0  0  0  0  0  0  0  0  0  0  0  0
    7.2691  -14.0335   23.4062 N   0  0  0  0  0  0  0  0  0  0  0  0
    7.6697  -13.4237   24.6597 C   0  0  1  0  0  0  0  0  0  0  0  0
    6.4922  -12.5464   25.0970 C   0  0  0  0  0  0  0  0  0  0  0  0
    6.6620  -12.0174   26.8031 S   0  0  0  0  0  0  0  0  0  0  0  0
    7.9770  -14.4437   25.6921 C   0  0  0  0  0  0  0  0  0  0  0  0
    7.1295  -15.3222   25.9180 O   0  0  0  0  0  0  0  0  0  0  0  0
    9.1644  -14.4828   26.4330 N   0  0  0  0  0  0  0  0  0  0  0  0
    9.5941  -15.4763   27.3292 C   0  0  1  0  0  0  0  0  0  0  0  0
   10.6113  -16.4546   26.8481 C   0  0  0  0  0  0  0  0  0  0  0  0
   10.9409  -17.5092   27.8764 C   0  0  0  0  0  0  0  0  0  0  0  0
   11.9511  -18.4643   27.3070 C   0  0  0  0  0  0  0  0  0  0  0  0
   12.3657  -19.5754   28.2044 C   0  0  0  0  0  0  0  0  0  0  0  0
   13.3711  -20.3528   27.4937 N   0  0  0  0  0  0  0  0  0  0  0  0
   10.1103  -14.8457   28.5639 C   0  0  0  0  0  0  0  0  0  0  0  0
   10.2581  -13.6080   28.7291 O   0  0  0  0  0  0  0  0  0  0  0  0
   10.4606  -15.6622   29.6236 O   0  0  0  0  0  0  0  0  0  0  0  0
  2  1  1  6
  2  3  1  0
  4  2  1  0
  5  4  2  0
  6  4  1  0
  7  6  1  0
  7 10  1  0
  7  8  1  1
  9  8  1  0
 10 11  2  0
 12 10  1  0
 12 13  1  0
 13 14  1  6
 14 15  1  0
 15 16  1  0
 16 17  1  0
 18 17  1  0
 19 13  1  0
 19 21  1  0
 20 19  2  0
M  END
$$$$
