ACK.pdb
     RDKit          3D

 21 20  0  0  1  0  0  0  0  0999 V2000
    7.8796  -17.6724   16.7047 C   0  0  0  0  0  0  0  0  0  0  0  0
    7.9115  -18.1548   18.1485 C   0  0  2  0  0  0  0  0  0  0  0  0
    6.5529  -18.2140   18.6558 N   0  0  0  0  0  0  0  0  0  0  0  0
    8.6972  -17.2549   19.0117 C   0  0  0  0  0  0  0  0  0  0  0  0
    9.9605  -17.1325   18.8615 O   0  0  0  0  0  0  0  0  0  0  0  0
    8.1312  -16.4706   20.0534 N   0  0  0  0  0  0  0  0  0  0  0  0
    8.9266  -15.6790   20.9723 C   0  0  1  0  0  0  0  0  0  0  0  0
    7.9915  -14.5906   21.5096 C   0  0  0  0  0  0  0  0  0  0  0  0
    6.7083  -15.2815   22.5561 S   0  0  0  0  0  0  0  0  0  0  0  0
    9.4653  -16.5035   22.0817 C   0  0  0  0  0  0  0  0  0  0  0  0
    8.7856  -17.4618   22.4828 O   0  0  0  0  0  0  0  0  0  0  0  0
   10.6950  -16.2730   22.7104 N   0  0  0  0  0  0  0  0  0  0  0  0
   11.4069  -17.1335   23.5632 C   0  0  1  0  0  0  0  0  0  0  0  0
   12.5998  -17.8342   23.0073 C   0  0  0  0  0  0  0  0  0  0  0  0
   13.2238  -18.7959   23.9891 C   0  0  0  0  0  0  0  0  0  0  0  0
   14.3644  -19.5157   23.3276 C   0  0  0  0  0  0  0  0  0  0  0  0
   15.0293  -20.5627   24.1485 C   0  0  0  0  0  0  0  0  0  0  0  0
   15.9911  -21.2392   23.2898 N   0  0  0  0  0  0  0  0  0  0  0  0
   11.8289  -16.3982   24.7756 C   0  0  0  0  0  0  0  0  0  0  0  0
   11.9654  -15.1503   24.8463 O   0  0  0  0  0  0  0  0  0  0  0  0
   12.0968  -17.1206   25.9241 O   0  0  0  0  0  0  0  0  0  0  0  0
  2  1  1  6
  2  3  1  0
  4  2  1  0
  5  4  2  0
  6  4  1  0
  7  6  1  0
  7 10  1  0
  7  8  1  1
  9  8  1  0
 10 11  2  0
 12 10  1  0
 12 13  1  0
 13 14  1  6
 14 15  1  0
 15 16  1  0
 16 17  1  0
 18 17  1  0
 19 13  1  0
 19 21  1  0
 20 19  2  0
M  END
$$$$
