ACK.pdb
     RDKit          3D

 21 20  0  0  1  0  0  0  0  0999 V2000
    6.3989  -15.4481   21.0702 C   0  0  0  0  0  0  0  0  0  0  0  0
    7.0730  -14.0958   21.2577 C   0  0  2  0  0  0  0  0  0  0  0  0
    7.9102  -13.8224   20.1039 N   0  0  0  0  0  0  0  0  0  0  0  0
    7.9143  -14.0638   22.4674 C   0  0  0  0  0  0  0  0  0  0  0  0
    9.1597  -14.3459   22.4132 O   0  0  0  0  0  0  0  0  0  0  0  0
    7.4243  -13.7262   23.7584 N   0  0  0  0  0  0  0  0  0  0  0  0
    8.2447  -13.7655   24.9538 C   0  0  1  0  0  0  0  0  0  0  0  0
    7.5151  -12.9097   25.9943 C   0  0  0  0  0  0  0  0  0  0  0  0
    5.8700  -13.5416   26.3314 S   0  0  0  0  0  0  0  0  0  0  0  0
    8.4269  -15.1522   25.4483 C   0  0  0  0  0  0  0  0  0  0  0  0
    7.4443  -15.9109   25.4399 O   0  0  0  0  0  0  0  0  0  0  0  0
    9.6384  -15.6661   25.9266 N   0  0  0  0  0  0  0  0  0  0  0  0
    9.9256  -16.9845   26.3189 C   0  0  1  0  0  0  0  0  0  0  0  0
   11.0635  -17.6776   25.6496 C   0  0  0  0  0  0  0  0  0  0  0  0
   10.6682  -18.3254   24.3449 C   0  0  0  0  0  0  0  0  0  0  0  0
   11.7387  -18.0795   23.3200 C   0  0  0  0  0  0  0  0  0  0  0  0
   11.4481  -18.5813   21.9505 C   0  0  0  0  0  0  0  0  0  0  0  0
   12.4668  -18.0353   21.0648 N   0  0  0  0  0  0  0  0  0  0  0  0
   10.1531  -17.0324   27.7799 C   0  0  0  0  0  0  0  0  0  0  0  0
   10.4561  -18.0684   28.4248 O   0  0  0  0  0  0  0  0  0  0  0  0
   10.0275  -15.8614   28.5048 O   0  0  0  0  0  0  0  0  0  0  0  0
  2  1  1  6
  2  3  1  0
  4  2  1  0
  5  4  2  0
  6  4  1  0
  7  6  1  0
  7 10  1  0
  7  8  1  1
  9  8  1  0
 10 11  2  0
 12 10  1  0
 12 13  1  0
 13 14  1  6
 14 15  1  0
 15 16  1  0
 16 17  1  0
 18 17  1  0
 19 13  1  0
 19 21  1  0
 20 19  2  0
M  END
$$$$
