ACK.pdb
     RDKit          3D

 21 20  0  0  1  0  0  0  0  0999 V2000
    7.7531  -13.0645   19.8514 C   0  0  0  0  0  0  0  0  0  0  0  0
    7.5863  -14.2480   20.7947 C   0  0  2  0  0  0  0  0  0  0  0  0
    6.1728  -14.5506   20.9259 N   0  0  0  0  0  0  0  0  0  0  0  0
    8.1331  -13.9652   22.1338 C   0  0  0  0  0  0  0  0  0  0  0  0
    9.3914  -13.8407   22.3203 O   0  0  0  0  0  0  0  0  0  0  0  0
    7.3293  -13.8117   23.2961 N   0  0  0  0  0  0  0  0  0  0  0  0
    7.8771  -13.5184   24.6066 C   0  0  1  0  0  0  0  0  0  0  0  0
    6.8690  -12.5857   25.2859 C   0  0  0  0  0  0  0  0  0  0  0  0
    7.2970  -12.2906   27.0032 S   0  0  0  0  0  0  0  0  0  0  0  0
    8.0740  -14.7517   25.4071 C   0  0  0  0  0  0  0  0  0  0  0  0
    7.0846  -15.4656   25.6361 O   0  0  0  0  0  0  0  0  0  0  0  0
    9.3069  -15.1674   25.9248 N   0  0  0  0  0  0  0  0  0  0  0  0
    9.5981  -16.3506   26.6247 C   0  0  1  0  0  0  0  0  0  0  0  0
   10.5955  -17.2845   26.0280 C   0  0  0  0  0  0  0  0  0  0  0  0
   10.2664  -17.6601   24.6036 C   0  0  0  0  0  0  0  0  0  0  0  0
   11.3465  -18.5511   24.0592 C   0  0  0  0  0  0  0  0  0  0  0  0
   11.1290  -19.0584   22.6782 C   0  0  0  0  0  0  0  0  0  0  0  0
   12.3339  -19.7760   22.2866 N   0  0  0  0  0  0  0  0  0  0  0  0
   10.0392  -16.0226   27.9982 C   0  0  0  0  0  0  0  0  0  0  0  0
   10.2127  -14.8569   28.4364 O   0  0  0  0  0  0  0  0  0  0  0  0
   10.2831  -17.0618   28.8774 O   0  0  0  0  0  0  0  0  0  0  0  0
  2  1  1  6
  2  3  1  0
  4  2  1  0
  5  4  2  0
  6  4  1  0
  7  6  1  0
  7 10  1  0
  7  8  1  1
  9  8  1  0
 10 11  2  0
 12 10  1  0
 12 13  1  0
 13 14  1  6
 14 15  1  0
 15 16  1  0
 16 17  1  0
 18 17  1  0
 19 13  1  0
 19 21  1  0
 20 19  2  0
M  END
$$$$
