ACK.pdb
     RDKit          3D

 21 20  0  0  1  0  0  0  0  0999 V2000
    7.3491  -18.7505   16.9474 C   0  0  0  0  0  0  0  0  0  0  0  0
    7.5378  -17.2539   16.7409 C   0  0  2  0  0  0  0  0  0  0  0  0
    8.3135  -17.0388   15.5331 N   0  0  0  0  0  0  0  0  0  0  0  0
    8.2452  -16.6276   17.8721 C   0  0  0  0  0  0  0  0  0  0  0  0
    9.5187  -16.5196   17.8761 O   0  0  0  0  0  0  0  0  0  0  0  0
    7.5884  -16.1064   19.0200 N   0  0  0  0  0  0  0  0  0  0  0  0
    8.2981  -15.6158   20.1859 C   0  0  1  0  0  0  0  0  0  0  0  0
    7.2584  -14.8717   21.0302 C   0  0  0  0  0  0  0  0  0  0  0  0
    5.9288  -15.9595   21.5480 S   0  0  0  0  0  0  0  0  0  0  0  0
    8.9101  -16.7226   20.9613 C   0  0  0  0  0  0  0  0  0  0  0  0
    8.3840  -17.8451   20.8947 O   0  0  0  0  0  0  0  0  0  0  0  0
   10.0468  -16.5863   21.7674 N   0  0  0  0  0  0  0  0  0  0  0  0
   10.7376  -17.5896   22.4679 C   0  0  1  0  0  0  0  0  0  0  0  0
   12.1135  -17.9366   22.0101 C   0  0  0  0  0  0  0  0  0  0  0  0
   12.6890  -19.1277   22.7370 C   0  0  0  0  0  0  0  0  0  0  0  0
   14.0406  -19.4549   22.1688 C   0  0  0  0  0  0  0  0  0  0  0  0
   14.7368  -20.6146   22.7872 C   0  0  0  0  0  0  0  0  0  0  0  0
   15.9373  -20.8667   22.0028 N   0  0  0  0  0  0  0  0  0  0  0  0
   10.8050  -17.2401   23.9038 C   0  0  0  0  0  0  0  0  0  0  0  0
   10.5855  -16.0949   24.3740 O   0  0  0  0  0  0  0  0  0  0  0  0
   11.1319  -18.2334   24.8087 O   0  0  0  0  0  0  0  0  0  0  0  0
  2  1  1  1
  2  3  1  0
  4  2  1  0
  5  4  2  0
  6  4  1  0
  7  6  1  0
  7 10  1  0
  7  8  1  1
  9  8  1  0
 10 11  2  0
 12 10  1  0
 12 13  1  0
 13 14  1  6
 14 15  1  0
 15 16  1  0
 16 17  1  0
 18 17  1  0
 19 13  1  0
 19 21  1  0
 20 19  2  0
M  END
$$$$
