ACK.pdb
     RDKit          3D

 21 20  0  0  1  0  0  0  0  0999 V2000
    7.3788  -12.6801   19.7276 C   0  0  0  0  0  0  0  0  0  0  0  0
    7.3811  -14.0254   20.4405 C   0  0  2  0  0  0  0  0  0  0  0  0
    6.0091  -14.4388   20.6715 N   0  0  0  0  0  0  0  0  0  0  0  0
    8.0772  -13.9590   21.7379 C   0  0  0  0  0  0  0  0  0  0  0  0
    9.3469  -13.8268   21.7999 O   0  0  0  0  0  0  0  0  0  0  0  0
    7.4130  -14.0344   22.9924 N   0  0  0  0  0  0  0  0  0  0  0  0
    8.1136  -14.0349   24.2624 C   0  0  1  0  0  0  0  0  0  0  0  0
    7.1622  -13.3799   25.2690 C   0  0  0  0  0  0  0  0  0  0  0  0
    5.7458  -14.4258   25.6144 S   0  0  0  0  0  0  0  0  0  0  0  0
    8.4685  -15.4096   24.6924 C   0  0  0  0  0  0  0  0  0  0  0  0
    7.6026  -16.2943   24.5988 O   0  0  0  0  0  0  0  0  0  0  0  0
    9.7203  -15.7789   25.1993 N   0  0  0  0  0  0  0  0  0  0  0  0
   10.1700  -17.0644   25.5454 C   0  0  1  0  0  0  0  0  0  0  0  0
   11.4377  -17.5481   24.9272 C   0  0  0  0  0  0  0  0  0  0  0  0
   11.3407  -18.9696   24.4291 C   0  0  0  0  0  0  0  0  0  0  0  0
   12.6113  -19.3379   23.7173 C   0  0  0  0  0  0  0  0  0  0  0  0
   12.6425  -20.6972   23.1147 C   0  0  0  0  0  0  0  0  0  0  0  0
   13.9291  -20.8457   22.4493 N   0  0  0  0  0  0  0  0  0  0  0  0
   10.3065  -17.1670   27.0149 C   0  0  0  0  0  0  0  0  0  0  0  0
   10.2756  -16.1915   27.8076 O   0  0  0  0  0  0  0  0  0  0  0  0
   10.4814  -18.4196   27.5742 O   0  0  0  0  0  0  0  0  0  0  0  0
  2  1  1  1
  2  3  1  0
  4  2  1  0
  5  4  2  0
  6  4  1  0
  7  6  1  0
  7 10  1  0
  7  8  1  1
  9  8  1  0
 10 11  2  0
 12 10  1  0
 12 13  1  0
 13 14  1  6
 14 15  1  0
 15 16  1  0
 16 17  1  0
 18 17  1  0
 19 13  1  0
 19 21  1  0
 20 19  2  0
M  END
$$$$
