KNS.pdb
     RDKit          3D

 24 23  0  0  1  0  0  0  0  0999 V2000
    0.7263  -20.7928   13.8576 N   0  0  0  0  0  0  0  0  0  0  0  0
    1.3951  -19.6620   14.4160 C   0  0  1  0  0  0  0  0  0  0  0  0
    0.5578  -19.0865   15.5344 C   0  0  0  0  0  0  0  0  0  0  0  0
   -0.6628  -19.9363   15.7964 C   0  0  0  0  0  0  0  0  0  0  0  0
   -1.4992  -19.4554   16.9354 C   0  0  0  0  0  0  0  0  0  0  0  0
   -2.6492  -20.4291   17.1037 C   0  0  0  0  0  0  0  0  0  0  0  0
   -3.5002  -20.0558   18.2023 N   0  0  0  0  0  0  0  0  0  0  0  0
    2.7476  -20.0159   14.8335 C   0  0  0  0  0  0  0  0  0  0  0  0
    3.0948  -21.1452   15.2679 O   0  0  0  0  0  0  0  0  0  0  0  0
    7.1246  -20.5646   12.7564 N   0  0  0  0  0  0  0  0  0  0  0  0
    6.2522  -19.4438   12.9146 C   0  0  0  0  0  0  0  0  0  0  0  0
    5.5535  -19.0281   11.9565 O   0  0  0  0  0  0  0  0  0  0  0  0
    6.1644  -18.7571   14.2218 C   0  0  0  0  0  0  0  0  0  0  0  0
    5.1434  -19.3582   15.1498 C   0  0  2  0  0  0  0  0  0  0  0  0
    3.7823  -19.0297   14.7567 N   0  0  0  0  0  0  0  0  0  0  0  0
    5.3202  -18.8841   16.5493 C   0  0  0  0  0  0  0  0  0  0  0  0
    5.1936  -17.6638   16.8722 O   0  0  0  0  0  0  0  0  0  0  0  0
    4.9433  -19.7921   21.1560 O   0  0  0  0  0  0  0  0  0  0  0  0
    4.8742  -20.2251   19.8364 C   0  0  0  0  0  0  0  0  0  0  0  0
    5.7549  -19.3202   19.0020 C   0  0  2  0  0  0  0  0  0  0  0  0
    5.6433  -19.7731   17.6159 N   0  0  0  0  0  0  0  0  0  0  0  0
    7.1646  -19.3559   19.4613 C   0  0  0  0  0  0  0  0  0  0  0  0
    8.1190  -19.7523   18.7671 O   0  0  0  0  0  0  0  0  0  0  0  0
    7.4210  -18.9163   20.7496 O   0  0  0  0  0  0  0  0  0  0  0  0
  2  8  1  0
  2  1  1  1
  3  2  1  0
  4  3  1  0
  5  4  1  0
  6  7  1  0
  6  5  1  0
  8  9  2  0
 11 10  1  0
 11 12  2  0
 13 11  1  0
 14 13  1  6
 15 14  1  0
 15  8  1  0
 16 14  1  0
 17 16  2  0
 18 19  1  0
 20 19  1  1
 20 21  1  0
 21 16  1  0
 22 24  1  0
 22 20  1  0
 23 22  2  0
M  END
$$$$
