KNS.pdb
     RDKit          3D

 24 23  0  0  1  0  0  0  0  0999 V2000
    8.3761  -18.1561   17.2320 N   0  0  0  0  0  0  0  0  0  0  0  0
    9.6743  -17.5702   17.1356 C   0  0  1  0  0  0  0  0  0  0  0  0
    9.8138  -16.8783   15.7996 C   0  0  0  0  0  0  0  0  0  0  0  0
    8.5863  -17.0872   14.9450 C   0  0  0  0  0  0  0  0  0  0  0  0
    8.6527  -16.4068   13.6179 C   0  0  0  0  0  0  0  0  0  0  0  0
    7.3911  -16.7631   12.8559 C   0  0  0  0  0  0  0  0  0  0  0  0
    7.4047  -16.2127   11.5265 N   0  0  0  0  0  0  0  0  0  0  0  0
    9.9284  -16.6880   18.2697 C   0  0  0  0  0  0  0  0  0  0  0  0
   11.0603  -16.2470   18.5995 O   0  0  0  0  0  0  0  0  0  0  0  0
    6.8601  -12.5110   19.2411 N   0  0  0  0  0  0  0  0  0  0  0  0
    8.0392  -13.2491   19.5683 C   0  0  0  0  0  0  0  0  0  0  0  0
    9.1609  -12.9104   19.1142 O   0  0  0  0  0  0  0  0  0  0  0  0
    7.9470  -14.4305   20.4537 C   0  0  0  0  0  0  0  0  0  0  0  0
    9.0589  -15.4240   20.2492 C   0  0  2  0  0  0  0  0  0  0  0  0
    8.8315  -16.2727   19.0903 N   0  0  0  0  0  0  0  0  0  0  0  0
    9.2211  -16.3231   21.4239 C   0  0  0  0  0  0  0  0  0  0  0  0
    8.2794  -17.0598   21.8481 O   0  0  0  0  0  0  0  0  0  0  0  0
   12.3163  -18.4195   22.1816 O   0  0  0  0  0  0  0  0  0  0  0  0
   11.0916  -18.6198   22.8089 C   0  0  0  0  0  0  0  0  0  0  0  0
   10.6018  -17.2798   23.3141 C   0  0  2  0  0  0  0  0  0  0  0  0
   10.4465  -16.4127   22.1467 N   0  0  0  0  0  0  0  0  0  0  0  0
   11.5445  -16.6884   24.2943 C   0  0  0  0  0  0  0  0  0  0  0  0
   12.2152  -15.6596   24.0903 O   0  0  0  0  0  0  0  0  0  0  0  0
   11.6772  -17.3341   25.5127 O   0  0  0  0  0  0  0  0  0  0  0  0
  2  8  1  0
  2  1  1  1
  3  2  1  0
  4  3  1  0
  5  4  1  0
  6  7  1  0
  6  5  1  0
  8  9  2  0
 11 10  1  0
 11 12  2  0
 13 11  1  0
 14 13  1  1
 15 14  1  0
 15  8  1  0
 16 14  1  0
 17 16  2  0
 18 19  1  0
 20 19  1  6
 20 21  1  0
 21 16  1  0
 22 24  1  0
 22 20  1  0
 23 22  2  0
M  END
$$$$
