KNS.pdb
     RDKit          3D

 24 23  0  0  1  0  0  0  0  0999 V2000
    9.2467  -14.7240   20.0170 N   0  0  0  0  0  0  0  0  0  0  0  0
    8.5618  -13.6957   20.7321 C   0  0  1  0  0  0  0  0  0  0  0  0
    7.4871  -13.1030   19.8508 C   0  0  0  0  0  0  0  0  0  0  0  0
    7.9498  -13.0031   18.4166 C   0  0  0  0  0  0  0  0  0  0  0  0
    7.6886  -14.2330   17.6118 C   0  0  0  0  0  0  0  0  0  0  0  0
    8.1642  -13.9654   16.1971 C   0  0  0  0  0  0  0  0  0  0  0  0
    7.7759  -15.0223   15.3013 N   0  0  0  0  0  0  0  0  0  0  0  0
    8.0504  -14.2019   22.0015 C   0  0  0  0  0  0  0  0  0  0  0  0
    7.2976  -13.5617   22.7811 O   0  0  0  0  0  0  0  0  0  0  0  0
    6.2398  -18.6699   25.2893 N   0  0  0  0  0  0  0  0  0  0  0  0
    7.5282  -18.1083   25.0311 C   0  0  0  0  0  0  0  0  0  0  0  0
    8.4158  -18.0905   25.9205 O   0  0  0  0  0  0  0  0  0  0  0  0
    7.8300  -17.5375   23.7003 C   0  0  0  0  0  0  0  0  0  0  0  0
    7.9511  -16.0374   23.7023 C   0  0  2  0  0  0  0  0  0  0  0  0
    8.4117  -15.5212   22.4232 N   0  0  0  0  0  0  0  0  0  0  0  0
    8.9094  -15.5607   24.7363 C   0  0  0  0  0  0  0  0  0  0  0  0
   10.1648  -15.6904   24.6074 O   0  0  0  0  0  0  0  0  0  0  0  0
    7.5821  -13.1118   27.6717 O   0  0  0  0  0  0  0  0  0  0  0  0
    8.9072  -12.9869   27.2694 C   0  0  0  0  0  0  0  0  0  0  0  0
    9.4162  -14.3652   26.9062 C   0  0  2  0  0  0  0  0  0  0  0  0
    8.4757  -14.9277   25.9377 N   0  0  0  0  0  0  0  0  0  0  0  0
    9.5337  -15.2359   28.1010 C   0  0  0  0  0  0  0  0  0  0  0  0
    8.9506  -16.3278   28.2336 O   0  0  0  0  0  0  0  0  0  0  0  0
   10.3493  -14.7920   29.1289 O   0  0  0  0  0  0  0  0  0  0  0  0
  2  8  1  0
  2  1  1  6
  3  2  1  0
  4  3  1  0
  5  4  1  0
  6  7  1  0
  6  5  1  0
  8  9  2  0
 11 10  1  0
 11 12  2  0
 13 11  1  0
 14 13  1  6
 15 14  1  0
 15  8  1  0
 16 14  1  0
 17 16  2  0
 18 19  1  0
 20 19  1  1
 20 21  1  0
 21 16  1  0
 22 24  1  0
 22 20  1  0
 23 22  2  0
M  END
$$$$
