KNS.pdb
     RDKit          3D

 24 23  0  0  1  0  0  0  0  0999 V2000
    7.2426  -15.8005   21.0795 N   0  0  0  0  0  0  0  0  0  0  0  0
    8.1536  -14.7369   21.3564 C   0  0  1  0  0  0  0  0  0  0  0  0
    7.5788  -13.4379   20.8414 C   0  0  0  0  0  0  0  0  0  0  0  0
    8.2738  -12.9965   19.5753 C   0  0  0  0  0  0  0  0  0  0  0  0
    7.8445  -13.7475   18.3586 C   0  0  0  0  0  0  0  0  0  0  0  0
    8.6374  -13.2094   17.1835 C   0  0  0  0  0  0  0  0  0  0  0  0
    8.3377  -13.9260   15.9724 N   0  0  0  0  0  0  0  0  0  0  0  0
    8.4841  -14.6965   22.7770 C   0  0  0  0  0  0  0  0  0  0  0  0
    9.3864  -13.9817   23.2863 O   0  0  0  0  0  0  0  0  0  0  0  0
    7.3241  -12.8111   25.3132 N   0  0  0  0  0  0  0  0  0  0  0  0
    6.4732  -13.7703   25.9440 C   0  0  0  0  0  0  0  0  0  0  0  0
    5.3990  -13.4193   26.4935 O   0  0  0  0  0  0  0  0  0  0  0  0
    6.8549  -15.1994   25.9551 C   0  0  0  0  0  0  0  0  0  0  0  0
    8.0609  -15.5066   25.1087 C   0  0  2  0  0  0  0  0  0  0  0  0
    7.7474  -15.5182   23.6886 N   0  0  0  0  0  0  0  0  0  0  0  0
    8.6444  -16.8354   25.4380 C   0  0  0  0  0  0  0  0  0  0  0  0
    8.0999  -17.9227   25.0763 O   0  0  0  0  0  0  0  0  0  0  0  0
   12.4812  -17.3784   26.1930 O   0  0  0  0  0  0  0  0  0  0  0  0
   11.6848  -18.4926   25.9524 C   0  0  0  0  0  0  0  0  0  0  0  0
   10.3514  -18.2684   26.6327 C   0  0  2  0  0  0  0  0  0  0  0  0
    9.8534  -16.9695   26.1814 N   0  0  0  0  0  0  0  0  0  0  0  0
   10.4794  -18.3050   28.1097 C   0  0  0  0  0  0  0  0  0  0  0  0
   10.1608  -17.3681   28.8651 O   0  0  0  0  0  0  0  0  0  0  0  0
   10.9884  -19.4643   28.6716 O   0  0  0  0  0  0  0  0  0  0  0  0
  2  8  1  0
  2  1  1  1
  3  2  1  0
  4  3  1  0
  5  4  1  0
  6  7  1  0
  6  5  1  0
  8  9  2  0
 11 10  1  0
 11 12  2  0
 13 11  1  0
 14 13  1  1
 15 14  1  0
 15  8  1  0
 16 14  1  0
 17 16  2  0
 18 19  1  0
 20 19  1  6
 20 21  1  0
 21 16  1  0
 22 24  1  0
 22 20  1  0
 23 22  2  0
M  END
$$$$
