KNS.pdb
     RDKit          3D

 24 23  0  0  1  0  0  0  0  0999 V2000
    8.8156  -17.8003   17.6312 N   0  0  0  0  0  0  0  0  0  0  0  0
    9.7333  -16.9105   18.2667 C   0  0  1  0  0  0  0  0  0  0  0  0
    9.0676  -15.5706   18.4778 C   0  0  0  0  0  0  0  0  0  0  0  0
    8.7848  -14.8873   17.1610 C   0  0  0  0  0  0  0  0  0  0  0  0
    7.9449  -13.6597   17.2869 C   0  0  0  0  0  0  0  0  0  0  0  0
    7.7170  -13.1142   15.8906 C   0  0  0  0  0  0  0  0  0  0  0  0
    7.2387  -14.1354   14.9968 N   0  0  0  0  0  0  0  0  0  0  0  0
   10.2513  -17.4959   19.4988 C   0  0  0  0  0  0  0  0  0  0  0  0
    9.5475  -18.0434   20.3873 O   0  0  0  0  0  0  0  0  0  0  0  0
   14.5760  -19.6520   18.5761 N   0  0  0  0  0  0  0  0  0  0  0  0
   13.6586  -19.7340   19.6687 C   0  0  0  0  0  0  0  0  0  0  0  0
   12.8903  -20.7202   19.7953 O   0  0  0  0  0  0  0  0  0  0  0  0
   13.6060  -18.6464   20.6699 C   0  0  0  0  0  0  0  0  0  0  0  0
   12.2166  -18.1240   20.9184 C   0  0  2  0  0  0  0  0  0  0  0  0
   11.6604  -17.4628   19.7486 N   0  0  0  0  0  0  0  0  0  0  0  0
   12.1868  -17.1380   22.0328 C   0  0  0  0  0  0  0  0  0  0  0  0
   12.8612  -16.0639   22.0050 O   0  0  0  0  0  0  0  0  0  0  0  0
    9.1428  -16.9171   24.6098 O   0  0  0  0  0  0  0  0  0  0  0  0
   10.0194  -15.8471   24.4675 C   0  0  0  0  0  0  0  0  0  0  0  0
   11.4190  -16.4062   24.3283 C   0  0  2  0  0  0  0  0  0  0  0  0
   11.3974  -17.3396   23.2026 N   0  0  0  0  0  0  0  0  0  0  0  0
   11.8626  -17.0824   25.5714 C   0  0  0  0  0  0  0  0  0  0  0  0
   12.0597  -18.3075   25.6718 O   0  0  0  0  0  0  0  0  0  0  0  0
   12.0670  -16.2857   26.6860 O   0  0  0  0  0  0  0  0  0  0  0  0
  2  8  1  0
  2  1  1  1
  3  2  1  0
  4  3  1  0
  5  4  1  0
  6  7  1  0
  6  5  1  0
  8  9  2  0
 11 10  1  0
 11 12  2  0
 13 11  1  0
 14 13  1  6
 15 14  1  0
 15  8  1  0
 16 14  1  0
 17 16  2  0
 18 19  1  0
 20 19  1  1
 20 21  1  0
 21 16  1  0
 22 24  1  0
 22 20  1  0
 23 22  2  0
M  END
$$$$
