KNS.pdb
     RDKit          3D

 24 23  0  0  1  0  0  0  0  0999 V2000
   13.9471  -16.6131   18.0507 N   0  0  0  0  0  0  0  0  0  0  0  0
   14.1413  -15.2115   17.8617 C   0  0  1  0  0  0  0  0  0  0  0  0
   14.3278  -14.9255   16.3898 C   0  0  0  0  0  0  0  0  0  0  0  0
   13.2392  -15.5706   15.5653 C   0  0  0  0  0  0  0  0  0  0  0  0
   13.4196  -15.4046   14.0928 C   0  0  0  0  0  0  0  0  0  0  0  0
   12.2331  -16.0553   13.4088 C   0  0  0  0  0  0  0  0  0  0  0  0
   12.3649  -16.0194   11.9764 N   0  0  0  0  0  0  0  0  0  0  0  0
   13.0483  -14.4531   18.4610 C   0  0  0  0  0  0  0  0  0  0  0  0
   13.0330  -13.2025   18.6035 O   0  0  0  0  0  0  0  0  0  0  0  0
    9.0278  -15.4494   16.5615 N   0  0  0  0  0  0  0  0  0  0  0  0
    9.2109  -14.4598   17.5761 C   0  0  0  0  0  0  0  0  0  0  0  0
    9.1718  -13.2347   17.2990 O   0  0  0  0  0  0  0  0  0  0  0  0
    9.4506  -14.8748   18.9755 C   0  0  0  0  0  0  0  0  0  0  0  0
   10.7785  -14.4204   19.5188 C   0  0  2  0  0  0  0  0  0  0  0  0
   11.8913  -15.1510   18.9333 N   0  0  0  0  0  0  0  0  0  0  0  0
   10.8647  -14.6017   20.9935 C   0  0  0  0  0  0  0  0  0  0  0  0
    9.8875  -14.3558   21.7643 O   0  0  0  0  0  0  0  0  0  0  0  0
   11.1448  -17.5386   24.0966 O   0  0  0  0  0  0  0  0  0  0  0  0
   11.1393  -16.9041   22.8593 C   0  0  0  0  0  0  0  0  0  0  0  0
   12.0341  -15.6873   22.9552 C   0  0  2  0  0  0  0  0  0  0  0  0
   12.0523  -15.0636   21.6325 N   0  0  0  0  0  0  0  0  0  0  0  0
   13.4044  -16.0505   23.3908 C   0  0  0  0  0  0  0  0  0  0  0  0
   13.7041  -16.3965   24.5485 O   0  0  0  0  0  0  0  0  0  0  0  0
   14.4064  -15.9965   22.4359 O   0  0  0  0  0  0  0  0  0  0  0  0
  2  8  1  0
  2  1  1  6
  3  2  1  0
  4  3  1  0
  5  4  1  0
  6  7  1  0
  6  5  1  0
  8  9  2  0
 11 10  1  0
 11 12  2  0
 13 11  1  0
 14 13  1  6
 15 14  1  0
 15  8  1  0
 16 14  1  0
 17 16  2  0
 18 19  1  0
 20 19  1  6
 20 21  1  0
 21 16  1  0
 22 24  1  0
 22 20  1  0
 23 22  2  0
M  END
$$$$
