KNS.pdb
     RDKit          3D

 24 23  0  0  1  0  0  0  0  0999 V2000
   13.5046  -19.5943   16.5485 N   0  0  0  0  0  0  0  0  0  0  0  0
   13.2933  -18.2896   17.0880 C   0  0  1  0  0  0  0  0  0  0  0  0
   11.8575  -17.8787   16.8580 C   0  0  0  0  0  0  0  0  0  0  0  0
   11.5357  -17.8184   15.3837 C   0  0  0  0  0  0  0  0  0  0  0  0
   10.1767  -17.2777   15.0849 C   0  0  0  0  0  0  0  0  0  0  0  0
   10.0890  -17.0587   13.5870 C   0  0  0  0  0  0  0  0  0  0  0  0
    8.7841  -16.5942   13.1973 N   0  0  0  0  0  0  0  0  0  0  0  0
   13.6876  -18.2411   18.4919 C   0  0  0  0  0  0  0  0  0  0  0  0
   13.5696  -19.1936   19.3064 O   0  0  0  0  0  0  0  0  0  0  0  0
   18.1175  -16.6302   19.1978 N   0  0  0  0  0  0  0  0  0  0  0  0
   17.1177  -17.2008   20.0445 C   0  0  0  0  0  0  0  0  0  0  0  0
   17.1480  -18.4192   20.3504 O   0  0  0  0  0  0  0  0  0  0  0  0
   16.0277  -16.3519   20.5730 C   0  0  0  0  0  0  0  0  0  0  0  0
   14.6600  -16.9587   20.4108 C   0  0  2  0  0  0  0  0  0  0  0  0
   14.2546  -17.0359   19.0163 N   0  0  0  0  0  0  0  0  0  0  0  0
   13.6175  -16.1735   21.1259 C   0  0  0  0  0  0  0  0  0  0  0  0
   13.5453  -14.9097   21.0423 O   0  0  0  0  0  0  0  0  0  0  0  0
   10.0308  -17.3327   21.9279 O   0  0  0  0  0  0  0  0  0  0  0  0
   10.3845  -16.0157   22.1999 C   0  0  0  0  0  0  0  0  0  0  0  0
   11.7588  -16.0234   22.8339 C   0  0  2  0  0  0  0  0  0  0  0  0
   12.6338  -16.7935   21.9505 N   0  0  0  0  0  0  0  0  0  0  0  0
   11.7283  -16.6100   24.1956 C   0  0  0  0  0  0  0  0  0  0  0  0
   12.3437  -17.6391   24.5303 O   0  0  0  0  0  0  0  0  0  0  0  0
   10.9603  -15.9593   25.1472 O   0  0  0  0  0  0  0  0  0  0  0  0
  2  8  1  0
  2  1  1  1
  3  2  1  0
  4  3  1  0
  5  4  1  0
  6  7  1  0
  6  5  1  0
  8  9  2  0
 11 10  1  0
 11 12  2  0
 13 11  1  0
 14 13  1  6
 15 14  1  0
 15  8  1  0
 16 14  1  0
 17 16  2  0
 18 19  1  0
 20 19  1  6
 20 21  1  0
 21 16  1  0
 22 24  1  0
 22 20  1  0
 23 22  2  0
M  END
$$$$
