KNS.pdb
     RDKit          3D

 24 23  0  0  1  0  0  0  0  0999 V2000
    9.9267  -15.7358   17.8489 N   0  0  0  0  0  0  0  0  0  0  0  0
   10.7748  -16.8609   17.6192 C   0  0  1  0  0  0  0  0  0  0  0  0
   10.8932  -17.1040   16.1326 C   0  0  0  0  0  0  0  0  0  0  0  0
    9.5374  -17.0948   15.4675 C   0  0  0  0  0  0  0  0  0  0  0  0
    9.5833  -17.3700   14.0010 C   0  0  0  0  0  0  0  0  0  0  0  0
    8.1629  -17.2963   13.4755 C   0  0  0  0  0  0  0  0  0  0  0  0
    8.1234  -17.4220   12.0426 N   0  0  0  0  0  0  0  0  0  0  0  0
   12.0645  -16.6784   18.2768 C   0  0  0  0  0  0  0  0  0  0  0  0
   13.0181  -17.4989   18.2320 O   0  0  0  0  0  0  0  0  0  0  0  0
   15.3902  -15.4361   17.6178 N   0  0  0  0  0  0  0  0  0  0  0  0
   15.1649  -14.1485   18.1951 C   0  0  0  0  0  0  0  0  0  0  0  0
   15.7487  -13.1289   17.7493 O   0  0  0  0  0  0  0  0  0  0  0  0
   14.2325  -14.0047   19.3344 C   0  0  0  0  0  0  0  0  0  0  0  0
   13.5620  -15.2929   19.7294 C   0  0  2  0  0  0  0  0  0  0  0  0
   12.2975  -15.4890   19.0383 N   0  0  0  0  0  0  0  0  0  0  0  0
   13.2744  -15.3426   21.1887 C   0  0  0  0  0  0  0  0  0  0  0  0
   14.1937  -15.3012   22.0620 O   0  0  0  0  0  0  0  0  0  0  0  0
    9.3750  -15.5637   22.5911 O   0  0  0  0  0  0  0  0  0  0  0  0
   10.3031  -14.8369   23.3287 C   0  0  0  0  0  0  0  0  0  0  0  0
   11.6603  -15.4767   23.1307 C   0  0  2  0  0  0  0  0  0  0  0  0
   11.9460  -15.4402   21.6969 N   0  0  0  0  0  0  0  0  0  0  0  0
   11.6876  -16.8682   23.6431 C   0  0  0  0  0  0  0  0  0  0  0  0
   11.7932  -17.8789   22.9240 O   0  0  0  0  0  0  0  0  0  0  0  0
   11.5883  -17.0389   25.0142 O   0  0  0  0  0  0  0  0  0  0  0  0
  2  8  1  0
  2  1  1  6
  3  2  1  0
  4  3  1  0
  5  4  1  0
  6  7  1  0
  6  5  1  0
  8  9  2  0
 11 10  1  0
 11 12  2  0
 13 11  1  0
 14 13  1  1
 15 14  1  0
 15  8  1  0
 16 14  1  0
 17 16  2  0
 18 19  1  0
 20 19  1  6
 20 21  1  0
 21 16  1  0
 22 24  1  0
 22 20  1  0
 23 22  2  0
M  END
$$$$
