KNS.pdb
     RDKit          3D

 24 23  0  0  1  0  0  0  0  0999 V2000
   12.2705  -15.4996   18.3944 N   0  0  0  0  0  0  0  0  0  0  0  0
   11.2149  -14.9222   19.1626 C   0  0  1  0  0  0  0  0  0  0  0  0
    9.8848  -15.3649   18.5988 C   0  0  0  0  0  0  0  0  0  0  0  0
    9.1797  -14.2253   17.9024 C   0  0  0  0  0  0  0  0  0  0  0  0
    8.5538  -14.6079   16.6024 C   0  0  0  0  0  0  0  0  0  0  0  0
    8.0205  -13.3424   15.9596 C   0  0  0  0  0  0  0  0  0  0  0  0
    7.5758  -13.5820   14.6123 N   0  0  0  0  0  0  0  0  0  0  0  0
   11.3735  -15.2384   20.5782 C   0  0  0  0  0  0  0  0  0  0  0  0
   12.4663  -15.2173   21.2027 O   0  0  0  0  0  0  0  0  0  0  0  0
    9.1364  -13.6563   25.4832 N   0  0  0  0  0  0  0  0  0  0  0  0
    8.8371  -14.8658   24.7836 C   0  0  0  0  0  0  0  0  0  0  0  0
    8.5021  -15.9058   25.4043 O   0  0  0  0  0  0  0  0  0  0  0  0
    8.9202  -14.9030   23.3072 C   0  0  0  0  0  0  0  0  0  0  0  0
   10.2220  -15.4550   22.7916 C   0  0  2  0  0  0  0  0  0  0  0  0
   10.2215  -15.6041   21.3449 N   0  0  0  0  0  0  0  0  0  0  0  0
   10.5231  -16.7934   23.3685 C   0  0  0  0  0  0  0  0  0  0  0  0
   10.6558  -16.9787   24.6165 O   0  0  0  0  0  0  0  0  0  0  0  0
    9.8639  -20.3588   21.3899 O   0  0  0  0  0  0  0  0  0  0  0  0
   11.1280  -20.2253   21.9537 C   0  0  0  0  0  0  0  0  0  0  0  0
   11.0214  -19.2595   23.1141 C   0  0  2  0  0  0  0  0  0  0  0  0
   10.6814  -17.9522   22.5534 N   0  0  0  0  0  0  0  0  0  0  0  0
   12.2851  -19.1941   23.8875 C   0  0  0  0  0  0  0  0  0  0  0  0
   13.2996  -18.5714   23.5228 O   0  0  0  0  0  0  0  0  0  0  0  0
   12.3246  -19.8755   25.0928 O   0  0  0  0  0  0  0  0  0  0  0  0
  2  8  1  0
  2  1  1  6
  3  2  1  0
  4  3  1  0
  5  4  1  0
  6  7  1  0
  6  5  1  0
  8  9  2  0
 11 10  1  0
 11 12  2  0
 13 11  1  0
 14 13  1  1
 15 14  1  0
 15  8  1  0
 16 14  1  0
 17 16  2  0
 18 19  1  0
 20 19  1  6
 20 21  1  0
 21 16  1  0
 22 24  1  0
 22 20  1  0
 23 22  2  0
M  END
$$$$
