KNS.pdb
     RDKit          3D

 24 23  0  0  1  0  0  0  0  0999 V2000
   10.0600  -17.3008   17.9014 N   0  0  0  0  0  0  0  0  0  0  0  0
   10.9481  -16.7543   18.8763 C   0  0  1  0  0  0  0  0  0  0  0  0
   10.7916  -15.2518   18.9105 C   0  0  0  0  0  0  0  0  0  0  0  0
    9.3347  -14.8541   18.9187 C   0  0  0  0  0  0  0  0  0  0  0  0
    9.1120  -13.3792   18.8606 C   0  0  0  0  0  0  0  0  0  0  0  0
    7.6199  -13.1354   18.9760 C   0  0  0  0  0  0  0  0  0  0  0  0
    7.3098  -11.7310   18.9301 N   0  0  0  0  0  0  0  0  0  0  0  0
   10.7395  -17.3841   20.1758 C   0  0  0  0  0  0  0  0  0  0  0  0
    9.7015  -18.0108   20.5139 O   0  0  0  0  0  0  0  0  0  0  0  0
   13.7429  -19.2799   25.1162 N   0  0  0  0  0  0  0  0  0  0  0  0
   12.7031  -19.4325   24.1479 C   0  0  0  0  0  0  0  0  0  0  0  0
   11.6825  -20.1216   24.3982 O   0  0  0  0  0  0  0  0  0  0  0  0
   12.8217  -18.7731   22.8291 C   0  0  0  0  0  0  0  0  0  0  0  0
   11.6120  -17.9614   22.4513 C   0  0  2  0  0  0  0  0  0  0  0  0
   11.7715  -17.3031   21.1644 N   0  0  0  0  0  0  0  0  0  0  0  0
   11.3233  -16.8989   23.4525 C   0  0  0  0  0  0  0  0  0  0  0  0
   12.1114  -15.9253   23.6533 O   0  0  0  0  0  0  0  0  0  0  0  0
    7.9174  -16.0777   24.1238 O   0  0  0  0  0  0  0  0  0  0  0  0
    8.5392  -15.3778   25.1519 C   0  0  0  0  0  0  0  0  0  0  0  0
    9.9259  -15.9553   25.3371 C   0  0  2  0  0  0  0  0  0  0  0  0
   10.1414  -16.9091   24.2495 N   0  0  0  0  0  0  0  0  0  0  0  0
   10.0711  -16.6133   26.6581 C   0  0  0  0  0  0  0  0  0  0  0  0
   10.3064  -17.8255   26.8163 O   0  0  0  0  0  0  0  0  0  0  0  0
    9.9334  -15.8140   27.7810 O   0  0  0  0  0  0  0  0  0  0  0  0
  2  8  1  0
  2  1  1  6
  3  2  1  0
  4  3  1  0
  5  4  1  0
  6  7  1  0
  6  5  1  0
  8  9  2  0
 11 10  1  0
 11 12  2  0
 13 11  1  0
 14 13  1  1
 15 14  1  0
 15  8  1  0
 16 14  1  0
 17 16  2  0
 18 19  1  0
 20 19  1  6
 20 21  1  0
 21 16  1  0
 22 24  1  0
 22 20  1  0
 23 22  2  0
M  END
$$$$
