KNS.pdb
     RDKit          3D

 24 23  0  0  1  0  0  0  0  0999 V2000
    5.5088  -16.4265   21.0161 N   0  0  0  0  0  0  0  0  0  0  0  0
    6.7496  -16.1217   21.6530 C   0  0  1  0  0  0  0  0  0  0  0  0
    7.1335  -14.6932   21.3444 C   0  0  0  0  0  0  0  0  0  0  0  0
    7.6987  -14.5682   19.9495 C   0  0  0  0  0  0  0  0  0  0  0  0
    8.1497  -13.1879   19.6032 C   0  0  0  0  0  0  0  0  0  0  0  0
    8.6021  -13.2025   18.1560 C   0  0  0  0  0  0  0  0  0  0  0  0
    9.0663  -11.9071   17.7354 N   0  0  0  0  0  0  0  0  0  0  0  0
    6.6788  -16.4022   23.0831 C   0  0  0  0  0  0  0  0  0  0  0  0
    5.6873  -16.1534   23.8175 O   0  0  0  0  0  0  0  0  0  0  0  0
    7.5206  -17.9120   27.8701 N   0  0  0  0  0  0  0  0  0  0  0  0
    7.5736  -18.9947   26.9390 C   0  0  0  0  0  0  0  0  0  0  0  0
    7.5114  -20.1874   27.3300 O   0  0  0  0  0  0  0  0  0  0  0  0
    7.7034  -18.7166   25.4920 C   0  0  0  0  0  0  0  0  0  0  0  0
    7.7816  -17.2495   25.1659 C   0  0  2  0  0  0  0  0  0  0  0  0
    7.8030  -17.0051   23.7324 N   0  0  0  0  0  0  0  0  0  0  0  0
    9.0047  -16.6204   25.7344 C   0  0  0  0  0  0  0  0  0  0  0  0
   10.1660  -16.8767   25.2928 O   0  0  0  0  0  0  0  0  0  0  0  0
    8.6345  -13.6751   28.4836 O   0  0  0  0  0  0  0  0  0  0  0  0
    9.8265  -13.6789   27.7675 C   0  0  0  0  0  0  0  0  0  0  0  0
   10.1513  -15.1134   27.4104 C   0  0  2  0  0  0  0  0  0  0  0  0
    8.9473  -15.6891   26.8122 N   0  0  0  0  0  0  0  0  0  0  0  0
   10.5769  -15.8891   28.6006 C   0  0  0  0  0  0  0  0  0  0  0  0
    9.9792  -16.8905   29.0360 O   0  0  0  0  0  0  0  0  0  0  0  0
   11.7161  -15.4592   29.2611 O   0  0  0  0  0  0  0  0  0  0  0  0
  2  8  1  0
  2  1  1  1
  3  2  1  0
  4  3  1  0
  5  4  1  0
  6  7  1  0
  6  5  1  0
  8  9  2  0
 11 10  1  0
 11 12  2  0
 13 11  1  0
 14 13  1  6
 15 14  1  0
 15  8  1  0
 16 14  1  0
 17 16  2  0
 18 19  1  0
 20 19  1  1
 20 21  1  0
 21 16  1  0
 22 24  1  0
 22 20  1  0
 23 22  2  0
M  END
$$$$
