KNS.pdb
     RDKit          3D

 24 23  0  0  1  0  0  0  0  0999 V2000
    7.3588  -15.8058   20.1592 N   0  0  0  0  0  0  0  0  0  0  0  0
    8.5502  -15.0197   20.1770 C   0  0  1  0  0  0  0  0  0  0  0  0
    8.2082  -13.5840   19.8529 C   0  0  0  0  0  0  0  0  0  0  0  0
    7.4662  -13.4816   18.5415 C   0  0  0  0  0  0  0  0  0  0  0  0
    8.3396  -13.6370   17.3409 C   0  0  0  0  0  0  0  0  0  0  0  0
    7.4824  -13.3900   16.1147 C   0  0  0  0  0  0  0  0  0  0  0  0
    8.2289  -13.5882   14.9007 N   0  0  0  0  0  0  0  0  0  0  0  0
    9.2503  -15.1713   21.4482 C   0  0  0  0  0  0  0  0  0  0  0  0
   10.2601  -14.5062   21.7979 O   0  0  0  0  0  0  0  0  0  0  0  0
    6.2087  -16.8724   24.4501 N   0  0  0  0  0  0  0  0  0  0  0  0
    7.4525  -16.4230   24.9917 C   0  0  0  0  0  0  0  0  0  0  0  0
    7.5011  -15.4345   25.7660 O   0  0  0  0  0  0  0  0  0  0  0  0
    8.7059  -17.1260   24.6409 C   0  0  0  0  0  0  0  0  0  0  0  0
    9.5314  -16.4054   23.6093 C   0  0  2  0  0  0  0  0  0  0  0  0
    8.7809  -16.1395   22.3923 N   0  0  0  0  0  0  0  0  0  0  0  0
   10.7351  -17.1882   23.2179 C   0  0  0  0  0  0  0  0  0  0  0  0
   10.6530  -18.2915   22.5970 O   0  0  0  0  0  0  0  0  0  0  0  0
   13.4270  -17.1073   20.7965 O   0  0  0  0  0  0  0  0  0  0  0  0
   13.9274  -16.6905   22.0251 C   0  0  0  0  0  0  0  0  0  0  0  0
   13.2422  -17.4985   23.1060 C   0  0  2  0  0  0  0  0  0  0  0  0
   12.0570  -16.7464   23.5168 N   0  0  0  0  0  0  0  0  0  0  0  0
   14.1430  -17.7427   24.2586 C   0  0  0  0  0  0  0  0  0  0  0  0
   13.9332  -17.3278   25.4134 O   0  0  0  0  0  0  0  0  0  0  0  0
   15.2893  -18.4826   24.0193 O   0  0  0  0  0  0  0  0  0  0  0  0
  2  8  1  0
  2  1  1  1
  3  2  1  0
  4  3  1  0
  5  4  1  0
  6  7  1  0
  6  5  1  0
  8  9  2  0
 11 10  1  0
 11 12  2  0
 13 11  1  0
 14 13  1  1
 15 14  1  0
 15  8  1  0
 16 14  1  0
 17 16  2  0
 18 19  1  0
 20 19  1  6
 20 21  1  0
 21 16  1  0
 22 24  1  0
 22 20  1  0
 23 22  2  0
M  END
$$$$
