RYV.pdb
     RDKit          3D

 31 31  0  0  1  0  0  0  0  0999 V2000
    8.5253  -12.1804   16.7297 N   0  0  0  0  0  0  0  0  0  0  0  0
    8.1605  -13.5118   16.4498 C   0  0  0  0  0  0  0  0  0  0  0  0
    8.2704  -13.9838   15.2321 N   0  0  0  0  0  0  0  0  0  0  0  0
    7.6676  -14.3749   17.4678 N   0  0  0  0  0  0  0  0  0  0  0  0
    7.9453  -14.1139   18.8424 C   0  0  0  0  0  0  0  0  0  0  0  0
    7.2512  -15.1480   19.7193 C   0  0  0  0  0  0  0  0  0  0  0  0
    7.5060  -14.8246   21.1629 C   0  0  0  0  0  0  0  0  0  0  0  0
    8.3154  -15.8957   21.8576 C   0  0  2  0  0  0  0  0  0  0  0  0
    7.4825  -17.1026   22.0218 N   0  0  0  0  0  0  0  0  0  0  0  0
    8.8159  -15.5055   23.1909 C   0  0  0  0  0  0  0  0  0  0  0  0
    9.6427  -14.5515   23.3856 O   0  0  0  0  0  0  0  0  0  0  0  0
    8.1002  -14.9906   15.0358 O   0  0  0  0  0  0  0  0  0  0  0  0
    5.9362  -10.1273   25.9368 C   0  0  0  0  0  0  0  0  0  0  0  0
    6.3205  -11.4750   26.0594 C   0  0  0  0  0  0  0  0  0  0  0  0
    5.4736  -12.4744   25.6953 C   0  0  0  0  0  0  0  0  0  0  0  0
    5.8488  -13.7940   25.8150 C   0  0  0  0  0  0  0  0  0  0  0  0
    7.0856  -14.1530   26.3040 C   0  0  0  0  0  0  0  0  0  0  0  0
    7.5345  -15.5449   26.4536 C   0  0  2  0  0  0  0  0  0  0  0  0
    8.7821  -15.8769   25.6927 N   0  0  0  0  0  0  0  0  0  0  0  0
    8.3684  -16.2142   24.3344 C   0  0  0  0  0  0  0  0  0  0  0  0
    9.4946  -17.0684   26.2210 O   0  0  0  0  0  0  0  0  0  0  0  0
    9.0761  -18.2308   25.9844 C   0  0  0  0  0  0  0  0  0  0  0  0
    7.9386  -13.1351   26.6710 C   0  0  0  0  0  0  0  0  0  0  0  0
    7.5670  -11.8024   26.5530 C   0  0  0  0  0  0  0  0  0  0  0  0
   13.3431  -17.7003   26.2605 C   0  0  2  0  0  0  0  0  0  0  0  0
   12.8430  -17.9402   27.6742 C   0  0  0  0  0  0  0  0  0  0  0  0
   13.1440  -16.6681   28.4483 C   0  0  2  0  0  0  0  0  0  0  0  0
   11.3553  -18.0987   27.5895 N   0  0  0  0  0  0  0  0  0  0  0  0
   10.6680  -16.9864   27.0101 C   0  0  0  0  0  0  0  0  0  0  0  0
   10.8209  -18.4153   28.9233 O   0  0  0  0  0  0  0  0  0  0  0  0
    9.9765  -17.6398   29.4356 O   0  0  0  0  0  0  0  0  0  0  0  0
  2  1  1  0
  2  3  2  0
  4  5  1  0
  4  2  1  0
  6  5  1  0
  7  6  1  0
  8  9  1  1
  8  7  1  0
 10  8  1  0
 10 11  2  0
 12 13  1  0
 13 23  2  0
 14 15  2  0
 14 13  1  0
 15 16  1  0
 16 17  1  0
 16 22  2  0
 18 17  1  6
 18 19  1  0
 19 10  1  0
 20 18  1  0
 21 20  2  0
 23 22  1  0
 25 24  1  1
 25 27  1  0
 26 25  1  0
 27 29  1  0
 27 28  1  1
 28 20  1  0
 29 31  1  0
 30 29  2  0
M  END
$$$$
