RYV.pdb
     RDKit          3D

 31 31  0  0  1  0  0  0  0  0999 V2000
   12.8968  -18.2226   15.7627 N   0  0  0  0  0  0  0  0  0  0  0  0
   14.0634  -18.2714   16.5505 C   0  0  0  0  0  0  0  0  0  0  0  0
   15.2239  -17.9535   16.0310 N   0  0  0  0  0  0  0  0  0  0  0  0
   14.0187  -18.6626   17.9177 N   0  0  0  0  0  0  0  0  0  0  0  0
   12.7712  -18.8950   18.5691 C   0  0  0  0  0  0  0  0  0  0  0  0
   12.0627  -17.5711   18.8249 C   0  0  0  0  0  0  0  0  0  0  0  0
   10.7814  -17.8295   19.5632 C   0  0  0  0  0  0  0  0  0  0  0  0
   11.0084  -18.0872   21.0353 C   0  0  2  0  0  0  0  0  0  0  0  0
   10.0100  -19.0616   21.5162 N   0  0  0  0  0  0  0  0  0  0  0  0
   10.9097  -16.8816   21.8822 C   0  0  0  0  0  0  0  0  0  0  0  0
   11.7171  -15.8946   21.8059 O   0  0  0  0  0  0  0  0  0  0  0  0
   16.0803  -17.9292   16.6202 O   0  0  0  0  0  0  0  0  0  0  0  0
    6.8957  -13.1940   18.3227 C   0  0  0  0  0  0  0  0  0  0  0  0
    7.2228  -13.6878   19.5987 C   0  0  0  0  0  0  0  0  0  0  0  0
    7.9848  -12.9540   20.4528 C   0  0  0  0  0  0  0  0  0  0  0  0
    8.3056  -13.4365   21.7021 C   0  0  0  0  0  0  0  0  0  0  0  0
    7.8722  -14.6706   22.1342 C   0  0  0  0  0  0  0  0  0  0  0  0
    8.1874  -15.2327   23.4557 C   0  0  2  0  0  0  0  0  0  0  0  0
    9.6288  -15.5964   23.6445 N   0  0  0  0  0  0  0  0  0  0  0  0
    9.8693  -16.7908   22.8409 C   0  0  0  0  0  0  0  0  0  0  0  0
    9.9660  -15.9595   25.0448 O   0  0  0  0  0  0  0  0  0  0  0  0
   10.3811  -17.1114   25.3330 C   0  0  0  0  0  0  0  0  0  0  0  0
    7.1005  -15.4087   21.2635 C   0  0  0  0  0  0  0  0  0  0  0  0
    6.7731  -14.9285   20.0024 C   0  0  0  0  0  0  0  0  0  0  0  0
   10.7551  -14.5147   29.7037 C   0  0  2  0  0  0  0  0  0  0  0  0
    9.9379  -14.2358   28.4545 C   0  0  0  0  0  0  0  0  0  0  0  0
   10.4663  -12.9283   27.8894 C   0  0  1  0  0  0  0  0  0  0  0  0
   10.2469  -15.3297   27.4780 N   0  0  0  0  0  0  0  0  0  0  0  0
    9.8483  -15.0588   26.1317 C   0  0  0  0  0  0  0  0  0  0  0  0
    9.6650  -16.5927   27.9589 O   0  0  0  0  0  0  0  0  0  0  0  0
    8.5270  -16.9288   27.5480 O   0  0  0  0  0  0  0  0  0  0  0  0
  2  1  1  0
  2  3  2  0
  4  5  1  0
  4  2  1  0
  6  5  1  0
  7  6  1  0
  8  9  1  1
  8  7  1  0
 10  8  1  0
 10 11  2  0
 12 13  1  0
 13 23  2  0
 14 15  2  0
 14 13  1  0
 15 16  1  0
 16 17  1  0
 16 22  2  0
 18 17  1  6
 18 19  1  0
 19 10  1  0
 20 18  1  0
 21 20  2  0
 23 22  1  0
 25 24  1  1
 25 27  1  0
 26 25  1  0
 27 29  1  0
 27 28  1  1
 28 20  1  0
 29 31  1  0
 30 29  2  0
M  END
$$$$
