RYV.pdb
     RDKit          3D

 31 31  0  0  1  0  0  0  0  0999 V2000
    7.9035  -22.4440   16.7628 N   0  0  0  0  0  0  0  0  0  0  0  0
    8.9323  -22.2963   15.8122 C   0  0  0  0  0  0  0  0  0  0  0  0
    9.1142  -23.2093   14.8896 N   0  0  0  0  0  0  0  0  0  0  0  0
    9.7953  -21.1652   15.8238 N   0  0  0  0  0  0  0  0  0  0  0  0
    9.5476  -20.0682   16.7012 C   0  0  0  0  0  0  0  0  0  0  0  0
    9.7761  -20.4947   18.1455 C   0  0  0  0  0  0  0  0  0  0  0  0
   10.4751  -19.3902   18.8836 C   0  0  0  0  0  0  0  0  0  0  0  0
    9.5925  -18.1778   19.0740 C   0  0  2  0  0  0  0  0  0  0  0  0
    9.5786  -17.3879   17.8277 N   0  0  0  0  0  0  0  0  0  0  0  0
   10.0189  -17.2862   20.1711 C   0  0  0  0  0  0  0  0  0  0  0  0
   11.1373  -16.6692   20.1881 O   0  0  0  0  0  0  0  0  0  0  0  0
    9.9231  -23.1524   14.2388 O   0  0  0  0  0  0  0  0  0  0  0  0
    7.4537  -11.7796   18.2443 C   0  0  0  0  0  0  0  0  0  0  0  0
    7.6622  -12.6594   19.3220 C   0  0  0  0  0  0  0  0  0  0  0  0
    6.8053  -13.6893   19.5534 C   0  0  0  0  0  0  0  0  0  0  0  0
    7.0086  -14.5510   20.6083 C   0  0  0  0  0  0  0  0  0  0  0  0
    8.0780  -14.4068   21.4645 C   0  0  0  0  0  0  0  0  0  0  0  0
    8.3395  -15.2968   22.6052 C   0  0  2  0  0  0  0  0  0  0  0  0
    9.4961  -16.2292   22.4089 N   0  0  0  0  0  0  0  0  0  0  0  0
    9.1563  -17.0876   21.2785 C   0  0  0  0  0  0  0  0  0  0  0  0
    9.7274  -17.1323   23.5653 O   0  0  0  0  0  0  0  0  0  0  0  0
    8.8119  -17.8795   23.9965 C   0  0  0  0  0  0  0  0  0  0  0  0
    8.9422  -13.3611   21.2240 C   0  0  0  0  0  0  0  0  0  0  0  0
    8.7435  -12.4884   20.1624 C   0  0  0  0  0  0  0  0  0  0  0  0
   12.8297  -19.4764   26.5786 C   0  0  2  0  0  0  0  0  0  0  0  0
   12.7220  -18.4170   25.4958 C   0  0  0  0  0  0  0  0  0  0  0  0
   13.2492  -19.0601   24.2243 C   0  0  1  0  0  0  0  0  0  0  0  0
   11.2629  -18.1314   25.3088 N   0  0  0  0  0  0  0  0  0  0  0  0
   10.9640  -17.2170   24.2508 C   0  0  0  0  0  0  0  0  0  0  0  0
   10.6874  -17.6735   26.5832 O   0  0  0  0  0  0  0  0  0  0  0  0
   10.3629  -16.4661   26.7005 O   0  0  0  0  0  0  0  0  0  0  0  0
  2  1  1  0
  2  3  2  0
  4  5  1  0
  4  2  1  0
  6  5  1  0
  7  6  1  0
  8  9  1  6
  8  7  1  0
 10  8  1  0
 10 11  2  0
 12 13  1  0
 13 23  2  0
 14 15  2  0
 14 13  1  0
 15 16  1  0
 16 17  1  0
 16 22  2  0
 18 17  1  6
 18 19  1  0
 19 10  1  0
 20 18  1  0
 21 20  2  0
 23 22  1  0
 25 24  1  1
 25 27  1  0
 26 25  1  0
 27 29  1  0
 27 28  1  1
 28 20  1  0
 29 31  1  0
 30 29  2  0
M  END
$$$$
