RYV.pdb
     RDKit          3D

 31 31  0  0  1  0  0  0  0  0999 V2000
   14.5081  -20.7589   20.5260 N   0  0  0  0  0  0  0  0  0  0  0  0
   14.3024  -20.3618   19.1903 C   0  0  0  0  0  0  0  0  0  0  0  0
   14.3810  -21.2407   18.2213 N   0  0  0  0  0  0  0  0  0  0  0  0
   14.0064  -19.0109   18.8559 N   0  0  0  0  0  0  0  0  0  0  0  0
   13.9812  -17.9996   19.8615 C   0  0  0  0  0  0  0  0  0  0  0  0
   12.6854  -18.0887   20.6572 C   0  0  0  0  0  0  0  0  0  0  0  0
   11.6248  -17.2793   19.9690 C   0  0  0  0  0  0  0  0  0  0  0  0
   10.3115  -17.2981   20.7173 C   0  0  2  0  0  0  0  0  0  0  0  0
    9.2047  -17.1183   19.7580 N   0  0  0  0  0  0  0  0  0  0  0  0
   10.1899  -16.2509   21.7512 C   0  0  0  0  0  0  0  0  0  0  0  0
   11.0375  -15.3080   21.9071 O   0  0  0  0  0  0  0  0  0  0  0  0
   14.2209  -20.9576   17.2337 O   0  0  0  0  0  0  0  0  0  0  0  0
    5.9591  -11.1439   27.6647 C   0  0  0  0  0  0  0  0  0  0  0  0
    6.3331  -12.0799   26.6834 C   0  0  0  0  0  0  0  0  0  0  0  0
    7.0588  -11.6970   25.5993 C   0  0  0  0  0  0  0  0  0  0  0  0
    7.4253  -12.6127   24.6381 C   0  0  0  0  0  0  0  0  0  0  0  0
    7.0753  -13.9415   24.7340 C   0  0  0  0  0  0  0  0  0  0  0  0
    7.4390  -14.9582   23.7362 C   0  0  2  0  0  0  0  0  0  0  0  0
    8.8974  -15.3016   23.7073 N   0  0  0  0  0  0  0  0  0  0  0  0
    9.0792  -16.2716   22.6320 C   0  0  0  0  0  0  0  0  0  0  0  0
    9.3717  -15.9615   24.9506 O   0  0  0  0  0  0  0  0  0  0  0  0
    9.3765  -17.2149   25.0570 C   0  0  0  0  0  0  0  0  0  0  0  0
    6.3399  -14.3224   25.8351 C   0  0  0  0  0  0  0  0  0  0  0  0
    5.9669  -13.4047   26.8082 C   0  0  0  0  0  0  0  0  0  0  0  0
   11.7889  -13.9216   27.7017 C   0  0  2  0  0  0  0  0  0  0  0  0
   10.7690  -14.8544   28.3307 C   0  0  0  0  0  0  0  0  0  0  0  0
    9.5634  -13.9936   28.6682 C   0  0  2  0  0  0  0  0  0  0  0  0
   10.3651  -15.8361   27.2730 N   0  0  0  0  0  0  0  0  0  0  0  0
    9.8418  -15.2470   26.0797 C   0  0  0  0  0  0  0  0  0  0  0  0
    9.4184  -16.8072   27.8436 O   0  0  0  0  0  0  0  0  0  0  0  0
    8.2417  -16.8329   27.4058 O   0  0  0  0  0  0  0  0  0  0  0  0
  2  1  1  0
  2  3  2  0
  4  5  1  0
  4  2  1  0
  6  5  1  0
  7  6  1  0
  8  9  1  6
  8  7  1  0
 10  8  1  0
 10 11  2  0
 12 13  1  0
 13 23  2  0
 14 15  2  0
 14 13  1  0
 15 16  1  0
 16 17  1  0
 16 22  2  0
 18 17  1  6
 18 19  1  0
 19 10  1  0
 20 18  1  0
 21 20  2  0
 23 22  1  0
 25 24  1  1
 25 27  1  0
 26 25  1  0
 27 29  1  0
 27 28  1  1
 28 20  1  0
 29 31  1  0
 30 29  2  0
M  END
$$$$
