RYV.pdb
     RDKit          3D

 31 31  0  0  1  0  0  0  0  0999 V2000
    6.2192  -15.0421   14.6592 N   0  0  0  0  0  0  0  0  0  0  0  0
    7.4224  -14.3546   14.9117 C   0  0  0  0  0  0  0  0  0  0  0  0
    7.4833  -13.0541   14.7605 N   0  0  0  0  0  0  0  0  0  0  0  0
    8.5944  -15.0421   15.3338 N   0  0  0  0  0  0  0  0  0  0  0  0
    8.5791  -16.4543   15.5335 C   0  0  0  0  0  0  0  0  0  0  0  0
    8.9575  -16.7809   16.9724 C   0  0  0  0  0  0  0  0  0  0  0  0
   10.2088  -17.6102   16.9795 C   0  0  0  0  0  0  0  0  0  0  0  0
   11.4590  -16.7648   16.8927 C   0  0  2  0  0  0  0  0  0  0  0  0
   12.3020  -17.2586   15.7868 N   0  0  0  0  0  0  0  0  0  0  0  0
   12.2768  -16.7675   18.1221 C   0  0  0  0  0  0  0  0  0  0  0  0
   13.1253  -17.6792   18.4062 O   0  0  0  0  0  0  0  0  0  0  0  0
    8.3607  -12.5362   14.9679 O   0  0  0  0  0  0  0  0  0  0  0  0
   18.2941  -13.0911   17.8672 C   0  0  0  0  0  0  0  0  0  0  0  0
   17.0618  -13.3612   18.4895 C   0  0  0  0  0  0  0  0  0  0  0  0
   15.8913  -13.0098   17.8936 C   0  0  0  0  0  0  0  0  0  0  0  0
   14.6843  -13.2737   18.5020 C   0  0  0  0  0  0  0  0  0  0  0  0
   14.6134  -13.8985   19.7277 C   0  0  0  0  0  0  0  0  0  0  0  0
   13.3525  -14.2015   20.4206 C   0  0  2  0  0  0  0  0  0  0  0  0
   12.9026  -15.6250   20.2904 N   0  0  0  0  0  0  0  0  0  0  0  0
   12.1303  -15.7100   19.0549 C   0  0  0  0  0  0  0  0  0  0  0  0
   11.9936  -16.0576   21.3825 O   0  0  0  0  0  0  0  0  0  0  0  0
   10.9328  -15.4282   21.6294 C   0  0  0  0  0  0  0  0  0  0  0  0
   15.8033  -14.2517   20.3256 C   0  0  0  0  0  0  0  0  0  0  0  0
   17.0239  -13.9888   19.7180 C   0  0  0  0  0  0  0  0  0  0  0  0
   11.6276  -19.9046   22.5427 C   0  0  2  0  0  0  0  0  0  0  0  0
   10.6436  -18.8598   23.0390 C   0  0  0  0  0  0  0  0  0  0  0  0
   10.1166  -19.3758   24.3673 C   0  0  1  0  0  0  0  0  0  0  0  0
   11.4284  -17.6097   23.2976 N   0  0  0  0  0  0  0  0  0  0  0  0
   12.2472  -17.1818   22.2060 C   0  0  0  0  0  0  0  0  0  0  0  0
   12.2249  -17.7777   24.5233 O   0  0  0  0  0  0  0  0  0  0  0  0
   13.4725  -17.8810   24.4237 O   0  0  0  0  0  0  0  0  0  0  0  0
  2  1  1  0
  2  3  2  0
  4  5  1  0
  4  2  1  0
  6  5  1  0
  7  6  1  0
  8  9  1  6
  8  7  1  0
 10  8  1  0
 10 11  2  0
 12 13  1  0
 13 23  2  0
 14 15  2  0
 14 13  1  0
 15 16  1  0
 16 17  1  0
 16 22  2  0
 18 17  1  6
 18 19  1  0
 19 10  1  0
 20 18  1  0
 21 20  2  0
 23 22  1  0
 25 24  1  6
 25 27  1  0
 26 25  1  0
 27 29  1  0
 27 28  1  6
 28 20  1  0
 29 31  1  0
 30 29  2  0
M  END
$$$$
