RYV.pdb
     RDKit          3D

 31 31  0  0  1  0  0  0  0  0999 V2000
    7.7092  -12.0318   17.0171 N   0  0  0  0  0  0  0  0  0  0  0  0
    8.0011  -13.3284   16.5504 C   0  0  0  0  0  0  0  0  0  0  0  0
    8.3869  -13.5122   15.3114 N   0  0  0  0  0  0  0  0  0  0  0  0
    7.8877  -14.4646   17.3992 N   0  0  0  0  0  0  0  0  0  0  0  0
    7.7614  -14.3099   18.8115 C   0  0  0  0  0  0  0  0  0  0  0  0
    9.0944  -14.6013   19.4886 C   0  0  0  0  0  0  0  0  0  0  0  0
    8.9380  -14.4540   20.9743 C   0  0  0  0  0  0  0  0  0  0  0  0
    9.1929  -15.7495   21.7104 C   0  0  2  0  0  0  0  0  0  0  0  0
    7.9936  -16.6042   21.6165 N   0  0  0  0  0  0  0  0  0  0  0  0
    9.5167  -15.5782   23.1408 C   0  0  0  0  0  0  0  0  0  0  0  0
   10.5312  -14.9276   23.5642 O   0  0  0  0  0  0  0  0  0  0  0  0
    8.6975  -14.4496   14.9858 O   0  0  0  0  0  0  0  0  0  0  0  0
    6.3557  -10.1341   26.1985 C   0  0  0  0  0  0  0  0  0  0  0  0
    6.6671  -11.5059   26.2015 C   0  0  0  0  0  0  0  0  0  0  0  0
    7.5919  -12.0061   27.0636 C   0  0  0  0  0  0  0  0  0  0  0  0
    7.8975  -13.3489   27.0673 C   0  0  0  0  0  0  0  0  0  0  0  0
    7.2850  -14.2326   26.2061 C   0  0  0  0  0  0  0  0  0  0  0  0
    7.5757  -15.6733   26.1679 C   0  0  2  0  0  0  0  0  0  0  0  0
    8.8974  -16.0208   25.5530 N   0  0  0  0  0  0  0  0  0  0  0  0
    8.6696  -16.1590   24.1180 C   0  0  0  0  0  0  0  0  0  0  0  0
    9.4389  -17.3234   26.0179 O   0  0  0  0  0  0  0  0  0  0  0  0
    9.1245  -17.7910   27.1426 C   0  0  0  0  0  0  0  0  0  0  0  0
    6.3490  -13.7188   25.3354 C   0  0  0  0  0  0  0  0  0  0  0  0
    6.0359  -12.3660   25.3261 C   0  0  0  0  0  0  0  0  0  0  0  0
   12.7682  -19.5428   24.1673 C   0  0  2  0  0  0  0  0  0  0  0  0
   11.4409  -20.1910   24.5198 C   0  0  0  0  0  0  0  0  0  0  0  0
   11.7762  -21.5746   25.0501 C   0  0  1  0  0  0  0  0  0  0  0  0
   10.8475  -19.3893   25.6382 N   0  0  0  0  0  0  0  0  0  0  0  0
   10.3269  -18.1155   25.2494 C   0  0  0  0  0  0  0  0  0  0  0  0
   11.8372  -19.2499   26.7180 O   0  0  0  0  0  0  0  0  0  0  0  0
   12.4205  -18.1475   26.8646 O   0  0  0  0  0  0  0  0  0  0  0  0
  2  1  1  0
  2  3  2  0
  4  5  1  0
  4  2  1  0
  6  5  1  0
  7  6  1  0
  8  9  1  1
  8  7  1  0
 10  8  1  0
 10 11  2  0
 12 13  1  0
 13 23  2  0
 14 15  2  0
 14 13  1  0
 15 16  1  0
 16 17  1  0
 16 22  2  0
 18 17  1  6
 18 19  1  0
 19 10  1  0
 20 18  1  0
 21 20  2  0
 23 22  1  0
 25 24  1  6
 25 27  1  0
 26 25  1  0
 27 29  1  0
 27 28  1  6
 28 20  1  0
 29 31  1  0
 30 29  2  0
M  END
$$$$
