RYV.pdb
     RDKit          3D

 31 31  0  0  1  0  0  0  0  0999 V2000
    9.9958  -14.1112   15.6667 N   0  0  0  0  0  0  0  0  0  0  0  0
    8.5874  -14.1093   15.6781 C   0  0  0  0  0  0  0  0  0  0  0  0
    7.9191  -14.7038   14.7201 N   0  0  0  0  0  0  0  0  0  0  0  0
    7.8554  -13.4699   16.7172 N   0  0  0  0  0  0  0  0  0  0  0  0
    8.4826  -13.1424   17.9558 C   0  0  0  0  0  0  0  0  0  0  0  0
    8.0126  -14.0969   19.0458 C   0  0  0  0  0  0  0  0  0  0  0  0
    8.7155  -13.7665   20.3304 C   0  0  0  0  0  0  0  0  0  0  0  0
    9.3155  -14.9883   20.9880 C   0  0  2  0  0  0  0  0  0  0  0  0
    8.3934  -16.1286   20.8245 N   0  0  0  0  0  0  0  0  0  0  0  0
    9.5855  -14.8269   22.4307 C   0  0  0  0  0  0  0  0  0  0  0  0
   10.5257  -14.0995   22.8982 O   0  0  0  0  0  0  0  0  0  0  0  0
    6.8795  -14.7217   14.7303 O   0  0  0  0  0  0  0  0  0  0  0  0
    4.9673  -10.6202   27.4620 C   0  0  0  0  0  0  0  0  0  0  0  0
    5.5282  -11.7737   26.8843 C   0  0  0  0  0  0  0  0  0  0  0  0
    5.2718  -12.0962   25.5886 C   0  0  0  0  0  0  0  0  0  0  0  0
    5.8204  -13.2252   25.0221 C   0  0  0  0  0  0  0  0  0  0  0  0
    6.6437  -14.0666   25.7376 C   0  0  0  0  0  0  0  0  0  0  0  0
    7.2529  -15.2838   25.1819 C   0  0  2  0  0  0  0  0  0  0  0  0
    8.6869  -15.1271   24.7761 N   0  0  0  0  0  0  0  0  0  0  0  0
    8.7693  -15.5071   23.3694 C   0  0  0  0  0  0  0  0  0  0  0  0
    9.6086  -16.0326   25.5087 O   0  0  0  0  0  0  0  0  0  0  0  0
   10.0077  -17.1073   24.9910 C   0  0  0  0  0  0  0  0  0  0  0  0
    6.8992  -13.7336   27.0499 C   0  0  0  0  0  0  0  0  0  0  0  0
    6.3495  -12.5969   27.6276 C   0  0  0  0  0  0  0  0  0  0  0  0
   12.0853  -14.6501   28.3392 C   0  0  2  0  0  0  0  0  0  0  0  0
   11.5505  -15.9991   28.7868 C   0  0  0  0  0  0  0  0  0  0  0  0
   10.4610  -15.7033   29.8035 C   0  0  2  0  0  0  0  0  0  0  0  0
   10.9155  -16.6360   27.5882 N   0  0  0  0  0  0  0  0  0  0  0  0
   10.0940  -15.7604   26.8113 C   0  0  0  0  0  0  0  0  0  0  0  0
   10.1667  -17.8306   28.0088 O   0  0  0  0  0  0  0  0  0  0  0  0
    8.9123  -17.8082   27.9531 O   0  0  0  0  0  0  0  0  0  0  0  0
  2  1  1  0
  2  3  2  0
  4  5  1  0
  4  2  1  0
  6  5  1  0
  7  6  1  0
  8  9  1  1
  8  7  1  0
 10  8  1  0
 10 11  2  0
 12 13  1  0
 13 23  2  0
 14 15  2  0
 14 13  1  0
 15 16  1  0
 16 17  1  0
 16 22  2  0
 18 17  1  6
 18 19  1  0
 19 10  1  0
 20 18  1  0
 21 20  2  0
 23 22  1  0
 25 24  1  1
 25 27  1  0
 26 25  1  0
 27 29  1  0
 27 28  1  6
 28 20  1  0
 29 31  1  0
 30 29  2  0
M  END
$$$$
