RYV.pdb
     RDKit          3D

 31 31  0  0  1  0  0  0  0  0999 V2000
    7.2684  -12.9859   19.0541 N   0  0  0  0  0  0  0  0  0  0  0  0
    8.5096  -13.6512   19.0270 C   0  0  0  0  0  0  0  0  0  0  0  0
    9.6060  -13.0160   19.3622 N   0  0  0  0  0  0  0  0  0  0  0  0
    8.6104  -15.0165   18.6398 N   0  0  0  0  0  0  0  0  0  0  0  0
    7.4414  -15.7789   18.3450 C   0  0  0  0  0  0  0  0  0  0  0  0
    7.3631  -16.9893   19.2663 C   0  0  0  0  0  0  0  0  0  0  0  0
    6.7415  -16.5801   20.5700 C   0  0  0  0  0  0  0  0  0  0  0  0
    6.6682  -17.7237   21.5559 C   0  0  2  0  0  0  0  0  0  0  0  0
    5.5741  -18.6326   21.1631 N   0  0  0  0  0  0  0  0  0  0  0  0
    6.4301  -17.3042   22.9515 C   0  0  0  0  0  0  0  0  0  0  0  0
    5.2670  -17.1284   23.4494 O   0  0  0  0  0  0  0  0  0  0  0  0
   10.5371  -13.4610   19.2350 O   0  0  0  0  0  0  0  0  0  0  0  0
    5.4260  -22.7646   26.5232 C   0  0  0  0  0  0  0  0  0  0  0  0
    6.1081  -21.5434   26.3734 C   0  0  0  0  0  0  0  0  0  0  0  0
    6.8052  -21.2722   25.2381 C   0  0  0  0  0  0  0  0  0  0  0  0
    7.4734  -20.0770   25.0906 C   0  0  0  0  0  0  0  0  0  0  0  0
    7.4633  -19.1160   26.0774 C   0  0  0  0  0  0  0  0  0  0  0  0
    8.1605  -17.8260   25.9713 C   0  0  2  0  0  0  0  0  0  0  0  0
    7.3992  -16.7718   25.2265 N   0  0  0  0  0  0  0  0  0  0  0  0
    7.5383  -17.0778   23.8062 C   0  0  0  0  0  0  0  0  0  0  0  0
    7.9482  -15.4046   25.4155 O   0  0  0  0  0  0  0  0  0  0  0  0
    9.0575  -15.0781   24.9205 C   0  0  0  0  0  0  0  0  0  0  0  0
    6.7549  -19.3976   27.2251 C   0  0  0  0  0  0  0  0  0  0  0  0
    6.0789  -20.6005   27.3807 C   0  0  0  0  0  0  0  0  0  0  0  0
    5.9369  -11.9593   25.5886 C   0  0  2  0  0  0  0  0  0  0  0  0
    6.8382  -12.0580   26.8068 C   0  0  0  0  0  0  0  0  0  0  0  0
    5.9523  -12.5264   27.9487 C   0  0  2  0  0  0  0  0  0  0  0  0
    7.8433  -13.1318   26.5198 N   0  0  0  0  0  0  0  0  0  0  0  0
    7.2806  -14.3929   26.1485 C   0  0  0  0  0  0  0  0  0  0  0  0
    8.7486  -13.2739   27.6710 O   0  0  0  0  0  0  0  0  0  0  0  0
    8.7365  -14.3489   28.3201 O   0  0  0  0  0  0  0  0  0  0  0  0
  2  1  1  0
  2  3  2  0
  4  5  1  0
  4  2  1  0
  6  5  1  0
  7  6  1  0
  8  9  1  6
  8  7  1  0
 10  8  1  0
 10 11  2  0
 12 13  1  0
 13 23  2  0
 14 15  2  0
 14 13  1  0
 15 16  1  0
 16 17  1  0
 16 22  2  0
 18 17  1  1
 18 19  1  0
 19 10  1  0
 20 18  1  0
 21 20  2  0
 23 22  1  0
 25 24  1  1
 25 27  1  0
 26 25  1  0
 27 29  1  0
 27 28  1  1
 28 20  1  0
 29 31  1  0
 30 29  2  0
M  END
$$$$
