RYV.pdb
     RDKit          3D

 31 31  0  0  1  0  0  0  0  0999 V2000
   10.8571  -20.9873   17.2724 N   0  0  0  0  0  0  0  0  0  0  0  0
   11.0455  -21.8720   18.3521 C   0  0  0  0  0  0  0  0  0  0  0  0
   11.6557  -23.0171   18.1679 N   0  0  0  0  0  0  0  0  0  0  0  0
   10.5848  -21.5537   19.6601 N   0  0  0  0  0  0  0  0  0  0  0  0
    9.9126  -20.3221   19.9167 C   0  0  0  0  0  0  0  0  0  0  0  0
   10.8962  -19.1627   19.8232 C   0  0  0  0  0  0  0  0  0  0  0  0
   10.7542  -18.2934   21.0388 C   0  0  0  0  0  0  0  0  0  0  0  0
   10.0365  -16.9975   20.7380 C   0  0  2  0  0  0  0  0  0  0  0  0
   10.6703  -16.3518   19.5723 N   0  0  0  0  0  0  0  0  0  0  0  0
   10.0449  -16.0291   21.8527 C   0  0  0  0  0  0  0  0  0  0  0  0
   11.0939  -15.4207   22.2543 O   0  0  0  0  0  0  0  0  0  0  0  0
   11.8718  -23.6388   18.9728 O   0  0  0  0  0  0  0  0  0  0  0  0
    6.1945  -10.9542   28.1151 C   0  0  0  0  0  0  0  0  0  0  0  0
    6.4768  -11.7828   27.0139 C   0  0  0  0  0  0  0  0  0  0  0  0
    6.0306  -13.0666   26.9786 C   0  0  0  0  0  0  0  0  0  0  0  0
    6.3065  -13.8786   25.9010 C   0  0  0  0  0  0  0  0  0  0  0  0
    7.0390  -13.4284   24.8247 C   0  0  0  0  0  0  0  0  0  0  0  0
    7.3628  -14.2536   23.6518 C   0  0  1  0  0  0  0  0  0  0  0  0
    8.7513  -14.8170   23.6571 N   0  0  0  0  0  0  0  0  0  0  0  0
    8.8336  -15.7419   22.5311 C   0  0  0  0  0  0  0  0  0  0  0  0
    9.0601  -15.6110   24.8739 O   0  0  0  0  0  0  0  0  0  0  0  0
    8.6380  -16.7889   25.0028 C   0  0  0  0  0  0  0  0  0  0  0  0
    7.4879  -12.1265   24.8673 C   0  0  0  0  0  0  0  0  0  0  0  0
    7.2135  -11.3021   25.9505 C   0  0  0  0  0  0  0  0  0  0  0  0
   12.2541  -14.4649   27.2191 C   0  0  2  0  0  0  0  0  0  0  0  0
   11.1584  -15.1329   28.0311 C   0  0  0  0  0  0  0  0  0  0  0  0
   10.3335  -14.0068   28.6311 C   0  0  2  0  0  0  0  0  0  0  0  0
   10.2954  -15.8846   27.0637 N   0  0  0  0  0  0  0  0  0  0  0  0
    9.8327  -15.1135   25.9518 C   0  0  0  0  0  0  0  0  0  0  0  0
    9.1710  -16.4987   27.7871 O   0  0  0  0  0  0  0  0  0  0  0  0
    8.0014  -16.1417   27.5013 O   0  0  0  0  0  0  0  0  0  0  0  0
  2  1  1  0
  2  3  2  0
  4  5  1  0
  4  2  1  0
  6  5  1  0
  7  6  1  0
  8  9  1  6
  8  7  1  0
 10  8  1  0
 10 11  2  0
 12 13  1  0
 13 23  2  0
 14 15  2  0
 14 13  1  0
 15 16  1  0
 16 17  1  0
 16 22  2  0
 18 17  1  6
 18 19  1  0
 19 10  1  0
 20 18  1  0
 21 20  2  0
 23 22  1  0
 25 24  1  1
 25 27  1  0
 26 25  1  0
 27 29  1  0
 27 28  1  1
 28 20  1  0
 29 31  1  0
 30 29  2  0
M  END
$$$$
