RYV.pdb
     RDKit          3D

 31 31  0  0  1  0  0  0  0  0999 V2000
    8.9948  -15.5508   16.2192 N   0  0  0  0  0  0  0  0  0  0  0  0
    8.4545  -14.3420   15.7388 C   0  0  0  0  0  0  0  0  0  0  0  0
    8.4630  -14.0799   14.4547 N   0  0  0  0  0  0  0  0  0  0  0  0
    7.8895  -13.3800   16.6218 N   0  0  0  0  0  0  0  0  0  0  0  0
    7.8071  -13.6359   18.0226 C   0  0  0  0  0  0  0  0  0  0  0  0
    6.7028  -14.6467   18.3032 C   0  0  0  0  0  0  0  0  0  0  0  0
    6.4620  -14.7192   19.7832 C   0  0  0  0  0  0  0  0  0  0  0  0
    7.6915  -15.1596   20.5446 C   0  0  2  0  0  0  0  0  0  0  0  0
    8.1831  -16.4302   19.9780 N   0  0  0  0  0  0  0  0  0  0  0  0
    7.4662  -15.3646   21.9894 C   0  0  0  0  0  0  0  0  0  0  0  0
    6.5968  -14.7211   22.6689 O   0  0  0  0  0  0  0  0  0  0  0  0
    8.1728  -13.1459   14.1018 O   0  0  0  0  0  0  0  0  0  0  0  0
    8.9118  -19.4569   29.8276 C   0  0  0  0  0  0  0  0  0  0  0  0
    8.8826  -19.0671   28.4763 C   0  0  0  0  0  0  0  0  0  0  0  0
    7.7696  -19.2643   27.7206 C   0  0  0  0  0  0  0  0  0  0  0  0
    7.7401  -18.8830   26.3976 C   0  0  0  0  0  0  0  0  0  0  0  0
    8.8261  -18.2917   25.7907 C   0  0  0  0  0  0  0  0  0  0  0  0
    8.8475  -17.8680   24.3830 C   0  0  1  0  0  0  0  0  0  0  0  0
    8.0674  -16.6198   24.1016 N   0  0  0  0  0  0  0  0  0  0  0  0
    8.2461  -16.3237   22.6837 C   0  0  0  0  0  0  0  0  0  0  0  0
    8.5669  -15.4335   24.8429 O   0  0  0  0  0  0  0  0  0  0  0  0
    9.7371  -15.0065   24.6684 C   0  0  0  0  0  0  0  0  0  0  0  0
    9.9504  -18.0949   26.5624 C   0  0  0  0  0  0  0  0  0  0  0  0
    9.9874  -18.4768   27.8969 C   0  0  0  0  0  0  0  0  0  0  0  0
    6.9524  -12.0567   25.0956 C   0  0  2  0  0  0  0  0  0  0  0  0
    7.2347  -12.4332   26.5394 C   0  0  0  0  0  0  0  0  0  0  0  0
    5.9230  -12.9531   27.1027 C   0  0  2  0  0  0  0  0  0  0  0  0
    8.2163  -13.5651   26.5109 N   0  0  0  0  0  0  0  0  0  0  0  0
    7.7828  -14.7135   25.7773 C   0  0  0  0  0  0  0  0  0  0  0  0
    8.5869  -13.9253   27.8885 O   0  0  0  0  0  0  0  0  0  0  0  0
    8.2815  -15.0651   28.3180 O   0  0  0  0  0  0  0  0  0  0  0  0
  2  1  1  0
  2  3  2  0
  4  5  1  0
  4  2  1  0
  6  5  1  0
  7  6  1  0
  8  9  1  6
  8  7  1  0
 10  8  1  0
 10 11  2  0
 12 13  1  0
 13 23  2  0
 14 15  2  0
 14 13  1  0
 15 16  1  0
 16 17  1  0
 16 22  2  0
 18 17  1  6
 18 19  1  0
 19 10  1  0
 20 18  1  0
 21 20  2  0
 23 22  1  0
 25 24  1  1
 25 27  1  0
 26 25  1  0
 27 29  1  0
 27 28  1  1
 28 20  1  0
 29 31  1  0
 30 29  2  0
M  END
$$$$
