RYV.pdb
     RDKit          3D

 31 31  0  0  1  0  0  0  0  0999 V2000
    8.0778  -12.0971   19.5591 N   0  0  0  0  0  0  0  0  0  0  0  0
    8.3986  -13.4484   19.7940 C   0  0  0  0  0  0  0  0  0  0  0  0
    9.5426  -13.7683   20.3476 N   0  0  0  0  0  0  0  0  0  0  0  0
    7.5014  -14.4951   19.4420 N   0  0  0  0  0  0  0  0  0  0  0  0
    7.7649  -15.8423   19.8296 C   0  0  0  0  0  0  0  0  0  0  0  0
    6.5734  -16.7261   19.4841 C   0  0  0  0  0  0  0  0  0  0  0  0
    5.7308  -16.9234   20.7107 C   0  0  0  0  0  0  0  0  0  0  0  0
    6.2752  -18.0066   21.6137 C   0  0  2  0  0  0  0  0  0  0  0  0
    5.5306  -19.2576   21.3731 N   0  0  0  0  0  0  0  0  0  0  0  0
    6.1841  -17.6948   23.0542 C   0  0  0  0  0  0  0  0  0  0  0  0
    5.0808  -17.6137   23.6928 O   0  0  0  0  0  0  0  0  0  0  0  0
    9.7913  -14.7639   20.5149 O   0  0  0  0  0  0  0  0  0  0  0  0
    5.9624  -23.0455   27.2508 C   0  0  0  0  0  0  0  0  0  0  0  0
    6.5378  -21.8037   26.9258 C   0  0  0  0  0  0  0  0  0  0  0  0
    6.3398  -20.7177   27.7195 C   0  0  0  0  0  0  0  0  0  0  0  0
    6.9027  -19.5015   27.4021 C   0  0  0  0  0  0  0  0  0  0  0  0
    7.6821  -19.3363   26.2784 C   0  0  0  0  0  0  0  0  0  0  0  0
    8.3041  -18.0609   25.8934 C   0  0  2  0  0  0  0  0  0  0  0  0
    7.3780  -17.1049   25.2048 N   0  0  0  0  0  0  0  0  0  0  0  0
    7.3739  -17.4688   23.7914 C   0  0  0  0  0  0  0  0  0  0  0  0
    7.8331  -15.6926   25.2718 O   0  0  0  0  0  0  0  0  0  0  0  0
    8.8436  -15.3068   24.6298 C   0  0  0  0  0  0  0  0  0  0  0  0
    7.8785  -20.4410   25.4788 C   0  0  0  0  0  0  0  0  0  0  0  0
    7.3141  -21.6702   25.7926 C   0  0  0  0  0  0  0  0  0  0  0  0
    7.2871  -11.0640   26.9242 C   0  0  2  0  0  0  0  0  0  0  0  0
    6.6399  -12.4361   26.8565 C   0  0  0  0  0  0  0  0  0  0  0  0
    5.4571  -12.2972   25.9132 C   0  0  1  0  0  0  0  0  0  0  0  0
    7.6386  -13.3587   26.2264 N   0  0  0  0  0  0  0  0  0  0  0  0
    7.1799  -14.7008   26.0439 C   0  0  0  0  0  0  0  0  0  0  0  0
    8.8894  -13.3270   27.0005 O   0  0  0  0  0  0  0  0  0  0  0  0
    9.0662  -14.1867   27.8987 O   0  0  0  0  0  0  0  0  0  0  0  0
  2  1  1  0
  2  3  2  0
  4  5  1  0
  4  2  1  0
  6  5  1  0
  7  6  1  0
  8  9  1  1
  8  7  1  0
 10  8  1  0
 10 11  2  0
 12 13  1  0
 13 23  2  0
 14 15  2  0
 14 13  1  0
 15 16  1  0
 16 17  1  0
 16 22  2  0
 18 17  1  1
 18 19  1  0
 19 10  1  0
 20 18  1  0
 21 20  2  0
 23 22  1  0
 25 24  1  1
 25 27  1  0
 26 25  1  0
 27 29  1  0
 27 28  1  1
 28 20  1  0
 29 31  1  0
 30 29  2  0
M  END
$$$$
