RYV.pdb
     RDKit          3D

 31 31  0  0  1  0  0  0  0  0999 V2000
    8.2698  -14.3163   17.1541 N   0  0  0  0  0  0  0  0  0  0  0  0
    7.5411  -13.5339   18.0710 C   0  0  0  0  0  0  0  0  0  0  0  0
    7.7995  -12.2554   18.1988 N   0  0  0  0  0  0  0  0  0  0  0  0
    6.5143  -14.1003   18.8768 N   0  0  0  0  0  0  0  0  0  0  0  0
    6.8312  -14.7795   20.0904 C   0  0  0  0  0  0  0  0  0  0  0  0
    7.1353  -16.2442   19.8034 C   0  0  0  0  0  0  0  0  0  0  0  0
    8.1465  -16.7436   20.7940 C   0  0  0  0  0  0  0  0  0  0  0  0
    9.2161  -15.7173   21.0904 C   0  0  2  0  0  0  0  0  0  0  0  0
   10.2298  -15.7506   20.0186 N   0  0  0  0  0  0  0  0  0  0  0  0
    9.9103  -15.9223   22.3774 C   0  0  0  0  0  0  0  0  0  0  0  0
   11.0051  -16.5697   22.4963 O   0  0  0  0  0  0  0  0  0  0  0  0
    7.2150  -11.6548   18.8143 O   0  0  0  0  0  0  0  0  0  0  0  0
   10.8149  -15.1308   31.2385 C   0  0  0  0  0  0  0  0  0  0  0  0
   10.3853  -15.0495   29.9015 C   0  0  0  0  0  0  0  0  0  0  0  0
    9.5309  -15.9748   29.3893 C   0  0  0  0  0  0  0  0  0  0  0  0
    9.1097  -15.8961   28.0804 C   0  0  0  0  0  0  0  0  0  0  0  0
    9.5323  -14.8865   27.2440 C   0  0  0  0  0  0  0  0  0  0  0  0
    9.1150  -14.7577   25.8401 C   0  0  1  0  0  0  0  0  0  0  0  0
   10.0035  -15.4669   24.8638 N   0  0  0  0  0  0  0  0  0  0  0  0
    9.3503  -15.3800   23.5616 C   0  0  0  0  0  0  0  0  0  0  0  0
   10.1625  -16.9145   25.1562 O   0  0  0  0  0  0  0  0  0  0  0  0
    9.1793  -17.6974   25.1043 C   0  0  0  0  0  0  0  0  0  0  0  0
   10.3980  -13.9524   27.7697 C   0  0  0  0  0  0  0  0  0  0  0  0
   10.8268  -14.0255   29.0884 C   0  0  0  0  0  0  0  0  0  0  0  0
   14.0260  -18.7176   25.7542 C   0  0  2  0  0  0  0  0  0  0  0  0
   12.8483  -19.4729   25.1637 C   0  0  0  0  0  0  0  0  0  0  0  0
   12.9893  -20.9094   25.6378 C   0  0  1  0  0  0  0  0  0  0  0  0
   11.6085  -18.8948   25.7756 N   0  0  0  0  0  0  0  0  0  0  0  0
   11.4011  -17.5058   25.5063 C   0  0  0  0  0  0  0  0  0  0  0  0
   11.6089  -19.1596   27.2229 O   0  0  0  0  0  0  0  0  0  0  0  0
   11.9587  -18.2416   28.0051 O   0  0  0  0  0  0  0  0  0  0  0  0
  2  1  1  0
  2  3  2  0
  4  5  1  0
  4  2  1  0
  6  5  1  0
  7  6  1  0
  8  9  1  6
  8  7  1  0
 10  8  1  0
 10 11  2  0
 12 13  1  0
 13 23  2  0
 14 15  2  0
 14 13  1  0
 15 16  1  0
 16 17  1  0
 16 22  2  0
 18 17  1  6
 18 19  1  0
 19 10  1  0
 20 18  1  0
 21 20  2  0
 23 22  1  0
 25 24  1  6
 25 27  1  0
 26 25  1  0
 27 29  1  0
 27 28  1  6
 28 20  1  0
 29 31  1  0
 30 29  2  0
M  END
$$$$
