RYV.pdb
     RDKit          3D

 31 31  0  0  1  0  0  0  0  0999 V2000
    8.8294  -12.8877   19.3794 N   0  0  0  0  0  0  0  0  0  0  0  0
    8.5585  -13.4407   18.1126 C   0  0  0  0  0  0  0  0  0  0  0  0
    8.7987  -12.7488   17.0257 N   0  0  0  0  0  0  0  0  0  0  0  0
    8.0224  -14.7515   17.9753 N   0  0  0  0  0  0  0  0  0  0  0  0
    8.2791  -15.7510   18.9600 C   0  0  0  0  0  0  0  0  0  0  0  0
    9.3867  -16.6808   18.4817 C   0  0  0  0  0  0  0  0  0  0  0  0
   10.6153  -16.4573   19.3148 C   0  0  0  0  0  0  0  0  0  0  0  0
   10.5030  -17.0862   20.6848 C   0  0  2  0  0  0  0  0  0  0  0  0
    9.3722  -18.0341   20.6916 N   0  0  0  0  0  0  0  0  0  0  0  0
   10.2892  -16.1177   21.7787 C   0  0  0  0  0  0  0  0  0  0  0  0
   10.9736  -15.0487   21.9219 O   0  0  0  0  0  0  0  0  0  0  0  0
    8.4929  -13.0986   16.0955 O   0  0  0  0  0  0  0  0  0  0  0  0
    5.5194  -11.3373   27.3981 C   0  0  0  0  0  0  0  0  0  0  0  0
    5.9954  -12.3102   26.5004 C   0  0  0  0  0  0  0  0  0  0  0  0
    5.9084  -13.6335   26.8004 C   0  0  0  0  0  0  0  0  0  0  0  0
    6.3741  -14.5867   25.9222 C   0  0  0  0  0  0  0  0  0  0  0  0
    6.9419  -14.2426   24.7153 C   0  0  0  0  0  0  0  0  0  0  0  0
    7.4557  -15.2193   23.7439 C   0  0  2  0  0  0  0  0  0  0  0  0
    8.9384  -15.4282   23.8032 N   0  0  0  0  0  0  0  0  0  0  0  0
    9.2734  -16.3659   22.7361 C   0  0  0  0  0  0  0  0  0  0  0  0
    9.3946  -16.0557   25.0698 O   0  0  0  0  0  0  0  0  0  0  0  0
    9.4989  -17.3050   25.1727 C   0  0  0  0  0  0  0  0  0  0  0  0
    7.0267  -12.8999   24.4179 C   0  0  0  0  0  0  0  0  0  0  0  0
    6.5593  -11.9334   25.2984 C   0  0  0  0  0  0  0  0  0  0  0  0
   11.3004  -13.6057   27.7422 C   0  0  2  0  0  0  0  0  0  0  0  0
   10.7114  -14.8205   28.4375 C   0  0  0  0  0  0  0  0  0  0  0  0
    9.3933  -14.3630   29.0388 C   0  0  2  0  0  0  0  0  0  0  0  0
   10.4168  -15.8325   27.3724 N   0  0  0  0  0  0  0  0  0  0  0  0
    9.7372  -15.3130   26.2263 C   0  0  0  0  0  0  0  0  0  0  0  0
    9.6773  -16.9601   27.9609 O   0  0  0  0  0  0  0  0  0  0  0  0
    8.5029  -17.1801   27.5743 O   0  0  0  0  0  0  0  0  0  0  0  0
  2  1  1  0
  2  3  2  0
  4  5  1  0
  4  2  1  0
  6  5  1  0
  7  6  1  0
  8  9  1  6
  8  7  1  0
 10  8  1  0
 10 11  2  0
 12 13  1  0
 13 23  2  0
 14 15  2  0
 14 13  1  0
 15 16  1  0
 16 17  1  0
 16 22  2  0
 18 17  1  6
 18 19  1  0
 19 10  1  0
 20 18  1  0
 21 20  2  0
 23 22  1  0
 25 24  1  1
 25 27  1  0
 26 25  1  0
 27 29  1  0
 27 28  1  1
 28 20  1  0
 29 31  1  0
 30 29  2  0
M  END
$$$$
