NSN.pdb
     RDKit          3D

 23 22  0  0  1  0  0  0  0  0999 V2000
   27.4584  -16.9036  -17.1237 N   0  0  0  0  0  0  0  0  0  0  0  0
   27.7468  -17.5748  -15.8929 C   0  0  0  0  0  0  0  0  0  0  0  0
   28.8813  -17.4066  -15.3908 O   0  0  0  0  0  0  0  0  0  0  0  0
   26.7397  -18.4409  -15.2298 C   0  0  0  0  0  0  0  0  0  0  0  0
   27.3515  -19.7794  -14.8613 C   0  0  2  0  0  0  0  0  0  0  0  0
   27.6819  -20.4360  -16.1118 N   0  0  0  0  0  0  0  0  0  0  0  0
   26.3475  -20.5534  -14.0860 C   0  0  0  0  0  0  0  0  0  0  0  0
   25.4603  -21.2506  -14.6737 O   0  0  0  0  0  0  0  0  0  0  0  0
   25.7698  -20.1008   -9.9268 O   0  0  0  0  0  0  0  0  0  0  0  0
   25.5716  -21.3573  -10.4988 C   0  0  0  0  0  0  0  0  0  0  0  0
   25.2195  -21.2064  -11.9791 C   0  0  2  0  0  0  0  0  0  0  0  0
   26.3143  -20.5603  -12.6541 N   0  0  0  0  0  0  0  0  0  0  0  0
   23.9458  -20.4740  -12.1325 C   0  0  0  0  0  0  0  0  0  0  0  0
   23.7730  -19.2661  -11.8614 O   0  0  0  0  0  0  0  0  0  0  0  0
   19.4217  -18.4288  -13.5879 N   0  0  0  0  0  0  0  0  0  0  0  0
   20.0311  -19.3872  -14.4266 C   0  0  0  0  0  0  0  0  0  0  0  0
   19.3426  -19.7438  -15.4437 O   0  0  0  0  0  0  0  0  0  0  0  0
   21.3666  -19.9608  -14.1880 C   0  0  0  0  0  0  0  0  0  0  0  0
   21.5285  -20.5973  -12.8500 C   0  0  2  0  0  0  0  0  0  0  0  0
   22.8218  -21.1855  -12.6248 N   0  0  0  0  0  0  0  0  0  0  0  0
   20.5062  -21.6192  -12.6514 C   0  0  0  0  0  0  0  0  0  0  0  0
   20.9249  -22.9619  -12.5309 O   0  0  0  0  0  0  0  0  0  0  0  0
   19.2844  -21.4400  -12.5734 O   0  0  0  0  0  0  0  0  0  0  0  0
  1  2  1  0
  2  4  1  0
  3  2  2  0
  4  5  1  0
  5  6  1  6
  7  5  1  0
  8  7  2  0
  9 10  1  0
 11 10  1  1
 11 12  1  0
 11 13  1  0
 12  7  1  0
 13 20  1  0
 14 13  2  0
 15 16  1  0
 16 18  1  0
 17 16  2  0
 19 18  1  6
 19 21  1  0
 20 19  1  0
 21 22  1  0
 23 21  2  0
M  END
$$$$
