NSN.pdb
     RDKit          3D

 23 22  0  0  1  0  0  0  0  0999 V2000
   29.3920  -22.8628  -17.5331 N   0  0  0  0  0  0  0  0  0  0  0  0
   28.2524  -21.9972  -17.5508 C   0  0  0  0  0  0  0  0  0  0  0  0
   28.3044  -20.9823  -18.2822 O   0  0  0  0  0  0  0  0  0  0  0  0
   27.0477  -22.2876  -16.7334 C   0  0  0  0  0  0  0  0  0  0  0  0
   26.7604  -21.1386  -15.7853 C   0  0  2  0  0  0  0  0  0  0  0  0
   27.9596  -20.9550  -14.9901 N   0  0  0  0  0  0  0  0  0  0  0  0
   25.5960  -21.5111  -14.9405 C   0  0  0  0  0  0  0  0  0  0  0  0
   24.4989  -21.8862  -15.4641 O   0  0  0  0  0  0  0  0  0  0  0  0
   25.3776  -20.8388  -10.7953 O   0  0  0  0  0  0  0  0  0  0  0  0
   24.8540  -22.0315  -11.2941 C   0  0  0  0  0  0  0  0  0  0  0  0
   24.4663  -21.8565  -12.7627 C   0  0  2  0  0  0  0  0  0  0  0  0
   25.6343  -21.4690  -13.5093 N   0  0  0  0  0  0  0  0  0  0  0  0
   23.3618  -20.8838  -12.8905 C   0  0  0  0  0  0  0  0  0  0  0  0
   23.3779  -19.7145  -12.4491 O   0  0  0  0  0  0  0  0  0  0  0  0
   22.6821  -18.1338  -15.9843 N   0  0  0  0  0  0  0  0  0  0  0  0
   21.6875  -18.4656  -15.0387 C   0  0  0  0  0  0  0  0  0  0  0  0
   21.4419  -17.5676  -14.1619 O   0  0  0  0  0  0  0  0  0  0  0  0
   20.9550  -19.7434  -15.0274 C   0  0  0  0  0  0  0  0  0  0  0  0
   21.0163  -20.4719  -13.7285 C   0  0  2  0  0  0  0  0  0  0  0  0
   22.1838  -21.2961  -13.5644 N   0  0  0  0  0  0  0  0  0  0  0  0
   19.8278  -21.3012  -13.5596 C   0  0  0  0  0  0  0  0  0  0  0  0
   20.0002  -22.7002  -13.4845 O   0  0  0  0  0  0  0  0  0  0  0  0
   18.6573  -20.9097  -13.4713 O   0  0  0  0  0  0  0  0  0  0  0  0
  1  2  1  0
  2  4  1  0
  3  2  2  0
  4  5  1  0
  5  6  1  1
  7  5  1  0
  8  7  2  0
  9 10  1  0
 11 10  1  1
 11 12  1  0
 11 13  1  0
 12  7  1  0
 13 20  1  0
 14 13  2  0
 15 16  1  0
 16 18  1  0
 17 16  2  0
 19 18  1  6
 19 21  1  0
 20 19  1  0
 21 22  1  0
 23 21  2  0
M  END
$$$$
