NSN.pdb
     RDKit          3D

 23 22  0  0  1  0  0  0  0  0999 V2000
   20.1702  -14.4837  -16.8216 N   0  0  0  0  0  0  0  0  0  0  0  0
   19.9416  -13.7549  -18.0319 C   0  0  0  0  0  0  0  0  0  0  0  0
   20.2571  -14.3061  -19.1110 O   0  0  0  0  0  0  0  0  0  0  0  0
   19.3508  -12.3931  -18.0149 C   0  0  0  0  0  0  0  0  0  0  0  0
   19.0195  -11.9763  -16.5944 C   0  0  2  0  0  0  0  0  0  0  0  0
   17.8127  -12.6934  -16.2288 N   0  0  0  0  0  0  0  0  0  0  0  0
   18.8078  -10.5055  -16.5773 C   0  0  0  0  0  0  0  0  0  0  0  0
   17.7287   -9.9929  -17.0149 O   0  0  0  0  0  0  0  0  0  0  0  0
   18.6836   -8.5320  -13.6814 O   0  0  0  0  0  0  0  0  0  0  0  0
   18.2820   -8.0844  -14.9399 C   0  0  0  0  0  0  0  0  0  0  0  0
   19.4423   -8.2001  -15.9290 C   0  0  2  0  0  0  0  0  0  0  0  0
   19.7891   -9.5890  -16.0788 N   0  0  0  0  0  0  0  0  0  0  0  0
   20.5831   -7.3748  -15.4820 C   0  0  0  0  0  0  0  0  0  0  0  0
   21.5387   -7.7834  -14.7876 O   0  0  0  0  0  0  0  0  0  0  0  0
   22.5287   -1.4740  -15.6458 N   0  0  0  0  0  0  0  0  0  0  0  0
   22.6979   -2.8629  -15.8354 C   0  0  0  0  0  0  0  0  0  0  0  0
   23.8881   -3.2992  -15.6663 O   0  0  0  0  0  0  0  0  0  0  0  0
   21.6074   -3.7837  -16.1990 C   0  0  0  0  0  0  0  0  0  0  0  0
   21.6229   -5.0745  -15.4538 C   0  0  2  0  0  0  0  0  0  0  0  0
   20.6086   -6.0088  -15.8632 N   0  0  0  0  0  0  0  0  0  0  0  0
   21.4872   -4.8308  -14.0216 C   0  0  0  0  0  0  0  0  0  0  0  0
   22.6434   -4.9354  -13.2184 O   0  0  0  0  0  0  0  0  0  0  0  0
   20.4502   -4.5348  -13.4152 O   0  0  0  0  0  0  0  0  0  0  0  0
  1  2  1  0
  2  4  1  0
  3  2  2  0
  4  5  1  0
  5  6  1  6
  7  5  1  0
  8  7  2  0
  9 10  1  0
 11 10  1  1
 11 12  1  0
 11 13  1  0
 12  7  1  0
 13 20  1  0
 14 13  2  0
 15 16  1  0
 16 18  1  0
 17 16  2  0
 19 18  1  6
 19 21  1  0
 20 19  1  0
 21 22  1  0
 23 21  2  0
M  END
$$$$
