NSN.pdb
     RDKit          3D

 23 22  0  0  1  0  0  0  0  0999 V2000
   28.7976  -11.6805  -18.2299 N   0  0  0  0  0  0  0  0  0  0  0  0
   28.8891  -10.3955  -17.6065 C   0  0  0  0  0  0  0  0  0  0  0  0
   30.0146  -10.0235  -17.2035 O   0  0  0  0  0  0  0  0  0  0  0  0
   27.6949   -9.5290  -17.4414 C   0  0  0  0  0  0  0  0  0  0  0  0
   26.4358  -10.2817  -17.8286 C   0  0  2  0  0  0  0  0  0  0  0  0
   26.5327  -10.5347  -19.2537 N   0  0  0  0  0  0  0  0  0  0  0  0
   25.2637   -9.4282  -17.5034 C   0  0  0  0  0  0  0  0  0  0  0  0
   24.9637   -8.4234  -18.2239 O   0  0  0  0  0  0  0  0  0  0  0  0
   23.0505   -9.6594  -13.9174 O   0  0  0  0  0  0  0  0  0  0  0  0
   22.3631   -9.4831  -15.1181 C   0  0  0  0  0  0  0  0  0  0  0  0
   23.2781   -8.8238  -16.1506 C   0  0  2  0  0  0  0  0  0  0  0  0
   24.4152   -9.6769  -16.3766 N   0  0  0  0  0  0  0  0  0  0  0  0
   23.6639   -7.4692  -15.7050 C   0  0  0  0  0  0  0  0  0  0  0  0
   24.7811   -7.1553  -15.2405 O   0  0  0  0  0  0  0  0  0  0  0  0
   23.3157   -2.2785  -14.8056 N   0  0  0  0  0  0  0  0  0  0  0  0
   23.3052   -2.7217  -16.1460 C   0  0  0  0  0  0  0  0  0  0  0  0
   23.4297   -1.8046  -17.0287 O   0  0  0  0  0  0  0  0  0  0  0  0
   23.1670   -4.1324  -16.5463 C   0  0  0  0  0  0  0  0  0  0  0  0
   22.9347   -5.0702  -15.4113 C   0  0  2  0  0  0  0  0  0  0  0  0
   22.7001   -6.4335  -15.8059 N   0  0  0  0  0  0  0  0  0  0  0  0
   21.8084   -4.6141  -14.6036 C   0  0  0  0  0  0  0  0  0  0  0  0
   20.5401   -5.1814  -14.8534 O   0  0  0  0  0  0  0  0  0  0  0  0
   21.8378   -3.7672  -13.7021 O   0  0  0  0  0  0  0  0  0  0  0  0
  1  2  1  0
  2  4  1  0
  3  2  2  0
  4  5  1  0
  5  6  1  6
  7  5  1  0
  8  7  2  0
  9 10  1  0
 11 10  1  1
 11 12  1  0
 11 13  1  0
 12  7  1  0
 13 20  1  0
 14 13  2  0
 15 16  1  0
 16 18  1  0
 17 16  2  0
 19 18  1  6
 19 21  1  0
 20 19  1  0
 21 22  1  0
 23 21  2  0
M  END
$$$$
