NSN.pdb
     RDKit          3D

 23 22  0  0  1  0  0  0  0  0999 V2000
   14.0023  -12.5234  -10.3769 N   0  0  0  0  0  0  0  0  0  0  0  0
   13.1792  -11.5134  -10.9690 C   0  0  0  0  0  0  0  0  0  0  0  0
   12.0707  -11.8649  -11.4331 O   0  0  0  0  0  0  0  0  0  0  0  0
   13.6186  -10.0968  -11.0330 C   0  0  0  0  0  0  0  0  0  0  0  0
   14.9471   -9.9208  -10.3220 C   0  0  2  0  0  0  0  0  0  0  0  0
   14.6802  -10.0982   -8.9072 N   0  0  0  0  0  0  0  0  0  0  0  0
   15.4559   -8.5558  -10.6154 C   0  0  0  0  0  0  0  0  0  0  0  0
   15.7317   -8.2002  -11.8053 O   0  0  0  0  0  0  0  0  0  0  0  0
   16.0903   -5.7000   -7.6377 O   0  0  0  0  0  0  0  0  0  0  0  0
   15.6635   -5.2630   -8.8915 C   0  0  0  0  0  0  0  0  0  0  0  0
   16.1066   -6.2547   -9.9678 C   0  0  2  0  0  0  0  0  0  0  0  0
   15.6668   -7.5735   -9.5946 N   0  0  0  0  0  0  0  0  0  0  0  0
   17.5684   -6.1784  -10.1666 C   0  0  0  0  0  0  0  0  0  0  0  0
   18.4280   -6.5016   -9.3185 O   0  0  0  0  0  0  0  0  0  0  0  0
   22.1159   -5.4762  -12.8186 N   0  0  0  0  0  0  0  0  0  0  0  0
   21.4275   -6.7074  -12.7575 C   0  0  0  0  0  0  0  0  0  0  0  0
   22.0749   -7.7208  -13.1929 O   0  0  0  0  0  0  0  0  0  0  0  0
   20.0598   -6.8616  -12.2328 C   0  0  0  0  0  0  0  0  0  0  0  0
   19.4419   -5.5925  -11.7541 C   0  0  2  0  0  0  0  0  0  0  0  0
   18.0486   -5.7021  -11.4133 N   0  0  0  0  0  0  0  0  0  0  0  0
   19.5995   -4.5455  -12.7580 C   0  0  0  0  0  0  0  0  0  0  0  0
   18.4346   -4.0236  -13.3607 O   0  0  0  0  0  0  0  0  0  0  0  0
   20.6627   -4.0494  -13.1509 O   0  0  0  0  0  0  0  0  0  0  0  0
  1  2  1  0
  2  4  1  0
  3  2  2  0
  4  5  1  0
  5  6  1  1
  7  5  1  0
  8  7  2  0
  9 10  1  0
 11 10  1  1
 11 12  1  0
 11 13  1  0
 12  7  1  0
 13 20  1  0
 14 13  2  0
 15 16  1  0
 16 18  1  0
 17 16  2  0
 19 18  1  6
 19 21  1  0
 20 19  1  0
 21 22  1  0
 23 21  2  0
M  END
$$$$
