NSN.pdb
     RDKit          3D

 23 22  0  0  1  0  0  0  0  0999 V2000
   17.9680  -15.7778  -16.0144 N   0  0  0  0  0  0  0  0  0  0  0  0
   16.8644  -14.8667  -16.0301 C   0  0  0  0  0  0  0  0  0  0  0  0
   15.7722  -15.2684  -15.5683 O   0  0  0  0  0  0  0  0  0  0  0  0
   17.0039  -13.4921  -16.5731 C   0  0  0  0  0  0  0  0  0  0  0  0
   16.9566  -12.4714  -15.4517 C   0  0  2  0  0  0  0  0  0  0  0  0
   15.5933  -12.4716  -14.9560 N   0  0  0  0  0  0  0  0  0  0  0  0
   17.3351  -11.1473  -16.0099 C   0  0  0  0  0  0  0  0  0  0  0  0
   18.4109  -10.9980  -16.6724 O   0  0  0  0  0  0  0  0  0  0  0  0
   16.1596   -6.6805  -17.3344 O   0  0  0  0  0  0  0  0  0  0  0  0
   15.7548   -7.8671  -16.7232 C   0  0  0  0  0  0  0  0  0  0  0  0
   16.9758   -8.7261  -16.3928 C   0  0  2  0  0  0  0  0  0  0  0  0
   16.5284   -9.9765  -15.8376 N   0  0  0  0  0  0  0  0  0  0  0  0
   17.8878   -7.9968  -15.4881 C   0  0  0  0  0  0  0  0  0  0  0  0
   17.7095   -7.8379  -14.2611 O   0  0  0  0  0  0  0  0  0  0  0  0
   20.7145   -8.6813  -13.3325 N   0  0  0  0  0  0  0  0  0  0  0  0
   21.6621   -8.2762  -14.2976 C   0  0  0  0  0  0  0  0  0  0  0  0
   22.7922   -8.8723  -14.2416 O   0  0  0  0  0  0  0  0  0  0  0  0
   21.4087   -7.2460  -15.3193 C   0  0  0  0  0  0  0  0  0  0  0  0
   20.0310   -6.6779  -15.2864 C   0  0  2  0  0  0  0  0  0  0  0  0
   19.0622   -7.4260  -16.0421 N   0  0  0  0  0  0  0  0  0  0  0  0
   20.0424   -5.3010  -15.7689 C   0  0  0  0  0  0  0  0  0  0  0  0
   20.7499   -4.3397  -15.0150 O   0  0  0  0  0  0  0  0  0  0  0  0
   19.4906   -4.8683  -16.7883 O   0  0  0  0  0  0  0  0  0  0  0  0
  1  2  1  0
  2  4  1  0
  3  2  2  0
  4  5  1  0
  5  6  1  6
  7  5  1  0
  8  7  2  0
  9 10  1  0
 11 10  1  1
 11 12  1  0
 11 13  1  0
 12  7  1  0
 13 20  1  0
 14 13  2  0
 15 16  1  0
 16 18  1  0
 17 16  2  0
 19 18  1  6
 19 21  1  0
 20 19  1  0
 21 22  1  0
 23 21  2  0
M  END
$$$$
