NSN.pdb
     RDKit          3D

 23 22  0  0  1  0  0  0  0  0999 V2000
   20.2268  -10.9233  -19.8601 N   0  0  0  0  0  0  0  0  0  0  0  0
   19.2835  -10.8157  -18.7891 C   0  0  0  0  0  0  0  0  0  0  0  0
   18.5004  -11.7752  -18.6053 O   0  0  0  0  0  0  0  0  0  0  0  0
   19.2311   -9.6114  -17.9226 C   0  0  0  0  0  0  0  0  0  0  0  0
   19.5683   -9.9745  -16.4887 C   0  0  2  0  0  0  0  0  0  0  0  0
   18.4438  -10.7403  -15.9856 N   0  0  0  0  0  0  0  0  0  0  0  0
   19.7598   -8.7162  -15.7217 C   0  0  0  0  0  0  0  0  0  0  0  0
   18.8351   -8.2522  -14.9812 O   0  0  0  0  0  0  0  0  0  0  0  0
   22.3694   -5.5651  -13.4180 O   0  0  0  0  0  0  0  0  0  0  0  0
   22.3583   -6.6736  -14.2644 C   0  0  0  0  0  0  0  0  0  0  0  0
   21.0527   -6.7093  -15.0595 C   0  0  2  0  0  0  0  0  0  0  0  0
   20.9745   -7.9589  -15.7696 N   0  0  0  0  0  0  0  0  0  0  0  0
   20.9653   -5.5393  -15.9571 C   0  0  0  0  0  0  0  0  0  0  0  0
   21.5769   -5.4159  -17.0402 O   0  0  0  0  0  0  0  0  0  0  0  0
   18.2911   -2.5535  -18.5482 N   0  0  0  0  0  0  0  0  0  0  0  0
   17.8960   -2.2400  -17.2295 C   0  0  0  0  0  0  0  0  0  0  0  0
   16.7382   -1.7089  -17.1147 O   0  0  0  0  0  0  0  0  0  0  0  0
   18.7251   -2.4930  -16.0387 C   0  0  0  0  0  0  0  0  0  0  0  0
   19.9835   -3.2416  -16.3176 C   0  0  2  0  0  0  0  0  0  0  0  0
   20.1253   -4.4634  -15.5716 N   0  0  0  0  0  0  0  0  0  0  0  0
   21.1421   -2.3941  -16.0564 C   0  0  0  0  0  0  0  0  0  0  0  0
   21.8786   -2.6232  -14.8741 O   0  0  0  0  0  0  0  0  0  0  0  0
   21.5645   -1.4758  -16.7700 O   0  0  0  0  0  0  0  0  0  0  0  0
  1  2  1  0
  2  4  1  0
  3  2  2  0
  4  5  1  0
  5  6  1  1
  7  5  1  0
  8  7  2  0
  9 10  1  0
 11 10  1  6
 11 12  1  0
 11 13  1  0
 12  7  1  0
 13 20  1  0
 14 13  2  0
 15 16  1  0
 16 18  1  0
 17 16  2  0
 19 18  1  1
 19 21  1  0
 20 19  1  0
 21 22  1  0
 23 21  2  0
M  END
$$$$
