NSN.pdb
     RDKit          3D

 23 22  0  0  1  0  0  0  0  0999 V2000
   18.5650  -15.0620  -16.0292 N   0  0  0  0  0  0  0  0  0  0  0  0
   19.7942  -14.3716  -16.2759 C   0  0  0  0  0  0  0  0  0  0  0  0
   20.8243  -15.0619  -16.4483 O   0  0  0  0  0  0  0  0  0  0  0  0
   19.8517  -12.8890  -16.3274 C   0  0  0  0  0  0  0  0  0  0  0  0
   18.4768  -12.2960  -16.0836 C   0  0  2  0  0  0  0  0  0  0  0  0
   17.7041  -12.5479  -17.2850 N   0  0  0  0  0  0  0  0  0  0  0  0
   18.6351  -10.8402  -15.8306 C   0  0  0  0  0  0  0  0  0  0  0  0
   19.1473  -10.0738  -16.7074 O   0  0  0  0  0  0  0  0  0  0  0  0
   18.3638   -8.9677  -12.0687 O   0  0  0  0  0  0  0  0  0  0  0  0
   17.7117   -8.3671  -13.1453 C   0  0  0  0  0  0  0  0  0  0  0  0
   18.3694   -8.7951  -14.4577 C   0  0  2  0  0  0  0  0  0  0  0  0
   18.2308  -10.2203  -14.6043 N   0  0  0  0  0  0  0  0  0  0  0  0
   19.7790   -8.3547  -14.4938 C   0  0  0  0  0  0  0  0  0  0  0  0
   20.7702   -9.1004  -14.3392 O   0  0  0  0  0  0  0  0  0  0  0  0
   24.2782   -6.1177  -16.9298 N   0  0  0  0  0  0  0  0  0  0  0  0
   23.0954   -5.5452  -16.4134 C   0  0  0  0  0  0  0  0  0  0  0  0
   23.1848   -4.3168  -16.0688 O   0  0  0  0  0  0  0  0  0  0  0  0
   21.8233   -6.2732  -16.2675 C   0  0  0  0  0  0  0  0  0  0  0  0
   21.3622   -6.4222  -14.8580 C   0  0  2  0  0  0  0  0  0  0  0  0
   20.0432   -6.9797  -14.7204 N   0  0  0  0  0  0  0  0  0  0  0  0
   21.4011   -5.1328  -14.1763 C   0  0  0  0  0  0  0  0  0  0  0  0
   22.5990   -4.7606  -13.5287 O   0  0  0  0  0  0  0  0  0  0  0  0
   20.4829   -4.3070  -14.0995 O   0  0  0  0  0  0  0  0  0  0  0  0
  1  2  1  0
  2  4  1  0
  3  2  2  0
  4  5  1  0
  5  6  1  6
  7  5  1  0
  8  7  2  0
  9 10  1  0
 11 10  1  1
 11 12  1  0
 11 13  1  0
 12  7  1  0
 13 20  1  0
 14 13  2  0
 15 16  1  0
 16 18  1  0
 17 16  2  0
 19 18  1  6
 19 21  1  0
 20 19  1  0
 21 22  1  0
 23 21  2  0
M  END
$$$$
