NSN.pdb
     RDKit          3D

 23 22  0  0  1  0  0  0  0  0999 V2000
   28.4730  -12.7403  -15.5031 N   0  0  0  0  0  0  0  0  0  0  0  0
   28.8619  -11.6662  -16.3652 C   0  0  0  0  0  0  0  0  0  0  0  0
   29.9905  -11.7319  -16.9033 O   0  0  0  0  0  0  0  0  0  0  0  0
   27.9626  -10.5121  -16.6171 C   0  0  0  0  0  0  0  0  0  0  0  0
   26.7202  -10.6091  -15.7520 C   0  0  2  0  0  0  0  0  0  0  0  0
   26.2541  -11.9786  -15.8580 N   0  0  0  0  0  0  0  0  0  0  0  0
   25.7137   -9.6473  -16.2719 C   0  0  0  0  0  0  0  0  0  0  0  0
   25.9061   -8.3919  -16.1971 O   0  0  0  0  0  0  0  0  0  0  0  0
   21.7558  -10.6563  -17.1436 O   0  0  0  0  0  0  0  0  0  0  0  0
   22.3788   -9.7690  -18.0210 C   0  0  0  0  0  0  0  0  0  0  0  0
   23.5426   -9.0706  -17.3169 C   0  0  2  0  0  0  0  0  0  0  0  0
   24.4845  -10.0660  -16.8763 N   0  0  0  0  0  0  0  0  0  0  0  0
   23.0436   -8.2308  -16.2087 C   0  0  0  0  0  0  0  0  0  0  0  0
   23.3057   -8.4052  -14.9990 O   0  0  0  0  0  0  0  0  0  0  0  0
   20.5820   -4.1184  -13.9122 N   0  0  0  0  0  0  0  0  0  0  0  0
   21.9256   -4.0721  -14.3436 C   0  0  0  0  0  0  0  0  0  0  0  0
   22.6002   -3.0665  -13.9320 O   0  0  0  0  0  0  0  0  0  0  0  0
   22.5501   -5.0910  -15.2046 C   0  0  0  0  0  0  0  0  0  0  0  0
   21.6524   -6.2276  -15.5567 C   0  0  2  0  0  0  0  0  0  0  0  0
   22.1990   -7.1370  -16.5281 N   0  0  0  0  0  0  0  0  0  0  0  0
   20.3740   -5.7257  -16.0495 C   0  0  0  0  0  0  0  0  0  0  0  0
   19.2884   -5.6777  -15.1485 O   0  0  0  0  0  0  0  0  0  0  0  0
   20.1260   -5.3266  -17.1941 O   0  0  0  0  0  0  0  0  0  0  0  0
  1  2  1  0
  2  4  1  0
  3  2  2  0
  4  5  1  0
  5  6  1  6
  7  5  1  0
  8  7  2  0
  9 10  1  0
 11 10  1  1
 11 12  1  0
 11 13  1  0
 12  7  1  0
 13 20  1  0
 14 13  2  0
 15 16  1  0
 16 18  1  0
 17 16  2  0
 19 18  1  6
 19 21  1  0
 20 19  1  0
 21 22  1  0
 23 21  2  0
M  END
$$$$
