NSN.pdb
     RDKit          3D

 23 22  0  0  1  0  0  0  0  0999 V2000
   18.5202  -11.3011  -17.5275 N   0  0  0  0  0  0  0  0  0  0  0  0
   19.2519  -11.8869  -16.4458 C   0  0  0  0  0  0  0  0  0  0  0  0
   19.7788  -13.0061  -16.6390 O   0  0  0  0  0  0  0  0  0  0  0  0
   19.3856  -11.1960  -15.1386 C   0  0  0  0  0  0  0  0  0  0  0  0
   18.6700   -9.8587  -15.1698 C   0  0  2  0  0  0  0  0  0  0  0  0
   19.3987   -9.0269  -16.1084 N   0  0  0  0  0  0  0  0  0  0  0  0
   18.6930   -9.2854  -13.7990 C   0  0  0  0  0  0  0  0  0  0  0  0
   18.2124   -9.9273  -12.8113 O   0  0  0  0  0  0  0  0  0  0  0  0
   21.5791   -6.9352  -12.3251 O   0  0  0  0  0  0  0  0  0  0  0  0
   20.3170   -6.4264  -12.0195 C   0  0  0  0  0  0  0  0  0  0  0  0
   19.2654   -7.5290  -12.1481 C   0  0  2  0  0  0  0  0  0  0  0  0
   19.2452   -7.9959  -13.5095 N   0  0  0  0  0  0  0  0  0  0  0  0
   17.9475   -7.0377  -11.6965 C   0  0  0  0  0  0  0  0  0  0  0  0
   17.1833   -6.3088  -12.3652 O   0  0  0  0  0  0  0  0  0  0  0  0
   14.0618   -7.4734   -6.9774 N   0  0  0  0  0  0  0  0  0  0  0  0
   14.3304   -7.5841   -8.3591 C   0  0  0  0  0  0  0  0  0  0  0  0
   13.3549   -7.2928   -9.1332 O   0  0  0  0  0  0  0  0  0  0  0  0
   15.6298   -7.9984   -8.9152 C   0  0  0  0  0  0  0  0  0  0  0  0
   16.2526   -6.9962   -9.8259 C   0  0  2  0  0  0  0  0  0  0  0  0
   17.5018   -7.4145  -10.4037 N   0  0  0  0  0  0  0  0  0  0  0  0
   16.4593   -5.7354   -9.1213 C   0  0  0  0  0  0  0  0  0  0  0  0
   15.3759   -4.8337   -9.0432 O   0  0  0  0  0  0  0  0  0  0  0  0
   17.5001   -5.3565   -8.5698 O   0  0  0  0  0  0  0  0  0  0  0  0
  1  2  1  0
  2  4  1  0
  3  2  2  0
  4  5  1  0
  5  6  1  6
  7  5  1  0
  8  7  2  0
  9 10  1  0
 11 10  1  6
 11 12  1  0
 11 13  1  0
 12  7  1  0
 13 20  1  0
 14 13  2  0
 15 16  1  0
 16 18  1  0
 17 16  2  0
 19 18  1  1
 19 21  1  0
 20 19  1  0
 21 22  1  0
 23 21  2  0
M  END
$$$$
