NSN.pdb
     RDKit          3D

 23 22  0  0  1  0  0  0  0  0999 V2000
   13.1787  -11.5914  -11.2387 N   0  0  0  0  0  0  0  0  0  0  0  0
   13.1827  -10.6492  -10.1614 C   0  0  0  0  0  0  0  0  0  0  0  0
   12.3044  -10.7726   -9.2777 O   0  0  0  0  0  0  0  0  0  0  0  0
   14.1910   -9.5619  -10.0885 C   0  0  0  0  0  0  0  0  0  0  0  0
   15.1585   -9.6567  -11.2532 C   0  0  2  0  0  0  0  0  0  0  0  0
   16.0317  -10.7796  -10.9689 N   0  0  0  0  0  0  0  0  0  0  0  0
   15.9168   -8.3814  -11.3345 C   0  0  0  0  0  0  0  0  0  0  0  0
   15.4495   -7.3792  -11.9636 O   0  0  0  0  0  0  0  0  0  0  0  0
   18.7226   -5.1443   -9.4778 O   0  0  0  0  0  0  0  0  0  0  0  0
   17.9973   -6.3342   -9.4199 C   0  0  0  0  0  0  0  0  0  0  0  0
   17.8564   -6.9275  -10.8222 C   0  0  2  0  0  0  0  0  0  0  0  0
   17.2000   -8.2047  -10.7231 N   0  0  0  0  0  0  0  0  0  0  0  0
   19.1772   -7.0169  -11.4776 C   0  0  0  0  0  0  0  0  0  0  0  0
   20.1145   -7.7577  -11.1100 O   0  0  0  0  0  0  0  0  0  0  0  0
   19.1983   -7.1468  -16.5738 N   0  0  0  0  0  0  0  0  0  0  0  0
   20.0095   -7.1930  -15.4191 C   0  0  0  0  0  0  0  0  0  0  0  0
   20.2289   -8.3618  -14.9485 O   0  0  0  0  0  0  0  0  0  0  0  0
   20.5875   -6.0038  -14.7702 C   0  0  0  0  0  0  0  0  0  0  0  0
   20.6830   -6.1027  -13.2860 C   0  0  2  0  0  0  0  0  0  0  0  0
   19.4146   -6.2030  -12.6148 N   0  0  0  0  0  0  0  0  0  0  0  0
   21.4089   -4.9559  -12.7505 C   0  0  0  0  0  0  0  0  0  0  0  0
   22.7909   -4.8599  -13.0220 O   0  0  0  0  0  0  0  0  0  0  0  0
   20.9410   -4.0346  -12.0699 O   0  0  0  0  0  0  0  0  0  0  0  0
  1  2  1  0
  2  4  1  0
  3  2  2  0
  4  5  1  0
  5  6  1  1
  7  5  1  0
  8  7  2  0
  9 10  1  0
 11 10  1  1
 11 12  1  0
 11 13  1  0
 12  7  1  0
 13 20  1  0
 14 13  2  0
 15 16  1  0
 16 18  1  0
 17 16  2  0
 19 18  1  6
 19 21  1  0
 20 19  1  0
 21 22  1  0
 23 21  2  0
M  END
$$$$
