NSN.pdb
     RDKit          3D

 23 22  0  0  1  0  0  0  0  0999 V2000
   21.2906  -21.8919  -13.5432 N   0  0  0  0  0  0  0  0  0  0  0  0
   21.5401  -20.4927  -13.7113 C   0  0  0  0  0  0  0  0  0  0  0  0
   20.5592  -19.7165  -13.6569 O   0  0  0  0  0  0  0  0  0  0  0  0
   22.9119  -19.9738  -13.9417 C   0  0  0  0  0  0  0  0  0  0  0  0
   23.9111  -21.1147  -13.9795 C   0  0  2  0  0  0  0  0  0  0  0  0
   24.4773  -21.2066  -12.6472 N   0  0  0  0  0  0  0  0  0  0  0  0
   24.9487  -20.7925  -14.9934 C   0  0  0  0  0  0  0  0  0  0  0  0
   24.8111  -21.1455  -16.2079 O   0  0  0  0  0  0  0  0  0  0  0  0
   28.7346  -18.9959  -14.1037 O   0  0  0  0  0  0  0  0  0  0  0  0
   28.0909  -18.8019  -15.3257 C   0  0  0  0  0  0  0  0  0  0  0  0
   27.2060  -20.0071  -15.6458 C   0  0  2  0  0  0  0  0  0  0  0  0
   26.1487  -20.0797  -14.6718 N   0  0  0  0  0  0  0  0  0  0  0  0
   28.0167  -21.2410  -15.6971 C   0  0  0  0  0  0  0  0  0  0  0  0
   28.2395  -21.9967  -14.7267 O   0  0  0  0  0  0  0  0  0  0  0  0
   29.9695  -26.1245  -16.1689 N   0  0  0  0  0  0  0  0  0  0  0  0
   29.3521  -25.3030  -17.1371 C   0  0  0  0  0  0  0  0  0  0  0  0
   29.4657  -25.7003  -18.3475 O   0  0  0  0  0  0  0  0  0  0  0  0
   28.6147  -24.0679  -16.8205 C   0  0  0  0  0  0  0  0  0  0  0  0
   29.3494  -22.8146  -17.1536 C   0  0  2  0  0  0  0  0  0  0  0  0
   28.5945  -21.6089  -16.9392 N   0  0  0  0  0  0  0  0  0  0  0  0
   29.7984  -22.8477  -18.5415 C   0  0  0  0  0  0  0  0  0  0  0  0
   31.1304  -23.2378  -18.7986 O   0  0  0  0  0  0  0  0  0  0  0  0
   29.1293  -22.5673  -19.5437 O   0  0  0  0  0  0  0  0  0  0  0  0
  1  2  1  0
  2  4  1  0
  3  2  2  0
  4  5  1  0
  5  6  1  1
  7  5  1  0
  8  7  2  0
  9 10  1  0
 11 10  1  1
 11 12  1  0
 11 13  1  0
 12  7  1  0
 13 20  1  0
 14 13  2  0
 15 16  1  0
 16 18  1  0
 17 16  2  0
 19 18  1  6
 19 21  1  0
 20 19  1  0
 21 22  1  0
 23 21  2  0
M  END
$$$$
