NAE.pdb
     RDKit          3D

 23 22  0  0  1  0  0  0  0  0999 V2000
    0.3902  -19.8821   19.3862 N   0  0  0  0  0  0  0  0  0  0  0  0
    0.8656  -19.4367   20.6330 C   0  0  0  0  0  0  0  0  0  0  0  0
    0.0720  -19.4557   21.6159 O   0  0  0  0  0  0  0  0  0  0  0  0
    2.2569  -18.9494   20.8284 C   0  0  0  0  0  0  0  0  0  0  0  0
    3.0364  -19.9225   21.6991 C   0  0  2  0  0  0  0  0  0  0  0  0
    3.0585  -19.3515   23.0303 N   0  0  0  0  0  0  0  0  0  0  0  0
    4.4064  -20.0677   21.1460 C   0  0  0  0  0  0  0  0  0  0  0  0
    4.6015  -21.0666   20.3888 O   0  0  0  0  0  0  0  0  0  0  0  0
    7.6128  -18.0997   21.0907 C   0  0  0  0  0  0  0  0  0  0  0  0
    6.7421  -19.3507   20.9673 C   0  0  2  0  0  0  0  0  0  0  0  0
    5.4224  -19.1326   21.4594 N   0  0  0  0  0  0  0  0  0  0  0  0
    7.4689  -20.4017   21.7600 C   0  0  0  0  0  0  0  0  0  0  0  0
    8.5943  -20.8000   21.3699 O   0  0  0  0  0  0  0  0  0  0  0  0
    6.9407  -20.9653   22.9311 N   0  0  0  0  0  0  0  0  0  0  0  0
    7.5732  -22.0748   23.6581 C   0  0  1  0  0  0  0  0  0  0  0  0
    8.3797  -21.4421   24.7457 C   0  0  0  0  0  0  0  0  0  0  0  0
    7.6798  -20.4207   25.5671 C   0  0  0  0  0  0  0  0  0  0  0  0
    8.4445  -19.8440   26.6701 C   0  0  0  0  0  0  0  0  0  0  0  0
    8.1255  -18.7278   27.1325 O   0  0  0  0  0  0  0  0  0  0  0  0
    6.5597  -23.0214   24.1641 C   0  0  0  0  0  0  0  0  0  0  0  0
    5.3402  -22.7285   24.1280 O   0  0  0  0  0  0  0  0  0  0  0  0
    9.5184  -20.5165   27.2108 O   0  0  0  0  0  0  0  0  0  0  0  0
    6.9284  -24.2484   24.6876 O   0  0  0  0  0  0  0  0  0  0  0  0
  1  2  1  0
  2  4  1  0
  2  3  2  0
  4  5  1  0
  5  7  1  0
  5  6  1  1
  7  8  2  0
 10  9  1  1
 11 10  1  0
 11  7  1  0
 12 13  2  0
 12 10  1  0
 14 12  1  0
 15 20  1  0
 15 14  1  0
 15 16  1  1
 17 18  1  0
 17 16  1  0
 18 19  2  0
 20 23  1  0
 21 20  2  0
 22 18  1  0
M  END
$$$$
