NAE.pdb
     RDKit          3D

 23 22  0  0  1  0  0  0  0  0999 V2000
   10.7163  -18.2325   14.6723 N   0  0  0  0  0  0  0  0  0  0  0  0
    9.6184  -17.3889   14.9208 C   0  0  0  0  0  0  0  0  0  0  0  0
    8.5889  -17.5212   14.2004 O   0  0  0  0  0  0  0  0  0  0  0  0
    9.6311  -16.3580   15.9924 C   0  0  0  0  0  0  0  0  0  0  0  0
    9.1553  -16.9598   17.3054 C   0  0  2  0  0  0  0  0  0  0  0  0
    7.7484  -17.2581   17.1317 N   0  0  0  0  0  0  0  0  0  0  0  0
    9.3723  -15.9711   18.3914 C   0  0  0  0  0  0  0  0  0  0  0  0
   10.5764  -15.7793   18.7416 O   0  0  0  0  0  0  0  0  0  0  0  0
    7.3332  -13.5913   20.4737 C   0  0  0  0  0  0  0  0  0  0  0  0
    8.5050  -14.5253   20.1688 C   0  0  2  0  0  0  0  0  0  0  0  0
    8.2824  -15.2924   18.9883 N   0  0  0  0  0  0  0  0  0  0  0  0
    8.6264  -15.3966   21.3883 C   0  0  0  0  0  0  0  0  0  0  0  0
    7.7468  -16.2636   21.6168 O   0  0  0  0  0  0  0  0  0  0  0  0
    9.6912  -15.2843   22.2948 N   0  0  0  0  0  0  0  0  0  0  0  0
    9.8802  -16.1802   23.4442 C   0  0  1  0  0  0  0  0  0  0  0  0
   10.2194  -17.5166   22.8676 C   0  0  0  0  0  0  0  0  0  0  0  0
   11.4170  -17.5634   21.9893 C   0  0  0  0  0  0  0  0  0  0  0  0
   11.7931  -18.8796   21.4794 C   0  0  0  0  0  0  0  0  0  0  0  0
   11.2811  -19.3079   20.4230 O   0  0  0  0  0  0  0  0  0  0  0  0
   10.9203  -15.6608   24.3540 C   0  0  0  0  0  0  0  0  0  0  0  0
   11.1401  -16.2198   25.4556 O   0  0  0  0  0  0  0  0  0  0  0  0
   12.7090  -19.6602   22.1501 O   0  0  0  0  0  0  0  0  0  0  0  0
   11.6742  -14.5506   24.0155 O   0  0  0  0  0  0  0  0  0  0  0  0
  1  2  1  0
  2  4  1  0
  2  3  2  0
  4  5  1  0
  5  7  1  0
  5  6  1  6
  7  8  2  0
 10  9  1  1
 11 10  1  0
 11  7  1  0
 12 13  2  0
 12 10  1  0
 14 12  1  0
 15 20  1  0
 15 14  1  0
 15 16  1  6
 17 18  1  0
 17 16  1  0
 18 19  2  0
 20 23  1  0
 21 20  2  0
 22 18  1  0
M  END
$$$$
