NAE.pdb
     RDKit          3D

 23 22  0  0  1  0  0  0  0  0999 V2000
    8.1856  -18.4715   17.9623 N   0  0  0  0  0  0  0  0  0  0  0  0
    7.5092  -17.5588   18.7917 C   0  0  0  0  0  0  0  0  0  0  0  0
    6.4275  -17.0587   18.3718 O   0  0  0  0  0  0  0  0  0  0  0  0
    8.0212  -17.1681   20.1321 C   0  0  0  0  0  0  0  0  0  0  0  0
    8.0161  -15.6541   20.2751 C   0  0  2  0  0  0  0  0  0  0  0  0
    8.8587  -15.1409   19.2144 N   0  0  0  0  0  0  0  0  0  0  0  0
    8.5489  -15.2982   21.6143 C   0  0  0  0  0  0  0  0  0  0  0  0
    9.7870  -15.5050   21.7973 O   0  0  0  0  0  0  0  0  0  0  0  0
    7.2173  -13.8351   24.8310 C   0  0  0  0  0  0  0  0  0  0  0  0
    8.2441  -14.4918   23.9074 C   0  0  2  0  0  0  0  0  0  0  0  0
    7.7048  -14.7599   22.6156 N   0  0  0  0  0  0  0  0  0  0  0  0
    8.6464  -15.7537   24.6193 C   0  0  0  0  0  0  0  0  0  0  0  0
    7.8610  -16.7339   24.6283 O   0  0  0  0  0  0  0  0  0  0  0  0
    9.8751  -15.8886   25.2829 N   0  0  0  0  0  0  0  0  0  0  0  0
   10.2980  -17.1155   25.9723 C   0  0  1  0  0  0  0  0  0  0  0  0
   11.4659  -17.6358   25.1985 C   0  0  0  0  0  0  0  0  0  0  0  0
   12.7511  -16.9162   25.3941 C   0  0  0  0  0  0  0  0  0  0  0  0
   13.6297  -16.8350   24.2299 C   0  0  0  0  0  0  0  0  0  0  0  0
   14.1212  -17.8773   23.7466 O   0  0  0  0  0  0  0  0  0  0  0  0
   10.6158  -16.8437   27.3881 C   0  0  0  0  0  0  0  0  0  0  0  0
   10.6208  -15.6677   27.8255 O   0  0  0  0  0  0  0  0  0  0  0  0
   13.9261  -15.6191   23.6539 O   0  0  0  0  0  0  0  0  0  0  0  0
   10.9141  -17.8743   28.2625 O   0  0  0  0  0  0  0  0  0  0  0  0
  1  2  1  0
  2  4  1  0
  2  3  2  0
  4  5  1  0
  5  7  1  0
  5  6  1  6
  7  8  2  0
 10  9  1  1
 11 10  1  0
 11  7  1  0
 12 13  2  0
 12 10  1  0
 14 12  1  0
 15 20  1  0
 15 14  1  0
 15 16  1  6
 17 18  1  0
 17 16  1  0
 18 19  2  0
 20 23  1  0
 21 20  2  0
 22 18  1  0
M  END
$$$$
