NAE.pdb
     RDKit          3D

 23 22  0  0  1  0  0  0  0  0999 V2000
    6.6051  -16.6412   18.7047 N   0  0  0  0  0  0  0  0  0  0  0  0
    6.9956  -17.4833   19.7616 C   0  0  0  0  0  0  0  0  0  0  0  0
    6.7059  -18.7107   19.6851 O   0  0  0  0  0  0  0  0  0  0  0  0
    7.7303  -16.9803   20.9526 C   0  0  0  0  0  0  0  0  0  0  0  0
    7.7445  -15.4596   20.9569 C   0  0  2  0  0  0  0  0  0  0  0  0
    8.5360  -15.0555   19.8130 N   0  0  0  0  0  0  0  0  0  0  0  0
    8.3477  -14.9904   22.2297 C   0  0  0  0  0  0  0  0  0  0  0  0
    9.6085  -15.0942   22.3235 O   0  0  0  0  0  0  0  0  0  0  0  0
    7.1849  -13.2638   25.3741 C   0  0  0  0  0  0  0  0  0  0  0  0
    8.1646  -14.0094   24.4671 C   0  0  2  0  0  0  0  0  0  0  0  0
    7.5423  -14.4605   23.2668 N   0  0  0  0  0  0  0  0  0  0  0  0
    8.6638  -15.1548   25.3037 C   0  0  0  0  0  0  0  0  0  0  0  0
    7.9270  -16.1565   25.4805 O   0  0  0  0  0  0  0  0  0  0  0  0
    9.9318  -15.1562   25.9040 N   0  0  0  0  0  0  0  0  0  0  0  0
   10.4638  -16.2843   26.6811 C   0  0  1  0  0  0  0  0  0  0  0  0
   11.9255  -16.3374   26.3740 C   0  0  0  0  0  0  0  0  0  0  0  0
   12.2861  -16.6835   24.9747 C   0  0  0  0  0  0  0  0  0  0  0  0
   13.7126  -16.7011   24.6608 C   0  0  0  0  0  0  0  0  0  0  0  0
   14.5481  -16.4083   25.5428 O   0  0  0  0  0  0  0  0  0  0  0  0
   10.1798  -16.1159   28.1199 C   0  0  0  0  0  0  0  0  0  0  0  0
    9.6683  -15.0532   28.5483 O   0  0  0  0  0  0  0  0  0  0  0  0
   14.1528  -17.0375   23.3995 O   0  0  0  0  0  0  0  0  0  0  0  0
   10.4693  -17.1209   29.0264 O   0  0  0  0  0  0  0  0  0  0  0  0
  1  2  1  0
  2  4  1  0
  2  3  2  0
  4  5  1  0
  5  7  1  0
  5  6  1  6
  7  8  2  0
 10  9  1  1
 11 10  1  0
 11  7  1  0
 12 13  2  0
 12 10  1  0
 14 12  1  0
 15 20  1  0
 15 14  1  0
 15 16  1  1
 17 18  1  0
 17 16  1  0
 18 19  2  0
 20 23  1  0
 21 20  2  0
 22 18  1  0
M  END
$$$$
