NAE.pdb
     RDKit          3D

 23 22  0  0  1  0  0  0  0  0999 V2000
    8.9213  -18.4421   14.2887 N   0  0  0  0  0  0  0  0  0  0  0  0
    7.9418  -17.7819   15.0525 C   0  0  0  0  0  0  0  0  0  0  0  0
    6.7269  -18.0005   14.7830 O   0  0  0  0  0  0  0  0  0  0  0  0
    8.2871  -16.8452   16.1547 C   0  0  0  0  0  0  0  0  0  0  0  0
    8.1747  -17.5504   17.4974 C   0  0  2  0  0  0  0  0  0  0  0  0
    6.7774  -17.8951   17.6618 N   0  0  0  0  0  0  0  0  0  0  0  0
    8.6367  -16.6261   18.5634 C   0  0  0  0  0  0  0  0  0  0  0  0
    9.8616  -16.2982   18.5280 O   0  0  0  0  0  0  0  0  0  0  0  0
    7.1394  -14.8499   21.5398 C   0  0  0  0  0  0  0  0  0  0  0  0
    8.2544  -15.3721   20.6329 C   0  0  2  0  0  0  0  0  0  0  0  0
    7.7434  -16.1502   19.5536 N   0  0  0  0  0  0  0  0  0  0  0  0
    9.1361  -16.1844   21.5406 C   0  0  0  0  0  0  0  0  0  0  0  0
    8.7535  -17.3195   21.9182 O   0  0  0  0  0  0  0  0  0  0  0  0
   10.3834  -15.7266   21.9911 N   0  0  0  0  0  0  0  0  0  0  0  0
   11.2836  -16.5190   22.8403 C   0  0  1  0  0  0  0  0  0  0  0  0
   12.6647  -16.0416   22.5268 C   0  0  0  0  0  0  0  0  0  0  0  0
   13.7656  -16.6804   23.2936 C   0  0  0  0  0  0  0  0  0  0  0  0
   15.1191  -16.2330   22.9748 C   0  0  0  0  0  0  0  0  0  0  0  0
   15.5739  -15.1970   23.5053 O   0  0  0  0  0  0  0  0  0  0  0  0
   10.9300  -16.3735   24.2661 C   0  0  0  0  0  0  0  0  0  0  0  0
   10.2638  -15.3857   24.6597 O   0  0  0  0  0  0  0  0  0  0  0  0
   15.9060  -16.9405   22.0925 O   0  0  0  0  0  0  0  0  0  0  0  0
   11.3225  -17.3182   25.1983 O   0  0  0  0  0  0  0  0  0  0  0  0
  1  2  1  0
  2  4  1  0
  2  3  2  0
  4  5  1  0
  5  7  1  0
  5  6  1  1
  7  8  2  0
 10  9  1  1
 11 10  1  0
 11  7  1  0
 12 13  2  0
 12 10  1  0
 14 12  1  0
 15 20  1  0
 15 14  1  0
 15 16  1  1
 17 18  1  0
 17 16  1  0
 18 19  2  0
 20 23  1  0
 21 20  2  0
 22 18  1  0
M  END
$$$$
