NAE.pdb
     RDKit          3D

 23 22  0  0  1  0  0  0  0  0999 V2000
   11.0429  -15.5772   19.3248 N   0  0  0  0  0  0  0  0  0  0  0  0
   11.6495  -15.5964   20.5938 C   0  0  0  0  0  0  0  0  0  0  0  0
   12.8786  -15.8804   20.6637 O   0  0  0  0  0  0  0  0  0  0  0  0
   10.8982  -15.2965   21.8416 C   0  0  0  0  0  0  0  0  0  0  0  0
   10.9465  -16.4898   22.7830 C   0  0  2  0  0  0  0  0  0  0  0  0
   10.5216  -17.6381   22.0088 N   0  0  0  0  0  0  0  0  0  0  0  0
   10.0333  -16.2352   23.9255 C   0  0  0  0  0  0  0  0  0  0  0  0
   10.3223  -15.2447   24.6633 O   0  0  0  0  0  0  0  0  0  0  0  0
    6.5884  -17.0365   24.9427 C   0  0  0  0  0  0  0  0  0  0  0  0
    8.0609  -16.7853   25.2703 C   0  0  2  0  0  0  0  0  0  0  0  0
    8.9093  -17.0640   24.1595 N   0  0  0  0  0  0  0  0  0  0  0  0
    8.3518  -17.6876   26.4375 C   0  0  0  0  0  0  0  0  0  0  0  0
    7.6453  -17.6042   27.4726 O   0  0  0  0  0  0  0  0  0  0  0  0
    9.3900  -18.6310   26.4235 N   0  0  0  0  0  0  0  0  0  0  0  0
    9.7807  -19.4296   27.5936 C   0  0  1  0  0  0  0  0  0  0  0  0
   10.2715  -20.7332   27.0518 C   0  0  0  0  0  0  0  0  0  0  0  0
   11.3919  -20.6551   26.0789 C   0  0  0  0  0  0  0  0  0  0  0  0
   11.8675  -21.9260   25.5381 C   0  0  0  0  0  0  0  0  0  0  0  0
   13.0795  -22.2207   25.6143 O   0  0  0  0  0  0  0  0  0  0  0  0
   10.7915  -18.7214   28.4035 C   0  0  0  0  0  0  0  0  0  0  0  0
   11.2867  -17.6408   28.0018 O   0  0  0  0  0  0  0  0  0  0  0  0
   10.9945  -22.8093   24.9418 O   0  0  0  0  0  0  0  0  0  0  0  0
   11.2151  -19.2297   29.6192 O   0  0  0  0  0  0  0  0  0  0  0  0
  1  2  1  0
  2  4  1  0
  2  3  2  0
  4  5  1  0
  5  7  1  0
  5  6  1  6
  7  8  2  0
 10  9  1  6
 11 10  1  0
 11  7  1  0
 12 13  2  0
 12 10  1  0
 14 12  1  0
 15 20  1  0
 15 14  1  0
 15 16  1  6
 17 18  1  0
 17 16  1  0
 18 19  2  0
 20 23  1  0
 21 20  2  0
 22 18  1  0
M  END
$$$$
