NAE.pdb
     RDKit          3D

 23 22  0  0  1  0  0  0  0  0999 V2000
    8.7041  -16.9963   14.1685 N   0  0  0  0  0  0  0  0  0  0  0  0
    7.6784  -17.2318   15.1019 C   0  0  0  0  0  0  0  0  0  0  0  0
    7.1463  -18.3775   15.1278 O   0  0  0  0  0  0  0  0  0  0  0  0
    7.2057  -16.1867   16.0482 C   0  0  0  0  0  0  0  0  0  0  0  0
    7.9682  -14.8904   15.8223 C   0  0  2  0  0  0  0  0  0  0  0  0
    8.9185  -15.1554   14.7616 N   0  0  0  0  0  0  0  0  0  0  0  0
    8.6523  -14.5116   17.0843 C   0  0  0  0  0  0  0  0  0  0  0  0
    9.8696  -14.8537   17.1858 O   0  0  0  0  0  0  0  0  0  0  0  0
    7.7759  -12.6829   20.2709 C   0  0  0  0  0  0  0  0  0  0  0  0
    8.6780  -13.4067   19.2706 C   0  0  2  0  0  0  0  0  0  0  0  0
    7.9654  -13.8085   18.1035 N   0  0  0  0  0  0  0  0  0  0  0  0
    9.2205  -14.5861   20.0293 C   0  0  0  0  0  0  0  0  0  0  0  0
    8.6630  -15.7053   19.9105 O   0  0  0  0  0  0  0  0  0  0  0  0
   10.3359  -14.4929   20.8751 N   0  0  0  0  0  0  0  0  0  0  0  0
   10.9521  -15.6490   21.5409 C   0  0  1  0  0  0  0  0  0  0  0  0
   12.4076  -15.3278   21.6511 C   0  0  0  0  0  0  0  0  0  0  0  0
   13.2488  -16.3401   22.3406 C   0  0  0  0  0  0  0  0  0  0  0  0
   14.6784  -16.0495   22.4151 C   0  0  0  0  0  0  0  0  0  0  0  0
   15.1033  -15.2230   23.2507 O   0  0  0  0  0  0  0  0  0  0  0  0
   10.3155  -15.9081   22.8473 C   0  0  0  0  0  0  0  0  0  0  0  0
    9.5789  -15.0431   23.3799 O   0  0  0  0  0  0  0  0  0  0  0  0
   15.5701  -16.6766   21.5728 O   0  0  0  0  0  0  0  0  0  0  0  0
   10.5146  -17.1052   23.5128 O   0  0  0  0  0  0  0  0  0  0  0  0
  1  2  1  0
  2  4  1  0
  2  3  2  0
  4  5  1  0
  5  7  1  0
  5  6  1  6
  7  8  2  0
 10  9  1  1
 11 10  1  0
 11  7  1  0
 12 13  2  0
 12 10  1  0
 14 12  1  0
 15 20  1  0
 15 14  1  0
 15 16  1  1
 17 18  1  0
 17 16  1  0
 18 19  2  0
 20 23  1  0
 21 20  2  0
 22 18  1  0
M  END
$$$$
