NAE.pdb
     RDKit          3D

 23 22  0  0  1  0  0  0  0  0999 V2000
    8.0744  -17.5400   17.7703 N   0  0  0  0  0  0  0  0  0  0  0  0
    8.8081  -16.3406   17.8126 C   0  0  0  0  0  0  0  0  0  0  0  0
    9.2554  -15.8758   16.7263 O   0  0  0  0  0  0  0  0  0  0  0  0
    9.0711  -15.6108   19.0813 C   0  0  0  0  0  0  0  0  0  0  0  0
    8.6175  -16.4439   20.2699 C   0  0  2  0  0  0  0  0  0  0  0  0
    7.1827  -16.5942   20.1394 N   0  0  0  0  0  0  0  0  0  0  0  0
    8.9789  -15.7300   21.5204 C   0  0  0  0  0  0  0  0  0  0  0  0
   10.1758  -15.3182   21.6041 O   0  0  0  0  0  0  0  0  0  0  0  0
    7.2774  -14.5658   24.6717 C   0  0  0  0  0  0  0  0  0  0  0  0
    8.4554  -15.0050   23.8011 C   0  0  2  0  0  0  0  0  0  0  0  0
    8.0256  -15.5315   22.5484 N   0  0  0  0  0  0  0  0  0  0  0  0
    9.1755  -16.0366   24.6248 C   0  0  0  0  0  0  0  0  0  0  0  0
    8.7533  -17.2194   24.6384 O   0  0  0  0  0  0  0  0  0  0  0  0
   10.3125  -15.7347   25.3892 N   0  0  0  0  0  0  0  0  0  0  0  0
   11.0472  -16.7289   26.1837 C   0  0  1  0  0  0  0  0  0  0  0  0
   12.4887  -16.5453   25.8341 C   0  0  0  0  0  0  0  0  0  0  0  0
   12.8617  -16.8423   24.4268 C   0  0  0  0  0  0  0  0  0  0  0  0
   14.2644  -16.6385   24.0736 C   0  0  0  0  0  0  0  0  0  0  0  0
   15.1369  -16.6286   24.9682 O   0  0  0  0  0  0  0  0  0  0  0  0
   10.7745  -16.5604   27.6247 C   0  0  0  0  0  0  0  0  0  0  0  0
   10.1617  -15.5486   28.0431 O   0  0  0  0  0  0  0  0  0  0  0  0
   14.6416  -16.4560   22.7612 O   0  0  0  0  0  0  0  0  0  0  0  0
   11.1861  -17.5095   28.5441 O   0  0  0  0  0  0  0  0  0  0  0  0
  1  2  1  0
  2  4  1  0
  2  3  2  0
  4  5  1  0
  5  7  1  0
  5  6  1  6
  7  8  2  0
 10  9  1  1
 11 10  1  0
 11  7  1  0
 12 13  2  0
 12 10  1  0
 14 12  1  0
 15 20  1  0
 15 14  1  0
 15 16  1  1
 17 18  1  0
 17 16  1  0
 18 19  2  0
 20 23  1  0
 21 20  2  0
 22 18  1  0
M  END
$$$$
