NAE.pdb
     RDKit          3D

 23 22  0  0  1  0  0  0  0  0999 V2000
    7.6008  -14.4714   13.1687 N   0  0  0  0  0  0  0  0  0  0  0  0
    8.6561  -14.9573   13.9618 C   0  0  0  0  0  0  0  0  0  0  0  0
    9.3737  -15.8870   13.4961 O   0  0  0  0  0  0  0  0  0  0  0  0
    8.9502  -14.4175   15.3158 C   0  0  0  0  0  0  0  0  0  0  0  0
    8.7445  -15.4968   16.3673 C   0  0  2  0  0  0  0  0  0  0  0  0
    7.3591  -15.9075   16.2651 N   0  0  0  0  0  0  0  0  0  0  0  0
    9.0462  -14.9261   17.7042 C   0  0  0  0  0  0  0  0  0  0  0  0
   10.2743  -14.8250   18.0056 O   0  0  0  0  0  0  0  0  0  0  0  0
    7.1095  -13.6131   20.6667 C   0  0  0  0  0  0  0  0  0  0  0  0
    8.3296  -14.1421   19.9117 C   0  0  2  0  0  0  0  0  0  0  0  0
    8.0064  -14.5243   18.5772 N   0  0  0  0  0  0  0  0  0  0  0  0
    8.8074  -15.3105   20.7288 C   0  0  0  0  0  0  0  0  0  0  0  0
    8.4633  -16.4734   20.4021 O   0  0  0  0  0  0  0  0  0  0  0  0
    9.6310  -15.1596   21.8544 N   0  0  0  0  0  0  0  0  0  0  0  0
   10.2145  -16.2876   22.5938 C   0  0  1  0  0  0  0  0  0  0  0  0
   11.6089  -16.4361   22.0769 C   0  0  0  0  0  0  0  0  0  0  0  0
   12.0433  -17.8214   21.7603 C   0  0  0  0  0  0  0  0  0  0  0  0
   13.3548  -17.9594   21.1321 C   0  0  0  0  0  0  0  0  0  0  0  0
   13.4588  -17.9020   19.8881 O   0  0  0  0  0  0  0  0  0  0  0  0
   10.1585  -16.0509   24.0499 C   0  0  0  0  0  0  0  0  0  0  0  0
    9.8221  -14.9293   24.5006 O   0  0  0  0  0  0  0  0  0  0  0  0
   14.4852  -18.1532   21.8955 O   0  0  0  0  0  0  0  0  0  0  0  0
   10.4741  -17.0554   24.9483 O   0  0  0  0  0  0  0  0  0  0  0  0
  1  2  1  0
  2  4  1  0
  2  3  2  0
  4  5  1  0
  5  7  1  0
  5  6  1  1
  7  8  2  0
 10  9  1  1
 11 10  1  0
 11  7  1  0
 12 13  2  0
 12 10  1  0
 14 12  1  0
 15 20  1  0
 15 14  1  0
 15 16  1  6
 17 18  1  0
 17 16  1  0
 18 19  2  0
 20 23  1  0
 21 20  2  0
 22 18  1  0
M  END
$$$$
