NAE.pdb
     RDKit          3D

 23 22  0  0  1  0  0  0  0  0999 V2000
    7.3581  -16.7267   15.8068 N   0  0  0  0  0  0  0  0  0  0  0  0
    8.3623  -15.7610   15.6124 C   0  0  0  0  0  0  0  0  0  0  0  0
    8.7031  -15.4844   14.4276 O   0  0  0  0  0  0  0  0  0  0  0  0
    9.0280  -15.0635   16.7444 C   0  0  0  0  0  0  0  0  0  0  0  0
    7.9888  -14.4138   17.6448 C   0  0  2  0  0  0  0  0  0  0  0  0
    7.6890  -13.1239   17.0575 N   0  0  0  0  0  0  0  0  0  0  0  0
    8.5584  -14.2722   19.0084 C   0  0  0  0  0  0  0  0  0  0  0  0
    9.8178  -14.1366   19.0778 O   0  0  0  0  0  0  0  0  0  0  0  0
    7.2653  -14.1443   22.5544 C   0  0  0  0  0  0  0  0  0  0  0  0
    8.3166  -14.1814   21.4445 C   0  0  2  0  0  0  0  0  0  0  0  0
    7.7246  -14.2905   20.1526 N   0  0  0  0  0  0  0  0  0  0  0  0
    9.1739  -15.3731   21.7701 C   0  0  0  0  0  0  0  0  0  0  0  0
    8.8873  -16.4922   21.2770 O   0  0  0  0  0  0  0  0  0  0  0  0
   10.2943  -15.2916   22.6105 N   0  0  0  0  0  0  0  0  0  0  0  0
   11.1555  -16.4377   22.9333 C   0  0  1  0  0  0  0  0  0  0  0  0
   12.5575  -15.9681   22.7153 C   0  0  0  0  0  0  0  0  0  0  0  0
   13.6295  -16.9516   23.0175 C   0  0  0  0  0  0  0  0  0  0  0  0
   15.0025  -16.4856   22.8400 C   0  0  0  0  0  0  0  0  0  0  0  0
   15.3599  -15.3967   23.3382 O   0  0  0  0  0  0  0  0  0  0  0  0
   10.9107  -16.9120   24.3096 C   0  0  0  0  0  0  0  0  0  0  0  0
   10.2762  -16.2005   25.1254 O   0  0  0  0  0  0  0  0  0  0  0  0
   15.9141  -17.2331   22.1272 O   0  0  0  0  0  0  0  0  0  0  0  0
   11.3728  -18.1467   24.7311 O   0  0  0  0  0  0  0  0  0  0  0  0
  1  2  1  0
  2  4  1  0
  2  3  2  0
  4  5  1  0
  5  7  1  0
  5  6  1  6
  7  8  2  0
 10  9  1  1
 11 10  1  0
 11  7  1  0
 12 13  2  0
 12 10  1  0
 14 12  1  0
 15 20  1  0
 15 14  1  0
 15 16  1  1
 17 18  1  0
 17 16  1  0
 18 19  2  0
 20 23  1  0
 21 20  2  0
 22 18  1  0
M  END
$$$$
