NAE.pdb
     RDKit          3D

 23 22  0  0  1  0  0  0  0  0999 V2000
    7.7790  -18.2826   16.3357 N   0  0  0  0  0  0  0  0  0  0  0  0
    8.1061  -16.9164   16.2641 C   0  0  0  0  0  0  0  0  0  0  0  0
    8.1374  -16.3689   15.1259 O   0  0  0  0  0  0  0  0  0  0  0  0
    8.4131  -16.1053   17.4721 C   0  0  0  0  0  0  0  0  0  0  0  0
    8.3605  -16.9771   18.7170 C   0  0  2  0  0  0  0  0  0  0  0  0
    6.9664  -17.3137   18.9211 N   0  0  0  0  0  0  0  0  0  0  0  0
    8.9086  -16.2086   19.8629 C   0  0  0  0  0  0  0  0  0  0  0  0
   10.1221  -15.8513   19.7682 O   0  0  0  0  0  0  0  0  0  0  0  0
    7.6439  -14.7938   23.1225 C   0  0  0  0  0  0  0  0  0  0  0  0
    8.6923  -15.2325   22.0994 C   0  0  2  0  0  0  0  0  0  0  0  0
    8.1044  -15.9031   20.9875 N   0  0  0  0  0  0  0  0  0  0  0  0
    9.6228  -16.1304   22.8669 C   0  0  0  0  0  0  0  0  0  0  0  0
    9.2640  -17.3031   23.1381 O   0  0  0  0  0  0  0  0  0  0  0  0
   10.8903  -15.7131   23.2997 N   0  0  0  0  0  0  0  0  0  0  0  0
   11.8596  -16.6008   23.9570 C   0  0  1  0  0  0  0  0  0  0  0  0
   13.2087  -16.0589   23.6105 C   0  0  0  0  0  0  0  0  0  0  0  0
   14.3685  -16.7500   24.2310 C   0  0  0  0  0  0  0  0  0  0  0  0
   15.6883  -16.2133   23.9089 C   0  0  0  0  0  0  0  0  0  0  0  0
   15.8052  -15.3341   23.0286 O   0  0  0  0  0  0  0  0  0  0  0  0
   11.6168  -16.6640   25.4117 C   0  0  0  0  0  0  0  0  0  0  0  0
   10.9601  -15.7633   25.9878 O   0  0  0  0  0  0  0  0  0  0  0  0
   16.8124  -16.6649   24.5649 O   0  0  0  0  0  0  0  0  0  0  0  0
   12.1050  -17.7130   26.1712 O   0  0  0  0  0  0  0  0  0  0  0  0
  1  2  1  0
  2  4  1  0
  2  3  2  0
  4  5  1  0
  5  7  1  0
  5  6  1  1
  7  8  2  0
 10  9  1  1
 11 10  1  0
 11  7  1  0
 12 13  2  0
 12 10  1  0
 14 12  1  0
 15 20  1  0
 15 14  1  0
 15 16  1  1
 17 18  1  0
 17 16  1  0
 18 19  2  0
 20 23  1  0
 21 20  2  0
 22 18  1  0
M  END
$$$$
