NAE.pdb
     RDKit          3D

 23 22  0  0  1  0  0  0  0  0999 V2000
    7.7124  -12.0953   18.5906 N   0  0  0  0  0  0  0  0  0  0  0  0
    7.5517  -13.4927   18.5751 C   0  0  0  0  0  0  0  0  0  0  0  0
    7.4732  -14.0722   17.4551 O   0  0  0  0  0  0  0  0  0  0  0  0
    7.4718  -14.3003   19.8212 C   0  0  0  0  0  0  0  0  0  0  0  0
    8.8625  -14.7401   20.2517 C   0  0  2  0  0  0  0  0  0  0  0  0
    9.3823  -15.5601   19.1766 N   0  0  0  0  0  0  0  0  0  0  0  0
    8.7511  -15.5080   21.5173 C   0  0  0  0  0  0  0  0  0  0  0  0
    8.2059  -14.9056   22.4915 O   0  0  0  0  0  0  0  0  0  0  0  0
    9.3239  -19.0362   22.6829 C   0  0  0  0  0  0  0  0  0  0  0  0
    9.1248  -17.5293   22.8501 C   0  0  2  0  0  0  0  0  0  0  0  0
    9.2330  -16.8362   21.6094 N   0  0  0  0  0  0  0  0  0  0  0  0
   10.1924  -17.1083   23.8217 C   0  0  0  0  0  0  0  0  0  0  0  0
   11.3605  -16.9077   23.4057 O   0  0  0  0  0  0  0  0  0  0  0  0
    9.9407  -16.9268   25.1898 N   0  0  0  0  0  0  0  0  0  0  0  0
   10.9704  -16.5357   26.1625 C   0  0  1  0  0  0  0  0  0  0  0  0
   10.3152  -15.5504   27.0756 C   0  0  0  0  0  0  0  0  0  0  0  0
    9.7135  -14.3578   26.4250 C   0  0  0  0  0  0  0  0  0  0  0  0
    9.0275  -13.4176   27.3076 C   0  0  0  0  0  0  0  0  0  0  0  0
    9.0158  -13.6165   28.5413 O   0  0  0  0  0  0  0  0  0  0  0  0
   11.5043  -17.7158   26.8707 C   0  0  0  0  0  0  0  0  0  0  0  0
   10.8771  -18.8025   26.8607 O   0  0  0  0  0  0  0  0  0  0  0  0
    8.3894  -12.3085   26.7970 O   0  0  0  0  0  0  0  0  0  0  0  0
   12.7033  -17.6524   27.5591 O   0  0  0  0  0  0  0  0  0  0  0  0
  1  2  1  0
  2  4  1  0
  2  3  2  0
  4  5  1  0
  5  7  1  0
  5  6  1  6
  7  8  2  0
 10  9  1  6
 11 10  1  0
 11  7  1  0
 12 13  2  0
 12 10  1  0
 14 12  1  0
 15 20  1  0
 15 14  1  0
 15 16  1  1
 17 18  1  0
 17 16  1  0
 18 19  2  0
 20 23  1  0
 21 20  2  0
 22 18  1  0
M  END
$$$$
