NAE.pdb
     RDKit          3D

 23 22  0  0  1  0  0  0  0  0999 V2000
    7.6739  -15.5124   13.3436 N   0  0  0  0  0  0  0  0  0  0  0  0
    8.8251  -15.1683   14.0751 C   0  0  0  0  0  0  0  0  0  0  0  0
    9.9344  -15.6434   13.7008 O   0  0  0  0  0  0  0  0  0  0  0  0
    8.7782  -14.2734   15.2618 C   0  0  0  0  0  0  0  0  0  0  0  0
    9.1711  -15.0412   16.5142 C   0  0  2  0  0  0  0  0  0  0  0  0
    8.2327  -16.1385   16.6316 N   0  0  0  0  0  0  0  0  0  0  0  0
    9.0891  -14.1273   17.6813 C   0  0  0  0  0  0  0  0  0  0  0  0
   10.0377  -13.2947   17.8081 O   0  0  0  0  0  0  0  0  0  0  0  0
    6.6539  -13.3030   20.4257 C   0  0  0  0  0  0  0  0  0  0  0  0
    8.0301  -13.3947   19.7653 C   0  0  2  0  0  0  0  0  0  0  0  0
    8.0046  -14.1987   18.5887 N   0  0  0  0  0  0  0  0  0  0  0  0
    8.9236  -13.9796   20.8240 C   0  0  0  0  0  0  0  0  0  0  0  0
    9.0420  -13.3892   21.9263 O   0  0  0  0  0  0  0  0  0  0  0  0
    9.6407  -15.1705   20.6348 N   0  0  0  0  0  0  0  0  0  0  0  0
   10.4064  -15.8376   21.6969 C   0  0  1  0  0  0  0  0  0  0  0  0
   10.1926  -17.3029   21.4944 C   0  0  0  0  0  0  0  0  0  0  0  0
   10.9609  -18.2045   22.3915 C   0  0  0  0  0  0  0  0  0  0  0  0
   10.7903  -19.6378   22.1671 C   0  0  0  0  0  0  0  0  0  0  0  0
    9.6428  -20.1159   22.0394 O   0  0  0  0  0  0  0  0  0  0  0  0
   11.8293  -15.4475   21.6478 C   0  0  0  0  0  0  0  0  0  0  0  0
   12.3106  -14.9223   20.6149 O   0  0  0  0  0  0  0  0  0  0  0  0
   11.8820  -20.4748   22.0941 O   0  0  0  0  0  0  0  0  0  0  0  0
   12.6623  -15.6504   22.7343 O   0  0  0  0  0  0  0  0  0  0  0  0
  1  2  1  0
  2  4  1  0
  2  3  2  0
  4  5  1  0
  5  7  1  0
  5  6  1  1
  7  8  2  0
 10  9  1  1
 11 10  1  0
 11  7  1  0
 12 13  2  0
 12 10  1  0
 14 12  1  0
 15 20  1  0
 15 14  1  0
 15 16  1  6
 17 18  1  0
 17 16  1  0
 18 19  2  0
 20 23  1  0
 21 20  2  0
 22 18  1  0
M  END
$$$$
