FFF.pdb
     RDKit          3D

 34 36  0  0  1  0  0  0  0  0999 V2000
   27.2282  -20.6160  -16.8902 N   0  0  0  0  0  0  0  0  0  0  0  0
   26.2310  -19.8571  -16.1921 C   0  0  1  0  0  0  0  0  0  0  0  0
   25.0959  -19.5441  -17.1437 C   0  0  0  0  0  0  0  0  0  0  0  0
   25.6183  -18.5731  -18.1407 C   0  0  0  0  0  0  0  0  0  0  0  0
   25.9242  -17.2745  -17.7936 C   0  0  0  0  0  0  0  0  0  0  0  0
   26.4146  -16.3794  -18.7504 C   0  0  0  0  0  0  0  0  0  0  0  0
   26.6044  -16.7613  -20.0488 C   0  0  0  0  0  0  0  0  0  0  0  0
   26.3012  -18.0573  -20.4039 C   0  0  0  0  0  0  0  0  0  0  0  0
   25.8120  -18.9506  -19.4502 C   0  0  0  0  0  0  0  0  0  0  0  0
   25.7898  -20.5477  -14.9814 C   0  0  0  0  0  0  0  0  0  0  0  0
   25.7630  -21.8021  -14.9611 O   0  0  0  0  0  0  0  0  0  0  0  0
   25.3942  -19.8171  -13.8368 N   0  0  0  0  0  0  0  0  0  0  0  0
   25.0056  -20.6178  -12.6210 C   0  0  1  0  0  0  0  0  0  0  0  0
   25.7588  -20.0507  -11.4639 C   0  0  0  0  0  0  0  0  0  0  0  0
   27.1996  -20.2856  -11.5391 C   0  0  0  0  0  0  0  0  0  0  0  0
   27.7803  -21.2780  -10.7321 C   0  0  0  0  0  0  0  0  0  0  0  0
   29.1169  -21.5897  -10.7920 C   0  0  0  0  0  0  0  0  0  0  0  0
   29.9582  -20.9308  -11.6610 C   0  0  0  0  0  0  0  0  0  0  0  0
   29.4101  -19.9545  -12.4607 C   0  0  0  0  0  0  0  0  0  0  0  0
   28.0597  -19.6392  -12.4000 C   0  0  0  0  0  0  0  0  0  0  0  0
   23.5751  -20.3992  -12.5051 C   0  0  0  0  0  0  0  0  0  0  0  0
   23.0635  -19.3151  -12.8720 O   0  0  0  0  0  0  0  0  0  0  0  0
   22.6967  -21.3803  -11.9917 N   0  0  0  0  0  0  0  0  0  0  0  0
   21.2589  -21.1183  -12.0262 C   0  0  1  0  0  0  0  0  0  0  0  0
   21.1125  -19.7997  -11.2371 C   0  0  0  0  0  0  0  0  0  0  0  0
   19.7093  -19.4176  -11.0401 C   0  0  0  0  0  0  0  0  0  0  0  0
   19.0927  -18.4671  -11.8562 C   0  0  0  0  0  0  0  0  0  0  0  0
   17.7938  -18.0875  -11.7169 C   0  0  0  0  0  0  0  0  0  0  0  0
   17.0144  -18.6443  -10.7344 C   0  0  0  0  0  0  0  0  0  0  0  0
   17.5898  -19.5811   -9.9158 C   0  0  0  0  0  0  0  0  0  0  0  0
   18.8963  -19.9615  -10.0578 C   0  0  0  0  0  0  0  0  0  0  0  0
   20.7249  -20.9299  -13.3607 C   0  0  0  0  0  0  0  0  0  0  0  0
   19.3912  -21.0942  -13.6715 O   0  0  0  0  0  0  0  0  0  0  0  0
   21.4660  -20.5959  -14.3486 O   0  0  0  0  0  0  0  0  0  0  0  0
  2  1  1  6
  3  2  1  0
  4  3  1  0
  4  5  2  0
  6  5  1  0
  7  6  2  0
  8  9  2  0
  8  7  1  0
  9  4  1  0
 10 11  2  0
 10  2  1  0
 12 10  1  0
 13 14  1  1
 13 12  1  0
 15 16  2  0
 15 14  1  0
 17 16  1  0
 18 17  2  0
 19 18  1  0
 19 20  2  0
 20 15  1  0
 21 13  1  0
 22 21  2  0
 23 21  1  0
 24 23  1  0
 24 25  1  1
 25 26  1  0
 26 31  1  0
 27 26  2  0
 27 28  1  0
 28 29  2  0
 29 30  1  0
 31 30  2  0
 32 33  1  0
 32 24  1  0
 34 32  2  0
M  END
$$$$
