FFF.pdb
     RDKit          3D

 34 36  0  0  1  0  0  0  0  0999 V2000
   25.3099  -22.1907  -12.5557 N   0  0  0  0  0  0  0  0  0  0  0  0
   25.2222  -21.0172  -11.7355 C   0  0  1  0  0  0  0  0  0  0  0  0
   23.7772  -20.5705  -11.6695 C   0  0  0  0  0  0  0  0  0  0  0  0
   23.4244  -20.0365  -13.0112 C   0  0  0  0  0  0  0  0  0  0  0  0
   22.4377  -20.6130  -13.7822 C   0  0  0  0  0  0  0  0  0  0  0  0
   22.1240  -20.0916  -15.0419 C   0  0  0  0  0  0  0  0  0  0  0  0
   22.7807  -19.0032  -15.5437 C   0  0  0  0  0  0  0  0  0  0  0  0
   23.7681  -18.4212  -14.7795 C   0  0  0  0  0  0  0  0  0  0  0  0
   24.0815  -18.9406  -13.5230 C   0  0  0  0  0  0  0  0  0  0  0  0
   25.8121  -21.2457  -10.4174 C   0  0  0  0  0  0  0  0  0  0  0  0
   25.6204  -22.3415   -9.8368 O   0  0  0  0  0  0  0  0  0  0  0  0
   26.5940  -20.2461   -9.7931 N   0  0  0  0  0  0  0  0  0  0  0  0
   27.2207  -20.6022   -8.4700 C   0  0  1  0  0  0  0  0  0  0  0  0
   28.4824  -19.8127   -8.3563 C   0  0  0  0  0  0  0  0  0  0  0  0
   29.0624  -19.8375   -7.0148 C   0  0  0  0  0  0  0  0  0  0  0  0
   28.7963  -18.7810   -6.1280 C   0  0  0  0  0  0  0  0  0  0  0  0
   29.2621  -18.7665   -4.8358 C   0  0  0  0  0  0  0  0  0  0  0  0
   30.0230  -19.8054   -4.3469 C   0  0  0  0  0  0  0  0  0  0  0  0
   30.2960  -20.8507   -5.1991 C   0  0  0  0  0  0  0  0  0  0  0  0
   29.8255  -20.8651   -6.5049 C   0  0  0  0  0  0  0  0  0  0  0  0
   26.2268  -20.1920   -7.4945 C   0  0  0  0  0  0  0  0  0  0  0  0
   25.5888  -19.1233   -7.6443 O   0  0  0  0  0  0  0  0  0  0  0  0
   25.9226  -20.9641   -6.3504 N   0  0  0  0  0  0  0  0  0  0  0  0
   25.2060  -20.3268   -5.2471 C   0  0  1  0  0  0  0  0  0  0  0  0
   24.1080  -21.3511   -4.8893 C   0  0  0  0  0  0  0  0  0  0  0  0
   23.2890  -20.9198   -3.7505 C   0  0  0  0  0  0  0  0  0  0  0  0
   22.0816  -20.2438   -3.9373 C   0  0  0  0  0  0  0  0  0  0  0  0
   21.2857  -19.8322   -2.9138 C   0  0  0  0  0  0  0  0  0  0  0  0
   21.6532  -20.0748   -1.6142 C   0  0  0  0  0  0  0  0  0  0  0  0
   22.8335  -20.7367   -1.3963 C   0  0  0  0  0  0  0  0  0  0  0  0
   23.6324  -21.1498   -2.4273 C   0  0  0  0  0  0  0  0  0  0  0  0
   26.0230  -20.0838   -4.0744 C   0  0  0  0  0  0  0  0  0  0  0  0
   26.9211  -21.0036   -3.5748 O   0  0  0  0  0  0  0  0  0  0  0  0
   25.9618  -18.9869   -3.4186 O   0  0  0  0  0  0  0  0  0  0  0  0
  2  1  1  6
  3  2  1  0
  4  3  1  0
  4  5  2  0
  6  5  1  0
  7  6  2  0
  8  9  2  0
  8  7  1  0
  9  4  1  0
 10 11  2  0
 10  2  1  0
 12 10  1  0
 13 14  1  1
 13 12  1  0
 15 16  2  0
 15 14  1  0
 17 16  1  0
 18 17  2  0
 19 18  1  0
 19 20  2  0
 20 15  1  0
 21 13  1  0
 22 21  2  0
 23 21  1  0
 24 23  1  0
 24 25  1  1
 25 26  1  0
 26 31  1  0
 27 26  2  0
 27 28  1  0
 28 29  2  0
 29 30  1  0
 31 30  2  0
 32 33  1  0
 32 24  1  0
 34 32  2  0
M  END
$$$$
