FFF.pdb
     RDKit          3D

 34 36  0  0  1  0  0  0  0  0999 V2000
   16.9990  -20.5003    3.3213 N   0  0  0  0  0  0  0  0  0  0  0  0
   16.8903  -19.9148    4.6263 C   0  0  1  0  0  0  0  0  0  0  0  0
   17.3582  -20.9202    5.6569 C   0  0  0  0  0  0  0  0  0  0  0  0
   16.3597  -22.0214    5.6759 C   0  0  0  0  0  0  0  0  0  0  0  0
   15.0999  -21.8458    6.2073 C   0  0  0  0  0  0  0  0  0  0  0  0
   14.1777  -22.8979    6.2134 C   0  0  0  0  0  0  0  0  0  0  0  0
   14.4944  -24.1228    5.6968 C   0  0  0  0  0  0  0  0  0  0  0  0
   15.7513  -24.3066    5.1639 C   0  0  0  0  0  0  0  0  0  0  0  0
   16.6716  -23.2578    5.1574 C   0  0  0  0  0  0  0  0  0  0  0  0
   17.6087  -18.6434    4.6989 C   0  0  0  0  0  0  0  0  0  0  0  0
   18.5521  -18.4210    3.9020 O   0  0  0  0  0  0  0  0  0  0  0  0
   17.2509  -17.6656    5.6560 N   0  0  0  0  0  0  0  0  0  0  0  0
   18.0573  -16.3928    5.6602 C   0  0  1  0  0  0  0  0  0  0  0  0
   17.1592  -15.3037    5.1751 C   0  0  0  0  0  0  0  0  0  0  0  0
   17.7726  -13.9781    5.2325 C   0  0  0  0  0  0  0  0  0  0  0  0
   17.4232  -13.1002    6.2719 C   0  0  0  0  0  0  0  0  0  0  0  0
   18.0011  -11.8626    6.4188 C   0  0  0  0  0  0  0  0  0  0  0  0
   18.9642  -11.4231    5.5376 C   0  0  0  0  0  0  0  0  0  0  0  0
   19.3213  -12.2673    4.5114 C   0  0  0  0  0  0  0  0  0  0  0  0
   18.7371  -13.5176    4.3629 C   0  0  0  0  0  0  0  0  0  0  0  0
   18.4255  -16.2206    7.0539 C   0  0  0  0  0  0  0  0  0  0  0  0
   17.6620  -16.6110    7.9684 O   0  0  0  0  0  0  0  0  0  0  0  0
   19.6446  -15.6243    7.4486 N   0  0  0  0  0  0  0  0  0  0  0  0
   19.8818  -15.3948    8.8727 C   0  0  1  0  0  0  0  0  0  0  0  0
   21.3935  -15.0904    8.9431 C   0  0  0  0  0  0  0  0  0  0  0  0
   22.1850  -16.2674    9.3197 C   0  0  0  0  0  0  0  0  0  0  0  0
   21.5738  -17.4650    9.6965 C   0  0  0  0  0  0  0  0  0  0  0  0
   22.2654  -18.5833   10.0454 C   0  0  0  0  0  0  0  0  0  0  0  0
   23.6374  -18.5752   10.0397 C   0  0  0  0  0  0  0  0  0  0  0  0
   24.2686  -17.4145    9.6744 C   0  0  0  0  0  0  0  0  0  0  0  0
   23.5711  -16.2910    9.3238 C   0  0  0  0  0  0  0  0  0  0  0  0
   19.1492  -14.2697    9.4195 C   0  0  0  0  0  0  0  0  0  0  0  0
   18.6862  -14.2280   10.7181 O   0  0  0  0  0  0  0  0  0  0  0  0
   18.8807  -13.2302    8.7235 O   0  0  0  0  0  0  0  0  0  0  0  0
  2  1  1  6
  3  2  1  0
  4  3  1  0
  4  5  2  0
  6  5  1  0
  7  6  2  0
  8  9  2  0
  8  7  1  0
  9  4  1  0
 10 11  2  0
 10  2  1  0
 12 10  1  0
 13 14  1  1
 13 12  1  0
 15 16  2  0
 15 14  1  0
 17 16  1  0
 18 17  2  0
 19 18  1  0
 19 20  2  0
 20 15  1  0
 21 13  1  0
 22 21  2  0
 23 21  1  0
 24 23  1  0
 24 25  1  6
 25 26  1  0
 26 31  1  0
 27 26  2  0
 27 28  1  0
 28 29  2  0
 29 30  1  0
 31 30  2  0
 32 33  1  0
 32 24  1  0
 34 32  2  0
M  END
$$$$
