FFF.pdb
     RDKit          3D

 34 36  0  0  1  0  0  0  0  0999 V2000
   24.2729  -19.0169  -19.0436 N   0  0  0  0  0  0  0  0  0  0  0  0
   23.8692  -18.3836  -17.8215 C   0  0  1  0  0  0  0  0  0  0  0  0
   22.4776  -17.8145  -17.9991 C   0  0  0  0  0  0  0  0  0  0  0  0
   22.5957  -16.6546  -18.9214 C   0  0  0  0  0  0  0  0  0  0  0  0
   23.2613  -15.5044  -18.5548 C   0  0  0  0  0  0  0  0  0  0  0  0
   23.3587  -14.4262  -19.4410 C   0  0  0  0  0  0  0  0  0  0  0  0
   22.8017  -14.4790  -20.6878 C   0  0  0  0  0  0  0  0  0  0  0  0
   22.1348  -15.6249  -21.0618 C   0  0  0  0  0  0  0  0  0  0  0  0
   22.0371  -16.7006  -20.1786 C   0  0  0  0  0  0  0  0  0  0  0  0
   23.9723  -19.3021  -16.6887 C   0  0  0  0  0  0  0  0  0  0  0  0
   23.5872  -20.4892  -16.8193 O   0  0  0  0  0  0  0  0  0  0  0  0
   24.5005  -18.8660  -15.4513 N   0  0  0  0  0  0  0  0  0  0  0  0
   24.4953  -19.8632  -14.3217 C   0  0  1  0  0  0  0  0  0  0  0  0
   25.4528  -19.3630  -13.2916 C   0  0  0  0  0  0  0  0  0  0  0  0
   25.5230  -20.2132  -12.1045 C   0  0  0  0  0  0  0  0  0  0  0  0
   24.8857  -19.8018  -10.9222 C   0  0  0  0  0  0  0  0  0  0  0  0
   24.8639  -20.5758   -9.7874 C   0  0  0  0  0  0  0  0  0  0  0  0
   25.4766  -21.8092   -9.7611 C   0  0  0  0  0  0  0  0  0  0  0  0
   26.1071  -22.2316  -10.9087 C   0  0  0  0  0  0  0  0  0  0  0  0
   26.1295  -21.4494  -12.0552 C   0  0  0  0  0  0  0  0  0  0  0  0
   23.1224  -19.8449  -13.8499 C   0  0  0  0  0  0  0  0  0  0  0  0
   22.5781  -18.7673  -13.5124 O   0  0  0  0  0  0  0  0  0  0  0  0
   22.3367  -21.0159  -13.7564 N   0  0  0  0  0  0  0  0  0  0  0  0
   21.0715  -20.9525  -13.0267 C   0  0  1  0  0  0  0  0  0  0  0  0
   20.2037  -20.0106  -13.8884 C   0  0  0  0  0  0  0  0  0  0  0  0
   19.6786  -20.6735  -15.0878 C   0  0  0  0  0  0  0  0  0  0  0  0
   20.2794  -20.5006  -16.3364 C   0  0  0  0  0  0  0  0  0  0  0  0
   19.8336  -21.1003  -17.4732 C   0  0  0  0  0  0  0  0  0  0  0  0
   18.7387  -21.9262  -17.4331 C   0  0  0  0  0  0  0  0  0  0  0  0
   18.1256  -22.1171  -16.2222 C   0  0  0  0  0  0  0  0  0  0  0  0
   18.5756  -21.5130  -15.0801 C   0  0  0  0  0  0  0  0  0  0  0  0
   20.3975  -22.2299  -12.9013 C   0  0  0  0  0  0  0  0  0  0  0  0
   20.9089  -23.4073  -13.4059 O   0  0  0  0  0  0  0  0  0  0  0  0
   19.2703  -22.3485  -12.3078 O   0  0  0  0  0  0  0  0  0  0  0  0
  2  1  1  6
  3  2  1  0
  4  3  1  0
  4  5  2  0
  6  5  1  0
  7  6  2  0
  8  9  2  0
  8  7  1  0
  9  4  1  0
 10 11  2  0
 10  2  1  0
 12 10  1  0
 13 14  1  1
 13 12  1  0
 15 16  2  0
 15 14  1  0
 17 16  1  0
 18 17  2  0
 19 18  1  0
 19 20  2  0
 20 15  1  0
 21 13  1  0
 22 21  2  0
 23 21  1  0
 24 23  1  0
 24 25  1  6
 25 26  1  0
 26 31  1  0
 27 26  2  0
 27 28  1  0
 28 29  2  0
 29 30  1  0
 31 30  2  0
 32 33  1  0
 32 24  1  0
 34 32  2  0
M  END
$$$$
