FFF.pdb
     RDKit          3D

 34 36  0  0  1  0  0  0  0  0999 V2000
   28.5957  -21.6524  -18.8960 N   0  0  0  0  0  0  0  0  0  0  0  0
   28.4517  -21.5336  -17.4738 C   0  0  1  0  0  0  0  0  0  0  0  0
   29.4645  -20.5331  -16.9590 C   0  0  0  0  0  0  0  0  0  0  0  0
   29.2066  -20.3608  -15.5051 C   0  0  0  0  0  0  0  0  0  0  0  0
   29.6697  -21.2681  -14.5763 C   0  0  0  0  0  0  0  0  0  0  0  0
   29.4139  -21.0837  -13.2133 C   0  0  0  0  0  0  0  0  0  0  0  0
   28.7026  -20.0069  -12.7635 C   0  0  0  0  0  0  0  0  0  0  0  0
   28.2363  -19.0955  -13.6853 C   0  0  0  0  0  0  0  0  0  0  0  0
   28.4910  -19.2787  -15.0448 C   0  0  0  0  0  0  0  0  0  0  0  0
   27.0770  -21.1983  -17.1058 C   0  0  0  0  0  0  0  0  0  0  0  0
   26.5165  -20.2132  -17.6444 O   0  0  0  0  0  0  0  0  0  0  0  0
   26.3758  -21.9718  -16.1516 N   0  0  0  0  0  0  0  0  0  0  0  0
   24.9719  -21.5347  -15.8229 C   0  0  1  0  0  0  0  0  0  0  0  0
   24.0470  -22.5273  -16.4454 C   0  0  0  0  0  0  0  0  0  0  0  0
   22.6417  -22.2955  -16.1164 C   0  0  0  0  0  0  0  0  0  0  0  0
   22.0263  -23.0791  -15.1261 C   0  0  0  0  0  0  0  0  0  0  0  0
   20.7270  -22.8788  -14.7278 C   0  0  0  0  0  0  0  0  0  0  0  0
   19.9597  -21.8841  -15.2927 C   0  0  0  0  0  0  0  0  0  0  0  0
   20.5429  -21.1048  -16.2652 C   0  0  0  0  0  0  0  0  0  0  0  0
   21.8557  -21.3074  -16.6679 C   0  0  0  0  0  0  0  0  0  0  0  0
   24.9267  -21.5769  -14.3724 C   0  0  0  0  0  0  0  0  0  0  0  0
   25.3253  -22.5900  -13.7509 O   0  0  0  0  0  0  0  0  0  0  0  0
   24.4497  -20.4962  -13.5964 N   0  0  0  0  0  0  0  0  0  0  0  0
   24.1979  -20.7150  -12.1730 C   0  0  1  0  0  0  0  0  0  0  0  0
   25.0537  -19.6311  -11.4835 C   0  0  0  0  0  0  0  0  0  0  0  0
   25.4648  -20.0193  -10.1293 C   0  0  0  0  0  0  0  0  0  0  0  0
   26.5569  -20.8624   -9.9141 C   0  0  0  0  0  0  0  0  0  0  0  0
   26.9796  -21.2426   -8.6782 C   0  0  0  0  0  0  0  0  0  0  0  0
   26.3251  -20.7957   -7.5581 C   0  0  0  0  0  0  0  0  0  0  0  0
   25.2484  -19.9660   -7.7348 C   0  0  0  0  0  0  0  0  0  0  0  0
   24.8251  -19.5849   -8.9788 C   0  0  0  0  0  0  0  0  0  0  0  0
   22.8125  -20.5385  -11.7845 C   0  0  0  0  0  0  0  0  0  0  0  0
   22.2523  -21.1507  -10.6828 O   0  0  0  0  0  0  0  0  0  0  0  0
   22.0098  -19.7949  -12.4477 O   0  0  0  0  0  0  0  0  0  0  0  0
  2  1  1  6
  3  2  1  0
  4  3  1  0
  4  5  2  0
  6  5  1  0
  7  6  2  0
  8  9  2  0
  8  7  1  0
  9  4  1  0
 10 11  2  0
 10  2  1  0
 12 10  1  0
 13 14  1  6
 13 12  1  0
 15 16  2  0
 15 14  1  0
 17 16  1  0
 18 17  2  0
 19 18  1  0
 19 20  2  0
 20 15  1  0
 21 13  1  0
 22 21  2  0
 23 21  1  0
 24 23  1  0
 24 25  1  1
 25 26  1  0
 26 31  1  0
 27 26  2  0
 27 28  1  0
 28 29  2  0
 29 30  1  0
 31 30  2  0
 32 33  1  0
 32 24  1  0
 34 32  2  0
M  END
$$$$
