FFF.pdb
     RDKit          3D

 34 36  0  0  1  0  0  0  0  0999 V2000
   17.1905  -10.5561  -16.0575 N   0  0  0  0  0  0  0  0  0  0  0  0
   17.4096   -9.1715  -15.7532 C   0  0  1  0  0  0  0  0  0  0  0  0
   16.1484   -8.3942  -16.0648 C   0  0  0  0  0  0  0  0  0  0  0  0
   16.0400   -8.3150  -17.5453 C   0  0  0  0  0  0  0  0  0  0  0  0
   15.2024   -9.1493  -18.2544 C   0  0  0  0  0  0  0  0  0  0  0  0
   15.1180   -9.0551  -19.6477 C   0  0  0  0  0  0  0  0  0  0  0  0
   15.8572   -8.1405  -20.3438 C   0  0  0  0  0  0  0  0  0  0  0  0
   16.6967   -7.3031  -19.6427 C   0  0  0  0  0  0  0  0  0  0  0  0
   16.7815   -7.3963  -18.2531 C   0  0  0  0  0  0  0  0  0  0  0  0
   17.8644   -8.9967  -14.3747 C   0  0  0  0  0  0  0  0  0  0  0  0
   17.2626   -9.5885  -13.4462 O   0  0  0  0  0  0  0  0  0  0  0  0
   18.9729   -8.1694  -14.0795 N   0  0  0  0  0  0  0  0  0  0  0  0
   19.4032   -8.0999  -12.6372 C   0  0  1  0  0  0  0  0  0  0  0  0
   20.8753   -7.8530  -12.6306 C   0  0  0  0  0  0  0  0  0  0  0  0
   21.4248   -7.6627  -11.2895 C   0  0  0  0  0  0  0  0  0  0  0  0
   21.4612   -6.3724  -10.7351 C   0  0  0  0  0  0  0  0  0  0  0  0
   21.9119   -6.1290   -9.4605 C   0  0  0  0  0  0  0  0  0  0  0  0
   22.3548   -7.1577   -8.6587 C   0  0  0  0  0  0  0  0  0  0  0  0
   22.3280   -8.4298   -9.1823 C   0  0  0  0  0  0  0  0  0  0  0  0
   21.8730   -8.6758  -10.4703 C   0  0  0  0  0  0  0  0  0  0  0  0
   18.6554   -6.9742  -12.1066 C   0  0  0  0  0  0  0  0  0  0  0  0
   18.5923   -5.8945  -12.7405 O   0  0  0  0  0  0  0  0  0  0  0  0
   17.9633   -7.0355  -10.8759 N   0  0  0  0  0  0  0  0  0  0  0  0
   17.3233   -5.8213  -10.3725 C   0  0  1  0  0  0  0  0  0  0  0  0
   15.8352   -6.0219  -10.7302 C   0  0  0  0  0  0  0  0  0  0  0  0
   15.1865   -7.0301   -9.8836 C   0  0  0  0  0  0  0  0  0  0  0  0
   15.1173   -8.3699  -10.2710 C   0  0  0  0  0  0  0  0  0  0  0  0
   14.5341   -9.3401   -9.5167 C   0  0  0  0  0  0  0  0  0  0  0  0
   13.9726   -9.0268   -8.3046 C   0  0  0  0  0  0  0  0  0  0  0  0
   14.0237   -7.7197   -7.8948 C   0  0  0  0  0  0  0  0  0  0  0  0
   14.6108   -6.7456   -8.6551 C   0  0  0  0  0  0  0  0  0  0  0  0
   17.4427   -5.6418   -8.9389 C   0  0  0  0  0  0  0  0  0  0  0  0
   18.0639   -6.5542   -8.1118 O   0  0  0  0  0  0  0  0  0  0  0  0
   16.9726   -4.6130   -8.3410 O   0  0  0  0  0  0  0  0  0  0  0  0
  2  1  1  1
  3  2  1  0
  4  3  1  0
  4  5  2  0
  6  5  1  0
  7  6  2  0
  8  9  2  0
  8  7  1  0
  9  4  1  0
 10 11  2  0
 10  2  1  0
 12 10  1  0
 13 14  1  6
 13 12  1  0
 15 16  2  0
 15 14  1  0
 17 16  1  0
 18 17  2  0
 19 18  1  0
 19 20  2  0
 20 15  1  0
 21 13  1  0
 22 21  2  0
 23 21  1  0
 24 23  1  0
 24 25  1  1
 25 26  1  0
 26 31  1  0
 27 26  2  0
 27 28  1  0
 28 29  2  0
 29 30  1  0
 31 30  2  0
 32 33  1  0
 32 24  1  0
 34 32  2  0
M  END
$$$$
