FFF.pdb
     RDKit          3D

 34 36  0  0  1  0  0  0  0  0999 V2000
   25.8422  -23.0577  -19.7569 N   0  0  0  0  0  0  0  0  0  0  0  0
   25.3902  -21.9285  -18.9966 C   0  0  1  0  0  0  0  0  0  0  0  0
   23.8788  -21.8674  -19.0583 C   0  0  0  0  0  0  0  0  0  0  0  0
   23.5219  -21.1799  -20.3271 C   0  0  0  0  0  0  0  0  0  0  0  0
   23.0099  -21.8709  -21.4045 C   0  0  0  0  0  0  0  0  0  0  0  0
   22.6816  -21.2009  -22.5879 C   0  0  0  0  0  0  0  0  0  0  0  0
   22.8568  -19.8512  -22.7120 C   0  0  0  0  0  0  0  0  0  0  0  0
   23.3680  -19.1534  -21.6399 C   0  0  0  0  0  0  0  0  0  0  0  0
   23.6957  -19.8208  -20.4593 C   0  0  0  0  0  0  0  0  0  0  0  0
   25.9067  -21.9683  -17.6294 C   0  0  0  0  0  0  0  0  0  0  0  0
   26.0761  -23.0764  -17.0654 O   0  0  0  0  0  0  0  0  0  0  0  0
   26.2159  -20.7731  -16.9392 N   0  0  0  0  0  0  0  0  0  0  0  0
   26.8135  -20.9186  -15.5638 C   0  0  1  0  0  0  0  0  0  0  0  0
   27.7846  -19.7988  -15.3873 C   0  0  0  0  0  0  0  0  0  0  0  0
   28.2962  -19.6852  -14.0228 C   0  0  0  0  0  0  0  0  0  0  0  0
   29.2895  -20.5752  -13.5816 C   0  0  0  0  0  0  0  0  0  0  0  0
   29.8546  -20.4907  -12.3324 C   0  0  0  0  0  0  0  0  0  0  0  0
   29.4642  -19.5125  -11.4446 C   0  0  0  0  0  0  0  0  0  0  0  0
   28.4921  -18.6301  -11.8563 C   0  0  0  0  0  0  0  0  0  0  0  0
   27.9208  -18.7158  -13.1184 C   0  0  0  0  0  0  0  0  0  0  0  0
   25.6713  -20.7998  -14.6755 C   0  0  0  0  0  0  0  0  0  0  0  0
   24.7664  -19.9640  -14.9082 O   0  0  0  0  0  0  0  0  0  0  0  0
   25.5148  -21.6101  -13.5282 N   0  0  0  0  0  0  0  0  0  0  0  0
   24.3511  -21.3910  -12.6709 C   0  0  1  0  0  0  0  0  0  0  0  0
   24.5981  -22.3376  -11.4769 C   0  0  0  0  0  0  0  0  0  0  0  0
   25.6181  -21.8230  -10.5557 C   0  0  0  0  0  0  0  0  0  0  0  0
   25.3349  -20.7896   -9.6603 C   0  0  0  0  0  0  0  0  0  0  0  0
   26.2446  -20.2861   -8.7832 C   0  0  0  0  0  0  0  0  0  0  0  0
   27.5190  -20.7931   -8.7448 C   0  0  0  0  0  0  0  0  0  0  0  0
   27.8296  -21.8088   -9.6112 C   0  0  0  0  0  0  0  0  0  0  0  0
   26.9130  -22.3138  -10.4925 C   0  0  0  0  0  0  0  0  0  0  0  0
   24.2282  -20.0334  -12.1777 C   0  0  0  0  0  0  0  0  0  0  0  0
   25.2473  -19.1070  -12.2517 O   0  0  0  0  0  0  0  0  0  0  0  0
   23.1533  -19.6021  -11.6343 O   0  0  0  0  0  0  0  0  0  0  0  0
  2  1  1  6
  3  2  1  0
  4  3  1  0
  4  5  2  0
  6  5  1  0
  7  6  2  0
  8  9  2  0
  8  7  1  0
  9  4  1  0
 10 11  2  0
 10  2  1  0
 12 10  1  0
 13 14  1  1
 13 12  1  0
 15 16  2  0
 15 14  1  0
 17 16  1  0
 18 17  2  0
 19 18  1  0
 19 20  2  0
 20 15  1  0
 21 13  1  0
 22 21  2  0
 23 21  1  0
 24 23  1  0
 24 25  1  1
 25 26  1  0
 26 31  1  0
 27 26  2  0
 27 28  1  0
 28 29  2  0
 29 30  1  0
 31 30  2  0
 32 33  1  0
 32 24  1  0
 34 32  2  0
M  END
$$$$
