FFF.pdb
     RDKit          3D

 34 36  0  0  1  0  0  0  0  0999 V2000
   23.8087  -19.5915  -20.0767 N   0  0  0  0  0  0  0  0  0  0  0  0
   23.0882  -18.9885  -18.9927 C   0  0  1  0  0  0  0  0  0  0  0  0
   21.6945  -18.6339  -19.4657 C   0  0  0  0  0  0  0  0  0  0  0  0
   21.8351  -17.5191  -20.4389 C   0  0  0  0  0  0  0  0  0  0  0  0
   22.2110  -16.2542  -20.0399 C   0  0  0  0  0  0  0  0  0  0  0  0
   22.3364  -15.2215  -20.9753 C   0  0  0  0  0  0  0  0  0  0  0  0
   22.0923  -15.4325  -22.3033 C   0  0  0  0  0  0  0  0  0  0  0  0
   21.7162  -16.6937  -22.7102 C   0  0  0  0  0  0  0  0  0  0  0  0
   21.5908  -17.7242  -21.7780 C   0  0  0  0  0  0  0  0  0  0  0  0
   23.0905  -19.8487  -17.8105 C   0  0  0  0  0  0  0  0  0  0  0  0
   23.1514  -21.0939  -17.9531 O   0  0  0  0  0  0  0  0  0  0  0  0
   23.0251  -19.2917  -16.5121 N   0  0  0  0  0  0  0  0  0  0  0  0
   23.0432  -20.2587  -15.3568 C   0  0  1  0  0  0  0  0  0  0  0  0
   23.7090  -19.5648  -14.2152 C   0  0  0  0  0  0  0  0  0  0  0  0
   23.6679  -20.3286  -12.9694 C   0  0  0  0  0  0  0  0  0  0  0  0
   24.5782  -21.3806  -12.7744 C   0  0  0  0  0  0  0  0  0  0  0  0
   24.6326  -22.1029  -11.6072 C   0  0  0  0  0  0  0  0  0  0  0  0
   23.7822  -21.8210  -10.5610 C   0  0  0  0  0  0  0  0  0  0  0  0
   22.8821  -20.7943  -10.7310 C   0  0  0  0  0  0  0  0  0  0  0  0
   22.8268  -20.0647  -11.9106 C   0  0  0  0  0  0  0  0  0  0  0  0
   21.6380  -20.5162  -15.0985 C   0  0  0  0  0  0  0  0  0  0  0  0
   20.8422  -19.5686  -14.8973 O   0  0  0  0  0  0  0  0  0  0  0  0
   21.0986  -21.8222  -15.0699 N   0  0  0  0  0  0  0  0  0  0  0  0
   19.7245  -22.0011  -14.6040 C   0  0  1  0  0  0  0  0  0  0  0  0
   19.1186  -22.9802  -15.6321 C   0  0  0  0  0  0  0  0  0  0  0  0
   17.7200  -23.3106  -15.3343 C   0  0  0  0  0  0  0  0  0  0  0  0
   16.6730  -22.4861  -15.7511 C   0  0  0  0  0  0  0  0  0  0  0  0
   15.3624  -22.7553  -15.5057 C   0  0  0  0  0  0  0  0  0  0  0  0
   15.0086  -23.8870  -14.8152 C   0  0  0  0  0  0  0  0  0  0  0  0
   16.0130  -24.7180  -14.3918 C   0  0  0  0  0  0  0  0  0  0  0  0
   17.3306  -24.4453  -14.6397 C   0  0  0  0  0  0  0  0  0  0  0  0
   19.6209  -22.5844  -13.2809 C   0  0  0  0  0  0  0  0  0  0  0  0
   18.6437  -22.2319  -12.3736 O   0  0  0  0  0  0  0  0  0  0  0  0
   20.4403  -23.4742  -12.8641 O   0  0  0  0  0  0  0  0  0  0  0  0
  2  1  1  6
  3  2  1  0
  4  3  1  0
  4  5  2  0
  6  5  1  0
  7  6  2  0
  8  9  2  0
  8  7  1  0
  9  4  1  0
 10 11  2  0
 10  2  1  0
 12 10  1  0
 13 14  1  1
 13 12  1  0
 15 16  2  0
 15 14  1  0
 17 16  1  0
 18 17  2  0
 19 18  1  0
 19 20  2  0
 20 15  1  0
 21 13  1  0
 22 21  2  0
 23 21  1  0
 24 23  1  0
 24 25  1  6
 25 26  1  0
 26 31  1  0
 27 26  2  0
 27 28  1  0
 28 29  2  0
 29 30  1  0
 31 30  2  0
 32 33  1  0
 32 24  1  0
 34 32  2  0
M  END
$$$$
