FFF.pdb
     RDKit          3D

 34 36  0  0  1  0  0  0  0  0999 V2000
   19.1511  -10.7902  -15.1249 N   0  0  0  0  0  0  0  0  0  0  0  0
   18.3207   -9.6850  -14.7420 C   0  0  1  0  0  0  0  0  0  0  0  0
   16.8878   -9.9916  -15.1224 C   0  0  0  0  0  0  0  0  0  0  0  0
   16.6569   -9.3975  -16.4654 C   0  0  0  0  0  0  0  0  0  0  0  0
   17.1846   -8.1728  -16.8145 C   0  0  0  0  0  0  0  0  0  0  0  0
   16.9530   -7.6349  -18.0851 C   0  0  0  0  0  0  0  0  0  0  0  0
   16.2024   -8.3013  -19.0124 C   0  0  0  0  0  0  0  0  0  0  0  0
   15.6715   -9.5259  -18.6714 C   0  0  0  0  0  0  0  0  0  0  0  0
   15.9020  -10.0630  -17.4045 C   0  0  0  0  0  0  0  0  0  0  0  0
   18.4815   -9.3668  -13.3240 C   0  0  0  0  0  0  0  0  0  0  0  0
   18.6067  -10.2983  -12.4926 O   0  0  0  0  0  0  0  0  0  0  0  0
   18.4971   -8.0232  -12.8827 N   0  0  0  0  0  0  0  0  0  0  0  0
   18.7517   -7.7935  -11.4156 C   0  0  1  0  0  0  0  0  0  0  0  0
   20.1523   -7.2936  -11.2870 C   0  0  0  0  0  0  0  0  0  0  0  0
   20.5304   -6.3521  -12.3392 C   0  0  0  0  0  0  0  0  0  0  0  0
   20.1429   -5.0060  -12.2329 C   0  0  0  0  0  0  0  0  0  0  0  0
   20.5105   -4.0568  -13.1554 C   0  0  0  0  0  0  0  0  0  0  0  0
   21.2880   -4.3910  -14.2422 C   0  0  0  0  0  0  0  0  0  0  0  0
   21.6785   -5.7046  -14.3659 C   0  0  0  0  0  0  0  0  0  0  0  0
   21.3067   -6.6637  -13.4340 C   0  0  0  0  0  0  0  0  0  0  0  0
   17.7733   -6.7857  -11.0479 C   0  0  0  0  0  0  0  0  0  0  0  0
   17.2252   -6.0784  -11.9259 O   0  0  0  0  0  0  0  0  0  0  0  0
   17.3854   -6.5580   -9.7081 N   0  0  0  0  0  0  0  0  0  0  0  0
   16.4901   -5.4388   -9.4201 C   0  0  1  0  0  0  0  0  0  0  0  0
   15.6517   -5.9441   -8.2266 C   0  0  0  0  0  0  0  0  0  0  0  0
   14.5463   -6.8132   -8.6465 C   0  0  0  0  0  0  0  0  0  0  0  0
   13.2424   -6.3272   -8.7624 C   0  0  0  0  0  0  0  0  0  0  0  0
   12.1884   -7.0922   -9.1554 C   0  0  0  0  0  0  0  0  0  0  0  0
   12.3745   -8.4163   -9.4633 C   0  0  0  0  0  0  0  0  0  0  0  0
   13.6432   -8.9248   -9.3598 C   0  0  0  0  0  0  0  0  0  0  0  0
   14.7018   -8.1536   -8.9643 C   0  0  0  0  0  0  0  0  0  0  0  0
   17.1736   -4.2204   -9.0328 C   0  0  0  0  0  0  0  0  0  0  0  0
   16.5823   -2.9751   -9.0765 O   0  0  0  0  0  0  0  0  0  0  0  0
   18.3850   -4.2219   -8.6213 O   0  0  0  0  0  0  0  0  0  0  0  0
  2  1  1  1
  3  2  1  0
  4  3  1  0
  4  5  2  0
  6  5  1  0
  7  6  2  0
  8  9  2  0
  8  7  1  0
  9  4  1  0
 10 11  2  0
 10  2  1  0
 12 10  1  0
 13 14  1  6
 13 12  1  0
 15 16  2  0
 15 14  1  0
 17 16  1  0
 18 17  2  0
 19 18  1  0
 19 20  2  0
 20 15  1  0
 21 13  1  0
 22 21  2  0
 23 21  1  0
 24 23  1  0
 24 25  1  1
 25 26  1  0
 26 31  1  0
 27 26  2  0
 27 28  1  0
 28 29  2  0
 29 30  1  0
 31 30  2  0
 32 33  1  0
 32 24  1  0
 34 32  2  0
M  END
$$$$
