FFF.pdb
     RDKit          3D

 34 36  0  0  1  0  0  0  0  0999 V2000
   28.5117  -21.6404  -17.0811 N   0  0  0  0  0  0  0  0  0  0  0  0
   27.3825  -20.8228  -16.7434 C   0  0  1  0  0  0  0  0  0  0  0  0
   26.4598  -20.7401  -17.9407 C   0  0  0  0  0  0  0  0  0  0  0  0
   27.0925  -19.8128  -18.9152 C   0  0  0  0  0  0  0  0  0  0  0  0
   27.0751  -18.4469  -18.7294 C   0  0  0  0  0  0  0  0  0  0  0  0
   27.6778  -17.5950  -19.6612 C   0  0  0  0  0  0  0  0  0  0  0  0
   28.2977  -18.0861  -20.7757 C   0  0  0  0  0  0  0  0  0  0  0  0
   28.3195  -19.4499  -20.9687 C   0  0  0  0  0  0  0  0  0  0  0  0
   27.7186  -20.3002  -20.0399 C   0  0  0  0  0  0  0  0  0  0  0  0
   26.7149  -21.3120  -15.5381 C   0  0  0  0  0  0  0  0  0  0  0  0
   26.6556  -22.5468  -15.3231 O   0  0  0  0  0  0  0  0  0  0  0  0
   26.1372  -20.4088  -14.6157 N   0  0  0  0  0  0  0  0  0  0  0  0
   25.6109  -20.9944  -13.3311 C   0  0  1  0  0  0  0  0  0  0  0  0
   26.2283  -20.2227  -12.2125 C   0  0  0  0  0  0  0  0  0  0  0  0
   27.5817  -20.6648  -11.8813 C   0  0  0  0  0  0  0  0  0  0  0  0
   28.6718  -20.1506  -12.6027 C   0  0  0  0  0  0  0  0  0  0  0  0
   29.9728  -20.4792  -12.3087 C   0  0  0  0  0  0  0  0  0  0  0  0
   30.2680  -21.3417  -11.2761 C   0  0  0  0  0  0  0  0  0  0  0  0
   29.2148  -21.8575  -10.5565 C   0  0  0  0  0  0  0  0  0  0  0  0
   27.9002  -21.5258  -10.8538 C   0  0  0  0  0  0  0  0  0  0  0  0
   24.1768  -20.7846  -13.4167 C   0  0  0  0  0  0  0  0  0  0  0  0
   23.7108  -19.6391  -13.6222 O   0  0  0  0  0  0  0  0  0  0  0  0
   23.2464  -21.8404  -13.2857 N   0  0  0  0  0  0  0  0  0  0  0  0
   21.8198  -21.5264  -13.3448 C   0  0  1  0  0  0  0  0  0  0  0  0
   21.1595  -22.8941  -13.6209 C   0  0  0  0  0  0  0  0  0  0  0  0
   19.6992  -22.7992  -13.7305 C   0  0  0  0  0  0  0  0  0  0  0  0
   18.8673  -23.1031  -12.6509 C   0  0  0  0  0  0  0  0  0  0  0  0
   17.5104  -23.0220  -12.7029 C   0  0  0  0  0  0  0  0  0  0  0  0
   16.8873  -22.6246  -13.8589 C   0  0  0  0  0  0  0  0  0  0  0  0
   17.6756  -22.3188  -14.9378 C   0  0  0  0  0  0  0  0  0  0  0  0
   19.0402  -22.4011  -14.8833 C   0  0  0  0  0  0  0  0  0  0  0  0
   21.2828  -20.9849  -12.1119 C   0  0  0  0  0  0  0  0  0  0  0  0
   21.7112  -21.3811  -10.8622 O   0  0  0  0  0  0  0  0  0  0  0  0
   20.3646  -20.0940  -12.1037 O   0  0  0  0  0  0  0  0  0  0  0  0
  2  1  1  6
  3  2  1  0
  4  3  1  0
  4  5  2  0
  6  5  1  0
  7  6  2  0
  8  9  2  0
  8  7  1  0
  9  4  1  0
 10 11  2  0
 10  2  1  0
 12 10  1  0
 13 14  1  1
 13 12  1  0
 15 16  2  0
 15 14  1  0
 17 16  1  0
 18 17  2  0
 19 18  1  0
 19 20  2  0
 20 15  1  0
 21 13  1  0
 22 21  2  0
 23 21  1  0
 24 23  1  0
 24 25  1  1
 25 26  1  0
 26 31  1  0
 27 26  2  0
 27 28  1  0
 28 29  2  0
 29 30  1  0
 31 30  2  0
 32 33  1  0
 32 24  1  0
 34 32  2  0
M  END
$$$$
