FFF.pdb
     RDKit          3D

 34 36  0  0  1  0  0  0  0  0999 V2000
   21.6538  -10.6154  -20.2235 N   0  0  0  0  0  0  0  0  0  0  0  0
   20.7398   -9.6654  -19.6580 C   0  0  1  0  0  0  0  0  0  0  0  0
   19.8858  -10.3625  -18.6203 C   0  0  0  0  0  0  0  0  0  0  0  0
   19.0163  -11.3249  -19.3467 C   0  0  0  0  0  0  0  0  0  0  0  0
   17.8837  -10.9132  -20.0160 C   0  0  0  0  0  0  0  0  0  0  0  0
   17.0816  -11.8386  -20.6924 C   0  0  0  0  0  0  0  0  0  0  0  0
   17.3933  -13.1690  -20.7107 C   0  0  0  0  0  0  0  0  0  0  0  0
   18.5235  -13.5887  -20.0443 C   0  0  0  0  0  0  0  0  0  0  0  0
   19.3240  -12.6665  -19.3695 C   0  0  0  0  0  0  0  0  0  0  0  0
   21.4459   -8.4994  -19.1295 C   0  0  0  0  0  0  0  0  0  0  0  0
   22.6113   -8.6330  -18.6838 O   0  0  0  0  0  0  0  0  0  0  0  0
   20.8293   -7.2266  -19.1162 N   0  0  0  0  0  0  0  0  0  0  0  0
   21.6911   -6.0590  -18.7111 C   0  0  1  0  0  0  0  0  0  0  0  0
   21.4333   -4.9633  -19.6914 C   0  0  0  0  0  0  0  0  0  0  0  0
   20.0188   -4.6150  -19.8124 C   0  0  0  0  0  0  0  0  0  0  0  0
   19.2168   -5.2981  -20.7416 C   0  0  0  0  0  0  0  0  0  0  0  0
   17.8696   -5.0613  -20.8690 C   0  0  0  0  0  0  0  0  0  0  0  0
   17.2379   -4.1280  -20.0772 C   0  0  0  0  0  0  0  0  0  0  0  0
   18.0051   -3.4469  -19.1603 C   0  0  0  0  0  0  0  0  0  0  0  0
   19.3663   -3.6859  -19.0317 C   0  0  0  0  0  0  0  0  0  0  0  0
   21.2193   -5.7260  -17.3791 C   0  0  0  0  0  0  0  0  0  0  0  0
   20.1359   -6.1898  -16.9515 O   0  0  0  0  0  0  0  0  0  0  0  0
   21.9454   -4.8856  -16.5050 N   0  0  0  0  0  0  0  0  0  0  0  0
   21.3749   -4.5805  -15.1940 C   0  0  1  0  0  0  0  0  0  0  0  0
   22.5031   -4.9602  -14.2113 C   0  0  0  0  0  0  0  0  0  0  0  0
   22.7379   -6.4080  -14.1602 C   0  0  0  0  0  0  0  0  0  0  0  0
   23.6171   -7.0341  -15.0460 C   0  0  0  0  0  0  0  0  0  0  0  0
   23.8723   -8.3702  -15.0313 C   0  0  0  0  0  0  0  0  0  0  0  0
   23.2534   -9.1802  -14.1129 C   0  0  0  0  0  0  0  0  0  0  0  0
   22.3840   -8.5965  -13.2285 C   0  0  0  0  0  0  0  0  0  0  0  0
   22.1287   -7.2525  -13.2451 C   0  0  0  0  0  0  0  0  0  0  0  0
   21.0387   -3.1827  -15.0072 C   0  0  0  0  0  0  0  0  0  0  0  0
   20.3330   -2.7137  -13.9189 O   0  0  0  0  0  0  0  0  0  0  0  0
   21.3784   -2.2831  -15.8511 O   0  0  0  0  0  0  0  0  0  0  0  0
  2  1  1  1
  3  2  1  0
  4  3  1  0
  4  5  2  0
  6  5  1  0
  7  6  2  0
  8  9  2  0
  8  7  1  0
  9  4  1  0
 10 11  2  0
 10  2  1  0
 12 10  1  0
 13 14  1  6
 13 12  1  0
 15 16  2  0
 15 14  1  0
 17 16  1  0
 18 17  2  0
 19 18  1  0
 19 20  2  0
 20 15  1  0
 21 13  1  0
 22 21  2  0
 23 21  1  0
 24 23  1  0
 24 25  1  1
 25 26  1  0
 26 31  1  0
 27 26  2  0
 27 28  1  0
 28 29  2  0
 29 30  1  0
 31 30  2  0
 32 33  1  0
 32 24  1  0
 34 32  2  0
M  END
$$$$
